2J7G_GI4_A_1446


 24 25  0  0  0  0  0  0  0  0999 V2000
   -0.8343   10.2656   10.8209 C   0  0  0  0  0  0  0  0  0  0  0  0
    0.1546   11.1409   10.0556 C   0  0  0  0  0  0  0  0  0  0  0  0
   -0.4560   11.6481    8.7466 C   0  0  0  0  0  0  0  0  0  0  0  0
   -1.2941   10.5167    8.0968 C   0  0  0  0  0  0  0  0  0  0  0  0
   -2.5329   10.2149    8.9945 C   0  0  0  0  0  0  0  0  0  0  0  0
    0.5674   12.2516   10.8578 O   0  0  0  0  0  0  0  0  0  0  0  0
    0.6506   12.0283    7.9521 O   0  0  0  0  0  0  0  0  0  0  0  0
   -1.7682   10.9405    6.8357 O   0  0  0  0  0  0  0  0  0  0  0  0
   -2.0809    9.8096   10.3402 N   0  0  0  0  0  0  0  0  0  0  0  0
   -0.6924    9.7532   12.0174 N   0  0  0  0  0  0  0  0  0  0  0  0
   -1.7499    9.0000   12.3249 C   0  0  0  0  0  0  0  0  0  0  0  0
   -2.6132    9.0391   11.3064 C   0  0  0  0  0  0  0  0  0  0  0  0
   -0.2035   12.8002   11.0717 H   0  0  0  0  0  0  0  0  0  0  0  0
    1.2457   11.2702    7.8427 H   0  0  0  0  0  0  0  0  0  0  0  0
   -2.3222   11.7289    6.9468 H   0  0  0  0  0  0  0  0  0  0  0  0
    0.0830    9.9022   12.6055 H   0  0  0  0  0  0  0  0  0  0  0  0
   -3.4908    9.1800    8.4150 C   0  0  0  0  0  0  0  0  0  0  0  0
   -4.1563    9.7229    7.2817 O   0  0  0  0  0  0  0  0  0  0  0  0
   -4.6581   10.5093    7.5474 H   0  0  0  0  0  0  0  0  0  0  0  0
   -1.8386    8.3828   13.7282 C   0  0  0  0  0  0  0  0  0  0  0  0
   -2.3275    9.2585   14.8582 C   0  0  0  0  0  0  0  0  0  0  0  0
   -2.0727   10.4686   14.8037 O   0  0  0  0  0  0  0  0  0  0  0  0
   -3.0034    8.6833   15.7371 O   0  0  0  0  0  0  0  0  0  0  0  0
   -3.1413    7.7576   15.6910 H   0  0  0  0  0  0  0  0  0  0  0  0
 20 11  1  0  0  0
 20 21  1  0  0  0
  1  2  1  0  0  0
  1  9  2  0  0  0
  1 10  1  0  0  0
  2  3  1  0  0  0
  2  6  1  0  0  0
  3  4  1  0  0  0
  3  7  1  0  0  0
  4  5  1  0  0  0
  4  8  1  0  0  0
  5 17  1  0  0  0
  5  9  1  0  0  0
 17 18  1  0  0  0
  9 12  1  0  0  0
 10 11  1  0  0  0
 11 12  2  0  0  0
 21 22  2  0  0  0
 21 23  1  0  0  0
  6 13  1  0  0  0
  7 14  1  0  0  0
  8 15  1  0  0  0
 18 19  1  0  0  0
 10 16  1  0  0  0
 23 24  1  0  0  0
M  CHG 1   9   1
M  END
> <minimizedAffinity>
-9.21687

$$$$
2J7G_GI4_A_1446


 24 25  0  0  0  0  0  0  0  0999 V2000
   -0.4776    7.3122   14.1190 C   0  0  0  0  0  0  0  0  0  0  0  0
    0.2402    6.4129   15.1220 C   0  0  0  0  0  0  0  0  0  0  0  0
   -0.7051    5.9723   16.2428 C   0  0  0  0  0  0  0  0  0  0  0  0
   -1.6181    7.1601   16.6432 C   0  0  0  0  0  0  0  0  0  0  0  0
   -2.5746    7.4949   15.4580 C   0  0  0  0  0  0  0  0  0  0  0  0
    0.7814    5.2617   14.4668 O   0  0  0  0  0  0  0  0  0  0  0  0
    0.1453    5.5627   17.2961 O   0  0  0  0  0  0  0  0  0  0  0  0
   -2.4150    6.7950   17.7507 O   0  0  0  0  0  0  0  0  0  0  0  0
   -1.7789    7.8402   14.2634 N   0  0  0  0  0  0  0  0  0  0  0  0
   -0.0133    7.7834   12.9891 N   0  0  0  0  0  0  0  0  0  0  0  0
   -0.9186    8.5769   12.4137 C   0  0  0  0  0  0  0  0  0  0  0  0
   -2.0105    8.6075   13.1825 C   0  0  0  0  0  0  0  0  0  0  0  0
    0.0608    4.7445   14.0742 H   0  0  0  0  0  0  0  0  0  0  0  0
    0.7333    6.2945   17.5401 H   0  0  0  0  0  0  0  0  0  0  0  0
   -2.9645    6.0309   17.5158 H   0  0  0  0  0  0  0  0  0  0  0  0
    0.8757    7.5812   12.6175 H   0  0  0  0  0  0  0  0  0  0  0  0
   -3.5909    8.5900   15.7617 C   0  0  0  0  0  0  0  0  0  0  0  0
   -2.9863    9.5978   16.5621 O   0  0  0  0  0  0  0  0  0  0  0  0
   -2.6784    9.2077   17.3952 H   0  0  0  0  0  0  0  0  0  0  0  0
   -0.6198    9.1577   11.0240 C   0  0  0  0  0  0  0  0  0  0  0  0
   -1.1384   10.5411   10.7074 C   0  0  0  0  0  0  0  0  0  0  0  0
   -2.2590   10.6341   10.1899 O   0  0  0  0  0  0  0  0  0  0  0  0
   -0.4004   11.4888   11.0501 O   0  0  0  0  0  0  0  0  0  0  0  0
    0.4357   11.3157   11.4360 H   0  0  0  0  0  0  0  0  0  0  0  0
 20 11  1  0  0  0
 20 21  1  0  0  0
  1  2  1  0  0  0
  1  9  2  0  0  0
  1 10  1  0  0  0
  2  3  1  0  0  0
  2  6  1  0  0  0
  3  4  1  0  0  0
  3  7  1  0  0  0
  4  5  1  0  0  0
  4  8  1  0  0  0
  5 17  1  0  0  0
  5  9  1  0  0  0
 17 18  1  0  0  0
  9 12  1  0  0  0
 10 11  1  0  0  0
 11 12  2  0  0  0
 21 22  2  0  0  0
 21 23  1  0  0  0
  6 13  1  0  0  0
  7 14  1  0  0  0
  8 15  1  0  0  0
 18 19  1  0  0  0
 10 16  1  0  0  0
 23 24  1  0  0  0
M  CHG 1   9   1
M  END
> <minimizedAffinity>
-8.03648

$$$$
2J7G_GI4_A_1446


 24 25  0  0  0  0  0  0  0  0999 V2000
   -2.5557    7.0664   15.2795 C   0  0  0  0  0  0  0  0  0  0  0  0
   -3.8506    6.8247   16.0506 C   0  0  0  0  0  0  0  0  0  0  0  0
   -3.5856    6.0519   17.3454 C   0  0  0  0  0  0  0  0  0  0  0  0
   -2.5168    4.9593   17.0835 C   0  0  0  0  0  0  0  0  0  0  0  0
   -1.1505    5.6421   16.7697 C   0  0  0  0  0  0  0  0  0  0  0  0
   -4.4943    8.0664   16.3530 O   0  0  0  0  0  0  0  0  0  0  0  0
   -4.8398    5.5081   17.7079 O   0  0  0  0  0  0  0  0  0  0  0  0
   -2.3488    4.1709   18.2432 O   0  0  0  0  0  0  0  0  0  0  0  0
   -1.2936    6.5131   15.5863 N   0  0  0  0  0  0  0  0  0  0  0  0
   -2.3903    7.7783   14.1932 N   0  0  0  0  0  0  0  0  0  0  0  0
   -1.1221    7.7086   13.7848 C   0  0  0  0  0  0  0  0  0  0  0  0
   -0.4386    6.9444   14.6410 C   0  0  0  0  0  0  0  0  0  0  0  0
   -3.9145    8.6024   16.9163 H   0  0  0  0  0  0  0  0  0  0  0  0
   -5.1763    4.9594   16.9822 H   0  0  0  0  0  0  0  0  0  0  0  0
   -2.0604    4.7343   18.9782 H   0  0  0  0  0  0  0  0  0  0  0  0
   -3.0997    8.2912   13.7427 H   0  0  0  0  0  0  0  0  0  0  0  0
    0.0092    4.6699   16.5843 C   0  0  0  0  0  0  0  0  0  0  0  0
    0.5923    4.3715   17.8464 O   0  0  0  0  0  0  0  0  0  0  0  0
    0.9221    5.1887   18.2515 H   0  0  0  0  0  0  0  0  0  0  0  0
   -0.6826    8.5545   12.5809 C   0  0  0  0  0  0  0  0  0  0  0  0
   -1.7262    9.4017   11.8910 C   0  0  0  0  0  0  0  0  0  0  0  0
   -2.7274    8.8314   11.4388 O   0  0  0  0  0  0  0  0  0  0  0  0
   -1.5086   10.6317   11.8839 O   0  0  0  0  0  0  0  0  0  0  0  0
   -0.7161   10.9694   12.2526 H   0  0  0  0  0  0  0  0  0  0  0  0
 20 11  1  0  0  0
 20 21  1  0  0  0
  1  2  1  0  0  0
  1  9  2  0  0  0
  1 10  1  0  0  0
  2  3  1  0  0  0
  2  6  1  0  0  0
  3  4  1  0  0  0
  3  7  1  0  0  0
  4  5  1  0  0  0
  4  8  1  0  0  0
  5 17  1  0  0  0
  5  9  1  0  0  0
 17 18  1  0  0  0
  9 12  1  0  0  0
 10 11  1  0  0  0
 11 12  2  0  0  0
 21 22  2  0  0  0
 21 23  1  0  0  0
  6 13  1  0  0  0
  7 14  1  0  0  0
  8 15  1  0  0  0
 18 19  1  0  0  0
 10 16  1  0  0  0
 23 24  1  0  0  0
M  CHG 1   9   1
M  END
> <minimizedAffinity>
-7.91256

$$$$
2J7G_GI4_A_1446


 24 25  0  0  0  0  0  0  0  0999 V2000
   -1.1685    6.9987   14.5034 C   0  0  0  0  0  0  0  0  0  0  0  0
   -0.1168    6.3481   15.3983 C   0  0  0  0  0  0  0  0  0  0  0  0
   -0.7703    5.6005   16.5635 C   0  0  0  0  0  0  0  0  0  0  0  0
   -1.9704    6.4253   17.0964 C   0  0  0  0  0  0  0  0  0  0  0  0
   -3.0866    6.4698   16.0084 C   0  0  0  0  0  0  0  0  0  0  0  0
    0.6974    5.4464   14.6424 O   0  0  0  0  0  0  0  0  0  0  0  0
    0.2572    5.4547   17.5244 O   0  0  0  0  0  0  0  0  0  0  0  0
   -2.5086    5.7967   18.2410 O   0  0  0  0  0  0  0  0  0  0  0  0
   -2.5512    7.0815   14.7761 N   0  0  0  0  0  0  0  0  0  0  0  0
   -0.9800    7.6226   13.3679 N   0  0  0  0  0  0  0  0  0  0  0  0
   -2.1369    8.1021   12.9076 C   0  0  0  0  0  0  0  0  0  0  0  0
   -3.1089    7.7637   13.7591 C   0  0  0  0  0  0  0  0  0  0  0  0
    0.1437    4.7375   14.2794 H   0  0  0  0  0  0  0  0  0  0  0  0
    0.6048    6.3288   17.7611 H   0  0  0  0  0  0  0  0  0  0  0  0
   -2.8087    4.9041   18.0087 H   0  0  0  0  0  0  0  0  0  0  0  0
   -0.1099    7.7235   12.9184 H   0  0  0  0  0  0  0  0  0  0  0  0
   -4.3639    7.1765   16.4481 C   0  0  0  0  0  0  0  0  0  0  0  0
   -5.0179    6.4076   17.4496 O   0  0  0  0  0  0  0  0  0  0  0  0
   -5.2428    5.5346   17.0916 H   0  0  0  0  0  0  0  0  0  0  0  0
   -2.1628    8.7842   11.5322 C   0  0  0  0  0  0  0  0  0  0  0  0
   -1.1110    9.8284   11.2388 C   0  0  0  0  0  0  0  0  0  0  0  0
   -1.4069   11.0157   11.4261 O   0  0  0  0  0  0  0  0  0  0  0  0
    0.0017    9.3912   10.8770 O   0  0  0  0  0  0  0  0  0  0  0  0
    0.1281    8.4699   10.7617 H   0  0  0  0  0  0  0  0  0  0  0  0
 20 11  1  0  0  0
 20 21  1  0  0  0
  1  2  1  0  0  0
  1  9  2  0  0  0
  1 10  1  0  0  0
  2  3  1  0  0  0
  2  6  1  0  0  0
  3  4  1  0  0  0
  3  7  1  0  0  0
  4  5  1  0  0  0
  4  8  1  0  0  0
  5 17  1  0  0  0
  5  9  1  0  0  0
 17 18  1  0  0  0
  9 12  1  0  0  0
 10 11  1  0  0  0
 11 12  2  0  0  0
 21 22  2  0  0  0
 21 23  1  0  0  0
  6 13  1  0  0  0
  7 14  1  0  0  0
  8 15  1  0  0  0
 18 19  1  0  0  0
 10 16  1  0  0  0
 23 24  1  0  0  0
M  CHG 1   9   1
M  END
> <minimizedAffinity>
-7.86565

$$$$
2J7G_GI4_A_1446


 24 25  0  0  0  0  0  0  0  0999 V2000
   -2.0183    7.7737   14.5202 C   0  0  0  0  0  0  0  0  0  0  0  0
   -2.5578    7.7014   15.9463 C   0  0  0  0  0  0  0  0  0  0  0  0
   -1.5186    7.1053   16.8995 C   0  0  0  0  0  0  0  0  0  0  0  0
   -0.7804    5.9391   16.1926 C   0  0  0  0  0  0  0  0  0  0  0  0
    0.0731    6.5082   15.0183 C   0  0  0  0  0  0  0  0  0  0  0  0
   -2.9429    9.0013   16.4041 O   0  0  0  0  0  0  0  0  0  0  0  0
   -2.2607    6.6753   18.0241 O   0  0  0  0  0  0  0  0  0  0  0  0
    0.1003    5.3130   17.1022 O   0  0  0  0  0  0  0  0  0  0  0  0
   -0.8065    7.2114   14.0637 N   0  0  0  0  0  0  0  0  0  0  0  0
   -2.5870    8.3190   13.4745 N   0  0  0  0  0  0  0  0  0  0  0  0
   -1.8316    8.1351   12.3903 C   0  0  0  0  0  0  0  0  0  0  0  0
   -0.7304    7.4672   12.7448 C   0  0  0  0  0  0  0  0  0  0  0  0
   -2.1671    9.5834   16.4143 H   0  0  0  0  0  0  0  0  0  0  0  0
   -2.9429    6.0468   17.7403 H   0  0  0  0  0  0  0  0  0  0  0  0
    0.7495    5.9595   17.4206 H   0  0  0  0  0  0  0  0  0  0  0  0
   -3.4481    8.7961   13.4866 H   0  0  0  0  0  0  0  0  0  0  0  0
    0.9239    5.4675   14.2988 C   0  0  0  0  0  0  0  0  0  0  0  0
    0.3105    4.1890   14.4050 O   0  0  0  0  0  0  0  0  0  0  0  0
    0.2308    3.9453   15.3405 H   0  0  0  0  0  0  0  0  0  0  0  0
   -2.2623    8.7839   11.0669 C   0  0  0  0  0  0  0  0  0  0  0  0
   -1.8652   10.2206   10.8195 C   0  0  0  0  0  0  0  0  0  0  0  0
   -2.2861   10.7681    9.7922 O   0  0  0  0  0  0  0  0  0  0  0  0
   -1.1787   10.7558   11.7153 O   0  0  0  0  0  0  0  0  0  0  0  0
   -0.9067   10.2552   12.4592 H   0  0  0  0  0  0  0  0  0  0  0  0
 20 11  1  0  0  0
 20 21  1  0  0  0
  1  2  1  0  0  0
  1  9  2  0  0  0
  1 10  1  0  0  0
  2  3  1  0  0  0
  2  6  1  0  0  0
  3  4  1  0  0  0
  3  7  1  0  0  0
  4  5  1  0  0  0
  4  8  1  0  0  0
  5 17  1  0  0  0
  5  9  1  0  0  0
 17 18  1  0  0  0
  9 12  1  0  0  0
 10 11  1  0  0  0
 11 12  2  0  0  0
 21 22  2  0  0  0
 21 23  1  0  0  0
  6 13  1  0  0  0
  7 14  1  0  0  0
  8 15  1  0  0  0
 18 19  1  0  0  0
 10 16  1  0  0  0
 23 24  1  0  0  0
M  CHG 1   9   1
M  END
> <minimizedAffinity>
-7.79545

$$$$
2J7G_GI4_A_1446


 24 25  0  0  0  0  0  0  0  0999 V2000
   -1.1330    8.9420   12.1750 C   0  0  0  0  0  0  0  0  0  0  0  0
   -1.9243    8.7701   13.4690 C   0  0  0  0  0  0  0  0  0  0  0  0
   -1.3675    7.6161   14.3068 C   0  0  0  0  0  0  0  0  0  0  0  0
   -0.9723    6.4443   13.3713 C   0  0  0  0  0  0  0  0  0  0  0  0
    0.2350    6.8790   12.4854 C   0  0  0  0  0  0  0  0  0  0  0  0
   -1.9013    9.9780   14.2358 O   0  0  0  0  0  0  0  0  0  0  0  0
   -2.4138    7.2727   15.1942 O   0  0  0  0  0  0  0  0  0  0  0  0
   -0.5628    5.3357   14.1447 O   0  0  0  0  0  0  0  0  0  0  0  0
   -0.1375    8.0661   11.6906 N   0  0  0  0  0  0  0  0  0  0  0  0
   -1.2599    9.8863   11.2770 N   0  0  0  0  0  0  0  0  0  0  0  0
   -0.4275    9.6680   10.2575 C   0  0  0  0  0  0  0  0  0  0  0  0
    0.2747    8.5598   10.5086 C   0  0  0  0  0  0  0  0  0  0  0  0
   -0.9864   10.1895   14.4787 H   0  0  0  0  0  0  0  0  0  0  0  0
   -3.2075    7.0444   14.6854 H   0  0  0  0  0  0  0  0  0  0  0  0
    0.2005    5.5853   14.6887 H   0  0  0  0  0  0  0  0  0  0  0  0
   -1.8803   10.6478   11.3444 H   0  0  0  0  0  0  0  0  0  0  0  0
    0.7802    5.7777   11.5831 C   0  0  0  0  0  0  0  0  0  0  0  0
    1.8237    5.0810   12.2523 O   0  0  0  0  0  0  0  0  0  0  0  0
    2.5386    5.6998   12.4689 H   0  0  0  0  0  0  0  0  0  0  0  0
   -0.3383   10.7126    9.1355 C   0  0  0  0  0  0  0  0  0  0  0  0
   -1.5386   10.8904    8.2353 C   0  0  0  0  0  0  0  0  0  0  0  0
   -2.5841   11.3164    8.7430 O   0  0  0  0  0  0  0  0  0  0  0  0
   -1.3524   10.6378    7.0263 O   0  0  0  0  0  0  0  0  0  0  0  0
   -0.5207   10.3171    6.7374 H   0  0  0  0  0  0  0  0  0  0  0  0
 20 11  1  0  0  0
 20 21  1  0  0  0
  1  2  1  0  0  0
  1  9  2  0  0  0
  1 10  1  0  0  0
  2  3  1  0  0  0
  2  6  1  0  0  0
  3  4  1  0  0  0
  3  7  1  0  0  0
  4  5  1  0  0  0
  4  8  1  0  0  0
  5 17  1  0  0  0
  5  9  1  0  0  0
 17 18  1  0  0  0
  9 12  1  0  0  0
 10 11  1  0  0  0
 11 12  2  0  0  0
 21 22  2  0  0  0
 21 23  1  0  0  0
  6 13  1  0  0  0
  7 14  1  0  0  0
  8 15  1  0  0  0
 18 19  1  0  0  0
 10 16  1  0  0  0
 23 24  1  0  0  0
M  CHG 1   9   1
M  END
> <minimizedAffinity>
-7.45354

$$$$
2J7G_GI4_A_1446


 24 25  0  0  0  0  0  0  0  0999 V2000
   -1.3118    8.8307   11.9194 C   0  0  0  0  0  0  0  0  0  0  0  0
   -0.9482    9.8249   10.8197 C   0  0  0  0  0  0  0  0  0  0  0  0
   -0.7951    9.1215    9.4687 C   0  0  0  0  0  0  0  0  0  0  0  0
   -0.0827    7.7596    9.6749 C   0  0  0  0  0  0  0  0  0  0  0  0
   -1.0156    6.8098   10.4869 C   0  0  0  0  0  0  0  0  0  0  0  0
   -1.9422   10.8495   10.7203 O   0  0  0  0  0  0  0  0  0  0  0  0
   -0.0376   10.0154    8.6766 O   0  0  0  0  0  0  0  0  0  0  0  0
    0.1618    7.1562    8.4216 O   0  0  0  0  0  0  0  0  0  0  0  0
   -1.3327    7.4250   11.7910 N   0  0  0  0  0  0  0  0  0  0  0  0
   -1.6207    9.0903   13.1649 N   0  0  0  0  0  0  0  0  0  0  0  0
   -1.8251    7.9552   13.8356 C   0  0  0  0  0  0  0  0  0  0  0  0
   -1.6631    6.9281   12.9970 C   0  0  0  0  0  0  0  0  0  0  0  0
   -2.7945   10.4512   10.4840 H   0  0  0  0  0  0  0  0  0  0  0  0
    0.8037   10.2069    9.1199 H   0  0  0  0  0  0  0  0  0  0  0  0
   -0.6803    7.0131    7.9618 H   0  0  0  0  0  0  0  0  0  0  0  0
   -1.6918    9.9931   13.5511 H   0  0  0  0  0  0  0  0  0  0  0  0
   -0.4649    5.4009   10.6771 C   0  0  0  0  0  0  0  0  0  0  0  0
    0.9483    5.4123   10.5195 O   0  0  0  0  0  0  0  0  0  0  0  0
    1.1719    5.7253    9.6290 H   0  0  0  0  0  0  0  0  0  0  0  0
   -2.2998    8.0301   15.2940 C   0  0  0  0  0  0  0  0  0  0  0  0
   -2.9217    9.3215   15.7717 C   0  0  0  0  0  0  0  0  0  0  0  0
   -2.3763   10.3827   15.4419 O   0  0  0  0  0  0  0  0  0  0  0  0
   -3.9800    9.2052   16.4248 O   0  0  0  0  0  0  0  0  0  0  0  0
   -4.3151    8.3536   16.6261 H   0  0  0  0  0  0  0  0  0  0  0  0
 20 11  1  0  0  0
 20 21  1  0  0  0
  1  2  1  0  0  0
  1  9  2  0  0  0
  1 10  1  0  0  0
  2  3  1  0  0  0
  2  6  1  0  0  0
  3  4  1  0  0  0
  3  7  1  0  0  0
  4  5  1  0  0  0
  4  8  1  0  0  0
  5 17  1  0  0  0
  5  9  1  0  0  0
 17 18  1  0  0  0
  9 12  1  0  0  0
 10 11  1  0  0  0
 11 12  2  0  0  0
 21 22  2  0  0  0
 21 23  1  0  0  0
  6 13  1  0  0  0
  7 14  1  0  0  0
  8 15  1  0  0  0
 18 19  1  0  0  0
 10 16  1  0  0  0
 23 24  1  0  0  0
M  CHG 1   9   1
M  END
> <minimizedAffinity>
-7.42575

$$$$
2J7G_GI4_A_1446


 24 25  0  0  0  0  0  0  0  0999 V2000
   -2.6798    7.8044   14.5320 C   0  0  0  0  0  0  0  0  0  0  0  0
   -3.6669    8.0824   15.6626 C   0  0  0  0  0  0  0  0  0  0  0  0
   -3.8077    6.8672   16.5831 C   0  0  0  0  0  0  0  0  0  0  0  0
   -3.8104    5.5724   15.7299 C   0  0  0  0  0  0  0  0  0  0  0  0
   -2.4072    5.3851   15.0761 C   0  0  0  0  0  0  0  0  0  0  0  0
   -3.2502    9.2194   16.4249 O   0  0  0  0  0  0  0  0  0  0  0  0
   -5.0289    7.0686   17.2675 O   0  0  0  0  0  0  0  0  0  0  0  0
   -4.0517    4.4560   16.5607 O   0  0  0  0  0  0  0  0  0  0  0  0
   -2.0957    6.5549   14.2311 N   0  0  0  0  0  0  0  0  0  0  0  0
   -2.2383    8.6432   13.6288 N   0  0  0  0  0  0  0  0  0  0  0  0
   -1.4278    8.0163   12.7743 C   0  0  0  0  0  0  0  0  0  0  0  0
   -1.3242    6.7368   13.1438 C   0  0  0  0  0  0  0  0  0  0  0  0
   -2.3868    9.0392   16.8286 H   0  0  0  0  0  0  0  0  0  0  0  0
   -5.7486    7.1621   16.6239 H   0  0  0  0  0  0  0  0  0  0  0  0
   -3.3555    4.3972   17.2335 H   0  0  0  0  0  0  0  0  0  0  0  0
   -2.4709    9.5989   13.5862 H   0  0  0  0  0  0  0  0  0  0  0  0
   -2.2518    4.0925   14.2827 C   0  0  0  0  0  0  0  0  0  0  0  0
   -3.5256    3.4898   14.0922 O   0  0  0  0  0  0  0  0  0  0  0  0
   -3.9208    3.2895   14.9551 H   0  0  0  0  0  0  0  0  0  0  0  0
   -0.7148    8.8369   11.6898 C   0  0  0  0  0  0  0  0  0  0  0  0
   -1.4537   10.0088   11.0870 C   0  0  0  0  0  0  0  0  0  0  0  0
   -0.9278   11.1266   11.1662 O   0  0  0  0  0  0  0  0  0  0  0  0
   -2.5241    9.7341   10.5049 O   0  0  0  0  0  0  0  0  0  0  0  0
   -2.8421    8.8527   10.5002 H   0  0  0  0  0  0  0  0  0  0  0  0
 20 11  1  0  0  0
 20 21  1  0  0  0
  1  2  1  0  0  0
  1  9  2  0  0  0
  1 10  1  0  0  0
  2  3  1  0  0  0
  2  6  1  0  0  0
  3  4  1  0  0  0
  3  7  1  0  0  0
  4  5  1  0  0  0
  4  8  1  0  0  0
  5 17  1  0  0  0
  5  9  1  0  0  0
 17 18  1  0  0  0
  9 12  1  0  0  0
 10 11  1  0  0  0
 11 12  2  0  0  0
 21 22  2  0  0  0
 21 23  1  0  0  0
  6 13  1  0  0  0
  7 14  1  0  0  0
  8 15  1  0  0  0
 18 19  1  0  0  0
 10 16  1  0  0  0
 23 24  1  0  0  0
M  CHG 1   9   1
M  END
> <minimizedAffinity>
-7.39122

$$$$
2J7G_GI4_A_1446


 24 25  0  0  0  0  0  0  0  0999 V2000
   -0.1856    7.9197   12.1237 C   0  0  0  0  0  0  0  0  0  0  0  0
    0.5935    6.6858   12.5714 C   0  0  0  0  0  0  0  0  0  0  0  0
   -0.0447    6.0496   13.8091 C   0  0  0  0  0  0  0  0  0  0  0  0
   -0.5264    7.1659   14.7716 C   0  0  0  0  0  0  0  0  0  0  0  0
   -1.7005    7.9468   14.1057 C   0  0  0  0  0  0  0  0  0  0  0  0
    0.6606    5.7234   11.5145 O   0  0  0  0  0  0  0  0  0  0  0  0
    0.9755    5.2493   14.3739 O   0  0  0  0  0  0  0  0  0  0  0  0
   -1.0145    6.5876   15.9641 O   0  0  0  0  0  0  0  0  0  0  0  0
   -1.2436    8.5323   12.8297 N   0  0  0  0  0  0  0  0  0  0  0  0
    0.0082    8.6447   11.0509 N   0  0  0  0  0  0  0  0  0  0  0  0
   -0.8400    9.6744   11.0306 C   0  0  0  0  0  0  0  0  0  0  0  0
   -1.6209    9.6063   12.1122 C   0  0  0  0  0  0  0  0  0  0  0  0
   -0.2360    5.4347   11.2828 H   0  0  0  0  0  0  0  0  0  0  0  0
    1.7493    5.8011   14.5678 H   0  0  0  0  0  0  0  0  0  0  0  0
   -1.7564    5.9979   15.7574 H   0  0  0  0  0  0  0  0  0  0  0  0
    0.6828    8.4571   10.3588 H   0  0  0  0  0  0  0  0  0  0  0  0
   -2.3266    9.0162   14.9939 C   0  0  0  0  0  0  0  0  0  0  0  0
   -3.0431    8.3992   16.0561 O   0  0  0  0  0  0  0  0  0  0  0  0
   -3.7439    7.8374   15.6899 H   0  0  0  0  0  0  0  0  0  0  0  0
   -0.8547   10.5998    9.8053 C   0  0  0  0  0  0  0  0  0  0  0  0
    0.2783   11.5870    9.6489 C   0  0  0  0  0  0  0  0  0  0  0  0
    0.8746   11.6157    8.5645 O   0  0  0  0  0  0  0  0  0  0  0  0
    0.4831   12.3374   10.6262 O   0  0  0  0  0  0  0  0  0  0  0  0
   -0.0232   12.2369   11.4082 H   0  0  0  0  0  0  0  0  0  0  0  0
 20 11  1  0  0  0
 20 21  1  0  0  0
  1  2  1  0  0  0
  1  9  2  0  0  0
  1 10  1  0  0  0
  2  3  1  0  0  0
  2  6  1  0  0  0
  3  4  1  0  0  0
  3  7  1  0  0  0
  4  5  1  0  0  0
  4  8  1  0  0  0
  5 17  1  0  0  0
  5  9  1  0  0  0
 17 18  1  0  0  0
  9 12  1  0  0  0
 10 11  1  0  0  0
 11 12  2  0  0  0
 21 22  2  0  0  0
 21 23  1  0  0  0
  6 13  1  0  0  0
  7 14  1  0  0  0
  8 15  1  0  0  0
 18 19  1  0  0  0
 10 16  1  0  0  0
 23 24  1  0  0  0
M  CHG 1   9   1
M  END
> <minimizedAffinity>
-7.38033

$$$$
2J7G_GI4_A_1446


 24 25  0  0  0  0  0  0  0  0999 V2000
   -1.4614    6.8541   12.6280 C   0  0  0  0  0  0  0  0  0  0  0  0
   -0.9719    5.8959   11.5454 C   0  0  0  0  0  0  0  0  0  0  0  0
   -0.2298    6.6481   10.4376 C   0  0  0  0  0  0  0  0  0  0  0  0
   -0.9587    7.9853   10.1455 C   0  0  0  0  0  0  0  0  0  0  0  0
   -0.8288    8.9225   11.3849 C   0  0  0  0  0  0  0  0  0  0  0  0
   -0.1150    4.8976   12.1083 O   0  0  0  0  0  0  0  0  0  0  0  0
   -0.2430    5.7696    9.3292 O   0  0  0  0  0  0  0  0  0  0  0  0
   -0.3454    8.6317    9.0497 O   0  0  0  0  0  0  0  0  0  0  0  0
   -1.4202    8.2639   12.5665 N   0  0  0  0  0  0  0  0  0  0  0  0
   -2.0355    6.5528   13.7655 N   0  0  0  0  0  0  0  0  0  0  0  0
   -2.3692    7.6651   14.4225 C   0  0  0  0  0  0  0  0  0  0  0  0
   -1.9838    8.7203   13.6999 C   0  0  0  0  0  0  0  0  0  0  0  0
    0.6655    5.3231   12.4966 H   0  0  0  0  0  0  0  0  0  0  0  0
   -1.1597    5.5430    9.1072 H   0  0  0  0  0  0  0  0  0  0  0  0
    0.5847    8.8106    9.2591 H   0  0  0  0  0  0  0  0  0  0  0  0
   -2.1976    5.6374   14.0894 H   0  0  0  0  0  0  0  0  0  0  0  0
   -1.4274   10.3107   11.1877 C   0  0  0  0  0  0  0  0  0  0  0  0
   -0.3955   11.2393   10.8792 O   0  0  0  0  0  0  0  0  0  0  0  0
    0.2430   11.2673   11.6089 H   0  0  0  0  0  0  0  0  0  0  0  0
   -2.9659    7.5436   15.8321 C   0  0  0  0  0  0  0  0  0  0  0  0
   -4.3736    7.0105   15.9625 C   0  0  0  0  0  0  0  0  0  0  0  0
   -4.7323    6.1260   15.1743 O   0  0  0  0  0  0  0  0  0  0  0  0
   -5.0464    7.4795   16.9046 O   0  0  0  0  0  0  0  0  0  0  0  0
   -4.6854    8.1511   17.4493 H   0  0  0  0  0  0  0  0  0  0  0  0
 20 11  1  0  0  0
 20 21  1  0  0  0
  1  2  1  0  0  0
  1  9  2  0  0  0
  1 10  1  0  0  0
  2  3  1  0  0  0
  2  6  1  0  0  0
  3  4  1  0  0  0
  3  7  1  0  0  0
  4  5  1  0  0  0
  4  8  1  0  0  0
  5 17  1  0  0  0
  5  9  1  0  0  0
 17 18  1  0  0  0
  9 12  1  0  0  0
 10 11  1  0  0  0
 11 12  2  0  0  0
 21 22  2  0  0  0
 21 23  1  0  0  0
  6 13  1  0  0  0
  7 14  1  0  0  0
  8 15  1  0  0  0
 18 19  1  0  0  0
 10 16  1  0  0  0
 23 24  1  0  0  0
M  CHG 1   9   1
M  END
> <minimizedAffinity>
-7.16550

$$$$
