2O8H_227_A_999


 34 38  0  0  0  0  0  0  0  0999 V2000
   10.5502   22.6673   45.8573 C   0  0  0  0  0  0  0  0  0  0  0  0
   10.6247   20.0418   44.6453 N   0  0  0  0  0  0  0  0  0  0  0  0
    9.9105   21.4948   46.5500 C   0  0  0  0  0  0  0  0  0  0  0  0
   11.6281   23.6734   43.9550 C   0  0  0  0  0  0  0  0  0  0  0  0
   11.6972   24.8922   44.6506 C   0  0  0  0  0  0  0  0  0  0  0  0
   11.2022   24.9738   45.9555 C   0  0  0  0  0  0  0  0  0  0  0  0
   11.0516   22.5599   44.5515 C   0  0  0  0  0  0  0  0  0  0  0  0
   10.9702   21.2337   43.8210 C   0  0  0  0  0  0  0  0  0  0  0  0
   10.6345   23.8646   46.5461 C   0  0  0  0  0  0  0  0  0  0  0  0
    9.5115   20.4045   45.5304 C   0  0  0  0  0  0  0  0  0  0  0  0
   11.8689   17.8971   42.8790 C   0  0  0  0  0  0  0  0  0  0  0  0
   13.9152   16.3257   43.9853 C   0  0  0  0  0  0  0  0  0  0  0  0
   12.4761   16.9255   42.1159 C   0  0  0  0  0  0  0  0  0  0  0  0
   13.5177   16.1294   42.6536 C   0  0  0  0  0  0  0  0  0  0  0  0
   11.6445   19.1081   45.0441 C   0  0  0  0  0  0  0  0  0  0  0  0
   12.2532   18.1246   44.2085 C   0  0  0  0  0  0  0  0  0  0  0  0
   12.0796   19.1956   46.3170 N   0  0  0  0  0  0  0  0  0  0  0  0
   12.9333   18.2712   46.8024 C   0  0  0  0  0  0  0  0  0  0  0  0
   13.6465   17.4657   46.0029 N   0  0  0  0  0  0  0  0  0  0  0  0
   13.2795   17.2991   44.7416 C   0  0  0  0  0  0  0  0  0  0  0  0
   14.7975   14.0606   42.3519 C   0  0  0  0  0  0  0  0  0  0  0  0
   14.0969   15.1960   41.8395 O   0  0  0  0  0  0  0  0  0  0  0  0
   11.4155   17.7809   40.0530 C   0  0  0  0  0  0  0  0  0  0  0  0
   12.1098   16.7584   40.8148 O   0  0  0  0  0  0  0  0  0  0  0  0
   13.3796   22.8824   41.9198 O   0  0  0  0  0  0  0  0  0  0  0  0
   12.2928   23.7410   42.2279 S   0  0  0  0  0  0  0  0  0  0  0  0
   12.6933   25.0653   42.1170 O   0  0  0  0  0  0  0  0  0  0  0  0
    8.0058   22.6389   38.4455 C   0  0  0  0  0  0  0  0  0  0  0  0
   10.3164   22.4516   39.0386 C   0  0  0  0  0  0  0  0  0  0  0  0
   10.9976   23.3013   41.1729 N   0  0  0  0  0  0  0  0  0  0  0  0
   11.4896   23.0734   39.7992 C   0  0  0  0  0  0  0  0  0  0  0  0
    9.1456   23.3335   39.0755 N   0  0  0  0  0  0  0  0  0  0  0  0
    8.7308   23.7604   40.4233 C   0  0  0  0  0  0  0  0  0  0  0  0
    9.9186   24.2905   41.2101 C   0  0  0  0  0  0  0  0  0  0  0  0
 28 32  1  0  0  0
 29 32  1  0  0  0
 29 31  1  0  0  0
 11 13  2  0  0  0
 11 16  1  0  0  0
 12 14  2  0  0  0
 12 20  1  0  0  0
 13 24  1  0  0  0
 13 14  1  0  0  0
 14 22  1  0  0  0
  1  7  1  0  0  0
  1  9  2  0  0  0
  1  3  1  0  0  0
 21 22  1  0  0  0
  2  8  1  0  0  0
  2 15  1  0  0  0
  2 10  1  0  0  0
 23 24  1  0  0  0
  3 10  1  0  0  0
  4 26  1  0  0  0
  4  5  1  0  0  0
  4  7  2  0  0  0
 25 26  2  0  0  0
 26 30  1  0  0  0
 26 27  2  0  0  0
 30 31  1  0  0  0
 30 34  1  0  0  0
 32 33  1  0  0  0
 33 34  1  0  0  0
  5  6  2  0  0  0
  6  9  1  0  0  0
  7  8  1  0  0  0
 15 16  2  0  0  0
 15 17  1  0  0  0
 16 20  1  0  0  0
 17 18  2  0  0  0
 18 19  1  0  0  0
 19 20  2  0  0  0
M  END
> <minimizedAffinity>
-8.36809

$$$$
2O8H_227_A_999


 34 38  0  0  0  0  0  0  0  0999 V2000
   11.1783   23.3491   44.1076 C   0  0  0  0  0  0  0  0  0  0  0  0
   10.4911   20.5406   44.0192 N   0  0  0  0  0  0  0  0  0  0  0  0
   10.5670   22.6806   45.3090 C   0  0  0  0  0  0  0  0  0  0  0  0
   11.8507   23.3483   41.7966 C   0  0  0  0  0  0  0  0  0  0  0  0
   12.3041   24.6706   41.9378 C   0  0  0  0  0  0  0  0  0  0  0  0
   12.2011   25.3094   43.1771 C   0  0  0  0  0  0  0  0  0  0  0  0
   11.2830   22.6851   42.8763 C   0  0  0  0  0  0  0  0  0  0  0  0
   10.7908   21.2566   42.7476 C   0  0  0  0  0  0  0  0  0  0  0  0
   11.6408   24.6458   44.2482 C   0  0  0  0  0  0  0  0  0  0  0  0
    9.7340   21.4491   44.8885 C   0  0  0  0  0  0  0  0  0  0  0  0
   11.7102   18.2155   42.4780 C   0  0  0  0  0  0  0  0  0  0  0  0
   13.5598   16.5887   43.8245 C   0  0  0  0  0  0  0  0  0  0  0  0
   12.3031   17.1618   41.8200 C   0  0  0  0  0  0  0  0  0  0  0  0
   13.2467   16.3358   42.4799 C   0  0  0  0  0  0  0  0  0  0  0  0
   11.4135   19.5704   44.5470 C   0  0  0  0  0  0  0  0  0  0  0  0
   12.0124   18.5002   43.8177 C   0  0  0  0  0  0  0  0  0  0  0  0
   11.7608   19.7089   45.8422 N   0  0  0  0  0  0  0  0  0  0  0  0
   12.5124   18.7639   46.4431 C   0  0  0  0  0  0  0  0  0  0  0  0
   13.2248   17.8665   45.7474 N   0  0  0  0  0  0  0  0  0  0  0  0
   12.9390   17.6456   44.4735 C   0  0  0  0  0  0  0  0  0  0  0  0
   14.6904   14.3580   42.3658 C   0  0  0  0  0  0  0  0  0  0  0  0
   13.8181   15.3187   41.7668 O   0  0  0  0  0  0  0  0  0  0  0  0
   11.4016   17.9345   39.6516 C   0  0  0  0  0  0  0  0  0  0  0  0
   12.0209   16.9378   40.5066 O   0  0  0  0  0  0  0  0  0  0  0  0
   12.5853   21.3618   39.9665 O   0  0  0  0  0  0  0  0  0  0  0  0
   12.0249   22.6598   40.0863 S   0  0  0  0  0  0  0  0  0  0  0  0
   12.8559   23.5894   39.4767 O   0  0  0  0  0  0  0  0  0  0  0  0
    6.8190   22.6474   37.4788 C   0  0  0  0  0  0  0  0  0  0  0  0
    8.9825   21.6602   37.7441 C   0  0  0  0  0  0  0  0  0  0  0  0
   10.4364   22.5793   39.4125 N   0  0  0  0  0  0  0  0  0  0  0  0
   10.4514   21.8915   38.1056 C   0  0  0  0  0  0  0  0  0  0  0  0
    8.2506   22.9300   37.7009 N   0  0  0  0  0  0  0  0  0  0  0  0
    8.3690   23.7578   38.9139 C   0  0  0  0  0  0  0  0  0  0  0  0
    9.8251   23.9071   39.3245 C   0  0  0  0  0  0  0  0  0  0  0  0
 28 32  1  0  0  0
 29 32  1  0  0  0
 29 31  1  0  0  0
 11 13  2  0  0  0
 11 16  1  0  0  0
 12 14  2  0  0  0
 12 20  1  0  0  0
 13 24  1  0  0  0
 13 14  1  0  0  0
 14 22  1  0  0  0
  1  7  1  0  0  0
  1  9  2  0  0  0
  1  3  1  0  0  0
 21 22  1  0  0  0
  2  8  1  0  0  0
  2 15  1  0  0  0
  2 10  1  0  0  0
 23 24  1  0  0  0
  3 10  1  0  0  0
  4 26  1  0  0  0
  4  5  1  0  0  0
  4  7  2  0  0  0
 25 26  2  0  0  0
 26 30  1  0  0  0
 26 27  2  0  0  0
 30 31  1  0  0  0
 30 34  1  0  0  0
 32 33  1  0  0  0
 33 34  1  0  0  0
  5  6  2  0  0  0
  6  9  1  0  0  0
  7  8  1  0  0  0
 15 16  2  0  0  0
 15 17  1  0  0  0
 16 20  1  0  0  0
 17 18  2  0  0  0
 18 19  1  0  0  0
 19 20  2  0  0  0
M  END
> <minimizedAffinity>
-8.19744

$$$$
2O8H_227_A_999


 34 38  0  0  0  0  0  0  0  0999 V2000
   10.5667   22.5004   46.0259 C   0  0  0  0  0  0  0  0  0  0  0  0
   10.6128   19.8361   44.9002 N   0  0  0  0  0  0  0  0  0  0  0  0
   10.0187   21.3379   46.8082 C   0  0  0  0  0  0  0  0  0  0  0  0
   11.4560   23.4644   44.0079 C   0  0  0  0  0  0  0  0  0  0  0  0
   11.5489   24.7085   44.6542 C   0  0  0  0  0  0  0  0  0  0  0  0
   11.1612   24.8242   45.9925 C   0  0  0  0  0  0  0  0  0  0  0  0
   10.9614   22.3591   44.6872 C   0  0  0  0  0  0  0  0  0  0  0  0
   10.8563   21.0061   44.0106 C   0  0  0  0  0  0  0  0  0  0  0  0
   10.6748   23.7231   46.6650 C   0  0  0  0  0  0  0  0  0  0  0  0
    9.5669   20.2026   45.8624 C   0  0  0  0  0  0  0  0  0  0  0  0
   11.9017   17.7991   43.0408 C   0  0  0  0  0  0  0  0  0  0  0  0
   14.0527   16.2998   44.0436 C   0  0  0  0  0  0  0  0  0  0  0  0
   12.5301   16.8775   42.2343 C   0  0  0  0  0  0  0  0  0  0  0  0
   13.6241   16.1186   42.7194 C   0  0  0  0  0  0  0  0  0  0  0  0
   11.6872   18.9425   45.2434 C   0  0  0  0  0  0  0  0  0  0  0  0
   12.3156   18.0109   44.3641 C   0  0  0  0  0  0  0  0  0  0  0  0
   12.1567   19.0183   46.5048 N   0  0  0  0  0  0  0  0  0  0  0  0
   13.0674   18.1237   46.9398 C   0  0  0  0  0  0  0  0  0  0  0  0
   13.7928   17.3738   46.0982 N   0  0  0  0  0  0  0  0  0  0  0  0
   13.3954   17.2220   44.8443 C   0  0  0  0  0  0  0  0  0  0  0  0
   14.6901   13.9537   42.2889 C   0  0  0  0  0  0  0  0  0  0  0  0
   14.2213   15.2351   41.8637 O   0  0  0  0  0  0  0  0  0  0  0  0
   11.4748   17.7801   40.1889 C   0  0  0  0  0  0  0  0  0  0  0  0
   12.1322   16.7261   40.9406 O   0  0  0  0  0  0  0  0  0  0  0  0
   11.1203   22.8388   41.3002 O   0  0  0  0  0  0  0  0  0  0  0  0
   11.9739   23.4870   42.2300 S   0  0  0  0  0  0  0  0  0  0  0  0
   13.2016   22.8409   42.2716 O   0  0  0  0  0  0  0  0  0  0  0  0
   12.2785   28.9334   40.1944 C   0  0  0  0  0  0  0  0  0  0  0  0
   10.9418   27.0561   40.8382 C   0  0  0  0  0  0  0  0  0  0  0  0
   12.0610   25.1448   41.7526 N   0  0  0  0  0  0  0  0  0  0  0  0
   10.8673   25.5338   40.9748 C   0  0  0  0  0  0  0  0  0  0  0  0
   12.1916   27.4600   40.1864 N   0  0  0  0  0  0  0  0  0  0  0  0
   13.4171   26.9277   40.8073 C   0  0  0  0  0  0  0  0  0  0  0  0
   13.3017   25.4280   41.0282 C   0  0  0  0  0  0  0  0  0  0  0  0
 28 32  1  0  0  0
 29 32  1  0  0  0
 29 31  1  0  0  0
 11 13  2  0  0  0
 11 16  1  0  0  0
 12 14  2  0  0  0
 12 20  1  0  0  0
 13 24  1  0  0  0
 13 14  1  0  0  0
 14 22  1  0  0  0
  1  7  1  0  0  0
  1  9  2  0  0  0
  1  3  1  0  0  0
 21 22  1  0  0  0
  2  8  1  0  0  0
  2 15  1  0  0  0
  2 10  1  0  0  0
 23 24  1  0  0  0
  3 10  1  0  0  0
  4 26  1  0  0  0
  4  5  1  0  0  0
  4  7  2  0  0  0
 25 26  2  0  0  0
 26 30  1  0  0  0
 26 27  2  0  0  0
 30 31  1  0  0  0
 30 34  1  0  0  0
 32 33  1  0  0  0
 33 34  1  0  0  0
  5  6  2  0  0  0
  6  9  1  0  0  0
  7  8  1  0  0  0
 15 16  2  0  0  0
 15 17  1  0  0  0
 16 20  1  0  0  0
 17 18  2  0  0  0
 18 19  1  0  0  0
 19 20  2  0  0  0
M  END
> <minimizedAffinity>
-7.83644

$$$$
2O8H_227_A_999


 34 38  0  0  0  0  0  0  0  0999 V2000
   12.2888   18.1030   44.2166 C   0  0  0  0  0  0  0  0  0  0  0  0
   12.0462   19.6773   46.6313 N   0  0  0  0  0  0  0  0  0  0  0  0
   12.6408   17.5030   45.5507 C   0  0  0  0  0  0  0  0  0  0  0  0
   11.6789   19.9734   42.8301 C   0  0  0  0  0  0  0  0  0  0  0  0
   11.6689   19.1269   41.7088 C   0  0  0  0  0  0  0  0  0  0  0  0
   11.9552   17.7674   41.8649 C   0  0  0  0  0  0  0  0  0  0  0  0
   11.9927   19.4679   44.0847 C   0  0  0  0  0  0  0  0  0  0  0  0
   12.0055   20.3624   45.3090 C   0  0  0  0  0  0  0  0  0  0  0  0
   12.2620   17.2683   43.1132 C   0  0  0  0  0  0  0  0  0  0  0  0
   13.0429   18.6023   46.5593 C   0  0  0  0  0  0  0  0  0  0  0  0
   10.6645   21.9535   48.1071 C   0  0  0  0  0  0  0  0  0  0  0  0
    8.2938   21.3597   49.4881 C   0  0  0  0  0  0  0  0  0  0  0  0
    9.9921   22.9514   48.7756 C   0  0  0  0  0  0  0  0  0  0  0  0
    8.7885   22.6730   49.4697 C   0  0  0  0  0  0  0  0  0  0  0  0
   10.8564   19.5633   47.4326 C   0  0  0  0  0  0  0  0  0  0  0  0
   10.1879   20.6345   48.0973 C   0  0  0  0  0  0  0  0  0  0  0  0
   10.3135   18.3338   47.5368 N   0  0  0  0  0  0  0  0  0  0  0  0
    9.2795   18.1227   48.3766 C   0  0  0  0  0  0  0  0  0  0  0  0
    8.5329   19.1259   48.8591 N   0  0  0  0  0  0  0  0  0  0  0  0
    8.9952   20.3661   48.8215 C   0  0  0  0  0  0  0  0  0  0  0  0
    7.1645   24.5090   49.4446 C   0  0  0  0  0  0  0  0  0  0  0  0
    8.1548   23.7103   50.0958 O   0  0  0  0  0  0  0  0  0  0  0  0
   10.3713   25.0597   47.5414 C   0  0  0  0  0  0  0  0  0  0  0  0
   10.4577   24.2304   48.7300 O   0  0  0  0  0  0  0  0  0  0  0  0
   12.1693   22.7221   43.0295 O   0  0  0  0  0  0  0  0  0  0  0  0
   11.3149   21.7489   42.4498 S   0  0  0  0  0  0  0  0  0  0  0  0
   10.0268   21.8989   42.9445 O   0  0  0  0  0  0  0  0  0  0  0  0
   11.7546   22.8130   36.7424 C   0  0  0  0  0  0  0  0  0  0  0  0
   12.8284   22.4241   38.8451 C   0  0  0  0  0  0  0  0  0  0  0  0
   11.4424   21.9327   40.7370 N   0  0  0  0  0  0  0  0  0  0  0  0
   12.7310   22.5522   40.3669 C   0  0  0  0  0  0  0  0  0  0  0  0
   11.6867   23.0737   38.1936 N   0  0  0  0  0  0  0  0  0  0  0  0
   10.3646   22.6357   38.6741 C   0  0  0  0  0  0  0  0  0  0  0  0
   10.3031   22.6742   40.1926 C   0  0  0  0  0  0  0  0  0  0  0  0
 28 32  1  0  0  0
 29 32  1  0  0  0
 29 31  1  0  0  0
 11 13  2  0  0  0
 11 16  1  0  0  0
 12 14  2  0  0  0
 12 20  1  0  0  0
 13 24  1  0  0  0
 13 14  1  0  0  0
 14 22  1  0  0  0
  1  7  1  0  0  0
  1  9  2  0  0  0
  1  3  1  0  0  0
 21 22  1  0  0  0
  2  8  1  0  0  0
  2 15  1  0  0  0
  2 10  1  0  0  0
 23 24  1  0  0  0
  3 10  1  0  0  0
  4 26  1  0  0  0
  4  5  1  0  0  0
  4  7  2  0  0  0
 25 26  2  0  0  0
 26 30  1  0  0  0
 26 27  2  0  0  0
 30 31  1  0  0  0
 30 34  1  0  0  0
 32 33  1  0  0  0
 33 34  1  0  0  0
  5  6  2  0  0  0
  6  9  1  0  0  0
  7  8  1  0  0  0
 15 16  2  0  0  0
 15 17  1  0  0  0
 16 20  1  0  0  0
 17 18  2  0  0  0
 18 19  1  0  0  0
 19 20  2  0  0  0
M  END
> <minimizedAffinity>
-7.54492

$$$$
2O8H_227_A_999


 34 38  0  0  0  0  0  0  0  0999 V2000
   12.2246   18.0612   44.1664 C   0  0  0  0  0  0  0  0  0  0  0  0
   12.0499   19.6171   46.5989 N   0  0  0  0  0  0  0  0  0  0  0  0
   12.5789   17.4399   45.4901 C   0  0  0  0  0  0  0  0  0  0  0  0
   11.6421   19.9590   42.8056 C   0  0  0  0  0  0  0  0  0  0  0  0
   11.5979   19.1240   41.6765 C   0  0  0  0  0  0  0  0  0  0  0  0
   11.8537   17.7566   41.8160 C   0  0  0  0  0  0  0  0  0  0  0  0
   11.9595   19.4340   44.0512 C   0  0  0  0  0  0  0  0  0  0  0  0
   12.0089   20.3159   45.2837 C   0  0  0  0  0  0  0  0  0  0  0  0
   12.1641   17.2382   43.0555 C   0  0  0  0  0  0  0  0  0  0  0  0
   13.0197   18.5195   46.5039 C   0  0  0  0  0  0  0  0  0  0  0  0
   10.7623   21.9030   48.1430 C   0  0  0  0  0  0  0  0  0  0  0  0
    8.3923   21.3548   49.5441 C   0  0  0  0  0  0  0  0  0  0  0  0
   10.1314   22.9068   48.8425 C   0  0  0  0  0  0  0  0  0  0  0  0
    8.9289   22.6517   49.5473 C   0  0  0  0  0  0  0  0  0  0  0  0
   10.8678   19.5234   47.4142 C   0  0  0  0  0  0  0  0  0  0  0  0
   10.2432   20.6004   48.1113 C   0  0  0  0  0  0  0  0  0  0  0  0
   10.2869   18.3099   47.4992 N   0  0  0  0  0  0  0  0  0  0  0  0
    9.2580   18.1134   48.3487 C   0  0  0  0  0  0  0  0  0  0  0  0
    8.5507   19.1290   48.8634 N   0  0  0  0  0  0  0  0  0  0  0  0
    9.0523   20.3543   48.8462 C   0  0  0  0  0  0  0  0  0  0  0  0
    7.3338   24.5123   49.5991 C   0  0  0  0  0  0  0  0  0  0  0  0
    8.3374   23.6946   50.2047 O   0  0  0  0  0  0  0  0  0  0  0  0
   10.4576   25.0714   47.6936 C   0  0  0  0  0  0  0  0  0  0  0  0
   10.6375   24.1710   48.8182 O   0  0  0  0  0  0  0  0  0  0  0  0
   11.1571   22.1135   41.0856 O   0  0  0  0  0  0  0  0  0  0  0  0
   11.3157   21.7463   42.4469 S   0  0  0  0  0  0  0  0  0  0  0  0
   12.4420   22.3637   42.9729 O   0  0  0  0  0  0  0  0  0  0  0  0
    6.4781   23.5666   45.1272 C   0  0  0  0  0  0  0  0  0  0  0  0
    7.6319   23.0717   43.0902 C   0  0  0  0  0  0  0  0  0  0  0  0
    9.8418   22.1588   43.2477 N   0  0  0  0  0  0  0  0  0  0  0  0
    8.9856   22.9936   42.3809 C   0  0  0  0  0  0  0  0  0  0  0  0
    7.7812   23.6318   44.4371 N   0  0  0  0  0  0  0  0  0  0  0  0
    8.7799   22.9568   45.2842 C   0  0  0  0  0  0  0  0  0  0  0  0
   10.0965   22.7962   44.5413 C   0  0  0  0  0  0  0  0  0  0  0  0
 28 32  1  0  0  0
 29 32  1  0  0  0
 29 31  1  0  0  0
 11 13  2  0  0  0
 11 16  1  0  0  0
 12 14  2  0  0  0
 12 20  1  0  0  0
 13 24  1  0  0  0
 13 14  1  0  0  0
 14 22  1  0  0  0
  1  7  1  0  0  0
  1  9  2  0  0  0
  1  3  1  0  0  0
 21 22  1  0  0  0
  2  8  1  0  0  0
  2 15  1  0  0  0
  2 10  1  0  0  0
 23 24  1  0  0  0
  3 10  1  0  0  0
  4 26  1  0  0  0
  4  5  1  0  0  0
  4  7  2  0  0  0
 25 26  2  0  0  0
 26 30  1  0  0  0
 26 27  2  0  0  0
 30 31  1  0  0  0
 30 34  1  0  0  0
 32 33  1  0  0  0
 33 34  1  0  0  0
  5  6  2  0  0  0
  6  9  1  0  0  0
  7  8  1  0  0  0
 15 16  2  0  0  0
 15 17  1  0  0  0
 16 20  1  0  0  0
 17 18  2  0  0  0
 18 19  1  0  0  0
 19 20  2  0  0  0
M  END
> <minimizedAffinity>
-7.37421

$$$$
2O8H_227_A_999


 34 38  0  0  0  0  0  0  0  0999 V2000
    8.7083   20.7266   49.3295 C   0  0  0  0  0  0  0  0  0  0  0  0
   10.0408   18.7216   47.7255 N   0  0  0  0  0  0  0  0  0  0  0  0
    8.5820   19.2689   49.6804 C   0  0  0  0  0  0  0  0  0  0  0  0
    9.4166   22.4984   47.8626 C   0  0  0  0  0  0  0  0  0  0  0  0
    8.8779   23.4401   48.7553 C   0  0  0  0  0  0  0  0  0  0  0  0
    8.2730   23.0057   49.9385 C   0  0  0  0  0  0  0  0  0  0  0  0
    9.3303   21.1411   48.1424 C   0  0  0  0  0  0  0  0  0  0  0  0
    9.9084   20.1076   47.1952 C   0  0  0  0  0  0  0  0  0  0  0  0
    8.1933   21.6570   50.2149 C   0  0  0  0  0  0  0  0  0  0  0  0
    8.8010   18.3823   48.4340 C   0  0  0  0  0  0  0  0  0  0  0  0
   11.9563   17.0794   46.0220 C   0  0  0  0  0  0  0  0  0  0  0  0
   14.4218   16.3644   47.1579 C   0  0  0  0  0  0  0  0  0  0  0  0
   12.8648   16.3522   45.2868 C   0  0  0  0  0  0  0  0  0  0  0  0
   14.1185   15.9907   45.8394 C   0  0  0  0  0  0  0  0  0  0  0  0
   11.3221   18.2185   48.1446 C   0  0  0  0  0  0  0  0  0  0  0  0
   12.2363   17.4778   47.3373 C   0  0  0  0  0  0  0  0  0  0  0  0
   11.6987   18.5012   49.4077 N   0  0  0  0  0  0  0  0  0  0  0  0
   12.8212   17.9520   49.9152 C   0  0  0  0  0  0  0  0  0  0  0  0
   13.7711   17.4157   49.1362 N   0  0  0  0  0  0  0  0  0  0  0  0
   13.4859   17.0832   47.8866 C   0  0  0  0  0  0  0  0  0  0  0  0
   16.4019   15.4862   45.1042 C   0  0  0  0  0  0  0  0  0  0  0  0
   14.9875   15.2874   45.0522 O   0  0  0  0  0  0  0  0  0  0  0  0
   12.7306   16.9450   42.8904 C   0  0  0  0  0  0  0  0  0  0  0  0
   12.5805   16.0178   43.9975 O   0  0  0  0  0  0  0  0  0  0  0  0
   10.9343   22.3763   45.5138 O   0  0  0  0  0  0  0  0  0  0  0  0
   10.1490   23.2325   46.3282 S   0  0  0  0  0  0  0  0  0  0  0  0
   10.9396   24.2533   46.8374 O   0  0  0  0  0  0  0  0  0  0  0  0
    5.4345   24.9598   43.3803 C   0  0  0  0  0  0  0  0  0  0  0  0
    7.2147   25.4832   44.8912 C   0  0  0  0  0  0  0  0  0  0  0  0
    8.8313   23.7756   45.3523 N   0  0  0  0  0  0  0  0  0  0  0  0
    8.1768   24.9535   45.9567 C   0  0  0  0  0  0  0  0  0  0  0  0
    6.2534   24.4486   44.4969 N   0  0  0  0  0  0  0  0  0  0  0  0
    6.8530   23.1708   44.0747 C   0  0  0  0  0  0  0  0  0  0  0  0
    7.8784   22.6948   45.0911 C   0  0  0  0  0  0  0  0  0  0  0  0
 28 32  1  0  0  0
 29 32  1  0  0  0
 29 31  1  0  0  0
 11 13  2  0  0  0
 11 16  1  0  0  0
 12 14  2  0  0  0
 12 20  1  0  0  0
 13 24  1  0  0  0
 13 14  1  0  0  0
 14 22  1  0  0  0
  1  7  1  0  0  0
  1  9  2  0  0  0
  1  3  1  0  0  0
 21 22  1  0  0  0
  2  8  1  0  0  0
  2 15  1  0  0  0
  2 10  1  0  0  0
 23 24  1  0  0  0
  3 10  1  0  0  0
  4 26  1  0  0  0
  4  5  1  0  0  0
  4  7  2  0  0  0
 25 26  2  0  0  0
 26 30  1  0  0  0
 26 27  2  0  0  0
 30 31  1  0  0  0
 30 34  1  0  0  0
 32 33  1  0  0  0
 33 34  1  0  0  0
  5  6  2  0  0  0
  6  9  1  0  0  0
  7  8  1  0  0  0
 15 16  2  0  0  0
 15 17  1  0  0  0
 16 20  1  0  0  0
 17 18  2  0  0  0
 18 19  1  0  0  0
 19 20  2  0  0  0
M  END
> <minimizedAffinity>
-7.30544

$$$$
2O8H_227_A_999


 34 38  0  0  0  0  0  0  0  0999 V2000
   10.1191   22.6870   46.7506 C   0  0  0  0  0  0  0  0  0  0  0  0
   10.0661   19.8205   46.3649 N   0  0  0  0  0  0  0  0  0  0  0  0
    9.4534   21.7982   47.7658 C   0  0  0  0  0  0  0  0  0  0  0  0
   11.1868   23.0426   44.6231 C   0  0  0  0  0  0  0  0  0  0  0  0
   11.3183   24.4079   44.9278 C   0  0  0  0  0  0  0  0  0  0  0  0
   10.8587   24.8904   46.1569 C   0  0  0  0  0  0  0  0  0  0  0  0
   10.5841   22.1793   45.5282 C   0  0  0  0  0  0  0  0  0  0  0  0
   10.4354   20.7017   45.2218 C   0  0  0  0  0  0  0  0  0  0  0  0
   10.2648   24.0290   47.0550 C   0  0  0  0  0  0  0  0  0  0  0  0
    8.9891   20.4746   47.1177 C   0  0  0  0  0  0  0  0  0  0  0  0
   12.0813   18.0241   44.9579 C   0  0  0  0  0  0  0  0  0  0  0  0
   13.9407   16.6545   46.5539 C   0  0  0  0  0  0  0  0  0  0  0  0
   13.0247   17.2131   44.3688 C   0  0  0  0  0  0  0  0  0  0  0  0
   13.9779   16.5217   45.1571 C   0  0  0  0  0  0  0  0  0  0  0  0
   11.0599   19.0025   47.0083 C   0  0  0  0  0  0  0  0  0  0  0  0
   12.0275   18.1861   46.3501 C   0  0  0  0  0  0  0  0  0  0  0  0
   11.0919   19.0380   48.3556 N   0  0  0  0  0  0  0  0  0  0  0  0
   11.9024   18.1992   49.0327 C   0  0  0  0  0  0  0  0  0  0  0  0
   12.9308   17.5694   48.4474 N   0  0  0  0  0  0  0  0  0  0  0  0
   12.9720   17.4641   47.1281 C   0  0  0  0  0  0  0  0  0  0  0  0
   16.1632   15.4127   45.0985 C   0  0  0  0  0  0  0  0  0  0  0  0
   14.9037   15.7490   44.5127 O   0  0  0  0  0  0  0  0  0  0  0  0
   12.4021   16.0596   42.2726 C   0  0  0  0  0  0  0  0  0  0  0  0
   13.0781   17.1107   43.0118 O   0  0  0  0  0  0  0  0  0  0  0  0
   11.9085   21.1853   42.6572 O   0  0  0  0  0  0  0  0  0  0  0  0
   11.8112   22.5713   42.9445 S   0  0  0  0  0  0  0  0  0  0  0  0
   13.0747   23.1454   42.9273 O   0  0  0  0  0  0  0  0  0  0  0  0
    7.9478   24.4148   38.9978 C   0  0  0  0  0  0  0  0  0  0  0  0
    8.4715   23.9182   41.2792 C   0  0  0  0  0  0  0  0  0  0  0  0
   10.7120   23.2415   41.7927 N   0  0  0  0  0  0  0  0  0  0  0  0
    9.3137   23.0723   42.2366 C   0  0  0  0  0  0  0  0  0  0  0  0
    8.6744   23.4914   39.8912 N   0  0  0  0  0  0  0  0  0  0  0  0
   10.0805   23.4459   39.4537 C   0  0  0  0  0  0  0  0  0  0  0  0
   10.9326   22.6845   40.4565 C   0  0  0  0  0  0  0  0  0  0  0  0
 28 32  1  0  0  0
 29 32  1  0  0  0
 29 31  1  0  0  0
 11 13  2  0  0  0
 11 16  1  0  0  0
 12 14  2  0  0  0
 12 20  1  0  0  0
 13 24  1  0  0  0
 13 14  1  0  0  0
 14 22  1  0  0  0
  1  7  1  0  0  0
  1  9  2  0  0  0
  1  3  1  0  0  0
 21 22  1  0  0  0
  2  8  1  0  0  0
  2 15  1  0  0  0
  2 10  1  0  0  0
 23 24  1  0  0  0
  3 10  1  0  0  0
  4 26  1  0  0  0
  4  5  1  0  0  0
  4  7  2  0  0  0
 25 26  2  0  0  0
 26 30  1  0  0  0
 26 27  2  0  0  0
 30 31  1  0  0  0
 30 34  1  0  0  0
 32 33  1  0  0  0
 33 34  1  0  0  0
  5  6  2  0  0  0
  6  9  1  0  0  0
  7  8  1  0  0  0
 15 16  2  0  0  0
 15 17  1  0  0  0
 16 20  1  0  0  0
 17 18  2  0  0  0
 18 19  1  0  0  0
 19 20  2  0  0  0
M  END
> <minimizedAffinity>
-7.10619

$$$$
2O8H_227_A_999


 34 38  0  0  0  0  0  0  0  0999 V2000
    8.5391   21.6906   46.1438 C   0  0  0  0  0  0  0  0  0  0  0  0
   11.2879   20.9616   46.6732 N   0  0  0  0  0  0  0  0  0  0  0  0
    9.1583   20.5113   45.4441 C   0  0  0  0  0  0  0  0  0  0  0  0
    8.6888   23.6326   47.5577 C   0  0  0  0  0  0  0  0  0  0  0  0
    7.3127   23.8549   47.3822 C   0  0  0  0  0  0  0  0  0  0  0  0
    6.5634   22.9737   46.5969 C   0  0  0  0  0  0  0  0  0  0  0  0
    9.3075   22.5554   46.9373 C   0  0  0  0  0  0  0  0  0  0  0  0
   10.7904   22.2942   47.1162 C   0  0  0  0  0  0  0  0  0  0  0  0
    7.1807   21.9025   45.9861 C   0  0  0  0  0  0  0  0  0  0  0  0
   10.6939   20.6631   45.3647 C   0  0  0  0  0  0  0  0  0  0  0  0
   12.7157   18.3339   46.1030 C   0  0  0  0  0  0  0  0  0  0  0  0
   13.1842   16.6107   48.2690 C   0  0  0  0  0  0  0  0  0  0  0  0
   13.3732   17.1416   45.9009 C   0  0  0  0  0  0  0  0  0  0  0  0
   13.6278   16.2635   46.9834 C   0  0  0  0  0  0  0  0  0  0  0  0
   11.5727   19.9305   47.6358 C   0  0  0  0  0  0  0  0  0  0  0  0
   12.2716   18.7135   47.3782 C   0  0  0  0  0  0  0  0  0  0  0  0
   11.1637   20.1549   48.9006 N   0  0  0  0  0  0  0  0  0  0  0  0
   11.2735   19.1810   49.8271 C   0  0  0  0  0  0  0  0  0  0  0  0
   12.0771   18.1213   49.6600 N   0  0  0  0  0  0  0  0  0  0  0  0
   12.5096   17.8092   48.4480 C   0  0  0  0  0  0  0  0  0  0  0  0
   15.7314   15.0486   46.6550 C   0  0  0  0  0  0  0  0  0  0  0  0
   14.3049   15.1044   46.7233 O   0  0  0  0  0  0  0  0  0  0  0  0
   12.9526   16.4106   43.5769 C   0  0  0  0  0  0  0  0  0  0  0  0
   13.8298   16.8218   44.6583 O   0  0  0  0  0  0  0  0  0  0  0  0
   10.7438   24.5170   49.2400 O   0  0  0  0  0  0  0  0  0  0  0  0
    9.5424   24.9079   48.5944 S   0  0  0  0  0  0  0  0  0  0  0  0
    8.5760   25.2127   49.5429 O   0  0  0  0  0  0  0  0  0  0  0  0
   10.6654   29.1245   44.7397 C   0  0  0  0  0  0  0  0  0  0  0  0
    9.2420   28.2261   46.4404 C   0  0  0  0  0  0  0  0  0  0  0  0
    9.9458   26.2202   47.5461 N   0  0  0  0  0  0  0  0  0  0  0  0
    8.7356   26.9628   47.1398 C   0  0  0  0  0  0  0  0  0  0  0  0
   10.0979   27.8827   45.3005 N   0  0  0  0  0  0  0  0  0  0  0  0
   11.2132   26.9720   45.6122 C   0  0  0  0  0  0  0  0  0  0  0  0
   10.7201   25.7627   46.3905 C   0  0  0  0  0  0  0  0  0  0  0  0
 28 32  1  0  0  0
 29 32  1  0  0  0
 29 31  1  0  0  0
 11 13  2  0  0  0
 11 16  1  0  0  0
 12 14  2  0  0  0
 12 20  1  0  0  0
 13 24  1  0  0  0
 13 14  1  0  0  0
 14 22  1  0  0  0
  1  7  1  0  0  0
  1  9  2  0  0  0
  1  3  1  0  0  0
 21 22  1  0  0  0
  2  8  1  0  0  0
  2 15  1  0  0  0
  2 10  1  0  0  0
 23 24  1  0  0  0
  3 10  1  0  0  0
  4 26  1  0  0  0
  4  5  1  0  0  0
  4  7  2  0  0  0
 25 26  2  0  0  0
 26 30  1  0  0  0
 26 27  2  0  0  0
 30 31  1  0  0  0
 30 34  1  0  0  0
 32 33  1  0  0  0
 33 34  1  0  0  0
  5  6  2  0  0  0
  6  9  1  0  0  0
  7  8  1  0  0  0
 15 16  2  0  0  0
 15 17  1  0  0  0
 16 20  1  0  0  0
 17 18  2  0  0  0
 18 19  1  0  0  0
 19 20  2  0  0  0
M  END
> <minimizedAffinity>
-7.09673

$$$$
2O8H_227_A_999


 34 38  0  0  0  0  0  0  0  0999 V2000
   11.7431   18.6481   42.3776 C   0  0  0  0  0  0  0  0  0  0  0  0
   11.4046   20.9313   44.1214 N   0  0  0  0  0  0  0  0  0  0  0  0
   11.8678   18.4878   43.8684 C   0  0  0  0  0  0  0  0  0  0  0  0
   11.5150   20.0087   40.4054 C   0  0  0  0  0  0  0  0  0  0  0  0
   11.5379   18.8483   39.6136 C   0  0  0  0  0  0  0  0  0  0  0  0
   11.6472   17.5953   40.2242 C   0  0  0  0  0  0  0  0  0  0  0  0
   11.6220   19.9146   41.7866 C   0  0  0  0  0  0  0  0  0  0  0  0
   11.5954   21.1534   42.6606 C   0  0  0  0  0  0  0  0  0  0  0  0
   11.7487   17.5058   41.5965 C   0  0  0  0  0  0  0  0  0  0  0  0
   12.2736   19.8224   44.5330 C   0  0  0  0  0  0  0  0  0  0  0  0
   10.3021   19.4810   46.5605 C   0  0  0  0  0  0  0  0  0  0  0  0
    7.7991   20.2942   47.5370 C   0  0  0  0  0  0  0  0  0  0  0  0
    9.7677   18.8689   47.6716 C   0  0  0  0  0  0  0  0  0  0  0  0
    8.5103   19.2725   48.1852 C   0  0  0  0  0  0  0  0  0  0  0  0
   10.1251   21.1675   44.7359 C   0  0  0  0  0  0  0  0  0  0  0  0
    9.6205   20.5131   45.8992 C   0  0  0  0  0  0  0  0  0  0  0  0
    9.3497   22.1154   44.1722 N   0  0  0  0  0  0  0  0  0  0  0  0
    8.0865   22.2992   44.6074 C   0  0  0  0  0  0  0  0  0  0  0  0
    7.6630   21.8367   45.7921 N   0  0  0  0  0  0  0  0  0  0  0  0
    8.3482   20.8868   46.4097 C   0  0  0  0  0  0  0  0  0  0  0  0
    6.6941   18.1820   49.4185 C   0  0  0  0  0  0  0  0  0  0  0  0
    8.0425   18.6419   49.3046 O   0  0  0  0  0  0  0  0  0  0  0  0
   11.1093   16.7928   47.6240 C   0  0  0  0  0  0  0  0  0  0  0  0
   10.4740   17.8994   48.3167 O   0  0  0  0  0  0  0  0  0  0  0  0
   12.5985   22.3336   39.2847 O   0  0  0  0  0  0  0  0  0  0  0  0
   11.4023   21.5873   39.4437 S   0  0  0  0  0  0  0  0  0  0  0  0
   10.4855   22.3199   40.1846 O   0  0  0  0  0  0  0  0  0  0  0  0
    9.4465   20.6138   34.0468 C   0  0  0  0  0  0  0  0  0  0  0  0
   11.2357   21.2732   35.4922 C   0  0  0  0  0  0  0  0  0  0  0  0
   10.8612   21.1718   37.8567 N   0  0  0  0  0  0  0  0  0  0  0  0
   11.6235   21.9091   36.8289 C   0  0  0  0  0  0  0  0  0  0  0  0
    9.7871   21.3513   35.2791 N   0  0  0  0  0  0  0  0  0  0  0  0
    8.9670   20.8090   36.3763 C   0  0  0  0  0  0  0  0  0  0  0  0
    9.4175   21.3716   37.7148 C   0  0  0  0  0  0  0  0  0  0  0  0
 28 32  1  0  0  0
 29 32  1  0  0  0
 29 31  1  0  0  0
 11 13  2  0  0  0
 11 16  1  0  0  0
 12 14  2  0  0  0
 12 20  1  0  0  0
 13 24  1  0  0  0
 13 14  1  0  0  0
 14 22  1  0  0  0
  1  7  1  0  0  0
  1  9  2  0  0  0
  1  3  1  0  0  0
 21 22  1  0  0  0
  2  8  1  0  0  0
  2 15  1  0  0  0
  2 10  1  0  0  0
 23 24  1  0  0  0
  3 10  1  0  0  0
  4 26  1  0  0  0
  4  5  1  0  0  0
  4  7  2  0  0  0
 25 26  2  0  0  0
 26 30  1  0  0  0
 26 27  2  0  0  0
 30 31  1  0  0  0
 30 34  1  0  0  0
 32 33  1  0  0  0
 33 34  1  0  0  0
  5  6  2  0  0  0
  6  9  1  0  0  0
  7  8  1  0  0  0
 15 16  2  0  0  0
 15 17  1  0  0  0
 16 20  1  0  0  0
 17 18  2  0  0  0
 18 19  1  0  0  0
 19 20  2  0  0  0
M  END
> <minimizedAffinity>
-6.87138

$$$$
2O8H_227_A_999


 34 38  0  0  0  0  0  0  0  0999 V2000
    8.0789   22.6343   46.8627 C   0  0  0  0  0  0  0  0  0  0  0  0
   10.3948   21.0081   46.2628 N   0  0  0  0  0  0  0  0  0  0  0  0
    7.9665   21.1340   46.8429 C   0  0  0  0  0  0  0  0  0  0  0  0
    9.2986   24.6723   46.4733 C   0  0  0  0  0  0  0  0  0  0  0  0
    8.1881   25.4105   46.9158 C   0  0  0  0  0  0  0  0  0  0  0  0
    7.0376   24.7412   47.3438 C   0  0  0  0  0  0  0  0  0  0  0  0
    9.2476   23.2851   46.4402 C   0  0  0  0  0  0  0  0  0  0  0  0
   10.4356   22.4684   45.9703 C   0  0  0  0  0  0  0  0  0  0  0  0
    6.9925   23.3633   47.3137 C   0  0  0  0  0  0  0  0  0  0  0  0
    9.0523   20.5132   45.9357 C   0  0  0  0  0  0  0  0  0  0  0  0
   11.8604   18.3401   46.2256 C   0  0  0  0  0  0  0  0  0  0  0  0
   13.3613   17.6479   48.4946 C   0  0  0  0  0  0  0  0  0  0  0  0
   12.5558   17.1524   46.2516 C   0  0  0  0  0  0  0  0  0  0  0  0
   13.3271   16.7905   47.3839 C   0  0  0  0  0  0  0  0  0  0  0  0
   11.1699   20.4567   47.3425 C   0  0  0  0  0  0  0  0  0  0  0  0
   11.8856   19.2226   47.3154 C   0  0  0  0  0  0  0  0  0  0  0  0
   11.2456   21.1927   48.4695 N   0  0  0  0  0  0  0  0  0  0  0  0
   11.8390   20.6835   49.5683 C   0  0  0  0  0  0  0  0  0  0  0  0
   12.6620   19.6269   49.5128 N   0  0  0  0  0  0  0  0  0  0  0  0
   12.6406   18.8322   48.4540 C   0  0  0  0  0  0  0  0  0  0  0  0
   15.3011   15.4916   46.7319 C   0  0  0  0  0  0  0  0  0  0  0  0
   14.0135   15.6088   47.3411 O   0  0  0  0  0  0  0  0  0  0  0  0
   12.8903   16.7988   43.8277 C   0  0  0  0  0  0  0  0  0  0  0  0
   12.5459   16.3373   45.1605 O   0  0  0  0  0  0  0  0  0  0  0  0
   11.9985   25.4112   46.4634 O   0  0  0  0  0  0  0  0  0  0  0  0
   10.7269   25.7065   45.9076 S   0  0  0  0  0  0  0  0  0  0  0  0
   10.3340   26.9836   46.2832 O   0  0  0  0  0  0  0  0  0  0  0  0
   11.5674   25.1994   40.1685 C   0  0  0  0  0  0  0  0  0  0  0  0
   11.9746   24.3844   42.3811 C   0  0  0  0  0  0  0  0  0  0  0  0
   10.8662   25.4809   44.2007 N   0  0  0  0  0  0  0  0  0  0  0  0
   12.0974   24.7375   43.8650 C   0  0  0  0  0  0  0  0  0  0  0  0
   11.8118   25.5946   41.5695 N   0  0  0  0  0  0  0  0  0  0  0  0
   10.7144   26.4829   41.9906 C   0  0  0  0  0  0  0  0  0  0  0  0
   10.7849   26.7556   43.4846 C   0  0  0  0  0  0  0  0  0  0  0  0
 28 32  1  0  0  0
 29 32  1  0  0  0
 29 31  1  0  0  0
 11 13  2  0  0  0
 11 16  1  0  0  0
 12 14  2  0  0  0
 12 20  1  0  0  0
 13 24  1  0  0  0
 13 14  1  0  0  0
 14 22  1  0  0  0
  1  7  1  0  0  0
  1  9  2  0  0  0
  1  3  1  0  0  0
 21 22  1  0  0  0
  2  8  1  0  0  0
  2 15  1  0  0  0
  2 10  1  0  0  0
 23 24  1  0  0  0
  3 10  1  0  0  0
  4 26  1  0  0  0
  4  5  1  0  0  0
  4  7  2  0  0  0
 25 26  2  0  0  0
 26 30  1  0  0  0
 26 27  2  0  0  0
 30 31  1  0  0  0
 30 34  1  0  0  0
 32 33  1  0  0  0
 33 34  1  0  0  0
  5  6  2  0  0  0
  6  9  1  0  0  0
  7  8  1  0  0  0
 15 16  2  0  0  0
 15 17  1  0  0  0
 16 20  1  0  0  0
 17 18  2  0  0  0
 18 19  1  0  0  0
 19 20  2  0  0  0
M  END
> <minimizedAffinity>
-6.82468

$$$$
