4QEW_31P_A_503


 31 34  0  0  0  0  0  0  0  0999 V2000
   69.9975   -6.7841   72.0992 C   0  0  0  0  0  0  0  0  0  0  0  0
   69.9958   -6.1557   73.4586 N   0  0  0  0  0  0  0  0  0  0  0  0
   68.9570   -6.1374   71.3923 C   0  0  0  0  0  0  0  0  0  0  0  0
   67.7573   -6.6407   71.0440 N   0  0  0  0  0  0  0  0  0  0  0  0
   67.1236   -5.7177   70.4287 N   0  0  0  0  0  0  0  0  0  0  0  0
   67.9068   -4.6237   70.3722 C   0  0  0  0  0  0  0  0  0  0  0  0
   67.5265   -3.3101   69.7065 C   0  0  0  0  0  0  0  0  0  0  0  0
   69.0653   -4.8672   70.9827 N   0  0  0  0  0  0  0  0  0  0  0  0
   70.1914   -4.1646   71.2417 C   0  0  0  0  0  0  0  0  0  0  0  0
   70.7209   -3.4065   70.1908 C   0  0  0  0  0  0  0  0  0  0  0  0
   71.9039   -2.6816   70.3749 C   0  0  0  0  0  0  0  0  0  0  0  0
   72.5785   -2.7154   71.5996 C   0  0  0  0  0  0  0  0  0  0  0  0
   72.0558   -3.4774   72.6381 C   0  0  0  0  0  0  0  0  0  0  0  0
   70.8710   -4.1846   72.4760 C   0  0  0  0  0  0  0  0  0  0  0  0
   70.4734   -4.9014   73.6092 C   0  0  0  0  0  0  0  0  0  0  0  0
   70.4671   -4.2889   74.8816 C   0  0  0  0  0  0  0  0  0  0  0  0
   71.3506   -4.6913   75.8980 C   0  0  0  0  0  0  0  0  0  0  0  0
   71.3305   -4.0712   77.1544 C   0  0  0  0  0  0  0  0  0  0  0  0
   70.4386   -3.0392   77.3996 C   0  0  0  0  0  0  0  0  0  0  0  0
   70.3979   -2.2496   78.9413 Cl  0  0  0  0  0  0  0  0  0  0  0  0
   69.5573   -2.6347   76.4000 C   0  0  0  0  0  0  0  0  0  0  0  0
   69.5727   -3.2517   75.1500 C   0  0  0  0  0  0  0  0  0  0  0  0
   73.7372   -2.0365   71.8744 O   0  0  0  0  0  0  0  0  0  0  0  0
   74.0336   -0.8484   71.1198 C   0  0  0  0  0  0  0  0  0  0  0  0
   70.0347   -8.3118   72.0601 C   0  0  0  0  0  0  0  0  0  0  0  0
   70.6532   -8.8116   73.3762 C   0  0  0  0  0  0  0  0  0  0  0  0
   71.8771   -8.8432   73.5551 O   0  0  0  0  0  0  0  0  0  0  0  0
   69.5545  -10.7483   73.9676 C   0  0  0  0  0  0  0  0  0  0  0  0
   69.7650   -9.3540   74.2288 O   0  0  0  0  0  0  0  0  0  0  0  0
   71.0451   -8.8710   71.0770 C   0  0  0  0  0  0  0  0  0  0  0  0
   70.6559   -8.6683   69.6263 C   0  0  0  0  0  0  0  0  0  0  0  0
 31 30  1  0  0  0
  7  6  1  0  0  0
  5  6  2  0  0  0
  5  4  1  0  0  0
  6  8  1  0  0  0
 10 11  2  0  0  0
 10  9  1  0  0  0
 30 25  1  0  0  0
  4  3  2  0  0  0
 11 12  1  0  0  0
  8  3  1  0  0  0
  8  9  1  0  0  0
  3  1  1  0  0  0
  9 14  2  0  0  0
 24 23  1  0  0  0
 25  1  1  0  0  0
 25 26  1  0  0  0
  1  2  1  0  0  0
 12 23  1  0  0  0
 12 13  2  0  0  0
 14 13  1  0  0  0
 14 15  1  0  0  0
 26 29  1  0  0  0
 26 27  2  0  0  0
 29 28  1  0  0  0
  2 15  2  0  0  0
 15 16  1  0  0  0
 16 17  2  0  0  0
 16 22  1  0  0  0
 17 18  1  0  0  0
 22 21  2  0  0  0
 18 19  2  0  0  0
 21 19  1  0  0  0
 19 20  1  0  0  0
M  END
> <minimizedAffinity>
-8.30052

$$$$
4QEW_31P_A_503


 31 34  0  0  0  0  0  0  0  0999 V2000
   69.0841   -5.2104   70.3619 C   0  0  0  0  0  0  0  0  0  0  0  0
   70.2318   -4.2494   70.4087 N   0  0  0  0  0  0  0  0  0  0  0  0
   69.6732   -6.4935   70.4457 C   0  0  0  0  0  0  0  0  0  0  0  0
   69.7958   -7.4120   69.4684 N   0  0  0  0  0  0  0  0  0  0  0  0
   70.3975   -8.4209   69.9704 N   0  0  0  0  0  0  0  0  0  0  0  0
   70.6600   -8.1634   71.2658 C   0  0  0  0  0  0  0  0  0  0  0  0
   71.3529   -9.1198   72.2241 C   0  0  0  0  0  0  0  0  0  0  0  0
   70.2172   -6.9475   71.5819 N   0  0  0  0  0  0  0  0  0  0  0  0
   70.2146   -6.1745   72.6914 C   0  0  0  0  0  0  0  0  0  0  0  0
   69.8535   -6.7935   73.8939 C   0  0  0  0  0  0  0  0  0  0  0  0
   69.7944   -6.0481   75.0770 C   0  0  0  0  0  0  0  0  0  0  0  0
   70.0792   -4.6787   75.0728 C   0  0  0  0  0  0  0  0  0  0  0  0
   70.4275   -4.0647   73.8753 C   0  0  0  0  0  0  0  0  0  0  0  0
   70.5110   -4.7969   72.6976 C   0  0  0  0  0  0  0  0  0  0  0  0
   70.8735   -4.0403   71.5785 C   0  0  0  0  0  0  0  0  0  0  0  0
   71.9661   -3.1476   71.6376 C   0  0  0  0  0  0  0  0  0  0  0  0
   73.0925   -3.4126   72.4353 C   0  0  0  0  0  0  0  0  0  0  0  0
   74.1679   -2.5153   72.4807 C   0  0  0  0  0  0  0  0  0  0  0  0
   74.1311   -1.3564   71.7217 C   0  0  0  0  0  0  0  0  0  0  0  0
   75.4505   -0.2337   71.7525 Cl  0  0  0  0  0  0  0  0  0  0  0  0
   73.0186   -1.0834   70.9297 C   0  0  0  0  0  0  0  0  0  0  0  0
   71.9458   -1.9725   70.8850 C   0  0  0  0  0  0  0  0  0  0  0  0
   70.0525   -3.8699   76.1793 O   0  0  0  0  0  0  0  0  0  0  0  0
   69.3184   -2.6349   76.1107 C   0  0  0  0  0  0  0  0  0  0  0  0
   68.0516   -4.9778   69.2589 C   0  0  0  0  0  0  0  0  0  0  0  0
   67.6790   -3.4859   69.2557 C   0  0  0  0  0  0  0  0  0  0  0  0
   67.1580   -2.9381   70.2352 O   0  0  0  0  0  0  0  0  0  0  0  0
   66.6454   -3.0437   67.2447 C   0  0  0  0  0  0  0  0  0  0  0  0
   67.8163   -2.8885   68.0581 O   0  0  0  0  0  0  0  0  0  0  0  0
   66.6920   -5.5778   69.5616 C   0  0  0  0  0  0  0  0  0  0  0  0
   66.2421   -6.6052   68.5423 C   0  0  0  0  0  0  0  0  0  0  0  0
 31 30  1  0  0  0
  7  6  1  0  0  0
  5  6  2  0  0  0
  5  4  1  0  0  0
  6  8  1  0  0  0
 10 11  2  0  0  0
 10  9  1  0  0  0
 30 25  1  0  0  0
  4  3  2  0  0  0
 11 12  1  0  0  0
  8  3  1  0  0  0
  8  9  1  0  0  0
  3  1  1  0  0  0
  9 14  2  0  0  0
 24 23  1  0  0  0
 25  1  1  0  0  0
 25 26  1  0  0  0
  1  2  1  0  0  0
 12 23  1  0  0  0
 12 13  2  0  0  0
 14 13  1  0  0  0
 14 15  1  0  0  0
 26 29  1  0  0  0
 26 27  2  0  0  0
 29 28  1  0  0  0
  2 15  2  0  0  0
 15 16  1  0  0  0
 16 17  2  0  0  0
 16 22  1  0  0  0
 17 18  1  0  0  0
 22 21  2  0  0  0
 18 19  2  0  0  0
 21 19  1  0  0  0
 19 20  1  0  0  0
M  END
> <minimizedAffinity>
-8.15587

$$$$
4QEW_31P_A_503


 31 34  0  0  0  0  0  0  0  0999 V2000
   70.6618   -3.9739   73.9712 C   0  0  0  0  0  0  0  0  0  0  0  0
   70.8388   -5.4608   73.9483 N   0  0  0  0  0  0  0  0  0  0  0  0
   71.5232   -3.4839   72.9621 C   0  0  0  0  0  0  0  0  0  0  0  0
   72.6837   -2.8184   73.1176 N   0  0  0  0  0  0  0  0  0  0  0  0
   73.1396   -2.5743   71.9494 N   0  0  0  0  0  0  0  0  0  0  0  0
   72.2799   -3.0724   71.0404 C   0  0  0  0  0  0  0  0  0  0  0  0
   72.4498   -2.9758   69.5321 C   0  0  0  0  0  0  0  0  0  0  0  0
   71.2572   -3.6577   71.6613 N   0  0  0  0  0  0  0  0  0  0  0  0
   70.1400   -4.3173   71.2797 C   0  0  0  0  0  0  0  0  0  0  0  0
   69.3926   -3.7493   70.2414 C   0  0  0  0  0  0  0  0  0  0  0  0
   68.2056   -4.3574   69.8169 C   0  0  0  0  0  0  0  0  0  0  0  0
   67.7437   -5.5266   70.4301 C   0  0  0  0  0  0  0  0  0  0  0  0
   68.4828   -6.0825   71.4679 C   0  0  0  0  0  0  0  0  0  0  0  0
   69.6738   -5.5014   71.8849 C   0  0  0  0  0  0  0  0  0  0  0  0
   70.3018   -6.1764   72.9365 C   0  0  0  0  0  0  0  0  0  0  0  0
   70.4705   -7.5778   72.8924 C   0  0  0  0  0  0  0  0  0  0  0  0
   71.2427   -8.1964   71.8941 C   0  0  0  0  0  0  0  0  0  0  0  0
   71.3996   -9.5886   71.8668 C   0  0  0  0  0  0  0  0  0  0  0  0
   70.7983  -10.3693   72.8412 C   0  0  0  0  0  0  0  0  0  0  0  0
   70.9826  -12.0921   72.8360 Cl  0  0  0  0  0  0  0  0  0  0  0  0
   70.0292   -9.7663   73.8333 C   0  0  0  0  0  0  0  0  0  0  0  0
   69.8685   -8.3818   73.8613 C   0  0  0  0  0  0  0  0  0  0  0  0
   66.5987   -6.1944   70.0806 O   0  0  0  0  0  0  0  0  0  0  0  0
   66.2974   -6.3582   68.6837 C   0  0  0  0  0  0  0  0  0  0  0  0
   70.7303   -3.3055   75.3443 C   0  0  0  0  0  0  0  0  0  0  0  0
   71.5508   -4.2099   76.2789 C   0  0  0  0  0  0  0  0  0  0  0  0
   71.0454   -5.1719   76.8706 O   0  0  0  0  0  0  0  0  0  0  0  0
   73.7924   -4.6509   75.9812 C   0  0  0  0  0  0  0  0  0  0  0  0
   72.7985   -3.7661   76.5160 O   0  0  0  0  0  0  0  0  0  0  0  0
   69.4085   -3.3056   76.0879 C   0  0  0  0  0  0  0  0  0  0  0  0
   69.4139   -2.4432   77.3342 C   0  0  0  0  0  0  0  0  0  0  0  0
 31 30  1  0  0  0
  7  6  1  0  0  0
  5  6  2  0  0  0
  5  4  1  0  0  0
  6  8  1  0  0  0
 10 11  2  0  0  0
 10  9  1  0  0  0
 30 25  1  0  0  0
  4  3  2  0  0  0
 11 12  1  0  0  0
  8  3  1  0  0  0
  8  9  1  0  0  0
  3  1  1  0  0  0
  9 14  2  0  0  0
 24 23  1  0  0  0
 25  1  1  0  0  0
 25 26  1  0  0  0
  1  2  1  0  0  0
 12 23  1  0  0  0
 12 13  2  0  0  0
 14 13  1  0  0  0
 14 15  1  0  0  0
 26 29  1  0  0  0
 26 27  2  0  0  0
 29 28  1  0  0  0
  2 15  2  0  0  0
 15 16  1  0  0  0
 16 17  2  0  0  0
 16 22  1  0  0  0
 17 18  1  0  0  0
 22 21  2  0  0  0
 18 19  2  0  0  0
 21 19  1  0  0  0
 19 20  1  0  0  0
M  END
> <minimizedAffinity>
-7.08903

$$$$
4QEW_31P_A_503


 31 34  0  0  0  0  0  0  0  0999 V2000
   71.5673   -3.6923   72.4912 C   0  0  0  0  0  0  0  0  0  0  0  0
   70.4231   -3.5276   71.5391 N   0  0  0  0  0  0  0  0  0  0  0  0
   70.9718   -4.0289   73.7292 C   0  0  0  0  0  0  0  0  0  0  0  0
   70.8570   -3.2581   74.8277 N   0  0  0  0  0  0  0  0  0  0  0  0
   70.2452   -3.9479   75.7119 N   0  0  0  0  0  0  0  0  0  0  0  0
   69.9685   -5.1601   75.1949 C   0  0  0  0  0  0  0  0  0  0  0  0
   69.2602   -6.2847   75.9344 C   0  0  0  0  0  0  0  0  0  0  0  0
   70.4125   -5.2269   73.9408 N   0  0  0  0  0  0  0  0  0  0  0  0
   70.4051   -6.1553   72.9576 C   0  0  0  0  0  0  0  0  0  0  0  0
   70.7494   -7.4631   73.3187 C   0  0  0  0  0  0  0  0  0  0  0  0
   70.7976   -8.4699   72.3476 C   0  0  0  0  0  0  0  0  0  0  0  0
   70.5185   -8.1828   71.0075 C   0  0  0  0  0  0  0  0  0  0  0  0
   70.1871   -6.8809   70.6503 C   0  0  0  0  0  0  0  0  0  0  0  0
   70.1145   -5.8764   71.6073 C   0  0  0  0  0  0  0  0  0  0  0  0
   69.7684   -4.6221   71.0944 C   0  0  0  0  0  0  0  0  0  0  0  0
   68.6789   -4.4840   70.2067 C   0  0  0  0  0  0  0  0  0  0  0  0
   67.6953   -5.4806   70.0860 C   0  0  0  0  0  0  0  0  0  0  0  0
   66.6206   -5.3258   69.2003 C   0  0  0  0  0  0  0  0  0  0  0  0
   66.5145   -4.1719   68.4401 C   0  0  0  0  0  0  0  0  0  0  0  0
   65.1917   -3.9508   67.3431 Cl  0  0  0  0  0  0  0  0  0  0  0  0
   67.4852   -3.1794   68.5505 C   0  0  0  0  0  0  0  0  0  0  0  0
   68.5573   -3.3319   69.4285 C   0  0  0  0  0  0  0  0  0  0  0  0
   70.5354   -9.1011   69.9899 O   0  0  0  0  0  0  0  0  0  0  0  0
   71.4229   -8.8809   68.8796 C   0  0  0  0  0  0  0  0  0  0  0  0
   72.6138   -2.5780   72.4904 C   0  0  0  0  0  0  0  0  0  0  0  0
   72.8315   -2.1238   71.0375 C   0  0  0  0  0  0  0  0  0  0  0  0
   72.4584   -1.0151   70.6342 O   0  0  0  0  0  0  0  0  0  0  0  0
   73.0075   -2.8203   68.8485 C   0  0  0  0  0  0  0  0  0  0  0  0
   73.3035   -3.0875   70.2261 O   0  0  0  0  0  0  0  0  0  0  0  0
   74.0145   -3.0583   72.8182 C   0  0  0  0  0  0  0  0  0  0  0  0
   74.9756   -1.9371   73.1592 C   0  0  0  0  0  0  0  0  0  0  0  0
 31 30  1  0  0  0
  7  6  1  0  0  0
  5  6  2  0  0  0
  5  4  1  0  0  0
  6  8  1  0  0  0
 10 11  2  0  0  0
 10  9  1  0  0  0
 30 25  1  0  0  0
  4  3  2  0  0  0
 11 12  1  0  0  0
  8  3  1  0  0  0
  8  9  1  0  0  0
  3  1  1  0  0  0
  9 14  2  0  0  0
 24 23  1  0  0  0
 25  1  1  0  0  0
 25 26  1  0  0  0
  1  2  1  0  0  0
 12 23  1  0  0  0
 12 13  2  0  0  0
 14 13  1  0  0  0
 14 15  1  0  0  0
 26 29  1  0  0  0
 26 27  2  0  0  0
 29 28  1  0  0  0
  2 15  2  0  0  0
 15 16  1  0  0  0
 16 17  2  0  0  0
 16 22  1  0  0  0
 17 18  1  0  0  0
 22 21  2  0  0  0
 18 19  2  0  0  0
 21 19  1  0  0  0
 19 20  1  0  0  0
M  END
> <minimizedAffinity>
-7.00710

$$$$
4QEW_31P_A_503


 31 34  0  0  0  0  0  0  0  0999 V2000
   69.2591   -6.2324   72.6247 C   0  0  0  0  0  0  0  0  0  0  0  0
   70.5283   -5.4473   72.4995 N   0  0  0  0  0  0  0  0  0  0  0  0
   69.5916   -7.3453   73.4318 C   0  0  0  0  0  0  0  0  0  0  0  0
   69.7283   -8.6302   73.0519 N   0  0  0  0  0  0  0  0  0  0  0  0
   70.0446   -9.3009   74.0921 N   0  0  0  0  0  0  0  0  0  0  0  0
   70.1081   -8.4601   75.1421 C   0  0  0  0  0  0  0  0  0  0  0  0
   70.4390   -8.8679   76.5695 C   0  0  0  0  0  0  0  0  0  0  0  0
   69.8331   -7.2195   74.7427 N   0  0  0  0  0  0  0  0  0  0  0  0
   69.7633   -6.0042   75.3317 C   0  0  0  0  0  0  0  0  0  0  0  0
   69.0880   -5.9313   76.5557 C   0  0  0  0  0  0  0  0  0  0  0  0
   68.9453   -4.7005   77.2065 C   0  0  0  0  0  0  0  0  0  0  0  0
   69.4594   -3.5297   76.6398 C   0  0  0  0  0  0  0  0  0  0  0  0
   70.1204   -3.6036   75.4192 C   0  0  0  0  0  0  0  0  0  0  0  0
   70.2880   -4.8219   74.7728 C   0  0  0  0  0  0  0  0  0  0  0  0
   70.9734   -4.7343   73.5568 C   0  0  0  0  0  0  0  0  0  0  0  0
   72.1751   -3.9991   73.4601 C   0  0  0  0  0  0  0  0  0  0  0  0
   73.1471   -4.0383   74.4746 C   0  0  0  0  0  0  0  0  0  0  0  0
   74.3342   -3.3025   74.3609 C   0  0  0  0  0  0  0  0  0  0  0  0
   74.5637   -2.5345   73.2304 C   0  0  0  0  0  0  0  0  0  0  0  0
   76.0264   -1.6215   73.0602 Cl  0  0  0  0  0  0  0  0  0  0  0  0
   73.6058   -2.4870   72.2205 C   0  0  0  0  0  0  0  0  0  0  0  0
   72.4224   -3.2153   72.3321 C   0  0  0  0  0  0  0  0  0  0  0  0
   69.3730   -2.2832   77.2037 O   0  0  0  0  0  0  0  0  0  0  0  0
   69.7191   -2.1308   78.5914 C   0  0  0  0  0  0  0  0  0  0  0  0
   68.5003   -6.5033   71.3256 C   0  0  0  0  0  0  0  0  0  0  0  0
   69.5295   -6.7414   70.2082 C   0  0  0  0  0  0  0  0  0  0  0  0
   70.2281   -5.8265   69.7545 O   0  0  0  0  0  0  0  0  0  0  0  0
   70.7589   -8.6211   69.6954 C   0  0  0  0  0  0  0  0  0  0  0  0
   69.4798   -7.9732   69.6696 O   0  0  0  0  0  0  0  0  0  0  0  0
   67.7965   -5.2821   70.7658 C   0  0  0  0  0  0  0  0  0  0  0  0
   66.7960   -5.6060   69.6744 C   0  0  0  0  0  0  0  0  0  0  0  0
 31 30  1  0  0  0
  7  6  1  0  0  0
  5  6  2  0  0  0
  5  4  1  0  0  0
  6  8  1  0  0  0
 10 11  2  0  0  0
 10  9  1  0  0  0
 30 25  1  0  0  0
  4  3  2  0  0  0
 11 12  1  0  0  0
  8  3  1  0  0  0
  8  9  1  0  0  0
  3  1  1  0  0  0
  9 14  2  0  0  0
 24 23  1  0  0  0
 25  1  1  0  0  0
 25 26  1  0  0  0
  1  2  1  0  0  0
 12 23  1  0  0  0
 12 13  2  0  0  0
 14 13  1  0  0  0
 14 15  1  0  0  0
 26 29  1  0  0  0
 26 27  2  0  0  0
 29 28  1  0  0  0
  2 15  2  0  0  0
 15 16  1  0  0  0
 16 17  2  0  0  0
 16 22  1  0  0  0
 17 18  1  0  0  0
 22 21  2  0  0  0
 18 19  2  0  0  0
 21 19  1  0  0  0
 19 20  1  0  0  0
M  END
> <minimizedAffinity>
-6.82359

$$$$
4QEW_31P_A_503


 31 34  0  0  0  0  0  0  0  0999 V2000
   69.9359   -5.7926   76.2856 C   0  0  0  0  0  0  0  0  0  0  0  0
   70.3180   -7.1661   75.8272 N   0  0  0  0  0  0  0  0  0  0  0  0
   70.9967   -4.9556   75.8680 C   0  0  0  0  0  0  0  0  0  0  0  0
   71.9411   -4.3745   76.6325 N   0  0  0  0  0  0  0  0  0  0  0  0
   72.7073   -3.7148   75.8517 N   0  0  0  0  0  0  0  0  0  0  0  0
   72.2621   -3.8608   74.5892 C   0  0  0  0  0  0  0  0  0  0  0  0
   72.8896   -3.2190   73.3615 C   0  0  0  0  0  0  0  0  0  0  0  0
   71.1875   -4.6478   74.5789 N   0  0  0  0  0  0  0  0  0  0  0  0
   70.3552   -5.1403   73.6336 C   0  0  0  0  0  0  0  0  0  0  0  0
   69.9067   -4.2448   72.6557 C   0  0  0  0  0  0  0  0  0  0  0  0
   69.0154   -4.6747   71.6659 C   0  0  0  0  0  0  0  0  0  0  0  0
   68.5509   -5.9939   71.6480 C   0  0  0  0  0  0  0  0  0  0  0  0
   68.9900   -6.8781   72.6266 C   0  0  0  0  0  0  0  0  0  0  0  0
   69.8912   -6.4705   73.6022 C   0  0  0  0  0  0  0  0  0  0  0  0
   70.2386   -7.4723   74.5141 C   0  0  0  0  0  0  0  0  0  0  0  0
   70.6076   -8.7586   74.0630 C   0  0  0  0  0  0  0  0  0  0  0  0
   71.7274   -8.9571   73.2371 C   0  0  0  0  0  0  0  0  0  0  0  0
   72.0790  -10.2412   72.7998 C   0  0  0  0  0  0  0  0  0  0  0  0
   71.3238  -11.3344   73.1939 C   0  0  0  0  0  0  0  0  0  0  0  0
   71.7407  -12.9340   72.6747 Cl  0  0  0  0  0  0  0  0  0  0  0  0
   70.2110  -11.1481   74.0102 C   0  0  0  0  0  0  0  0  0  0  0  0
   69.8568   -9.8715   74.4442 C   0  0  0  0  0  0  0  0  0  0  0  0
   67.6834   -6.5061   70.7184 O   0  0  0  0  0  0  0  0  0  0  0  0
   68.1929   -7.4227   69.7340 C   0  0  0  0  0  0  0  0  0  0  0  0
   69.4675   -5.6693   77.7355 C   0  0  0  0  0  0  0  0  0  0  0  0
   68.3377   -6.6870   77.9641 C   0  0  0  0  0  0  0  0  0  0  0  0
   67.1645   -6.4448   77.6547 O   0  0  0  0  0  0  0  0  0  0  0  0
   67.8140   -8.0375   79.7557 C   0  0  0  0  0  0  0  0  0  0  0  0
   68.7100   -7.7714   78.6681 O   0  0  0  0  0  0  0  0  0  0  0  0
   68.7141   -4.3852   78.0246 C   0  0  0  0  0  0  0  0  0  0  0  0
   69.3742   -3.5190   79.0786 C   0  0  0  0  0  0  0  0  0  0  0  0
 31 30  1  0  0  0
  7  6  1  0  0  0
  5  6  2  0  0  0
  5  4  1  0  0  0
  6  8  1  0  0  0
 10 11  2  0  0  0
 10  9  1  0  0  0
 30 25  1  0  0  0
  4  3  2  0  0  0
 11 12  1  0  0  0
  8  3  1  0  0  0
  8  9  1  0  0  0
  3  1  1  0  0  0
  9 14  2  0  0  0
 24 23  1  0  0  0
 25  1  1  0  0  0
 25 26  1  0  0  0
  1  2  1  0  0  0
 12 23  1  0  0  0
 12 13  2  0  0  0
 14 13  1  0  0  0
 14 15  1  0  0  0
 26 29  1  0  0  0
 26 27  2  0  0  0
 29 28  1  0  0  0
  2 15  2  0  0  0
 15 16  1  0  0  0
 16 17  2  0  0  0
 16 22  1  0  0  0
 17 18  1  0  0  0
 22 21  2  0  0  0
 18 19  2  0  0  0
 21 19  1  0  0  0
 19 20  1  0  0  0
M  END
> <minimizedAffinity>
-6.72935

$$$$
4QEW_31P_A_503


 31 34  0  0  0  0  0  0  0  0999 V2000
   69.9565   -6.2798   72.1230 C   0  0  0  0  0  0  0  0  0  0  0  0
   71.2183   -5.6626   72.6422 N   0  0  0  0  0  0  0  0  0  0  0  0
   70.0878   -7.6636   72.3843 C   0  0  0  0  0  0  0  0  0  0  0  0
   70.3120   -8.6541   71.4995 N   0  0  0  0  0  0  0  0  0  0  0  0
   70.3717   -9.7457   72.1604 N   0  0  0  0  0  0  0  0  0  0  0  0
   70.1824   -9.4688   73.4646 C   0  0  0  0  0  0  0  0  0  0  0  0
   70.1637  -10.4993   74.5831 C   0  0  0  0  0  0  0  0  0  0  0  0
   70.0097   -8.1579   73.6262 N   0  0  0  0  0  0  0  0  0  0  0  0
   69.8005   -7.3293   74.6742 C   0  0  0  0  0  0  0  0  0  0  0  0
   68.8529   -7.7332   75.6219 C   0  0  0  0  0  0  0  0  0  0  0  0
   68.5582   -6.9102   76.7149 C   0  0  0  0  0  0  0  0  0  0  0  0
   69.1918   -5.6726   76.8677 C   0  0  0  0  0  0  0  0  0  0  0  0
   70.1247   -5.2696   75.9193 C   0  0  0  0  0  0  0  0  0  0  0  0
   70.4426   -6.0861   74.8412 C   0  0  0  0  0  0  0  0  0  0  0  0
   71.3980   -5.5439   73.9755 C   0  0  0  0  0  0  0  0  0  0  0  0
   72.5876   -4.9764   74.4824 C   0  0  0  0  0  0  0  0  0  0  0  0
   73.4375   -5.6920   75.3432 C   0  0  0  0  0  0  0  0  0  0  0  0
   74.6145   -5.1128   75.8357 C   0  0  0  0  0  0  0  0  0  0  0  0
   74.9562   -3.8226   75.4627 C   0  0  0  0  0  0  0  0  0  0  0  0
   76.4098   -3.0849   76.0502 Cl  0  0  0  0  0  0  0  0  0  0  0  0
   74.1197   -3.1041   74.6121 C   0  0  0  0  0  0  0  0  0  0  0  0
   72.9464   -3.6765   74.1230 C   0  0  0  0  0  0  0  0  0  0  0  0
   68.9724   -4.8033   77.9046 O   0  0  0  0  0  0  0  0  0  0  0  0
   68.6623   -3.4325   77.5990 C   0  0  0  0  0  0  0  0  0  0  0  0
   69.5295   -5.8641   70.7153 C   0  0  0  0  0  0  0  0  0  0  0  0
   69.8059   -4.3601   70.5534 C   0  0  0  0  0  0  0  0  0  0  0  0
   69.0088   -3.5006   70.9494 O   0  0  0  0  0  0  0  0  0  0  0  0
   71.6314   -2.9710   70.3395 C   0  0  0  0  0  0  0  0  0  0  0  0
   70.8906   -4.0785   69.8090 O   0  0  0  0  0  0  0  0  0  0  0  0
   68.0270   -5.8692   70.5086 C   0  0  0  0  0  0  0  0  0  0  0  0
   67.6082   -6.2904   69.1142 C   0  0  0  0  0  0  0  0  0  0  0  0
 31 30  1  0  0  0
  7  6  1  0  0  0
  5  6  2  0  0  0
  5  4  1  0  0  0
  6  8  1  0  0  0
 10 11  2  0  0  0
 10  9  1  0  0  0
 30 25  1  0  0  0
  4  3  2  0  0  0
 11 12  1  0  0  0
  8  3  1  0  0  0
  8  9  1  0  0  0
  3  1  1  0  0  0
  9 14  2  0  0  0
 24 23  1  0  0  0
 25  1  1  0  0  0
 25 26  1  0  0  0
  1  2  1  0  0  0
 12 23  1  0  0  0
 12 13  2  0  0  0
 14 13  1  0  0  0
 14 15  1  0  0  0
 26 29  1  0  0  0
 26 27  2  0  0  0
 29 28  1  0  0  0
  2 15  2  0  0  0
 15 16  1  0  0  0
 16 17  2  0  0  0
 16 22  1  0  0  0
 17 18  1  0  0  0
 22 21  2  0  0  0
 18 19  2  0  0  0
 21 19  1  0  0  0
 19 20  1  0  0  0
M  END
> <minimizedAffinity>
-6.29229

$$$$
4QEW_31P_A_503


 31 34  0  0  0  0  0  0  0  0999 V2000
   71.2002   -4.5647   74.0027 C   0  0  0  0  0  0  0  0  0  0  0  0
   70.2823   -4.6212   72.8207 N   0  0  0  0  0  0  0  0  0  0  0  0
   70.3622   -4.7342   75.1294 C   0  0  0  0  0  0  0  0  0  0  0  0
   69.9972   -3.8064   76.0349 N   0  0  0  0  0  0  0  0  0  0  0  0
   69.2270   -4.3813   76.8765 N   0  0  0  0  0  0  0  0  0  0  0  0
   69.0959   -5.6745   76.5247 C   0  0  0  0  0  0  0  0  0  0  0  0
   68.2727   -6.7065   77.2801 C   0  0  0  0  0  0  0  0  0  0  0  0
   69.7990   -5.9139   75.4190 N   0  0  0  0  0  0  0  0  0  0  0  0
   70.0238   -6.9859   74.6259 C   0  0  0  0  0  0  0  0  0  0  0  0
   70.3138   -8.1971   75.2649 C   0  0  0  0  0  0  0  0  0  0  0  0
   70.5920   -9.3410   74.5081 C   0  0  0  0  0  0  0  0  0  0  0  0
   70.5990   -9.2879   73.1104 C   0  0  0  0  0  0  0  0  0  0  0  0
   70.3209   -8.0812   72.4788 C   0  0  0  0  0  0  0  0  0  0  0  0
   70.0218   -6.9432   73.2174 C   0  0  0  0  0  0  0  0  0  0  0  0
   69.7638   -5.8090   72.4407 C   0  0  0  0  0  0  0  0  0  0  0  0
   68.8861   -5.8783   71.3366 C   0  0  0  0  0  0  0  0  0  0  0  0
   68.6641   -7.0818   70.6456 C   0  0  0  0  0  0  0  0  0  0  0  0
   67.7888   -7.1317   69.5525 C   0  0  0  0  0  0  0  0  0  0  0  0
   67.1213   -5.9855   69.1510 C   0  0  0  0  0  0  0  0  0  0  0  0
   66.0272   -6.0205   67.8079 Cl  0  0  0  0  0  0  0  0  0  0  0  0
   67.3362   -4.7873   69.8276 C   0  0  0  0  0  0  0  0  0  0  0  0
   68.2088   -4.7338   70.9134 C   0  0  0  0  0  0  0  0  0  0  0  0
   70.8546  -10.3539   72.2875 O   0  0  0  0  0  0  0  0  0  0  0  0
   71.5365  -11.4965   72.8339 C   0  0  0  0  0  0  0  0  0  0  0  0
   72.1961   -3.4053   74.0310 C   0  0  0  0  0  0  0  0  0  0  0  0
   72.5554   -3.0444   72.5801 C   0  0  0  0  0  0  0  0  0  0  0  0
   73.5404   -3.5284   72.0087 O   0  0  0  0  0  0  0  0  0  0  0  0
   72.4762   -1.3972   70.9713 C   0  0  0  0  0  0  0  0  0  0  0  0
   71.8118   -2.0503   72.0616 O   0  0  0  0  0  0  0  0  0  0  0  0
   73.5696   -3.7951   74.5427 C   0  0  0  0  0  0  0  0  0  0  0  0
   73.7479   -3.5721   76.0311 C   0  0  0  0  0  0  0  0  0  0  0  0
 31 30  1  0  0  0
  7  6  1  0  0  0
  5  6  2  0  0  0
  5  4  1  0  0  0
  6  8  1  0  0  0
 10 11  2  0  0  0
 10  9  1  0  0  0
 30 25  1  0  0  0
  4  3  2  0  0  0
 11 12  1  0  0  0
  8  3  1  0  0  0
  8  9  1  0  0  0
  3  1  1  0  0  0
  9 14  2  0  0  0
 24 23  1  0  0  0
 25  1  1  0  0  0
 25 26  1  0  0  0
  1  2  1  0  0  0
 12 23  1  0  0  0
 12 13  2  0  0  0
 14 13  1  0  0  0
 14 15  1  0  0  0
 26 29  1  0  0  0
 26 27  2  0  0  0
 29 28  1  0  0  0
  2 15  2  0  0  0
 15 16  1  0  0  0
 16 17  2  0  0  0
 16 22  1  0  0  0
 17 18  1  0  0  0
 22 21  2  0  0  0
 18 19  2  0  0  0
 21 19  1  0  0  0
 19 20  1  0  0  0
M  END
> <minimizedAffinity>
-6.08181

$$$$
4QEW_31P_A_503


 31 34  0  0  0  0  0  0  0  0999 V2000
   71.4995   -7.9161   73.2741 C   0  0  0  0  0  0  0  0  0  0  0  0
   71.7813   -6.6389   72.5446 N   0  0  0  0  0  0  0  0  0  0  0  0
   72.6107   -8.1061   74.1284 C   0  0  0  0  0  0  0  0  0  0  0  0
   73.6012   -9.0107   74.0070 N   0  0  0  0  0  0  0  0  0  0  0  0
   74.4021   -8.8285   74.9854 N   0  0  0  0  0  0  0  0  0  0  0  0
   73.9340   -7.8167   75.7408 C   0  0  0  0  0  0  0  0  0  0  0  0
   74.5905   -7.2979   77.0108 C   0  0  0  0  0  0  0  0  0  0  0  0
   72.8078   -7.3426   75.2105 N   0  0  0  0  0  0  0  0  0  0  0  0
   71.9332   -6.3567   75.5135 C   0  0  0  0  0  0  0  0  0  0  0  0
   71.5365   -6.2510   76.8518 C   0  0  0  0  0  0  0  0  0  0  0  0
   70.6069   -5.2769   77.2335 C   0  0  0  0  0  0  0  0  0  0  0  0
   70.0526   -4.4093   76.2867 C   0  0  0  0  0  0  0  0  0  0  0  0
   70.4407   -4.5236   74.9568 C   0  0  0  0  0  0  0  0  0  0  0  0
   71.3786   -5.4717   74.5675 C   0  0  0  0  0  0  0  0  0  0  0  0
   71.6664   -5.4629   73.1989 C   0  0  0  0  0  0  0  0  0  0  0  0
   71.9412   -4.2501   72.5298 C   0  0  0  0  0  0  0  0  0  0  0  0
   73.0556   -3.4608   72.8621 C   0  0  0  0  0  0  0  0  0  0  0  0
   73.3129   -2.2604   72.1864 C   0  0  0  0  0  0  0  0  0  0  0  0
   72.4680   -1.8476   71.1684 C   0  0  0  0  0  0  0  0  0  0  0  0
   72.7671   -0.3720   70.3111 Cl  0  0  0  0  0  0  0  0  0  0  0  0
   71.3597   -2.6213   70.8331 C   0  0  0  0  0  0  0  0  0  0  0  0
   71.0992   -3.8144   71.5056 C   0  0  0  0  0  0  0  0  0  0  0  0
   69.1418   -3.4238   76.5661 O   0  0  0  0  0  0  0  0  0  0  0  0
   69.3344   -2.6237   77.7457 C   0  0  0  0  0  0  0  0  0  0  0  0
   71.0568   -9.1016   72.4166 C   0  0  0  0  0  0  0  0  0  0  0  0
   70.1444   -8.5717   71.2979 C   0  0  0  0  0  0  0  0  0  0  0  0
   70.5072   -8.5407   70.1154 O   0  0  0  0  0  0  0  0  0  0  0  0
   68.5981   -6.9085   70.9101 C   0  0  0  0  0  0  0  0  0  0  0  0
   69.0073   -8.0044   71.7397 O   0  0  0  0  0  0  0  0  0  0  0  0
   70.0845  -10.0305   73.1177 C   0  0  0  0  0  0  0  0  0  0  0  0
   70.5996  -11.4483   73.2651 C   0  0  0  0  0  0  0  0  0  0  0  0
 31 30  1  0  0  0
  7  6  1  0  0  0
  5  6  2  0  0  0
  5  4  1  0  0  0
  6  8  1  0  0  0
 10 11  2  0  0  0
 10  9  1  0  0  0
 30 25  1  0  0  0
  4  3  2  0  0  0
 11 12  1  0  0  0
  8  3  1  0  0  0
  8  9  1  0  0  0
  3  1  1  0  0  0
  9 14  2  0  0  0
 24 23  1  0  0  0
 25  1  1  0  0  0
 25 26  1  0  0  0
  1  2  1  0  0  0
 12 23  1  0  0  0
 12 13  2  0  0  0
 14 13  1  0  0  0
 14 15  1  0  0  0
 26 29  1  0  0  0
 26 27  2  0  0  0
 29 28  1  0  0  0
  2 15  2  0  0  0
 15 16  1  0  0  0
 16 17  2  0  0  0
 16 22  1  0  0  0
 17 18  1  0  0  0
 22 21  2  0  0  0
 18 19  2  0  0  0
 21 19  1  0  0  0
 19 20  1  0  0  0
M  END
> <minimizedAffinity>
-6.02151

$$$$
4QEW_31P_A_503


 31 34  0  0  0  0  0  0  0  0999 V2000
   71.5211   -8.0292   73.9453 C   0  0  0  0  0  0  0  0  0  0  0  0
   70.7538   -8.3415   75.1929 N   0  0  0  0  0  0  0  0  0  0  0  0
   70.5380   -7.8119   72.9519 C   0  0  0  0  0  0  0  0  0  0  0  0
   70.2139   -8.6148   71.9203 N   0  0  0  0  0  0  0  0  0  0  0  0
   69.2694   -8.0430   71.2778 N   0  0  0  0  0  0  0  0  0  0  0  0
   68.9843   -6.8744   71.8833 C   0  0  0  0  0  0  0  0  0  0  0  0
   67.9279   -5.8840   71.4183 C   0  0  0  0  0  0  0  0  0  0  0  0
   69.7697   -6.7153   72.9473 N   0  0  0  0  0  0  0  0  0  0  0  0
   69.9207   -5.7772   73.9095 C   0  0  0  0  0  0  0  0  0  0  0  0
   69.9425   -4.4408   73.4935 C   0  0  0  0  0  0  0  0  0  0  0  0
   70.1305   -3.4173   74.4295 C   0  0  0  0  0  0  0  0  0  0  0  0
   70.3130   -3.7136   75.7841 C   0  0  0  0  0  0  0  0  0  0  0  0
   70.3013   -5.0422   76.1927 C   0  0  0  0  0  0  0  0  0  0  0  0
   70.0942   -6.0668   75.2776 C   0  0  0  0  0  0  0  0  0  0  0  0
   70.1084   -7.3472   75.8401 C   0  0  0  0  0  0  0  0  0  0  0  0
   69.3693   -7.6265   77.0105 C   0  0  0  0  0  0  0  0  0  0  0  0
   69.7782   -8.6147   77.9225 C   0  0  0  0  0  0  0  0  0  0  0  0
   69.0324   -8.8775   79.0794 C   0  0  0  0  0  0  0  0  0  0  0  0
   67.8830   -8.1481   79.3390 C   0  0  0  0  0  0  0  0  0  0  0  0
   66.9464   -8.4466   80.7658 Cl  0  0  0  0  0  0  0  0  0  0  0  0
   67.4680   -7.1683   78.4405 C   0  0  0  0  0  0  0  0  0  0  0  0
   68.2060   -6.9068   77.2871 C   0  0  0  0  0  0  0  0  0  0  0  0
   70.4988   -2.7811   76.7716 O   0  0  0  0  0  0  0  0  0  0  0  0
   69.8219   -2.9651   78.0273 C   0  0  0  0  0  0  0  0  0  0  0  0
   72.6726   -8.9752   73.6046 C   0  0  0  0  0  0  0  0  0  0  0  0
   72.3152  -10.3761   74.1285 C   0  0  0  0  0  0  0  0  0  0  0  0
   72.6219  -10.7479   75.2680 O   0  0  0  0  0  0  0  0  0  0  0  0
   70.6108  -11.8531   73.6578 C   0  0  0  0  0  0  0  0  0  0  0  0
   71.7985  -11.1957   73.1952 O   0  0  0  0  0  0  0  0  0  0  0  0
   73.9312   -8.7170   74.4103 C   0  0  0  0  0  0  0  0  0  0  0  0
   73.9403   -7.3704   75.1058 C   0  0  0  0  0  0  0  0  0  0  0  0
 31 30  1  0  0  0
  7  6  1  0  0  0
  5  6  2  0  0  0
  5  4  1  0  0  0
  6  8  1  0  0  0
 10 11  2  0  0  0
 10  9  1  0  0  0
 30 25  1  0  0  0
  4  3  2  0  0  0
 11 12  1  0  0  0
  8  3  1  0  0  0
  8  9  1  0  0  0
  3  1  1  0  0  0
  9 14  2  0  0  0
 24 23  1  0  0  0
 25  1  1  0  0  0
 25 26  1  0  0  0
  1  2  1  0  0  0
 12 23  1  0  0  0
 12 13  2  0  0  0
 14 13  1  0  0  0
 14 15  1  0  0  0
 26 29  1  0  0  0
 26 27  2  0  0  0
 29 28  1  0  0  0
  2 15  2  0  0  0
 15 16  1  0  0  0
 16 17  2  0  0  0
 16 22  1  0  0  0
 17 18  1  0  0  0
 22 21  2  0  0  0
 18 19  2  0  0  0
 21 19  1  0  0  0
 19 20  1  0  0  0
M  END
> <minimizedAffinity>
-5.93297

$$$$
