3NI5_C1H_A_264


 33 34  0  0  0  0  0  0  0  0999 V2000
   -3.9122    6.6471   14.1705 C   0  0  0  0  0  0  0  0  0  0  0  0
   -3.0814    6.1826   13.1283 C   0  0  0  0  0  0  0  0  0  0  0  0
   -1.8453    6.7926   12.8692 C   0  0  0  0  0  0  0  0  0  0  0  0
   -3.5167    7.7356   14.9641 C   0  0  0  0  0  0  0  0  0  0  0  0
   -2.2999    8.3620   14.7197 C   0  0  0  0  0  0  0  0  0  0  0  0
   -1.4949    7.8952   13.6737 C   0  0  0  0  0  0  0  0  0  0  0  0
    0.3902    5.9638   12.3428 O   0  0  0  0  0  0  0  0  0  0  0  0
   -0.8185    6.3719   11.6876 S   0  0  0  0  0  0  0  0  0  0  0  0
   -0.5238    7.6083   11.0219 O   0  0  0  0  0  0  0  0  0  0  0  0
   -1.1537    5.3697   10.5614 N   0  0  0  0  0  0  0  0  0  0  0  0
   -1.0564    5.6616    9.6263 H   0  0  0  0  0  0  0  0  0  0  0  0
   -1.5906    4.0613   10.8143 C   0  0  0  0  0  0  0  0  0  0  0  0
   -0.8979    3.1142   11.5348 N   0  0  0  0  0  0  0  0  0  0  0  0
   -1.5747    1.8488   11.6454 N   0  0  0  0  0  0  0  0  0  0  0  0
   -3.0882    3.3833   10.2778 S   0  0  0  0  0  0  0  0  0  0  0  0
   -2.8028    1.8470   11.0278 C   0  0  0  0  0  0  0  0  0  0  0  0
   -3.9985   -0.2914   12.1811 O   0  0  0  0  0  0  0  0  0  0  0  0
   -3.8927    0.5523   10.9360 S   0  0  0  0  0  0  0  0  0  0  0  0
   -3.4163   -0.3379    9.8568 N   0  0  0  0  0  0  0  0  0  0  0  0
   -5.2346    1.1067   10.6407 O   0  0  0  0  0  0  0  0  0  0  0  0
   -2.4927   -0.6983   10.0962 H   0  0  0  0  0  0  0  0  0  0  0  0
   -3.3609    0.1861    8.9835 H   0  0  0  0  0  0  0  0  0  0  0  0
   -5.9339    6.3830   15.3812 O   0  0  0  0  0  0  0  0  0  0  0  0
   -5.2296    5.9669   14.4659 C   0  0  0  0  0  0  0  0  0  0  0  0
   -5.6847    4.8219   13.6743 O   0  0  0  0  0  0  0  0  0  0  0  0
   -5.9406    3.5532   14.2789 C   0  0  0  0  0  0  0  0  0  0  0  0
   -4.7176    2.6374   14.1476 C   0  0  0  0  0  0  0  0  0  0  0  0
   -4.2843    2.0450   15.4868 C   0  0  0  0  0  0  0  0  0  0  0  0
   -4.5617    0.5421   15.5749 C   0  0  0  0  0  0  0  0  0  0  0  0
   -5.2360    0.1726   16.7888 O   0  0  0  0  0  0  0  0  0  0  0  0
   -7.4516    1.0678   16.8091 O   0  0  0  0  0  0  0  0  0  0  0  0
   -6.1889    0.9441   17.3999 N   0  0  0  0  0  0  0  0  0  0  0  0
   -5.9705    1.5263   18.4571 O   0  0  0  0  0  0  0  0  0  0  0  0
 31 32  1  0  0  0
 32 30  1  0  0  0
 32 33  2  0  0  0
 23 24  2  0  0  0
  7  8  2  0  0  0
 30 29  1  0  0  0
 29 28  1  0  0  0
 28 27  1  0  0  0
 27 26  1  0  0  0
 26 25  1  0  0  0
 25 24  1  0  0  0
 24  1  1  0  0  0
  1  2  2  0  0  0
  1  4  1  0  0  0
  2  3  1  0  0  0
  3  8  1  0  0  0
  3  6  2  0  0  0
  8 10  1  0  0  0
  8  9  2  0  0  0
 10 12  1  0  0  0
 12 13  2  0  0  0
 12 15  1  0  0  0
 13 14  1  0  0  0
 14 16  2  0  0  0
 17 18  2  0  0  0
  4  5  2  0  0  0
  5  6  1  0  0  0
 15 16  1  0  0  0
 16 18  1  0  0  0
 18 19  1  0  0  0
 18 20  2  0  0  0
 10 11  1  0  0  0
 19 21  1  0  0  0
 19 22  1  0  0  0
M  CHG 1  31  -1
M  CHG 1  32   1
M  END
> <minimizedAffinity>
-7.48180

$$$$
3NI5_C1H_A_264


 33 34  0  0  0  0  0  0  0  0999 V2000
   -3.5564    7.4460   11.9532 C   0  0  0  0  0  0  0  0  0  0  0  0
   -2.6705    6.4768   11.4355 C   0  0  0  0  0  0  0  0  0  0  0  0
   -1.2877    6.5829   11.6450 C   0  0  0  0  0  0  0  0  0  0  0  0
   -3.0659    8.5400   12.6838 C   0  0  0  0  0  0  0  0  0  0  0  0
   -1.6983    8.6711   12.8960 C   0  0  0  0  0  0  0  0  0  0  0  0
   -0.8340    7.7065   12.3643 C   0  0  0  0  0  0  0  0  0  0  0  0
    1.0915    6.2204   11.2332 O   0  0  0  0  0  0  0  0  0  0  0  0
   -0.1694    5.5547   11.0796 S   0  0  0  0  0  0  0  0  0  0  0  0
   -0.4293    5.4939    9.6698 O   0  0  0  0  0  0  0  0  0  0  0  0
   -0.0311    4.0853   11.5347 N   0  0  0  0  0  0  0  0  0  0  0  0
    0.8596    3.7530   11.7905 H   0  0  0  0  0  0  0  0  0  0  0  0
   -1.1204    3.2044   11.5990 C   0  0  0  0  0  0  0  0  0  0  0  0
   -2.0967    3.2127   12.5700 N   0  0  0  0  0  0  0  0  0  0  0  0
   -3.1040    2.1990   12.3993 N   0  0  0  0  0  0  0  0  0  0  0  0
   -1.4555    1.9403   10.4678 S   0  0  0  0  0  0  0  0  0  0  0  0
   -2.9042    1.4352   11.2740 C   0  0  0  0  0  0  0  0  0  0  0  0
   -4.2757   -0.8402   11.7979 O   0  0  0  0  0  0  0  0  0  0  0  0
   -3.8660    0.1478   10.7352 S   0  0  0  0  0  0  0  0  0  0  0  0
   -3.0686   -0.6009    9.7414 N   0  0  0  0  0  0  0  0  0  0  0  0
   -5.0965    0.7175   10.1379 O   0  0  0  0  0  0  0  0  0  0  0  0
   -2.2327   -0.9763   10.1894 H   0  0  0  0  0  0  0  0  0  0  0  0
   -2.7962    0.0246    8.9832 H   0  0  0  0  0  0  0  0  0  0  0  0
   -5.6578    8.1831   11.1390 O   0  0  0  0  0  0  0  0  0  0  0  0
   -5.0484    7.3110   11.7513 C   0  0  0  0  0  0  0  0  0  0  0  0
   -5.7808    6.1530   12.2686 O   0  0  0  0  0  0  0  0  0  0  0  0
   -6.3695    6.1651   13.5701 C   0  0  0  0  0  0  0  0  0  0  0  0
   -5.6275    5.2033   14.5060 C   0  0  0  0  0  0  0  0  0  0  0  0
   -6.1308    3.7665   14.3864 C   0  0  0  0  0  0  0  0  0  0  0  0
   -5.2370    2.7731   15.1333 C   0  0  0  0  0  0  0  0  0  0  0  0
   -5.9866    1.8530   15.9435 O   0  0  0  0  0  0  0  0  0  0  0  0
   -4.8401   -0.2426   15.8773 O   0  0  0  0  0  0  0  0  0  0  0  0
   -5.4314    0.7928   16.6100 N   0  0  0  0  0  0  0  0  0  0  0  0
   -5.4305    0.7265   17.8349 O   0  0  0  0  0  0  0  0  0  0  0  0
 31 32  1  0  0  0
 32 30  1  0  0  0
 32 33  2  0  0  0
 23 24  2  0  0  0
  7  8  2  0  0  0
 30 29  1  0  0  0
 29 28  1  0  0  0
 28 27  1  0  0  0
 27 26  1  0  0  0
 26 25  1  0  0  0
 25 24  1  0  0  0
 24  1  1  0  0  0
  1  2  2  0  0  0
  1  4  1  0  0  0
  2  3  1  0  0  0
  3  8  1  0  0  0
  3  6  2  0  0  0
  8 10  1  0  0  0
  8  9  2  0  0  0
 10 12  1  0  0  0
 12 13  2  0  0  0
 12 15  1  0  0  0
 13 14  1  0  0  0
 14 16  2  0  0  0
 17 18  2  0  0  0
  4  5  2  0  0  0
  5  6  1  0  0  0
 15 16  1  0  0  0
 16 18  1  0  0  0
 18 19  1  0  0  0
 18 20  2  0  0  0
 10 11  1  0  0  0
 19 21  1  0  0  0
 19 22  1  0  0  0
M  CHG 1  31  -1
M  CHG 1  32   1
M  END
> <minimizedAffinity>
-7.26378

$$$$
3NI5_C1H_A_264


 33 34  0  0  0  0  0  0  0  0999 V2000
   -5.1845    7.9940   10.8575 C   0  0  0  0  0  0  0  0  0  0  0  0
   -4.6704    7.1778   11.8880 C   0  0  0  0  0  0  0  0  0  0  0  0
   -5.5210    6.6168   12.8518 C   0  0  0  0  0  0  0  0  0  0  0  0
   -6.5602    8.2642   10.7836 C   0  0  0  0  0  0  0  0  0  0  0  0
   -7.4214    7.7267   11.7334 C   0  0  0  0  0  0  0  0  0  0  0  0
   -6.8916    6.9298   12.7553 C   0  0  0  0  0  0  0  0  0  0  0  0
   -6.2182    4.9707   14.5148 O   0  0  0  0  0  0  0  0  0  0  0  0
   -5.0506    5.6904   14.0960 S   0  0  0  0  0  0  0  0  0  0  0  0
   -4.7539    6.6289   15.1400 O   0  0  0  0  0  0  0  0  0  0  0  0
   -3.8435    4.7279   14.0548 N   0  0  0  0  0  0  0  0  0  0  0  0
   -2.9798    5.0396   14.4097 H   0  0  0  0  0  0  0  0  0  0  0  0
   -3.9256    3.4287   13.5333 C   0  0  0  0  0  0  0  0  0  0  0  0
   -4.0941    2.2807   14.2747 N   0  0  0  0  0  0  0  0  0  0  0  0
   -4.1473    1.0760   13.4889 N   0  0  0  0  0  0  0  0  0  0  0  0
   -3.8391    3.0142   11.8567 S   0  0  0  0  0  0  0  0  0  0  0  0
   -4.0468    1.3168   12.1393 C   0  0  0  0  0  0  0  0  0  0  0  0
   -2.8015    0.0798   10.0773 O   0  0  0  0  0  0  0  0  0  0  0  0
   -4.0642    0.1640   10.8969 S   0  0  0  0  0  0  0  0  0  0  0  0
   -5.1501    0.5445    9.9696 N   0  0  0  0  0  0  0  0  0  0  0  0
   -4.3036   -1.1632   11.5105 O   0  0  0  0  0  0  0  0  0  0  0  0
   -4.9495    1.4608    9.5689 H   0  0  0  0  0  0  0  0  0  0  0  0
   -6.0337    0.5817   10.4777 H   0  0  0  0  0  0  0  0  0  0  0  0
   -4.7361    9.2771    8.9147 O   0  0  0  0  0  0  0  0  0  0  0  0
   -4.2679    8.5711    9.8031 C   0  0  0  0  0  0  0  0  0  0  0  0
   -2.8274    8.3077    9.8256 O   0  0  0  0  0  0  0  0  0  0  0  0
   -2.1904    7.5624    8.7867 C   0  0  0  0  0  0  0  0  0  0  0  0
   -2.7785    6.1488    8.6993 C   0  0  0  0  0  0  0  0  0  0  0  0
   -2.8819    5.6465    7.2610 C   0  0  0  0  0  0  0  0  0  0  0  0
   -4.2641    5.9009    6.6540 C   0  0  0  0  0  0  0  0  0  0  0  0
   -5.2935    6.0206    7.6494 O   0  0  0  0  0  0  0  0  0  0  0  0
   -7.6266    6.1997    8.1344 O   0  0  0  0  0  0  0  0  0  0  0  0
   -6.4969    6.6391    7.4349 N   0  0  0  0  0  0  0  0  0  0  0  0
   -6.6135    7.5747    6.6504 O   0  0  0  0  0  0  0  0  0  0  0  0
 31 32  1  0  0  0
 32 30  1  0  0  0
 32 33  2  0  0  0
 23 24  2  0  0  0
  7  8  2  0  0  0
 30 29  1  0  0  0
 29 28  1  0  0  0
 28 27  1  0  0  0
 27 26  1  0  0  0
 26 25  1  0  0  0
 25 24  1  0  0  0
 24  1  1  0  0  0
  1  2  2  0  0  0
  1  4  1  0  0  0
  2  3  1  0  0  0
  3  8  1  0  0  0
  3  6  2  0  0  0
  8 10  1  0  0  0
  8  9  2  0  0  0
 10 12  1  0  0  0
 12 13  2  0  0  0
 12 15  1  0  0  0
 13 14  1  0  0  0
 14 16  2  0  0  0
 17 18  2  0  0  0
  4  5  2  0  0  0
  5  6  1  0  0  0
 15 16  1  0  0  0
 16 18  1  0  0  0
 18 19  1  0  0  0
 18 20  2  0  0  0
 10 11  1  0  0  0
 19 21  1  0  0  0
 19 22  1  0  0  0
M  CHG 1  31  -1
M  CHG 1  32   1
M  END
> <minimizedAffinity>
-6.94083

$$$$
3NI5_C1H_A_264


 33 34  0  0  0  0  0  0  0  0999 V2000
   -4.8949    8.4459   11.0071 C   0  0  0  0  0  0  0  0  0  0  0  0
   -4.6006    7.4684   11.9818 C   0  0  0  0  0  0  0  0  0  0  0  0
   -5.6287    6.8153   12.6773 C   0  0  0  0  0  0  0  0  0  0  0  0
   -6.2264    8.7868   10.7209 C   0  0  0  0  0  0  0  0  0  0  0  0
   -7.2618    8.1594   11.4043 C   0  0  0  0  0  0  0  0  0  0  0  0
   -6.9501    7.2014   12.3765 C   0  0  0  0  0  0  0  0  0  0  0  0
   -6.5990    4.8844   13.8136 O   0  0  0  0  0  0  0  0  0  0  0  0
   -5.4199    5.7003   13.8351 S   0  0  0  0  0  0  0  0  0  0  0  0
   -5.4655    6.4506   15.0573 O   0  0  0  0  0  0  0  0  0  0  0  0
   -4.1738    4.7959   13.9556 N   0  0  0  0  0  0  0  0  0  0  0  0
   -3.3702    5.1567   14.3953 H   0  0  0  0  0  0  0  0  0  0  0  0
   -4.1384    3.4825   13.4653 C   0  0  0  0  0  0  0  0  0  0  0  0
   -4.1710    2.3421   14.2363 N   0  0  0  0  0  0  0  0  0  0  0  0
   -4.1234    1.1191   13.4789 N   0  0  0  0  0  0  0  0  0  0  0  0
   -4.0547    3.0374   11.7965 S   0  0  0  0  0  0  0  0  0  0  0  0
   -4.0831    1.3353   12.1220 C   0  0  0  0  0  0  0  0  0  0  0  0
   -4.1140   -1.2702   11.3850 O   0  0  0  0  0  0  0  0  0  0  0  0
   -4.0170    0.1562   10.9063 S   0  0  0  0  0  0  0  0  0  0  0  0
   -2.7047    0.2946   10.2410 N   0  0  0  0  0  0  0  0  0  0  0  0
   -5.1382    0.4044    9.9698 O   0  0  0  0  0  0  0  0  0  0  0  0
   -1.9609    0.1169   10.9159 H   0  0  0  0  0  0  0  0  0  0  0  0
   -2.6091    1.2403    9.8709 H   0  0  0  0  0  0  0  0  0  0  0  0
   -2.7271    8.5305   10.0502 O   0  0  0  0  0  0  0  0  0  0  0  0
   -3.7845    9.1249   10.2382 C   0  0  0  0  0  0  0  0  0  0  0  0
   -3.9499   10.4797    9.7070 O   0  0  0  0  0  0  0  0  0  0  0  0
   -3.9487   10.7335    8.3013 C   0  0  0  0  0  0  0  0  0  0  0  0
   -4.6924    9.6212    7.5522 C   0  0  0  0  0  0  0  0  0  0  0  0
   -6.0962   10.0425    7.1234 C   0  0  0  0  0  0  0  0  0  0  0  0
   -6.8931    8.8824    6.5212 C   0  0  0  0  0  0  0  0  0  0  0  0
   -7.3518    7.9501    7.5138 O   0  0  0  0  0  0  0  0  0  0  0  0
   -6.2571    6.0706    6.5240 O   0  0  0  0  0  0  0  0  0  0  0  0
   -6.9035    6.6597    7.6166 N   0  0  0  0  0  0  0  0  0  0  0  0
   -7.0457    6.0046    8.6438 O   0  0  0  0  0  0  0  0  0  0  0  0
 31 32  1  0  0  0
 32 30  1  0  0  0
 32 33  2  0  0  0
 23 24  2  0  0  0
  7  8  2  0  0  0
 30 29  1  0  0  0
 29 28  1  0  0  0
 28 27  1  0  0  0
 27 26  1  0  0  0
 26 25  1  0  0  0
 25 24  1  0  0  0
 24  1  1  0  0  0
  1  2  2  0  0  0
  1  4  1  0  0  0
  2  3  1  0  0  0
  3  8  1  0  0  0
  3  6  2  0  0  0
  8 10  1  0  0  0
  8  9  2  0  0  0
 10 12  1  0  0  0
 12 13  2  0  0  0
 12 15  1  0  0  0
 13 14  1  0  0  0
 14 16  2  0  0  0
 17 18  2  0  0  0
  4  5  2  0  0  0
  5  6  1  0  0  0
 15 16  1  0  0  0
 16 18  1  0  0  0
 18 19  1  0  0  0
 18 20  2  0  0  0
 10 11  1  0  0  0
 19 21  1  0  0  0
 19 22  1  0  0  0
M  CHG 1  31  -1
M  CHG 1  32   1
M  END
> <minimizedAffinity>
-6.93826

$$$$
3NI5_C1H_A_264


 33 34  0  0  0  0  0  0  0  0999 V2000
   -4.8377    7.8640   10.8010 C   0  0  0  0  0  0  0  0  0  0  0  0
   -4.6627    6.9254   11.8405 C   0  0  0  0  0  0  0  0  0  0  0  0
   -5.7335    6.5672   12.6726 C   0  0  0  0  0  0  0  0  0  0  0  0
   -6.0896    8.4619   10.5858 C   0  0  0  0  0  0  0  0  0  0  0  0
   -7.1633    8.1293   11.4039 C   0  0  0  0  0  0  0  0  0  0  0  0
   -6.9675    7.2057   12.4377 C   0  0  0  0  0  0  0  0  0  0  0  0
   -6.8479    4.7377   13.8442 O   0  0  0  0  0  0  0  0  0  0  0  0
   -5.6529    5.5276   13.9137 S   0  0  0  0  0  0  0  0  0  0  0  0
   -5.7805    6.3585   15.0765 O   0  0  0  0  0  0  0  0  0  0  0  0
   -4.4465    4.6064   14.1984 N   0  0  0  0  0  0  0  0  0  0  0  0
   -3.7312    4.9357   14.7894 H   0  0  0  0  0  0  0  0  0  0  0  0
   -4.3266    3.3209   13.6510 C   0  0  0  0  0  0  0  0  0  0  0  0
   -4.2742    2.1487   14.3716 N   0  0  0  0  0  0  0  0  0  0  0  0
   -4.1507    0.9657   13.5612 N   0  0  0  0  0  0  0  0  0  0  0  0
   -4.2289    2.9550   11.9638 S   0  0  0  0  0  0  0  0  0  0  0  0
   -4.1383    1.2425   12.2148 C   0  0  0  0  0  0  0  0  0  0  0  0
   -4.0979   -1.3248   11.3543 O   0  0  0  0  0  0  0  0  0  0  0  0
   -4.0039    0.1242   10.9483 S   0  0  0  0  0  0  0  0  0  0  0  0
   -2.6678    0.3125   10.3455 N   0  0  0  0  0  0  0  0  0  0  0  0
   -5.0896    0.4016    9.9788 O   0  0  0  0  0  0  0  0  0  0  0  0
   -1.9496    0.1129   11.0417 H   0  0  0  0  0  0  0  0  0  0  0  0
   -2.5722    1.2761   10.0250 H   0  0  0  0  0  0  0  0  0  0  0  0
   -3.8659    9.0326    8.9811 O   0  0  0  0  0  0  0  0  0  0  0  0
   -3.6884    8.2238    9.8873 C   0  0  0  0  0  0  0  0  0  0  0  0
   -2.3626    7.6284   10.0678 O   0  0  0  0  0  0  0  0  0  0  0  0
   -1.9436    6.4979    9.3017 C   0  0  0  0  0  0  0  0  0  0  0  0
   -0.4171    6.3567    9.3403 C   0  0  0  0  0  0  0  0  0  0  0  0
    0.0340    5.0723   10.0323 C   0  0  0  0  0  0  0  0  0  0  0  0
   -0.8466    4.7188   11.2336 C   0  0  0  0  0  0  0  0  0  0  0  0
   -0.6231    5.5839   12.3589 O   0  0  0  0  0  0  0  0  0  0  0  0
   -1.3271    4.3253   14.2644 O   0  0  0  0  0  0  0  0  0  0  0  0
   -1.3324    5.5160   13.5290 N   0  0  0  0  0  0  0  0  0  0  0  0
   -1.9688    6.4732   13.9570 O   0  0  0  0  0  0  0  0  0  0  0  0
 31 32  1  0  0  0
 32 30  1  0  0  0
 32 33  2  0  0  0
 23 24  2  0  0  0
  7  8  2  0  0  0
 30 29  1  0  0  0
 29 28  1  0  0  0
 28 27  1  0  0  0
 27 26  1  0  0  0
 26 25  1  0  0  0
 25 24  1  0  0  0
 24  1  1  0  0  0
  1  2  2  0  0  0
  1  4  1  0  0  0
  2  3  1  0  0  0
  3  8  1  0  0  0
  3  6  2  0  0  0
  8 10  1  0  0  0
  8  9  2  0  0  0
 10 12  1  0  0  0
 12 13  2  0  0  0
 12 15  1  0  0  0
 13 14  1  0  0  0
 14 16  2  0  0  0
 17 18  2  0  0  0
  4  5  2  0  0  0
  5  6  1  0  0  0
 15 16  1  0  0  0
 16 18  1  0  0  0
 18 19  1  0  0  0
 18 20  2  0  0  0
 10 11  1  0  0  0
 19 21  1  0  0  0
 19 22  1  0  0  0
M  CHG 1  31  -1
M  CHG 1  32   1
M  END
> <minimizedAffinity>
-6.83612

$$$$
3NI5_C1H_A_264


 33 34  0  0  0  0  0  0  0  0999 V2000
   -5.9530    6.8702    8.9038 C   0  0  0  0  0  0  0  0  0  0  0  0
   -5.1213    6.4090    9.9468 C   0  0  0  0  0  0  0  0  0  0  0  0
   -5.3616    6.7848   11.2766 C   0  0  0  0  0  0  0  0  0  0  0  0
   -7.0349    7.7211    9.1802 C   0  0  0  0  0  0  0  0  0  0  0  0
   -7.2869    8.1145   10.4896 C   0  0  0  0  0  0  0  0  0  0  0  0
   -6.4437    7.6570   11.5093 C   0  0  0  0  0  0  0  0  0  0  0  0
   -5.3934    5.9076   13.5549 O   0  0  0  0  0  0  0  0  0  0  0  0
   -4.4651    6.3470   12.5541 S   0  0  0  0  0  0  0  0  0  0  0  0
   -3.9060    7.5798   13.0297 O   0  0  0  0  0  0  0  0  0  0  0  0
   -3.2801    5.3588   12.4861 N   0  0  0  0  0  0  0  0  0  0  0  0
   -2.3644    5.7165   12.5386 H   0  0  0  0  0  0  0  0  0  0  0  0
   -3.4532    3.9735   12.3529 C   0  0  0  0  0  0  0  0  0  0  0  0
   -3.4466    3.0656   13.3880 N   0  0  0  0  0  0  0  0  0  0  0  0
   -3.6483    1.7017   12.9749 N   0  0  0  0  0  0  0  0  0  0  0  0
   -3.7163    3.1349   10.8637 S   0  0  0  0  0  0  0  0  0  0  0  0
   -3.8375    1.5795   11.6189 C   0  0  0  0  0  0  0  0  0  0  0  0
   -4.3129   -1.0863   11.5973 O   0  0  0  0  0  0  0  0  0  0  0  0
   -4.1011    0.1457   10.7543 S   0  0  0  0  0  0  0  0  0  0  0  0
   -2.8914   -0.0970    9.9408 N   0  0  0  0  0  0  0  0  0  0  0  0
   -5.3034    0.3376    9.9099 O   0  0  0  0  0  0  0  0  0  0  0  0
   -2.0877   -0.2237   10.5560 H   0  0  0  0  0  0  0  0  0  0  0  0
   -2.7279    0.7019    9.3280 H   0  0  0  0  0  0  0  0  0  0  0  0
   -6.6521    6.0580    6.7887 O   0  0  0  0  0  0  0  0  0  0  0  0
   -5.7086    6.4377    7.4761 C   0  0  0  0  0  0  0  0  0  0  0  0
   -4.3647    6.4694    6.8948 O   0  0  0  0  0  0  0  0  0  0  0  0
   -3.5576    5.2931    6.8209 C   0  0  0  0  0  0  0  0  0  0  0  0
   -2.3218    5.4303    7.7184 C   0  0  0  0  0  0  0  0  0  0  0  0
   -1.1770    4.5195    7.2803 C   0  0  0  0  0  0  0  0  0  0  0  0
   -0.3541    4.0086    8.4658 C   0  0  0  0  0  0  0  0  0  0  0  0
   -0.7443    4.6087    9.7117 O   0  0  0  0  0  0  0  0  0  0  0  0
   -0.2890    5.5242   11.8716 O   0  0  0  0  0  0  0  0  0  0  0  0
    0.0662    4.6794   10.8139 N   0  0  0  0  0  0  0  0  0  0  0  0
    1.0943    4.0168   10.9053 O   0  0  0  0  0  0  0  0  0  0  0  0
 31 32  1  0  0  0
 32 30  1  0  0  0
 32 33  2  0  0  0
 23 24  2  0  0  0
  7  8  2  0  0  0
 30 29  1  0  0  0
 29 28  1  0  0  0
 28 27  1  0  0  0
 27 26  1  0  0  0
 26 25  1  0  0  0
 25 24  1  0  0  0
 24  1  1  0  0  0
  1  2  2  0  0  0
  1  4  1  0  0  0
  2  3  1  0  0  0
  3  8  1  0  0  0
  3  6  2  0  0  0
  8 10  1  0  0  0
  8  9  2  0  0  0
 10 12  1  0  0  0
 12 13  2  0  0  0
 12 15  1  0  0  0
 13 14  1  0  0  0
 14 16  2  0  0  0
 17 18  2  0  0  0
  4  5  2  0  0  0
  5  6  1  0  0  0
 15 16  1  0  0  0
 16 18  1  0  0  0
 18 19  1  0  0  0
 18 20  2  0  0  0
 10 11  1  0  0  0
 19 21  1  0  0  0
 19 22  1  0  0  0
M  CHG 1  31  -1
M  CHG 1  32   1
M  END
> <minimizedAffinity>
-6.79948

$$$$
3NI5_C1H_A_264


 33 34  0  0  0  0  0  0  0  0999 V2000
   -1.8188    4.8496   12.5271 C   0  0  0  0  0  0  0  0  0  0  0  0
   -3.2206    4.8369   12.6910 C   0  0  0  0  0  0  0  0  0  0  0  0
   -3.8752    5.8821   13.3592 C   0  0  0  0  0  0  0  0  0  0  0  0
   -1.0525    5.9093   13.0379 C   0  0  0  0  0  0  0  0  0  0  0  0
   -1.6784    6.9517   13.7121 C   0  0  0  0  0  0  0  0  0  0  0  0
   -3.0684    6.9156   13.8757 C   0  0  0  0  0  0  0  0  0  0  0  0
   -5.6117    6.2999   15.0239 O   0  0  0  0  0  0  0  0  0  0  0  0
   -5.4700    5.9683   13.6358 S   0  0  0  0  0  0  0  0  0  0  0  0
   -5.9250    4.6152   13.4914 O   0  0  0  0  0  0  0  0  0  0  0  0
   -6.4513    6.8219   12.8030 N   0  0  0  0  0  0  0  0  0  0  0  0
   -7.2015    7.2621   13.2641 H   0  0  0  0  0  0  0  0  0  0  0  0
   -6.3190    6.9966   11.4178 C   0  0  0  0  0  0  0  0  0  0  0  0
   -5.7278    6.1021   10.5539 N   0  0  0  0  0  0  0  0  0  0  0  0
   -5.7254    6.5272    9.1788 N   0  0  0  0  0  0  0  0  0  0  0  0
   -6.8791    8.3656   10.5221 S   0  0  0  0  0  0  0  0  0  0  0  0
   -6.3453    7.7404    8.9963 C   0  0  0  0  0  0  0  0  0  0  0  0
   -5.5502    9.6806    7.2827 O   0  0  0  0  0  0  0  0  0  0  0  0
   -6.5411    8.5720    7.5324 S   0  0  0  0  0  0  0  0  0  0  0  0
   -7.8802    9.1963    7.5659 N   0  0  0  0  0  0  0  0  0  0  0  0
   -6.4190    7.5890    6.4305 O   0  0  0  0  0  0  0  0  0  0  0  0
   -7.9247    9.8644    8.3353 H   0  0  0  0  0  0  0  0  0  0  0  0
   -8.5884    8.4748    7.7008 H   0  0  0  0  0  0  0  0  0  0  0  0
   -0.1983    4.0056   11.0159 O   0  0  0  0  0  0  0  0  0  0  0  0
   -1.1211    3.7364   11.7793 C   0  0  0  0  0  0  0  0  0  0  0  0
   -1.5231    2.3390   11.9539 O   0  0  0  0  0  0  0  0  0  0  0  0
   -2.2991    1.6585   10.9664 C   0  0  0  0  0  0  0  0  0  0  0  0
   -3.7950    1.7716   11.2844 C   0  0  0  0  0  0  0  0  0  0  0  0
   -4.4473    0.4111   11.5196 C   0  0  0  0  0  0  0  0  0  0  0  0
   -4.1680   -0.1328   12.9231 C   0  0  0  0  0  0  0  0  0  0  0  0
   -4.2592    0.8796   13.9387 O   0  0  0  0  0  0  0  0  0  0  0  0
   -3.4866    1.4037   16.1384 O   0  0  0  0  0  0  0  0  0  0  0  0
   -4.2656    0.6163   15.2831 N   0  0  0  0  0  0  0  0  0  0  0  0
   -4.9417   -0.2878   15.7627 O   0  0  0  0  0  0  0  0  0  0  0  0
 31 32  1  0  0  0
 32 30  1  0  0  0
 32 33  2  0  0  0
 23 24  2  0  0  0
  7  8  2  0  0  0
 30 29  1  0  0  0
 29 28  1  0  0  0
 28 27  1  0  0  0
 27 26  1  0  0  0
 26 25  1  0  0  0
 25 24  1  0  0  0
 24  1  1  0  0  0
  1  2  2  0  0  0
  1  4  1  0  0  0
  2  3  1  0  0  0
  3  8  1  0  0  0
  3  6  2  0  0  0
  8 10  1  0  0  0
  8  9  2  0  0  0
 10 12  1  0  0  0
 12 13  2  0  0  0
 12 15  1  0  0  0
 13 14  1  0  0  0
 14 16  2  0  0  0
 17 18  2  0  0  0
  4  5  2  0  0  0
  5  6  1  0  0  0
 15 16  1  0  0  0
 16 18  1  0  0  0
 18 19  1  0  0  0
 18 20  2  0  0  0
 10 11  1  0  0  0
 19 21  1  0  0  0
 19 22  1  0  0  0
M  CHG 1  31  -1
M  CHG 1  32   1
M  END
> <minimizedAffinity>
-6.67554

$$$$
3NI5_C1H_A_264


 33 34  0  0  0  0  0  0  0  0999 V2000
   -4.0135    5.6408   13.4546 C   0  0  0  0  0  0  0  0  0  0  0  0
   -3.5077    4.7719   12.4639 C   0  0  0  0  0  0  0  0  0  0  0  0
   -2.2531    5.0012   11.8801 C   0  0  0  0  0  0  0  0  0  0  0  0
   -3.2695    6.7569   13.8691 C   0  0  0  0  0  0  0  0  0  0  0  0
   -2.0275    7.0095   13.2978 C   0  0  0  0  0  0  0  0  0  0  0  0
   -1.5477    6.1437   12.3078 C   0  0  0  0  0  0  0  0  0  0  0  0
   -2.6386    3.3004   10.1713 O   0  0  0  0  0  0  0  0  0  0  0  0
   -1.5778    4.0965   10.7170 S   0  0  0  0  0  0  0  0  0  0  0  0
   -0.7166    3.1959   11.4282 O   0  0  0  0  0  0  0  0  0  0  0  0
   -0.7181    4.6622    9.5654 N   0  0  0  0  0  0  0  0  0  0  0  0
   -1.1633    5.1761    8.8534 H   0  0  0  0  0  0  0  0  0  0  0  0
    0.6697    4.4749    9.4909 C   0  0  0  0  0  0  0  0  0  0  0  0
    1.2989    3.3923    8.9181 N   0  0  0  0  0  0  0  0  0  0  0  0
    2.7359    3.4496    8.9754 N   0  0  0  0  0  0  0  0  0  0  0  0
    1.8629    5.5700   10.0968 S   0  0  0  0  0  0  0  0  0  0  0  0
    3.1987    4.5987    9.5712 C   0  0  0  0  0  0  0  0  0  0  0  0
    5.1626    6.4620    9.5068 O   0  0  0  0  0  0  0  0  0  0  0  0
    4.8177    5.0297    9.8276 S   0  0  0  0  0  0  0  0  0  0  0  0
    5.6368    4.1835    8.9348 N   0  0  0  0  0  0  0  0  0  0  0  0
    5.1322    4.7896   11.2555 O   0  0  0  0  0  0  0  0  0  0  0  0
    5.3919    4.3772    7.9638 H   0  0  0  0  0  0  0  0  0  0  0  0
    5.4591    3.2005    9.1407 H   0  0  0  0  0  0  0  0  0  0  0  0
   -5.8899    6.2524   14.7688 O   0  0  0  0  0  0  0  0  0  0  0  0
   -5.3524    5.3723   14.1030 C   0  0  0  0  0  0  0  0  0  0  0  0
   -6.0243    4.0805   13.9460 O   0  0  0  0  0  0  0  0  0  0  0  0
   -5.9788    3.0880   14.9724 C   0  0  0  0  0  0  0  0  0  0  0  0
   -4.5894    2.4421   15.0362 C   0  0  0  0  0  0  0  0  0  0  0  0
   -4.5178    1.1310   14.2565 C   0  0  0  0  0  0  0  0  0  0  0  0
   -4.0894    1.3419   12.8021 C   0  0  0  0  0  0  0  0  0  0  0  0
   -4.2914    0.1742   11.9894 O   0  0  0  0  0  0  0  0  0  0  0  0
   -5.2520    0.3860    9.8115 O   0  0  0  0  0  0  0  0  0  0  0  0
   -4.1394    0.1539   10.6281 N   0  0  0  0  0  0  0  0  0  0  0  0
   -3.0517   -0.0555   10.1010 O   0  0  0  0  0  0  0  0  0  0  0  0
 31 32  1  0  0  0
 32 30  1  0  0  0
 32 33  2  0  0  0
 23 24  2  0  0  0
  7  8  2  0  0  0
 30 29  1  0  0  0
 29 28  1  0  0  0
 28 27  1  0  0  0
 27 26  1  0  0  0
 26 25  1  0  0  0
 25 24  1  0  0  0
 24  1  1  0  0  0
  1  2  2  0  0  0
  1  4  1  0  0  0
  2  3  1  0  0  0
  3  8  1  0  0  0
  3  6  2  0  0  0
  8 10  1  0  0  0
  8  9  2  0  0  0
 10 12  1  0  0  0
 12 13  2  0  0  0
 12 15  1  0  0  0
 13 14  1  0  0  0
 14 16  2  0  0  0
 17 18  2  0  0  0
  4  5  2  0  0  0
  5  6  1  0  0  0
 15 16  1  0  0  0
 16 18  1  0  0  0
 18 19  1  0  0  0
 18 20  2  0  0  0
 10 11  1  0  0  0
 19 21  1  0  0  0
 19 22  1  0  0  0
M  CHG 1  31  -1
M  CHG 1  32   1
M  END
> <minimizedAffinity>
-6.61484

$$$$
3NI5_C1H_A_264


 33 34  0  0  0  0  0  0  0  0999 V2000
   -4.3807    6.3591    7.8907 C   0  0  0  0  0  0  0  0  0  0  0  0
   -3.2778    6.2921    8.7690 C   0  0  0  0  0  0  0  0  0  0  0  0
   -2.0043    5.9416    8.2973 C   0  0  0  0  0  0  0  0  0  0  0  0
   -4.2221    6.0687    6.5263 C   0  0  0  0  0  0  0  0  0  0  0  0
   -2.9710    5.7098    6.0377 C   0  0  0  0  0  0  0  0  0  0  0  0
   -1.8915    5.6366    6.9261 C   0  0  0  0  0  0  0  0  0  0  0  0
   -0.4791    7.0822    9.8251 O   0  0  0  0  0  0  0  0  0  0  0  0
   -0.6701    5.8022    9.2072 S   0  0  0  0  0  0  0  0  0  0  0  0
    0.3907    5.6476    8.2535 O   0  0  0  0  0  0  0  0  0  0  0  0
   -0.4451    4.6897   10.2545 N   0  0  0  0  0  0  0  0  0  0  0  0
    0.3254    4.7638   10.8628 H   0  0  0  0  0  0  0  0  0  0  0  0
   -1.2918    3.5784   10.3758 C   0  0  0  0  0  0  0  0  0  0  0  0
   -1.0177    2.3121    9.9096 N   0  0  0  0  0  0  0  0  0  0  0  0
   -2.0593    1.3527   10.1672 N   0  0  0  0  0  0  0  0  0  0  0  0
   -2.8424    3.5783   11.1412 S   0  0  0  0  0  0  0  0  0  0  0  0
   -3.1182    1.8906   10.8592 C   0  0  0  0  0  0  0  0  0  0  0  0
   -5.2233    0.2941   10.2656 O   0  0  0  0  0  0  0  0  0  0  0  0
   -4.5293    1.0867   11.3442 S   0  0  0  0  0  0  0  0  0  0  0  0
   -5.4834    2.1217   11.7939 N   0  0  0  0  0  0  0  0  0  0  0  0
   -4.1695    0.1559   12.4396 O   0  0  0  0  0  0  0  0  0  0  0  0
   -5.7058    2.7408   11.0144 H   0  0  0  0  0  0  0  0  0  0  0  0
   -5.0655    2.6638   12.5501 H   0  0  0  0  0  0  0  0  0  0  0  0
   -6.5109    5.9113    8.8308 O   0  0  0  0  0  0  0  0  0  0  0  0
   -5.7449    6.7674    8.3980 C   0  0  0  0  0  0  0  0  0  0  0  0
   -6.1680    8.1694    8.3882 O   0  0  0  0  0  0  0  0  0  0  0  0
   -7.1661    8.6523    9.2888 C   0  0  0  0  0  0  0  0  0  0  0  0
   -6.5546    8.9445   10.6644 C   0  0  0  0  0  0  0  0  0  0  0  0
   -6.8317    7.8340   11.6753 C   0  0  0  0  0  0  0  0  0  0  0  0
   -5.5592    7.0854   12.0803 C   0  0  0  0  0  0  0  0  0  0  0  0
   -5.8043    5.7051   12.3960 O   0  0  0  0  0  0  0  0  0  0  0  0
   -6.4469    3.9943   13.9356 O   0  0  0  0  0  0  0  0  0  0  0  0
   -5.7800    5.1950   13.6671 N   0  0  0  0  0  0  0  0  0  0  0  0
   -5.1832    5.7574   14.5793 O   0  0  0  0  0  0  0  0  0  0  0  0
 31 32  1  0  0  0
 32 30  1  0  0  0
 32 33  2  0  0  0
 23 24  2  0  0  0
  7  8  2  0  0  0
 30 29  1  0  0  0
 29 28  1  0  0  0
 28 27  1  0  0  0
 27 26  1  0  0  0
 26 25  1  0  0  0
 25 24  1  0  0  0
 24  1  1  0  0  0
  1  2  2  0  0  0
  1  4  1  0  0  0
  2  3  1  0  0  0
  3  8  1  0  0  0
  3  6  2  0  0  0
  8 10  1  0  0  0
  8  9  2  0  0  0
 10 12  1  0  0  0
 12 13  2  0  0  0
 12 15  1  0  0  0
 13 14  1  0  0  0
 14 16  2  0  0  0
 17 18  2  0  0  0
  4  5  2  0  0  0
  5  6  1  0  0  0
 15 16  1  0  0  0
 16 18  1  0  0  0
 18 19  1  0  0  0
 18 20  2  0  0  0
 10 11  1  0  0  0
 19 21  1  0  0  0
 19 22  1  0  0  0
M  CHG 1  31  -1
M  CHG 1  32   1
M  END
> <minimizedAffinity>
-6.56732

$$$$
3NI5_C1H_A_264


 33 34  0  0  0  0  0  0  0  0999 V2000
   -5.3357    4.0363   14.1241 C   0  0  0  0  0  0  0  0  0  0  0  0
   -4.8462    3.4172   12.9539 C   0  0  0  0  0  0  0  0  0  0  0  0
   -4.4410    2.0745   12.9675 C   0  0  0  0  0  0  0  0  0  0  0  0
   -5.4197    3.3177   15.3272 C   0  0  0  0  0  0  0  0  0  0  0  0
   -5.0150    1.9882   15.3669 C   0  0  0  0  0  0  0  0  0  0  0  0
   -4.5205    1.3947   14.1993 C   0  0  0  0  0  0  0  0  0  0  0  0
   -4.5767    1.7081   10.5573 O   0  0  0  0  0  0  0  0  0  0  0  0
   -3.8366    1.2619   11.7018 S   0  0  0  0  0  0  0  0  0  0  0  0
   -4.2303   -0.0977   11.9371 O   0  0  0  0  0  0  0  0  0  0  0  0
   -2.3349    1.1983   11.3472 N   0  0  0  0  0  0  0  0  0  0  0  0
   -1.8539    0.3501   11.4831 H   0  0  0  0  0  0  0  0  0  0  0  0
   -1.6271    2.2976   10.8398 C   0  0  0  0  0  0  0  0  0  0  0  0
   -1.2143    2.4470    9.5347 N   0  0  0  0  0  0  0  0  0  0  0  0
   -0.5057    3.6734    9.2792 N   0  0  0  0  0  0  0  0  0  0  0  0
   -1.1408    3.6841   11.7514 S   0  0  0  0  0  0  0  0  0  0  0  0
   -0.4060    4.4719   10.3936 C   0  0  0  0  0  0  0  0  0  0  0  0
    1.6849    5.9891   11.2055 O   0  0  0  0  0  0  0  0  0  0  0  0
    0.3542    5.9832   10.4967 S   0  0  0  0  0  0  0  0  0  0  0  0
   -0.5442    6.8671   11.2686 N   0  0  0  0  0  0  0  0  0  0  0  0
    0.5655    6.4817    9.1174 O   0  0  0  0  0  0  0  0  0  0  0  0
   -0.6646    6.4916   12.2093 H   0  0  0  0  0  0  0  0  0  0  0  0
   -1.4511    6.9190   10.8046 H   0  0  0  0  0  0  0  0  0  0  0  0
   -5.4962    6.2263   15.0189 O   0  0  0  0  0  0  0  0  0  0  0  0
   -5.8001    5.4747   14.0972 C   0  0  0  0  0  0  0  0  0  0  0  0
   -6.6027    5.9906   12.9861 O   0  0  0  0  0  0  0  0  0  0  0  0
   -6.0680    6.9343   12.0566 C   0  0  0  0  0  0  0  0  0  0  0  0
   -7.1536    7.9174   11.6021 C   0  0  0  0  0  0  0  0  0  0  0  0
   -7.0406    8.2691   10.1203 C   0  0  0  0  0  0  0  0  0  0  0  0
   -5.9486    7.4626    9.4128 C   0  0  0  0  0  0  0  0  0  0  0  0
   -6.4760    6.5620    8.4251 O   0  0  0  0  0  0  0  0  0  0  0  0
   -4.3968    5.9457    7.4212 O   0  0  0  0  0  0  0  0  0  0  0  0
   -5.7790    6.1416    7.3232 N   0  0  0  0  0  0  0  0  0  0  0  0
   -6.3331    5.9239    6.2507 O   0  0  0  0  0  0  0  0  0  0  0  0
 31 32  1  0  0  0
 32 30  1  0  0  0
 32 33  2  0  0  0
 23 24  2  0  0  0
  7  8  2  0  0  0
 30 29  1  0  0  0
 29 28  1  0  0  0
 28 27  1  0  0  0
 27 26  1  0  0  0
 26 25  1  0  0  0
 25 24  1  0  0  0
 24  1  1  0  0  0
  1  2  2  0  0  0
  1  4  1  0  0  0
  2  3  1  0  0  0
  3  8  1  0  0  0
  3  6  2  0  0  0
  8 10  1  0  0  0
  8  9  2  0  0  0
 10 12  1  0  0  0
 12 13  2  0  0  0
 12 15  1  0  0  0
 13 14  1  0  0  0
 14 16  2  0  0  0
 17 18  2  0  0  0
  4  5  2  0  0  0
  5  6  1  0  0  0
 15 16  1  0  0  0
 16 18  1  0  0  0
 18 19  1  0  0  0
 18 20  2  0  0  0
 10 11  1  0  0  0
 19 21  1  0  0  0
 19 22  1  0  0  0
M  CHG 1  31  -1
M  CHG 1  32   1
M  END
> <minimizedAffinity>
-6.46763

$$$$
