1G4O_BSB_A_555


 23 24  0  0  0  0  0  0  0  0999 V2000
   -4.0632    4.7534   14.7820 C   0  0  0  0  0  0  0  0  0  0  0  0
   -3.8250    3.3965   15.0984 C   0  0  0  0  0  0  0  0  0  0  0  0
   -4.9783    2.5866   15.4274 C   0  0  0  0  0  0  0  0  0  0  0  0
   -6.2663    3.1852   15.4103 C   0  0  0  0  0  0  0  0  0  0  0  0
   -6.4492    4.5401   15.0857 C   0  0  0  0  0  0  0  0  0  0  0  0
   -5.3533    5.3226   14.7762 C   0  0  0  0  0  0  0  0  0  0  0  0
   -4.6658    0.8612   15.8391 S   0  0  0  0  0  0  0  0  0  0  0  0
   -5.7850    0.1392   16.7155 N   0  0  0  0  0  0  0  0  0  0  0  0
   -3.3355    1.0455   16.5150 O   0  0  0  0  0  0  0  0  0  0  0  0
   -4.4018    0.3441   14.5162 O   0  0  0  0  0  0  0  0  0  0  0  0
   -5.8637    0.6066   17.6186 H   0  0  0  0  0  0  0  0  0  0  0  0
   -5.5269   -0.8371   16.8592 H   0  0  0  0  0  0  0  0  0  0  0  0
   -5.5065    6.7964   14.4308 C   0  0  0  0  0  0  0  0  0  0  0  0
   -4.5122    7.4846   14.2814 O   0  0  0  0  0  0  0  0  0  0  0  0
   -6.7737    7.3425   14.2834 N   0  0  0  0  0  0  0  0  0  0  0  0
   -7.5274    6.7243   14.4214 H   0  0  0  0  0  0  0  0  0  0  0  0
   -7.1295    8.7166   13.9500 C   0  0  0  0  0  0  0  0  0  0  0  0
   -7.0491    9.0747   12.5572 C   0  0  0  0  0  0  0  0  0  0  0  0
   -7.6224    8.1750   11.5849 C   0  0  0  0  0  0  0  0  0  0  0  0
   -7.5846    8.4475   10.1864 C   0  0  0  0  0  0  0  0  0  0  0  0
   -6.9594    9.6458    9.7425 C   0  0  0  0  0  0  0  0  0  0  0  0
   -6.3691   10.5826   10.6829 C   0  0  0  0  0  0  0  0  0  0  0  0
   -6.4126   10.2949   12.1144 C   0  0  0  0  0  0  0  0  0  0  0  0
  1  2  2  0  0  0
  1  6  1  0  0  0
  2  3  1  0  0  0
  3  4  2  0  0  0
  3  7  1  0  0  0
  4  5  1  0  0  0
  5  6  2  0  0  0
  6 13  1  0  0  0
 13 14  2  0  0  0
 13 15  1  0  0  0
 15 17  1  0  0  0
 17 18  1  0  0  0
  7  8  1  0  0  0
  7  9  2  0  0  0
  7 10  2  0  0  0
 18 19  2  0  0  0
 18 23  1  0  0  0
 19 20  1  0  0  0
 20 21  2  0  0  0
 21 22  1  0  0  0
 22 23  2  0  0  0
 15 16  1  0  0  0
  8 11  1  0  0  0
  8 12  1  0  0  0
M  END
> <minimizedAffinity>
-7.49897

$$$$
1G4O_BSB_A_555


 23 24  0  0  0  0  0  0  0  0999 V2000
   -4.2245    4.9070   14.7924 C   0  0  0  0  0  0  0  0  0  0  0  0
   -3.9140    3.5624   15.0984 C   0  0  0  0  0  0  0  0  0  0  0  0
   -5.0151    2.7050   15.4816 C   0  0  0  0  0  0  0  0  0  0  0  0
   -6.3270    3.2481   15.5242 C   0  0  0  0  0  0  0  0  0  0  0  0
   -6.5824    4.5931   15.2074 C   0  0  0  0  0  0  0  0  0  0  0  0
   -5.5366    5.4206   14.8464 C   0  0  0  0  0  0  0  0  0  0  0  0
   -4.6104    0.9956   15.8797 S   0  0  0  0  0  0  0  0  0  0  0  0
   -5.6850    0.2103   16.7575 N   0  0  0  0  0  0  0  0  0  0  0  0
   -3.2874    1.2448   16.5492 O   0  0  0  0  0  0  0  0  0  0  0  0
   -4.3278    0.5017   14.5517 O   0  0  0  0  0  0  0  0  0  0  0  0
   -5.7826    0.6671   17.6643 H   0  0  0  0  0  0  0  0  0  0  0  0
   -5.3754   -0.7521   16.8931 H   0  0  0  0  0  0  0  0  0  0  0  0
   -5.7685    6.8856   14.5074 C   0  0  0  0  0  0  0  0  0  0  0  0
   -6.7125    7.1966   13.8025 O   0  0  0  0  0  0  0  0  0  0  0  0
   -4.9090    7.8540   15.0068 N   0  0  0  0  0  0  0  0  0  0  0  0
   -4.1691    7.5251   15.5669 H   0  0  0  0  0  0  0  0  0  0  0  0
   -4.9639    9.2972   14.8066 C   0  0  0  0  0  0  0  0  0  0  0  0
   -3.7002    9.9881   14.8065 C   0  0  0  0  0  0  0  0  0  0  0  0
   -2.5250    9.2660   15.2322 C   0  0  0  0  0  0  0  0  0  0  0  0
   -1.2354    9.8718   15.2674 C   0  0  0  0  0  0  0  0  0  0  0  0
   -1.1106   11.2320   14.8698 C   0  0  0  0  0  0  0  0  0  0  0  0
   -2.2640   11.9998   14.4329 C   0  0  0  0  0  0  0  0  0  0  0  0
   -3.5817   11.3705   14.4001 C   0  0  0  0  0  0  0  0  0  0  0  0
  1  2  2  0  0  0
  1  6  1  0  0  0
  2  3  1  0  0  0
  3  4  2  0  0  0
  3  7  1  0  0  0
  4  5  1  0  0  0
  5  6  2  0  0  0
  6 13  1  0  0  0
 13 14  2  0  0  0
 13 15  1  0  0  0
 15 17  1  0  0  0
 17 18  1  0  0  0
  7  8  1  0  0  0
  7  9  2  0  0  0
  7 10  2  0  0  0
 18 19  2  0  0  0
 18 23  1  0  0  0
 19 20  1  0  0  0
 20 21  2  0  0  0
 21 22  1  0  0  0
 22 23  2  0  0  0
 15 16  1  0  0  0
  8 11  1  0  0  0
  8 12  1  0  0  0
M  END
> <minimizedAffinity>
-7.30664

$$$$
1G4O_BSB_A_555


 23 24  0  0  0  0  0  0  0  0999 V2000
   -6.3730    4.4599   14.8522 C   0  0  0  0  0  0  0  0  0  0  0  0
   -6.8318    3.5368   15.8193 C   0  0  0  0  0  0  0  0  0  0  0  0
   -5.9152    2.4885   16.2134 C   0  0  0  0  0  0  0  0  0  0  0  0
   -4.6242    2.4460   15.6225 C   0  0  0  0  0  0  0  0  0  0  0  0
   -4.2159    3.3910   14.6661 C   0  0  0  0  0  0  0  0  0  0  0  0
   -5.0864    4.3917   14.2793 C   0  0  0  0  0  0  0  0  0  0  0  0
   -6.5105    1.3102   17.4387 S   0  0  0  0  0  0  0  0  0  0  0  0
   -5.7555   -0.0934   17.4814 N   0  0  0  0  0  0  0  0  0  0  0  0
   -7.9468    1.2577   16.9974 O   0  0  0  0  0  0  0  0  0  0  0  0
   -6.4586    2.1444   18.6171 O   0  0  0  0  0  0  0  0  0  0  0  0
   -5.8757   -0.5715   16.5885 H   0  0  0  0  0  0  0  0  0  0  0  0
   -6.1457   -0.6668   18.2294 H   0  0  0  0  0  0  0  0  0  0  0  0
   -4.6880    5.4274   13.2383 C   0  0  0  0  0  0  0  0  0  0  0  0
   -3.6409    5.2946   12.6294 O   0  0  0  0  0  0  0  0  0  0  0  0
   -5.5204    6.5090   12.9871 N   0  0  0  0  0  0  0  0  0  0  0  0
   -6.3473    6.5484   13.5198 H   0  0  0  0  0  0  0  0  0  0  0  0
   -5.3244    7.5944   12.0334 C   0  0  0  0  0  0  0  0  0  0  0  0
   -6.1786    7.5847   10.8739 C   0  0  0  0  0  0  0  0  0  0  0  0
   -5.7902    6.7747    9.7440 C   0  0  0  0  0  0  0  0  0  0  0  0
   -6.5729    6.7088    8.5547 C   0  0  0  0  0  0  0  0  0  0  0  0
   -7.7733    7.4691    8.4862 C   0  0  0  0  0  0  0  0  0  0  0  0
   -8.2062    8.2985    9.5977 C   0  0  0  0  0  0  0  0  0  0  0  0
   -7.3975    8.3597   10.8125 C   0  0  0  0  0  0  0  0  0  0  0  0
  1  2  2  0  0  0
  1  6  1  0  0  0
  2  3  1  0  0  0
  3  4  2  0  0  0
  3  7  1  0  0  0
  4  5  1  0  0  0
  5  6  2  0  0  0
  6 13  1  0  0  0
 13 14  2  0  0  0
 13 15  1  0  0  0
 15 17  1  0  0  0
 17 18  1  0  0  0
  7  8  1  0  0  0
  7  9  2  0  0  0
  7 10  2  0  0  0
 18 19  2  0  0  0
 18 23  1  0  0  0
 19 20  1  0  0  0
 20 21  2  0  0  0
 21 22  1  0  0  0
 22 23  2  0  0  0
 15 16  1  0  0  0
  8 11  1  0  0  0
  8 12  1  0  0  0
M  END
> <minimizedAffinity>
-6.89613

$$$$
1G4O_BSB_A_555


 23 24  0  0  0  0  0  0  0  0999 V2000
   -3.8957    3.4972   15.1717 C   0  0  0  0  0  0  0  0  0  0  0  0
   -4.4271    2.4806   15.9975 C   0  0  0  0  0  0  0  0  0  0  0  0
   -5.8270    2.5850   16.3491 C   0  0  0  0  0  0  0  0  0  0  0  0
   -6.5813    3.6807   15.8509 C   0  0  0  0  0  0  0  0  0  0  0  0
   -6.0046    4.6646   15.0298 C   0  0  0  0  0  0  0  0  0  0  0  0
   -4.6673    4.5763   14.6939 C   0  0  0  0  0  0  0  0  0  0  0  0
   -6.4947    1.2914   17.4098 S   0  0  0  0  0  0  0  0  0  0  0  0
   -5.7599   -0.1215   17.3339 N   0  0  0  0  0  0  0  0  0  0  0  0
   -7.9088    1.3122   16.8996 O   0  0  0  0  0  0  0  0  0  0  0  0
   -6.4888    1.9919   18.6734 O   0  0  0  0  0  0  0  0  0  0  0  0
   -5.8433   -0.4978   16.3896 H   0  0  0  0  0  0  0  0  0  0  0  0
   -6.1925   -0.7657   17.9960 H   0  0  0  0  0  0  0  0  0  0  0  0
   -4.0016    5.6266   13.8173 C   0  0  0  0  0  0  0  0  0  0  0  0
   -4.6467    6.1730   12.9398 O   0  0  0  0  0  0  0  0  0  0  0  0
   -2.6702    5.9574   14.0269 N   0  0  0  0  0  0  0  0  0  0  0  0
   -2.2154    5.4720   14.7528 H   0  0  0  0  0  0  0  0  0  0  0  0
   -1.8602    6.9333   13.3076 C   0  0  0  0  0  0  0  0  0  0  0  0
   -1.3251    8.0171   14.0907 C   0  0  0  0  0  0  0  0  0  0  0  0
   -1.9475    8.3188   15.3576 C   0  0  0  0  0  0  0  0  0  0  0  0
   -1.4864    9.3759   16.1952 C   0  0  0  0  0  0  0  0  0  0  0  0
   -0.3778   10.1546   15.7613 C   0  0  0  0  0  0  0  0  0  0  0  0
    0.2821    9.8888   14.4946 C   0  0  0  0  0  0  0  0  0  0  0  0
   -0.1974    8.8033   13.6429 C   0  0  0  0  0  0  0  0  0  0  0  0
  1  2  2  0  0  0
  1  6  1  0  0  0
  2  3  1  0  0  0
  3  4  2  0  0  0
  3  7  1  0  0  0
  4  5  1  0  0  0
  5  6  2  0  0  0
  6 13  1  0  0  0
 13 14  2  0  0  0
 13 15  1  0  0  0
 15 17  1  0  0  0
 17 18  1  0  0  0
  7  8  1  0  0  0
  7  9  2  0  0  0
  7 10  2  0  0  0
 18 19  2  0  0  0
 18 23  1  0  0  0
 19 20  1  0  0  0
 20 21  2  0  0  0
 21 22  1  0  0  0
 22 23  2  0  0  0
 15 16  1  0  0  0
  8 11  1  0  0  0
  8 12  1  0  0  0
M  END
> <minimizedAffinity>
-6.89368

$$$$
1G4O_BSB_A_555


 23 24  0  0  0  0  0  0  0  0999 V2000
   -2.0672    5.0655   12.8895 C   0  0  0  0  0  0  0  0  0  0  0  0
   -0.7377    5.3302   12.4889 C   0  0  0  0  0  0  0  0  0  0  0  0
   -0.1452    4.4174   11.5349 C   0  0  0  0  0  0  0  0  0  0  0  0
   -0.9182    3.3263   11.0558 C   0  0  0  0  0  0  0  0  0  0  0  0
   -2.2387    3.1091   11.4846 C   0  0  0  0  0  0  0  0  0  0  0  0
   -2.8105    3.9719   12.3998 C   0  0  0  0  0  0  0  0  0  0  0  0
    1.5524    4.7554   11.0368 S   0  0  0  0  0  0  0  0  0  0  0  0
    2.6618    4.5662   12.1662 N   0  0  0  0  0  0  0  0  0  0  0  0
    1.3525    6.1665   10.5579 O   0  0  0  0  0  0  0  0  0  0  0  0
    1.6287    3.9156    9.8637 O   0  0  0  0  0  0  0  0  0  0  0  0
    2.4851    5.2196   12.9292 H   0  0  0  0  0  0  0  0  0  0  0  0
    3.5842    4.7472   11.7703 H   0  0  0  0  0  0  0  0  0  0  0  0
   -4.2329    3.7657   12.8988 C   0  0  0  0  0  0  0  0  0  0  0  0
   -5.0666    3.2821   12.1533 O   0  0  0  0  0  0  0  0  0  0  0  0
   -4.5675    4.1236   14.1972 N   0  0  0  0  0  0  0  0  0  0  0  0
   -3.8409    4.5094   14.7380 H   0  0  0  0  0  0  0  0  0  0  0  0
   -5.8597    4.0002   14.8613 C   0  0  0  0  0  0  0  0  0  0  0  0
   -6.0093    2.8848   15.7600 C   0  0  0  0  0  0  0  0  0  0  0  0
   -5.0665    1.7961   15.6629 C   0  0  0  0  0  0  0  0  0  0  0  0
   -5.1418    0.6514   16.5089 C   0  0  0  0  0  0  0  0  0  0  0  0
   -6.1827    0.5867   17.4764 C   0  0  0  0  0  0  0  0  0  0  0  0
   -7.1548    1.6578   17.6126 C   0  0  0  0  0  0  0  0  0  0  0  0
   -7.0696    2.8270   16.7411 C   0  0  0  0  0  0  0  0  0  0  0  0
  1  2  2  0  0  0
  1  6  1  0  0  0
  2  3  1  0  0  0
  3  4  2  0  0  0
  3  7  1  0  0  0
  4  5  1  0  0  0
  5  6  2  0  0  0
  6 13  1  0  0  0
 13 14  2  0  0  0
 13 15  1  0  0  0
 15 17  1  0  0  0
 17 18  1  0  0  0
  7  8  1  0  0  0
  7  9  2  0  0  0
  7 10  2  0  0  0
 18 19  2  0  0  0
 18 23  1  0  0  0
 19 20  1  0  0  0
 20 21  2  0  0  0
 21 22  1  0  0  0
 22 23  2  0  0  0
 15 16  1  0  0  0
  8 11  1  0  0  0
  8 12  1  0  0  0
M  END
> <minimizedAffinity>
-6.68369

$$$$
1G4O_BSB_A_555


 23 24  0  0  0  0  0  0  0  0999 V2000
   -5.9636    4.5626   15.0600 C   0  0  0  0  0  0  0  0  0  0  0  0
   -6.4943    3.4596   15.7670 C   0  0  0  0  0  0  0  0  0  0  0  0
   -5.5595    2.4385   16.1885 C   0  0  0  0  0  0  0  0  0  0  0  0
   -4.1821    2.5976   15.8800 C   0  0  0  0  0  0  0  0  0  0  0  0
   -3.7051    3.7162   15.1759 C   0  0  0  0  0  0  0  0  0  0  0  0
   -4.5911    4.6932   14.7642 C   0  0  0  0  0  0  0  0  0  0  0  0
   -6.2444    1.0313   17.0800 S   0  0  0  0  0  0  0  0  0  0  0  0
   -7.8348    0.9736   17.1769 N   0  0  0  0  0  0  0  0  0  0  0  0
   -5.5251    1.2399   18.3837 O   0  0  0  0  0  0  0  0  0  0  0  0
   -5.5677   -0.0418   16.3887 O   0  0  0  0  0  0  0  0  0  0  0  0
   -8.1741    1.7887   17.6877 H   0  0  0  0  0  0  0  0  0  0  0  0
   -8.1149    0.1242   17.6673 H   0  0  0  0  0  0  0  0  0  0  0  0
   -4.1176    5.9140   13.9894 C   0  0  0  0  0  0  0  0  0  0  0  0
   -3.4826    5.7630   12.9605 O   0  0  0  0  0  0  0  0  0  0  0  0
   -4.4168    7.1862   14.4560 N   0  0  0  0  0  0  0  0  0  0  0  0
   -4.9314    7.2271   15.2943 H   0  0  0  0  0  0  0  0  0  0  0  0
   -4.0648    8.4700   13.8610 C   0  0  0  0  0  0  0  0  0  0  0  0
   -2.9013    9.1244   14.4017 C   0  0  0  0  0  0  0  0  0  0  0  0
   -2.2444   10.1274   13.5980 C   0  0  0  0  0  0  0  0  0  0  0  0
   -1.0854   10.8218   14.0518 C   0  0  0  0  0  0  0  0  0  0  0  0
   -0.5647   10.5101   15.3384 C   0  0  0  0  0  0  0  0  0  0  0  0
   -1.1913    9.5088   16.1843 C   0  0  0  0  0  0  0  0  0  0  0  0
   -2.3788    8.8023   15.7107 C   0  0  0  0  0  0  0  0  0  0  0  0
  1  2  2  0  0  0
  1  6  1  0  0  0
  2  3  1  0  0  0
  3  4  2  0  0  0
  3  7  1  0  0  0
  4  5  1  0  0  0
  5  6  2  0  0  0
  6 13  1  0  0  0
 13 14  2  0  0  0
 13 15  1  0  0  0
 15 17  1  0  0  0
 17 18  1  0  0  0
  7  8  1  0  0  0
  7  9  2  0  0  0
  7 10  2  0  0  0
 18 19  2  0  0  0
 18 23  1  0  0  0
 19 20  1  0  0  0
 20 21  2  0  0  0
 21 22  1  0  0  0
 22 23  2  0  0  0
 15 16  1  0  0  0
  8 11  1  0  0  0
  8 12  1  0  0  0
M  END
> <minimizedAffinity>
-6.60895

$$$$
1G4O_BSB_A_555


 23 24  0  0  0  0  0  0  0  0999 V2000
   -3.8018    3.2465   15.1690 C   0  0  0  0  0  0  0  0  0  0  0  0
   -4.3775    2.3202   16.0682 C   0  0  0  0  0  0  0  0  0  0  0  0
   -5.7950    2.4516   16.3284 C   0  0  0  0  0  0  0  0  0  0  0  0
   -6.5215    3.4822   15.6743 C   0  0  0  0  0  0  0  0  0  0  0  0
   -5.9010    4.3767   14.7858 C   0  0  0  0  0  0  0  0  0  0  0  0
   -4.5469    4.2627   14.5361 C   0  0  0  0  0  0  0  0  0  0  0  0
   -6.5193    1.2741   17.4829 S   0  0  0  0  0  0  0  0  0  0  0  0
   -5.8328   -0.1639   17.5357 N   0  0  0  0  0  0  0  0  0  0  0  0
   -7.9257    1.2992   16.9519 O   0  0  0  0  0  0  0  0  0  0  0  0
   -6.5046    2.0772   18.6838 O   0  0  0  0  0  0  0  0  0  0  0  0
   -5.9177   -0.6148   16.6248 H   0  0  0  0  0  0  0  0  0  0  0  0
   -6.2952   -0.7357   18.2426 H   0  0  0  0  0  0  0  0  0  0  0  0
   -3.8343    5.2179   13.5902 C   0  0  0  0  0  0  0  0  0  0  0  0
   -4.4869    5.8859   12.8075 O   0  0  0  0  0  0  0  0  0  0  0  0
   -2.4513    5.3251   13.6302 N   0  0  0  0  0  0  0  0  0  0  0  0
   -1.9942    4.7522   14.2875 H   0  0  0  0  0  0  0  0  0  0  0  0
   -1.5900    6.1792   12.8211 C   0  0  0  0  0  0  0  0  0  0  0  0
   -0.6410    5.5052   11.9730 C   0  0  0  0  0  0  0  0  0  0  0  0
   -1.1228    4.4597   11.1022 C   0  0  0  0  0  0  0  0  0  0  0  0
   -0.2540    3.7377   10.2330 C   0  0  0  0  0  0  0  0  0  0  0  0
    1.1309    4.0629   10.2302 C   0  0  0  0  0  0  0  0  0  0  0  0
    1.6630    5.1077   11.0880 C   0  0  0  0  0  0  0  0  0  0  0  0
    0.7649    5.8422   11.9754 C   0  0  0  0  0  0  0  0  0  0  0  0
  1  2  2  0  0  0
  1  6  1  0  0  0
  2  3  1  0  0  0
  3  4  2  0  0  0
  3  7  1  0  0  0
  4  5  1  0  0  0
  5  6  2  0  0  0
  6 13  1  0  0  0
 13 14  2  0  0  0
 13 15  1  0  0  0
 15 17  1  0  0  0
 17 18  1  0  0  0
  7  8  1  0  0  0
  7  9  2  0  0  0
  7 10  2  0  0  0
 18 19  2  0  0  0
 18 23  1  0  0  0
 19 20  1  0  0  0
 20 21  2  0  0  0
 21 22  1  0  0  0
 22 23  2  0  0  0
 15 16  1  0  0  0
  8 11  1  0  0  0
  8 12  1  0  0  0
M  END
> <minimizedAffinity>
-6.54697

$$$$
1G4O_BSB_A_555


 23 24  0  0  0  0  0  0  0  0999 V2000
   -4.7414    2.5386   13.6592 C   0  0  0  0  0  0  0  0  0  0  0  0
   -4.3464    1.5230   12.7590 C   0  0  0  0  0  0  0  0  0  0  0  0
   -3.9683    1.9382   11.4253 C   0  0  0  0  0  0  0  0  0  0  0  0
   -4.0079    3.3200   11.0981 C   0  0  0  0  0  0  0  0  0  0  0  0
   -4.4061    4.2912   12.0323 C   0  0  0  0  0  0  0  0  0  0  0  0
   -4.7747    3.9034   13.3062 C   0  0  0  0  0  0  0  0  0  0  0  0
   -3.4758    0.6375   10.2808 S   0  0  0  0  0  0  0  0  0  0  0  0
   -4.4984    0.3245    9.0983 N   0  0  0  0  0  0  0  0  0  0  0  0
   -3.2927   -0.4661   11.2853 O   0  0  0  0  0  0  0  0  0  0  0  0
   -2.1582    1.1149    9.9295 O   0  0  0  0  0  0  0  0  0  0  0  0
   -5.3818   -0.0017    9.4902 H   0  0  0  0  0  0  0  0  0  0  0  0
   -4.1076   -0.3976    8.4931 H   0  0  0  0  0  0  0  0  0  0  0  0
   -5.2234    4.9217   14.3438 C   0  0  0  0  0  0  0  0  0  0  0  0
   -6.2597    4.7370   14.9574 O   0  0  0  0  0  0  0  0  0  0  0  0
   -4.4482    6.0469   14.5866 N   0  0  0  0  0  0  0  0  0  0  0  0
   -3.6265    6.1272   14.0504 H   0  0  0  0  0  0  0  0  0  0  0  0
   -4.6977    7.1252   15.5359 C   0  0  0  0  0  0  0  0  0  0  0  0
   -4.0192    8.3693   15.2784 C   0  0  0  0  0  0  0  0  0  0  0  0
   -4.7644    9.4405   14.6613 C   0  0  0  0  0  0  0  0  0  0  0  0
   -4.1723   10.7031   14.3668 C   0  0  0  0  0  0  0  0  0  0  0  0
   -2.8027   10.9059   14.6933 C   0  0  0  0  0  0  0  0  0  0  0  0
   -2.0117    9.8584   15.3159 C   0  0  0  0  0  0  0  0  0  0  0  0
   -2.6271    8.5677   15.6141 C   0  0  0  0  0  0  0  0  0  0  0  0
  1  2  2  0  0  0
  1  6  1  0  0  0
  2  3  1  0  0  0
  3  4  2  0  0  0
  3  7  1  0  0  0
  4  5  1  0  0  0
  5  6  2  0  0  0
  6 13  1  0  0  0
 13 14  2  0  0  0
 13 15  1  0  0  0
 15 17  1  0  0  0
 17 18  1  0  0  0
  7  8  1  0  0  0
  7  9  2  0  0  0
  7 10  2  0  0  0
 18 19  2  0  0  0
 18 23  1  0  0  0
 19 20  1  0  0  0
 20 21  2  0  0  0
 21 22  1  0  0  0
 22 23  2  0  0  0
 15 16  1  0  0  0
  8 11  1  0  0  0
  8 12  1  0  0  0
M  END
> <minimizedAffinity>
-6.37518

$$$$
1G4O_BSB_A_555


 23 24  0  0  0  0  0  0  0  0999 V2000
   -5.0243    2.7465   12.6646 C   0  0  0  0  0  0  0  0  0  0  0  0
   -4.4730    1.7733   11.8003 C   0  0  0  0  0  0  0  0  0  0  0  0
   -4.0555    0.5239   12.3995 C   0  0  0  0  0  0  0  0  0  0  0  0
   -4.2233    0.3421   13.7982 C   0  0  0  0  0  0  0  0  0  0  0  0
   -4.7802    1.3420   14.6135 C   0  0  0  0  0  0  0  0  0  0  0  0
   -5.1760    2.5404   14.0512 C   0  0  0  0  0  0  0  0  0  0  0  0
   -3.3448   -0.7074   11.2936 S   0  0  0  0  0  0  0  0  0  0  0  0
   -3.5677   -2.2304   11.7095 N   0  0  0  0  0  0  0  0  0  0  0  0
   -1.9203   -0.2284   11.3355 O   0  0  0  0  0  0  0  0  0  0  0  0
   -3.9076   -0.2569   10.0415 O   0  0  0  0  0  0  0  0  0  0  0  0
   -3.1195   -2.4064   12.6087 H   0  0  0  0  0  0  0  0  0  0  0  0
   -3.1590   -2.8396   11.0008 H   0  0  0  0  0  0  0  0  0  0  0  0
   -5.7724    3.6532   14.9003 C   0  0  0  0  0  0  0  0  0  0  0  0
   -6.4154    3.3699   15.8958 O   0  0  0  0  0  0  0  0  0  0  0  0
   -5.5752    4.9784   14.5386 N   0  0  0  0  0  0  0  0  0  0  0  0
   -5.0470    5.1273   13.7213 H   0  0  0  0  0  0  0  0  0  0  0  0
   -6.0520    6.1779   15.2167 C   0  0  0  0  0  0  0  0  0  0  0  0
   -6.2197    7.3491   14.3953 C   0  0  0  0  0  0  0  0  0  0  0  0
   -7.3524    7.4023   13.5021 C   0  0  0  0  0  0  0  0  0  0  0  0
   -7.5936    8.5197   12.6509 C   0  0  0  0  0  0  0  0  0  0  0  0
   -6.6842    9.6130   12.6877 C   0  0  0  0  0  0  0  0  0  0  0  0
   -5.5304    9.6060   13.5705 C   0  0  0  0  0  0  0  0  0  0  0  0
   -5.2913    8.4564   14.4393 C   0  0  0  0  0  0  0  0  0  0  0  0
  1  2  2  0  0  0
  1  6  1  0  0  0
  2  3  1  0  0  0
  3  4  2  0  0  0
  3  7  1  0  0  0
  4  5  1  0  0  0
  5  6  2  0  0  0
  6 13  1  0  0  0
 13 14  2  0  0  0
 13 15  1  0  0  0
 15 17  1  0  0  0
 17 18  1  0  0  0
  7  8  1  0  0  0
  7  9  2  0  0  0
  7 10  2  0  0  0
 18 19  2  0  0  0
 18 23  1  0  0  0
 19 20  1  0  0  0
 20 21  2  0  0  0
 21 22  1  0  0  0
 22 23  2  0  0  0
 15 16  1  0  0  0
  8 11  1  0  0  0
  8 12  1  0  0  0
M  END
> <minimizedAffinity>
-6.33402

$$$$
1G4O_BSB_A_555


 23 24  0  0  0  0  0  0  0  0999 V2000
   -3.7019    3.5744   15.2447 C   0  0  0  0  0  0  0  0  0  0  0  0
   -4.1513    2.4450   15.9661 C   0  0  0  0  0  0  0  0  0  0  0  0
   -5.5691    2.3655   16.2451 C   0  0  0  0  0  0  0  0  0  0  0  0
   -6.4201    3.4048   15.7832 C   0  0  0  0  0  0  0  0  0  0  0  0
   -5.9223    4.5064   15.0668 C   0  0  0  0  0  0  0  0  0  0  0  0
   -4.5693    4.5938   14.8011 C   0  0  0  0  0  0  0  0  0  0  0  0
   -6.1328    0.9286   17.1733 S   0  0  0  0  0  0  0  0  0  0  0  0
   -5.7812    0.9205   18.7284 N   0  0  0  0  0  0  0  0  0  0  0  0
   -5.4522   -0.1309   16.3519 O   0  0  0  0  0  0  0  0  0  0  0  0
   -7.5267    0.9305   16.7932 O   0  0  0  0  0  0  0  0  0  0  0  0
   -4.7682    0.9199   18.8480 H   0  0  0  0  0  0  0  0  0  0  0  0
   -6.1752    0.0854   19.1618 H   0  0  0  0  0  0  0  0  0  0  0  0
   -3.9881    5.7754   14.0390 C   0  0  0  0  0  0  0  0  0  0  0  0
   -3.5196    5.6014   12.9277 O   0  0  0  0  0  0  0  0  0  0  0  0
   -4.0013    7.0396   14.6113 N   0  0  0  0  0  0  0  0  0  0  0  0
   -4.3946    7.1002   15.5118 H   0  0  0  0  0  0  0  0  0  0  0  0
   -3.5059    8.2894   14.0469 C   0  0  0  0  0  0  0  0  0  0  0  0
   -4.4789    9.1171   13.3816 C   0  0  0  0  0  0  0  0  0  0  0  0
   -5.7980    8.5762   13.1559 C   0  0  0  0  0  0  0  0  0  0  0  0
   -6.8210    9.3229   12.5021 C   0  0  0  0  0  0  0  0  0  0  0  0
   -6.5245   10.6421   12.0599 C   0  0  0  0  0  0  0  0  0  0  0  0
   -5.2119   11.2301   12.2649 C   0  0  0  0  0  0  0  0  0  0  0  0
   -4.1698   10.4572   12.9360 C   0  0  0  0  0  0  0  0  0  0  0  0
  1  2  2  0  0  0
  1  6  1  0  0  0
  2  3  1  0  0  0
  3  4  2  0  0  0
  3  7  1  0  0  0
  4  5  1  0  0  0
  5  6  2  0  0  0
  6 13  1  0  0  0
 13 14  2  0  0  0
 13 15  1  0  0  0
 15 17  1  0  0  0
 17 18  1  0  0  0
  7  8  1  0  0  0
  7  9  2  0  0  0
  7 10  2  0  0  0
 18 19  2  0  0  0
 18 23  1  0  0  0
 19 20  1  0  0  0
 20 21  2  0  0  0
 21 22  1  0  0  0
 22 23  2  0  0  0
 15 16  1  0  0  0
  8 11  1  0  0  0
  8 12  1  0  0  0
M  END
> <minimizedAffinity>
-6.33202

$$$$
