3VBD_0FZ_A_2002


 24 26  0  0  0  0  0  0  0  0999 V2000
   -1.2591    8.3453   13.6880 C   0  0  0  0  0  0  0  0  0  0  0  0
   -1.9371    8.1588   12.5017 C   0  0  0  0  0  0  0  0  0  0  0  0
   -1.7467    7.7264   14.8369 C   0  0  0  0  0  0  0  0  0  0  0  0
   -2.8290    6.9161   14.6534 C   0  0  0  0  0  0  0  0  0  0  0  0
   -3.5075    6.5905   13.4796 C   0  0  0  0  0  0  0  0  0  0  0  0
   -3.0397    7.3176   12.3699 C   0  0  0  0  0  0  0  0  0  0  0  0
   -3.6636    7.2767   11.1283 C   0  0  0  0  0  0  0  0  0  0  0  0
   -5.1235    6.8124   11.3224 C   0  0  0  0  0  0  0  0  0  0  0  0
   -5.0676    5.5190   12.0710 N   0  0  0  0  0  0  0  0  0  0  0  0
   -4.4548    5.5770   13.2991 C   0  0  0  0  0  0  0  0  0  0  0  0
   -4.8755    4.5544   14.1395 C   0  0  0  0  0  0  0  0  0  0  0  0
   -6.0772    4.5777   14.8357 C   0  0  0  0  0  0  0  0  0  0  0  0
   -6.4957    3.5557   15.6717 C   0  0  0  0  0  0  0  0  0  0  0  0
   -4.0896    3.4035   14.3491 C   0  0  0  0  0  0  0  0  0  0  0  0
   -4.4951    2.3578   15.2051 C   0  0  0  0  0  0  0  0  0  0  0  0
   -5.7113    2.4326   15.9016 C   0  0  0  0  0  0  0  0  0  0  0  0
   -6.2019    1.1626   17.0845 S   0  0  0  0  0  0  0  0  0  0  0  0
   -5.9976    1.7976   18.4015 O   0  0  0  0  0  0  0  0  0  0  0  0
   -7.6771    0.9600   16.7679 O   0  0  0  0  0  0  0  0  0  0  0  0
   -5.3824   -0.0805   16.9711 N   0  0  0  0  0  0  0  0  0  0  0  0
   -5.5349   -0.5060   16.0567 H   0  0  0  0  0  0  0  0  0  0  0  0
   -5.6574   -0.7369   17.7017 H   0  0  0  0  0  0  0  0  0  0  0  0
   -0.1555   10.0123   14.8252 C   0  0  0  0  0  0  0  0  0  0  0  0
   -0.1089    9.0340   13.7874 O   0  0  0  0  0  0  0  0  0  0  0  0
 23 24  1  0  0  0
 24  1  1  0  0  0
  1  3  2  0  0  0
  1  2  1  0  0  0
  3  4  1  0  0  0
  2  6  2  0  0  0
  4  5  2  0  0  0
  6  7  1  0  0  0
  6  5  1  0  0  0
  7  8  1  0  0  0
  5 10  1  0  0  0
  8  9  1  0  0  0
 10  9  2  0  0  0
 10 11  1  0  0  0
 11 14  2  0  0  0
 11 12  1  0  0  0
 14 15  1  0  0  0
 12 13  2  0  0  0
 15 16  2  0  0  0
 13 16  1  0  0  0
 16 17  1  0  0  0
 20 17  1  0  0  0
 19 17  2  0  0  0
 17 18  2  0  0  0
 20 21  1  0  0  0
 20 22  1  0  0  0
M  END
> <minimizedAffinity>
-8.13204

$$$$
3VBD_0FZ_A_2002


 24 26  0  0  0  0  0  0  0  0999 V2000
   -5.8769    8.5275   11.0873 C   0  0  0  0  0  0  0  0  0  0  0  0
   -4.5097    8.4347   11.2424 C   0  0  0  0  0  0  0  0  0  0  0  0
   -6.6681    7.4623   11.5114 C   0  0  0  0  0  0  0  0  0  0  0  0
   -6.0002    6.4413   12.1225 C   0  0  0  0  0  0  0  0  0  0  0  0
   -4.6423    6.3146   12.4128 C   0  0  0  0  0  0  0  0  0  0  0  0
   -3.8782    7.3667   11.8759 C   0  0  0  0  0  0  0  0  0  0  0  0
   -2.4883    7.3748   11.9026 C   0  0  0  0  0  0  0  0  0  0  0  0
   -1.9876    5.9243   12.0751 C   0  0  0  0  0  0  0  0  0  0  0  0
   -2.6636    5.3776   13.2918 N   0  0  0  0  0  0  0  0  0  0  0  0
   -4.0366    5.3693   13.2473 C   0  0  0  0  0  0  0  0  0  0  0  0
   -4.5794    4.4206   14.1043 C   0  0  0  0  0  0  0  0  0  0  0  0
   -5.8382    4.5362   14.6799 C   0  0  0  0  0  0  0  0  0  0  0  0
   -6.3783    3.5877   15.5325 C   0  0  0  0  0  0  0  0  0  0  0  0
   -3.8693    3.2555   14.4573 C   0  0  0  0  0  0  0  0  0  0  0  0
   -4.3995    2.2842   15.3326 C   0  0  0  0  0  0  0  0  0  0  0  0
   -5.6704    2.4518   15.9040 C   0  0  0  0  0  0  0  0  0  0  0  0
   -6.3257    1.2812   17.1095 S   0  0  0  0  0  0  0  0  0  0  0  0
   -6.1716    1.9726   18.4048 O   0  0  0  0  0  0  0  0  0  0  0  0
   -7.7856    1.1553   16.6967 O   0  0  0  0  0  0  0  0  0  0  0  0
   -5.5852   -0.0153   17.1179 N   0  0  0  0  0  0  0  0  0  0  0  0
   -5.7019   -0.4794   16.2171 H   0  0  0  0  0  0  0  0  0  0  0  0
   -5.9535   -0.6125   17.8582 H   0  0  0  0  0  0  0  0  0  0  0  0
   -5.5799   10.6527   10.2592 C   0  0  0  0  0  0  0  0  0  0  0  0
   -6.4996    9.6212   10.6146 O   0  0  0  0  0  0  0  0  0  0  0  0
 23 24  1  0  0  0
 24  1  1  0  0  0
  1  3  2  0  0  0
  1  2  1  0  0  0
  3  4  1  0  0  0
  2  6  2  0  0  0
  4  5  2  0  0  0
  6  7  1  0  0  0
  6  5  1  0  0  0
  7  8  1  0  0  0
  5 10  1  0  0  0
  8  9  1  0  0  0
 10  9  2  0  0  0
 10 11  1  0  0  0
 11 14  2  0  0  0
 11 12  1  0  0  0
 14 15  1  0  0  0
 12 13  2  0  0  0
 15 16  2  0  0  0
 13 16  1  0  0  0
 16 17  1  0  0  0
 20 17  1  0  0  0
 19 17  2  0  0  0
 17 18  2  0  0  0
 20 21  1  0  0  0
 20 22  1  0  0  0
M  END
> <minimizedAffinity>
-7.45550

$$$$
3VBD_0FZ_A_2002


 24 26  0  0  0  0  0  0  0  0999 V2000
   -3.3745    5.1796    9.2780 C   0  0  0  0  0  0  0  0  0  0  0  0
   -3.1763    6.3039   10.0515 C   0  0  0  0  0  0  0  0  0  0  0  0
   -3.5800    3.9596    9.9184 C   0  0  0  0  0  0  0  0  0  0  0  0
   -3.6420    4.0143   11.2804 C   0  0  0  0  0  0  0  0  0  0  0  0
   -3.5578    5.1158   12.1311 C   0  0  0  0  0  0  0  0  0  0  0  0
   -3.2510    6.3035   11.4426 C   0  0  0  0  0  0  0  0  0  0  0  0
   -2.9645    7.4971   12.0952 C   0  0  0  0  0  0  0  0  0  0  0  0
   -2.5181    7.1779   13.5385 C   0  0  0  0  0  0  0  0  0  0  0  0
   -3.5972    6.3404   14.1473 N   0  0  0  0  0  0  0  0  0  0  0  0
   -3.8636    5.1609   13.4955 C   0  0  0  0  0  0  0  0  0  0  0  0
   -4.4479    4.2222   14.3360 C   0  0  0  0  0  0  0  0  0  0  0  0
   -5.7712    4.2832   14.7537 C   0  0  0  0  0  0  0  0  0  0  0  0
   -6.3523    3.3448   15.5903 C   0  0  0  0  0  0  0  0  0  0  0  0
   -3.7173    3.1252   14.8352 C   0  0  0  0  0  0  0  0  0  0  0  0
   -4.2899    2.1657   15.6966 C   0  0  0  0  0  0  0  0  0  0  0  0
   -5.6278    2.2776   16.1058 C   0  0  0  0  0  0  0  0  0  0  0  0
   -6.3522    1.1277   17.2915 S   0  0  0  0  0  0  0  0  0  0  0  0
   -6.2337    1.8238   18.5880 O   0  0  0  0  0  0  0  0  0  0  0  0
   -7.7975    1.0284   16.8238 O   0  0  0  0  0  0  0  0  0  0  0  0
   -5.6387   -0.1833   17.3352 N   0  0  0  0  0  0  0  0  0  0  0  0
   -5.7303   -0.6504   16.4331 H   0  0  0  0  0  0  0  0  0  0  0  0
   -6.0470   -0.7685   18.0641 H   0  0  0  0  0  0  0  0  0  0  0  0
   -4.2208    6.3095    7.4622 C   0  0  0  0  0  0  0  0  0  0  0  0
   -3.4534    5.2038    7.9362 O   0  0  0  0  0  0  0  0  0  0  0  0
 23 24  1  0  0  0
 24  1  1  0  0  0
  1  3  2  0  0  0
  1  2  1  0  0  0
  3  4  1  0  0  0
  2  6  2  0  0  0
  4  5  2  0  0  0
  6  7  1  0  0  0
  6  5  1  0  0  0
  7  8  1  0  0  0
  5 10  1  0  0  0
  8  9  1  0  0  0
 10  9  2  0  0  0
 10 11  1  0  0  0
 11 14  2  0  0  0
 11 12  1  0  0  0
 14 15  1  0  0  0
 12 13  2  0  0  0
 15 16  2  0  0  0
 13 16  1  0  0  0
 16 17  1  0  0  0
 20 17  1  0  0  0
 19 17  2  0  0  0
 17 18  2  0  0  0
 20 21  1  0  0  0
 20 22  1  0  0  0
M  END
> <minimizedAffinity>
-7.34135

$$$$
3VBD_0FZ_A_2002


 24 26  0  0  0  0  0  0  0  0999 V2000
   -4.1144    3.1416   14.8791 C   0  0  0  0  0  0  0  0  0  0  0  0
   -3.0735    4.0379   14.7569 C   0  0  0  0  0  0  0  0  0  0  0  0
   -5.3366    3.4576   14.2899 C   0  0  0  0  0  0  0  0  0  0  0  0
   -5.3590    4.6156   13.5684 C   0  0  0  0  0  0  0  0  0  0  0  0
   -4.3311    5.5210   13.3076 C   0  0  0  0  0  0  0  0  0  0  0  0
   -3.1506    5.2086   14.0059 C   0  0  0  0  0  0  0  0  0  0  0  0
   -2.0446    6.0506   14.0252 C   0  0  0  0  0  0  0  0  0  0  0  0
   -2.5055    7.4821   13.6748 C   0  0  0  0  0  0  0  0  0  0  0  0
   -3.2383    7.3920   12.3743 N   0  0  0  0  0  0  0  0  0  0  0  0
   -4.3328    6.5620   12.3731 C   0  0  0  0  0  0  0  0  0  0  0  0
   -5.2417    6.9007   11.3789 C   0  0  0  0  0  0  0  0  0  0  0  0
   -5.0605    6.5954   10.0360 C   0  0  0  0  0  0  0  0  0  0  0  0
   -5.9693    6.9323    9.0467 C   0  0  0  0  0  0  0  0  0  0  0  0
   -6.4309    7.5967   11.6748 C   0  0  0  0  0  0  0  0  0  0  0  0
   -7.3626    7.9574   10.6785 C   0  0  0  0  0  0  0  0  0  0  0  0
   -7.1290    7.6421    9.3310 C   0  0  0  0  0  0  0  0  0  0  0  0
   -8.2484    8.1866    8.0259 S   0  0  0  0  0  0  0  0  0  0  0  0
   -8.1146    9.6568    8.0254 O   0  0  0  0  0  0  0  0  0  0  0  0
   -7.6441    7.5552    6.7794 O   0  0  0  0  0  0  0  0  0  0  0  0
   -9.6660    7.7911    8.2780 N   0  0  0  0  0  0  0  0  0  0  0  0
   -9.7409    6.7738    8.2751 H   0  0  0  0  0  0  0  0  0  0  0  0
  -10.2622    8.1779    7.5464 H   0  0  0  0  0  0  0  0  0  0  0  0
   -5.2054    1.5423   16.1209 C   0  0  0  0  0  0  0  0  0  0  0  0
   -3.9976    1.9421   15.4747 O   0  0  0  0  0  0  0  0  0  0  0  0
 23 24  1  0  0  0
 24  1  1  0  0  0
  1  3  2  0  0  0
  1  2  1  0  0  0
  3  4  1  0  0  0
  2  6  2  0  0  0
  4  5  2  0  0  0
  6  7  1  0  0  0
  6  5  1  0  0  0
  7  8  1  0  0  0
  5 10  1  0  0  0
  8  9  1  0  0  0
 10  9  2  0  0  0
 10 11  1  0  0  0
 11 14  2  0  0  0
 11 12  1  0  0  0
 14 15  1  0  0  0
 12 13  2  0  0  0
 15 16  2  0  0  0
 13 16  1  0  0  0
 16 17  1  0  0  0
 20 17  1  0  0  0
 19 17  2  0  0  0
 17 18  2  0  0  0
 20 21  1  0  0  0
 20 22  1  0  0  0
M  END
> <minimizedAffinity>
-7.24052

$$$$
3VBD_0FZ_A_2002


 24 26  0  0  0  0  0  0  0  0999 V2000
   -1.3749    8.2876   13.9649 C   0  0  0  0  0  0  0  0  0  0  0  0
   -1.9367    7.1304   14.4619 C   0  0  0  0  0  0  0  0  0  0  0  0
   -1.8094    8.7599   12.7284 C   0  0  0  0  0  0  0  0  0  0  0  0
   -2.8266    8.0544   12.1545 C   0  0  0  0  0  0  0  0  0  0  0  0
   -3.5190    6.9430   12.6335 C   0  0  0  0  0  0  0  0  0  0  0  0
   -2.9760    6.4483   13.8332 C   0  0  0  0  0  0  0  0  0  0  0  0
   -3.4001    5.2593   14.4153 C   0  0  0  0  0  0  0  0  0  0  0  0
   -4.0739    4.3898   13.3316 C   0  0  0  0  0  0  0  0  0  0  0  0
   -5.1409    5.2311   12.7069 N   0  0  0  0  0  0  0  0  0  0  0  0
   -4.7053    6.3990   12.1295 C   0  0  0  0  0  0  0  0  0  0  0  0
   -5.5812    6.8550   11.1529 C   0  0  0  0  0  0  0  0  0  0  0  0
   -5.4340    6.5789    9.7995 C   0  0  0  0  0  0  0  0  0  0  0  0
   -6.3100    7.0330    8.8276 C   0  0  0  0  0  0  0  0  0  0  0  0
   -6.6983    7.6500   11.4790 C   0  0  0  0  0  0  0  0  0  0  0  0
   -7.5948    8.1300   10.5011 C   0  0  0  0  0  0  0  0  0  0  0  0
   -7.3964    7.8392    9.1424 C   0  0  0  0  0  0  0  0  0  0  0  0
   -8.4635    8.5302    7.8631 S   0  0  0  0  0  0  0  0  0  0  0  0
   -8.3826    9.9890    8.0745 O   0  0  0  0  0  0  0  0  0  0  0  0
   -7.7714    8.0976    6.5781 O   0  0  0  0  0  0  0  0  0  0  0  0
   -9.8775    8.0635    7.9755 N   0  0  0  0  0  0  0  0  0  0  0  0
   -9.9155    7.0551    7.8271 H   0  0  0  0  0  0  0  0  0  0  0  0
  -10.4473    8.5326    7.2715 H   0  0  0  0  0  0  0  0  0  0  0  0
   -0.7023   10.4288   14.4679 C   0  0  0  0  0  0  0  0  0  0  0  0
   -0.4799    9.0298   14.6397 O   0  0  0  0  0  0  0  0  0  0  0  0
 23 24  1  0  0  0
 24  1  1  0  0  0
  1  3  2  0  0  0
  1  2  1  0  0  0
  3  4  1  0  0  0
  2  6  2  0  0  0
  4  5  2  0  0  0
  6  7  1  0  0  0
  6  5  1  0  0  0
  7  8  1  0  0  0
  5 10  1  0  0  0
  8  9  1  0  0  0
 10  9  2  0  0  0
 10 11  1  0  0  0
 11 14  2  0  0  0
 11 12  1  0  0  0
 14 15  1  0  0  0
 12 13  2  0  0  0
 15 16  2  0  0  0
 13 16  1  0  0  0
 16 17  1  0  0  0
 20 17  1  0  0  0
 19 17  2  0  0  0
 17 18  2  0  0  0
 20 21  1  0  0  0
 20 22  1  0  0  0
M  END
> <minimizedAffinity>
-6.91971

$$$$
3VBD_0FZ_A_2002


 24 26  0  0  0  0  0  0  0  0999 V2000
   -7.0244    8.5274    9.2140 C   0  0  0  0  0  0  0  0  0  0  0  0
   -5.9534    9.2201    9.7382 C   0  0  0  0  0  0  0  0  0  0  0  0
   -7.1153    7.1589    9.4586 C   0  0  0  0  0  0  0  0  0  0  0  0
   -6.1525    6.6432   10.2763 C   0  0  0  0  0  0  0  0  0  0  0  0
   -5.1021    7.2868   10.9296 C   0  0  0  0  0  0  0  0  0  0  0  0
   -4.9965    8.6426   10.5698 C   0  0  0  0  0  0  0  0  0  0  0  0
   -3.9355    9.4457   10.9719 C   0  0  0  0  0  0  0  0  0  0  0  0
   -2.7414    8.5398   11.3434 C   0  0  0  0  0  0  0  0  0  0  0  0
   -3.2431    7.5605   12.3563 N   0  0  0  0  0  0  0  0  0  0  0  0
   -4.2867    6.7692   11.9417 C   0  0  0  0  0  0  0  0  0  0  0  0
   -4.3611    5.5853   12.6641 C   0  0  0  0  0  0  0  0  0  0  0  0
   -4.9936    5.4755   13.8959 C   0  0  0  0  0  0  0  0  0  0  0  0
   -5.0684    4.2933   14.6136 C   0  0  0  0  0  0  0  0  0  0  0  0
   -3.7816    4.3932   12.1854 C   0  0  0  0  0  0  0  0  0  0  0  0
   -3.8389    3.1826   12.9078 C   0  0  0  0  0  0  0  0  0  0  0  0
   -4.4749    3.1231   14.1575 C   0  0  0  0  0  0  0  0  0  0  0  0
   -4.4674    1.6175   15.1504 S   0  0  0  0  0  0  0  0  0  0  0  0
   -5.7814    1.6223   15.8235 O   0  0  0  0  0  0  0  0  0  0  0  0
   -4.3657    0.5216   14.0986 O   0  0  0  0  0  0  0  0  0  0  0  0
   -3.3648    1.5944   16.1570 N   0  0  0  0  0  0  0  0  0  0  0  0
   -2.4653    1.5914   15.6760 H   0  0  0  0  0  0  0  0  0  0  0  0
   -3.4461    0.7553   16.7312 H   0  0  0  0  0  0  0  0  0  0  0  0
   -8.9707    8.1587    8.0451 C   0  0  0  0  0  0  0  0  0  0  0  0
   -8.0292    9.1110    8.5380 O   0  0  0  0  0  0  0  0  0  0  0  0
 23 24  1  0  0  0
 24  1  1  0  0  0
  1  3  2  0  0  0
  1  2  1  0  0  0
  3  4  1  0  0  0
  2  6  2  0  0  0
  4  5  2  0  0  0
  6  7  1  0  0  0
  6  5  1  0  0  0
  7  8  1  0  0  0
  5 10  1  0  0  0
  8  9  1  0  0  0
 10  9  2  0  0  0
 10 11  1  0  0  0
 11 14  2  0  0  0
 11 12  1  0  0  0
 14 15  1  0  0  0
 12 13  2  0  0  0
 15 16  2  0  0  0
 13 16  1  0  0  0
 16 17  1  0  0  0
 20 17  1  0  0  0
 19 17  2  0  0  0
 17 18  2  0  0  0
 20 21  1  0  0  0
 20 22  1  0  0  0
M  END
> <minimizedAffinity>
-6.91054

$$$$
3VBD_0FZ_A_2002


 24 26  0  0  0  0  0  0  0  0999 V2000
   -0.3678   10.3254   14.7645 C   0  0  0  0  0  0  0  0  0  0  0  0
   -0.7656   10.3083   13.4442 C   0  0  0  0  0  0  0  0  0  0  0  0
   -0.9319    9.4011   15.6410 C   0  0  0  0  0  0  0  0  0  0  0  0
   -1.7857    8.4998   15.0748 C   0  0  0  0  0  0  0  0  0  0  0  0
   -2.1596    8.3459   13.7404 C   0  0  0  0  0  0  0  0  0  0  0  0
   -1.6426    9.3628   12.9173 C   0  0  0  0  0  0  0  0  0  0  0  0
   -2.0060    9.5064   11.5831 C   0  0  0  0  0  0  0  0  0  0  0  0
   -3.3599    8.7984   11.3595 C   0  0  0  0  0  0  0  0  0  0  0  0
   -3.1968    7.3940   11.8471 N   0  0  0  0  0  0  0  0  0  0  0  0
   -2.8448    7.2684   13.1690 C   0  0  0  0  0  0  0  0  0  0  0  0
   -3.2099    6.0336   13.6896 C   0  0  0  0  0  0  0  0  0  0  0  0
   -2.2965    5.0486   14.0434 C   0  0  0  0  0  0  0  0  0  0  0  0
   -2.6628    3.8188   14.5645 C   0  0  0  0  0  0  0  0  0  0  0  0
   -4.5617    5.6906   13.8920 C   0  0  0  0  0  0  0  0  0  0  0  0
   -4.9535    4.4387   14.4116 C   0  0  0  0  0  0  0  0  0  0  0  0
   -3.9952    3.4672   14.7396 C   0  0  0  0  0  0  0  0  0  0  0  0
   -4.4729    1.8213   15.3016 S   0  0  0  0  0  0  0  0  0  0  0  0
   -3.4970    1.5049   16.3631 O   0  0  0  0  0  0  0  0  0  0  0  0
   -5.8717    2.0486   15.8576 O   0  0  0  0  0  0  0  0  0  0  0  0
   -4.4124    0.7993   14.2147 N   0  0  0  0  0  0  0  0  0  0  0  0
   -5.0918    1.0325   13.4905 H   0  0  0  0  0  0  0  0  0  0  0  0
   -4.6283   -0.1201   14.6001 H   0  0  0  0  0  0  0  0  0  0  0  0
    1.7811   11.0861   14.4580 C   0  0  0  0  0  0  0  0  0  0  0  0
    0.5903   11.1382   15.2426 O   0  0  0  0  0  0  0  0  0  0  0  0
 23 24  1  0  0  0
 24  1  1  0  0  0
  1  3  2  0  0  0
  1  2  1  0  0  0
  3  4  1  0  0  0
  2  6  2  0  0  0
  4  5  2  0  0  0
  6  7  1  0  0  0
  6  5  1  0  0  0
  7  8  1  0  0  0
  5 10  1  0  0  0
  8  9  1  0  0  0
 10  9  2  0  0  0
 10 11  1  0  0  0
 11 14  2  0  0  0
 11 12  1  0  0  0
 14 15  1  0  0  0
 12 13  2  0  0  0
 15 16  2  0  0  0
 13 16  1  0  0  0
 16 17  1  0  0  0
 20 17  1  0  0  0
 19 17  2  0  0  0
 17 18  2  0  0  0
 20 21  1  0  0  0
 20 22  1  0  0  0
M  END
> <minimizedAffinity>
-6.86740

$$$$
3VBD_0FZ_A_2002


 24 26  0  0  0  0  0  0  0  0999 V2000
   -1.6278    7.7133   12.6243 C   0  0  0  0  0  0  0  0  0  0  0  0
   -1.7070    6.8875   11.5227 C   0  0  0  0  0  0  0  0  0  0  0  0
   -2.4562    7.4508   13.7131 C   0  0  0  0  0  0  0  0  0  0  0  0
   -3.2272    6.3299   13.6078 C   0  0  0  0  0  0  0  0  0  0  0  0
   -3.2915    5.3878   12.5819 C   0  0  0  0  0  0  0  0  0  0  0  0
   -2.5134    5.7528   11.4684 C   0  0  0  0  0  0  0  0  0  0  0  0
   -2.5425    5.0502   10.2691 C   0  0  0  0  0  0  0  0  0  0  0  0
   -3.8617    4.2509   10.1952 C   0  0  0  0  0  0  0  0  0  0  0  0
   -3.9353    3.4260   11.4404 N   0  0  0  0  0  0  0  0  0  0  0  0
   -3.9128    4.1348   12.6169 C   0  0  0  0  0  0  0  0  0  0  0  0
   -4.4916    3.4268   13.6622 C   0  0  0  0  0  0  0  0  0  0  0  0
   -5.5968    3.8748   14.3744 C   0  0  0  0  0  0  0  0  0  0  0  0
   -6.1737    3.1661   15.4151 C   0  0  0  0  0  0  0  0  0  0  0  0
   -3.9796    2.1823   14.0809 C   0  0  0  0  0  0  0  0  0  0  0  0
   -4.5478    1.4517   15.1458 C   0  0  0  0  0  0  0  0  0  0  0  0
   -5.6551    1.9523   15.8480 C   0  0  0  0  0  0  0  0  0  0  0  0
   -6.3321    1.0921   17.2814 S   0  0  0  0  0  0  0  0  0  0  0  0
   -5.5923   -0.1849   17.3187 O   0  0  0  0  0  0  0  0  0  0  0  0
   -5.9513    2.0096   18.4350 O   0  0  0  0  0  0  0  0  0  0  0  0
   -7.7998    0.8425   17.1657 N   0  0  0  0  0  0  0  0  0  0  0  0
   -8.2953    1.7338   17.1413 H   0  0  0  0  0  0  0  0  0  0  0  0
   -8.1166    0.2993   17.9688 H   0  0  0  0  0  0  0  0  0  0  0  0
   -0.3914    8.9743   14.0978 C   0  0  0  0  0  0  0  0  0  0  0  0
   -0.7426    8.7186   12.7386 O   0  0  0  0  0  0  0  0  0  0  0  0
 23 24  1  0  0  0
 24  1  1  0  0  0
  1  3  2  0  0  0
  1  2  1  0  0  0
  3  4  1  0  0  0
  2  6  2  0  0  0
  4  5  2  0  0  0
  6  7  1  0  0  0
  6  5  1  0  0  0
  7  8  1  0  0  0
  5 10  1  0  0  0
  8  9  1  0  0  0
 10  9  2  0  0  0
 10 11  1  0  0  0
 11 14  2  0  0  0
 11 12  1  0  0  0
 14 15  1  0  0  0
 12 13  2  0  0  0
 15 16  2  0  0  0
 13 16  1  0  0  0
 16 17  1  0  0  0
 20 17  1  0  0  0
 19 17  2  0  0  0
 17 18  2  0  0  0
 20 21  1  0  0  0
 20 22  1  0  0  0
M  END
> <minimizedAffinity>
-6.59238

$$$$
3VBD_0FZ_A_2002


 24 26  0  0  0  0  0  0  0  0999 V2000
   -5.0518    1.0683   15.5162 C   0  0  0  0  0  0  0  0  0  0  0  0
   -5.5719    2.3279   15.7277 C   0  0  0  0  0  0  0  0  0  0  0  0
   -4.4162    0.8061   14.3046 C   0  0  0  0  0  0  0  0  0  0  0  0
   -4.3022    1.8706   13.4586 C   0  0  0  0  0  0  0  0  0  0  0  0
   -4.7032    3.1943   13.6357 C   0  0  0  0  0  0  0  0  0  0  0  0
   -5.4260    3.3814   14.8279 C   0  0  0  0  0  0  0  0  0  0  0  0
   -6.0588    4.5785   15.1424 C   0  0  0  0  0  0  0  0  0  0  0  0
   -6.2939    5.3720   13.8387 C   0  0  0  0  0  0  0  0  0  0  0  0
   -4.9657    5.4905   13.1616 N   0  0  0  0  0  0  0  0  0  0  0  0
   -4.3565    4.2992   12.8508 C   0  0  0  0  0  0  0  0  0  0  0  0
   -3.4476    4.4356   11.8094 C   0  0  0  0  0  0  0  0  0  0  0  0
   -2.0736    4.5207   11.9952 C   0  0  0  0  0  0  0  0  0  0  0  0
   -1.1690    4.6546   10.9550 C   0  0  0  0  0  0  0  0  0  0  0  0
   -3.8710    4.5036   10.4669 C   0  0  0  0  0  0  0  0  0  0  0  0
   -2.9645    4.6506    9.3958 C   0  0  0  0  0  0  0  0  0  0  0  0
   -1.5847    4.7493    9.6330 C   0  0  0  0  0  0  0  0  0  0  0  0
   -0.4149    5.0472    8.2929 S   0  0  0  0  0  0  0  0  0  0  0  0
   -0.4093    6.5154    8.1383 O   0  0  0  0  0  0  0  0  0  0  0  0
    0.8948    4.5260    8.8678 O   0  0  0  0  0  0  0  0  0  0  0  0
   -0.8196    4.3887    7.0153 N   0  0  0  0  0  0  0  0  0  0  0  0
   -0.8183    3.3763    7.1394 H   0  0  0  0  0  0  0  0  0  0  0  0
   -0.1609    4.6419    6.2788 H   0  0  0  0  0  0  0  0  0  0  0  0
   -5.9853    0.3606   17.4956 C   0  0  0  0  0  0  0  0  0  0  0  0
   -5.0585    0.0951   16.4436 O   0  0  0  0  0  0  0  0  0  0  0  0
 23 24  1  0  0  0
 24  1  1  0  0  0
  1  3  2  0  0  0
  1  2  1  0  0  0
  3  4  1  0  0  0
  2  6  2  0  0  0
  4  5  2  0  0  0
  6  7  1  0  0  0
  6  5  1  0  0  0
  7  8  1  0  0  0
  5 10  1  0  0  0
  8  9  1  0  0  0
 10  9  2  0  0  0
 10 11  1  0  0  0
 11 14  2  0  0  0
 11 12  1  0  0  0
 14 15  1  0  0  0
 12 13  2  0  0  0
 15 16  2  0  0  0
 13 16  1  0  0  0
 16 17  1  0  0  0
 20 17  1  0  0  0
 19 17  2  0  0  0
 17 18  2  0  0  0
 20 21  1  0  0  0
 20 22  1  0  0  0
M  END
> <minimizedAffinity>
-6.40764

$$$$
3VBD_0FZ_A_2002


 24 26  0  0  0  0  0  0  0  0999 V2000
   -5.8761    3.4092   15.1332 C   0  0  0  0  0  0  0  0  0  0  0  0
   -4.9434    2.9379   14.2333 C   0  0  0  0  0  0  0  0  0  0  0  0
   -6.1867    4.7671   15.1191 C   0  0  0  0  0  0  0  0  0  0  0  0
   -5.5782    5.4988   14.1413 C   0  0  0  0  0  0  0  0  0  0  0  0
   -4.7095    5.0859   13.1318 C   0  0  0  0  0  0  0  0  0  0  0  0
   -4.3516    3.7309   13.2527 C   0  0  0  0  0  0  0  0  0  0  0  0
   -3.3794    3.1371   12.4559 C   0  0  0  0  0  0  0  0  0  0  0  0
   -2.4604    4.2414   11.8898 C   0  0  0  0  0  0  0  0  0  0  0  0
   -3.3488    5.2340   11.2101 N   0  0  0  0  0  0  0  0  0  0  0  0
   -4.2995    5.8173   12.0120 C   0  0  0  0  0  0  0  0  0  0  0  0
   -4.7182    7.0445   11.5144 C   0  0  0  0  0  0  0  0  0  0  0  0
   -6.0530    7.4096   11.3939 C   0  0  0  0  0  0  0  0  0  0  0  0
   -6.4682    8.6348   10.8993 C   0  0  0  0  0  0  0  0  0  0  0  0
   -3.7947    8.0186   11.0847 C   0  0  0  0  0  0  0  0  0  0  0  0
   -4.1999    9.2675   10.5684 C   0  0  0  0  0  0  0  0  0  0  0  0
   -5.5616    9.5863   10.4495 C   0  0  0  0  0  0  0  0  0  0  0  0
   -6.1077   11.1295    9.6924 S   0  0  0  0  0  0  0  0  0  0  0  0
   -4.9456   11.5726    8.8971 O   0  0  0  0  0  0  0  0  0  0  0  0
   -7.2669   10.6810    8.8134 O   0  0  0  0  0  0  0  0  0  0  0  0
   -6.4783   12.1679   10.6994 N   0  0  0  0  0  0  0  0  0  0  0  0
   -7.2816   11.8464   11.2395 H   0  0  0  0  0  0  0  0  0  0  0  0
   -6.7162   13.0364   10.2203 H   0  0  0  0  0  0  0  0  0  0  0  0
   -5.8171    1.4581   16.3497 C   0  0  0  0  0  0  0  0  0  0  0  0
   -6.5596    2.6189   15.9791 O   0  0  0  0  0  0  0  0  0  0  0  0
 23 24  1  0  0  0
 24  1  1  0  0  0
  1  3  2  0  0  0
  1  2  1  0  0  0
  3  4  1  0  0  0
  2  6  2  0  0  0
  4  5  2  0  0  0
  6  7  1  0  0  0
  6  5  1  0  0  0
  7  8  1  0  0  0
  5 10  1  0  0  0
  8  9  1  0  0  0
 10  9  2  0  0  0
 10 11  1  0  0  0
 11 14  2  0  0  0
 11 12  1  0  0  0
 14 15  1  0  0  0
 12 13  2  0  0  0
 15 16  2  0  0  0
 13 16  1  0  0  0
 16 17  1  0  0  0
 20 17  1  0  0  0
 19 17  2  0  0  0
 17 18  2  0  0  0
 20 21  1  0  0  0
 20 22  1  0  0  0
M  END
> <minimizedAffinity>
-6.31202

$$$$
