4MYD_164_A_301


 20 20  0  0  0  0  0  0  0  0999 V2000
   26.3145   76.2646   11.9107 C   0  0  0  0  0  0  0  0  0  0  0  0
   26.8445   77.1182   13.0684 C   0  0  0  0  0  0  0  0  0  0  0  0
   27.2567   76.3198   14.2600 C   0  0  0  0  0  0  0  0  0  0  0  0
   27.6905   75.0635   14.1246 C   0  0  0  0  0  0  0  0  0  0  0  0
   27.7273   74.4335   12.8238 C   0  0  0  0  0  0  0  0  0  0  0  0
   27.8924   77.9277   12.6335 O   0  0  0  0  0  0  0  0  0  0  0  0
   27.0889   74.9743   11.7601 C   0  0  0  0  0  0  0  0  0  0  0  0
   28.6315   77.3711   12.3423 H   0  0  0  0  0  0  0  0  0  0  0  0
   24.1472   77.0990   12.1182 O   0  0  0  0  0  0  0  0  0  0  0  0
   24.8059   76.0537   12.0538 C   0  0  0  0  0  0  0  0  0  0  0  0
   24.4244   74.8755   12.0237 O   0  0  0  0  0  0  0  0  0  0  0  0
   25.0515   74.1812   11.9738 H   0  0  0  0  0  0  0  0  0  0  0  0
   27.1855   74.3238   10.4416 C   0  0  0  0  0  0  0  0  0  0  0  0
   26.1052   73.9897    9.8924 O   0  0  0  0  0  0  0  0  0  0  0  0
   28.5340   74.0653    9.7999 C   0  0  0  0  0  0  0  0  0  0  0  0
   28.8591   72.6076    9.6934 C   0  0  0  0  0  0  0  0  0  0  0  0
   30.1905   72.2324    9.0667 C   0  0  0  0  0  0  0  0  0  0  0  0
   30.8231   73.1172    8.4548 O   0  0  0  0  0  0  0  0  0  0  0  0
   30.4545   71.0237    9.2957 O   0  0  0  0  0  0  0  0  0  0  0  0
   30.4676   73.9810    8.3809 H   0  0  0  0  0  0  0  0  0  0  0  0
  9 10  2  0  0  0
 10 11  1  0  0  0
 10  1  1  0  0  0
  1  2  1  0  0  0
  1  7  1  0  0  0
  2  3  1  0  0  0
  2  6  1  0  0  0
  3  4  2  0  0  0
  4  5  1  0  0  0
  5  7  2  0  0  0
  7 13  1  0  0  0
 13 14  2  0  0  0
 13 15  1  0  0  0
 15 16  1  0  0  0
 16 17  1  0  0  0
 17 18  1  0  0  0
 17 19  2  0  0  0
 11 12  1  0  0  0
  6  8  1  0  0  0
 18 20  1  0  0  0
M  END
> <minimizedAffinity>
-8.35499

$$$$
4MYD_164_A_301


 20 20  0  0  0  0  0  0  0  0999 V2000
   27.3650   75.9959   12.8082 C   0  0  0  0  0  0  0  0  0  0  0  0
   27.8742   74.7880   13.6031 C   0  0  0  0  0  0  0  0  0  0  0  0
   27.1061   74.5302   14.8563 C   0  0  0  0  0  0  0  0  0  0  0  0
   25.8206   74.8802   14.9548 C   0  0  0  0  0  0  0  0  0  0  0  0
   25.1567   75.5585   13.8641 C   0  0  0  0  0  0  0  0  0  0  0  0
   27.8946   73.6512   12.7971 O   0  0  0  0  0  0  0  0  0  0  0  0
   25.8562   76.0954   12.8375 C   0  0  0  0  0  0  0  0  0  0  0  0
   26.9906   73.4355   12.5194 H   0  0  0  0  0  0  0  0  0  0  0  0
   29.2946   77.2658   13.1253 O   0  0  0  0  0  0  0  0  0  0  0  0
   28.0666   77.2728   13.2753 C   0  0  0  0  0  0  0  0  0  0  0  0
   27.3217   78.1747   13.6833 O   0  0  0  0  0  0  0  0  0  0  0  0
   26.3981   78.0286   13.7426 H   0  0  0  0  0  0  0  0  0  0  0  0
   25.1398   76.7418   11.7239 C   0  0  0  0  0  0  0  0  0  0  0  0
   23.8912   76.5995   11.6930 O   0  0  0  0  0  0  0  0  0  0  0  0
   25.8919   77.5255   10.6670 C   0  0  0  0  0  0  0  0  0  0  0  0
   25.1802   78.7755   10.2514 C   0  0  0  0  0  0  0  0  0  0  0  0
   25.0743   79.8925   11.2746 C   0  0  0  0  0  0  0  0  0  0  0  0
   23.9450   80.3668   11.5134 O   0  0  0  0  0  0  0  0  0  0  0  0
   26.2093   80.1583   11.7485 O   0  0  0  0  0  0  0  0  0  0  0  0
   23.1942   80.0419   11.0565 H   0  0  0  0  0  0  0  0  0  0  0  0
  9 10  2  0  0  0
 10 11  1  0  0  0
 10  1  1  0  0  0
  1  2  1  0  0  0
  1  7  1  0  0  0
  2  3  1  0  0  0
  2  6  1  0  0  0
  3  4  2  0  0  0
  4  5  1  0  0  0
  5  7  2  0  0  0
  7 13  1  0  0  0
 13 14  2  0  0  0
 13 15  1  0  0  0
 15 16  1  0  0  0
 16 17  1  0  0  0
 17 18  1  0  0  0
 17 19  2  0  0  0
 11 12  1  0  0  0
  6  8  1  0  0  0
 18 20  1  0  0  0
M  END
> <minimizedAffinity>
-8.09035

$$$$
4MYD_164_A_301


 20 20  0  0  0  0  0  0  0  0999 V2000
   26.5038   76.2107   13.1112 C   0  0  0  0  0  0  0  0  0  0  0  0
   28.0024   76.0150   13.3682 C   0  0  0  0  0  0  0  0  0  0  0  0
   28.5818   74.8371   12.6583 C   0  0  0  0  0  0  0  0  0  0  0  0
   28.0557   74.4043   11.5092 C   0  0  0  0  0  0  0  0  0  0  0  0
   26.8838   75.0405   10.9504 C   0  0  0  0  0  0  0  0  0  0  0  0
   28.7045   77.1755   13.0479 O   0  0  0  0  0  0  0  0  0  0  0  0
   26.1309   75.8968   11.6796 C   0  0  0  0  0  0  0  0  0  0  0  0
   28.6105   77.3591   12.1001 H   0  0  0  0  0  0  0  0  0  0  0  0
   25.7945   75.8359   15.3004 O   0  0  0  0  0  0  0  0  0  0  0  0
   25.6825   75.4281   14.1378 C   0  0  0  0  0  0  0  0  0  0  0  0
   24.9628   74.5314   13.6768 O   0  0  0  0  0  0  0  0  0  0  0  0
   24.9885   74.3343   12.7611 H   0  0  0  0  0  0  0  0  0  0  0  0
   24.9683   76.5570   11.0604 C   0  0  0  0  0  0  0  0  0  0  0  0
   23.8383   76.0626   11.3032 O   0  0  0  0  0  0  0  0  0  0  0  0
   25.1477   77.7660   10.1642 C   0  0  0  0  0  0  0  0  0  0  0  0
   26.3928   78.5391   10.4705 C   0  0  0  0  0  0  0  0  0  0  0  0
   26.2892   79.6525   11.4979 C   0  0  0  0  0  0  0  0  0  0  0  0
   25.3004   80.4120   11.4450 O   0  0  0  0  0  0  0  0  0  0  0  0
   27.2694   79.6108   12.2859 O   0  0  0  0  0  0  0  0  0  0  0  0
   24.6547   80.2946   10.7762 H   0  0  0  0  0  0  0  0  0  0  0  0
  9 10  2  0  0  0
 10 11  1  0  0  0
 10  1  1  0  0  0
  1  2  1  0  0  0
  1  7  1  0  0  0
  2  3  1  0  0  0
  2  6  1  0  0  0
  3  4  2  0  0  0
  4  5  1  0  0  0
  5  7  2  0  0  0
  7 13  1  0  0  0
 13 14  2  0  0  0
 13 15  1  0  0  0
 15 16  1  0  0  0
 16 17  1  0  0  0
 17 18  1  0  0  0
 17 19  2  0  0  0
 11 12  1  0  0  0
  6  8  1  0  0  0
 18 20  1  0  0  0
M  END
> <minimizedAffinity>
-7.92255

$$$$
4MYD_164_A_301


 20 20  0  0  0  0  0  0  0  0999 V2000
   26.2568   76.5618   11.9121 C   0  0  0  0  0  0  0  0  0  0  0  0
   26.5162   75.5405   10.7988 C   0  0  0  0  0  0  0  0  0  0  0  0
   27.8550   74.8869   10.8871 C   0  0  0  0  0  0  0  0  0  0  0  0
   28.4658   74.7357   12.0656 C   0  0  0  0  0  0  0  0  0  0  0  0
   27.8629   75.2433   13.2776 C   0  0  0  0  0  0  0  0  0  0  0  0
   25.5034   74.5834   10.7737 O   0  0  0  0  0  0  0  0  0  0  0  0
   26.8205   76.1056   13.2392 C   0  0  0  0  0  0  0  0  0  0  0  0
   25.5066   74.0873   11.6072 H   0  0  0  0  0  0  0  0  0  0  0  0
   26.6319   78.1829   10.2787 O   0  0  0  0  0  0  0  0  0  0  0  0
   26.7496   77.9467   11.4874 C   0  0  0  0  0  0  0  0  0  0  0  0
   27.1431   78.6800   12.4050 O   0  0  0  0  0  0  0  0  0  0  0  0
   27.1772   78.3544   13.2830 H   0  0  0  0  0  0  0  0  0  0  0  0
   26.2070   76.5670   14.4969 C   0  0  0  0  0  0  0  0  0  0  0  0
   26.8056   77.4807   15.1191 O   0  0  0  0  0  0  0  0  0  0  0  0
   24.9217   75.9471   15.0074 C   0  0  0  0  0  0  0  0  0  0  0  0
   24.6275   74.6182   14.3836 C   0  0  0  0  0  0  0  0  0  0  0  0
   23.3025   74.4647   13.6579 C   0  0  0  0  0  0  0  0  0  0  0  0
   22.4121   73.7767   14.1977 O   0  0  0  0  0  0  0  0  0  0  0  0
   23.3211   75.1073   12.5763 O   0  0  0  0  0  0  0  0  0  0  0  0
   22.5758   73.3614   15.0215 H   0  0  0  0  0  0  0  0  0  0  0  0
  9 10  2  0  0  0
 10 11  1  0  0  0
 10  1  1  0  0  0
  1  2  1  0  0  0
  1  7  1  0  0  0
  2  3  1  0  0  0
  2  6  1  0  0  0
  3  4  2  0  0  0
  4  5  1  0  0  0
  5  7  2  0  0  0
  7 13  1  0  0  0
 13 14  2  0  0  0
 13 15  1  0  0  0
 15 16  1  0  0  0
 16 17  1  0  0  0
 17 18  1  0  0  0
 17 19  2  0  0  0
 11 12  1  0  0  0
  6  8  1  0  0  0
 18 20  1  0  0  0
M  END
> <minimizedAffinity>
-7.84139

$$$$
4MYD_164_A_301


 20 20  0  0  0  0  0  0  0  0999 V2000
   26.1989   75.4579   12.8079 C   0  0  0  0  0  0  0  0  0  0  0  0
   24.7703   75.9624   12.5742 C   0  0  0  0  0  0  0  0  0  0  0  0
   24.6537   76.9222   11.4373 C   0  0  0  0  0  0  0  0  0  0  0  0
   25.5027   76.8686   10.4072 C   0  0  0  0  0  0  0  0  0  0  0  0
   26.5826   75.9075   10.3926 C   0  0  0  0  0  0  0  0  0  0  0  0
   23.8993   74.8883   12.4010 O   0  0  0  0  0  0  0  0  0  0  0  0
   26.9355   75.2262   11.5075 C   0  0  0  0  0  0  0  0  0  0  0  0
   24.1496   74.3942   11.6046 H   0  0  0  0  0  0  0  0  0  0  0  0
   26.2350   76.8678   14.6645 O   0  0  0  0  0  0  0  0  0  0  0  0
   26.9408   76.3902   13.7677 C   0  0  0  0  0  0  0  0  0  0  0  0
   28.1587   76.5024   13.5713 O   0  0  0  0  0  0  0  0  0  0  0  0
   28.5563   76.0754   12.8382 H   0  0  0  0  0  0  0  0  0  0  0  0
   28.0140   74.2245   11.4412 C   0  0  0  0  0  0  0  0  0  0  0  0
   28.2107   73.5325   12.4721 O   0  0  0  0  0  0  0  0  0  0  0  0
   28.8458   74.0606   10.1849 C   0  0  0  0  0  0  0  0  0  0  0  0
   28.9454   72.6365    9.7334 C   0  0  0  0  0  0  0  0  0  0  0  0
   30.2024   72.2264    8.9866 C   0  0  0  0  0  0  0  0  0  0  0  0
   30.7420   73.0658    8.2372 O   0  0  0  0  0  0  0  0  0  0  0  0
   30.5154   71.0428    9.2775 O   0  0  0  0  0  0  0  0  0  0  0  0
   30.3632   73.9170    8.1377 H   0  0  0  0  0  0  0  0  0  0  0  0
  9 10  2  0  0  0
 10 11  1  0  0  0
 10  1  1  0  0  0
  1  2  1  0  0  0
  1  7  1  0  0  0
  2  3  1  0  0  0
  2  6  1  0  0  0
  3  4  2  0  0  0
  4  5  1  0  0  0
  5  7  2  0  0  0
  7 13  1  0  0  0
 13 14  2  0  0  0
 13 15  1  0  0  0
 15 16  1  0  0  0
 16 17  1  0  0  0
 17 18  1  0  0  0
 17 19  2  0  0  0
 11 12  1  0  0  0
  6  8  1  0  0  0
 18 20  1  0  0  0
M  END
> <minimizedAffinity>
-7.82531

$$$$
4MYD_164_A_301


 20 20  0  0  0  0  0  0  0  0999 V2000
   25.0154   75.8481   13.6880 C   0  0  0  0  0  0  0  0  0  0  0  0
   25.5099   75.8082   15.1385 C   0  0  0  0  0  0  0  0  0  0  0  0
   26.6607   74.8825   15.3526 C   0  0  0  0  0  0  0  0  0  0  0  0
   27.5195   74.6189   14.3637 C   0  0  0  0  0  0  0  0  0  0  0  0
   27.3267   75.1900   13.0496 C   0  0  0  0  0  0  0  0  0  0  0  0
   25.8246   77.0925   15.5787 O   0  0  0  0  0  0  0  0  0  0  0  0
   26.1581   75.7763   12.6999 C   0  0  0  0  0  0  0  0  0  0  0  0
   26.5565   77.4456   15.0490 H   0  0  0  0  0  0  0  0  0  0  0  0
   23.1592   75.0251   12.5421 O   0  0  0  0  0  0  0  0  0  0  0  0
   23.9487   74.7750   13.4611 C   0  0  0  0  0  0  0  0  0  0  0  0
   24.0425   73.7669   14.1749 O   0  0  0  0  0  0  0  0  0  0  0  0
   24.7013   73.7233   14.8397 H   0  0  0  0  0  0  0  0  0  0  0  0
   26.0159   76.3839   11.3652 C   0  0  0  0  0  0  0  0  0  0  0  0
   26.9198   76.1340   10.5281 O   0  0  0  0  0  0  0  0  0  0  0  0
   24.8354   77.2770   11.0400 C   0  0  0  0  0  0  0  0  0  0  0  0
   25.2406   78.5701   10.4033 C   0  0  0  0  0  0  0  0  0  0  0  0
   25.0220   79.8419   11.2038 C   0  0  0  0  0  0  0  0  0  0  0  0
   26.0230   80.4227   11.6708 O   0  0  0  0  0  0  0  0  0  0  0  0
   23.7960   80.1208   11.2524 O   0  0  0  0  0  0  0  0  0  0  0  0
   26.8783   80.0649   11.5346 H   0  0  0  0  0  0  0  0  0  0  0  0
  9 10  2  0  0  0
 10 11  1  0  0  0
 10  1  1  0  0  0
  1  2  1  0  0  0
  1  7  1  0  0  0
  2  3  1  0  0  0
  2  6  1  0  0  0
  3  4  2  0  0  0
  4  5  1  0  0  0
  5  7  2  0  0  0
  7 13  1  0  0  0
 13 14  2  0  0  0
 13 15  1  0  0  0
 15 16  1  0  0  0
 16 17  1  0  0  0
 17 18  1  0  0  0
 17 19  2  0  0  0
 11 12  1  0  0  0
  6  8  1  0  0  0
 18 20  1  0  0  0
M  END
> <minimizedAffinity>
-7.63645

$$$$
4MYD_164_A_301


 20 20  0  0  0  0  0  0  0  0999 V2000
   26.0991   76.1072   10.9569 C   0  0  0  0  0  0  0  0  0  0  0  0
   26.0625   77.6284   10.7714 C   0  0  0  0  0  0  0  0  0  0  0  0
   26.6546   78.3844   11.9138 C   0  0  0  0  0  0  0  0  0  0  0  0
   27.6152   77.8426   12.6679 C   0  0  0  0  0  0  0  0  0  0  0  0
   28.0712   76.4929   12.4214 C   0  0  0  0  0  0  0  0  0  0  0  0
   26.6796   77.9856    9.5740 O   0  0  0  0  0  0  0  0  0  0  0  0
   27.3791   75.6500   11.6201 C   0  0  0  0  0  0  0  0  0  0  0  0
   27.6163   77.7356    9.6059 H   0  0  0  0  0  0  0  0  0  0  0  0
   23.7849   76.1100   11.2408 O   0  0  0  0  0  0  0  0  0  0  0  0
   24.8375   75.6299   11.6790 C   0  0  0  0  0  0  0  0  0  0  0  0
   25.0152   74.7807   12.5633 O   0  0  0  0  0  0  0  0  0  0  0  0
   25.8847   74.5137   12.7885 H   0  0  0  0  0  0  0  0  0  0  0  0
   27.8993   74.2961   11.3607 C   0  0  0  0  0  0  0  0  0  0  0  0
   27.9201   73.4996   12.3330 O   0  0  0  0  0  0  0  0  0  0  0  0
   28.3946   73.9051    9.9827 C   0  0  0  0  0  0  0  0  0  0  0  0
   29.0502   72.5592    9.9591 C   0  0  0  0  0  0  0  0  0  0  0  0
   30.0539   72.2901    8.8517 C   0  0  0  0  0  0  0  0  0  0  0  0
   30.8355   73.2082    8.5299 O   0  0  0  0  0  0  0  0  0  0  0  0
   29.9308   71.1112    8.4292 O   0  0  0  0  0  0  0  0  0  0  0  0
   30.7839   74.0395    8.9593 H   0  0  0  0  0  0  0  0  0  0  0  0
  9 10  2  0  0  0
 10 11  1  0  0  0
 10  1  1  0  0  0
  1  2  1  0  0  0
  1  7  1  0  0  0
  2  3  1  0  0  0
  2  6  1  0  0  0
  3  4  2  0  0  0
  4  5  1  0  0  0
  5  7  2  0  0  0
  7 13  1  0  0  0
 13 14  2  0  0  0
 13 15  1  0  0  0
 15 16  1  0  0  0
 16 17  1  0  0  0
 17 18  1  0  0  0
 17 19  2  0  0  0
 11 12  1  0  0  0
  6  8  1  0  0  0
 18 20  1  0  0  0
M  END
> <minimizedAffinity>
-7.55904

$$$$
4MYD_164_A_301


 20 20  0  0  0  0  0  0  0  0999 V2000
   27.4414   75.8773   13.1537 C   0  0  0  0  0  0  0  0  0  0  0  0
   27.3787   75.1599   14.5069 C   0  0  0  0  0  0  0  0  0  0  0  0
   26.1601   75.4900   15.3027 C   0  0  0  0  0  0  0  0  0  0  0  0
   25.0218   75.8399   14.6970 C   0  0  0  0  0  0  0  0  0  0  0  0
   24.9581   75.9505   13.2569 C   0  0  0  0  0  0  0  0  0  0  0  0
   27.4914   73.7820   14.3305 O   0  0  0  0  0  0  0  0  0  0  0  0
   26.0804   75.9711   12.5009 C   0  0  0  0  0  0  0  0  0  0  0  0
   26.7366   73.4594   13.8137 H   0  0  0  0  0  0  0  0  0  0  0  0
   27.3809   78.1667   13.5913 O   0  0  0  0  0  0  0  0  0  0  0  0
   28.1377   77.2316   13.3026 C   0  0  0  0  0  0  0  0  0  0  0  0
   29.3703   77.2165   13.1805 O   0  0  0  0  0  0  0  0  0  0  0  0
   29.8091   76.4200   12.9544 H   0  0  0  0  0  0  0  0  0  0  0  0
   25.9717   76.0426   11.0332 C   0  0  0  0  0  0  0  0  0  0  0  0
   26.5296   75.1269   10.3770 O   0  0  0  0  0  0  0  0  0  0  0  0
   25.2299   77.1822   10.3638 C   0  0  0  0  0  0  0  0  0  0  0  0
   26.0168   78.4558   10.3402 C   0  0  0  0  0  0  0  0  0  0  0  0
   25.5056   79.6089   11.1857 C   0  0  0  0  0  0  0  0  0  0  0  0
   26.3399   80.2974   11.8081 O   0  0  0  0  0  0  0  0  0  0  0  0
   24.2528   79.6900   11.1002 O   0  0  0  0  0  0  0  0  0  0  0  0
   27.2518   80.0885   11.7562 H   0  0  0  0  0  0  0  0  0  0  0  0
  9 10  2  0  0  0
 10 11  1  0  0  0
 10  1  1  0  0  0
  1  2  1  0  0  0
  1  7  1  0  0  0
  2  3  1  0  0  0
  2  6  1  0  0  0
  3  4  2  0  0  0
  4  5  1  0  0  0
  5  7  2  0  0  0
  7 13  1  0  0  0
 13 14  2  0  0  0
 13 15  1  0  0  0
 15 16  1  0  0  0
 16 17  1  0  0  0
 17 18  1  0  0  0
 17 19  2  0  0  0
 11 12  1  0  0  0
  6  8  1  0  0  0
 18 20  1  0  0  0
M  END
> <minimizedAffinity>
-7.43413

$$$$
4MYD_164_A_301


 20 20  0  0  0  0  0  0  0  0999 V2000
   25.0174   76.3436   10.7847 C   0  0  0  0  0  0  0  0  0  0  0  0
   24.5978   77.6928   10.1900 C   0  0  0  0  0  0  0  0  0  0  0  0
   25.3253   78.8566   10.7761 C   0  0  0  0  0  0  0  0  0  0  0  0
   26.5608   78.7155   11.2642 C   0  0  0  0  0  0  0  0  0  0  0  0
   27.2039   77.4207   11.2767 C   0  0  0  0  0  0  0  0  0  0  0  0
   24.7361   77.6752    8.8033 O   0  0  0  0  0  0  0  0  0  0  0  0
   26.5043   76.2836   11.0545 C   0  0  0  0  0  0  0  0  0  0  0  0
   25.6703   77.5526    8.5731 H   0  0  0  0  0  0  0  0  0  0  0  0
   24.0103   74.8060   12.2191 O   0  0  0  0  0  0  0  0  0  0  0  0
   24.1643   76.0159   12.0117 C   0  0  0  0  0  0  0  0  0  0  0  0
   23.7886   76.9899   12.6786 O   0  0  0  0  0  0  0  0  0  0  0  0
   23.9836   77.8593   12.3889 H   0  0  0  0  0  0  0  0  0  0  0  0
   27.2042   74.9872   11.0339 C   0  0  0  0  0  0  0  0  0  0  0  0
   26.6986   74.0800   10.3256 O   0  0  0  0  0  0  0  0  0  0  0  0
   28.4654   74.7722   11.8464 C   0  0  0  0  0  0  0  0  0  0  0  0
   28.2029   74.1224   13.1695 C   0  0  0  0  0  0  0  0  0  0  0  0
   27.3789   74.9015   14.1795 C   0  0  0  0  0  0  0  0  0  0  0  0
   27.8180   76.0008   14.5747 O   0  0  0  0  0  0  0  0  0  0  0  0
   26.3216   74.2768   14.4538 O   0  0  0  0  0  0  0  0  0  0  0  0
   28.6411   76.3176   14.2583 H   0  0  0  0  0  0  0  0  0  0  0  0
  9 10  2  0  0  0
 10 11  1  0  0  0
 10  1  1  0  0  0
  1  2  1  0  0  0
  1  7  1  0  0  0
  2  3  1  0  0  0
  2  6  1  0  0  0
  3  4  2  0  0  0
  4  5  1  0  0  0
  5  7  2  0  0  0
  7 13  1  0  0  0
 13 14  2  0  0  0
 13 15  1  0  0  0
 15 16  1  0  0  0
 16 17  1  0  0  0
 17 18  1  0  0  0
 17 19  2  0  0  0
 11 12  1  0  0  0
  6  8  1  0  0  0
 18 20  1  0  0  0
M  END
> <minimizedAffinity>
-7.37977

$$$$
4MYD_164_A_301


 20 20  0  0  0  0  0  0  0  0999 V2000
   27.1293   74.7310   11.9770 C   0  0  0  0  0  0  0  0  0  0  0  0
   28.1830   74.4366   13.0508 C   0  0  0  0  0  0  0  0  0  0  0  0
   29.1754   75.5363   13.2319 C   0  0  0  0  0  0  0  0  0  0  0  0
   28.8456   76.8047   12.9728 C   0  0  0  0  0  0  0  0  0  0  0  0
   27.5320   77.1352   12.4672 C   0  0  0  0  0  0  0  0  0  0  0  0
   27.5670   74.1268   14.2620 O   0  0  0  0  0  0  0  0  0  0  0  0
   26.6992   76.1808   11.9907 C   0  0  0  0  0  0  0  0  0  0  0  0
   27.0639   74.8950   14.5746 H   0  0  0  0  0  0  0  0  0  0  0  0
   28.8486   74.2860   10.4662 O   0  0  0  0  0  0  0  0  0  0  0  0
   27.6199   74.2565   10.6076 C   0  0  0  0  0  0  0  0  0  0  0  0
   26.7418   73.8441    9.8373 O   0  0  0  0  0  0  0  0  0  0  0  0
   25.8401   73.8884   10.0881 H   0  0  0  0  0  0  0  0  0  0  0  0
   25.3524   76.5532   11.5233 C   0  0  0  0  0  0  0  0  0  0  0  0
   25.2707   77.5503   10.7622 O   0  0  0  0  0  0  0  0  0  0  0  0
   24.1330   75.7670   11.9617 C   0  0  0  0  0  0  0  0  0  0  0  0
   23.9562   75.7466   13.4484 C   0  0  0  0  0  0  0  0  0  0  0  0
   23.7188   74.3983   14.1055 C   0  0  0  0  0  0  0  0  0  0  0  0
   22.5472   73.9735   14.1706 O   0  0  0  0  0  0  0  0  0  0  0  0
   24.8105   73.8998   14.4838 O   0  0  0  0  0  0  0  0  0  0  0  0
   21.8423   74.4892   13.8312 H   0  0  0  0  0  0  0  0  0  0  0  0
  9 10  2  0  0  0
 10 11  1  0  0  0
 10  1  1  0  0  0
  1  2  1  0  0  0
  1  7  1  0  0  0
  2  3  1  0  0  0
  2  6  1  0  0  0
  3  4  2  0  0  0
  4  5  1  0  0  0
  5  7  2  0  0  0
  7 13  1  0  0  0
 13 14  2  0  0  0
 13 15  1  0  0  0
 15 16  1  0  0  0
 16 17  1  0  0  0
 17 18  1  0  0  0
 17 19  2  0  0  0
 11 12  1  0  0  0
  6  8  1  0  0  0
 18 20  1  0  0  0
M  END
> <minimizedAffinity>
-7.32234

$$$$
