4IPN_1FT_B_501


 36 37  0  0  0  0  0  0  0  0999 V2000
   27.3655    0.2207   16.9980 C   0  0  0  0  0  0  0  0  0  0  0  0
   26.0483   -0.1543   16.7139 O   0  0  0  0  0  0  0  0  0  0  0  0
   28.2906    0.4481   15.7948 C   0  0  0  0  0  0  0  0  0  0  0  0
   29.6297    0.1741   16.2100 O   0  0  0  0  0  0  0  0  0  0  0  0
   27.9848   -0.2536   14.6029 C   0  0  0  0  0  0  0  0  0  0  0  0
   28.5765    0.5315   13.4666 O   0  0  0  0  0  0  0  0  0  0  0  0
   26.5953   -0.4521   14.3817 C   0  0  0  0  0  0  0  0  0  0  0  0
   26.3474   -1.3298   13.2673 O   0  0  0  0  0  0  0  0  0  0  0  0
   25.8910   -1.0076   15.6102 C   0  0  0  0  0  0  0  0  0  0  0  0
   29.7068   -0.7609   16.4565 H   0  0  0  0  0  0  0  0  0  0  0  0
   28.1717    1.4125   13.4371 H   0  0  0  0  0  0  0  0  0  0  0  0
   26.7064   -2.2095   13.4625 H   0  0  0  0  0  0  0  0  0  0  0  0
   27.9891   -0.7589   17.9643 C   0  0  0  0  0  0  0  0  0  0  0  0
   27.7966   -0.4777   19.2966 O   0  0  0  0  0  0  0  0  0  0  0  0
   28.7525   -2.3077   20.7832 O   0  0  0  0  0  0  0  0  0  0  0  0
   27.4772   -1.6616   20.2906 P   0  0  0  0  0  0  0  0  0  0  0  0
   26.7179   -1.1046   21.4787 O   0  0  0  0  0  0  0  0  0  0  0  0
   26.6519   -2.7029   19.5733 O   0  0  0  0  0  0  0  0  0  0  0  0
   29.2915   -1.6474   21.2462 H   0  0  0  0  0  0  0  0  0  0  0  0
   26.4532   -3.4327   20.1807 H   0  0  0  0  0  0  0  0  0  0  0  0
   24.1438   -1.3479   15.2973 S   0  0  0  0  0  0  0  0  0  0  0  0
   23.4968   -2.6605   16.3986 C   0  0  0  0  0  0  0  0  0  0  0  0
   24.0442   -3.9617   15.9450 C   0  0  0  0  0  0  0  0  0  0  0  0
   23.5208   -4.2442   14.6201 O   0  0  0  0  0  0  0  0  0  0  0  0
   23.7347   -5.0302   16.8003 C   0  0  0  0  0  0  0  0  0  0  0  0
   24.4263   -6.2407   16.3677 O   0  0  0  0  0  0  0  0  0  0  0  0
   24.0967   -4.7410   18.2325 C   0  0  0  0  0  0  0  0  0  0  0  0
   23.6306   -5.7342   19.0064 O   0  0  0  0  0  0  0  0  0  0  0  0
   23.5518   -3.4545   18.6999 O   0  0  0  0  0  0  0  0  0  0  0  0
   23.8008   -2.3685   17.8490 C   0  0  0  0  0  0  0  0  0  0  0  0
   22.5545   -4.3168   14.6629 H   0  0  0  0  0  0  0  0  0  0  0  0
   25.3849   -6.1011   16.4187 H   0  0  0  0  0  0  0  0  0  0  0  0
   22.6642   -5.7751   18.9328 H   0  0  0  0  0  0  0  0  0  0  0  0
   22.9560   -1.1952   18.3277 C   0  0  0  0  0  0  0  0  0  0  0  0
   21.6439   -1.4290   18.7129 O   0  0  0  0  0  0  0  0  0  0  0  0
   21.6342   -1.9934   19.5017 H   0  0  0  0  0  0  0  0  0  0  0  0
 17 16  2  0  0  0
 16 15  1  0  0  0
 16 14  1  0  0  0
 16 18  1  0  0  0
 28 27  1  0  0  0
 35 34  1  0  0  0
 29 27  1  0  0  0
 29 30  1  0  0  0
 14 13  1  0  0  0
 34 30  1  0  0  0
 27 25  1  0  0  0
 30 22  1  0  0  0
 13  1  1  0  0  0
 25 26  1  0  0  0
 25 23  1  0  0  0
  1  2  1  0  0  0
  1  3  1  0  0  0
 22 23  1  0  0  0
 22 21  1  0  0  0
  2  9  1  0  0  0
 23 24  1  0  0  0
  4  3  1  0  0  0
  3  5  1  0  0  0
  9 21  1  0  0  0
  9  7  1  0  0  0
  5  7  1  0  0  0
  5  6  1  0  0  0
  7  8  1  0  0  0
 15 19  1  0  0  0
 18 20  1  0  0  0
  4 10  1  0  0  0
  6 11  1  0  0  0
  8 12  1  0  0  0
 24 31  1  0  0  0
 26 32  1  0  0  0
 28 33  1  0  0  0
 35 36  1  0  0  0
M  END
> <minimizedAffinity>
-8.68811

$$$$
4IPN_1FT_B_501


 36 37  0  0  0  0  0  0  0  0999 V2000
   27.2369   -1.8049   18.5895 C   0  0  0  0  0  0  0  0  0  0  0  0
   26.4622   -1.7930   17.4250 O   0  0  0  0  0  0  0  0  0  0  0  0
   26.5634   -2.3453   19.8582 C   0  0  0  0  0  0  0  0  0  0  0  0
   27.1758   -1.7159   20.9849 O   0  0  0  0  0  0  0  0  0  0  0  0
   25.1527   -2.2418   19.9351 C   0  0  0  0  0  0  0  0  0  0  0  0
   24.6844   -3.3114   20.8805 O   0  0  0  0  0  0  0  0  0  0  0  0
   24.4880   -2.3752   18.6863 C   0  0  0  0  0  0  0  0  0  0  0  0
   23.0839   -2.0726   18.7885 O   0  0  0  0  0  0  0  0  0  0  0  0
   25.1032   -1.4934   17.6102 C   0  0  0  0  0  0  0  0  0  0  0  0
   27.0041   -0.7617   20.9551 H   0  0  0  0  0  0  0  0  0  0  0  0
   24.9269   -4.1824   20.5291 H   0  0  0  0  0  0  0  0  0  0  0  0
   22.9711   -1.1435   19.0435 H   0  0  0  0  0  0  0  0  0  0  0  0
   27.8159   -0.4329   18.8440 C   0  0  0  0  0  0  0  0  0  0  0  0
   29.1205   -0.2594   18.4455 O   0  0  0  0  0  0  0  0  0  0  0  0
   29.7254   -0.4190   15.9796 O   0  0  0  0  0  0  0  0  0  0  0  0
   29.4151    0.5331   17.1125 P   0  0  0  0  0  0  0  0  0  0  0  0
   28.1866    1.3443   16.7502 O   0  0  0  0  0  0  0  0  0  0  0  0
   30.6053    1.4375   17.3255 O   0  0  0  0  0  0  0  0  0  0  0  0
   28.9669   -1.0058   15.8334 H   0  0  0  0  0  0  0  0  0  0  0  0
   30.7899    1.9267   16.5085 H   0  0  0  0  0  0  0  0  0  0  0  0
   24.1983   -1.5936   16.0489 S   0  0  0  0  0  0  0  0  0  0  0  0
   25.1260   -2.5372   14.7826 C   0  0  0  0  0  0  0  0  0  0  0  0
   24.4068   -3.8089   14.5289 C   0  0  0  0  0  0  0  0  0  0  0  0
   24.4420   -4.6071   15.7415 O   0  0  0  0  0  0  0  0  0  0  0  0
   24.9436   -4.5561   13.4694 C   0  0  0  0  0  0  0  0  0  0  0  0
   24.0995   -5.7133   13.1884 O   0  0  0  0  0  0  0  0  0  0  0  0
   25.0966   -3.7410   12.2132 C   0  0  0  0  0  0  0  0  0  0  0  0
   25.7564   -4.4716   11.3002 O   0  0  0  0  0  0  0  0  0  0  0  0
   25.8174   -2.4779   12.4486 O   0  0  0  0  0  0  0  0  0  0  0  0
   25.3397   -1.7226   13.5287 C   0  0  0  0  0  0  0  0  0  0  0  0
   25.3627   -4.8154   15.9649 H   0  0  0  0  0  0  0  0  0  0  0  0
   23.2204   -5.4123   12.9101 H   0  0  0  0  0  0  0  0  0  0  0  0
   26.6392   -4.6902   11.6376 H   0  0  0  0  0  0  0  0  0  0  0  0
   26.3420   -0.6089   13.8011 C   0  0  0  0  0  0  0  0  0  0  0  0
   27.4322   -0.8749   14.6166 O   0  0  0  0  0  0  0  0  0  0  0  0
   28.0031   -1.5322   14.1890 H   0  0  0  0  0  0  0  0  0  0  0  0
 17 16  2  0  0  0
 16 15  1  0  0  0
 16 14  1  0  0  0
 16 18  1  0  0  0
 28 27  1  0  0  0
 35 34  1  0  0  0
 29 27  1  0  0  0
 29 30  1  0  0  0
 14 13  1  0  0  0
 34 30  1  0  0  0
 27 25  1  0  0  0
 30 22  1  0  0  0
 13  1  1  0  0  0
 25 26  1  0  0  0
 25 23  1  0  0  0
  1  2  1  0  0  0
  1  3  1  0  0  0
 22 23  1  0  0  0
 22 21  1  0  0  0
  2  9  1  0  0  0
 23 24  1  0  0  0
  4  3  1  0  0  0
  3  5  1  0  0  0
  9 21  1  0  0  0
  9  7  1  0  0  0
  5  7  1  0  0  0
  5  6  1  0  0  0
  7  8  1  0  0  0
 15 19  1  0  0  0
 18 20  1  0  0  0
  4 10  1  0  0  0
  6 11  1  0  0  0
  8 12  1  0  0  0
 24 31  1  0  0  0
 26 32  1  0  0  0
 28 33  1  0  0  0
 35 36  1  0  0  0
M  END
> <minimizedAffinity>
-8.58234

$$$$
4IPN_1FT_B_501


 36 37  0  0  0  0  0  0  0  0999 V2000
   27.5466   -1.1937   17.3848 C   0  0  0  0  0  0  0  0  0  0  0  0
   26.3101   -1.8434   17.4588 O   0  0  0  0  0  0  0  0  0  0  0  0
   28.3904   -1.1730   18.6665 C   0  0  0  0  0  0  0  0  0  0  0  0
   29.2142   -0.0064   18.6334 O   0  0  0  0  0  0  0  0  0  0  0  0
   27.6965   -1.2584   19.8985 C   0  0  0  0  0  0  0  0  0  0  0  0
   28.6588   -1.8191   20.9069 O   0  0  0  0  0  0  0  0  0  0  0  0
   26.5226   -2.0577   19.8538 C   0  0  0  0  0  0  0  0  0  0  0  0
   25.7558   -1.9567   21.0685 O   0  0  0  0  0  0  0  0  0  0  0  0
   25.6275   -1.6996   18.6771 C   0  0  0  0  0  0  0  0  0  0  0  0
   28.6542    0.7854   18.6477 H   0  0  0  0  0  0  0  0  0  0  0  0
   28.9375   -2.7059   20.6297 H   0  0  0  0  0  0  0  0  0  0  0  0
   25.4437   -1.0450   21.1791 H   0  0  0  0  0  0  0  0  0  0  0  0
   27.3674    0.2076   16.8493 C   0  0  0  0  0  0  0  0  0  0  0  0
   28.3442    0.6376   15.9822 O   0  0  0  0  0  0  0  0  0  0  0  0
   27.2299   -0.7392   14.1559 O   0  0  0  0  0  0  0  0  0  0  0  0
   28.5304   -0.1124   14.6058 P   0  0  0  0  0  0  0  0  0  0  0  0
   28.9777    0.8933   13.5632 O   0  0  0  0  0  0  0  0  0  0  0  0
   29.5625   -1.2022   14.7700 O   0  0  0  0  0  0  0  0  0  0  0  0
   26.5584   -0.0478   14.0469 H   0  0  0  0  0  0  0  0  0  0  0  0
   29.6802   -1.6659   13.9262 H   0  0  0  0  0  0  0  0  0  0  0  0
   24.0914   -2.6519   18.6762 S   0  0  0  0  0  0  0  0  0  0  0  0
   24.0598   -3.8937   17.3302 C   0  0  0  0  0  0  0  0  0  0  0  0
   23.7265   -5.2126   17.9203 C   0  0  0  0  0  0  0  0  0  0  0  0
   24.8040   -5.6030   18.8122 O   0  0  0  0  0  0  0  0  0  0  0  0
   23.5301   -6.2218   16.9653 C   0  0  0  0  0  0  0  0  0  0  0  0
   23.0654   -7.4454   17.6112 O   0  0  0  0  0  0  0  0  0  0  0  0
   22.5430   -5.8202   15.9021 C   0  0  0  0  0  0  0  0  0  0  0  0
   22.5270   -6.7637   14.9470 O   0  0  0  0  0  0  0  0  0  0  0  0
   22.8667   -4.5150   15.3005 O   0  0  0  0  0  0  0  0  0  0  0  0
   23.1149   -3.4893   16.2234 C   0  0  0  0  0  0  0  0  0  0  0  0
   25.6263   -5.6932   18.3057 H   0  0  0  0  0  0  0  0  0  0  0  0
   22.2086   -7.2818   18.0354 H   0  0  0  0  0  0  0  0  0  0  0  0
   23.4068   -6.8308   14.5440 H   0  0  0  0  0  0  0  0  0  0  0  0
   23.6898   -2.3027   15.4615 C   0  0  0  0  0  0  0  0  0  0  0  0
   24.9977   -2.3717   15.0040 O   0  0  0  0  0  0  0  0  0  0  0  0
   25.0695   -3.0695   14.3341 H   0  0  0  0  0  0  0  0  0  0  0  0
 17 16  2  0  0  0
 16 15  1  0  0  0
 16 14  1  0  0  0
 16 18  1  0  0  0
 28 27  1  0  0  0
 35 34  1  0  0  0
 29 27  1  0  0  0
 29 30  1  0  0  0
 14 13  1  0  0  0
 34 30  1  0  0  0
 27 25  1  0  0  0
 30 22  1  0  0  0
 13  1  1  0  0  0
 25 26  1  0  0  0
 25 23  1  0  0  0
  1  2  1  0  0  0
  1  3  1  0  0  0
 22 23  1  0  0  0
 22 21  1  0  0  0
  2  9  1  0  0  0
 23 24  1  0  0  0
  4  3  1  0  0  0
  3  5  1  0  0  0
  9 21  1  0  0  0
  9  7  1  0  0  0
  5  7  1  0  0  0
  5  6  1  0  0  0
  7  8  1  0  0  0
 15 19  1  0  0  0
 18 20  1  0  0  0
  4 10  1  0  0  0
  6 11  1  0  0  0
  8 12  1  0  0  0
 24 31  1  0  0  0
 26 32  1  0  0  0
 28 33  1  0  0  0
 35 36  1  0  0  0
M  END
> <minimizedAffinity>
-8.36976

$$$$
4IPN_1FT_B_501


 36 37  0  0  0  0  0  0  0  0999 V2000
   24.1532   -4.8661   14.5735 C   0  0  0  0  0  0  0  0  0  0  0  0
   24.9576   -3.7778   14.9271 O   0  0  0  0  0  0  0  0  0  0  0  0
   22.7021   -4.5514   14.1853 C   0  0  0  0  0  0  0  0  0  0  0  0
   21.9053   -5.6967   14.4918 O   0  0  0  0  0  0  0  0  0  0  0  0
   22.1251   -3.3808   14.7360 C   0  0  0  0  0  0  0  0  0  0  0  0
   21.0236   -2.9550   13.8073 O   0  0  0  0  0  0  0  0  0  0  0  0
   23.0407   -2.3105   14.9233 C   0  0  0  0  0  0  0  0  0  0  0  0
   22.4522   -1.2205   15.6576 O   0  0  0  0  0  0  0  0  0  0  0  0
   24.3079   -2.7558   15.6374 C   0  0  0  0  0  0  0  0  0  0  0  0
   21.9172   -5.8520   15.4493 H   0  0  0  0  0  0  0  0  0  0  0  0
   21.3963   -2.7530   12.9348 H   0  0  0  0  0  0  0  0  0  0  0  0
   22.2191   -1.5205   16.5501 H   0  0  0  0  0  0  0  0  0  0  0  0
   24.1923   -5.9168   15.6583 C   0  0  0  0  0  0  0  0  0  0  0  0
   24.3554   -5.4390   16.9374 O   0  0  0  0  0  0  0  0  0  0  0  0
   22.4097   -4.3501   18.1624 O   0  0  0  0  0  0  0  0  0  0  0  0
   23.1882   -5.6337   17.9822 P   0  0  0  0  0  0  0  0  0  0  0  0
   22.2514   -6.7084   17.4665 O   0  0  0  0  0  0  0  0  0  0  0  0
   23.7760   -6.0353   19.3138 O   0  0  0  0  0  0  0  0  0  0  0  0
   22.0270   -4.0820   17.3124 H   0  0  0  0  0  0  0  0  0  0  0  0
   23.0619   -6.1561   19.9591 H   0  0  0  0  0  0  0  0  0  0  0  0
   25.4292   -1.3752   15.9583 S   0  0  0  0  0  0  0  0  0  0  0  0
   25.8200   -1.2141   17.7404 C   0  0  0  0  0  0  0  0  0  0  0  0
   24.9728   -2.1714   18.4919 C   0  0  0  0  0  0  0  0  0  0  0  0
   23.5842   -1.7744   18.3399 O   0  0  0  0  0  0  0  0  0  0  0  0
   25.2843   -2.2446   19.8582 C   0  0  0  0  0  0  0  0  0  0  0  0
   24.5125   -3.3064   20.4965 O   0  0  0  0  0  0  0  0  0  0  0  0
   26.7501   -2.4875   20.0994 C   0  0  0  0  0  0  0  0  0  0  0  0
   26.9951   -2.3877   21.4157 O   0  0  0  0  0  0  0  0  0  0  0  0
   27.6043   -1.5377   19.3655 O   0  0  0  0  0  0  0  0  0  0  0  0
   27.2952   -1.4017   18.0048 C   0  0  0  0  0  0  0  0  0  0  0  0
   23.4572   -0.8905   18.7186 H   0  0  0  0  0  0  0  0  0  0  0  0
   24.7499   -4.1603   20.1023 H   0  0  0  0  0  0  0  0  0  0  0  0
   26.7750   -1.4928   21.7186 H   0  0  0  0  0  0  0  0  0  0  0  0
   28.0723   -0.2085   17.4650 C   0  0  0  0  0  0  0  0  0  0  0  0
   27.5261    1.0601   17.5957 O   0  0  0  0  0  0  0  0  0  0  0  0
   27.4678    1.2917   18.5358 H   0  0  0  0  0  0  0  0  0  0  0  0
 17 16  2  0  0  0
 16 15  1  0  0  0
 16 14  1  0  0  0
 16 18  1  0  0  0
 28 27  1  0  0  0
 35 34  1  0  0  0
 29 27  1  0  0  0
 29 30  1  0  0  0
 14 13  1  0  0  0
 34 30  1  0  0  0
 27 25  1  0  0  0
 30 22  1  0  0  0
 13  1  1  0  0  0
 25 26  1  0  0  0
 25 23  1  0  0  0
  1  2  1  0  0  0
  1  3  1  0  0  0
 22 23  1  0  0  0
 22 21  1  0  0  0
  2  9  1  0  0  0
 23 24  1  0  0  0
  4  3  1  0  0  0
  3  5  1  0  0  0
  9 21  1  0  0  0
  9  7  1  0  0  0
  5  7  1  0  0  0
  5  6  1  0  0  0
  7  8  1  0  0  0
 15 19  1  0  0  0
 18 20  1  0  0  0
  4 10  1  0  0  0
  6 11  1  0  0  0
  8 12  1  0  0  0
 24 31  1  0  0  0
 26 32  1  0  0  0
 28 33  1  0  0  0
 35 36  1  0  0  0
M  END
> <minimizedAffinity>
-7.93649

$$$$
4IPN_1FT_B_501


 36 37  0  0  0  0  0  0  0  0999 V2000
   27.5842    0.3406   17.0860 C   0  0  0  0  0  0  0  0  0  0  0  0
   26.2858   -0.0584   16.7523 O   0  0  0  0  0  0  0  0  0  0  0  0
   28.5388    0.6223   15.9178 C   0  0  0  0  0  0  0  0  0  0  0  0
   29.8713    0.3695   16.3664 O   0  0  0  0  0  0  0  0  0  0  0  0
   28.2863   -0.0545   14.6993 C   0  0  0  0  0  0  0  0  0  0  0  0
   28.8918    0.7747   13.6024 O   0  0  0  0  0  0  0  0  0  0  0  0
   26.9093   -0.2804   14.4309 C   0  0  0  0  0  0  0  0  0  0  0  0
   26.7166   -1.1337   13.2870 O   0  0  0  0  0  0  0  0  0  0  0  0
   26.1828   -0.8854   15.6226 C   0  0  0  0  0  0  0  0  0  0  0  0
   29.9643   -0.5696   16.5907 H   0  0  0  0  0  0  0  0  0  0  0  0
   28.4663    1.6462   13.5834 H   0  0  0  0  0  0  0  0  0  0  0  0
   27.0914   -2.0095   13.4701 H   0  0  0  0  0  0  0  0  0  0  0  0
   28.2029   -0.6492   18.0451 C   0  0  0  0  0  0  0  0  0  0  0  0
   27.9289   -0.4329   19.3752 O   0  0  0  0  0  0  0  0  0  0  0  0
   28.7498   -2.3556   20.8248 O   0  0  0  0  0  0  0  0  0  0  0  0
   27.5223   -1.6590   20.2824 P   0  0  0  0  0  0  0  0  0  0  0  0
   26.6938   -1.1475   21.4445 O   0  0  0  0  0  0  0  0  0  0  0  0
   26.7297   -2.6450   19.4582 O   0  0  0  0  0  0  0  0  0  0  0  0
   29.2675   -1.7311   21.3567 H   0  0  0  0  0  0  0  0  0  0  0  0
   26.4776   -3.4004   20.0120 H   0  0  0  0  0  0  0  0  0  0  0  0
   24.4546   -1.2591   15.2478 S   0  0  0  0  0  0  0  0  0  0  0  0
   24.0815   -3.0402   15.4559 C   0  0  0  0  0  0  0  0  0  0  0  0
   23.4043   -3.2253   16.7620 C   0  0  0  0  0  0  0  0  0  0  0  0
   24.3383   -2.8766   17.8179 O   0  0  0  0  0  0  0  0  0  0  0  0
   22.9374   -4.5317   16.9725 C   0  0  0  0  0  0  0  0  0  0  0  0
   22.1598   -4.5980   18.2060 O   0  0  0  0  0  0  0  0  0  0  0  0
   22.0928   -5.0292   15.8301 C   0  0  0  0  0  0  0  0  0  0  0  0
   21.8172   -6.3282   16.0285 O   0  0  0  0  0  0  0  0  0  0  0  0
   22.7569   -4.8596   14.5261 O   0  0  0  0  0  0  0  0  0  0  0  0
   23.2781   -3.5787   14.2957 C   0  0  0  0  0  0  0  0  0  0  0  0
   25.1033   -3.4721   17.7826 H   0  0  0  0  0  0  0  0  0  0  0  0
   21.3814   -4.0244   18.1287 H   0  0  0  0  0  0  0  0  0  0  0  0
   22.6441   -6.8350   16.0466 H   0  0  0  0  0  0  0  0  0  0  0  0
   24.1512   -3.6454   13.0498 C   0  0  0  0  0  0  0  0  0  0  0  0
   25.4991   -3.9411   13.1926 O   0  0  0  0  0  0  0  0  0  0  0  0
   25.5977   -4.8444   13.5320 H   0  0  0  0  0  0  0  0  0  0  0  0
 17 16  2  0  0  0
 16 15  1  0  0  0
 16 14  1  0  0  0
 16 18  1  0  0  0
 28 27  1  0  0  0
 35 34  1  0  0  0
 29 27  1  0  0  0
 29 30  1  0  0  0
 14 13  1  0  0  0
 34 30  1  0  0  0
 27 25  1  0  0  0
 30 22  1  0  0  0
 13  1  1  0  0  0
 25 26  1  0  0  0
 25 23  1  0  0  0
  1  2  1  0  0  0
  1  3  1  0  0  0
 22 23  1  0  0  0
 22 21  1  0  0  0
  2  9  1  0  0  0
 23 24  1  0  0  0
  4  3  1  0  0  0
  3  5  1  0  0  0
  9 21  1  0  0  0
  9  7  1  0  0  0
  5  7  1  0  0  0
  5  6  1  0  0  0
  7  8  1  0  0  0
 15 19  1  0  0  0
 18 20  1  0  0  0
  4 10  1  0  0  0
  6 11  1  0  0  0
  8 12  1  0  0  0
 24 31  1  0  0  0
 26 32  1  0  0  0
 28 33  1  0  0  0
 35 36  1  0  0  0
M  END
> <minimizedAffinity>
-7.86228

$$$$
4IPN_1FT_B_501


 36 37  0  0  0  0  0  0  0  0999 V2000
   23.6574   -4.4375   15.2823 C   0  0  0  0  0  0  0  0  0  0  0  0
   24.1588   -3.3199   15.9575 O   0  0  0  0  0  0  0  0  0  0  0  0
   22.8414   -5.4354   16.1152 C   0  0  0  0  0  0  0  0  0  0  0  0
   22.9756   -6.7246   15.5147 O   0  0  0  0  0  0  0  0  0  0  0  0
   23.1210   -5.5000   17.5023 C   0  0  0  0  0  0  0  0  0  0  0  0
   21.8845   -6.0241   18.1759 O   0  0  0  0  0  0  0  0  0  0  0  0
   23.4975   -4.2581   18.0811 C   0  0  0  0  0  0  0  0  0  0  0  0
   23.9540   -4.4127   19.4380 O   0  0  0  0  0  0  0  0  0  0  0  0
   24.5790   -3.5531   17.2766 C   0  0  0  0  0  0  0  0  0  0  0  0
   23.9026   -7.0069   15.5589 H   0  0  0  0  0  0  0  0  0  0  0  0
   21.1481   -5.4118   18.0218 H   0  0  0  0  0  0  0  0  0  0  0  0
   24.7569   -4.9570   19.4490 H   0  0  0  0  0  0  0  0  0  0  0  0
   24.7726   -5.1485   14.5522 C   0  0  0  0  0  0  0  0  0  0  0  0
   24.6294   -5.2254   13.1867 O   0  0  0  0  0  0  0  0  0  0  0  0
   25.7245   -4.2605   11.1029 O   0  0  0  0  0  0  0  0  0  0  0  0
   24.8835   -3.9333   12.3162 P   0  0  0  0  0  0  0  0  0  0  0  0
   23.5455   -3.3898   11.8547 O   0  0  0  0  0  0  0  0  0  0  0  0
   25.6141   -2.9086   13.1505 O   0  0  0  0  0  0  0  0  0  0  0  0
   25.2646   -4.9187   10.5587 H   0  0  0  0  0  0  0  0  0  0  0  0
   25.7724   -2.1126   12.6193 H   0  0  0  0  0  0  0  0  0  0  0  0
   25.1229   -2.0202   18.0645 S   0  0  0  0  0  0  0  0  0  0  0  0
   26.9193   -1.7398   17.8432 C   0  0  0  0  0  0  0  0  0  0  0  0
   27.1183   -0.9431   16.6086 C   0  0  0  0  0  0  0  0  0  0  0  0
   26.6852   -1.7382   15.4732 O   0  0  0  0  0  0  0  0  0  0  0  0
   28.4473   -0.5396   16.4086 C   0  0  0  0  0  0  0  0  0  0  0  0
   28.5361    0.3566   15.2599 O   0  0  0  0  0  0  0  0  0  0  0  0
   29.0251    0.1484   17.6163 C   0  0  0  0  0  0  0  0  0  0  0  0
   30.3345    0.3611   17.4088 O   0  0  0  0  0  0  0  0  0  0  0  0
   28.8424   -0.6361   18.8497 O   0  0  0  0  0  0  0  0  0  0  0  0
   27.5357   -1.0971   19.0632 C   0  0  0  0  0  0  0  0  0  0  0  0
   27.2300   -2.5385   15.4122 H   0  0  0  0  0  0  0  0  0  0  0  0
   28.0166    1.1572   15.4335 H   0  0  0  0  0  0  0  0  0  0  0  0
   30.7856   -0.4895   17.2910 H   0  0  0  0  0  0  0  0  0  0  0  0
   27.5737   -2.0978   20.2105 C   0  0  0  0  0  0  0  0  0  0  0  0
   28.7351   -2.2115   20.9607 O   0  0  0  0  0  0  0  0  0  0  0  0
   28.8943   -1.3822   21.4379 H   0  0  0  0  0  0  0  0  0  0  0  0
 17 16  2  0  0  0
 16 15  1  0  0  0
 16 14  1  0  0  0
 16 18  1  0  0  0
 28 27  1  0  0  0
 35 34  1  0  0  0
 29 27  1  0  0  0
 29 30  1  0  0  0
 14 13  1  0  0  0
 34 30  1  0  0  0
 27 25  1  0  0  0
 30 22  1  0  0  0
 13  1  1  0  0  0
 25 26  1  0  0  0
 25 23  1  0  0  0
  1  2  1  0  0  0
  1  3  1  0  0  0
 22 23  1  0  0  0
 22 21  1  0  0  0
  2  9  1  0  0  0
 23 24  1  0  0  0
  4  3  1  0  0  0
  3  5  1  0  0  0
  9 21  1  0  0  0
  9  7  1  0  0  0
  5  7  1  0  0  0
  5  6  1  0  0  0
  7  8  1  0  0  0
 15 19  1  0  0  0
 18 20  1  0  0  0
  4 10  1  0  0  0
  6 11  1  0  0  0
  8 12  1  0  0  0
 24 31  1  0  0  0
 26 32  1  0  0  0
 28 33  1  0  0  0
 35 36  1  0  0  0
M  END
> <minimizedAffinity>
-7.73540

$$$$
4IPN_1FT_B_501


 36 37  0  0  0  0  0  0  0  0999 V2000
   26.8272   -1.5205   17.1874 C   0  0  0  0  0  0  0  0  0  0  0  0
   25.5375   -2.0384   17.0289 O   0  0  0  0  0  0  0  0  0  0  0  0
   27.4319   -1.6000   18.5957 C   0  0  0  0  0  0  0  0  0  0  0  0
   28.3625   -0.5255   18.7373 O   0  0  0  0  0  0  0  0  0  0  0  0
   26.5286   -1.6240   19.6865 C   0  0  0  0  0  0  0  0  0  0  0  0
   27.2382   -2.2914   20.8302 O   0  0  0  0  0  0  0  0  0  0  0  0
   25.3057   -2.2960   19.4178 C   0  0  0  0  0  0  0  0  0  0  0  0
   24.3528   -2.1269   20.4841 O   0  0  0  0  0  0  0  0  0  0  0  0
   24.6707   -1.8355   18.1144 C   0  0  0  0  0  0  0  0  0  0  0  0
   27.8916    0.3203   18.6763 H   0  0  0  0  0  0  0  0  0  0  0  0
   27.4699   -3.1998   20.5811 H   0  0  0  0  0  0  0  0  0  0  0  0
   24.1200   -1.1887   20.5640 H   0  0  0  0  0  0  0  0  0  0  0  0
   26.8869   -0.1033   16.6675 C   0  0  0  0  0  0  0  0  0  0  0  0
   27.3204    0.0317   15.3695 O   0  0  0  0  0  0  0  0  0  0  0  0
   29.5788    0.8554   16.2023 O   0  0  0  0  0  0  0  0  0  0  0  0
   28.8705    0.1223   15.0855 P   0  0  0  0  0  0  0  0  0  0  0  0
   29.4281   -1.2843   14.9898 O   0  0  0  0  0  0  0  0  0  0  0  0
   29.0955    0.8720   13.7943 O   0  0  0  0  0  0  0  0  0  0  0  0
   29.4412    0.3823   17.0379 H   0  0  0  0  0  0  0  0  0  0  0  0
   30.0471    0.9301   13.6157 H   0  0  0  0  0  0  0  0  0  0  0  0
   23.0701   -2.6223   17.8221 S   0  0  0  0  0  0  0  0  0  0  0  0
   23.1634   -3.8876   16.5011 C   0  0  0  0  0  0  0  0  0  0  0  0
   23.5668   -3.2176   15.2413 C   0  0  0  0  0  0  0  0  0  0  0  0
   22.5136   -2.2966   14.8524 O   0  0  0  0  0  0  0  0  0  0  0  0
   23.8134   -4.1084   14.1855 C   0  0  0  0  0  0  0  0  0  0  0  0
   24.3433   -3.3894   13.0309 O   0  0  0  0  0  0  0  0  0  0  0  0
   24.7754   -5.2004   14.5700 C   0  0  0  0  0  0  0  0  0  0  0  0
   24.8384   -6.0943   13.5701 O   0  0  0  0  0  0  0  0  0  0  0  0
   24.3822   -5.8811   15.8159 O   0  0  0  0  0  0  0  0  0  0  0  0
   24.0829   -5.0232   16.8835 C   0  0  0  0  0  0  0  0  0  0  0  0
   21.6958   -2.7916   14.6875 H   0  0  0  0  0  0  0  0  0  0  0  0
   25.1914   -2.9813   13.2655 H   0  0  0  0  0  0  0  0  0  0  0  0
   23.9623   -6.4871   13.4319 H   0  0  0  0  0  0  0  0  0  0  0  0
   23.4447   -5.8549   17.9881 C   0  0  0  0  0  0  0  0  0  0  0  0
   23.8531   -5.6529   19.2984 O   0  0  0  0  0  0  0  0  0  0  0  0
   23.6065   -4.7579   19.5796 H   0  0  0  0  0  0  0  0  0  0  0  0
 17 16  2  0  0  0
 16 15  1  0  0  0
 16 14  1  0  0  0
 16 18  1  0  0  0
 28 27  1  0  0  0
 35 34  1  0  0  0
 29 27  1  0  0  0
 29 30  1  0  0  0
 14 13  1  0  0  0
 34 30  1  0  0  0
 27 25  1  0  0  0
 30 22  1  0  0  0
 13  1  1  0  0  0
 25 26  1  0  0  0
 25 23  1  0  0  0
  1  2  1  0  0  0
  1  3  1  0  0  0
 22 23  1  0  0  0
 22 21  1  0  0  0
  2  9  1  0  0  0
 23 24  1  0  0  0
  4  3  1  0  0  0
  3  5  1  0  0  0
  9 21  1  0  0  0
  9  7  1  0  0  0
  5  7  1  0  0  0
  5  6  1  0  0  0
  7  8  1  0  0  0
 15 19  1  0  0  0
 18 20  1  0  0  0
  4 10  1  0  0  0
  6 11  1  0  0  0
  8 12  1  0  0  0
 24 31  1  0  0  0
 26 32  1  0  0  0
 28 33  1  0  0  0
 35 36  1  0  0  0
M  END
> <minimizedAffinity>
-7.67109

$$$$
4IPN_1FT_B_501


 36 37  0  0  0  0  0  0  0  0999 V2000
   26.9671   -1.1782   16.5459 C   0  0  0  0  0  0  0  0  0  0  0  0
   25.8563   -1.8695   16.0513 O   0  0  0  0  0  0  0  0  0  0  0  0
   27.1907   -1.2315   18.0633 C   0  0  0  0  0  0  0  0  0  0  0  0
   27.8793   -0.0411   18.4497 O   0  0  0  0  0  0  0  0  0  0  0  0
   26.0497   -1.4340   18.8779 C   0  0  0  0  0  0  0  0  0  0  0  0
   26.5308   -2.0417   20.1649 O   0  0  0  0  0  0  0  0  0  0  0  0
   25.0544   -2.2632   18.2939 C   0  0  0  0  0  0  0  0  0  0  0  0
   23.8433   -2.2809   19.0727 O   0  0  0  0  0  0  0  0  0  0  0  0
   24.7172   -1.8422   16.8715 C   0  0  0  0  0  0  0  0  0  0  0  0
   27.3181    0.7296   18.2709 H   0  0  0  0  0  0  0  0  0  0  0  0
   26.9536   -2.8952   19.9814 H   0  0  0  0  0  0  0  0  0  0  0  0
   23.4588   -1.3906   19.0929 H   0  0  0  0  0  0  0  0  0  0  0  0
   26.9448    0.2543   16.0666 C   0  0  0  0  0  0  0  0  0  0  0  0
   28.1017    0.6946   15.4678 O   0  0  0  0  0  0  0  0  0  0  0  0
   29.2912    0.9524   13.2338 O   0  0  0  0  0  0  0  0  0  0  0  0
   28.6109   -0.0295   14.1609 P   0  0  0  0  0  0  0  0  0  0  0  0
   29.6070   -1.1013   14.5581 O   0  0  0  0  0  0  0  0  0  0  0  0
   27.4326   -0.6399   13.4405 O   0  0  0  0  0  0  0  0  0  0  0  0
   30.0508    1.3514   13.6863 H   0  0  0  0  0  0  0  0  0  0  0  0
   27.7411   -1.0861   12.6364 H   0  0  0  0  0  0  0  0  0  0  0  0
   23.3851   -2.8385   16.1648 S   0  0  0  0  0  0  0  0  0  0  0  0
   23.6372   -4.6272   16.4672 C   0  0  0  0  0  0  0  0  0  0  0  0
   22.4629   -5.1445   17.2102 C   0  0  0  0  0  0  0  0  0  0  0  0
   22.4283   -4.5095   18.5158 O   0  0  0  0  0  0  0  0  0  0  0  0
   22.4720   -6.5380   17.3755 C   0  0  0  0  0  0  0  0  0  0  0  0
   21.2215   -6.9832   17.9827 O   0  0  0  0  0  0  0  0  0  0  0  0
   22.6757   -7.2679   16.0749 C   0  0  0  0  0  0  0  0  0  0  0  0
   22.8306   -8.5765   16.3319 O   0  0  0  0  0  0  0  0  0  0  0  0
   23.8448   -6.7700   15.3295 O   0  0  0  0  0  0  0  0  0  0  0  0
   23.8963   -5.3768   15.1818 C   0  0  0  0  0  0  0  0  0  0  0  0
   23.2299   -4.7422   19.0098 H   0  0  0  0  0  0  0  0  0  0  0  0
   20.4817   -6.7695   17.3929 H   0  0  0  0  0  0  0  0  0  0  0  0
   23.6156   -8.7063   16.8867 H   0  0  0  0  0  0  0  0  0  0  0  0
   25.2727   -5.0137   14.6407 C   0  0  0  0  0  0  0  0  0  0  0  0
   25.3858   -3.9456   13.7627 O   0  0  0  0  0  0  0  0  0  0  0  0
   25.1483   -3.1241   14.2206 H   0  0  0  0  0  0  0  0  0  0  0  0
 17 16  2  0  0  0
 16 15  1  0  0  0
 16 14  1  0  0  0
 16 18  1  0  0  0
 28 27  1  0  0  0
 35 34  1  0  0  0
 29 27  1  0  0  0
 29 30  1  0  0  0
 14 13  1  0  0  0
 34 30  1  0  0  0
 27 25  1  0  0  0
 30 22  1  0  0  0
 13  1  1  0  0  0
 25 26  1  0  0  0
 25 23  1  0  0  0
  1  2  1  0  0  0
  1  3  1  0  0  0
 22 23  1  0  0  0
 22 21  1  0  0  0
  2  9  1  0  0  0
 23 24  1  0  0  0
  4  3  1  0  0  0
  3  5  1  0  0  0
  9 21  1  0  0  0
  9  7  1  0  0  0
  5  7  1  0  0  0
  5  6  1  0  0  0
  7  8  1  0  0  0
 15 19  1  0  0  0
 18 20  1  0  0  0
  4 10  1  0  0  0
  6 11  1  0  0  0
  8 12  1  0  0  0
 24 31  1  0  0  0
 26 32  1  0  0  0
 28 33  1  0  0  0
 35 36  1  0  0  0
M  END
> <minimizedAffinity>
-7.60309

$$$$
4IPN_1FT_B_501


 36 37  0  0  0  0  0  0  0  0999 V2000
   23.7043   -5.1661   16.7082 C   0  0  0  0  0  0  0  0  0  0  0  0
   23.8727   -3.7985   16.9485 O   0  0  0  0  0  0  0  0  0  0  0  0
   24.5175   -5.7667   15.5535 C   0  0  0  0  0  0  0  0  0  0  0  0
   23.7960   -6.8890   15.0430 O   0  0  0  0  0  0  0  0  0  0  0  0
   24.8895   -4.8932   14.5022 C   0  0  0  0  0  0  0  0  0  0  0  0
   26.1126   -5.4792   13.8559 O   0  0  0  0  0  0  0  0  0  0  0  0
   25.1531   -3.5597   14.9161 C   0  0  0  0  0  0  0  0  0  0  0  0
   25.3370   -2.6743   13.7954 O   0  0  0  0  0  0  0  0  0  0  0  0
   24.0500   -3.0045   15.8044 C   0  0  0  0  0  0  0  0  0  0  0  0
   22.9517   -6.5888   14.6716 H   0  0  0  0  0  0  0  0  0  0  0  0
   26.8304   -5.5276   14.5065 H   0  0  0  0  0  0  0  0  0  0  0  0
   24.5155   -2.6279   13.2818 H   0  0  0  0  0  0  0  0  0  0  0  0
   22.2378   -5.4893   16.5438 C   0  0  0  0  0  0  0  0  0  0  0  0
   21.7090   -6.3322   17.4930 O   0  0  0  0  0  0  0  0  0  0  0  0
   20.9489   -7.9028   15.6415 O   0  0  0  0  0  0  0  0  0  0  0  0
   21.3698   -7.8207   17.0915 P   0  0  0  0  0  0  0  0  0  0  0  0
   22.6091   -8.6706   17.2924 O   0  0  0  0  0  0  0  0  0  0  0  0
   20.2364   -8.3215   17.9544 O   0  0  0  0  0  0  0  0  0  0  0  0
   21.6701   -7.5833   15.0769 H   0  0  0  0  0  0  0  0  0  0  0  0
   20.0246   -9.2362   17.7110 H   0  0  0  0  0  0  0  0  0  0  0  0
   24.3411   -1.2778   16.2520 S   0  0  0  0  0  0  0  0  0  0  0  0
   25.2794   -1.1282   17.8179 C   0  0  0  0  0  0  0  0  0  0  0  0
   24.7034   -2.0789   18.7993 C   0  0  0  0  0  0  0  0  0  0  0  0
   23.3432   -1.6659   19.0961 O   0  0  0  0  0  0  0  0  0  0  0  0
   25.4317   -2.1609   19.9959 C   0  0  0  0  0  0  0  0  0  0  0  0
   24.8900   -3.2167   20.8460 O   0  0  0  0  0  0  0  0  0  0  0  0
   26.8953   -2.4211   19.7592 C   0  0  0  0  0  0  0  0  0  0  0  0
   27.5467   -2.3292   20.9296 O   0  0  0  0  0  0  0  0  0  0  0  0
   27.4833   -1.4780   18.7922 O   0  0  0  0  0  0  0  0  0  0  0  0
   26.7599   -1.3331   17.6001 C   0  0  0  0  0  0  0  0  0  0  0  0
   23.3535   -0.7822   19.4958 H   0  0  0  0  0  0  0  0  0  0  0  0
   24.9799   -4.0716   20.3967 H   0  0  0  0  0  0  0  0  0  0  0  0
   27.4447   -1.4332   21.2869 H   0  0  0  0  0  0  0  0  0  0  0  0
   27.3394   -0.1465   16.8418 C   0  0  0  0  0  0  0  0  0  0  0  0
   27.1033    1.1337   17.3213 O   0  0  0  0  0  0  0  0  0  0  0  0
   27.5351    1.2408   18.1833 H   0  0  0  0  0  0  0  0  0  0  0  0
 17 16  2  0  0  0
 16 15  1  0  0  0
 16 14  1  0  0  0
 16 18  1  0  0  0
 28 27  1  0  0  0
 35 34  1  0  0  0
 29 27  1  0  0  0
 29 30  1  0  0  0
 14 13  1  0  0  0
 34 30  1  0  0  0
 27 25  1  0  0  0
 30 22  1  0  0  0
 13  1  1  0  0  0
 25 26  1  0  0  0
 25 23  1  0  0  0
  1  2  1  0  0  0
  1  3  1  0  0  0
 22 23  1  0  0  0
 22 21  1  0  0  0
  2  9  1  0  0  0
 23 24  1  0  0  0
  4  3  1  0  0  0
  3  5  1  0  0  0
  9 21  1  0  0  0
  9  7  1  0  0  0
  5  7  1  0  0  0
  5  6  1  0  0  0
  7  8  1  0  0  0
 15 19  1  0  0  0
 18 20  1  0  0  0
  4 10  1  0  0  0
  6 11  1  0  0  0
  8 12  1  0  0  0
 24 31  1  0  0  0
 26 32  1  0  0  0
 28 33  1  0  0  0
 35 36  1  0  0  0
M  END
> <minimizedAffinity>
-7.49040

$$$$
4IPN_1FT_B_501


 36 37  0  0  0  0  0  0  0  0999 V2000
   25.6834   -0.2089   14.2240 C   0  0  0  0  0  0  0  0  0  0  0  0
   24.4101   -0.5647   14.6807 O   0  0  0  0  0  0  0  0  0  0  0  0
   26.2010   -0.9497   12.9835 C   0  0  0  0  0  0  0  0  0  0  0  0
   27.6279   -0.9737   13.0476 O   0  0  0  0  0  0  0  0  0  0  0  0
   25.6907   -2.2498   12.7475 C   0  0  0  0  0  0  0  0  0  0  0  0
   25.8261   -2.5144   11.2748 O   0  0  0  0  0  0  0  0  0  0  0  0
   24.3394   -2.4290   13.1488 C   0  0  0  0  0  0  0  0  0  0  0  0
   23.9314   -3.8075   13.0666 O   0  0  0  0  0  0  0  0  0  0  0  0
   24.0876   -1.9259   14.5621 C   0  0  0  0  0  0  0  0  0  0  0  0
   27.9082   -1.4850   13.8229 H   0  0  0  0  0  0  0  0  0  0  0  0
   25.3016   -1.8655   10.7801 H   0  0  0  0  0  0  0  0  0  0  0  0
   24.4574   -4.3378   13.6856 H   0  0  0  0  0  0  0  0  0  0  0  0
   26.6858   -0.3031   15.3503 C   0  0  0  0  0  0  0  0  0  0  0  0
   27.6216    0.7036   15.3935 O   0  0  0  0  0  0  0  0  0  0  0  0
   30.0733    1.3832   15.3958 O   0  0  0  0  0  0  0  0  0  0  0  0
   29.0735    0.3773   15.9201 P   0  0  0  0  0  0  0  0  0  0  0  0
   29.0639    0.4378   17.4350 O   0  0  0  0  0  0  0  0  0  0  0  0
   29.4759   -0.9986   15.4458 O   0  0  0  0  0  0  0  0  0  0  0  0
   29.8247    2.2720   15.6945 H   0  0  0  0  0  0  0  0  0  0  0  0
   30.3679   -1.2034   15.7673 H   0  0  0  0  0  0  0  0  0  0  0  0
   22.3925   -2.2405   15.1046 S   0  0  0  0  0  0  0  0  0  0  0  0
   22.3409   -3.2722   16.6170 C   0  0  0  0  0  0  0  0  0  0  0  0
   22.5179   -4.6900   16.2206 C   0  0  0  0  0  0  0  0  0  0  0  0
   21.3774   -5.0881   15.4144 O   0  0  0  0  0  0  0  0  0  0  0  0
   22.6411   -5.5666   17.3094 C   0  0  0  0  0  0  0  0  0  0  0  0
   22.9566   -6.9127   16.8415 O   0  0  0  0  0  0  0  0  0  0  0  0
   23.6984   -5.1234   18.2849 C   0  0  0  0  0  0  0  0  0  0  0  0
   23.6489   -5.9162   19.3674 O   0  0  0  0  0  0  0  0  0  0  0  0
   23.5299   -3.7184   18.6946 O   0  0  0  0  0  0  0  0  0  0  0  0
   23.3580   -2.8155   17.6360 C   0  0  0  0  0  0  0  0  0  0  0  0
   20.5672   -5.0168   15.9429 H   0  0  0  0  0  0  0  0  0  0  0  0
   23.8113   -6.9035   16.3829 H   0  0  0  0  0  0  0  0  0  0  0  0
   22.7806   -5.8310   19.7911 H   0  0  0  0  0  0  0  0  0  0  0  0
   22.9329   -1.4775   18.2260 C   0  0  0  0  0  0  0  0  0  0  0  0
   22.9084   -1.3323   19.6054 O   0  0  0  0  0  0  0  0  0  0  0  0
   23.8104   -1.4061   19.9544 H   0  0  0  0  0  0  0  0  0  0  0  0
 17 16  2  0  0  0
 16 15  1  0  0  0
 16 14  1  0  0  0
 16 18  1  0  0  0
 28 27  1  0  0  0
 35 34  1  0  0  0
 29 27  1  0  0  0
 29 30  1  0  0  0
 14 13  1  0  0  0
 34 30  1  0  0  0
 27 25  1  0  0  0
 30 22  1  0  0  0
 13  1  1  0  0  0
 25 26  1  0  0  0
 25 23  1  0  0  0
  1  2  1  0  0  0
  1  3  1  0  0  0
 22 23  1  0  0  0
 22 21  1  0  0  0
  2  9  1  0  0  0
 23 24  1  0  0  0
  4  3  1  0  0  0
  3  5  1  0  0  0
  9 21  1  0  0  0
  9  7  1  0  0  0
  5  7  1  0  0  0
  5  6  1  0  0  0
  7  8  1  0  0  0
 15 19  1  0  0  0
 18 20  1  0  0  0
  4 10  1  0  0  0
  6 11  1  0  0  0
  8 12  1  0  0  0
 24 31  1  0  0  0
 26 32  1  0  0  0
 28 33  1  0  0  0
 35 36  1  0  0  0
M  END
> <minimizedAffinity>
-7.40400

$$$$
