3T0B_IPT_A_2001


 19 19  0  0  0  0  0  0  0  0999 V2000
  -15.0177  -27.5727  -26.4751 C   0  0  0  0  0  0  0  0  0  0  0  0
  -13.8930  -27.3188  -25.4595 C   0  0  0  0  0  0  0  0  0  0  0  0
  -14.2528  -26.2827  -24.5524 O   0  0  0  0  0  0  0  0  0  0  0  0
  -12.5622  -26.9557  -26.1248 C   0  0  0  0  0  0  0  0  0  0  0  0
  -11.5216  -26.9519  -25.1447 O   0  0  0  0  0  0  0  0  0  0  0  0
  -12.2173  -27.9509  -27.2309 C   0  0  0  0  0  0  0  0  0  0  0  0
  -11.8669  -29.2160  -26.6417 O   0  0  0  0  0  0  0  0  0  0  0  0
  -13.4257  -28.0676  -28.1696 C   0  0  0  0  0  0  0  0  0  0  0  0
  -14.5524  -28.5290  -27.4302 O   0  0  0  0  0  0  0  0  0  0  0  0
  -14.3714  -25.4526  -25.0402 H   0  0  0  0  0  0  0  0  0  0  0  0
  -11.4419  -27.8363  -24.7543 H   0  0  0  0  0  0  0  0  0  0  0  0
  -12.6123  -29.5452  -26.1155 H   0  0  0  0  0  0  0  0  0  0  0  0
  -13.2413  -28.9970  -29.3574 C   0  0  0  0  0  0  0  0  0  0  0  0
  -11.8617  -29.1097  -29.7157 O   0  0  0  0  0  0  0  0  0  0  0  0
  -11.5195  -28.2365  -29.9632 H   0  0  0  0  0  0  0  0  0  0  0  0
  -16.4330  -28.2461  -25.6522 S   0  0  0  0  0  0  0  0  0  0  0  0
  -17.9798  -27.9485  -26.4723 C   0  0  0  0  0  0  0  0  0  0  0  0
  -17.9911  -28.6636  -27.8220 C   0  0  0  0  0  0  0  0  0  0  0  0
  -19.2109  -28.3018  -25.6399 C   0  0  0  0  0  0  0  0  0  0  0  0
  1  2  1  0  0  0
  1  9  1  0  0  0
  1 16  1  0  0  0
  2  3  1  0  0  0
  2  4  1  0  0  0
  4  5  1  0  0  0
  4  6  1  0  0  0
  6  7  1  0  0  0
  6  8  1  0  0  0
  8  9  1  0  0  0
  8 13  1  0  0  0
 13 14  1  0  0  0
 16 17  1  0  0  0
 17 18  1  0  0  0
 17 19  1  0  0  0
  3 10  1  0  0  0
  5 11  1  0  0  0
  7 12  1  0  0  0
 14 15  1  0  0  0
M  END
> <minimizedAffinity>
-7.54196

$$$$
3T0B_IPT_A_2001


 19 19  0  0  0  0  0  0  0  0999 V2000
  -13.7968  -28.3718  -26.5080 C   0  0  0  0  0  0  0  0  0  0  0  0
  -13.5027  -28.3623  -28.0161 C   0  0  0  0  0  0  0  0  0  0  0  0
  -14.5596  -28.9792  -28.7429 O   0  0  0  0  0  0  0  0  0  0  0  0
  -12.1853  -29.0588  -28.3692 C   0  0  0  0  0  0  0  0  0  0  0  0
  -11.8702  -28.8204  -29.7429 O   0  0  0  0  0  0  0  0  0  0  0  0
  -11.0466  -28.5478  -27.4887 C   0  0  0  0  0  0  0  0  0  0  0  0
  -10.7245  -27.1962  -27.8625 O   0  0  0  0  0  0  0  0  0  0  0  0
  -11.4866  -28.6506  -26.0221 C   0  0  0  0  0  0  0  0  0  0  0  0
  -12.6523  -27.8561  -25.8244 O   0  0  0  0  0  0  0  0  0  0  0  0
  -14.6281  -29.9118  -28.4850 H   0  0  0  0  0  0  0  0  0  0  0  0
  -11.7661  -27.8672  -29.8901 H   0  0  0  0  0  0  0  0  0  0  0  0
  -11.5086  -26.6354  -27.7549 H   0  0  0  0  0  0  0  0  0  0  0  0
  -10.4517  -28.2142  -24.9988 C   0  0  0  0  0  0  0  0  0  0  0  0
   -9.1417  -28.1811  -25.5708 O   0  0  0  0  0  0  0  0  0  0  0  0
   -8.9013  -29.0686  -25.8796 H   0  0  0  0  0  0  0  0  0  0  0  0
  -15.1789  -27.3231  -26.1562 S   0  0  0  0  0  0  0  0  0  0  0  0
  -16.7318  -28.1699  -25.9982 C   0  0  0  0  0  0  0  0  0  0  0  0
  -17.6267  -27.4215  -25.0122 C   0  0  0  0  0  0  0  0  0  0  0  0
  -17.4472  -28.4236  -27.3239 C   0  0  0  0  0  0  0  0  0  0  0  0
  1  2  1  0  0  0
  1  9  1  0  0  0
  1 16  1  0  0  0
  2  3  1  0  0  0
  2  4  1  0  0  0
  4  5  1  0  0  0
  4  6  1  0  0  0
  6  7  1  0  0  0
  6  8  1  0  0  0
  8  9  1  0  0  0
  8 13  1  0  0  0
 13 14  1  0  0  0
 16 17  1  0  0  0
 17 18  1  0  0  0
 17 19  1  0  0  0
  3 10  1  0  0  0
  5 11  1  0  0  0
  7 12  1  0  0  0
 14 15  1  0  0  0
M  END
> <minimizedAffinity>
-7.20049

$$$$
3T0B_IPT_A_2001


 19 19  0  0  0  0  0  0  0  0999 V2000
  -13.5472  -27.7901  -25.6621 C   0  0  0  0  0  0  0  0  0  0  0  0
  -13.8716  -27.8141  -27.1637 C   0  0  0  0  0  0  0  0  0  0  0  0
  -15.2318  -28.1711  -27.3832 O   0  0  0  0  0  0  0  0  0  0  0  0
  -12.9738  -28.7734  -27.9505 C   0  0  0  0  0  0  0  0  0  0  0  0
  -13.1791  -28.5813  -29.3521 O   0  0  0  0  0  0  0  0  0  0  0  0
  -11.5021  -28.5407  -27.6142 C   0  0  0  0  0  0  0  0  0  0  0  0
  -11.0782  -27.2843  -28.1729 O   0  0  0  0  0  0  0  0  0  0  0  0
  -11.3442  -28.5751  -26.0880 C   0  0  0  0  0  0  0  0  0  0  0  0
  -12.1463  -27.5500  -25.5094 O   0  0  0  0  0  0  0  0  0  0  0  0
  -15.3865  -29.0714  -27.0571 H   0  0  0  0  0  0  0  0  0  0  0  0
  -12.9450  -27.6710  -29.5914 H   0  0  0  0  0  0  0  0  0  0  0  0
  -11.6222  -26.5685  -27.8087 H   0  0  0  0  0  0  0  0  0  0  0  0
   -9.9253  -28.3956  -25.5752 C   0  0  0  0  0  0  0  0  0  0  0  0
   -9.9090  -27.6676  -24.3447 O   0  0  0  0  0  0  0  0  0  0  0  0
  -10.2900  -26.7867  -24.4851 H   0  0  0  0  0  0  0  0  0  0  0  0
  -14.4301  -26.4729  -24.8750 S   0  0  0  0  0  0  0  0  0  0  0  0
  -15.9296  -26.9666  -24.0618 C   0  0  0  0  0  0  0  0  0  0  0  0
  -16.0365  -26.2626  -22.7104 C   0  0  0  0  0  0  0  0  0  0  0  0
  -17.1926  -26.7697  -24.8982 C   0  0  0  0  0  0  0  0  0  0  0  0
  1  2  1  0  0  0
  1  9  1  0  0  0
  1 16  1  0  0  0
  2  3  1  0  0  0
  2  4  1  0  0  0
  4  5  1  0  0  0
  4  6  1  0  0  0
  6  7  1  0  0  0
  6  8  1  0  0  0
  8  9  1  0  0  0
  8 13  1  0  0  0
 13 14  1  0  0  0
 16 17  1  0  0  0
 17 18  1  0  0  0
 17 19  1  0  0  0
  3 10  1  0  0  0
  5 11  1  0  0  0
  7 12  1  0  0  0
 14 15  1  0  0  0
M  END
> <minimizedAffinity>
-6.88182

$$$$
3T0B_IPT_A_2001


 19 19  0  0  0  0  0  0  0  0999 V2000
  -14.7256  -28.0977  -25.9578 C   0  0  0  0  0  0  0  0  0  0  0  0
  -14.9409  -28.0405  -27.4781 C   0  0  0  0  0  0  0  0  0  0  0  0
  -16.2047  -28.5911  -27.8326 O   0  0  0  0  0  0  0  0  0  0  0  0
  -13.8451  -28.7690  -28.2614 C   0  0  0  0  0  0  0  0  0  0  0  0
  -13.9860  -28.4892  -29.6561 O   0  0  0  0  0  0  0  0  0  0  0  0
  -12.4587  -28.3331  -27.7914 C   0  0  0  0  0  0  0  0  0  0  0  0
  -12.2147  -26.9803  -28.2167 O   0  0  0  0  0  0  0  0  0  0  0  0
  -12.3990  -28.4767  -26.2646 C   0  0  0  0  0  0  0  0  0  0  0  0
  -13.3979  -27.6496  -25.6754 O   0  0  0  0  0  0  0  0  0  0  0  0
  -16.2280  -29.5299  -27.5896 H   0  0  0  0  0  0  0  0  0  0  0  0
  -13.8920  -27.5354  -29.8056 H   0  0  0  0  0  0  0  0  0  0  0  0
  -12.8937  -26.3966  -27.8436 H   0  0  0  0  0  0  0  0  0  0  0  0
  -11.0674  -28.1171  -25.6275 C   0  0  0  0  0  0  0  0  0  0  0  0
  -11.1768  -26.9312  -24.8363 O   0  0  0  0  0  0  0  0  0  0  0  0
  -11.4484  -26.1902  -25.4002 H   0  0  0  0  0  0  0  0  0  0  0  0
  -15.8667  -27.0149  -25.1457 S   0  0  0  0  0  0  0  0  0  0  0  0
  -15.1919  -26.1270  -23.7637 C   0  0  0  0  0  0  0  0  0  0  0  0
  -14.8869  -24.6885  -24.1772 C   0  0  0  0  0  0  0  0  0  0  0  0
  -16.0529  -26.1777  -22.5029 C   0  0  0  0  0  0  0  0  0  0  0  0
  1  2  1  0  0  0
  1  9  1  0  0  0
  1 16  1  0  0  0
  2  3  1  0  0  0
  2  4  1  0  0  0
  4  5  1  0  0  0
  4  6  1  0  0  0
  6  7  1  0  0  0
  6  8  1  0  0  0
  8  9  1  0  0  0
  8 13  1  0  0  0
 13 14  1  0  0  0
 16 17  1  0  0  0
 17 18  1  0  0  0
 17 19  1  0  0  0
  3 10  1  0  0  0
  5 11  1  0  0  0
  7 12  1  0  0  0
 14 15  1  0  0  0
M  END
> <minimizedAffinity>
-6.46338

$$$$
3T0B_IPT_A_2001


 19 19  0  0  0  0  0  0  0  0999 V2000
  -15.8353  -27.8035  -25.9401 C   0  0  0  0  0  0  0  0  0  0  0  0
  -14.5670  -27.8211  -25.0730 C   0  0  0  0  0  0  0  0  0  0  0  0
  -14.6955  -26.9332  -23.9680 O   0  0  0  0  0  0  0  0  0  0  0  0
  -13.3045  -27.4555  -25.8590 C   0  0  0  0  0  0  0  0  0  0  0  0
  -12.1496  -27.7056  -25.0544 O   0  0  0  0  0  0  0  0  0  0  0  0
  -13.2125  -28.2674  -27.1494 C   0  0  0  0  0  0  0  0  0  0  0  0
  -12.9209  -29.6397  -26.8295 O   0  0  0  0  0  0  0  0  0  0  0  0
  -14.5391  -28.1219  -27.9072 C   0  0  0  0  0  0  0  0  0  0  0  0
  -15.6008  -28.6132  -27.0946 O   0  0  0  0  0  0  0  0  0  0  0  0
  -14.7903  -26.0242  -24.2930 H   0  0  0  0  0  0  0  0  0  0  0  0
  -12.1116  -28.6479  -24.8276 H   0  0  0  0  0  0  0  0  0  0  0  0
  -13.6211  -29.9946  -26.2597 H   0  0  0  0  0  0  0  0  0  0  0  0
  -14.6092  -28.8421  -29.2432 C   0  0  0  0  0  0  0  0  0  0  0  0
  -13.8919  -30.0783  -29.2019 O   0  0  0  0  0  0  0  0  0  0  0  0
  -12.9583  -29.9039  -29.0047 H   0  0  0  0  0  0  0  0  0  0  0  0
  -17.1927  -28.4944  -25.0379 S   0  0  0  0  0  0  0  0  0  0  0  0
  -18.1015  -27.3273  -24.0553 C   0  0  0  0  0  0  0  0  0  0  0  0
  -17.9555  -27.6781  -22.5758 C   0  0  0  0  0  0  0  0  0  0  0  0
  -17.7438  -25.8666  -24.3233 C   0  0  0  0  0  0  0  0  0  0  0  0
  1  2  1  0  0  0
  1  9  1  0  0  0
  1 16  1  0  0  0
  2  3  1  0  0  0
  2  4  1  0  0  0
  4  5  1  0  0  0
  4  6  1  0  0  0
  6  7  1  0  0  0
  6  8  1  0  0  0
  8  9  1  0  0  0
  8 13  1  0  0  0
 13 14  1  0  0  0
 16 17  1  0  0  0
 17 18  1  0  0  0
 17 19  1  0  0  0
  3 10  1  0  0  0
  5 11  1  0  0  0
  7 12  1  0  0  0
 14 15  1  0  0  0
M  END
> <minimizedAffinity>
-6.06221

$$$$
3T0B_IPT_A_2001


 19 19  0  0  0  0  0  0  0  0999 V2000
  -14.6096  -26.7743  -25.4574 C   0  0  0  0  0  0  0  0  0  0  0  0
  -15.3735  -27.8335  -24.6478 C   0  0  0  0  0  0  0  0  0  0  0  0
  -15.7592  -28.9245  -25.4764 O   0  0  0  0  0  0  0  0  0  0  0  0
  -16.6191  -27.2699  -23.9578 C   0  0  0  0  0  0  0  0  0  0  0  0
  -17.1488  -28.2435  -23.0549 O   0  0  0  0  0  0  0  0  0  0  0  0
  -16.2852  -25.9918  -23.1910 C   0  0  0  0  0  0  0  0  0  0  0  0
  -15.4873  -26.3211  -22.0398 O   0  0  0  0  0  0  0  0  0  0  0  0
  -15.5557  -25.0342  -24.1429 C   0  0  0  0  0  0  0  0  0  0  0  0
  -14.3595  -25.6533  -24.6065 O   0  0  0  0  0  0  0  0  0  0  0  0
  -16.3717  -28.6107  -26.1600 H   0  0  0  0  0  0  0  0  0  0  0  0
  -16.4861  -28.4506  -22.3776 H   0  0  0  0  0  0  0  0  0  0  0  0
  -14.6724  -26.7621  -22.3267 H   0  0  0  0  0  0  0  0  0  0  0  0
  -15.1782  -23.6873  -23.5497 C   0  0  0  0  0  0  0  0  0  0  0  0
  -15.8369  -23.4707  -22.2992 O   0  0  0  0  0  0  0  0  0  0  0  0
  -16.7974  -23.4796  -22.4339 H   0  0  0  0  0  0  0  0  0  0  0  0
  -13.0544  -27.4294  -25.9923 S   0  0  0  0  0  0  0  0  0  0  0  0
  -12.8678  -27.5537  -27.7539 C   0  0  0  0  0  0  0  0  0  0  0  0
  -11.4258  -27.9267  -28.0924 C   0  0  0  0  0  0  0  0  0  0  0  0
  -13.8638  -28.4965  -28.4266 C   0  0  0  0  0  0  0  0  0  0  0  0
  1  2  1  0  0  0
  1  9  1  0  0  0
  1 16  1  0  0  0
  2  3  1  0  0  0
  2  4  1  0  0  0
  4  5  1  0  0  0
  4  6  1  0  0  0
  6  7  1  0  0  0
  6  8  1  0  0  0
  8  9  1  0  0  0
  8 13  1  0  0  0
 13 14  1  0  0  0
 16 17  1  0  0  0
 17 18  1  0  0  0
 17 19  1  0  0  0
  3 10  1  0  0  0
  5 11  1  0  0  0
  7 12  1  0  0  0
 14 15  1  0  0  0
M  END
> <minimizedAffinity>
-6.01169

$$$$
3T0B_IPT_A_2001


 19 19  0  0  0  0  0  0  0  0999 V2000
  -14.2913  -27.3551  -25.7940 C   0  0  0  0  0  0  0  0  0  0  0  0
  -15.5377  -28.1159  -26.2721 C   0  0  0  0  0  0  0  0  0  0  0  0
  -15.4125  -28.4852  -27.6410 O   0  0  0  0  0  0  0  0  0  0  0  0
  -16.8296  -27.3139  -26.0907 C   0  0  0  0  0  0  0  0  0  0  0  0
  -17.9564  -28.1560  -26.3453 O   0  0  0  0  0  0  0  0  0  0  0  0
  -16.9250  -26.7486  -24.6750 C   0  0  0  0  0  0  0  0  0  0  0  0
  -17.1637  -27.8228  -23.7478 O   0  0  0  0  0  0  0  0  0  0  0  0
  -15.6222  -25.9991  -24.3654 C   0  0  0  0  0  0  0  0  0  0  0  0
  -14.5260  -26.9040  -24.4580 O   0  0  0  0  0  0  0  0  0  0  0  0
  -15.3554  -27.6859  -28.1876 H   0  0  0  0  0  0  0  0  0  0  0  0
  -17.9581  -28.8932  -25.7149 H   0  0  0  0  0  0  0  0  0  0  0  0
  -16.4390  -28.4652  -23.8038 H   0  0  0  0  0  0  0  0  0  0  0  0
  -15.5598  -25.3370  -22.9993 C   0  0  0  0  0  0  0  0  0  0  0  0
  -15.2231  -26.2831  -21.9816 O   0  0  0  0  0  0  0  0  0  0  0  0
  -15.9009  -26.9761  -21.9474 H   0  0  0  0  0  0  0  0  0  0  0  0
  -12.8911  -28.4382  -25.7815 S   0  0  0  0  0  0  0  0  0  0  0  0
  -11.4648  -27.8171  -26.6378 C   0  0  0  0  0  0  0  0  0  0  0  0
  -10.2248  -28.5952  -26.2015 C   0  0  0  0  0  0  0  0  0  0  0  0
  -11.6056  -27.7932  -28.1587 C   0  0  0  0  0  0  0  0  0  0  0  0
  1  2  1  0  0  0
  1  9  1  0  0  0
  1 16  1  0  0  0
  2  3  1  0  0  0
  2  4  1  0  0  0
  4  5  1  0  0  0
  4  6  1  0  0  0
  6  7  1  0  0  0
  6  8  1  0  0  0
  8  9  1  0  0  0
  8 13  1  0  0  0
 13 14  1  0  0  0
 16 17  1  0  0  0
 17 18  1  0  0  0
 17 19  1  0  0  0
  3 10  1  0  0  0
  5 11  1  0  0  0
  7 12  1  0  0  0
 14 15  1  0  0  0
M  END
> <minimizedAffinity>
-5.89817

$$$$
3T0B_IPT_A_2001


 19 19  0  0  0  0  0  0  0  0999 V2000
  -16.7534  -27.5415  -26.1456 C   0  0  0  0  0  0  0  0  0  0  0  0
  -16.2710  -26.8359  -24.8688 C   0  0  0  0  0  0  0  0  0  0  0  0
  -17.2280  -25.8805  -24.4247 O   0  0  0  0  0  0  0  0  0  0  0  0
  -14.9201  -26.1376  -25.0498 C   0  0  0  0  0  0  0  0  0  0  0  0
  -14.4336  -25.6981  -23.7796 O   0  0  0  0  0  0  0  0  0  0  0  0
  -13.9014  -27.0801  -25.6877 C   0  0  0  0  0  0  0  0  0  0  0  0
  -13.5335  -28.0973  -24.7388 O   0  0  0  0  0  0  0  0  0  0  0  0
  -14.5234  -27.6753  -26.9582 C   0  0  0  0  0  0  0  0  0  0  0  0
  -15.7040  -28.3930  -26.6116 O   0  0  0  0  0  0  0  0  0  0  0  0
  -17.3294  -25.1881  -25.0964 H   0  0  0  0  0  0  0  0  0  0  0  0
  -14.3109  -26.4644  -23.1976 H   0  0  0  0  0  0  0  0  0  0  0  0
  -14.3244  -28.5908  -24.4709 H   0  0  0  0  0  0  0  0  0  0  0  0
  -13.6259  -28.6157  -27.7447 C   0  0  0  0  0  0  0  0  0  0  0  0
  -13.1043  -29.6517  -26.9086 O   0  0  0  0  0  0  0  0  0  0  0  0
  -12.5749  -29.2577  -26.1977 H   0  0  0  0  0  0  0  0  0  0  0  0
  -18.1680  -28.5426  -25.7840 S   0  0  0  0  0  0  0  0  0  0  0  0
  -19.6519  -27.6318  -25.4345 C   0  0  0  0  0  0  0  0  0  0  0  0
  -20.7284  -27.9925  -26.4564 C   0  0  0  0  0  0  0  0  0  0  0  0
  -20.1625  -27.7873  -24.0032 C   0  0  0  0  0  0  0  0  0  0  0  0
  1  2  1  0  0  0
  1  9  1  0  0  0
  1 16  1  0  0  0
  2  3  1  0  0  0
  2  4  1  0  0  0
  4  5  1  0  0  0
  4  6  1  0  0  0
  6  7  1  0  0  0
  6  8  1  0  0  0
  8  9  1  0  0  0
  8 13  1  0  0  0
 13 14  1  0  0  0
 16 17  1  0  0  0
 17 18  1  0  0  0
 17 19  1  0  0  0
  3 10  1  0  0  0
  5 11  1  0  0  0
  7 12  1  0  0  0
 14 15  1  0  0  0
M  END
> <minimizedAffinity>
-5.62751

$$$$
3T0B_IPT_A_2001


 19 19  0  0  0  0  0  0  0  0999 V2000
  -16.9825  -26.3626  -24.2704 C   0  0  0  0  0  0  0  0  0  0  0  0
  -15.8125  -25.3964  -24.0285 C   0  0  0  0  0  0  0  0  0  0  0  0
  -14.6366  -26.1068  -23.6565 O   0  0  0  0  0  0  0  0  0  0  0  0
  -16.1194  -24.3482  -22.9551 C   0  0  0  0  0  0  0  0  0  0  0  0
  -15.0864  -23.3603  -22.9405 O   0  0  0  0  0  0  0  0  0  0  0  0
  -17.4647  -23.6754  -23.2203 C   0  0  0  0  0  0  0  0  0  0  0  0
  -17.3534  -22.8261  -24.3764 O   0  0  0  0  0  0  0  0  0  0  0  0
  -18.5233  -24.7703  -23.4095 C   0  0  0  0  0  0  0  0  0  0  0  0
  -18.1594  -25.5895  -24.5165 O   0  0  0  0  0  0  0  0  0  0  0  0
  -14.7885  -26.5658  -22.8156 H   0  0  0  0  0  0  0  0  0  0  0  0
  -15.0491  -22.9187  -23.8034 H   0  0  0  0  0  0  0  0  0  0  0  0
  -17.0876  -23.3572  -25.1433 H   0  0  0  0  0  0  0  0  0  0  0  0
  -19.9393  -24.2738  -23.6487 C   0  0  0  0  0  0  0  0  0  0  0  0
  -20.0428  -22.8693  -23.4015 O   0  0  0  0  0  0  0  0  0  0  0  0
  -19.8138  -22.6860  -22.4769 H   0  0  0  0  0  0  0  0  0  0  0  0
  -16.6578  -27.3582  -25.6977 S   0  0  0  0  0  0  0  0  0  0  0  0
  -18.0956  -28.1060  -26.4236 C   0  0  0  0  0  0  0  0  0  0  0  0
  -17.7653  -28.5913  -27.8338 C   0  0  0  0  0  0  0  0  0  0  0  0
  -18.7205  -29.2160  -25.5804 C   0  0  0  0  0  0  0  0  0  0  0  0
  1  2  1  0  0  0
  1  9  1  0  0  0
  1 16  1  0  0  0
  2  3  1  0  0  0
  2  4  1  0  0  0
  4  5  1  0  0  0
  4  6  1  0  0  0
  6  7  1  0  0  0
  6  8  1  0  0  0
  8  9  1  0  0  0
  8 13  1  0  0  0
 13 14  1  0  0  0
 16 17  1  0  0  0
 17 18  1  0  0  0
 17 19  1  0  0  0
  3 10  1  0  0  0
  5 11  1  0  0  0
  7 12  1  0  0  0
 14 15  1  0  0  0
M  END
> <minimizedAffinity>
-5.39423

$$$$
3T0B_IPT_A_2001


 19 19  0  0  0  0  0  0  0  0999 V2000
  -16.7828  -26.2377  -24.4491 C   0  0  0  0  0  0  0  0  0  0  0  0
  -15.3216  -26.5863  -24.1266 C   0  0  0  0  0  0  0  0  0  0  0  0
  -14.6603  -25.4845  -23.5146 O   0  0  0  0  0  0  0  0  0  0  0  0
  -14.5268  -27.0178  -25.3625 C   0  0  0  0  0  0  0  0  0  0  0  0
  -13.2561  -27.5339  -24.9592 O   0  0  0  0  0  0  0  0  0  0  0  0
  -15.2835  -28.0847  -26.1511 C   0  0  0  0  0  0  0  0  0  0  0  0
  -15.2821  -29.3171  -25.4084 O   0  0  0  0  0  0  0  0  0  0  0  0
  -16.7059  -27.5725  -26.4146 C   0  0  0  0  0  0  0  0  0  0  0  0
  -17.3562  -27.3304  -25.1706 O   0  0  0  0  0  0  0  0  0  0  0  0
  -14.6316  -24.7394  -24.1350 H   0  0  0  0  0  0  0  0  0  0  0  0
  -13.3875  -28.3078  -24.3894 H   0  0  0  0  0  0  0  0  0  0  0  0
  -15.7038  -29.1757  -24.5465 H   0  0  0  0  0  0  0  0  0  0  0  0
  -17.5934  -28.5012  -27.2261 C   0  0  0  0  0  0  0  0  0  0  0  0
  -17.8846  -29.6999  -26.5032 O   0  0  0  0  0  0  0  0  0  0  0  0
  -17.0582  -30.1695  -26.3095 H   0  0  0  0  0  0  0  0  0  0  0  0
  -17.6958  -26.0168  -22.9486 S   0  0  0  0  0  0  0  0  0  0  0  0
  -18.4709  -24.4281  -22.7785 C   0  0  0  0  0  0  0  0  0  0  0  0
  -19.6614  -24.5369  -21.8276 C   0  0  0  0  0  0  0  0  0  0  0  0
  -17.5211  -23.3065  -22.3622 C   0  0  0  0  0  0  0  0  0  0  0  0
  1  2  1  0  0  0
  1  9  1  0  0  0
  1 16  1  0  0  0
  2  3  1  0  0  0
  2  4  1  0  0  0
  4  5  1  0  0  0
  4  6  1  0  0  0
  6  7  1  0  0  0
  6  8  1  0  0  0
  8  9  1  0  0  0
  8 13  1  0  0  0
 13 14  1  0  0  0
 16 17  1  0  0  0
 17 18  1  0  0  0
 17 19  1  0  0  0
  3 10  1  0  0  0
  5 11  1  0  0  0
  7 12  1  0  0  0
 14 15  1  0  0  0
M  END
> <minimizedAffinity>
-5.30183

$$$$
