4GKI_0JN_A_302


 27 30  0  0  0  0  0  0  0  0999 V2000
   35.3821   20.4718   16.6421 N   0  0  0  0  0  0  0  0  0  0  0  0
   34.0786   20.4619   16.1510 C   0  0  0  0  0  0  0  0  0  0  0  0
   33.4659   19.2215   15.9677 N   0  0  0  0  0  0  0  0  0  0  0  0
   34.1302   18.0880   16.2564 C   0  0  0  0  0  0  0  0  0  0  0  0
   35.3832   18.1302   16.7273 C   0  0  0  0  0  0  0  0  0  0  0  0
   35.9923   19.3111   16.9141 C   0  0  0  0  0  0  0  0  0  0  0  0
   35.7111   16.8445   16.8923 C   0  0  0  0  0  0  0  0  0  0  0  0
   33.7659   16.7992   16.1661 N   0  0  0  0  0  0  0  0  0  0  0  0
   34.6709   16.0964   16.5305 N   0  0  0  0  0  0  0  0  0  0  0  0
   37.2336   19.3069   17.3857 N   0  0  0  0  0  0  0  0  0  0  0  0
   37.6814   18.4532   17.5854 H   0  0  0  0  0  0  0  0  0  0  0  0
   37.7060   20.1576   17.5357 H   0  0  0  0  0  0  0  0  0  0  0  0
   31.2893   17.0235   16.2223 C   0  0  0  0  0  0  0  0  0  0  0  0
   32.4487   16.2028   14.1715 C   0  0  0  0  0  0  0  0  0  0  0  0
   32.4718   16.2062   15.7004 C   0  0  0  0  0  0  0  0  0  0  0  0
   32.3525   14.7632   16.1975 C   0  0  0  0  0  0  0  0  0  0  0  0
   37.0267   16.2214   17.4260 C   0  0  0  0  0  0  0  0  0  0  0  0
   40.0847   12.2325   16.7294 C   0  0  0  0  0  0  0  0  0  0  0  0
   39.2339   12.6062   17.7608 C   0  0  0  0  0  0  0  0  0  0  0  0
   38.9008   16.1834   14.2558 C   0  0  0  0  0  0  0  0  0  0  0  0
   38.0484   16.5670   15.2847 C   0  0  0  0  0  0  0  0  0  0  0  0
   40.2074   13.0339   15.6032 C   0  0  0  0  0  0  0  0  0  0  0  0
   39.6196   15.0028   14.3675 C   0  0  0  0  0  0  0  0  0  0  0  0
   37.8947   15.7815   16.4210 C   0  0  0  0  0  0  0  0  0  0  0  0
   39.4825   14.2138   15.5038 C   0  0  0  0  0  0  0  0  0  0  0  0
   38.6281   14.5972   16.5341 C   0  0  0  0  0  0  0  0  0  0  0  0
   38.5115   13.7866   17.6592 C   0  0  0  0  0  0  0  0  0  0  0  0
 18 22  2  0  0  0
 18 19  1  0  0  0
 22 25  1  0  0  0
 19 27  2  0  0  0
 25 23  2  0  0  0
 25 26  1  0  0  0
 27 26  1  0  0  0
 23 20  1  0  0  0
 26 24  2  0  0  0
 13 15  1  0  0  0
 14 15  1  0  0  0
 20 21  2  0  0  0
 15  8  1  0  0  0
 15 16  1  0  0  0
 24 21  1  0  0  0
 24 17  1  0  0  0
  9  8  1  0  0  0
  9  7  2  0  0  0
  8  4  1  0  0  0
  7 17  1  0  0  0
  7  5  1  0  0  0
  4  3  2  0  0  0
  4  5  1  0  0  0
  3  2  1  0  0  0
  5  6  2  0  0  0
  2  1  2  0  0  0
  6  1  1  0  0  0
  6 10  1  0  0  0
 10 11  1  0  0  0
 10 12  1  0  0  0
M  END
> <minimizedAffinity>
-8.75074

$$$$
4GKI_0JN_A_302


 27 30  0  0  0  0  0  0  0  0999 V2000
   32.6355   15.5853   17.0560 N   0  0  0  0  0  0  0  0  0  0  0  0
   31.8968   16.2217   16.0612 C   0  0  0  0  0  0  0  0  0  0  0  0
   32.5877   17.0380   15.1646 N   0  0  0  0  0  0  0  0  0  0  0  0
   33.9189   17.1950   15.2782 C   0  0  0  0  0  0  0  0  0  0  0  0
   34.6016   16.5696   16.2459 C   0  0  0  0  0  0  0  0  0  0  0  0
   33.9595   15.7776   17.1182 C   0  0  0  0  0  0  0  0  0  0  0  0
   35.8668   16.9559   16.0516 C   0  0  0  0  0  0  0  0  0  0  0  0
   34.7919   17.9135   14.5547 N   0  0  0  0  0  0  0  0  0  0  0  0
   35.8997   17.7721   15.0004 N   0  0  0  0  0  0  0  0  0  0  0  0
   34.6756   15.1743   18.0597 N   0  0  0  0  0  0  0  0  0  0  0  0
   35.6487   15.3163   18.1047 H   0  0  0  0  0  0  0  0  0  0  0  0
   34.2333   14.5851   18.7127 H   0  0  0  0  0  0  0  0  0  0  0  0
   33.6159   19.9451   13.7322 C   0  0  0  0  0  0  0  0  0  0  0  0
   35.8848   19.3530   12.8807 C   0  0  0  0  0  0  0  0  0  0  0  0
   34.5483   18.7898   13.3648 C   0  0  0  0  0  0  0  0  0  0  0  0
   33.9216   17.9693   12.2345 C   0  0  0  0  0  0  0  0  0  0  0  0
   37.1491   16.5666   16.8315 C   0  0  0  0  0  0  0  0  0  0  0  0
   39.6150   12.1535   17.2690 C   0  0  0  0  0  0  0  0  0  0  0  0
   38.6844   12.8029   18.0688 C   0  0  0  0  0  0  0  0  0  0  0  0
   39.4608   15.7523   14.0825 C   0  0  0  0  0  0  0  0  0  0  0  0
   38.5305   16.4112   14.8780 C   0  0  0  0  0  0  0  0  0  0  0  0
   40.0341   12.7312   16.0791 C   0  0  0  0  0  0  0  0  0  0  0  0
   39.9599   14.5239   14.4884 C   0  0  0  0  0  0  0  0  0  0  0  0
   38.0821   15.8547   16.0701 C   0  0  0  0  0  0  0  0  0  0  0  0
   39.5271   13.9618   15.6840 C   0  0  0  0  0  0  0  0  0  0  0  0
   38.5946   14.6210   16.4806 C   0  0  0  0  0  0  0  0  0  0  0  0
   38.1802   14.0333   17.6719 C   0  0  0  0  0  0  0  0  0  0  0  0
 18 22  2  0  0  0
 18 19  1  0  0  0
 22 25  1  0  0  0
 19 27  2  0  0  0
 25 23  2  0  0  0
 25 26  1  0  0  0
 27 26  1  0  0  0
 23 20  1  0  0  0
 26 24  2  0  0  0
 13 15  1  0  0  0
 14 15  1  0  0  0
 20 21  2  0  0  0
 15  8  1  0  0  0
 15 16  1  0  0  0
 24 21  1  0  0  0
 24 17  1  0  0  0
  9  8  1  0  0  0
  9  7  2  0  0  0
  8  4  1  0  0  0
  7 17  1  0  0  0
  7  5  1  0  0  0
  4  3  2  0  0  0
  4  5  1  0  0  0
  3  2  1  0  0  0
  5  6  2  0  0  0
  2  1  2  0  0  0
  6  1  1  0  0  0
  6 10  1  0  0  0
 10 11  1  0  0  0
 10 12  1  0  0  0
M  END
> <minimizedAffinity>
-8.67339

$$$$
4GKI_0JN_A_302


 27 30  0  0  0  0  0  0  0  0999 V2000
   37.8462   20.2705   17.3488 N   0  0  0  0  0  0  0  0  0  0  0  0
   39.0495   20.9527   17.5128 C   0  0  0  0  0  0  0  0  0  0  0  0
   40.2157   20.3209   17.0788 N   0  0  0  0  0  0  0  0  0  0  0  0
   40.1579   19.0945   16.5291 C   0  0  0  0  0  0  0  0  0  0  0  0
   38.9853   18.4638   16.3849 C   0  0  0  0  0  0  0  0  0  0  0  0
   37.8503   19.0522   16.7924 C   0  0  0  0  0  0  0  0  0  0  0  0
   39.3119   17.2978   15.8181 C   0  0  0  0  0  0  0  0  0  0  0  0
   41.1203   18.2934   16.0455 N   0  0  0  0  0  0  0  0  0  0  0  0
   40.6312   17.2719   15.6415 N   0  0  0  0  0  0  0  0  0  0  0  0
   36.7097   18.3927   16.6274 N   0  0  0  0  0  0  0  0  0  0  0  0
   36.7136   17.4972   16.2184 H   0  0  0  0  0  0  0  0  0  0  0  0
   35.8601   18.7992   16.9142 H   0  0  0  0  0  0  0  0  0  0  0  0
   43.1837   18.7238   17.3660 C   0  0  0  0  0  0  0  0  0  0  0  0
   43.2551   17.3034   15.3164 C   0  0  0  0  0  0  0  0  0  0  0  0
   42.5985   18.5211   15.9677 C   0  0  0  0  0  0  0  0  0  0  0  0
   42.8900   19.7550   15.1097 C   0  0  0  0  0  0  0  0  0  0  0  0
   38.3997   16.1236   15.3783 C   0  0  0  0  0  0  0  0  0  0  0  0
   40.9397   11.7348   15.5636 C   0  0  0  0  0  0  0  0  0  0  0  0
   40.9539   12.8017   14.6754 C   0  0  0  0  0  0  0  0  0  0  0  0
   37.5992   13.9372   18.2319 C   0  0  0  0  0  0  0  0  0  0  0  0
   37.6047   15.0089   17.3466 C   0  0  0  0  0  0  0  0  0  0  0  0
   40.0998   11.7595   16.6679 C   0  0  0  0  0  0  0  0  0  0  0  0
   38.4341   12.8546   18.0004 C   0  0  0  0  0  0  0  0  0  0  0  0
   38.4418   15.0201   16.2371 C   0  0  0  0  0  0  0  0  0  0  0  0
   39.2683   12.8492   16.8883 C   0  0  0  0  0  0  0  0  0  0  0  0
   39.2748   13.9228   16.0019 C   0  0  0  0  0  0  0  0  0  0  0  0
   40.1209   13.8891   14.8976 C   0  0  0  0  0  0  0  0  0  0  0  0
 18 22  2  0  0  0
 18 19  1  0  0  0
 22 25  1  0  0  0
 19 27  2  0  0  0
 25 23  2  0  0  0
 25 26  1  0  0  0
 27 26  1  0  0  0
 23 20  1  0  0  0
 26 24  2  0  0  0
 13 15  1  0  0  0
 14 15  1  0  0  0
 20 21  2  0  0  0
 15  8  1  0  0  0
 15 16  1  0  0  0
 24 21  1  0  0  0
 24 17  1  0  0  0
  9  8  1  0  0  0
  9  7  2  0  0  0
  8  4  1  0  0  0
  7 17  1  0  0  0
  7  5  1  0  0  0
  4  3  2  0  0  0
  4  5  1  0  0  0
  3  2  1  0  0  0
  5  6  2  0  0  0
  2  1  2  0  0  0
  6  1  1  0  0  0
  6 10  1  0  0  0
 10 11  1  0  0  0
 10 12  1  0  0  0
M  END
> <minimizedAffinity>
-8.66598

$$$$
4GKI_0JN_A_302


 27 30  0  0  0  0  0  0  0  0999 V2000
   39.1867   20.2349   13.4586 N   0  0  0  0  0  0  0  0  0  0  0  0
   40.3218   20.9250   13.8779 C   0  0  0  0  0  0  0  0  0  0  0  0
   41.3276   20.1923   14.5097 N   0  0  0  0  0  0  0  0  0  0  0  0
   41.1836   18.8687   14.7016 C   0  0  0  0  0  0  0  0  0  0  0  0
   40.0799   18.2333   14.2871 C   0  0  0  0  0  0  0  0  0  0  0  0
   39.1003   18.9161   13.6749 C   0  0  0  0  0  0  0  0  0  0  0  0
   40.2856   16.9609   14.6423 C   0  0  0  0  0  0  0  0  0  0  0  0
   41.9919   17.9626   15.2737 N   0  0  0  0  0  0  0  0  0  0  0  0
   41.4745   16.8778   15.2358 N   0  0  0  0  0  0  0  0  0  0  0  0
   38.0251   18.2460   13.2773 N   0  0  0  0  0  0  0  0  0  0  0  0
   37.9624   17.2766   13.4367 H   0  0  0  0  0  0  0  0  0  0  0  0
   37.2906   18.7188   12.8231 H   0  0  0  0  0  0  0  0  0  0  0  0
   44.3878   18.4561   14.8233 C   0  0  0  0  0  0  0  0  0  0  0  0
   43.2757   19.3124   16.8857 C   0  0  0  0  0  0  0  0  0  0  0  0
   43.3415   18.1490   15.8956 C   0  0  0  0  0  0  0  0  0  0  0  0
   43.7449   16.8809   16.6524 C   0  0  0  0  0  0  0  0  0  0  0  0
   39.3837   15.7178   14.4293 C   0  0  0  0  0  0  0  0  0  0  0  0
   40.1095   11.6064   17.3132 C   0  0  0  0  0  0  0  0  0  0  0  0
   40.7038   12.0612   16.1439 C   0  0  0  0  0  0  0  0  0  0  0  0
   37.2238   15.4527   17.4007 C   0  0  0  0  0  0  0  0  0  0  0  0
   37.8112   15.9147   16.2285 C   0  0  0  0  0  0  0  0  0  0  0  0
   39.0974   12.3430   17.9119 C   0  0  0  0  0  0  0  0  0  0  0  0
   37.6569   14.2592   17.9584 C   0  0  0  0  0  0  0  0  0  0  0  0
   38.8346   15.2063   15.6100 C   0  0  0  0  0  0  0  0  0  0  0  0
   38.6725   13.5361   17.3433 C   0  0  0  0  0  0  0  0  0  0  0  0
   39.2617   13.9991   16.1698 C   0  0  0  0  0  0  0  0  0  0  0  0
   40.2763   13.2536   15.5772 C   0  0  0  0  0  0  0  0  0  0  0  0
 18 22  2  0  0  0
 18 19  1  0  0  0
 22 25  1  0  0  0
 19 27  2  0  0  0
 25 23  2  0  0  0
 25 26  1  0  0  0
 27 26  1  0  0  0
 23 20  1  0  0  0
 26 24  2  0  0  0
 13 15  1  0  0  0
 14 15  1  0  0  0
 20 21  2  0  0  0
 15  8  1  0  0  0
 15 16  1  0  0  0
 24 21  1  0  0  0
 24 17  1  0  0  0
  9  8  1  0  0  0
  9  7  2  0  0  0
  8  4  1  0  0  0
  7 17  1  0  0  0
  7  5  1  0  0  0
  4  3  2  0  0  0
  4  5  1  0  0  0
  3  2  1  0  0  0
  5  6  2  0  0  0
  2  1  2  0  0  0
  6  1  1  0  0  0
  6 10  1  0  0  0
 10 11  1  0  0  0
 10 12  1  0  0  0
M  END
> <minimizedAffinity>
-8.56500

$$$$
4GKI_0JN_A_302


 27 30  0  0  0  0  0  0  0  0999 V2000
   40.4361   20.6120   12.9063 N   0  0  0  0  0  0  0  0  0  0  0  0
   41.5538   21.1237   13.5615 C   0  0  0  0  0  0  0  0  0  0  0  0
   42.2430   20.2722   14.4261 N   0  0  0  0  0  0  0  0  0  0  0  0
   41.8229   19.0075   14.6097 C   0  0  0  0  0  0  0  0  0  0  0  0
   40.7441   18.5444   13.9651 C   0  0  0  0  0  0  0  0  0  0  0  0
   40.0666   19.3437   13.1269 C   0  0  0  0  0  0  0  0  0  0  0  0
   40.6317   17.2809   14.3875 C   0  0  0  0  0  0  0  0  0  0  0  0
   42.3051   18.0152   15.3744 N   0  0  0  0  0  0  0  0  0  0  0  0
   41.6221   17.0345   15.2424 N   0  0  0  0  0  0  0  0  0  0  0  0
   39.0051   18.8428   12.5062 N   0  0  0  0  0  0  0  0  0  0  0  0
   38.7341   17.9104   12.6689 H   0  0  0  0  0  0  0  0  0  0  0  0
   38.4889   19.4039   11.8832 H   0  0  0  0  0  0  0  0  0  0  0  0
   43.3693   19.1172   17.3339 C   0  0  0  0  0  0  0  0  0  0  0  0
   43.5674   16.6538   16.9936 C   0  0  0  0  0  0  0  0  0  0  0  0
   43.4918   18.0082   16.2880 C   0  0  0  0  0  0  0  0  0  0  0  0
   44.7738   18.2125   15.4766 C   0  0  0  0  0  0  0  0  0  0  0  0
   39.5911   16.1988   13.9997 C   0  0  0  0  0  0  0  0  0  0  0  0
   37.0026   14.8020   18.1344 C   0  0  0  0  0  0  0  0  0  0  0  0
   36.9558   15.9265   17.3215 C   0  0  0  0  0  0  0  0  0  0  0  0
   40.5125   12.9324   15.4300 C   0  0  0  0  0  0  0  0  0  0  0  0
   40.4747   14.0557   14.6120 C   0  0  0  0  0  0  0  0  0  0  0  0
   37.9007   13.7808   17.8592 C   0  0  0  0  0  0  0  0  0  0  0  0
   39.6510   12.8459   16.5132 C   0  0  0  0  0  0  0  0  0  0  0  0
   39.5795   15.0909   14.8539 C   0  0  0  0  0  0  0  0  0  0  0  0
   38.7583   13.8797   16.7719 C   0  0  0  0  0  0  0  0  0  0  0  0
   38.7195   15.0044   15.9521 C   0  0  0  0  0  0  0  0  0  0  0  0
   37.8150   16.0231   16.2360 C   0  0  0  0  0  0  0  0  0  0  0  0
 18 22  2  0  0  0
 18 19  1  0  0  0
 22 25  1  0  0  0
 19 27  2  0  0  0
 25 23  2  0  0  0
 25 26  1  0  0  0
 27 26  1  0  0  0
 23 20  1  0  0  0
 26 24  2  0  0  0
 13 15  1  0  0  0
 14 15  1  0  0  0
 20 21  2  0  0  0
 15  8  1  0  0  0
 15 16  1  0  0  0
 24 21  1  0  0  0
 24 17  1  0  0  0
  9  8  1  0  0  0
  9  7  2  0  0  0
  8  4  1  0  0  0
  7 17  1  0  0  0
  7  5  1  0  0  0
  4  3  2  0  0  0
  4  5  1  0  0  0
  3  2  1  0  0  0
  5  6  2  0  0  0
  2  1  2  0  0  0
  6  1  1  0  0  0
  6 10  1  0  0  0
 10 11  1  0  0  0
 10 12  1  0  0  0
M  END
> <minimizedAffinity>
-8.54382

$$$$
4GKI_0JN_A_302


 27 30  0  0  0  0  0  0  0  0999 V2000
   35.7618   15.6493   18.1530 N   0  0  0  0  0  0  0  0  0  0  0  0
   36.0653   16.7934   17.4187 C   0  0  0  0  0  0  0  0  0  0  0  0
   37.2783   16.8166   16.7291 N   0  0  0  0  0  0  0  0  0  0  0  0
   38.1125   15.7630   16.7891 C   0  0  0  0  0  0  0  0  0  0  0  0
   37.7925   14.6767   17.5041 C   0  0  0  0  0  0  0  0  0  0  0  0
   36.6305   14.6302   18.1736 C   0  0  0  0  0  0  0  0  0  0  0  0
   38.8357   13.8579   17.3344 C   0  0  0  0  0  0  0  0  0  0  0  0
   39.3125   15.5489   16.2270 N   0  0  0  0  0  0  0  0  0  0  0  0
   39.7183   14.4616   16.5413 N   0  0  0  0  0  0  0  0  0  0  0  0
   36.3517   13.5327   18.8671 N   0  0  0  0  0  0  0  0  0  0  0  0
   36.9909   12.7840   18.8817 H   0  0  0  0  0  0  0  0  0  0  0  0
   35.5059   13.4677   19.3667 H   0  0  0  0  0  0  0  0  0  0  0  0
   39.6230   16.3486   13.8922 C   0  0  0  0  0  0  0  0  0  0  0  0
   39.9836   17.8849   15.8244 C   0  0  0  0  0  0  0  0  0  0  0  0
   40.1192   16.4423   15.3358 C   0  0  0  0  0  0  0  0  0  0  0  0
   41.5950   16.0396   15.3943 C   0  0  0  0  0  0  0  0  0  0  0  0
   39.0716   12.4302   17.8913 C   0  0  0  0  0  0  0  0  0  0  0  0
   43.6988   11.3709   19.6842 C   0  0  0  0  0  0  0  0  0  0  0  0
   42.5851   11.9868   20.2390 C   0  0  0  0  0  0  0  0  0  0  0  0
   41.3404   10.7274   15.5425 C   0  0  0  0  0  0  0  0  0  0  0  0
   40.2213   11.3451   16.0887 C   0  0  0  0  0  0  0  0  0  0  0  0
   43.6584   10.9057   18.3775 C   0  0  0  0  0  0  0  0  0  0  0  0
   42.4856   10.5836   16.3111 C   0  0  0  0  0  0  0  0  0  0  0  0
   40.2255   11.8122   17.3977 C   0  0  0  0  0  0  0  0  0  0  0  0
   42.5058   11.0563   17.6183 C   0  0  0  0  0  0  0  0  0  0  0  0
   41.3847   11.6740   18.1660 C   0  0  0  0  0  0  0  0  0  0  0  0
   41.4348   12.1368   19.4774 C   0  0  0  0  0  0  0  0  0  0  0  0
 18 22  2  0  0  0
 18 19  1  0  0  0
 22 25  1  0  0  0
 19 27  2  0  0  0
 25 23  2  0  0  0
 25 26  1  0  0  0
 27 26  1  0  0  0
 23 20  1  0  0  0
 26 24  2  0  0  0
 13 15  1  0  0  0
 14 15  1  0  0  0
 20 21  2  0  0  0
 15  8  1  0  0  0
 15 16  1  0  0  0
 24 21  1  0  0  0
 24 17  1  0  0  0
  9  8  1  0  0  0
  9  7  2  0  0  0
  8  4  1  0  0  0
  7 17  1  0  0  0
  7  5  1  0  0  0
  4  3  2  0  0  0
  4  5  1  0  0  0
  3  2  1  0  0  0
  5  6  2  0  0  0
  2  1  2  0  0  0
  6  1  1  0  0  0
  6 10  1  0  0  0
 10 11  1  0  0  0
 10 12  1  0  0  0
M  END
> <minimizedAffinity>
-8.53597

$$$$
4GKI_0JN_A_302


 27 30  0  0  0  0  0  0  0  0999 V2000
   33.6193   16.9292   18.8314 N   0  0  0  0  0  0  0  0  0  0  0  0
   33.4882   18.2344   18.3630 C   0  0  0  0  0  0  0  0  0  0  0  0
   34.5433   18.7636   17.6184 N   0  0  0  0  0  0  0  0  0  0  0  0
   35.6409   18.0241   17.3777 C   0  0  0  0  0  0  0  0  0  0  0  0
   35.7375   16.7715   17.8419 C   0  0  0  0  0  0  0  0  0  0  0  0
   34.7348   16.2403   18.5581 C   0  0  0  0  0  0  0  0  0  0  0  0
   36.9373   16.3605   17.4187 C   0  0  0  0  0  0  0  0  0  0  0  0
   36.7674   18.3027   16.7030 N   0  0  0  0  0  0  0  0  0  0  0  0
   37.5011   17.3505   16.7297 N   0  0  0  0  0  0  0  0  0  0  0  0
   34.8709   14.9942   18.9960 N   0  0  0  0  0  0  0  0  0  0  0  0
   35.6912   14.4884   18.7947 H   0  0  0  0  0  0  0  0  0  0  0  0
   34.1514   14.5759   19.5221 H   0  0  0  0  0  0  0  0  0  0  0  0
   36.0698   19.9898   15.0135 C   0  0  0  0  0  0  0  0  0  0  0  0
   37.3854   20.6660   17.0224 C   0  0  0  0  0  0  0  0  0  0  0  0
   37.1644   19.5591   15.9909 C   0  0  0  0  0  0  0  0  0  0  0  0
   38.4705   19.3321   15.2252 C   0  0  0  0  0  0  0  0  0  0  0  0
   37.6374   14.9908   17.6135 C   0  0  0  0  0  0  0  0  0  0  0  0
   40.9542   11.2552   16.7237 C   0  0  0  0  0  0  0  0  0  0  0  0
   40.0890   11.5243   17.7755 C   0  0  0  0  0  0  0  0  0  0  0  0
   39.4818   15.2198   14.4339 C   0  0  0  0  0  0  0  0  0  0  0  0
   38.6143   15.4988   15.4836 C   0  0  0  0  0  0  0  0  0  0  0  0
   41.0120   12.1115   15.6333 C   0  0  0  0  0  0  0  0  0  0  0  0
   40.2804   14.0876   14.4891 C   0  0  0  0  0  0  0  0  0  0  0  0
   38.5245   14.6558   16.5850 C   0  0  0  0  0  0  0  0  0  0  0  0
   40.2075   13.2422   15.5903 C   0  0  0  0  0  0  0  0  0  0  0  0
   39.3380   13.5207   16.6414 C   0  0  0  0  0  0  0  0  0  0  0  0
   39.2868   12.6558   17.7303 C   0  0  0  0  0  0  0  0  0  0  0  0
 18 22  2  0  0  0
 18 19  1  0  0  0
 22 25  1  0  0  0
 19 27  2  0  0  0
 25 23  2  0  0  0
 25 26  1  0  0  0
 27 26  1  0  0  0
 23 20  1  0  0  0
 26 24  2  0  0  0
 13 15  1  0  0  0
 14 15  1  0  0  0
 20 21  2  0  0  0
 15  8  1  0  0  0
 15 16  1  0  0  0
 24 21  1  0  0  0
 24 17  1  0  0  0
  9  8  1  0  0  0
  9  7  2  0  0  0
  8  4  1  0  0  0
  7 17  1  0  0  0
  7  5  1  0  0  0
  4  3  2  0  0  0
  4  5  1  0  0  0
  3  2  1  0  0  0
  5  6  2  0  0  0
  2  1  2  0  0  0
  6  1  1  0  0  0
  6 10  1  0  0  0
 10 11  1  0  0  0
 10 12  1  0  0  0
M  END
> <minimizedAffinity>
-8.46134

$$$$
4GKI_0JN_A_302


 27 30  0  0  0  0  0  0  0  0999 V2000
   34.0383   19.0510   15.8753 N   0  0  0  0  0  0  0  0  0  0  0  0
   34.5093   20.3616   15.8482 C   0  0  0  0  0  0  0  0  0  0  0  0
   35.8603   20.5695   16.1297 N   0  0  0  0  0  0  0  0  0  0  0  0
   36.6604   19.5276   16.4195 C   0  0  0  0  0  0  0  0  0  0  0  0
   36.1778   18.2785   16.4378 C   0  0  0  0  0  0  0  0  0  0  0  0
   34.8827   18.0536   16.1680 C   0  0  0  0  0  0  0  0  0  0  0  0
   37.2359   17.5268   16.7586 C   0  0  0  0  0  0  0  0  0  0  0  0
   37.9673   19.4702   16.7205 N   0  0  0  0  0  0  0  0  0  0  0  0
   38.2885   18.3274   16.9118 N   0  0  0  0  0  0  0  0  0  0  0  0
   34.4471   16.7995   16.1941 N   0  0  0  0  0  0  0  0  0  0  0  0
   35.0685   16.0669   16.4093 H   0  0  0  0  0  0  0  0  0  0  0  0
   33.5027   16.6024   15.9981 H   0  0  0  0  0  0  0  0  0  0  0  0
   40.2239   20.0955   17.5592 C   0  0  0  0  0  0  0  0  0  0  0  0
   39.3459   21.0512   15.4286 C   0  0  0  0  0  0  0  0  0  0  0  0
   38.9679   20.5789   16.8329 C   0  0  0  0  0  0  0  0  0  0  0  0
   38.3569   21.7548   17.5996 C   0  0  0  0  0  0  0  0  0  0  0  0
   37.3409   15.9888   16.9246 C   0  0  0  0  0  0  0  0  0  0  0  0
   40.2158   11.8102   17.0730 C   0  0  0  0  0  0  0  0  0  0  0  0
   39.2729   12.3436   17.9412 C   0  0  0  0  0  0  0  0  0  0  0  0
   39.5709   15.4842   14.0373 C   0  0  0  0  0  0  0  0  0  0  0  0
   38.6274   16.0272   14.9017 C   0  0  0  0  0  0  0  0  0  0  0  0
   40.5184   12.4637   15.8870 C   0  0  0  0  0  0  0  0  0  0  0  0
   40.1996   14.2942   14.3713 C   0  0  0  0  0  0  0  0  0  0  0  0
   38.2937   15.3920   16.0921 C   0  0  0  0  0  0  0  0  0  0  0  0
   39.8822   13.6548   15.5643 C   0  0  0  0  0  0  0  0  0  0  0  0
   38.9365   14.1979   16.4298 C   0  0  0  0  0  0  0  0  0  0  0  0
   38.6394   13.5349   17.6166 C   0  0  0  0  0  0  0  0  0  0  0  0
 18 22  2  0  0  0
 18 19  1  0  0  0
 22 25  1  0  0  0
 19 27  2  0  0  0
 25 23  2  0  0  0
 25 26  1  0  0  0
 27 26  1  0  0  0
 23 20  1  0  0  0
 26 24  2  0  0  0
 13 15  1  0  0  0
 14 15  1  0  0  0
 20 21  2  0  0  0
 15  8  1  0  0  0
 15 16  1  0  0  0
 24 21  1  0  0  0
 24 17  1  0  0  0
  9  8  1  0  0  0
  9  7  2  0  0  0
  8  4  1  0  0  0
  7 17  1  0  0  0
  7  5  1  0  0  0
  4  3  2  0  0  0
  4  5  1  0  0  0
  3  2  1  0  0  0
  5  6  2  0  0  0
  2  1  2  0  0  0
  6  1  1  0  0  0
  6 10  1  0  0  0
 10 11  1  0  0  0
 10 12  1  0  0  0
M  END
> <minimizedAffinity>
-8.37515

$$$$
4GKI_0JN_A_302


 27 30  0  0  0  0  0  0  0  0999 V2000
   37.8626   18.7173   13.2548 N   0  0  0  0  0  0  0  0  0  0  0  0
   36.8094   19.2611   13.9864 C   0  0  0  0  0  0  0  0  0  0  0  0
   36.3864   18.5701   15.1227 N   0  0  0  0  0  0  0  0  0  0  0  0
   36.9848   17.4189   15.4779 C   0  0  0  0  0  0  0  0  0  0  0  0
   37.9953   16.9210   14.7536 C   0  0  0  0  0  0  0  0  0  0  0  0
   38.4212   17.5690   13.6585 C   0  0  0  0  0  0  0  0  0  0  0  0
   38.3282   15.7948   15.3926 C   0  0  0  0  0  0  0  0  0  0  0  0
   36.7630   16.5848   16.5060 N   0  0  0  0  0  0  0  0  0  0  0  0
   37.5323   15.6622   16.4516 N   0  0  0  0  0  0  0  0  0  0  0  0
   39.4279   17.0417   12.9718 N   0  0  0  0  0  0  0  0  0  0  0  0
   39.8380   16.1975   13.2692 H   0  0  0  0  0  0  0  0  0  0  0  0
   39.7644   17.4950   12.1651 H   0  0  0  0  0  0  0  0  0  0  0  0
   35.7904   18.0620   18.2548 C   0  0  0  0  0  0  0  0  0  0  0  0
   34.3591   16.4323   17.0224 C   0  0  0  0  0  0  0  0  0  0  0  0
   35.7509   16.6777   17.6060 C   0  0  0  0  0  0  0  0  0  0  0  0
   36.0354   15.6102   18.6657 C   0  0  0  0  0  0  0  0  0  0  0  0
   39.4401   14.7651   15.0650 C   0  0  0  0  0  0  0  0  0  0  0  0
   41.0504   11.3510   18.4561 C   0  0  0  0  0  0  0  0  0  0  0  0
   40.0288   11.3446   17.5160 C   0  0  0  0  0  0  0  0  0  0  0  0
   42.3067   15.8007   17.1325 C   0  0  0  0  0  0  0  0  0  0  0  0
   41.2847   15.8043   16.1903 C   0  0  0  0  0  0  0  0  0  0  0  0
   41.8681   12.4643   18.5879 C   0  0  0  0  0  0  0  0  0  0  0  0
   42.4969   14.6829   17.9308 C   0  0  0  0  0  0  0  0  0  0  0  0
   40.4552   14.7014   16.0256 C   0  0  0  0  0  0  0  0  0  0  0  0
   41.6670   13.5774   17.7830 C   0  0  0  0  0  0  0  0  0  0  0  0
   40.6439   13.5804   16.8386 C   0  0  0  0  0  0  0  0  0  0  0  0
   39.8295   12.4590   16.7135 C   0  0  0  0  0  0  0  0  0  0  0  0
 18 22  2  0  0  0
 18 19  1  0  0  0
 22 25  1  0  0  0
 19 27  2  0  0  0
 25 23  2  0  0  0
 25 26  1  0  0  0
 27 26  1  0  0  0
 23 20  1  0  0  0
 26 24  2  0  0  0
 13 15  1  0  0  0
 14 15  1  0  0  0
 20 21  2  0  0  0
 15  8  1  0  0  0
 15 16  1  0  0  0
 24 21  1  0  0  0
 24 17  1  0  0  0
  9  8  1  0  0  0
  9  7  2  0  0  0
  8  4  1  0  0  0
  7 17  1  0  0  0
  7  5  1  0  0  0
  4  3  2  0  0  0
  4  5  1  0  0  0
  3  2  1  0  0  0
  5  6  2  0  0  0
  2  1  2  0  0  0
  6  1  1  0  0  0
  6 10  1  0  0  0
 10 11  1  0  0  0
 10 12  1  0  0  0
M  END
> <minimizedAffinity>
-8.24501

$$$$
4GKI_0JN_A_302


 27 30  0  0  0  0  0  0  0  0999 V2000
   43.0904   18.3349   15.8497 N   0  0  0  0  0  0  0  0  0  0  0  0
   42.8947   19.7034   15.6785 C   0  0  0  0  0  0  0  0  0  0  0  0
   41.6999   20.1171   15.0879 N   0  0  0  0  0  0  0  0  0  0  0  0
   40.7854   19.2098   14.7004 C   0  0  0  0  0  0  0  0  0  0  0  0
   41.0026   17.9003   14.8785 C   0  0  0  0  0  0  0  0  0  0  0  0
   42.1429   17.4786   15.4464 C   0  0  0  0  0  0  0  0  0  0  0  0
   39.9052   17.3193   14.3828 C   0  0  0  0  0  0  0  0  0  0  0  0
   39.5840   19.3541   14.1194 N   0  0  0  0  0  0  0  0  0  0  0  0
   39.0879   18.2733   13.9420 N   0  0  0  0  0  0  0  0  0  0  0  0
   42.3157   16.1719   15.6068 N   0  0  0  0  0  0  0  0  0  0  0  0
   41.6187   15.5430   15.3101 H   0  0  0  0  0  0  0  0  0  0  0  0
   43.1408   15.8318   16.0225 H   0  0  0  0  0  0  0  0  0  0  0  0
   37.6311   20.2655   12.8775 C   0  0  0  0  0  0  0  0  0  0  0  0
   38.4436   21.3686   14.9623 C   0  0  0  0  0  0  0  0  0  0  0  0
   38.8696   20.6046   13.7082 C   0  0  0  0  0  0  0  0  0  0  0  0
   39.8071   21.4924   12.8858 C   0  0  0  0  0  0  0  0  0  0  0  0
   39.5324   15.8162   14.3062 C   0  0  0  0  0  0  0  0  0  0  0  0
   40.0088   11.6683   17.1898 C   0  0  0  0  0  0  0  0  0  0  0  0
   40.6561   12.1043   16.0416 C   0  0  0  0  0  0  0  0  0  0  0  0
   37.2731   15.6236   17.2084 C   0  0  0  0  0  0  0  0  0  0  0  0
   37.9139   16.0671   16.0572 C   0  0  0  0  0  0  0  0  0  0  0  0
   39.0080   12.4414   17.7609 C   0  0  0  0  0  0  0  0  0  0  0  0
   37.6421   14.4120   17.7730 C   0  0  0  0  0  0  0  0  0  0  0  0
   38.9276   15.3219   15.4668 C   0  0  0  0  0  0  0  0  0  0  0  0
   38.6475   13.6524   17.1856 C   0  0  0  0  0  0  0  0  0  0  0  0
   39.2901   14.0967   16.0332 C   0  0  0  0  0  0  0  0  0  0  0  0
   40.2929   13.3146   15.4682 C   0  0  0  0  0  0  0  0  0  0  0  0
 18 22  2  0  0  0
 18 19  1  0  0  0
 22 25  1  0  0  0
 19 27  2  0  0  0
 25 23  2  0  0  0
 25 26  1  0  0  0
 27 26  1  0  0  0
 23 20  1  0  0  0
 26 24  2  0  0  0
 13 15  1  0  0  0
 14 15  1  0  0  0
 20 21  2  0  0  0
 15  8  1  0  0  0
 15 16  1  0  0  0
 24 21  1  0  0  0
 24 17  1  0  0  0
  9  8  1  0  0  0
  9  7  2  0  0  0
  8  4  1  0  0  0
  7 17  1  0  0  0
  7  5  1  0  0  0
  4  3  2  0  0  0
  4  5  1  0  0  0
  3  2  1  0  0  0
  5  6  2  0  0  0
  2  1  2  0  0  0
  6  1  1  0  0  0
  6 10  1  0  0  0
 10 11  1  0  0  0
 10 12  1  0  0  0
M  END
> <minimizedAffinity>
-8.23667

$$$$
