2Q8H_TF4_A_438


  7  6  0  0  0  0  0  0  0  0999 V2000
   -0.5251   38.5557  -11.6150 C   0  0  0  0  0  0  0  0  0  0  0  0
   -1.2566   39.5124  -11.3282 O   0  0  0  0  0  0  0  0  0  0  0  0
   -0.9990   37.4290  -11.8116 O   0  0  0  0  0  0  0  0  0  0  0  0
   -0.4333   36.7141  -12.0280 H   0  0  0  0  0  0  0  0  0  0  0  0
    0.9637   38.7617  -11.7337 C   0  0  0  0  0  0  0  0  0  0  0  0
    1.6091   38.9726  -10.0483 Cl  0  0  0  0  0  0  0  0  0  0  0  0
    1.2510   40.0540  -12.9786 Cl  0  0  0  0  0  0  0  0  0  0  0  0
  5  1  1  0  0  0
  5  6  1  0  0  0
  5  7  1  0  0  0
  1  2  2  0  0  0
  1  3  1  0  0  0
  3  4  1  0  0  0
M  END
> <minimizedAffinity>
-4.24550

$$$$
2Q8H_TF4_A_438


  7  6  0  0  0  0  0  0  0  0999 V2000
    0.8412   38.3787  -11.8015 C   0  0  0  0  0  0  0  0  0  0  0  0
    1.8397   37.6846  -11.5698 O   0  0  0  0  0  0  0  0  0  0  0  0
   -0.2659   37.8578  -11.9907 O   0  0  0  0  0  0  0  0  0  0  0  0
   -1.0131   38.3956  -12.1650 H   0  0  0  0  0  0  0  0  0  0  0  0
    0.9685   39.8803  -11.8488 C   0  0  0  0  0  0  0  0  0  0  0  0
    1.3568   40.3289  -13.5661 Cl  0  0  0  0  0  0  0  0  0  0  0  0
    2.0857   40.3882  -10.5085 Cl  0  0  0  0  0  0  0  0  0  0  0  0
  5  1  1  0  0  0
  5  6  1  0  0  0
  5  7  1  0  0  0
  1  2  2  0  0  0
  1  3  1  0  0  0
  3  4  1  0  0  0
M  END
> <minimizedAffinity>
-4.17411

$$$$
2Q8H_TF4_A_438


  7  6  0  0  0  0  0  0  0  0999 V2000
    1.1805   41.1982  -12.4404 C   0  0  0  0  0  0  0  0  0  0  0  0
    0.0217   41.5921  -12.6268 O   0  0  0  0  0  0  0  0  0  0  0  0
    2.1496   41.9118  -12.7308 O   0  0  0  0  0  0  0  0  0  0  0  0
    3.0212   41.6007  -12.5842 H   0  0  0  0  0  0  0  0  0  0  0  0
    1.4201   39.8336  -11.8458 C   0  0  0  0  0  0  0  0  0  0  0  0
   -0.1021   38.8715  -12.0877 Cl  0  0  0  0  0  0  0  0  0  0  0  0
    2.0859   40.0637  -10.1706 Cl  0  0  0  0  0  0  0  0  0  0  0  0
  5  1  1  0  0  0
  5  6  1  0  0  0
  5  7  1  0  0  0
  1  2  2  0  0  0
  1  3  1  0  0  0
  3  4  1  0  0  0
M  END
> <minimizedAffinity>
-4.01707

$$$$
2Q8H_TF4_A_438


  7  6  0  0  0  0  0  0  0  0999 V2000
   -0.7523   39.0463  -11.5807 C   0  0  0  0  0  0  0  0  0  0  0  0
   -0.8187   37.8114  -11.5237 O   0  0  0  0  0  0  0  0  0  0  0  0
   -1.7730   39.7325  -11.7228 O   0  0  0  0  0  0  0  0  0  0  0  0
   -1.7077   40.6663  -11.7644 H   0  0  0  0  0  0  0  0  0  0  0  0
    0.5872   39.7294  -11.4700 C   0  0  0  0  0  0  0  0  0  0  0  0
    1.1427   40.0917  -13.1615 Cl  0  0  0  0  0  0  0  0  0  0  0  0
    1.6340   38.7303  -10.3706 Cl  0  0  0  0  0  0  0  0  0  0  0  0
  5  1  1  0  0  0
  5  6  1  0  0  0
  5  7  1  0  0  0
  1  2  2  0  0  0
  1  3  1  0  0  0
  3  4  1  0  0  0
M  END
> <minimizedAffinity>
-3.98247

$$$$
2Q8H_TF4_A_438


  7  6  0  0  0  0  0  0  0  0999 V2000
    1.8405   41.0668  -12.0656 C   0  0  0  0  0  0  0  0  0  0  0  0
    2.4679   41.0682  -10.9983 O   0  0  0  0  0  0  0  0  0  0  0  0
    2.0103   41.9612  -12.9046 O   0  0  0  0  0  0  0  0  0  0  0  0
    1.5285   41.9473  -13.7082 H   0  0  0  0  0  0  0  0  0  0  0  0
    0.8593   39.9593  -12.3551 C   0  0  0  0  0  0  0  0  0  0  0  0
   -0.7854   40.5651  -11.8763 Cl  0  0  0  0  0  0  0  0  0  0  0  0
    1.5086   38.4310  -11.6165 Cl  0  0  0  0  0  0  0  0  0  0  0  0
  5  1  1  0  0  0
  5  6  1  0  0  0
  5  7  1  0  0  0
  1  2  2  0  0  0
  1  3  1  0  0  0
  3  4  1  0  0  0
M  END
> <minimizedAffinity>
-3.95757

$$$$
2Q8H_TF4_A_438


  7  6  0  0  0  0  0  0  0  0999 V2000
   -0.2368   38.5588  -11.4896 C   0  0  0  0  0  0  0  0  0  0  0  0
    0.2126   39.0779  -12.5197 O   0  0  0  0  0  0  0  0  0  0  0  0
   -0.9915   37.5791  -11.5479 O   0  0  0  0  0  0  0  0  0  0  0  0
   -1.3241   37.1964  -10.7599 H   0  0  0  0  0  0  0  0  0  0  0  0
    0.1421   39.1200  -10.1425 C   0  0  0  0  0  0  0  0  0  0  0  0
    1.8417   39.7463  -10.2844 Cl  0  0  0  0  0  0  0  0  0  0  0  0
   -0.2575   37.8705   -8.8849 Cl  0  0  0  0  0  0  0  0  0  0  0  0
  5  1  1  0  0  0
  5  6  1  0  0  0
  5  7  1  0  0  0
  1  2  2  0  0  0
  1  3  1  0  0  0
  3  4  1  0  0  0
M  END
> <minimizedAffinity>
-3.93195

$$$$
2Q8H_TF4_A_438


  7  6  0  0  0  0  0  0  0  0999 V2000
   -0.1892   40.8861  -11.9035 C   0  0  0  0  0  0  0  0  0  0  0  0
   -0.0616   41.8616  -12.6550 O   0  0  0  0  0  0  0  0  0  0  0  0
   -1.2926   40.3490  -11.7399 O   0  0  0  0  0  0  0  0  0  0  0  0
   -1.3744   39.6113  -11.1680 H   0  0  0  0  0  0  0  0  0  0  0  0
    1.0140   40.3369  -11.1797 C   0  0  0  0  0  0  0  0  0  0  0  0
    2.3569   41.5434  -11.3853 Cl  0  0  0  0  0  0  0  0  0  0  0  0
    1.2539   38.6184  -11.7199 Cl  0  0  0  0  0  0  0  0  0  0  0  0
  5  1  1  0  0  0
  5  6  1  0  0  0
  5  7  1  0  0  0
  1  2  2  0  0  0
  1  3  1  0  0  0
  3  4  1  0  0  0
M  END
> <minimizedAffinity>
-3.92616

$$$$
2Q8H_TF4_A_438


  7  6  0  0  0  0  0  0  0  0999 V2000
   -0.5446   40.6265  -11.9833 C   0  0  0  0  0  0  0  0  0  0  0  0
   -0.5602   41.7905  -12.4047 O   0  0  0  0  0  0  0  0  0  0  0  0
   -1.5607   40.1118  -11.4981 O   0  0  0  0  0  0  0  0  0  0  0  0
   -1.5343   39.2298  -11.1831 H   0  0  0  0  0  0  0  0  0  0  0  0
    0.7254   39.8181  -12.0654 C   0  0  0  0  0  0  0  0  0  0  0  0
    1.5995   40.0361  -10.4876 Cl  0  0  0  0  0  0  0  0  0  0  0  0
    1.5573   40.2425  -13.6244 Cl  0  0  0  0  0  0  0  0  0  0  0  0
  5  1  1  0  0  0
  5  6  1  0  0  0
  5  7  1  0  0  0
  1  2  2  0  0  0
  1  3  1  0  0  0
  3  4  1  0  0  0
M  END
> <minimizedAffinity>
-3.92059

$$$$
2Q8H_TF4_A_438


  7  6  0  0  0  0  0  0  0  0999 V2000
    0.7203   38.3685  -11.7223 C   0  0  0  0  0  0  0  0  0  0  0  0
   -0.3326   37.7175  -11.7089 O   0  0  0  0  0  0  0  0  0  0  0  0
    1.8152   37.8108  -11.5709 O   0  0  0  0  0  0  0  0  0  0  0  0
    2.6041   38.3162  -11.5833 H   0  0  0  0  0  0  0  0  0  0  0  0
    0.6744   39.8609  -11.9318 C   0  0  0  0  0  0  0  0  0  0  0  0
   -1.0510   40.3797  -11.6970 Cl  0  0  0  0  0  0  0  0  0  0  0  0
    1.5237   40.2315  -13.4951 Cl  0  0  0  0  0  0  0  0  0  0  0  0
  5  1  1  0  0  0
  5  6  1  0  0  0
  5  7  1  0  0  0
  1  2  2  0  0  0
  1  3  1  0  0  0
  3  4  1  0  0  0
M  END
> <minimizedAffinity>
-3.91722

$$$$
2Q8H_TF4_A_438


  7  6  0  0  0  0  0  0  0  0999 V2000
    1.4480   41.0100  -12.5126 C   0  0  0  0  0  0  0  0  0  0  0  0
    1.2669   40.1176  -13.3512 O   0  0  0  0  0  0  0  0  0  0  0  0
    2.1239   42.0111  -12.7846 O   0  0  0  0  0  0  0  0  0  0  0  0
    2.2527   42.6787  -12.1399 H   0  0  0  0  0  0  0  0  0  0  0  0
    0.8341   40.8838  -11.1413 C   0  0  0  0  0  0  0  0  0  0  0  0
    2.0596   40.0611  -10.0819 Cl  0  0  0  0  0  0  0  0  0  0  0  0
   -0.8218   40.1607  -11.3356 Cl  0  0  0  0  0  0  0  0  0  0  0  0
  5  1  1  0  0  0
  5  6  1  0  0  0
  5  7  1  0  0  0
  1  2  2  0  0  0
  1  3  1  0  0  0
  3  4  1  0  0  0
M  END
> <minimizedAffinity>
-3.88587

$$$$
