3I9G_S1P_L_401


 30 29  0  0  0  0  0  0  0  0999 V2000
    0.9761   16.2567   35.2641 C   0  0  0  0  0  0  0  0  0  0  0  0
   -0.3495   16.7869   35.2145 O   0  0  0  0  0  0  0  0  0  0  0  0
   -0.9538   16.1143   34.8633 H   0  0  0  0  0  0  0  0  0  0  0  0
    0.9726   15.0274   36.1873 C   0  0  0  0  0  0  0  0  0  0  0  0
   -0.0756   14.0899   35.7613 N   0  0  0  0  0  0  0  0  0  0  0  0
    0.1099   13.7836   34.8062 H   0  0  0  0  0  0  0  0  0  0  0  0
   -0.9830   14.5543   35.7992 H   0  0  0  0  0  0  0  0  0  0  0  0
    2.3333   14.3443   36.1601 C   0  0  0  0  0  0  0  0  0  0  0  0
    3.0407   14.7142   37.3444 O   0  0  0  0  0  0  0  0  0  0  0  0
    2.8013   13.9241   38.7362 P   0  0  0  0  0  0  0  0  0  0  0  0
    3.9049   12.9618   38.8812 O   0  0  0  0  0  0  0  0  0  0  0  0
    1.4122   13.4081   38.5871 O   0  0  0  0  0  0  0  0  0  0  0  0
    2.7772   15.0137   39.8044 O   0  0  0  0  0  0  0  0  0  0  0  0
    4.7433   13.4419   38.9679 H   0  0  0  0  0  0  0  0  0  0  0  0
    0.7976   14.1538   38.5023 H   0  0  0  0  0  0  0  0  0  0  0  0
    1.3792   15.8749   33.8533 C   0  0  0  0  0  0  0  0  0  0  0  0
    1.4016   16.8128   32.9120 C   0  0  0  0  0  0  0  0  0  0  0  0
    1.8014   16.4595   31.4996 C   0  0  0  0  0  0  0  0  0  0  0  0
    0.7092   16.9955   30.5695 C   0  0  0  0  0  0  0  0  0  0  0  0
   -0.2619   17.8039   31.3934 C   0  0  0  0  0  0  0  0  0  0  0  0
   -1.4167   18.4382   30.6621 C   0  0  0  0  0  0  0  0  0  0  0  0
   -1.6334   17.5472   29.4518 C   0  0  0  0  0  0  0  0  0  0  0  0
   -2.3917   18.1837   28.2890 C   0  0  0  0  0  0  0  0  0  0  0  0
   -1.7999   19.5696   28.0210 C   0  0  0  0  0  0  0  0  0  0  0  0
   -2.8690   20.4341   27.3632 C   0  0  0  0  0  0  0  0  0  0  0  0
   -3.4781   21.5446   28.2446 C   0  0  0  0  0  0  0  0  0  0  0  0
   -2.7738   21.6953   29.5992 C   0  0  0  0  0  0  0  0  0  0  0  0
   -2.4447   23.1334   30.0015 C   0  0  0  0  0  0  0  0  0  0  0  0
   -2.3019   24.0086   28.7693 C   0  0  0  0  0  0  0  0  0  0  0  0
   -3.1582   25.2588   28.8428 C   0  0  0  0  0  0  0  0  0  0  0  0
  4  8  1  0  0  0
  9  8  1  0  0  0
  9 10  1  0  0  0
  1  4  1  0  0  0
  5  4  1  0  0  0
 16  1  1  0  0  0
  1  2  1  0  0  0
 17 16  2  0  0  0
 18 17  1  0  0  0
 19 18  1  0  0  0
 20 19  1  0  0  0
 20 21  1  0  0  0
 22 21  1  0  0  0
 23 22  1  0  0  0
 24 23  1  0  0  0
 24 25  1  0  0  0
 26 25  1  0  0  0
 26 27  1  0  0  0
 27 28  1  0  0  0
 28 29  1  0  0  0
 29 30  1  0  0  0
 13 10  2  0  0  0
 12 10  1  0  0  0
 10 11  1  0  0  0
  5  6  1  0  0  0
  5  7  1  0  0  0
  2  3  1  0  0  0
 11 14  1  0  0  0
 12 15  1  0  0  0
M  END
> <minimizedAffinity>
-8.31340

$$$$
3I9G_S1P_L_401


 30 29  0  0  0  0  0  0  0  0999 V2000
    0.3533   15.3830   33.2058 C   0  0  0  0  0  0  0  0  0  0  0  0
    1.3864   14.4166   33.0069 O   0  0  0  0  0  0  0  0  0  0  0  0
    2.1839   14.8591   32.6765 H   0  0  0  0  0  0  0  0  0  0  0  0
    0.8434   16.4115   34.2381 C   0  0  0  0  0  0  0  0  0  0  0  0
   -0.2298   16.6994   35.1997 N   0  0  0  0  0  0  0  0  0  0  0  0
   -0.4886   15.8417   35.6872 H   0  0  0  0  0  0  0  0  0  0  0  0
   -1.0416   17.0666   34.7033 H   0  0  0  0  0  0  0  0  0  0  0  0
    2.0738   15.8841   34.9639 C   0  0  0  0  0  0  0  0  0  0  0  0
    1.6390   14.9650   35.9669 O   0  0  0  0  0  0  0  0  0  0  0  0
    2.7015   14.2546   36.9595 P   0  0  0  0  0  0  0  0  0  0  0  0
    3.7123   13.6012   36.1130 O   0  0  0  0  0  0  0  0  0  0  0  0
    1.8310   13.4089   37.8227 O   0  0  0  0  0  0  0  0  0  0  0  0
    3.2471   15.3882   37.8231 O   0  0  0  0  0  0  0  0  0  0  0  0
    4.1984   14.2745   35.6118 H   0  0  0  0  0  0  0  0  0  0  0  0
    1.2193   13.9754   38.3187 H   0  0  0  0  0  0  0  0  0  0  0  0
    0.0707   16.0453   31.8716 C   0  0  0  0  0  0  0  0  0  0  0  0
    0.0085   17.3713   31.8092 C   0  0  0  0  0  0  0  0  0  0  0  0
   -0.2694   18.0557   30.4924 C   0  0  0  0  0  0  0  0  0  0  0  0
   -1.6728   18.6623   30.5816 C   0  0  0  0  0  0  0  0  0  0  0  0
   -2.5136   18.0793   29.4732 C   0  0  0  0  0  0  0  0  0  0  0  0
   -1.7883   17.6148   28.2366 C   0  0  0  0  0  0  0  0  0  0  0  0
   -2.5123   18.3025   27.0927 C   0  0  0  0  0  0  0  0  0  0  0  0
   -3.5750   19.3211   27.4995 C   0  0  0  0  0  0  0  0  0  0  0  0
   -3.6207   20.4271   26.4423 C   0  0  0  0  0  0  0  0  0  0  0  0
   -3.4206   21.7693   27.1362 C   0  0  0  0  0  0  0  0  0  0  0  0
   -2.2763   21.8332   28.1693 C   0  0  0  0  0  0  0  0  0  0  0  0
   -2.7443   22.2713   29.5631 C   0  0  0  0  0  0  0  0  0  0  0  0
   -2.1116   23.5628   30.0825 C   0  0  0  0  0  0  0  0  0  0  0  0
   -1.9761   24.5751   28.9593 C   0  0  0  0  0  0  0  0  0  0  0  0
   -0.5352   24.9828   28.7159 C   0  0  0  0  0  0  0  0  0  0  0  0
  4  8  1  0  0  0
  9  8  1  0  0  0
  9 10  1  0  0  0
  1  4  1  0  0  0
  5  4  1  0  0  0
 16  1  1  0  0  0
  1  2  1  0  0  0
 17 16  2  0  0  0
 18 17  1  0  0  0
 19 18  1  0  0  0
 20 19  1  0  0  0
 20 21  1  0  0  0
 22 21  1  0  0  0
 23 22  1  0  0  0
 24 23  1  0  0  0
 24 25  1  0  0  0
 26 25  1  0  0  0
 26 27  1  0  0  0
 27 28  1  0  0  0
 28 29  1  0  0  0
 29 30  1  0  0  0
 13 10  2  0  0  0
 12 10  1  0  0  0
 10 11  1  0  0  0
  5  6  1  0  0  0
  5  7  1  0  0  0
  2  3  1  0  0  0
 11 14  1  0  0  0
 12 15  1  0  0  0
M  END
> <minimizedAffinity>
-8.30471

$$$$
3I9G_S1P_L_401


 30 29  0  0  0  0  0  0  0  0999 V2000
    1.5026   15.6850   35.7333 C   0  0  0  0  0  0  0  0  0  0  0  0
    0.3129   16.2771   36.2578 O   0  0  0  0  0  0  0  0  0  0  0  0
   -0.4575   15.7605   35.9741 H   0  0  0  0  0  0  0  0  0  0  0  0
    1.6098   14.2503   36.2751 C   0  0  0  0  0  0  0  0  0  0  0  0
    2.9075   13.6731   35.8980 N   0  0  0  0  0  0  0  0  0  0  0  0
    3.6587   14.2338   36.3001 H   0  0  0  0  0  0  0  0  0  0  0  0
    2.9944   13.6671   34.8817 H   0  0  0  0  0  0  0  0  0  0  0  0
    1.4514   14.2459   37.7896 C   0  0  0  0  0  0  0  0  0  0  0  0
    2.4672   15.0818   38.3457 O   0  0  0  0  0  0  0  0  0  0  0  0
    3.7197   14.4451   39.1488 P   0  0  0  0  0  0  0  0  0  0  0  0
    4.9341   15.1106   38.6515 O   0  0  0  0  0  0  0  0  0  0  0  0
    3.5529   12.9839   38.9138 O   0  0  0  0  0  0  0  0  0  0  0  0
    3.4171   14.7138   40.6202 O   0  0  0  0  0  0  0  0  0  0  0  0
    4.9017   16.0534   38.8775 H   0  0  0  0  0  0  0  0  0  0  0  0
    2.7112   12.6890   39.2953 H   0  0  0  0  0  0  0  0  0  0  0  0
    1.3975   15.6876   34.2208 C   0  0  0  0  0  0  0  0  0  0  0  0
    2.1583   16.5236   33.5220 C   0  0  0  0  0  0  0  0  0  0  0  0
    2.0745   16.5447   32.0148 C   0  0  0  0  0  0  0  0  0  0  0  0
    0.8782   15.6769   31.6129 C   0  0  0  0  0  0  0  0  0  0  0  0
   -0.0807   16.5283   30.8187 C   0  0  0  0  0  0  0  0  0  0  0  0
   -0.5042   17.8370   31.4339 C   0  0  0  0  0  0  0  0  0  0  0  0
   -1.3147   18.5211   30.3473 C   0  0  0  0  0  0  0  0  0  0  0  0
   -1.0294   18.0599   28.9197 C   0  0  0  0  0  0  0  0  0  0  0  0
   -2.3597   17.7283   28.2390 C   0  0  0  0  0  0  0  0  0  0  0  0
   -3.3041   18.9110   28.4189 C   0  0  0  0  0  0  0  0  0  0  0  0
   -3.1152   20.0837   27.4339 C   0  0  0  0  0  0  0  0  0  0  0  0
   -3.3899   21.4541   28.0664 C   0  0  0  0  0  0  0  0  0  0  0  0
   -3.1000   21.5456   29.5650 C   0  0  0  0  0  0  0  0  0  0  0  0
   -2.5225   22.9064   29.9106 C   0  0  0  0  0  0  0  0  0  0  0  0
   -2.9828   23.9919   28.9559 C   0  0  0  0  0  0  0  0  0  0  0  0
  4  8  1  0  0  0
  9  8  1  0  0  0
  9 10  1  0  0  0
  1  4  1  0  0  0
  5  4  1  0  0  0
 16  1  1  0  0  0
  1  2  1  0  0  0
 17 16  2  0  0  0
 18 17  1  0  0  0
 19 18  1  0  0  0
 20 19  1  0  0  0
 20 21  1  0  0  0
 22 21  1  0  0  0
 23 22  1  0  0  0
 24 23  1  0  0  0
 24 25  1  0  0  0
 26 25  1  0  0  0
 26 27  1  0  0  0
 27 28  1  0  0  0
 28 29  1  0  0  0
 29 30  1  0  0  0
 13 10  2  0  0  0
 12 10  1  0  0  0
 10 11  1  0  0  0
  5  6  1  0  0  0
  5  7  1  0  0  0
  2  3  1  0  0  0
 11 14  1  0  0  0
 12 15  1  0  0  0
M  END
> <minimizedAffinity>
-7.75792

$$$$
3I9G_S1P_L_401


 30 29  0  0  0  0  0  0  0  0999 V2000
    1.3544   15.7221   34.7713 C   0  0  0  0  0  0  0  0  0  0  0  0
    1.8174   14.4231   34.3983 O   0  0  0  0  0  0  0  0  0  0  0  0
    2.5104   14.5078   33.7249 H   0  0  0  0  0  0  0  0  0  0  0  0
    2.5414   16.5145   35.3428 C   0  0  0  0  0  0  0  0  0  0  0  0
    2.4302   17.9263   34.9508 N   0  0  0  0  0  0  0  0  0  0  0  0
    1.5645   18.3157   35.3240 H   0  0  0  0  0  0  0  0  0  0  0  0
    2.4241   17.9972   33.9333 H   0  0  0  0  0  0  0  0  0  0  0  0
    2.5762   16.3901   36.8601 C   0  0  0  0  0  0  0  0  0  0  0  0
    3.1267   15.1141   37.1894 O   0  0  0  0  0  0  0  0  0  0  0  0
    2.3569   14.1134   38.2019 P   0  0  0  0  0  0  0  0  0  0  0  0
    1.4521   13.2875   37.3869 O   0  0  0  0  0  0  0  0  0  0  0  0
    1.7716   15.0461   39.2048 O   0  0  0  0  0  0  0  0  0  0  0  0
    3.4674   13.3283   38.8940 O   0  0  0  0  0  0  0  0  0  0  0  0
    1.9738   12.7351   36.7839 H   0  0  0  0  0  0  0  0  0  0  0  0
    2.4849   15.5190   39.6614 H   0  0  0  0  0  0  0  0  0  0  0  0
    0.8002   16.3940   33.5303 C   0  0  0  0  0  0  0  0  0  0  0  0
    0.8744   15.7599   32.3648 C   0  0  0  0  0  0  0  0  0  0  0  0
    0.3280   16.4060   31.1144 C   0  0  0  0  0  0  0  0  0  0  0  0
   -0.0788   17.8362   31.4812 C   0  0  0  0  0  0  0  0  0  0  0  0
   -1.2003   18.2605   30.5661 C   0  0  0  0  0  0  0  0  0  0  0  0
   -0.9232   18.2305   29.0852 C   0  0  0  0  0  0  0  0  0  0  0  0
   -2.2700   17.9238   28.4546 C   0  0  0  0  0  0  0  0  0  0  0  0
   -3.3818   18.9291   28.7473 C   0  0  0  0  0  0  0  0  0  0  0  0
   -3.5396   19.8490   27.5341 C   0  0  0  0  0  0  0  0  0  0  0  0
   -3.3954   21.2933   27.9989 C   0  0  0  0  0  0  0  0  0  0  0  0
   -3.0908   21.4945   29.4982 C   0  0  0  0  0  0  0  0  0  0  0  0
   -2.4194   22.8398   29.8030 C   0  0  0  0  0  0  0  0  0  0  0  0
   -2.5288   23.8848   28.6921 C   0  0  0  0  0  0  0  0  0  0  0  0
   -2.8503   25.2482   29.2772 C   0  0  0  0  0  0  0  0  0  0  0  0
   -2.8244   25.2497   30.7941 C   0  0  0  0  0  0  0  0  0  0  0  0
  4  8  1  0  0  0
  9  8  1  0  0  0
  9 10  1  0  0  0
  1  4  1  0  0  0
  5  4  1  0  0  0
 16  1  1  0  0  0
  1  2  1  0  0  0
 17 16  2  0  0  0
 18 17  1  0  0  0
 19 18  1  0  0  0
 20 19  1  0  0  0
 20 21  1  0  0  0
 22 21  1  0  0  0
 23 22  1  0  0  0
 24 23  1  0  0  0
 24 25  1  0  0  0
 26 25  1  0  0  0
 26 27  1  0  0  0
 27 28  1  0  0  0
 28 29  1  0  0  0
 29 30  1  0  0  0
 13 10  2  0  0  0
 12 10  1  0  0  0
 10 11  1  0  0  0
  5  6  1  0  0  0
  5  7  1  0  0  0
  2  3  1  0  0  0
 11 14  1  0  0  0
 12 15  1  0  0  0
M  END
> <minimizedAffinity>
-7.74103

$$$$
3I9G_S1P_L_401


 30 29  0  0  0  0  0  0  0  0999 V2000
    4.0316   16.4591   35.0937 C   0  0  0  0  0  0  0  0  0  0  0  0
    4.6142   17.5517   35.8063 O   0  0  0  0  0  0  0  0  0  0  0  0
    4.0323   17.8068   36.5392 H   0  0  0  0  0  0  0  0  0  0  0  0
    3.8693   15.2782   36.0645 C   0  0  0  0  0  0  0  0  0  0  0  0
    5.0411   14.3963   35.9734 N   0  0  0  0  0  0  0  0  0  0  0  0
    5.8799   14.9182   36.2274 H   0  0  0  0  0  0  0  0  0  0  0  0
    5.1324   14.0497   35.0185 H   0  0  0  0  0  0  0  0  0  0  0  0
    3.7024   15.7872   37.4900 C   0  0  0  0  0  0  0  0  0  0  0  0
    2.3976   15.4232   37.9426 O   0  0  0  0  0  0  0  0  0  0  0  0
    2.0596   13.8973   38.3627 P   0  0  0  0  0  0  0  0  0  0  0  0
    3.3437   13.2260   38.6186 O   0  0  0  0  0  0  0  0  0  0  0  0
    1.2136   13.4243   37.2320 O   0  0  0  0  0  0  0  0  0  0  0  0
    1.1625   14.0204   39.5910 O   0  0  0  0  0  0  0  0  0  0  0  0
    3.7791   13.6402   39.3800 H   0  0  0  0  0  0  0  0  0  0  0  0
    0.4050   13.9583   37.1877 H   0  0  0  0  0  0  0  0  0  0  0  0
    2.6865   16.9133   34.5616 C   0  0  0  0  0  0  0  0  0  0  0  0
    2.0451   16.1452   33.6871 C   0  0  0  0  0  0  0  0  0  0  0  0
    0.7033   16.5734   33.1435 C   0  0  0  0  0  0  0  0  0  0  0  0
    0.3512   15.6206   31.9972 C   0  0  0  0  0  0  0  0  0  0  0  0
   -0.2966   16.4219   30.8956 C   0  0  0  0  0  0  0  0  0  0  0  0
   -0.1212   17.9178   30.9439 C   0  0  0  0  0  0  0  0  0  0  0  0
   -1.4544   18.4704   30.4720 C   0  0  0  0  0  0  0  0  0  0  0  0
   -2.0011   17.8661   29.1804 C   0  0  0  0  0  0  0  0  0  0  0  0
   -1.5655   18.7471   28.0070 C   0  0  0  0  0  0  0  0  0  0  0  0
   -2.8114   19.3250   27.3461 C   0  0  0  0  0  0  0  0  0  0  0  0
   -2.9298   20.8635   27.3540 C   0  0  0  0  0  0  0  0  0  0  0  0
   -2.9214   21.4629   28.7662 C   0  0  0  0  0  0  0  0  0  0  0  0
   -2.2151   22.8132   28.8924 C   0  0  0  0  0  0  0  0  0  0  0  0
   -3.1691   23.9439   28.5516 C   0  0  0  0  0  0  0  0  0  0  0  0
   -2.8075   25.2398   29.2528 C   0  0  0  0  0  0  0  0  0  0  0  0
  4  8  1  0  0  0
  9  8  1  0  0  0
  9 10  1  0  0  0
  1  4  1  0  0  0
  5  4  1  0  0  0
 16  1  1  0  0  0
  1  2  1  0  0  0
 17 16  2  0  0  0
 18 17  1  0  0  0
 19 18  1  0  0  0
 20 19  1  0  0  0
 20 21  1  0  0  0
 22 21  1  0  0  0
 23 22  1  0  0  0
 24 23  1  0  0  0
 24 25  1  0  0  0
 26 25  1  0  0  0
 26 27  1  0  0  0
 27 28  1  0  0  0
 28 29  1  0  0  0
 29 30  1  0  0  0
 13 10  2  0  0  0
 12 10  1  0  0  0
 10 11  1  0  0  0
  5  6  1  0  0  0
  5  7  1  0  0  0
  2  3  1  0  0  0
 11 14  1  0  0  0
 12 15  1  0  0  0
M  END
> <minimizedAffinity>
-7.34020

$$$$
3I9G_S1P_L_401


 30 29  0  0  0  0  0  0  0  0999 V2000
    2.8151   17.7344   35.3646 C   0  0  0  0  0  0  0  0  0  0  0  0
    1.6344   16.9334   35.4371 O   0  0  0  0  0  0  0  0  0  0  0  0
    1.8820   15.9998   35.5270 H   0  0  0  0  0  0  0  0  0  0  0  0
    3.6191   17.5316   36.6591 C   0  0  0  0  0  0  0  0  0  0  0  0
    4.0316   18.8356   37.1964 N   0  0  0  0  0  0  0  0  0  0  0  0
    3.2043   19.3938   37.4070 H   0  0  0  0  0  0  0  0  0  0  0  0
    4.6035   19.3223   36.5061 H   0  0  0  0  0  0  0  0  0  0  0  0
    2.7833   16.7792   37.6860 C   0  0  0  0  0  0  0  0  0  0  0  0
    3.3754   15.4952   37.8869 O   0  0  0  0  0  0  0  0  0  0  0  0
    2.6026   14.1450   37.4410 P   0  0  0  0  0  0  0  0  0  0  0  0
    2.6054   13.2427   38.6032 O   0  0  0  0  0  0  0  0  0  0  0  0
    3.3370   13.7362   36.2114 O   0  0  0  0  0  0  0  0  0  0  0  0
    1.2137   14.6127   37.0156 O   0  0  0  0  0  0  0  0  0  0  0  0
    2.0902   13.6402   39.3225 H   0  0  0  0  0  0  0  0  0  0  0  0
    3.2458   14.4263   35.5359 H   0  0  0  0  0  0  0  0  0  0  0  0
    3.6108   17.2842   34.1551 C   0  0  0  0  0  0  0  0  0  0  0  0
    2.9653   16.7814   33.1080 C   0  0  0  0  0  0  0  0  0  0  0  0
    3.7338   16.3278   31.8903 C   0  0  0  0  0  0  0  0  0  0  0  0
    2.7076   15.9707   30.8109 C   0  0  0  0  0  0  0  0  0  0  0  0
    1.7341   14.9756   31.3917 C   0  0  0  0  0  0  0  0  0  0  0  0
    0.3034   15.4251   31.5399 C   0  0  0  0  0  0  0  0  0  0  0  0
    0.2067   16.6702   30.6763 C   0  0  0  0  0  0  0  0  0  0  0  0
   -0.3673   17.9081   31.3623 C   0  0  0  0  0  0  0  0  0  0  0  0
   -1.3226   18.6055   30.3907 C   0  0  0  0  0  0  0  0  0  0  0  0
   -1.0423   18.0922   28.9833 C   0  0  0  0  0  0  0  0  0  0  0  0
   -1.6551   18.9129   27.8291 C   0  0  0  0  0  0  0  0  0  0  0  0
   -3.0292   19.5034   28.1708 C   0  0  0  0  0  0  0  0  0  0  0  0
   -3.3254   20.8632   27.5374 C   0  0  0  0  0  0  0  0  0  0  0  0
   -2.6849   21.9757   28.3478 C   0  0  0  0  0  0  0  0  0  0  0  0
   -2.9501   21.8371   29.8352 C   0  0  0  0  0  0  0  0  0  0  0  0
  4  8  1  0  0  0
  9  8  1  0  0  0
  9 10  1  0  0  0
  1  4  1  0  0  0
  5  4  1  0  0  0
 16  1  1  0  0  0
  1  2  1  0  0  0
 17 16  2  0  0  0
 18 17  1  0  0  0
 19 18  1  0  0  0
 20 19  1  0  0  0
 20 21  1  0  0  0
 22 21  1  0  0  0
 23 22  1  0  0  0
 24 23  1  0  0  0
 24 25  1  0  0  0
 26 25  1  0  0  0
 26 27  1  0  0  0
 27 28  1  0  0  0
 28 29  1  0  0  0
 29 30  1  0  0  0
 13 10  2  0  0  0
 12 10  1  0  0  0
 10 11  1  0  0  0
  5  6  1  0  0  0
  5  7  1  0  0  0
  2  3  1  0  0  0
 11 14  1  0  0  0
 12 15  1  0  0  0
M  END
> <minimizedAffinity>
-7.30724

$$$$
3I9G_S1P_L_401


 30 29  0  0  0  0  0  0  0  0999 V2000
    1.2152   14.1950   36.5773 C   0  0  0  0  0  0  0  0  0  0  0  0
    2.3895   13.4892   36.1723 O   0  0  0  0  0  0  0  0  0  0  0  0
    3.1196   14.1169   36.0549 H   0  0  0  0  0  0  0  0  0  0  0  0
    1.5107   14.9045   37.9087 C   0  0  0  0  0  0  0  0  0  0  0  0
    0.2892   15.5503   38.4087 N   0  0  0  0  0  0  0  0  0  0  0  0
   -0.4295   14.8435   38.5649 H   0  0  0  0  0  0  0  0  0  0  0  0
   -0.0432   16.2271   37.7217 H   0  0  0  0  0  0  0  0  0  0  0  0
    2.0359   13.9067   38.9321 C   0  0  0  0  0  0  0  0  0  0  0  0
    1.5028   14.2575   40.2098 O   0  0  0  0  0  0  0  0  0  0  0  0
    1.5373   13.2077   41.4410 P   0  0  0  0  0  0  0  0  0  0  0  0
    2.9469   13.0465   41.8309 O   0  0  0  0  0  0  0  0  0  0  0  0
    0.8039   12.0332   40.8928 O   0  0  0  0  0  0  0  0  0  0  0  0
    0.6591   13.8396   42.5172 O   0  0  0  0  0  0  0  0  0  0  0  0
    3.2878   13.8899   42.1674 H   0  0  0  0  0  0  0  0  0  0  0  0
   -0.1075   12.2903   40.6827 H   0  0  0  0  0  0  0  0  0  0  0  0
    0.8756   15.1974   35.4916 C   0  0  0  0  0  0  0  0  0  0  0  0
    1.8019   16.0676   35.1035 C   0  0  0  0  0  0  0  0  0  0  0  0
    1.4901   17.0748   34.0228 C   0  0  0  0  0  0  0  0  0  0  0  0
    0.4379   16.4464   33.1044 C   0  0  0  0  0  0  0  0  0  0  0  0
    0.1067   17.4355   32.0149 C   0  0  0  0  0  0  0  0  0  0  0  0
    0.6574   17.1502   30.6415 C   0  0  0  0  0  0  0  0  0  0  0  0
   -0.3291   17.8092   29.6939 C   0  0  0  0  0  0  0  0  0  0  0  0
   -1.6579   17.0794   29.5097 C   0  0  0  0  0  0  0  0  0  0  0  0
   -2.4118   17.7252   28.3446 C   0  0  0  0  0  0  0  0  0  0  0  0
   -1.6523   18.9723   27.9077 C   0  0  0  0  0  0  0  0  0  0  0  0
   -2.4963   20.2521   27.7324 C   0  0  0  0  0  0  0  0  0  0  0  0
   -2.3324   21.2471   28.8886 C   0  0  0  0  0  0  0  0  0  0  0  0
   -2.1593   22.7067   28.4673 C   0  0  0  0  0  0  0  0  0  0  0  0
   -2.4574   23.6332   29.6324 C   0  0  0  0  0  0  0  0  0  0  0  0
   -3.3603   24.7875   29.2400 C   0  0  0  0  0  0  0  0  0  0  0  0
  4  8  1  0  0  0
  9  8  1  0  0  0
  9 10  1  0  0  0
  1  4  1  0  0  0
  5  4  1  0  0  0
 16  1  1  0  0  0
  1  2  1  0  0  0
 17 16  2  0  0  0
 18 17  1  0  0  0
 19 18  1  0  0  0
 20 19  1  0  0  0
 20 21  1  0  0  0
 22 21  1  0  0  0
 23 22  1  0  0  0
 24 23  1  0  0  0
 24 25  1  0  0  0
 26 25  1  0  0  0
 26 27  1  0  0  0
 27 28  1  0  0  0
 28 29  1  0  0  0
 29 30  1  0  0  0
 13 10  2  0  0  0
 12 10  1  0  0  0
 10 11  1  0  0  0
  5  6  1  0  0  0
  5  7  1  0  0  0
  2  3  1  0  0  0
 11 14  1  0  0  0
 12 15  1  0  0  0
M  END
> <minimizedAffinity>
-7.14425

$$$$
3I9G_S1P_L_401


 30 29  0  0  0  0  0  0  0  0999 V2000
    1.1250   16.0876   32.2719 C   0  0  0  0  0  0  0  0  0  0  0  0
    2.4772   16.5220   32.4262 O   0  0  0  0  0  0  0  0  0  0  0  0
    2.4999   17.3178   32.9804 H   0  0  0  0  0  0  0  0  0  0  0  0
    0.5562   15.7686   33.6641 C   0  0  0  0  0  0  0  0  0  0  0  0
    0.0626   14.3848   33.6933 N   0  0  0  0  0  0  0  0  0  0  0  0
    0.8325   13.7450   33.4978 H   0  0  0  0  0  0  0  0  0  0  0  0
   -0.6641   14.2681   32.9870 H   0  0  0  0  0  0  0  0  0  0  0  0
    1.6262   15.9688   34.7289 C   0  0  0  0  0  0  0  0  0  0  0  0
    2.1493   14.6873   35.0807 O   0  0  0  0  0  0  0  0  0  0  0  0
    2.3136   14.2541   36.6313 P   0  0  0  0  0  0  0  0  0  0  0  0
    3.7295   13.9093   36.8350 O   0  0  0  0  0  0  0  0  0  0  0  0
    1.2845   13.1887   36.7864 O   0  0  0  0  0  0  0  0  0  0  0  0
    1.8448   15.4686   37.4275 O   0  0  0  0  0  0  0  0  0  0  0  0
    4.2770   14.6988   36.7013 H   0  0  0  0  0  0  0  0  0  0  0  0
    0.4046   13.5629   36.6229 H   0  0  0  0  0  0  0  0  0  0  0  0
    0.3470   17.2089   31.6115 C   0  0  0  0  0  0  0  0  0  0  0  0
   -0.4628   16.9230   30.5974 C   0  0  0  0  0  0  0  0  0  0  0  0
   -1.2504   18.0208   29.9238 C   0  0  0  0  0  0  0  0  0  0  0  0
   -1.8255   17.4399   28.6287 C   0  0  0  0  0  0  0  0  0  0  0  0
   -2.0673   18.5750   27.6651 C   0  0  0  0  0  0  0  0  0  0  0  0
   -3.4366   19.2039   27.6789 C   0  0  0  0  0  0  0  0  0  0  0  0
   -3.2774   20.4748   26.8635 C   0  0  0  0  0  0  0  0  0  0  0  0
   -2.5826   21.6342   27.5745 C   0  0  0  0  0  0  0  0  0  0  0  0
   -3.5107   22.1597   28.6725 C   0  0  0  0  0  0  0  0  0  0  0  0
   -2.6649   22.5340   29.8839 C   0  0  0  0  0  0  0  0  0  0  0  0
   -2.5038   24.0443   30.1562 C   0  0  0  0  0  0  0  0  0  0  0  0
   -1.0418   24.4733   30.3355 C   0  0  0  0  0  0  0  0  0  0  0  0
   -0.5851   25.6137   29.4249 C   0  0  0  0  0  0  0  0  0  0  0  0
    0.2308   25.0712   28.2654 C   0  0  0  0  0  0  0  0  0  0  0  0
    1.7100   24.9782   28.5897 C   0  0  0  0  0  0  0  0  0  0  0  0
  4  8  1  0  0  0
  9  8  1  0  0  0
  9 10  1  0  0  0
  1  4  1  0  0  0
  5  4  1  0  0  0
 16  1  1  0  0  0
  1  2  1  0  0  0
 17 16  2  0  0  0
 18 17  1  0  0  0
 19 18  1  0  0  0
 20 19  1  0  0  0
 20 21  1  0  0  0
 22 21  1  0  0  0
 23 22  1  0  0  0
 24 23  1  0  0  0
 24 25  1  0  0  0
 26 25  1  0  0  0
 26 27  1  0  0  0
 27 28  1  0  0  0
 28 29  1  0  0  0
 29 30  1  0  0  0
 13 10  2  0  0  0
 12 10  1  0  0  0
 10 11  1  0  0  0
  5  6  1  0  0  0
  5  7  1  0  0  0
  2  3  1  0  0  0
 11 14  1  0  0  0
 12 15  1  0  0  0
M  END
> <minimizedAffinity>
-6.98758

$$$$
3I9G_S1P_L_401


 30 29  0  0  0  0  0  0  0  0999 V2000
   -2.6720   17.8575   28.8793 C   0  0  0  0  0  0  0  0  0  0  0  0
   -3.3489   18.4532   29.9874 O   0  0  0  0  0  0  0  0  0  0  0  0
   -2.8844   19.2623   30.2531 H   0  0  0  0  0  0  0  0  0  0  0  0
   -2.6694   18.8620   27.7156 C   0  0  0  0  0  0  0  0  0  0  0  0
   -4.0041   19.4599   27.5731 N   0  0  0  0  0  0  0  0  0  0  0  0
   -4.2496   19.9521   28.4321 H   0  0  0  0  0  0  0  0  0  0  0  0
   -4.6886   18.7250   27.3949 H   0  0  0  0  0  0  0  0  0  0  0  0
   -1.6291   19.9472   27.9587 C   0  0  0  0  0  0  0  0  0  0  0  0
   -2.2126   20.9424   28.8007 O   0  0  0  0  0  0  0  0  0  0  0  0
   -2.2028   22.5030   28.3722 P   0  0  0  0  0  0  0  0  0  0  0  0
   -2.2058   23.2912   29.6147 O   0  0  0  0  0  0  0  0  0  0  0  0
   -3.3730   22.6002   27.4561 O   0  0  0  0  0  0  0  0  0  0  0  0
   -0.9414   22.6684   27.5296 O   0  0  0  0  0  0  0  0  0  0  0  0
   -1.3849   23.1262   30.1043 H   0  0  0  0  0  0  0  0  0  0  0  0
   -3.2287   22.0289   26.6856 H   0  0  0  0  0  0  0  0  0  0  0  0
   -1.2579   17.5304   29.3174 C   0  0  0  0  0  0  0  0  0  0  0  0
   -0.9413   17.6294   30.6043 C   0  0  0  0  0  0  0  0  0  0  0  0
    0.4592   17.3074   31.0671 C   0  0  0  0  0  0  0  0  0  0  0  0
    0.7362   15.8469   30.6984 C   0  0  0  0  0  0  0  0  0  0  0  0
    0.3123   14.9764   31.8550 C   0  0  0  0  0  0  0  0  0  0  0  0
    1.2624   14.8770   33.0205 C   0  0  0  0  0  0  0  0  0  0  0  0
    0.4124   15.2178   34.2316 C   0  0  0  0  0  0  0  0  0  0  0  0
    0.6975   16.5706   34.8804 C   0  0  0  0  0  0  0  0  0  0  0  0
    1.9442   17.1720   34.2269 C   0  0  0  0  0  0  0  0  0  0  0  0
    2.9958   17.3988   35.3066 C   0  0  0  0  0  0  0  0  0  0  0  0
    3.8384   16.1674   35.6998 C   0  0  0  0  0  0  0  0  0  0  0  0
    3.4378   15.5687   37.0544 C   0  0  0  0  0  0  0  0  0  0  0  0
    2.7821   14.1891   36.9842 C   0  0  0  0  0  0  0  0  0  0  0  0
    1.4491   14.1987   37.7107 C   0  0  0  0  0  0  0  0  0  0  0  0
    1.1689   15.5249   38.3922 C   0  0  0  0  0  0  0  0  0  0  0  0
  4  8  1  0  0  0
  9  8  1  0  0  0
  9 10  1  0  0  0
  1  4  1  0  0  0
  5  4  1  0  0  0
 16  1  1  0  0  0
  1  2  1  0  0  0
 17 16  2  0  0  0
 18 17  1  0  0  0
 19 18  1  0  0  0
 20 19  1  0  0  0
 20 21  1  0  0  0
 22 21  1  0  0  0
 23 22  1  0  0  0
 24 23  1  0  0  0
 24 25  1  0  0  0
 26 25  1  0  0  0
 26 27  1  0  0  0
 27 28  1  0  0  0
 28 29  1  0  0  0
 29 30  1  0  0  0
 13 10  2  0  0  0
 12 10  1  0  0  0
 10 11  1  0  0  0
  5  6  1  0  0  0
  5  7  1  0  0  0
  2  3  1  0  0  0
 11 14  1  0  0  0
 12 15  1  0  0  0
M  END
> <minimizedAffinity>
-6.82494

$$$$
3I9G_S1P_L_401


 30 29  0  0  0  0  0  0  0  0999 V2000
    4.5612   16.6464   36.1637 C   0  0  0  0  0  0  0  0  0  0  0  0
    4.8679   17.5910   37.1906 O   0  0  0  0  0  0  0  0  0  0  0  0
    4.2691   17.4577   37.9419 H   0  0  0  0  0  0  0  0  0  0  0  0
    4.7493   15.2314   36.7344 C   0  0  0  0  0  0  0  0  0  0  0  0
    5.3921   14.3726   35.7300 N   0  0  0  0  0  0  0  0  0  0  0  0
    6.3068   14.7552   35.4909 H   0  0  0  0  0  0  0  0  0  0  0  0
    4.8102   14.3342   34.8931 H   0  0  0  0  0  0  0  0  0  0  0  0
    5.5924   15.2821   38.0015 C   0  0  0  0  0  0  0  0  0  0  0  0
    4.7129   15.2102   39.1244 O   0  0  0  0  0  0  0  0  0  0  0  0
    4.5344   13.8316   39.9530 P   0  0  0  0  0  0  0  0  0  0  0  0
    3.9583   12.8436   39.0273 O   0  0  0  0  0  0  0  0  0  0  0  0
    3.7370   14.2594   41.1359 O   0  0  0  0  0  0  0  0  0  0  0  0
    5.9379   13.4861   40.4425 O   0  0  0  0  0  0  0  0  0  0  0  0
    4.5883   12.6651   38.3117 H   0  0  0  0  0  0  0  0  0  0  0  0
    4.2428   14.9087   41.6492 H   0  0  0  0  0  0  0  0  0  0  0  0
    3.1245   16.8726   35.7355 C   0  0  0  0  0  0  0  0  0  0  0  0
    2.8534   17.0365   34.4449 C   0  0  0  0  0  0  0  0  0  0  0  0
    1.4308   17.2612   33.9920 C   0  0  0  0  0  0  0  0  0  0  0  0
    1.1191   16.2040   32.9286 C   0  0  0  0  0  0  0  0  0  0  0  0
    0.0558   16.7530   32.0103 C   0  0  0  0  0  0  0  0  0  0  0  0
    0.2447   16.5263   30.5326 C   0  0  0  0  0  0  0  0  0  0  0  0
   -0.1964   17.8297   29.8905 C   0  0  0  0  0  0  0  0  0  0  0  0
   -1.6648   18.2002   30.0870 C   0  0  0  0  0  0  0  0  0  0  0  0
   -2.4901   17.5217   28.9909 C   0  0  0  0  0  0  0  0  0  0  0  0
   -3.4217   18.5582   28.3739 C   0  0  0  0  0  0  0  0  0  0  0  0
   -2.7750   19.5388   27.3732 C   0  0  0  0  0  0  0  0  0  0  0  0
   -3.7627   20.5717   26.8154 C   0  0  0  0  0  0  0  0  0  0  0  0
   -3.7330   21.9353   27.5067 C   0  0  0  0  0  0  0  0  0  0  0  0
   -2.4145   22.1323   28.2329 C   0  0  0  0  0  0  0  0  0  0  0  0
   -2.5911   22.2513   29.7351 C   0  0  0  0  0  0  0  0  0  0  0  0
  4  8  1  0  0  0
  9  8  1  0  0  0
  9 10  1  0  0  0
  1  4  1  0  0  0
  5  4  1  0  0  0
 16  1  1  0  0  0
  1  2  1  0  0  0
 17 16  2  0  0  0
 18 17  1  0  0  0
 19 18  1  0  0  0
 20 19  1  0  0  0
 20 21  1  0  0  0
 22 21  1  0  0  0
 23 22  1  0  0  0
 24 23  1  0  0  0
 24 25  1  0  0  0
 26 25  1  0  0  0
 26 27  1  0  0  0
 27 28  1  0  0  0
 28 29  1  0  0  0
 29 30  1  0  0  0
 13 10  2  0  0  0
 12 10  1  0  0  0
 10 11  1  0  0  0
  5  6  1  0  0  0
  5  7  1  0  0  0
  2  3  1  0  0  0
 11 14  1  0  0  0
 12 15  1  0  0  0
M  END
> <minimizedAffinity>
-6.62054

$$$$
