4IH6_1EP_A_601


 22 23  0  0  0  0  0  0  0  0999 V2000
  -18.6057  -11.3060  -60.9700 N   0  0  0  0  0  0  0  0  0  0  0  0
  -19.9202  -10.9907  -60.6543 C   0  0  0  0  0  0  0  0  0  0  0  0
  -20.3044   -9.9804  -60.0918 O   0  0  0  0  0  0  0  0  0  0  0  0
  -20.6902  -12.0090  -61.0875 N   0  0  0  0  0  0  0  0  0  0  0  0
  -19.9354  -13.0805  -61.7166 C   0  0  0  0  0  0  0  0  0  0  0  0
  -18.5139  -12.5241  -61.6162 C   0  0  0  0  0  0  0  0  0  0  0  0
  -17.4778  -13.0339  -62.0009 O   0  0  0  0  0  0  0  0  0  0  0  0
  -21.6695  -12.0255  -60.9874 H   0  0  0  0  0  0  0  0  0  0  0  0
  -20.4172  -13.3506  -63.1567 C   0  0  0  0  0  0  0  0  0  0  0  0
  -20.0580  -14.7530  -63.6207 C   0  0  0  0  0  0  0  0  0  0  0  0
  -19.9427  -12.2887  -64.1558 C   0  0  0  0  0  0  0  0  0  0  0  0
  -17.4472  -10.4495  -60.6686 C   0  0  0  0  0  0  0  0  0  0  0  0
  -17.4301   -9.1674  -61.4684 C   0  0  0  0  0  0  0  0  0  0  0  0
  -17.8089   -9.1561  -62.8037 C   0  0  0  0  0  0  0  0  0  0  0  0
  -17.7781   -7.9850  -63.5427 C   0  0  0  0  0  0  0  0  0  0  0  0
  -17.3609   -6.7843  -62.9709 C   0  0  0  0  0  0  0  0  0  0  0  0
  -16.9958   -6.8004  -61.6277 C   0  0  0  0  0  0  0  0  0  0  0  0
  -17.0285   -7.9708  -60.8897 C   0  0  0  0  0  0  0  0  0  0  0  0
  -17.2807   -5.4932  -63.8040 C   0  0  0  0  0  0  0  0  0  0  0  0
  -15.8297   -4.9981  -63.8777 C   0  0  0  0  0  0  0  0  0  0  0  0
  -17.7514   -5.7006  -65.2559 C   0  0  0  0  0  0  0  0  0  0  0  0
  -18.1664   -4.3919  -63.1873 C   0  0  0  0  0  0  0  0  0  0  0  0
 10  9  1  0  0  0
  9 11  1  0  0  0
  9  5  1  0  0  0
 22 19  1  0  0  0
  4  5  1  0  0  0
  4  2  1  0  0  0
  5  6  1  0  0  0
 20 19  1  0  0  0
 15 14  2  0  0  0
 15 16  1  0  0  0
  3  2  2  0  0  0
 19 16  1  0  0  0
 19 21  1  0  0  0
  2  1  1  0  0  0
 14 13  1  0  0  0
 16 17  2  0  0  0
  6  1  1  0  0  0
  6  7  2  0  0  0
  1 12  1  0  0  0
 13 12  1  0  0  0
 13 18  2  0  0  0
 17 18  1  0  0  0
  4  8  1  0  0  0
M  END
> <minimizedAffinity>
-7.84202

$$$$
4IH6_1EP_A_601


 22 23  0  0  0  0  0  0  0  0999 V2000
  -17.7983  -12.0045  -62.3611 N   0  0  0  0  0  0  0  0  0  0  0  0
  -17.0876  -12.6203  -63.3821 C   0  0  0  0  0  0  0  0  0  0  0  0
  -15.9353  -12.3859  -63.7019 O   0  0  0  0  0  0  0  0  0  0  0  0
  -17.9090  -13.5253  -63.9511 N   0  0  0  0  0  0  0  0  0  0  0  0
  -19.2317  -13.5674  -63.3494 C   0  0  0  0  0  0  0  0  0  0  0  0
  -19.0802  -12.5099  -62.2545 C   0  0  0  0  0  0  0  0  0  0  0  0
  -19.9094  -12.1439  -61.4423 O   0  0  0  0  0  0  0  0  0  0  0  0
  -17.6390  -14.1023  -64.7017 H   0  0  0  0  0  0  0  0  0  0  0  0
  -19.5808  -14.9783  -62.8331 C   0  0  0  0  0  0  0  0  0  0  0  0
  -18.7935  -16.0579  -63.5581 C   0  0  0  0  0  0  0  0  0  0  0  0
  -21.0861  -15.2687  -62.8559 C   0  0  0  0  0  0  0  0  0  0  0  0
  -17.2580  -10.9510  -61.4866 C   0  0  0  0  0  0  0  0  0  0  0  0
  -17.3107   -9.5749  -62.1089 C   0  0  0  0  0  0  0  0  0  0  0  0
  -18.1653   -9.3051  -63.1689 C   0  0  0  0  0  0  0  0  0  0  0  0
  -18.2031   -8.0490  -63.7512 C   0  0  0  0  0  0  0  0  0  0  0  0
  -17.3811   -7.0198  -63.2954 C   0  0  0  0  0  0  0  0  0  0  0  0
  -16.5367   -7.2936  -62.2231 C   0  0  0  0  0  0  0  0  0  0  0  0
  -16.5010   -8.5487  -61.6408 C   0  0  0  0  0  0  0  0  0  0  0  0
  -17.3879   -5.6382  -63.9729 C   0  0  0  0  0  0  0  0  0  0  0  0
  -17.9475   -5.7485  -65.3978 C   0  0  0  0  0  0  0  0  0  0  0  0
  -18.2740   -4.6227  -63.2272 C   0  0  0  0  0  0  0  0  0  0  0  0
  -15.9630   -5.0517  -64.0267 C   0  0  0  0  0  0  0  0  0  0  0  0
 10  9  1  0  0  0
  9 11  1  0  0  0
  9  5  1  0  0  0
 22 19  1  0  0  0
  4  5  1  0  0  0
  4  2  1  0  0  0
  5  6  1  0  0  0
 20 19  1  0  0  0
 15 14  2  0  0  0
 15 16  1  0  0  0
  3  2  2  0  0  0
 19 16  1  0  0  0
 19 21  1  0  0  0
  2  1  1  0  0  0
 14 13  1  0  0  0
 16 17  2  0  0  0
  6  1  1  0  0  0
  6  7  2  0  0  0
  1 12  1  0  0  0
 13 12  1  0  0  0
 13 18  2  0  0  0
 17 18  1  0  0  0
  4  8  1  0  0  0
M  END
> <minimizedAffinity>
-7.36424

$$$$
4IH6_1EP_A_601


 22 23  0  0  0  0  0  0  0  0999 V2000
  -16.2047   -9.7569  -58.7763 N   0  0  0  0  0  0  0  0  0  0  0  0
  -16.6648   -9.4599  -57.5008 C   0  0  0  0  0  0  0  0  0  0  0  0
  -17.8276   -9.4545  -57.1366 O   0  0  0  0  0  0  0  0  0  0  0  0
  -15.5860   -9.1809  -56.7419 N   0  0  0  0  0  0  0  0  0  0  0  0
  -14.3288   -9.2656  -57.4671 C   0  0  0  0  0  0  0  0  0  0  0  0
  -14.8269   -9.6814  -58.8525 C   0  0  0  0  0  0  0  0  0  0  0  0
  -14.1706   -9.8940  -59.8552 O   0  0  0  0  0  0  0  0  0  0  0  0
  -15.6439   -8.9428  -55.7884 H   0  0  0  0  0  0  0  0  0  0  0  0
  -13.3555  -10.2654  -56.8098 C   0  0  0  0  0  0  0  0  0  0  0  0
  -11.9146  -10.0058  -57.2190 C   0  0  0  0  0  0  0  0  0  0  0  0
  -13.7517  -11.7281  -57.0434 C   0  0  0  0  0  0  0  0  0  0  0  0
  -17.0689  -10.1205  -59.9110 C   0  0  0  0  0  0  0  0  0  0  0  0
  -17.1851   -9.0258  -60.9462 C   0  0  0  0  0  0  0  0  0  0  0  0
  -16.8692   -7.7114  -60.6311 C   0  0  0  0  0  0  0  0  0  0  0  0
  -16.9908   -6.7041  -61.5740 C   0  0  0  0  0  0  0  0  0  0  0  0
  -17.4389   -6.9777  -62.8651 C   0  0  0  0  0  0  0  0  0  0  0  0
  -17.7405   -8.3001  -63.1782 C   0  0  0  0  0  0  0  0  0  0  0  0
  -17.6171   -9.3062  -62.2357 C   0  0  0  0  0  0  0  0  0  0  0  0
  -17.6199   -5.8521  -63.8985 C   0  0  0  0  0  0  0  0  0  0  0  0
  -18.3740   -4.6716  -63.2710 C   0  0  0  0  0  0  0  0  0  0  0  0
  -16.2750   -5.2983  -64.4056 C   0  0  0  0  0  0  0  0  0  0  0  0
  -18.3991   -6.3619  -65.1274 C   0  0  0  0  0  0  0  0  0  0  0  0
 10  9  1  0  0  0
  9 11  1  0  0  0
  9  5  1  0  0  0
 22 19  1  0  0  0
  4  5  1  0  0  0
  4  2  1  0  0  0
  5  6  1  0  0  0
 20 19  1  0  0  0
 15 14  2  0  0  0
 15 16  1  0  0  0
  3  2  2  0  0  0
 19 16  1  0  0  0
 19 21  1  0  0  0
  2  1  1  0  0  0
 14 13  1  0  0  0
 16 17  2  0  0  0
  6  1  1  0  0  0
  6  7  2  0  0  0
  1 12  1  0  0  0
 13 12  1  0  0  0
 13 18  2  0  0  0
 17 18  1  0  0  0
  4  8  1  0  0  0
M  END
> <minimizedAffinity>
-6.66875

$$$$
4IH6_1EP_A_601


 22 23  0  0  0  0  0  0  0  0999 V2000
  -18.0234  -11.7130  -60.6919 N   0  0  0  0  0  0  0  0  0  0  0  0
  -16.9245  -12.4145  -60.2152 C   0  0  0  0  0  0  0  0  0  0  0  0
  -15.9314  -12.7189  -60.8523 O   0  0  0  0  0  0  0  0  0  0  0  0
  -17.1612  -12.6937  -58.9177 N   0  0  0  0  0  0  0  0  0  0  0  0
  -18.4440  -12.2016  -58.4428 C   0  0  0  0  0  0  0  0  0  0  0  0
  -18.9752  -11.5248  -59.7078 C   0  0  0  0  0  0  0  0  0  0  0  0
  -20.0324  -10.9418  -59.8616 O   0  0  0  0  0  0  0  0  0  0  0  0
  -16.5263  -13.1837  -58.3467 H   0  0  0  0  0  0  0  0  0  0  0  0
  -18.2829  -11.2597  -57.2321 C   0  0  0  0  0  0  0  0  0  0  0  0
  -17.7889   -9.8831  -57.6468 C   0  0  0  0  0  0  0  0  0  0  0  0
  -17.4132  -11.8579  -56.1199 C   0  0  0  0  0  0  0  0  0  0  0  0
  -18.1616  -11.2162  -62.0706 C   0  0  0  0  0  0  0  0  0  0  0  0
  -17.8840   -9.7365  -62.2013 C   0  0  0  0  0  0  0  0  0  0  0  0
  -18.1957   -9.0541  -63.3692 C   0  0  0  0  0  0  0  0  0  0  0  0
  -17.9269   -7.7013  -63.4967 C   0  0  0  0  0  0  0  0  0  0  0  0
  -17.3307   -6.9854  -62.4601 C   0  0  0  0  0  0  0  0  0  0  0  0
  -17.0338   -7.6731  -61.2868 C   0  0  0  0  0  0  0  0  0  0  0  0
  -17.3043   -9.0246  -61.1597 C   0  0  0  0  0  0  0  0  0  0  0  0
  -16.9882   -5.4938  -62.6190 C   0  0  0  0  0  0  0  0  0  0  0  0
  -15.7108   -5.3285  -63.4537 C   0  0  0  0  0  0  0  0  0  0  0  0
  -18.0968   -4.7107  -63.3472 C   0  0  0  0  0  0  0  0  0  0  0  0
  -16.7881   -4.8318  -61.2409 C   0  0  0  0  0  0  0  0  0  0  0  0
 10  9  1  0  0  0
  9 11  1  0  0  0
  9  5  1  0  0  0
 22 19  1  0  0  0
  4  5  1  0  0  0
  4  2  1  0  0  0
  5  6  1  0  0  0
 20 19  1  0  0  0
 15 14  2  0  0  0
 15 16  1  0  0  0
  3  2  2  0  0  0
 19 16  1  0  0  0
 19 21  1  0  0  0
  2  1  1  0  0  0
 14 13  1  0  0  0
 16 17  2  0  0  0
  6  1  1  0  0  0
  6  7  2  0  0  0
  1 12  1  0  0  0
 13 12  1  0  0  0
 13 18  2  0  0  0
 17 18  1  0  0  0
  4  8  1  0  0  0
M  END
> <minimizedAffinity>
-6.51786

$$$$
4IH6_1EP_A_601


 22 23  0  0  0  0  0  0  0  0999 V2000
  -16.5330  -11.0215  -60.0879 N   0  0  0  0  0  0  0  0  0  0  0  0
  -15.2430  -11.4005  -60.4327 C   0  0  0  0  0  0  0  0  0  0  0  0
  -14.8407  -11.6516  -61.5552 O   0  0  0  0  0  0  0  0  0  0  0  0
  -14.5200  -11.4370  -59.2954 N   0  0  0  0  0  0  0  0  0  0  0  0
  -15.2862  -11.0910  -58.1093 C   0  0  0  0  0  0  0  0  0  0  0  0
  -16.6546  -10.8015  -58.7290 C   0  0  0  0  0  0  0  0  0  0  0  0
  -17.6784  -10.4609  -58.1659 O   0  0  0  0  0  0  0  0  0  0  0  0
  -13.5650  -11.6750  -59.2704 H   0  0  0  0  0  0  0  0  0  0  0  0
  -14.6617   -9.9015  -57.3517 C   0  0  0  0  0  0  0  0  0  0  0  0
  -13.1595  -10.0628  -57.1830 C   0  0  0  0  0  0  0  0  0  0  0  0
  -15.3508   -9.6169  -56.0118 C   0  0  0  0  0  0  0  0  0  0  0  0
  -17.6387  -10.8594  -61.0459 C   0  0  0  0  0  0  0  0  0  0  0  0
  -17.6187   -9.5272  -61.7591 C   0  0  0  0  0  0  0  0  0  0  0  0
  -18.1892   -9.3841  -63.0163 C   0  0  0  0  0  0  0  0  0  0  0  0
  -18.1573   -8.1679  -63.6785 C   0  0  0  0  0  0  0  0  0  0  0  0
  -17.5471   -7.0531  -63.1063 C   0  0  0  0  0  0  0  0  0  0  0  0
  -16.9893   -7.2004  -61.8394 C   0  0  0  0  0  0  0  0  0  0  0  0
  -17.0232   -8.4157  -61.1778 C   0  0  0  0  0  0  0  0  0  0  0  0
  -17.4691   -5.7148  -63.8615 C   0  0  0  0  0  0  0  0  0  0  0  0
  -18.1165   -5.8485  -65.2468 C   0  0  0  0  0  0  0  0  0  0  0  0
  -18.2172   -4.5836  -63.1312 C   0  0  0  0  0  0  0  0  0  0  0  0
  -16.0029   -5.2659  -64.0231 C   0  0  0  0  0  0  0  0  0  0  0  0
 10  9  1  0  0  0
  9 11  1  0  0  0
  9  5  1  0  0  0
 22 19  1  0  0  0
  4  5  1  0  0  0
  4  2  1  0  0  0
  5  6  1  0  0  0
 20 19  1  0  0  0
 15 14  2  0  0  0
 15 16  1  0  0  0
  3  2  2  0  0  0
 19 16  1  0  0  0
 19 21  1  0  0  0
  2  1  1  0  0  0
 14 13  1  0  0  0
 16 17  2  0  0  0
  6  1  1  0  0  0
  6  7  2  0  0  0
  1 12  1  0  0  0
 13 12  1  0  0  0
 13 18  2  0  0  0
 17 18  1  0  0  0
  4  8  1  0  0  0
M  END
> <minimizedAffinity>
-6.14871

$$$$
4IH6_1EP_A_601


 22 23  0  0  0  0  0  0  0  0999 V2000
  -19.0656  -10.3099  -61.6123 N   0  0  0  0  0  0  0  0  0  0  0  0
  -18.5414  -10.5141  -62.8812 C   0  0  0  0  0  0  0  0  0  0  0  0
  -17.7997   -9.7593  -63.4853 O   0  0  0  0  0  0  0  0  0  0  0  0
  -19.0046  -11.7025  -63.3182 N   0  0  0  0  0  0  0  0  0  0  0  0
  -19.8798  -12.3691  -62.3678 C   0  0  0  0  0  0  0  0  0  0  0  0
  -19.8639  -11.3651  -61.2136 C   0  0  0  0  0  0  0  0  0  0  0  0
  -20.4437  -11.4374  -60.1459 O   0  0  0  0  0  0  0  0  0  0  0  0
  -18.7725  -12.0823  -64.1963 H   0  0  0  0  0  0  0  0  0  0  0  0
  -19.3613  -13.7747  -62.0011 C   0  0  0  0  0  0  0  0  0  0  0  0
  -18.7660  -14.4904  -63.2029 C   0  0  0  0  0  0  0  0  0  0  0  0
  -20.4163  -14.6374  -61.2983 C   0  0  0  0  0  0  0  0  0  0  0  0
  -18.7997   -9.1245  -60.7810 C   0  0  0  0  0  0  0  0  0  0  0  0
  -17.6111   -9.2946  -59.8635 C   0  0  0  0  0  0  0  0  0  0  0  0
  -17.7866   -9.5194  -58.5051 C   0  0  0  0  0  0  0  0  0  0  0  0
  -16.6982   -9.6591  -57.6600 C   0  0  0  0  0  0  0  0  0  0  0  0
  -15.3946   -9.5726  -58.1456 C   0  0  0  0  0  0  0  0  0  0  0  0
  -15.2261   -9.3609  -59.5111 C   0  0  0  0  0  0  0  0  0  0  0  0
  -16.3144   -9.2231  -60.3551 C   0  0  0  0  0  0  0  0  0  0  0  0
  -14.1857   -9.6798  -57.1998 C   0  0  0  0  0  0  0  0  0  0  0  0
  -13.9955  -11.1330  -56.7439 C   0  0  0  0  0  0  0  0  0  0  0  0
  -12.8699   -9.2532  -57.8775 C   0  0  0  0  0  0  0  0  0  0  0  0
  -14.3795   -8.7772  -55.9648 C   0  0  0  0  0  0  0  0  0  0  0  0
 10  9  1  0  0  0
  9 11  1  0  0  0
  9  5  1  0  0  0
 22 19  1  0  0  0
  4  5  1  0  0  0
  4  2  1  0  0  0
  5  6  1  0  0  0
 20 19  1  0  0  0
 15 14  2  0  0  0
 15 16  1  0  0  0
  3  2  2  0  0  0
 19 16  1  0  0  0
 19 21  1  0  0  0
  2  1  1  0  0  0
 14 13  1  0  0  0
 16 17  2  0  0  0
  6  1  1  0  0  0
  6  7  2  0  0  0
  1 12  1  0  0  0
 13 12  1  0  0  0
 13 18  2  0  0  0
 17 18  1  0  0  0
  4  8  1  0  0  0
M  END
> <minimizedAffinity>
-6.11867

$$$$
4IH6_1EP_A_601


 22 23  0  0  0  0  0  0  0  0999 V2000
  -16.3976  -11.0525  -60.1852 N   0  0  0  0  0  0  0  0  0  0  0  0
  -15.4270  -10.8240  -59.2196 C   0  0  0  0  0  0  0  0  0  0  0  0
  -15.4713   -9.9855  -58.3366 O   0  0  0  0  0  0  0  0  0  0  0  0
  -14.4290  -11.7032  -59.4406 N   0  0  0  0  0  0  0  0  0  0  0  0
  -14.6656  -12.5752  -60.5795 C   0  0  0  0  0  0  0  0  0  0  0  0
  -16.0418  -12.0845  -61.0327 C   0  0  0  0  0  0  0  0  0  0  0  0
  -16.7143  -12.4861  -61.9643 O   0  0  0  0  0  0  0  0  0  0  0  0
  -13.6181  -11.7501  -58.8843 H   0  0  0  0  0  0  0  0  0  0  0  0
  -14.6162  -14.0641  -60.1799 C   0  0  0  0  0  0  0  0  0  0  0  0
  -15.7108  -14.4210  -59.1871 C   0  0  0  0  0  0  0  0  0  0  0  0
  -13.2359  -14.5037  -59.6774 C   0  0  0  0  0  0  0  0  0  0  0  0
  -17.6590  -10.3017  -60.2936 C   0  0  0  0  0  0  0  0  0  0  0  0
  -17.5619   -9.1025  -61.2081 C   0  0  0  0  0  0  0  0  0  0  0  0
  -17.0643   -7.8923  -60.7449 C   0  0  0  0  0  0  0  0  0  0  0  0
  -16.9899   -6.7877  -61.5771 C   0  0  0  0  0  0  0  0  0  0  0  0
  -17.4172   -6.8551  -62.9020 C   0  0  0  0  0  0  0  0  0  0  0  0
  -17.9021   -8.0756  -63.3636 C   0  0  0  0  0  0  0  0  0  0  0  0
  -17.9744   -9.1794  -62.5317 C   0  0  0  0  0  0  0  0  0  0  0  0
  -17.3796   -5.6157  -63.8131 C   0  0  0  0  0  0  0  0  0  0  0  0
  -18.0018   -5.9409  -65.1780 C   0  0  0  0  0  0  0  0  0  0  0  0
  -18.1803   -4.4350  -63.2321 C   0  0  0  0  0  0  0  0  0  0  0  0
  -15.9293   -5.1321  -64.0140 C   0  0  0  0  0  0  0  0  0  0  0  0
 10  9  1  0  0  0
  9 11  1  0  0  0
  9  5  1  0  0  0
 22 19  1  0  0  0
  4  5  1  0  0  0
  4  2  1  0  0  0
  5  6  1  0  0  0
 20 19  1  0  0  0
 15 14  2  0  0  0
 15 16  1  0  0  0
  3  2  2  0  0  0
 19 16  1  0  0  0
 19 21  1  0  0  0
  2  1  1  0  0  0
 14 13  1  0  0  0
 16 17  2  0  0  0
  6  1  1  0  0  0
  6  7  2  0  0  0
  1 12  1  0  0  0
 13 12  1  0  0  0
 13 18  2  0  0  0
 17 18  1  0  0  0
  4  8  1  0  0  0
M  END
> <minimizedAffinity>
-5.96525

$$$$
4IH6_1EP_A_601


 22 23  0  0  0  0  0  0  0  0999 V2000
  -17.4293  -10.4103  -59.4978 N   0  0  0  0  0  0  0  0  0  0  0  0
  -16.1199  -10.0143  -59.7331 C   0  0  0  0  0  0  0  0  0  0  0  0
  -15.1138  -10.5856  -59.3509 O   0  0  0  0  0  0  0  0  0  0  0  0
  -16.1703   -8.8823  -60.4637 N   0  0  0  0  0  0  0  0  0  0  0  0
  -17.5239   -8.4416  -60.7584 C   0  0  0  0  0  0  0  0  0  0  0  0
  -18.3368   -9.5455  -60.0794 C   0  0  0  0  0  0  0  0  0  0  0  0
  -19.5470   -9.6627  -60.0241 O   0  0  0  0  0  0  0  0  0  0  0  0
  -15.3676   -8.4006  -60.7684 H   0  0  0  0  0  0  0  0  0  0  0  0
  -17.7651   -8.3101  -62.2761 C   0  0  0  0  0  0  0  0  0  0  0  0
  -17.8271   -9.6665  -62.9597 C   0  0  0  0  0  0  0  0  0  0  0  0
  -16.7594   -7.3791  -62.9637 C   0  0  0  0  0  0  0  0  0  0  0  0
  -17.8136  -11.6088  -58.7344 C   0  0  0  0  0  0  0  0  0  0  0  0
  -18.3924  -12.7053  -59.5983 C   0  0  0  0  0  0  0  0  0  0  0  0
  -17.7211  -13.1501  -60.7289 C   0  0  0  0  0  0  0  0  0  0  0  0
  -18.2579  -14.1435  -61.5310 C   0  0  0  0  0  0  0  0  0  0  0  0
  -19.4898  -14.7226  -61.2315 C   0  0  0  0  0  0  0  0  0  0  0  0
  -20.1508  -14.2815  -60.0886 C   0  0  0  0  0  0  0  0  0  0  0  0
  -19.6127  -13.2898  -59.2868 C   0  0  0  0  0  0  0  0  0  0  0  0
  -20.1089  -15.7920  -62.1484 C   0  0  0  0  0  0  0  0  0  0  0  0
  -19.6940  -17.1947  -61.6834 C   0  0  0  0  0  0  0  0  0  0  0  0
  -21.6488  -15.7587  -62.1334 C   0  0  0  0  0  0  0  0  0  0  0  0
  -19.6594  -15.5832  -63.6084 C   0  0  0  0  0  0  0  0  0  0  0  0
 10  9  1  0  0  0
  9 11  1  0  0  0
  9  5  1  0  0  0
 22 19  1  0  0  0
  4  5  1  0  0  0
  4  2  1  0  0  0
  5  6  1  0  0  0
 20 19  1  0  0  0
 15 14  2  0  0  0
 15 16  1  0  0  0
  3  2  2  0  0  0
 19 16  1  0  0  0
 19 21  1  0  0  0
  2  1  1  0  0  0
 14 13  1  0  0  0
 16 17  2  0  0  0
  6  1  1  0  0  0
  6  7  2  0  0  0
  1 12  1  0  0  0
 13 12  1  0  0  0
 13 18  2  0  0  0
 17 18  1  0  0  0
  4  8  1  0  0  0
M  END
> <minimizedAffinity>
-5.80553

$$$$
4IH6_1EP_A_601


 22 23  0  0  0  0  0  0  0  0999 V2000
  -19.1479  -11.5165  -62.0626 N   0  0  0  0  0  0  0  0  0  0  0  0
  -18.0370  -11.5367  -62.8946 C   0  0  0  0  0  0  0  0  0  0  0  0
  -17.8542  -12.2891  -63.8355 O   0  0  0  0  0  0  0  0  0  0  0  0
  -17.2011  -10.5687  -62.4683 N   0  0  0  0  0  0  0  0  0  0  0  0
  -17.6980   -9.8405  -61.3123 C   0  0  0  0  0  0  0  0  0  0  0  0
  -19.0455  -10.5323  -61.0979 C   0  0  0  0  0  0  0  0  0  0  0  0
  -19.8816  -10.3021  -60.2439 O   0  0  0  0  0  0  0  0  0  0  0  0
  -16.3372  -10.3737  -62.8984 H   0  0  0  0  0  0  0  0  0  0  0  0
  -17.7924   -8.3258  -61.5877 C   0  0  0  0  0  0  0  0  0  0  0  0
  -17.6086   -8.0053  -63.0623 C   0  0  0  0  0  0  0  0  0  0  0  0
  -16.8465   -7.4977  -60.7099 C   0  0  0  0  0  0  0  0  0  0  0  0
  -20.3030  -12.4197  -62.1916 C   0  0  0  0  0  0  0  0  0  0  0  0
  -20.0435  -13.8017  -61.6380 C   0  0  0  0  0  0  0  0  0  0  0  0
  -19.6925  -13.9812  -60.3071 C   0  0  0  0  0  0  0  0  0  0  0  0
  -19.4383  -15.2456  -59.8021 C   0  0  0  0  0  0  0  0  0  0  0  0
  -19.5211  -16.3749  -60.6148 C   0  0  0  0  0  0  0  0  0  0  0  0
  -19.8872  -16.1887  -61.9449 C   0  0  0  0  0  0  0  0  0  0  0  0
  -20.1427  -14.9250  -62.4482 C   0  0  0  0  0  0  0  0  0  0  0  0
  -19.1921  -17.7744  -60.0664 C   0  0  0  0  0  0  0  0  0  0  0  0
  -20.1689  -18.1473  -58.9426 C   0  0  0  0  0  0  0  0  0  0  0  0
  -19.3154  -18.8706  -61.1414 C   0  0  0  0  0  0  0  0  0  0  0  0
  -17.7487  -17.8215  -59.5262 C   0  0  0  0  0  0  0  0  0  0  0  0
 10  9  1  0  0  0
  9 11  1  0  0  0
  9  5  1  0  0  0
 22 19  1  0  0  0
  4  5  1  0  0  0
  4  2  1  0  0  0
  5  6  1  0  0  0
 20 19  1  0  0  0
 15 14  2  0  0  0
 15 16  1  0  0  0
  3  2  2  0  0  0
 19 16  1  0  0  0
 19 21  1  0  0  0
  2  1  1  0  0  0
 14 13  1  0  0  0
 16 17  2  0  0  0
  6  1  1  0  0  0
  6  7  2  0  0  0
  1 12  1  0  0  0
 13 12  1  0  0  0
 13 18  2  0  0  0
 17 18  1  0  0  0
  4  8  1  0  0  0
M  END
> <minimizedAffinity>
-5.79697

$$$$
4IH6_1EP_A_601


 22 23  0  0  0  0  0  0  0  0999 V2000
  -15.7968   -9.6503  -60.8573 N   0  0  0  0  0  0  0  0  0  0  0  0
  -16.6723   -8.5788  -60.9674 C   0  0  0  0  0  0  0  0  0  0  0  0
  -17.2700   -8.2360  -61.9724 O   0  0  0  0  0  0  0  0  0  0  0  0
  -16.7382   -7.9908  -59.7560 N   0  0  0  0  0  0  0  0  0  0  0  0
  -15.9001   -8.6297  -58.7545 C   0  0  0  0  0  0  0  0  0  0  0  0
  -15.2959   -9.7707  -59.5750 C   0  0  0  0  0  0  0  0  0  0  0  0
  -14.5095  -10.6251  -59.2102 O   0  0  0  0  0  0  0  0  0  0  0  0
  -17.2999   -7.2045  -59.5676 H   0  0  0  0  0  0  0  0  0  0  0  0
  -16.7190   -9.0856  -57.5296 C   0  0  0  0  0  0  0  0  0  0  0  0
  -15.8244   -9.5113  -56.3765 C   0  0  0  0  0  0  0  0  0  0  0  0
  -17.7521  -10.1667  -57.8688 C   0  0  0  0  0  0  0  0  0  0  0  0
  -15.4483  -10.5593  -61.9614 C   0  0  0  0  0  0  0  0  0  0  0  0
  -16.4397  -11.6855  -62.1416 C   0  0  0  0  0  0  0  0  0  0  0  0
  -17.2325  -11.7611  -63.2784 C   0  0  0  0  0  0  0  0  0  0  0  0
  -18.1533  -12.7834  -63.4377 C   0  0  0  0  0  0  0  0  0  0  0  0
  -18.3163  -13.7635  -62.4602 C   0  0  0  0  0  0  0  0  0  0  0  0
  -17.5081  -13.6893  -61.3292 C   0  0  0  0  0  0  0  0  0  0  0  0
  -16.5871  -12.6682  -61.1718 C   0  0  0  0  0  0  0  0  0  0  0  0
  -19.3723  -14.8718  -62.6147 C   0  0  0  0  0  0  0  0  0  0  0  0
  -18.7085  -16.1774  -63.0737 C   0  0  0  0  0  0  0  0  0  0  0  0
  -20.0940  -15.1845  -61.2903 C   0  0  0  0  0  0  0  0  0  0  0  0
  -20.4493  -14.4583  -63.6377 C   0  0  0  0  0  0  0  0  0  0  0  0
 10  9  1  0  0  0
  9 11  1  0  0  0
  9  5  1  0  0  0
 22 19  1  0  0  0
  4  5  1  0  0  0
  4  2  1  0  0  0
  5  6  1  0  0  0
 20 19  1  0  0  0
 15 14  2  0  0  0
 15 16  1  0  0  0
  3  2  2  0  0  0
 19 16  1  0  0  0
 19 21  1  0  0  0
  2  1  1  0  0  0
 14 13  1  0  0  0
 16 17  2  0  0  0
  6  1  1  0  0  0
  6  7  2  0  0  0
  1 12  1  0  0  0
 13 12  1  0  0  0
 13 18  2  0  0  0
 17 18  1  0  0  0
  4  8  1  0  0  0
M  END
> <minimizedAffinity>
-5.63332

$$$$
