1V2J_BEN_T_1


 12 12  0  0  0  0  0  0  0  0999 V2000
   -3.0671    9.1739   19.9051 C   0  0  0  0  0  0  0  0  0  0  0  0
   -1.6721    8.9869   19.4897 C   0  0  0  0  0  0  0  0  0  0  0  0
   -0.9970    7.7176   19.7123 C   0  0  0  0  0  0  0  0  0  0  0  0
   -1.7052    6.6203   20.3543 C   0  0  0  0  0  0  0  0  0  0  0  0
   -3.0802    6.7914   20.7688 C   0  0  0  0  0  0  0  0  0  0  0  0
   -3.7612    8.0594   20.5482 C   0  0  0  0  0  0  0  0  0  0  0  0
   -3.7884   10.5161   19.6707 C   0  0  0  0  0  0  0  0  0  0  0  0
   -3.1341   11.5136   19.1058 N   0  0  0  0  0  0  0  0  0  0  0  0
   -5.0536   10.6589   20.0372 N   0  0  0  0  0  0  0  0  0  0  0  0
   -2.1942   11.3964   18.8373 H   0  0  0  0  0  0  0  0  0  0  0  0
   -5.5320    9.9082   20.4577 H   0  0  0  0  0  0  0  0  0  0  0  0
   -5.5153   11.5157   19.8891 H   0  0  0  0  0  0  0  0  0  0  0  0
  1  2  2  0  0  0
  1  6  1  0  0  0
  1  7  1  0  0  0
  2  3  1  0  0  0
  3  4  2  0  0  0
  4  5  1  0  0  0
  5  6  2  0  0  0
  7  8  2  0  0  0
  7  9  1  0  0  0
  8 10  1  0  0  0
  9 11  1  0  0  0
  9 12  1  0  0  0
M  END
> <minimizedAffinity>
-5.74133

$$$$
1V2J_BEN_T_1


 12 12  0  0  0  0  0  0  0  0999 V2000
   -3.0696    9.1750   19.9048 C   0  0  0  0  0  0  0  0  0  0  0  0
   -3.7612    8.0538   20.5516 C   0  0  0  0  0  0  0  0  0  0  0  0
   -3.0766    6.7891   20.7714 C   0  0  0  0  0  0  0  0  0  0  0  0
   -1.6943    6.6271   20.3464 C   0  0  0  0  0  0  0  0  0  0  0  0
   -1.0011    7.7241   19.7076 C   0  0  0  0  0  0  0  0  0  0  0  0
   -1.6810    8.9924   19.4852 C   0  0  0  0  0  0  0  0  0  0  0  0
   -3.7891   10.5180   19.6704 C   0  0  0  0  0  0  0  0  0  0  0  0
   -3.1343   11.5138   19.1031 N   0  0  0  0  0  0  0  0  0  0  0  0
   -5.0534   10.6633   20.0393 N   0  0  0  0  0  0  0  0  0  0  0  0
   -2.1951   11.3948   18.8329 H   0  0  0  0  0  0  0  0  0  0  0  0
   -5.5322    9.9139   20.4616 H   0  0  0  0  0  0  0  0  0  0  0  0
   -5.5140   11.5207   19.8911 H   0  0  0  0  0  0  0  0  0  0  0  0
  1  2  2  0  0  0
  1  6  1  0  0  0
  1  7  1  0  0  0
  2  3  1  0  0  0
  3  4  2  0  0  0
  4  5  1  0  0  0
  5  6  2  0  0  0
  7  8  2  0  0  0
  7  9  1  0  0  0
  8 10  1  0  0  0
  9 11  1  0  0  0
  9 12  1  0  0  0
M  END
> <minimizedAffinity>
-5.74054

$$$$
1V2J_BEN_T_1


 12 12  0  0  0  0  0  0  0  0999 V2000
   -1.9612    6.8882   20.3267 C   0  0  0  0  0  0  0  0  0  0  0  0
   -1.1520    7.9089   19.6506 C   0  0  0  0  0  0  0  0  0  0  0  0
   -1.7289    9.1968   19.2972 C   0  0  0  0  0  0  0  0  0  0  0  0
   -3.1209    9.4809   19.6122 C   0  0  0  0  0  0  0  0  0  0  0  0
   -3.9296    8.4837   20.2782 C   0  0  0  0  0  0  0  0  0  0  0  0
   -3.3576    7.1930   20.6346 C   0  0  0  0  0  0  0  0  0  0  0  0
   -1.3553    5.5221   20.7050 C   0  0  0  0  0  0  0  0  0  0  0  0
   -1.5447    4.4862   19.9092 N   0  0  0  0  0  0  0  0  0  0  0  0
   -0.6530    5.3973   21.8216 N   0  0  0  0  0  0  0  0  0  0  0  0
   -2.0682    4.5902   19.0819 H   0  0  0  0  0  0  0  0  0  0  0  0
   -0.5179    6.1767   22.4078 H   0  0  0  0  0  0  0  0  0  0  0  0
   -0.2662    4.5253   22.0650 H   0  0  0  0  0  0  0  0  0  0  0  0
  1  2  2  0  0  0
  1  6  1  0  0  0
  1  7  1  0  0  0
  2  3  1  0  0  0
  3  4  2  0  0  0
  4  5  1  0  0  0
  5  6  2  0  0  0
  7  8  2  0  0  0
  7  9  1  0  0  0
  8 10  1  0  0  0
  9 11  1  0  0  0
  9 12  1  0  0  0
M  END
> <minimizedAffinity>
-5.06047

$$$$
1V2J_BEN_T_1


 12 12  0  0  0  0  0  0  0  0999 V2000
   -1.9592    6.8858   20.3307 C   0  0  0  0  0  0  0  0  0  0  0  0
   -3.3609    7.1977   20.6333 C   0  0  0  0  0  0  0  0  0  0  0  0
   -3.9268    8.4884   20.2727 C   0  0  0  0  0  0  0  0  0  0  0  0
   -3.1002    9.4845   19.6079 C   0  0  0  0  0  0  0  0  0  0  0  0
   -1.7171    9.1902   19.3041 C   0  0  0  0  0  0  0  0  0  0  0  0
   -1.1452    7.8998   19.6623 C   0  0  0  0  0  0  0  0  0  0  0  0
   -1.3541    5.5194   20.7090 C   0  0  0  0  0  0  0  0  0  0  0  0
   -1.5443    4.4835   19.9134 N   0  0  0  0  0  0  0  0  0  0  0  0
   -0.6516    5.3943   21.8255 N   0  0  0  0  0  0  0  0  0  0  0  0
   -2.0680    4.5878   19.0863 H   0  0  0  0  0  0  0  0  0  0  0  0
   -0.5159    6.1736   22.4116 H   0  0  0  0  0  0  0  0  0  0  0  0
   -0.2653    4.5221   22.0690 H   0  0  0  0  0  0  0  0  0  0  0  0
  1  2  2  0  0  0
  1  6  1  0  0  0
  1  7  1  0  0  0
  2  3  1  0  0  0
  3  4  2  0  0  0
  4  5  1  0  0  0
  5  6  2  0  0  0
  7  8  2  0  0  0
  7  9  1  0  0  0
  8 10  1  0  0  0
  9 11  1  0  0  0
  9 12  1  0  0  0
M  END
> <minimizedAffinity>
-5.05460

$$$$
1V2J_BEN_T_1


 12 12  0  0  0  0  0  0  0  0999 V2000
   -3.4551    7.4588   20.7673 C   0  0  0  0  0  0  0  0  0  0  0  0
   -2.1175    6.9294   20.4774 C   0  0  0  0  0  0  0  0  0  0  0  0
   -1.1950    7.6707   19.6314 C   0  0  0  0  0  0  0  0  0  0  0  0
   -1.5970    8.9483   19.0624 C   0  0  0  0  0  0  0  0  0  0  0  0
   -2.9126    9.4814   19.3400 C   0  0  0  0  0  0  0  0  0  0  0  0
   -3.8400    8.7441   20.1864 C   0  0  0  0  0  0  0  0  0  0  0  0
   -4.4366    6.6787   21.6643 C   0  0  0  0  0  0  0  0  0  0  0  0
   -5.6863    6.5177   21.2710 N   0  0  0  0  0  0  0  0  0  0  0  0
   -4.0215    6.1786   22.8190 N   0  0  0  0  0  0  0  0  0  0  0  0
   -5.9840    6.8935   20.4111 H   0  0  0  0  0  0  0  0  0  0  0  0
   -3.0872    6.3047   23.1025 H   0  0  0  0  0  0  0  0  0  0  0  0
   -4.6474    5.6810   23.3933 H   0  0  0  0  0  0  0  0  0  0  0  0
  1  2  2  0  0  0
  1  6  1  0  0  0
  1  7  1  0  0  0
  2  3  1  0  0  0
  3  4  2  0  0  0
  4  5  1  0  0  0
  5  6  2  0  0  0
  7  8  2  0  0  0
  7  9  1  0  0  0
  8 10  1  0  0  0
  9 11  1  0  0  0
  9 12  1  0  0  0
M  END
> <minimizedAffinity>
-4.73538

$$$$
1V2J_BEN_T_1


 12 12  0  0  0  0  0  0  0  0999 V2000
   -2.9146    7.0549   21.1128 C   0  0  0  0  0  0  0  0  0  0  0  0
   -3.8337    8.0812   20.6072 C   0  0  0  0  0  0  0  0  0  0  0  0
   -3.4291    8.9720   19.5307 C   0  0  0  0  0  0  0  0  0  0  0  0
   -2.1015    8.8512   18.9472 C   0  0  0  0  0  0  0  0  0  0  0  0
   -1.1857    7.8442   19.4364 C   0  0  0  0  0  0  0  0  0  0  0  0
   -1.5853    6.9494   20.5134 C   0  0  0  0  0  0  0  0  0  0  0  0
   -3.3381    6.1070   22.2524 C   0  0  0  0  0  0  0  0  0  0  0  0
   -4.6205    5.9502   22.5224 N   0  0  0  0  0  0  0  0  0  0  0  0
   -2.4162    5.4601   22.9505 N   0  0  0  0  0  0  0  0  0  0  0  0
   -5.2971    6.4357   21.9972 H   0  0  0  0  0  0  0  0  0  0  0  0
   -1.4624    5.5846   22.7406 H   0  0  0  0  0  0  0  0  0  0  0  0
   -2.6849    4.8552   23.6792 H   0  0  0  0  0  0  0  0  0  0  0  0
  1  2  2  0  0  0
  1  6  1  0  0  0
  1  7  1  0  0  0
  2  3  1  0  0  0
  3  4  2  0  0  0
  4  5  1  0  0  0
  5  6  2  0  0  0
  7  8  2  0  0  0
  7  9  1  0  0  0
  8 10  1  0  0  0
  9 11  1  0  0  0
  9 12  1  0  0  0
M  END
> <minimizedAffinity>
-4.38160

$$$$
1V2J_BEN_T_1


 12 12  0  0  0  0  0  0  0  0999 V2000
   -2.8048    7.8004   20.3123 C   0  0  0  0  0  0  0  0  0  0  0  0
   -3.7700    7.3632   21.3276 C   0  0  0  0  0  0  0  0  0  0  0  0
   -3.4674    6.2409   22.2023 C   0  0  0  0  0  0  0  0  0  0  0  0
   -2.1988    5.5397   22.0728 C   0  0  0  0  0  0  0  0  0  0  0  0
   -1.2387    5.9602   21.0762 C   0  0  0  0  0  0  0  0  0  0  0  0
   -1.5359    7.0831   20.1981 C   0  0  0  0  0  0  0  0  0  0  0  0
   -3.1191    8.9899   19.3834 C   0  0  0  0  0  0  0  0  0  0  0  0
   -2.1690    9.4731   18.6049 N   0  0  0  0  0  0  0  0  0  0  0  0
   -4.3346    9.5173   19.3738 N   0  0  0  0  0  0  0  0  0  0  0  0
   -1.2694    9.0735   18.6201 H   0  0  0  0  0  0  0  0  0  0  0  0
   -5.0357    9.1490   19.9586 H   0  0  0  0  0  0  0  0  0  0  0  0
   -4.5366   10.2776   18.7818 H   0  0  0  0  0  0  0  0  0  0  0  0
  1  2  2  0  0  0
  1  6  1  0  0  0
  1  7  1  0  0  0
  2  3  1  0  0  0
  3  4  2  0  0  0
  4  5  1  0  0  0
  5  6  2  0  0  0
  7  8  2  0  0  0
  7  9  1  0  0  0
  8 10  1  0  0  0
  9 11  1  0  0  0
  9 12  1  0  0  0
M  END
> <minimizedAffinity>
-4.31553

$$$$
1V2J_BEN_T_1


 12 12  0  0  0  0  0  0  0  0999 V2000
   -2.1823    8.0836   19.8538 C   0  0  0  0  0  0  0  0  0  0  0  0
   -1.3804    9.2738   19.5472 C   0  0  0  0  0  0  0  0  0  0  0  0
   -2.0045   10.5850   19.4607 C   0  0  0  0  0  0  0  0  0  0  0  0
   -3.4368   10.7241   19.6767 C   0  0  0  0  0  0  0  0  0  0  0  0
   -4.2388    9.5592   19.9795 C   0  0  0  0  0  0  0  0  0  0  0  0
   -3.6196    8.2442   20.0677 C   0  0  0  0  0  0  0  0  0  0  0  0
   -1.5265    6.6916   19.9483 C   0  0  0  0  0  0  0  0  0  0  0  0
   -1.1384    6.2363   21.1249 N   0  0  0  0  0  0  0  0  0  0  0  0
   -1.3566    5.9657   18.8529 N   0  0  0  0  0  0  0  0  0  0  0  0
   -1.2696    6.7842   21.9323 H   0  0  0  0  0  0  0  0  0  0  0  0
   -1.6499    6.3151   17.9804 H   0  0  0  0  0  0  0  0  0  0  0  0
   -0.9371    5.0770   18.9115 H   0  0  0  0  0  0  0  0  0  0  0  0
  1  2  2  0  0  0
  1  6  1  0  0  0
  1  7  1  0  0  0
  2  3  1  0  0  0
  3  4  2  0  0  0
  4  5  1  0  0  0
  5  6  2  0  0  0
  7  8  2  0  0  0
  7  9  1  0  0  0
  8 10  1  0  0  0
  9 11  1  0  0  0
  9 12  1  0  0  0
M  END
> <minimizedAffinity>
-4.30331

$$$$
1V2J_BEN_T_1


 12 12  0  0  0  0  0  0  0  0999 V2000
   -1.8895    5.7962   21.8221 C   0  0  0  0  0  0  0  0  0  0  0  0
   -2.9694    6.0890   22.7717 C   0  0  0  0  0  0  0  0  0  0  0  0
   -2.9950    5.4572   24.0818 C   0  0  0  0  0  0  0  0  0  0  0  0
   -1.9446    4.5236   24.4594 C   0  0  0  0  0  0  0  0  0  0  0  0
   -0.8745    4.2259   23.5329 C   0  0  0  0  0  0  0  0  0  0  0  0
   -0.8434    4.8556   22.2204 C   0  0  0  0  0  0  0  0  0  0  0  0
   -1.8559    6.4636   20.4329 C   0  0  0  0  0  0  0  0  0  0  0  0
   -2.8926    6.3339   19.6262 N   0  0  0  0  0  0  0  0  0  0  0  0
   -0.7914    7.1586   20.0594 N   0  0  0  0  0  0  0  0  0  0  0  0
   -3.6784    5.8153   19.9140 H   0  0  0  0  0  0  0  0  0  0  0  0
   -0.0237    7.2489   20.6692 H   0  0  0  0  0  0  0  0  0  0  0  0
   -0.7681    7.5846   19.1722 H   0  0  0  0  0  0  0  0  0  0  0  0
  1  2  2  0  0  0
  1  6  1  0  0  0
  1  7  1  0  0  0
  2  3  1  0  0  0
  3  4  2  0  0  0
  4  5  1  0  0  0
  5  6  2  0  0  0
  7  8  2  0  0  0
  7  9  1  0  0  0
  8 10  1  0  0  0
  9 11  1  0  0  0
  9 12  1  0  0  0
M  END
> <minimizedAffinity>
-4.26202

$$$$
1V2J_BEN_T_1


 12 12  0  0  0  0  0  0  0  0999 V2000
   -1.8891    5.7958   21.8223 C   0  0  0  0  0  0  0  0  0  0  0  0
   -0.8418    4.8514   22.2287 C   0  0  0  0  0  0  0  0  0  0  0  0
   -0.8794    4.2235   23.5404 C   0  0  0  0  0  0  0  0  0  0  0  0
   -1.9612    4.5321   24.4635 C   0  0  0  0  0  0  0  0  0  0  0  0
   -2.9996    5.4612   24.0757 C   0  0  0  0  0  0  0  0  0  0  0  0
   -2.9675    6.0925   22.7639 C   0  0  0  0  0  0  0  0  0  0  0  0
   -1.8556    6.4633   20.4332 C   0  0  0  0  0  0  0  0  0  0  0  0
   -2.8921    6.3334   19.6264 N   0  0  0  0  0  0  0  0  0  0  0  0
   -0.7912    7.1586   20.0599 N   0  0  0  0  0  0  0  0  0  0  0  0
   -3.6778    5.8145   19.9140 H   0  0  0  0  0  0  0  0  0  0  0  0
   -0.0236    7.2491   20.6697 H   0  0  0  0  0  0  0  0  0  0  0  0
   -0.7679    7.5847   19.1727 H   0  0  0  0  0  0  0  0  0  0  0  0
  1  2  2  0  0  0
  1  6  1  0  0  0
  1  7  1  0  0  0
  2  3  1  0  0  0
  3  4  2  0  0  0
  4  5  1  0  0  0
  5  6  2  0  0  0
  7  8  2  0  0  0
  7  9  1  0  0  0
  8 10  1  0  0  0
  9 11  1  0  0  0
  9 12  1  0  0  0
M  END
> <minimizedAffinity>
-4.26007

$$$$
