4B5W_PYR_A_1259


  7  6  0  0  0  0  0  0  0  0999 V2000
   29.4167   45.8026   51.7732 C   0  0  0  0  0  0  0  0  0  0  0  0
   28.9105   44.7582   52.3476 O   0  0  0  0  0  0  0  0  0  0  0  0
   30.2469   45.6565   50.7727 O   0  0  0  0  0  0  0  0  0  0  0  0
   30.6147   46.4104   50.3551 H   0  0  0  0  0  0  0  0  0  0  0  0
   29.0848   47.0784   52.2415 C   0  0  0  0  0  0  0  0  0  0  0  0
   29.3776   48.1522   51.5263 O   0  0  0  0  0  0  0  0  0  0  0  0
   28.4008   47.1529   53.5604 C   0  0  0  0  0  0  0  0  0  0  0  0
  1  2  2  0  0  0
  1  3  1  0  0  0
  1  5  1  0  0  0
  5  6  2  0  0  0
  5  7  1  0  0  0
  3  4  1  0  0  0
M  END
> <minimizedAffinity>
-4.53335

$$$$
4B5W_PYR_A_1259


  7  6  0  0  0  0  0  0  0  0999 V2000
   27.2781   49.7083   50.9196 C   0  0  0  0  0  0  0  0  0  0  0  0
   26.1660   49.0509   51.0094 O   0  0  0  0  0  0  0  0  0  0  0  0
   27.2654   50.9586   50.5348 O   0  0  0  0  0  0  0  0  0  0  0  0
   28.0685   51.4368   50.4689 H   0  0  0  0  0  0  0  0  0  0  0  0
   28.4859   49.0679   51.2170 C   0  0  0  0  0  0  0  0  0  0  0  0
   29.6167   49.4815   50.6687 O   0  0  0  0  0  0  0  0  0  0  0  0
   28.4232   47.9214   52.1626 C   0  0  0  0  0  0  0  0  0  0  0  0
  1  2  2  0  0  0
  1  3  1  0  0  0
  1  5  1  0  0  0
  5  6  2  0  0  0
  5  7  1  0  0  0
  3  4  1  0  0  0
M  END
> <minimizedAffinity>
-4.51704

$$$$
4B5W_PYR_A_1259


  7  6  0  0  0  0  0  0  0  0999 V2000
   27.8736   49.5243   50.9175 C   0  0  0  0  0  0  0  0  0  0  0  0
   27.3652   50.6938   50.6921 O   0  0  0  0  0  0  0  0  0  0  0  0
   29.1703   49.3581   50.8680 O   0  0  0  0  0  0  0  0  0  0  0  0
   29.5409   48.5130   51.0306 H   0  0  0  0  0  0  0  0  0  0  0  0
   27.0282   48.4442   51.1931 C   0  0  0  0  0  0  0  0  0  0  0  0
   25.7154   48.5797   51.1001 O   0  0  0  0  0  0  0  0  0  0  0  0
   27.6784   47.1661   51.5885 C   0  0  0  0  0  0  0  0  0  0  0  0
  1  2  2  0  0  0
  1  3  1  0  0  0
  1  5  1  0  0  0
  5  6  2  0  0  0
  5  7  1  0  0  0
  3  4  1  0  0  0
M  END
> <minimizedAffinity>
-4.26035

$$$$
4B5W_PYR_A_1259


  7  6  0  0  0  0  0  0  0  0999 V2000
   28.0940   49.4042   51.2422 C   0  0  0  0  0  0  0  0  0  0  0  0
   26.9107   49.7162   50.8184 O   0  0  0  0  0  0  0  0  0  0  0  0
   29.0689   50.2713   51.1461 O   0  0  0  0  0  0  0  0  0  0  0  0
   29.9261   50.0483   51.4519 H   0  0  0  0  0  0  0  0  0  0  0  0
   28.3226   48.1339   51.7818 C   0  0  0  0  0  0  0  0  0  0  0  0
   29.5570   47.7079   51.9940 O   0  0  0  0  0  0  0  0  0  0  0  0
   27.1233   47.3109   52.0938 C   0  0  0  0  0  0  0  0  0  0  0  0
  1  2  2  0  0  0
  1  3  1  0  0  0
  1  5  1  0  0  0
  5  6  2  0  0  0
  5  7  1  0  0  0
  3  4  1  0  0  0
M  END
> <minimizedAffinity>
-4.23748

$$$$
4B5W_PYR_A_1259


  7  6  0  0  0  0  0  0  0  0999 V2000
   28.7627   47.8150   52.0321 C   0  0  0  0  0  0  0  0  0  0  0  0
   27.7684   47.3319   52.7065 O   0  0  0  0  0  0  0  0  0  0  0  0
   29.9561   47.2972   52.1715 O   0  0  0  0  0  0  0  0  0  0  0  0
   30.6774   47.6448   51.6848 H   0  0  0  0  0  0  0  0  0  0  0  0
   28.5541   48.9001   51.1741 C   0  0  0  0  0  0  0  0  0  0  0  0
   29.5818   49.5451   50.6467 O   0  0  0  0  0  0  0  0  0  0  0  0
   27.1416   49.2764   50.8981 C   0  0  0  0  0  0  0  0  0  0  0  0
  1  2  2  0  0  0
  1  3  1  0  0  0
  1  5  1  0  0  0
  5  6  2  0  0  0
  5  7  1  0  0  0
  3  4  1  0  0  0
M  END
> <minimizedAffinity>
-4.13106

$$$$
4B5W_PYR_A_1259


  7  6  0  0  0  0  0  0  0  0999 V2000
   28.3935   48.4385   50.4454 C   0  0  0  0  0  0  0  0  0  0  0  0
   29.2425   49.3547   50.7871 O   0  0  0  0  0  0  0  0  0  0  0  0
   28.6185   47.7061   49.3849 O   0  0  0  0  0  0  0  0  0  0  0  0
   28.0059   47.0424   49.1353 H   0  0  0  0  0  0  0  0  0  0  0  0
   27.2328   48.2536   51.2043 C   0  0  0  0  0  0  0  0  0  0  0  0
   26.1571   48.9885   50.9740 O   0  0  0  0  0  0  0  0  0  0  0  0
   27.2805   47.2073   52.2606 C   0  0  0  0  0  0  0  0  0  0  0  0
  1  2  2  0  0  0
  1  3  1  0  0  0
  1  5  1  0  0  0
  5  6  2  0  0  0
  5  7  1  0  0  0
  3  4  1  0  0  0
M  END
> <minimizedAffinity>
-4.05513

$$$$
4B5W_PYR_A_1259


  7  6  0  0  0  0  0  0  0  0999 V2000
   28.8284   48.5877   51.3072 C   0  0  0  0  0  0  0  0  0  0  0  0
   29.3903   49.5745   50.6846 O   0  0  0  0  0  0  0  0  0  0  0  0
   29.5688   47.6824   51.8936 O   0  0  0  0  0  0  0  0  0  0  0  0
   29.1649   46.9674   52.3448 H   0  0  0  0  0  0  0  0  0  0  0  0
   27.4331   48.4892   51.3300 C   0  0  0  0  0  0  0  0  0  0  0  0
   26.6846   49.4500   50.8133 O   0  0  0  0  0  0  0  0  0  0  0  0
   26.8560   47.2695   51.9561 C   0  0  0  0  0  0  0  0  0  0  0  0
  1  2  2  0  0  0
  1  3  1  0  0  0
  1  5  1  0  0  0
  5  6  2  0  0  0
  5  7  1  0  0  0
  3  4  1  0  0  0
M  END
> <minimizedAffinity>
-4.04842

$$$$
4B5W_PYR_A_1259


  7  6  0  0  0  0  0  0  0  0999 V2000
   27.1378   48.0882   50.7689 C   0  0  0  0  0  0  0  0  0  0  0  0
   26.0603   48.7418   51.0669 O   0  0  0  0  0  0  0  0  0  0  0  0
   27.0954   47.1397   49.8688 O   0  0  0  0  0  0  0  0  0  0  0  0
   27.8734   46.6651   49.6512 H   0  0  0  0  0  0  0  0  0  0  0  0
   28.3345   48.3906   51.4275 C   0  0  0  0  0  0  0  0  0  0  0  0
   29.1922   49.2483   50.8993 O   0  0  0  0  0  0  0  0  0  0  0  0
   28.5788   47.7055   52.7251 C   0  0  0  0  0  0  0  0  0  0  0  0
  1  2  2  0  0  0
  1  3  1  0  0  0
  1  5  1  0  0  0
  5  6  2  0  0  0
  5  7  1  0  0  0
  3  4  1  0  0  0
M  END
> <minimizedAffinity>
-4.02859

$$$$
4B5W_PYR_A_1259


  7  6  0  0  0  0  0  0  0  0999 V2000
   29.4850   46.0269   51.6833 C   0  0  0  0  0  0  0  0  0  0  0  0
   30.2284   45.3094   50.9027 O   0  0  0  0  0  0  0  0  0  0  0  0
   29.8990   47.2049   52.0739 O   0  0  0  0  0  0  0  0  0  0  0  0
   29.3631   47.7262   52.6388 H   0  0  0  0  0  0  0  0  0  0  0  0
   28.2528   45.5262   52.1171 C   0  0  0  0  0  0  0  0  0  0  0  0
   28.1962   44.4224   52.8443 O   0  0  0  0  0  0  0  0  0  0  0  0
   27.0398   46.2904   51.7202 C   0  0  0  0  0  0  0  0  0  0  0  0
  1  2  2  0  0  0
  1  3  1  0  0  0
  1  5  1  0  0  0
  5  6  2  0  0  0
  5  7  1  0  0  0
  3  4  1  0  0  0
M  END
> <minimizedAffinity>
-3.99530

$$$$
4B5W_PYR_A_1259


  7  6  0  0  0  0  0  0  0  0999 V2000
   28.2324   46.6500   50.7424 C   0  0  0  0  0  0  0  0  0  0  0  0
   27.0457   46.9333   51.1766 O   0  0  0  0  0  0  0  0  0  0  0  0
   28.6285   47.1113   49.5840 O   0  0  0  0  0  0  0  0  0  0  0  0
   29.4866   46.9080   49.2673 H   0  0  0  0  0  0  0  0  0  0  0  0
   29.0732   45.8362   51.5091 C   0  0  0  0  0  0  0  0  0  0  0  0
   30.2006   45.3681   50.9990 O   0  0  0  0  0  0  0  0  0  0  0  0
   28.6334   45.5354   52.8979 C   0  0  0  0  0  0  0  0  0  0  0  0
  1  2  2  0  0  0
  1  3  1  0  0  0
  1  5  1  0  0  0
  5  6  2  0  0  0
  5  7  1  0  0  0
  3  4  1  0  0  0
M  END
> <minimizedAffinity>
-3.91912

$$$$
