6EYA_C4K_A_301


 33 37  0  0  0  0  0  0  0  0999 V2000
   66.1550   34.3129   23.8725 C   0  0  0  0  0  0  0  0  0  0  0  0
   65.0319   34.0232   24.6997 C   0  0  0  0  0  0  0  0  0  0  0  0
   65.1848   33.3790   25.9173 C   0  0  0  0  0  0  0  0  0  0  0  0
   63.7814   34.3249   24.2689 O   0  0  0  0  0  0  0  0  0  0  0  0
   67.6115   33.3857   25.5834 C   0  0  0  0  0  0  0  0  0  0  0  0
   66.4733   33.0744   26.3775 C   0  0  0  0  0  0  0  0  0  0  0  0
   68.7708   32.9236   26.3460 C   0  0  0  0  0  0  0  0  0  0  0  0
   67.4433   33.9679   24.3218 C   0  0  0  0  0  0  0  0  0  0  0  0
   66.9423   32.5044   27.5293 N   0  0  0  0  0  0  0  0  0  0  0  0
   68.3334   32.4788   27.4901 N   0  0  0  0  0  0  0  0  0  0  0  0
   63.6611   34.7603   23.4479 H   0  0  0  0  0  0  0  0  0  0  0  0
   66.3853   32.1665   28.2674 H   0  0  0  0  0  0  0  0  0  0  0  0
   66.4371   36.3187   22.3753 N   0  0  0  0  0  0  0  0  0  0  0  0
   65.9344   35.0540   22.5957 C   0  0  0  0  0  0  0  0  0  0  0  0
   65.1877   34.5410   21.7733 O   0  0  0  0  0  0  0  0  0  0  0  0
   66.1768   37.0197   21.1067 C   0  0  0  0  0  0  0  0  0  0  0  0
   69.5982   37.4809   23.9288 C   0  0  0  0  0  0  0  0  0  0  0  0
   68.6991   36.9325   23.0226 C   0  0  0  0  0  0  0  0  0  0  0  0
   66.8363   37.5413   24.4610 C   0  0  0  0  0  0  0  0  0  0  0  0
   69.1175   38.0524   25.1085 C   0  0  0  0  0  0  0  0  0  0  0  0
   68.7596   39.4122   26.8453 C   0  0  0  0  0  0  0  0  0  0  0  0
   67.3156   36.9488   23.2836 C   0  0  0  0  0  0  0  0  0  0  0  0
   67.7390   38.0704   25.3774 C   0  0  0  0  0  0  0  0  0  0  0  0
   67.5435   38.6831   26.5772 O   0  0  0  0  0  0  0  0  0  0  0  0
   69.7709   38.6614   26.1452 O   0  0  0  0  0  0  0  0  0  0  0  0
   70.2328   33.0870   26.0055 C   0  0  0  0  0  0  0  0  0  0  0  0
   71.0020   31.8928   25.5082 C   0  0  0  0  0  0  0  0  0  0  0  0
   70.2908   30.8976   24.8577 C   0  0  0  0  0  0  0  0  0  0  0  0
   72.3360   29.7193   24.3168 C   0  0  0  0  0  0  0  0  0  0  0  0
   72.4012   31.8277   25.5278 C   0  0  0  0  0  0  0  0  0  0  0  0
   74.5267   30.5821   24.9731 C   0  0  0  0  0  0  0  0  0  0  0  0
   73.0473   30.7333   24.9249 C   0  0  0  0  0  0  0  0  0  0  0  0
   70.9626   29.8174   24.2853 C   0  0  0  0  0  0  0  0  0  0  0  0
 16 13  1  0  0  0
 15 14  2  0  0  0
 13 14  1  0  0  0
 13 22  1  0  0  0
 14  1  1  0  0  0
 29 33  2  0  0  0
 29 32  1  0  0  0
 33 28  1  0  0  0
 18 22  2  0  0  0
 18 17  1  0  0  0
 22 19  1  0  0  0
  1  8  2  0  0  0
  1  2  1  0  0  0
 31 32  1  0  0  0
  4  2  1  0  0  0
 32 30  2  0  0  0
 17 20  2  0  0  0
 28 27  2  0  0  0
  8  5  1  0  0  0
  2  3  2  0  0  0
 19 23  2  0  0  0
 30 27  1  0  0  0
 27 26  1  0  0  0
 20 23  1  0  0  0
 20 25  1  0  0  0
 23 24  1  0  0  0
  5  6  2  0  0  0
  5  7  1  0  0  0
  3  6  1  0  0  0
 25 21  1  0  0  0
  6  9  1  0  0  0
 26  7  1  0  0  0
  7 10  2  0  0  0
 24 21  1  0  0  0
  9 10  1  0  0  0
  4 11  1  0  0  0
  9 12  1  0  0  0
M  END
> <minimizedAffinity>
-12.69080

$$$$
6EYA_C4K_A_301


 33 37  0  0  0  0  0  0  0  0999 V2000
   67.8811   37.5938   24.3513 C   0  0  0  0  0  0  0  0  0  0  0  0
   67.1322   38.3720   25.2803 C   0  0  0  0  0  0  0  0  0  0  0  0
   67.6953   38.8078   26.4694 C   0  0  0  0  0  0  0  0  0  0  0  0
   65.8264   38.6446   25.0334 O   0  0  0  0  0  0  0  0  0  0  0  0
   69.8232   37.7964   25.7987 C   0  0  0  0  0  0  0  0  0  0  0  0
   69.0471   38.5423   26.7285 C   0  0  0  0  0  0  0  0  0  0  0  0
   71.1599   37.6942   26.3836 C   0  0  0  0  0  0  0  0  0  0  0  0
   69.2268   37.2957   24.6359 C   0  0  0  0  0  0  0  0  0  0  0  0
   69.8826   38.8751   27.7593 N   0  0  0  0  0  0  0  0  0  0  0  0
   71.1574   38.3874   27.4869 N   0  0  0  0  0  0  0  0  0  0  0  0
   65.4308   38.3570   24.2342 H   0  0  0  0  0  0  0  0  0  0  0  0
   69.6236   39.3788   28.5646 H   0  0  0  0  0  0  0  0  0  0  0  0
   66.6749   35.9529   22.8689 N   0  0  0  0  0  0  0  0  0  0  0  0
   67.2377   37.1963   23.0644 C   0  0  0  0  0  0  0  0  0  0  0  0
   67.3210   37.9831   22.1311 O   0  0  0  0  0  0  0  0  0  0  0  0
   66.0687   35.5981   21.5748 C   0  0  0  0  0  0  0  0  0  0  0  0
   67.4950   33.1783   25.1896 C   0  0  0  0  0  0  0  0  0  0  0  0
   67.6174   34.1599   24.2141 C   0  0  0  0  0  0  0  0  0  0  0  0
   65.3344   34.8885   24.6222 C   0  0  0  0  0  0  0  0  0  0  0  0
   66.2872   33.0440   25.8771 C   0  0  0  0  0  0  0  0  0  0  0  0
   64.7391   32.7821   27.4671 C   0  0  0  0  0  0  0  0  0  0  0  0
   66.5392   35.0148   23.9155 C   0  0  0  0  0  0  0  0  0  0  0  0
   65.2061   33.8913   25.5833 C   0  0  0  0  0  0  0  0  0  0  0  0
   64.1641   33.5538   26.3917 O   0  0  0  0  0  0  0  0  0  0  0  0
   65.9091   32.1860   26.8738 O   0  0  0  0  0  0  0  0  0  0  0  0
   72.3976   37.0820   25.7725 C   0  0  0  0  0  0  0  0  0  0  0  0
   72.5787   35.5894   25.8365 C   0  0  0  0  0  0  0  0  0  0  0  0
   73.4933   35.0931   26.7512 C   0  0  0  0  0  0  0  0  0  0  0  0
   72.8502   32.8162   26.2355 C   0  0  0  0  0  0  0  0  0  0  0  0
   71.7561   34.6932   25.1419 C   0  0  0  0  0  0  0  0  0  0  0  0
   71.1052   32.3143   24.5994 C   0  0  0  0  0  0  0  0  0  0  0  0
   71.9078   33.3114   25.3578 C   0  0  0  0  0  0  0  0  0  0  0  0
   73.6296   33.7162   26.9280 C   0  0  0  0  0  0  0  0  0  0  0  0
 16 13  1  0  0  0
 15 14  2  0  0  0
 13 14  1  0  0  0
 13 22  1  0  0  0
 14  1  1  0  0  0
 29 33  2  0  0  0
 29 32  1  0  0  0
 33 28  1  0  0  0
 18 22  2  0  0  0
 18 17  1  0  0  0
 22 19  1  0  0  0
  1  8  2  0  0  0
  1  2  1  0  0  0
 31 32  1  0  0  0
  4  2  1  0  0  0
 32 30  2  0  0  0
 17 20  2  0  0  0
 28 27  2  0  0  0
  8  5  1  0  0  0
  2  3  2  0  0  0
 19 23  2  0  0  0
 30 27  1  0  0  0
 27 26  1  0  0  0
 20 23  1  0  0  0
 20 25  1  0  0  0
 23 24  1  0  0  0
  5  6  2  0  0  0
  5  7  1  0  0  0
  3  6  1  0  0  0
 25 21  1  0  0  0
  6  9  1  0  0  0
 26  7  1  0  0  0
  7 10  2  0  0  0
 24 21  1  0  0  0
  9 10  1  0  0  0
  4 11  1  0  0  0
  9 12  1  0  0  0
M  END
> <minimizedAffinity>
-10.87852

$$$$
6EYA_C4K_A_301


 33 37  0  0  0  0  0  0  0  0999 V2000
   67.6017   37.2578   24.2595 C   0  0  0  0  0  0  0  0  0  0  0  0
   67.1303   38.3147   25.0902 C   0  0  0  0  0  0  0  0  0  0  0  0
   67.8341   38.7101   26.2169 C   0  0  0  0  0  0  0  0  0  0  0  0
   65.9424   38.9096   24.8157 O   0  0  0  0  0  0  0  0  0  0  0  0
   69.5751   37.0770   25.6671 C   0  0  0  0  0  0  0  0  0  0  0  0
   69.0687   38.1107   26.5024 C   0  0  0  0  0  0  0  0  0  0  0  0
   70.8518   36.6748   26.2565 C   0  0  0  0  0  0  0  0  0  0  0  0
   68.8224   36.6319   24.5743 C   0  0  0  0  0  0  0  0  0  0  0  0
   69.9999   38.3141   27.4837 N   0  0  0  0  0  0  0  0  0  0  0  0
   71.0802   37.4632   27.2686 N   0  0  0  0  0  0  0  0  0  0  0  0
   65.4544   38.6536   24.0579 H   0  0  0  0  0  0  0  0  0  0  0  0
   69.9190   38.9588   28.2233 H   0  0  0  0  0  0  0  0  0  0  0  0
   66.2003   35.6932   22.8692 N   0  0  0  0  0  0  0  0  0  0  0  0
   66.8279   36.9100   23.0313 C   0  0  0  0  0  0  0  0  0  0  0  0
   66.8570   37.7108   22.1066 O   0  0  0  0  0  0  0  0  0  0  0  0
   65.4645   35.3868   21.6311 C   0  0  0  0  0  0  0  0  0  0  0  0
   67.0426   32.7609   24.9785 C   0  0  0  0  0  0  0  0  0  0  0  0
   67.1234   33.7551   24.0114 C   0  0  0  0  0  0  0  0  0  0  0  0
   65.0435   34.7327   24.8040 C   0  0  0  0  0  0  0  0  0  0  0  0
   65.9557   32.7456   25.8547 C   0  0  0  0  0  0  0  0  0  0  0  0
   64.6669   32.6117   27.6753 C   0  0  0  0  0  0  0  0  0  0  0  0
   66.1234   34.7411   23.9091 C   0  0  0  0  0  0  0  0  0  0  0  0
   64.9527   33.7241   25.7575 C   0  0  0  0  0  0  0  0  0  0  0  0
   64.0230   33.4833   26.7224 O   0  0  0  0  0  0  0  0  0  0  0  0
   65.6431   31.9033   26.8869 O   0  0  0  0  0  0  0  0  0  0  0  0
   71.8500   35.6766   25.7202 C   0  0  0  0  0  0  0  0  0  0  0  0
   71.4228   34.2447   25.5414 C   0  0  0  0  0  0  0  0  0  0  0  0
   70.4977   33.7348   26.4378 C   0  0  0  0  0  0  0  0  0  0  0  0
   70.3539   31.6646   25.1900 C   0  0  0  0  0  0  0  0  0  0  0  0
   71.7882   33.4756   24.4290 C   0  0  0  0  0  0  0  0  0  0  0  0
   71.6433   31.3060   23.1448 C   0  0  0  0  0  0  0  0  0  0  0  0
   71.2405   32.1893   24.2723 C   0  0  0  0  0  0  0  0  0  0  0  0
   69.9877   32.4486   26.2616 C   0  0  0  0  0  0  0  0  0  0  0  0
 16 13  1  0  0  0
 15 14  2  0  0  0
 13 14  1  0  0  0
 13 22  1  0  0  0
 14  1  1  0  0  0
 29 33  2  0  0  0
 29 32  1  0  0  0
 33 28  1  0  0  0
 18 22  2  0  0  0
 18 17  1  0  0  0
 22 19  1  0  0  0
  1  8  2  0  0  0
  1  2  1  0  0  0
 31 32  1  0  0  0
  4  2  1  0  0  0
 32 30  2  0  0  0
 17 20  2  0  0  0
 28 27  2  0  0  0
  8  5  1  0  0  0
  2  3  2  0  0  0
 19 23  2  0  0  0
 30 27  1  0  0  0
 27 26  1  0  0  0
 20 23  1  0  0  0
 20 25  1  0  0  0
 23 24  1  0  0  0
  5  6  2  0  0  0
  5  7  1  0  0  0
  3  6  1  0  0  0
 25 21  1  0  0  0
  6  9  1  0  0  0
 26  7  1  0  0  0
  7 10  2  0  0  0
 24 21  1  0  0  0
  9 10  1  0  0  0
  4 11  1  0  0  0
  9 12  1  0  0  0
M  END
> <minimizedAffinity>
-10.72874

$$$$
6EYA_C4K_A_301


 33 37  0  0  0  0  0  0  0  0999 V2000
   70.7857   38.1999   24.8687 C   0  0  0  0  0  0  0  0  0  0  0  0
   70.4545   39.0748   25.9431 C   0  0  0  0  0  0  0  0  0  0  0  0
   70.6148   38.6830   27.2629 C   0  0  0  0  0  0  0  0  0  0  0  0
   69.9153   40.2915   25.6802 O   0  0  0  0  0  0  0  0  0  0  0  0
   71.5528   36.5571   26.4876 C   0  0  0  0  0  0  0  0  0  0  0  0
   71.1828   37.4330   27.5454 C   0  0  0  0  0  0  0  0  0  0  0  0
   72.0873   35.3567   27.1298 C   0  0  0  0  0  0  0  0  0  0  0  0
   71.3179   36.9298   25.1592 C   0  0  0  0  0  0  0  0  0  0  0  0
   71.5100   36.7991   28.7126 N   0  0  0  0  0  0  0  0  0  0  0  0
   72.0979   35.5731   28.4148 N   0  0  0  0  0  0  0  0  0  0  0  0
   69.8003   40.5713   24.7934 H   0  0  0  0  0  0  0  0  0  0  0  0
   71.3547   37.1532   29.6180 H   0  0  0  0  0  0  0  0  0  0  0  0
   69.5846   38.3329   22.6587 N   0  0  0  0  0  0  0  0  0  0  0  0
   70.6401   38.6953   23.4682 C   0  0  0  0  0  0  0  0  0  0  0  0
   71.5602   39.3605   23.0119 O   0  0  0  0  0  0  0  0  0  0  0  0
   69.4932   38.8310   21.2760 C   0  0  0  0  0  0  0  0  0  0  0  0
   66.3366   37.5438   24.2662 C   0  0  0  0  0  0  0  0  0  0  0  0
   67.3981   38.2542   23.7197 C   0  0  0  0  0  0  0  0  0  0  0  0
   68.5000   36.1794   23.0946 C   0  0  0  0  0  0  0  0  0  0  0  0
   66.3598   36.1481   24.2362 C   0  0  0  0  0  0  0  0  0  0  0  0
   65.8031   33.9955   24.0124 C   0  0  0  0  0  0  0  0  0  0  0  0
   68.4904   37.5811   23.1395 C   0  0  0  0  0  0  0  0  0  0  0  0
   67.4469   35.4693   23.6615 C   0  0  0  0  0  0  0  0  0  0  0  0
   67.2172   34.1309   23.7584 O   0  0  0  0  0  0  0  0  0  0  0  0
   65.4563   35.2228   24.6833 O   0  0  0  0  0  0  0  0  0  0  0  0
   72.7068   34.1473   26.4710 C   0  0  0  0  0  0  0  0  0  0  0  0
   71.8163   33.0044   26.0639 C   0  0  0  0  0  0  0  0  0  0  0  0
   70.4472   33.2124   26.1042 C   0  0  0  0  0  0  0  0  0  0  0  0
   70.0373   31.0444   25.1066 C   0  0  0  0  0  0  0  0  0  0  0  0
   72.3087   31.8212   25.4982 C   0  0  0  0  0  0  0  0  0  0  0  0
   71.8692   29.5551   24.4741 C   0  0  0  0  0  0  0  0  0  0  0  0
   71.4017   30.8559   25.0246 C   0  0  0  0  0  0  0  0  0  0  0  0
   69.5756   32.2266   25.6415 C   0  0  0  0  0  0  0  0  0  0  0  0
 16 13  1  0  0  0
 15 14  2  0  0  0
 13 14  1  0  0  0
 13 22  1  0  0  0
 14  1  1  0  0  0
 29 33  2  0  0  0
 29 32  1  0  0  0
 33 28  1  0  0  0
 18 22  2  0  0  0
 18 17  1  0  0  0
 22 19  1  0  0  0
  1  8  2  0  0  0
  1  2  1  0  0  0
 31 32  1  0  0  0
  4  2  1  0  0  0
 32 30  2  0  0  0
 17 20  2  0  0  0
 28 27  2  0  0  0
  8  5  1  0  0  0
  2  3  2  0  0  0
 19 23  2  0  0  0
 30 27  1  0  0  0
 27 26  1  0  0  0
 20 23  1  0  0  0
 20 25  1  0  0  0
 23 24  1  0  0  0
  5  6  2  0  0  0
  5  7  1  0  0  0
  3  6  1  0  0  0
 25 21  1  0  0  0
  6  9  1  0  0  0
 26  7  1  0  0  0
  7 10  2  0  0  0
 24 21  1  0  0  0
  9 10  1  0  0  0
  4 11  1  0  0  0
  9 12  1  0  0  0
M  END
> <minimizedAffinity>
-10.16793

$$$$
6EYA_C4K_A_301


 33 37  0  0  0  0  0  0  0  0999 V2000
   70.1369   36.9140   24.9302 C   0  0  0  0  0  0  0  0  0  0  0  0
   69.8319   37.7736   26.0246 C   0  0  0  0  0  0  0  0  0  0  0  0
   70.3905   37.5673   27.2762 C   0  0  0  0  0  0  0  0  0  0  0  0
   68.9336   38.7773   25.8637 O   0  0  0  0  0  0  0  0  0  0  0  0
   71.6747   35.6922   26.3621 C   0  0  0  0  0  0  0  0  0  0  0  0
   71.3294   36.5410   27.4499 C   0  0  0  0  0  0  0  0  0  0  0  0
   72.6506   34.7399   26.8911 C   0  0  0  0  0  0  0  0  0  0  0  0
   71.0496   35.8599   25.1212 C   0  0  0  0  0  0  0  0  0  0  0  0
   72.0757   36.1305   28.5204 N   0  0  0  0  0  0  0  0  0  0  0  0
   72.8941   35.0759   28.1263 N   0  0  0  0  0  0  0  0  0  0  0  0
   68.5469   38.9298   25.0240 H   0  0  0  0  0  0  0  0  0  0  0  0
   72.0398   36.5188   29.4244 H   0  0  0  0  0  0  0  0  0  0  0  0
   68.4798   36.5093   23.0768 N   0  0  0  0  0  0  0  0  0  0  0  0
   69.5451   37.2158   23.5934 C   0  0  0  0  0  0  0  0  0  0  0  0
   70.1127   38.0548   22.9071 O   0  0  0  0  0  0  0  0  0  0  0  0
   67.9418   36.8298   21.7441 C   0  0  0  0  0  0  0  0  0  0  0  0
   67.7895   33.3927   24.9653 C   0  0  0  0  0  0  0  0  0  0  0  0
   68.4628   34.3966   24.2805 C   0  0  0  0  0  0  0  0  0  0  0  0
   66.4092   35.6843   24.0948 C   0  0  0  0  0  0  0  0  0  0  0  0
   66.4212   33.5289   25.2077 C   0  0  0  0  0  0  0  0  0  0  0  0
   64.4007   33.5449   26.1619 C   0  0  0  0  0  0  0  0  0  0  0  0
   67.7797   35.5432   23.8319 C   0  0  0  0  0  0  0  0  0  0  0  0
   65.7321   34.6685   24.7613 C   0  0  0  0  0  0  0  0  0  0  0  0
   64.4265   34.5522   25.1289 O   0  0  0  0  0  0  0  0  0  0  0  0
   65.5361   32.7118   25.8568 O   0  0  0  0  0  0  0  0  0  0  0  0
   73.4116   33.6743   26.1391 C   0  0  0  0  0  0  0  0  0  0  0  0
   72.6665   32.4692   25.6316 C   0  0  0  0  0  0  0  0  0  0  0  0
   73.4160   31.3986   25.1717 C   0  0  0  0  0  0  0  0  0  0  0  0
   71.4188   30.0615   24.8769 C   0  0  0  0  0  0  0  0  0  0  0  0
   71.2790   32.3239   25.7592 C   0  0  0  0  0  0  0  0  0  0  0  0
   69.2012   30.9265   25.4319 C   0  0  0  0  0  0  0  0  0  0  0  0
   70.6765   31.1113   25.3776 C   0  0  0  0  0  0  0  0  0  0  0  0
   72.7844   30.2165   24.7856 C   0  0  0  0  0  0  0  0  0  0  0  0
 16 13  1  0  0  0
 15 14  2  0  0  0
 13 14  1  0  0  0
 13 22  1  0  0  0
 14  1  1  0  0  0
 29 33  2  0  0  0
 29 32  1  0  0  0
 33 28  1  0  0  0
 18 22  2  0  0  0
 18 17  1  0  0  0
 22 19  1  0  0  0
  1  8  2  0  0  0
  1  2  1  0  0  0
 31 32  1  0  0  0
  4  2  1  0  0  0
 32 30  2  0  0  0
 17 20  2  0  0  0
 28 27  2  0  0  0
  8  5  1  0  0  0
  2  3  2  0  0  0
 19 23  2  0  0  0
 30 27  1  0  0  0
 27 26  1  0  0  0
 20 23  1  0  0  0
 20 25  1  0  0  0
 23 24  1  0  0  0
  5  6  2  0  0  0
  5  7  1  0  0  0
  3  6  1  0  0  0
 25 21  1  0  0  0
  6  9  1  0  0  0
 26  7  1  0  0  0
  7 10  2  0  0  0
 24 21  1  0  0  0
  9 10  1  0  0  0
  4 11  1  0  0  0
  9 12  1  0  0  0
M  END
> <minimizedAffinity>
-10.15952

$$$$
6EYA_C4K_A_301


 33 37  0  0  0  0  0  0  0  0999 V2000
   68.3916   36.2412   23.2803 C   0  0  0  0  0  0  0  0  0  0  0  0
   66.9887   36.2126   23.5263 C   0  0  0  0  0  0  0  0  0  0  0  0
   66.4391   35.3318   24.4446 C   0  0  0  0  0  0  0  0  0  0  0  0
   66.1620   37.0152   22.8102 O   0  0  0  0  0  0  0  0  0  0  0  0
   68.6925   34.5439   24.9941 C   0  0  0  0  0  0  0  0  0  0  0  0
   67.2854   34.5073   25.1987 C   0  0  0  0  0  0  0  0  0  0  0  0
   69.2577   33.5621   25.9192 C   0  0  0  0  0  0  0  0  0  0  0  0
   69.2326   35.3819   24.0118 C   0  0  0  0  0  0  0  0  0  0  0  0
   67.0570   33.5953   26.1924 N   0  0  0  0  0  0  0  0  0  0  0  0
   68.2758   33.0871   26.6321 N   0  0  0  0  0  0  0  0  0  0  0  0
   66.5178   37.6161   22.1855 H   0  0  0  0  0  0  0  0  0  0  0  0
   66.1723   33.3395   26.5407 H   0  0  0  0  0  0  0  0  0  0  0  0
   69.6549   38.3477   22.7225 N   0  0  0  0  0  0  0  0  0  0  0  0
   68.9316   37.2461   22.3177 C   0  0  0  0  0  0  0  0  0  0  0  0
   68.6154   37.1206   21.1423 O   0  0  0  0  0  0  0  0  0  0  0  0
   70.1509   39.3238   21.7378 C   0  0  0  0  0  0  0  0  0  0  0  0
   71.7588   38.2304   25.7748 C   0  0  0  0  0  0  0  0  0  0  0  0
   71.3519   38.1289   24.4503 C   0  0  0  0  0  0  0  0  0  0  0  0
   69.1790   39.0593   25.0185 C   0  0  0  0  0  0  0  0  0  0  0  0
   70.8719   38.7382   26.7260 C   0  0  0  0  0  0  0  0  0  0  0  0
   69.9618   39.8648   28.4277 C   0  0  0  0  0  0  0  0  0  0  0  0
   70.0596   38.5319   24.0627 C   0  0  0  0  0  0  0  0  0  0  0  0
   69.5802   39.1400   26.3478 C   0  0  0  0  0  0  0  0  0  0  0  0
   68.9310   39.5955   27.4543 O   0  0  0  0  0  0  0  0  0  0  0  0
   71.0183   38.9527   28.0695 O   0  0  0  0  0  0  0  0  0  0  0  0
   70.7143   33.2604   26.1788 C   0  0  0  0  0  0  0  0  0  0  0  0
   71.3161   32.0146   25.5867 C   0  0  0  0  0  0  0  0  0  0  0  0
   70.4513   31.0891   25.0253 C   0  0  0  0  0  0  0  0  0  0  0  0
   72.3112   29.7561   24.2331 C   0  0  0  0  0  0  0  0  0  0  0  0
   72.6971   31.8358   25.4339 C   0  0  0  0  0  0  0  0  0  0  0  0
   74.6291   30.4293   24.6179 C   0  0  0  0  0  0  0  0  0  0  0  0
   73.1725   30.7007   24.7524 C   0  0  0  0  0  0  0  0  0  0  0  0
   70.9570   29.9657   24.3711 C   0  0  0  0  0  0  0  0  0  0  0  0
 16 13  1  0  0  0
 15 14  2  0  0  0
 13 14  1  0  0  0
 13 22  1  0  0  0
 14  1  1  0  0  0
 29 33  2  0  0  0
 29 32  1  0  0  0
 33 28  1  0  0  0
 18 22  2  0  0  0
 18 17  1  0  0  0
 22 19  1  0  0  0
  1  8  2  0  0  0
  1  2  1  0  0  0
 31 32  1  0  0  0
  4  2  1  0  0  0
 32 30  2  0  0  0
 17 20  2  0  0  0
 28 27  2  0  0  0
  8  5  1  0  0  0
  2  3  2  0  0  0
 19 23  2  0  0  0
 30 27  1  0  0  0
 27 26  1  0  0  0
 20 23  1  0  0  0
 20 25  1  0  0  0
 23 24  1  0  0  0
  5  6  2  0  0  0
  5  7  1  0  0  0
  3  6  1  0  0  0
 25 21  1  0  0  0
  6  9  1  0  0  0
 26  7  1  0  0  0
  7 10  2  0  0  0
 24 21  1  0  0  0
  9 10  1  0  0  0
  4 11  1  0  0  0
  9 12  1  0  0  0
M  END
> <minimizedAffinity>
-10.14907

$$$$
6EYA_C4K_A_301


 33 37  0  0  0  0  0  0  0  0999 V2000
   71.1411   34.9938   26.5780 C   0  0  0  0  0  0  0  0  0  0  0  0
   72.2201   34.8039   25.6675 C   0  0  0  0  0  0  0  0  0  0  0  0
   72.2920   33.6758   24.8654 C   0  0  0  0  0  0  0  0  0  0  0  0
   73.2307   35.7077   25.6215 O   0  0  0  0  0  0  0  0  0  0  0  0
   70.1425   32.9292   25.7727 C   0  0  0  0  0  0  0  0  0  0  0  0
   71.2468   32.7422   24.8960 C   0  0  0  0  0  0  0  0  0  0  0  0
   69.2635   31.7796   25.5608 C   0  0  0  0  0  0  0  0  0  0  0  0
   70.1148   34.0324   26.6335 C   0  0  0  0  0  0  0  0  0  0  0  0
   71.0075   31.5865   24.2043 N   0  0  0  0  0  0  0  0  0  0  0  0
   69.7787   31.0661   24.5999 N   0  0  0  0  0  0  0  0  0  0  0  0
   73.1973   36.4755   26.1575 H   0  0  0  0  0  0  0  0  0  0  0  0
   71.6080   31.1869   23.5342 H   0  0  0  0  0  0  0  0  0  0  0  0
   70.4681   37.3960   26.9258 N   0  0  0  0  0  0  0  0  0  0  0  0
   71.0904   36.2523   27.3791 C   0  0  0  0  0  0  0  0  0  0  0  0
   71.7237   36.2748   28.4258 O   0  0  0  0  0  0  0  0  0  0  0  0
   70.4607   38.6210   27.7429 C   0  0  0  0  0  0  0  0  0  0  0  0
   67.6204   36.9259   24.5964 C   0  0  0  0  0  0  0  0  0  0  0  0
   68.3731   36.9825   25.7627 C   0  0  0  0  0  0  0  0  0  0  0  0
   70.2864   37.8210   24.5195 C   0  0  0  0  0  0  0  0  0  0  0  0
   68.2035   37.3083   23.3867 C   0  0  0  0  0  0  0  0  0  0  0  0
   68.5899   38.2138   21.3807 C   0  0  0  0  0  0  0  0  0  0  0  0
   69.7112   37.4197   25.7340 C   0  0  0  0  0  0  0  0  0  0  0  0
   69.5386   37.7432   23.3493 C   0  0  0  0  0  0  0  0  0  0  0  0
   69.8522   38.0567   22.0622 O   0  0  0  0  0  0  0  0  0  0  0  0
   67.6935   37.3598   22.1179 O   0  0  0  0  0  0  0  0  0  0  0  0
   67.9066   31.5219   26.1712 C   0  0  0  0  0  0  0  0  0  0  0  0
   66.7480   32.3911   25.7626 C   0  0  0  0  0  0  0  0  0  0  0  0
   65.7657   32.6365   26.7083 C   0  0  0  0  0  0  0  0  0  0  0  0
   64.6491   34.1866   25.2203 C   0  0  0  0  0  0  0  0  0  0  0  0
   66.7090   33.0832   24.5453 C   0  0  0  0  0  0  0  0  0  0  0  0
   65.5271   34.6887   22.9952 C   0  0  0  0  0  0  0  0  0  0  0  0
   65.6517   33.9770   24.2959 C   0  0  0  0  0  0  0  0  0  0  0  0
   64.7220   33.5162   26.4213 C   0  0  0  0  0  0  0  0  0  0  0  0
 16 13  1  0  0  0
 15 14  2  0  0  0
 13 14  1  0  0  0
 13 22  1  0  0  0
 14  1  1  0  0  0
 29 33  2  0  0  0
 29 32  1  0  0  0
 33 28  1  0  0  0
 18 22  2  0  0  0
 18 17  1  0  0  0
 22 19  1  0  0  0
  1  8  2  0  0  0
  1  2  1  0  0  0
 31 32  1  0  0  0
  4  2  1  0  0  0
 32 30  2  0  0  0
 17 20  2  0  0  0
 28 27  2  0  0  0
  8  5  1  0  0  0
  2  3  2  0  0  0
 19 23  2  0  0  0
 30 27  1  0  0  0
 27 26  1  0  0  0
 20 23  1  0  0  0
 20 25  1  0  0  0
 23 24  1  0  0  0
  5  6  2  0  0  0
  5  7  1  0  0  0
  3  6  1  0  0  0
 25 21  1  0  0  0
  6  9  1  0  0  0
 26  7  1  0  0  0
  7 10  2  0  0  0
 24 21  1  0  0  0
  9 10  1  0  0  0
  4 11  1  0  0  0
  9 12  1  0  0  0
M  END
> <minimizedAffinity>
-9.85784

$$$$
6EYA_C4K_A_301


 33 37  0  0  0  0  0  0  0  0999 V2000
   71.8758   35.2559   27.6425 C   0  0  0  0  0  0  0  0  0  0  0  0
   73.2377   34.8414   27.6971 C   0  0  0  0  0  0  0  0  0  0  0  0
   73.6918   33.7685   26.9463 C   0  0  0  0  0  0  0  0  0  0  0  0
   74.0984   35.4631   28.5414 O   0  0  0  0  0  0  0  0  0  0  0  0
   71.4581   33.5469   25.9653 C   0  0  0  0  0  0  0  0  0  0  0  0
   72.8138   33.1274   26.0614 C   0  0  0  0  0  0  0  0  0  0  0  0
   70.8351   32.6660   24.9779 C   0  0  0  0  0  0  0  0  0  0  0  0
   70.9890   34.5820   26.7821 C   0  0  0  0  0  0  0  0  0  0  0  0
   72.9711   32.1011   25.1706 N   0  0  0  0  0  0  0  0  0  0  0  0
   71.7679   31.8894   24.5038 N   0  0  0  0  0  0  0  0  0  0  0  0
   73.8071   36.1899   29.0560 H   0  0  0  0  0  0  0  0  0  0  0  0
   73.8021   31.5937   25.0247 H   0  0  0  0  0  0  0  0  0  0  0  0
   71.0115   37.6132   27.8436 N   0  0  0  0  0  0  0  0  0  0  0  0
   71.4562   36.4496   28.4344 C   0  0  0  0  0  0  0  0  0  0  0  0
   71.6237   36.4043   29.6456 O   0  0  0  0  0  0  0  0  0  0  0  0
   70.6268   38.7731   28.6651 C   0  0  0  0  0  0  0  0  0  0  0  0
   71.6764   38.1569   24.2354 C   0  0  0  0  0  0  0  0  0  0  0  0
   71.8725   37.9824   25.5996 C   0  0  0  0  0  0  0  0  0  0  0  0
   69.4932   37.6008   25.9203 C   0  0  0  0  0  0  0  0  0  0  0  0
   70.3852   38.0630   23.7124 C   0  0  0  0  0  0  0  0  0  0  0  0
   68.6140   37.5753   22.4403 C   0  0  0  0  0  0  0  0  0  0  0  0
   70.7856   37.7133   26.4533 C   0  0  0  0  0  0  0  0  0  0  0  0
   69.2954   37.7973   24.5577 C   0  0  0  0  0  0  0  0  0  0  0  0
   68.1651   37.7535   23.8001 O   0  0  0  0  0  0  0  0  0  0  0  0
   69.9229   38.1777   22.4295 O   0  0  0  0  0  0  0  0  0  0  0  0
   69.4295   32.7310   24.4298 C   0  0  0  0  0  0  0  0  0  0  0  0
   68.2707   32.6235   25.3840 C   0  0  0  0  0  0  0  0  0  0  0  0
   68.5162   32.0727   26.6313 C   0  0  0  0  0  0  0  0  0  0  0  0
   66.2606   32.5766   27.3538 C   0  0  0  0  0  0  0  0  0  0  0  0
   67.0194   33.1991   25.1283 C   0  0  0  0  0  0  0  0  0  0  0  0
   64.6642   33.7045   25.8864 C   0  0  0  0  0  0  0  0  0  0  0  0
   66.0300   33.1658   26.1277 C   0  0  0  0  0  0  0  0  0  0  0  0
   67.5067   32.0410   27.5934 C   0  0  0  0  0  0  0  0  0  0  0  0
 16 13  1  0  0  0
 15 14  2  0  0  0
 13 14  1  0  0  0
 13 22  1  0  0  0
 14  1  1  0  0  0
 29 33  2  0  0  0
 29 32  1  0  0  0
 33 28  1  0  0  0
 18 22  2  0  0  0
 18 17  1  0  0  0
 22 19  1  0  0  0
  1  8  2  0  0  0
  1  2  1  0  0  0
 31 32  1  0  0  0
  4  2  1  0  0  0
 32 30  2  0  0  0
 17 20  2  0  0  0
 28 27  2  0  0  0
  8  5  1  0  0  0
  2  3  2  0  0  0
 19 23  2  0  0  0
 30 27  1  0  0  0
 27 26  1  0  0  0
 20 23  1  0  0  0
 20 25  1  0  0  0
 23 24  1  0  0  0
  5  6  2  0  0  0
  5  7  1  0  0  0
  3  6  1  0  0  0
 25 21  1  0  0  0
  6  9  1  0  0  0
 26  7  1  0  0  0
  7 10  2  0  0  0
 24 21  1  0  0  0
  9 10  1  0  0  0
  4 11  1  0  0  0
  9 12  1  0  0  0
M  END
> <minimizedAffinity>
-9.80206

$$$$
6EYA_C4K_A_301


 33 37  0  0  0  0  0  0  0  0999 V2000
   68.1401   32.4985   25.5730 C   0  0  0  0  0  0  0  0  0  0  0  0
   67.4087   32.3199   26.7824 C   0  0  0  0  0  0  0  0  0  0  0  0
   66.1442   32.8642   26.9432 C   0  0  0  0  0  0  0  0  0  0  0  0
   67.9762   31.6589   27.8223 O   0  0  0  0  0  0  0  0  0  0  0  0
   66.2423   33.6984   24.6421 C   0  0  0  0  0  0  0  0  0  0  0  0
   65.5438   33.5381   25.8707 C   0  0  0  0  0  0  0  0  0  0  0  0
   65.3440   34.4493   23.7656 C   0  0  0  0  0  0  0  0  0  0  0  0
   67.5480   33.2112   24.5137 C   0  0  0  0  0  0  0  0  0  0  0  0
   64.3189   34.1244   25.7053 N   0  0  0  0  0  0  0  0  0  0  0  0
   64.2220   34.6162   24.4068 N   0  0  0  0  0  0  0  0  0  0  0  0
   68.8304   31.2851   27.7297 H   0  0  0  0  0  0  0  0  0  0  0  0
   63.6184   34.1881   26.3941 H   0  0  0  0  0  0  0  0  0  0  0  0
   70.6506   32.5654   25.3798 N   0  0  0  0  0  0  0  0  0  0  0  0
   69.4759   31.8461   25.4386 C   0  0  0  0  0  0  0  0  0  0  0  0
   69.4919   30.6344   25.2694 O   0  0  0  0  0  0  0  0  0  0  0  0
   71.9445   31.8792   25.2267 C   0  0  0  0  0  0  0  0  0  0  0  0
   70.6945   36.1975   24.6298 C   0  0  0  0  0  0  0  0  0  0  0  0
   70.5897   34.8210   24.4735 C   0  0  0  0  0  0  0  0  0  0  0  0
   70.8778   34.5003   26.8660 C   0  0  0  0  0  0  0  0  0  0  0  0
   70.9011   36.7275   25.9049 C   0  0  0  0  0  0  0  0  0  0  0  0
   70.7930   37.9771   27.7543 C   0  0  0  0  0  0  0  0  0  0  0  0
   70.6896   33.9619   25.5846 C   0  0  0  0  0  0  0  0  0  0  0  0
   71.0043   35.8770   27.0180 C   0  0  0  0  0  0  0  0  0  0  0  0
   71.1969   36.6428   28.1270 O   0  0  0  0  0  0  0  0  0  0  0  0
   71.0255   38.0212   26.3329 O   0  0  0  0  0  0  0  0  0  0  0  0
   65.5514   34.8151   22.3152 C   0  0  0  0  0  0  0  0  0  0  0  0
   66.3906   36.0189   21.9812 C   0  0  0  0  0  0  0  0  0  0  0  0
   67.5108   36.2560   22.7611 C   0  0  0  0  0  0  0  0  0  0  0  0
   68.1823   38.0896   21.3291 C   0  0  0  0  0  0  0  0  0  0  0  0
   66.1827   36.7961   20.8344 C   0  0  0  0  0  0  0  0  0  0  0  0
   66.8831   38.7210   19.3575 C   0  0  0  0  0  0  0  0  0  0  0  0
   67.0916   37.8247   20.5266 C   0  0  0  0  0  0  0  0  0  0  0  0
   68.3824   37.2955   22.4366 C   0  0  0  0  0  0  0  0  0  0  0  0
 16 13  1  0  0  0
 15 14  2  0  0  0
 13 14  1  0  0  0
 13 22  1  0  0  0
 14  1  1  0  0  0
 29 33  2  0  0  0
 29 32  1  0  0  0
 33 28  1  0  0  0
 18 22  2  0  0  0
 18 17  1  0  0  0
 22 19  1  0  0  0
  1  8  2  0  0  0
  1  2  1  0  0  0
 31 32  1  0  0  0
  4  2  1  0  0  0
 32 30  2  0  0  0
 17 20  2  0  0  0
 28 27  2  0  0  0
  8  5  1  0  0  0
  2  3  2  0  0  0
 19 23  2  0  0  0
 30 27  1  0  0  0
 27 26  1  0  0  0
 20 23  1  0  0  0
 20 25  1  0  0  0
 23 24  1  0  0  0
  5  6  2  0  0  0
  5  7  1  0  0  0
  3  6  1  0  0  0
 25 21  1  0  0  0
  6  9  1  0  0  0
 26  7  1  0  0  0
  7 10  2  0  0  0
 24 21  1  0  0  0
  9 10  1  0  0  0
  4 11  1  0  0  0
  9 12  1  0  0  0
M  END
> <minimizedAffinity>
-9.71274

$$$$
