3KGU_GEN_A_3071


 23 25  0  0  0  0  0  0  0  0999 V2000
    0.5425    0.5784  -10.3139 C   0  0  0  0  0  0  0  0  0  0  0  0
    0.0793   -0.4502  -11.1236 C   0  0  0  0  0  0  0  0  0  0  0  0
    0.1825   -0.3446  -12.4759 O   0  0  0  0  0  0  0  0  0  0  0  0
   -0.4779   -1.5861  -10.5507 C   0  0  0  0  0  0  0  0  0  0  0  0
   -0.5801   -1.6879   -9.1685 C   0  0  0  0  0  0  0  0  0  0  0  0
   -1.1304   -2.8039   -8.6128 O   0  0  0  0  0  0  0  0  0  0  0  0
   -0.1152   -0.6547   -8.3611 C   0  0  0  0  0  0  0  0  0  0  0  0
   -0.2148   -0.7516   -6.9832 C   0  0  0  0  0  0  0  0  0  0  0  0
   -0.7163   -1.7422   -6.4539 O   0  0  0  0  0  0  0  0  0  0  0  0
    0.2435    0.2942   -6.2067 C   0  0  0  0  0  0  0  0  0  0  0  0
    0.8052    1.4041   -6.8211 C   0  0  0  0  0  0  0  0  0  0  0  0
    0.9154    1.5210   -8.1781 O   0  0  0  0  0  0  0  0  0  0  0  0
    0.4468    0.4831   -8.9321 C   0  0  0  0  0  0  0  0  0  0  0  0
    0.5591    0.4234  -12.8585 H   0  0  0  0  0  0  0  0  0  0  0  0
   -1.4417   -3.4961   -9.1623 H   0  0  0  0  0  0  0  0  0  0  0  0
    0.1512    0.2310   -4.8208 C   0  0  0  0  0  0  0  0  0  0  0  0
    1.0959   -0.4822   -4.0917 C   0  0  0  0  0  0  0  0  0  0  0  0
    1.0018   -0.5461   -2.7081 C   0  0  0  0  0  0  0  0  0  0  0  0
   -0.0350    0.1075   -2.0508 C   0  0  0  0  0  0  0  0  0  0  0  0
   -0.1288    0.0488   -0.6907 O   0  0  0  0  0  0  0  0  0  0  0  0
   -0.9779    0.8233   -2.7804 C   0  0  0  0  0  0  0  0  0  0  0  0
   -0.8859    0.8827   -4.1649 C   0  0  0  0  0  0  0  0  0  0  0  0
    0.5058   -0.4331   -0.1977 H   0  0  0  0  0  0  0  0  0  0  0  0
  1  2  2  0  0  0
  1 13  1  0  0  0
  2  3  1  0  0  0
  2  4  1  0  0  0
  4  5  2  0  0  0
  5  6  1  0  0  0
  5  7  1  0  0  0
  7  8  1  0  0  0
  7 13  2  0  0  0
  8  9  2  0  0  0
  8 10  1  0  0  0
 10 11  2  0  0  0
 10 16  1  0  0  0
 11 12  1  0  0  0
 12 13  1  0  0  0
 16 17  2  0  0  0
 16 22  1  0  0  0
 17 18  1  0  0  0
 18 19  2  0  0  0
 19 20  1  0  0  0
 19 21  1  0  0  0
 21 22  2  0  0  0
  3 14  1  0  0  0
  6 15  1  0  0  0
 20 23  1  0  0  0
M  END
> <minimizedAffinity>
-8.35496

$$$$
3KGU_GEN_A_3071


 23 25  0  0  0  0  0  0  0  0999 V2000
    0.5657    0.5660  -10.2642 C   0  0  0  0  0  0  0  0  0  0  0  0
    0.0851   -0.4529  -11.0760 C   0  0  0  0  0  0  0  0  0  0  0  0
    0.1927   -0.3475  -12.4280 O   0  0  0  0  0  0  0  0  0  0  0  0
   -0.4941   -1.5790  -10.5056 C   0  0  0  0  0  0  0  0  0  0  0  0
   -0.6008   -1.6806   -9.1237 C   0  0  0  0  0  0  0  0  0  0  0  0
   -1.1726   -2.7869   -8.5705 O   0  0  0  0  0  0  0  0  0  0  0  0
   -0.1183   -0.6573   -8.3142 C   0  0  0  0  0  0  0  0  0  0  0  0
   -0.2222   -0.7540   -6.9366 C   0  0  0  0  0  0  0  0  0  0  0  0
   -0.7429   -1.7358   -6.4095 O   0  0  0  0  0  0  0  0  0  0  0  0
    0.2539    0.2822   -6.1579 C   0  0  0  0  0  0  0  0  0  0  0  0
    0.8373    1.3823   -6.7698 C   0  0  0  0  0  0  0  0  0  0  0  0
    0.9520    1.4988   -8.1264 O   0  0  0  0  0  0  0  0  0  0  0  0
    0.4657    0.4707   -8.8827 C   0  0  0  0  0  0  0  0  0  0  0  0
    0.5841    0.4139  -12.8089 H   0  0  0  0  0  0  0  0  0  0  0  0
   -1.4956   -3.4726   -9.1214 H   0  0  0  0  0  0  0  0  0  0  0  0
    0.1580    0.2190   -4.7723 C   0  0  0  0  0  0  0  0  0  0  0  0
   -0.8892    0.8567   -4.1168 C   0  0  0  0  0  0  0  0  0  0  0  0
   -0.9831    0.7943   -2.7332 C   0  0  0  0  0  0  0  0  0  0  0  0
   -0.0321    0.0898   -2.0027 C   0  0  0  0  0  0  0  0  0  0  0  0
   -0.1231    0.0245   -0.6428 O   0  0  0  0  0  0  0  0  0  0  0  0
    1.0133   -0.5504   -2.6591 C   0  0  0  0  0  0  0  0  0  0  0  0
    1.1094   -0.4834   -4.0430 C   0  0  0  0  0  0  0  0  0  0  0  0
   -0.8270    0.4554   -0.1991 H   0  0  0  0  0  0  0  0  0  0  0  0
  1  2  2  0  0  0
  1 13  1  0  0  0
  2  3  1  0  0  0
  2  4  1  0  0  0
  4  5  2  0  0  0
  5  6  1  0  0  0
  5  7  1  0  0  0
  7  8  1  0  0  0
  7 13  2  0  0  0
  8  9  2  0  0  0
  8 10  1  0  0  0
 10 11  2  0  0  0
 10 16  1  0  0  0
 11 12  1  0  0  0
 12 13  1  0  0  0
 16 17  2  0  0  0
 16 22  1  0  0  0
 17 18  1  0  0  0
 18 19  2  0  0  0
 19 20  1  0  0  0
 19 21  1  0  0  0
 21 22  2  0  0  0
  3 14  1  0  0  0
  6 15  1  0  0  0
 20 23  1  0  0  0
M  END
> <minimizedAffinity>
-8.34409

$$$$
3KGU_GEN_A_3071


 23 25  0  0  0  0  0  0  0  0999 V2000
   -0.4414   -0.8197  -10.5297 C   0  0  0  0  0  0  0  0  0  0  0  0
   -0.0355    0.2108  -11.3672 C   0  0  0  0  0  0  0  0  0  0  0  0
   -0.1057    0.0526  -12.7166 O   0  0  0  0  0  0  0  0  0  0  0  0
    0.4309    1.4016  -10.8254 C   0  0  0  0  0  0  0  0  0  0  0  0
    0.4999    1.5569   -9.4462 C   0  0  0  0  0  0  0  0  0  0  0  0
    0.9611    2.7268   -8.9210 O   0  0  0  0  0  0  0  0  0  0  0  0
    0.0925    0.5217   -8.6108 C   0  0  0  0  0  0  0  0  0  0  0  0
    0.1593    0.6718   -7.2357 C   0  0  0  0  0  0  0  0  0  0  0  0
    0.5810    1.7123   -6.7333 O   0  0  0  0  0  0  0  0  0  0  0  0
   -0.2400   -0.3766   -6.4307 C   0  0  0  0  0  0  0  0  0  0  0  0
   -0.7119   -1.5432   -7.0149 C   0  0  0  0  0  0  0  0  0  0  0  0
   -0.7882   -1.7132   -8.3686 O   0  0  0  0  0  0  0  0  0  0  0  0
   -0.3785   -0.6713   -9.1507 C   0  0  0  0  0  0  0  0  0  0  0  0
   -0.4209   -0.7523  -13.0781 H   0  0  0  0  0  0  0  0  0  0  0  0
    1.2339    3.4201   -9.4892 H   0  0  0  0  0  0  0  0  0  0  0  0
   -0.1783   -0.2603   -5.0465 C   0  0  0  0  0  0  0  0  0  0  0  0
   -1.2094    0.3635   -4.3534 C   0  0  0  0  0  0  0  0  0  0  0  0
   -1.1460    0.4806   -2.9715 C   0  0  0  0  0  0  0  0  0  0  0  0
   -0.0530   -0.0304   -2.2798 C   0  0  0  0  0  0  0  0  0  0  0  0
    0.0110    0.0808   -0.9213 O   0  0  0  0  0  0  0  0  0  0  0  0
    0.9766   -0.6570   -2.9734 C   0  0  0  0  0  0  0  0  0  0  0  0
    0.9147   -0.7694   -4.3563 C   0  0  0  0  0  0  0  0  0  0  0  0
   -0.6819    0.5027   -0.4526 H   0  0  0  0  0  0  0  0  0  0  0  0
  1  2  2  0  0  0
  1 13  1  0  0  0
  2  3  1  0  0  0
  2  4  1  0  0  0
  4  5  2  0  0  0
  5  6  1  0  0  0
  5  7  1  0  0  0
  7  8  1  0  0  0
  7 13  2  0  0  0
  8  9  2  0  0  0
  8 10  1  0  0  0
 10 11  2  0  0  0
 10 16  1  0  0  0
 11 12  1  0  0  0
 12 13  1  0  0  0
 16 17  2  0  0  0
 16 22  1  0  0  0
 17 18  1  0  0  0
 18 19  2  0  0  0
 19 20  1  0  0  0
 19 21  1  0  0  0
 21 22  2  0  0  0
  3 14  1  0  0  0
  6 15  1  0  0  0
 20 23  1  0  0  0
M  END
> <minimizedAffinity>
-8.30327

$$$$
3KGU_GEN_A_3071


 23 25  0  0  0  0  0  0  0  0999 V2000
    0.7718    0.8482   -4.1037 C   0  0  0  0  0  0  0  0  0  0  0  0
    0.1663   -0.0543   -3.2394 C   0  0  0  0  0  0  0  0  0  0  0  0
    0.3215    0.0886   -1.8955 O   0  0  0  0  0  0  0  0  0  0  0  0
   -0.6028   -1.0926   -3.7487 C   0  0  0  0  0  0  0  0  0  0  0  0
   -0.7577   -1.2330   -5.1226 C   0  0  0  0  0  0  0  0  0  0  0  0
   -1.5113   -2.2555   -5.6159 O   0  0  0  0  0  0  0  0  0  0  0  0
   -0.1489   -0.3267   -5.9848 C   0  0  0  0  0  0  0  0  0  0  0  0
   -0.3004   -0.4623   -7.3547 C   0  0  0  0  0  0  0  0  0  0  0  0
   -0.9660   -1.3814   -7.8290 O   0  0  0  0  0  0  0  0  0  0  0  0
    0.3253    0.4444   -8.1874 C   0  0  0  0  0  0  0  0  0  0  0  0
    1.0730    1.4741   -7.6347 C   0  0  0  0  0  0  0  0  0  0  0  0
    1.2350    1.6285   -6.2867 O   0  0  0  0  0  0  0  0  0  0  0  0
    0.6194    0.7168   -5.4774 C   0  0  0  0  0  0  0  0  0  0  0  0
    0.8411    0.7905   -1.5559 H   0  0  0  0  0  0  0  0  0  0  0  0
   -1.9187   -2.8625   -5.0296 H   0  0  0  0  0  0  0  0  0  0  0  0
    0.1990    0.3315   -9.5674 C   0  0  0  0  0  0  0  0  0  0  0  0
    0.5200   -0.8638  -10.2007 C   0  0  0  0  0  0  0  0  0  0  0  0
    0.3951   -0.9749  -11.5789 C   0  0  0  0  0  0  0  0  0  0  0  0
   -0.0557    0.1083  -12.3258 C   0  0  0  0  0  0  0  0  0  0  0  0
   -0.1819    0.0014  -13.6803 O   0  0  0  0  0  0  0  0  0  0  0  0
   -0.3795    1.3026  -11.6914 C   0  0  0  0  0  0  0  0  0  0  0  0
   -0.2496    1.4145  -10.3132 C   0  0  0  0  0  0  0  0  0  0  0  0
    0.0359   -0.8027  -14.1091 H   0  0  0  0  0  0  0  0  0  0  0  0
  1  2  2  0  0  0
  1 13  1  0  0  0
  2  3  1  0  0  0
  2  4  1  0  0  0
  4  5  2  0  0  0
  5  6  1  0  0  0
  5  7  1  0  0  0
  7  8  1  0  0  0
  7 13  2  0  0  0
  8  9  2  0  0  0
  8 10  1  0  0  0
 10 11  2  0  0  0
 10 16  1  0  0  0
 11 12  1  0  0  0
 12 13  1  0  0  0
 16 17  2  0  0  0
 16 22  1  0  0  0
 17 18  1  0  0  0
 18 19  2  0  0  0
 19 20  1  0  0  0
 19 21  1  0  0  0
 21 22  2  0  0  0
  3 14  1  0  0  0
  6 15  1  0  0  0
 20 23  1  0  0  0
M  END
> <minimizedAffinity>
-7.85699

$$$$
3KGU_GEN_A_3071


 23 25  0  0  0  0  0  0  0  0999 V2000
   -0.7893   -0.8342   -4.0998 C   0  0  0  0  0  0  0  0  0  0  0  0
   -0.1839    0.0681   -3.2352 C   0  0  0  0  0  0  0  0  0  0  0  0
   -0.3433   -0.0723   -1.8915 O   0  0  0  0  0  0  0  0  0  0  0  0
    0.5893    1.1036   -3.7439 C   0  0  0  0  0  0  0  0  0  0  0  0
    0.7485    1.2414   -5.1176 C   0  0  0  0  0  0  0  0  0  0  0  0
    1.5062    2.2613   -5.6103 O   0  0  0  0  0  0  0  0  0  0  0  0
    0.1398    0.3354   -5.9802 C   0  0  0  0  0  0  0  0  0  0  0  0
    0.2955    0.4684   -7.3498 C   0  0  0  0  0  0  0  0  0  0  0  0
    0.9649    1.3851   -7.8236 O   0  0  0  0  0  0  0  0  0  0  0  0
   -0.3301   -0.4379   -8.1829 C   0  0  0  0  0  0  0  0  0  0  0  0
   -1.0821   -1.4648   -7.6307 C   0  0  0  0  0  0  0  0  0  0  0  0
   -1.2484   -1.6167   -6.2830 O   0  0  0  0  0  0  0  0  0  0  0  0
   -0.6327   -0.7053   -5.4733 C   0  0  0  0  0  0  0  0  0  0  0  0
   -0.8658   -0.7723   -1.5524 H   0  0  0  0  0  0  0  0  0  0  0  0
    1.9134    2.8681   -5.0239 H   0  0  0  0  0  0  0  0  0  0  0  0
   -0.1996   -0.3274   -9.5627 C   0  0  0  0  0  0  0  0  0  0  0  0
   -0.5029    0.8718  -10.1973 C   0  0  0  0  0  0  0  0  0  0  0  0
   -0.3739    0.9804  -11.5752 C   0  0  0  0  0  0  0  0  0  0  0  0
    0.0635   -0.1092  -12.3207 C   0  0  0  0  0  0  0  0  0  0  0  0
    0.1938   -0.0049  -13.6750 O   0  0  0  0  0  0  0  0  0  0  0  0
    0.3697   -1.3075  -11.6851 C   0  0  0  0  0  0  0  0  0  0  0  0
    0.2356   -1.4169  -10.3071 C   0  0  0  0  0  0  0  0  0  0  0  0
   -0.0121    0.8019  -14.1046 H   0  0  0  0  0  0  0  0  0  0  0  0
  1  2  2  0  0  0
  1 13  1  0  0  0
  2  3  1  0  0  0
  2  4  1  0  0  0
  4  5  2  0  0  0
  5  6  1  0  0  0
  5  7  1  0  0  0
  7  8  1  0  0  0
  7 13  2  0  0  0
  8  9  2  0  0  0
  8 10  1  0  0  0
 10 11  2  0  0  0
 10 16  1  0  0  0
 11 12  1  0  0  0
 12 13  1  0  0  0
 16 17  2  0  0  0
 16 22  1  0  0  0
 17 18  1  0  0  0
 18 19  2  0  0  0
 19 20  1  0  0  0
 19 21  1  0  0  0
 21 22  2  0  0  0
  3 14  1  0  0  0
  6 15  1  0  0  0
 20 23  1  0  0  0
M  END
> <minimizedAffinity>
-7.84962

$$$$
3KGU_GEN_A_3071


 23 25  0  0  0  0  0  0  0  0999 V2000
   -0.6963    0.5478   -2.8378 C   0  0  0  0  0  0  0  0  0  0  0  0
    0.1633   -0.1524   -2.0017 C   0  0  0  0  0  0  0  0  0  0  0  0
    0.0276   -0.0478   -0.6521 O   0  0  0  0  0  0  0  0  0  0  0  0
    1.1509   -0.9637   -2.5451 C   0  0  0  0  0  0  0  0  0  0  0  0
    1.2841   -1.0665   -3.9245 C   0  0  0  0  0  0  0  0  0  0  0  0
    2.2569   -1.8622   -4.4513 O   0  0  0  0  0  0  0  0  0  0  0  0
    0.4210   -0.3629   -4.7585 C   0  0  0  0  0  0  0  0  0  0  0  0
    0.5496   -0.4622   -6.1338 C   0  0  0  0  0  0  0  0  0  0  0  0
    1.4250   -1.1642   -6.6376 O   0  0  0  0  0  0  0  0  0  0  0  0
   -0.3128    0.2570   -6.9375 C   0  0  0  0  0  0  0  0  0  0  0  0
   -1.2933    1.0445   -6.3517 C   0  0  0  0  0  0  0  0  0  0  0  0
   -1.4400    1.1565   -4.9978 O   0  0  0  0  0  0  0  0  0  0  0  0
   -0.5718    0.4481   -4.2170 C   0  0  0  0  0  0  0  0  0  0  0  0
   -0.6400    0.5007   -0.2895 H   0  0  0  0  0  0  0  0  0  0  0  0
    2.8350   -2.3334   -3.8840 H   0  0  0  0  0  0  0  0  0  0  0  0
   -0.2051    0.1847   -8.3218 C   0  0  0  0  0  0  0  0  0  0  0  0
    0.2872    1.2687   -9.0397 C   0  0  0  0  0  0  0  0  0  0  0  0
    0.3927    1.1961  -10.4220 C   0  0  0  0  0  0  0  0  0  0  0  0
    0.0102    0.0370  -11.0886 C   0  0  0  0  0  0  0  0  0  0  0  0
    0.1151   -0.0384  -12.4470 O   0  0  0  0  0  0  0  0  0  0  0  0
   -0.4793   -1.0481  -10.3698 C   0  0  0  0  0  0  0  0  0  0  0  0
   -0.5892   -0.9729   -8.9873 C   0  0  0  0  0  0  0  0  0  0  0  0
    0.4447    0.6919  -12.9327 H   0  0  0  0  0  0  0  0  0  0  0  0
  1  2  2  0  0  0
  1 13  1  0  0  0
  2  3  1  0  0  0
  2  4  1  0  0  0
  4  5  2  0  0  0
  5  6  1  0  0  0
  5  7  1  0  0  0
  7  8  1  0  0  0
  7 13  2  0  0  0
  8  9  2  0  0  0
  8 10  1  0  0  0
 10 11  2  0  0  0
 10 16  1  0  0  0
 11 12  1  0  0  0
 12 13  1  0  0  0
 16 17  2  0  0  0
 16 22  1  0  0  0
 17 18  1  0  0  0
 18 19  2  0  0  0
 19 20  1  0  0  0
 19 21  1  0  0  0
 21 22  2  0  0  0
  3 14  1  0  0  0
  6 15  1  0  0  0
 20 23  1  0  0  0
M  END
> <minimizedAffinity>
-7.44182

$$$$
3KGU_GEN_A_3071


 23 25  0  0  0  0  0  0  0  0999 V2000
   -1.1796    0.9606   -7.0836 C   0  0  0  0  0  0  0  0  0  0  0  0
   -0.9081    0.6181   -8.4016 C   0  0  0  0  0  0  0  0  0  0  0  0
   -1.6474    1.1600   -9.4068 O   0  0  0  0  0  0  0  0  0  0  0  0
    0.1222   -0.2676   -8.6896 C   0  0  0  0  0  0  0  0  0  0  0  0
    0.8740   -0.8174   -7.6582 C   0  0  0  0  0  0  0  0  0  0  0  0
    1.8817   -1.6879   -7.9474 O   0  0  0  0  0  0  0  0  0  0  0  0
    0.5982   -0.4718   -6.3391 C   0  0  0  0  0  0  0  0  0  0  0  0
    1.3446   -1.0170   -5.3079 C   0  0  0  0  0  0  0  0  0  0  0  0
    2.2533   -1.8134   -5.5379 O   0  0  0  0  0  0  0  0  0  0  0  0
    1.0409   -0.6659   -4.0074 C   0  0  0  0  0  0  0  0  0  0  0  0
    0.0118    0.2330   -3.7667 C   0  0  0  0  0  0  0  0  0  0  0  0
   -0.7368    0.7846   -4.7680 O   0  0  0  0  0  0  0  0  0  0  0  0
   -0.4313    0.4180   -6.0477 C   0  0  0  0  0  0  0  0  0  0  0  0
   -2.3417    1.7571   -9.2083 H   0  0  0  0  0  0  0  0  0  0  0  0
    2.0623   -1.9165   -8.8380 H   0  0  0  0  0  0  0  0  0  0  0  0
    1.7665   -1.2013   -2.9492 C   0  0  0  0  0  0  0  0  0  0  0  0
    3.1532   -1.1024   -2.9348 C   0  0  0  0  0  0  0  0  0  0  0  0
    3.8768   -1.6389   -1.8786 C   0  0  0  0  0  0  0  0  0  0  0  0
    3.2143   -2.2714   -0.8321 C   0  0  0  0  0  0  0  0  0  0  0  0
    3.9225   -2.7975    0.2089 O   0  0  0  0  0  0  0  0  0  0  0  0
    1.8271   -2.3675   -0.8455 C   0  0  0  0  0  0  0  0  0  0  0  0
    1.1042   -1.8348   -1.9049 C   0  0  0  0  0  0  0  0  0  0  0  0
    4.8573   -2.7336    0.2193 H   0  0  0  0  0  0  0  0  0  0  0  0
  1  2  2  0  0  0
  1 13  1  0  0  0
  2  3  1  0  0  0
  2  4  1  0  0  0
  4  5  2  0  0  0
  5  6  1  0  0  0
  5  7  1  0  0  0
  7  8  1  0  0  0
  7 13  2  0  0  0
  8  9  2  0  0  0
  8 10  1  0  0  0
 10 11  2  0  0  0
 10 16  1  0  0  0
 11 12  1  0  0  0
 12 13  1  0  0  0
 16 17  2  0  0  0
 16 22  1  0  0  0
 17 18  1  0  0  0
 18 19  2  0  0  0
 19 20  1  0  0  0
 19 21  1  0  0  0
 21 22  2  0  0  0
  3 14  1  0  0  0
  6 15  1  0  0  0
 20 23  1  0  0  0
M  END
> <minimizedAffinity>
-6.59394

$$$$
3KGU_GEN_A_3071


 23 25  0  0  0  0  0  0  0  0999 V2000
    0.4362   -0.5640   -6.1324 C   0  0  0  0  0  0  0  0  0  0  0  0
   -0.6389    0.3147   -6.1457 C   0  0  0  0  0  0  0  0  0  0  0  0
   -1.2183    0.6559   -7.3283 O   0  0  0  0  0  0  0  0  0  0  0  0
   -1.1247    0.8338   -4.9526 C   0  0  0  0  0  0  0  0  0  0  0  0
   -0.5286    0.4810   -3.7479 C   0  0  0  0  0  0  0  0  0  0  0  0
   -1.0084    0.9961   -2.5811 O   0  0  0  0  0  0  0  0  0  0  0  0
    0.5486   -0.3993   -3.7393 C   0  0  0  0  0  0  0  0  0  0  0  0
    1.1460   -0.7540   -2.5413 C   0  0  0  0  0  0  0  0  0  0  0  0
    0.7413   -0.2968   -1.4735 O   0  0  0  0  0  0  0  0  0  0  0  0
    2.2214   -1.6200   -2.5634 C   0  0  0  0  0  0  0  0  0  0  0  0
    2.6650   -2.1248   -3.7772 C   0  0  0  0  0  0  0  0  0  0  0  0
    2.0904   -1.7904   -4.9710 O   0  0  0  0  0  0  0  0  0  0  0  0
    1.0355   -0.9238   -4.9328 C   0  0  0  0  0  0  0  0  0  0  0  0
   -0.8875    0.3035   -8.1310 H   0  0  0  0  0  0  0  0  0  0  0  0
   -1.7342    1.5885   -2.5939 H   0  0  0  0  0  0  0  0  0  0  0  0
    2.8479   -1.9899   -1.3786 C   0  0  0  0  0  0  0  0  0  0  0  0
    4.2337   -1.9410   -1.2787 C   0  0  0  0  0  0  0  0  0  0  0  0
    4.8582   -2.3122   -0.0957 C   0  0  0  0  0  0  0  0  0  0  0  0
    4.0972   -2.7286    0.9913 C   0  0  0  0  0  0  0  0  0  0  0  0
    4.7080   -3.0916    2.1563 O   0  0  0  0  0  0  0  0  0  0  0  0
    2.7110   -2.7744    0.8919 C   0  0  0  0  0  0  0  0  0  0  0  0
    2.0872   -2.4076   -0.2936 C   0  0  0  0  0  0  0  0  0  0  0  0
    5.6420   -3.0613    2.2249 H   0  0  0  0  0  0  0  0  0  0  0  0
  1  2  2  0  0  0
  1 13  1  0  0  0
  2  3  1  0  0  0
  2  4  1  0  0  0
  4  5  2  0  0  0
  5  6  1  0  0  0
  5  7  1  0  0  0
  7  8  1  0  0  0
  7 13  2  0  0  0
  8  9  2  0  0  0
  8 10  1  0  0  0
 10 11  2  0  0  0
 10 16  1  0  0  0
 11 12  1  0  0  0
 12 13  1  0  0  0
 16 17  2  0  0  0
 16 22  1  0  0  0
 17 18  1  0  0  0
 18 19  2  0  0  0
 19 20  1  0  0  0
 19 21  1  0  0  0
 21 22  2  0  0  0
  3 14  1  0  0  0
  6 15  1  0  0  0
 20 23  1  0  0  0
M  END
> <minimizedAffinity>
-6.33808

$$$$
3KGU_GEN_A_3071


 23 25  0  0  0  0  0  0  0  0999 V2000
   -0.3140    0.3448   -6.2562 C   0  0  0  0  0  0  0  0  0  0  0  0
    0.7409   -0.5580   -6.2388 C   0  0  0  0  0  0  0  0  0  0  0  0
    1.3260   -0.9365   -7.4071 O   0  0  0  0  0  0  0  0  0  0  0  0
    1.2012   -1.0631   -5.0296 C   0  0  0  0  0  0  0  0  0  0  0  0
    0.5994   -0.6722   -3.8396 C   0  0  0  0  0  0  0  0  0  0  0  0
    1.0539   -1.1737   -2.6568 O   0  0  0  0  0  0  0  0  0  0  0  0
   -0.4576    0.2322   -3.8618 C   0  0  0  0  0  0  0  0  0  0  0  0
   -1.0605    0.6248   -2.6785 C   0  0  0  0  0  0  0  0  0  0  0  0
   -0.6785    0.1809   -1.5969 O   0  0  0  0  0  0  0  0  0  0  0  0
   -2.1155    1.5142   -2.7312 C   0  0  0  0  0  0  0  0  0  0  0  0
   -2.5336    2.0037   -3.9601 C   0  0  0  0  0  0  0  0  0  0  0  0
   -1.9531    1.6318   -5.1399 O   0  0  0  0  0  0  0  0  0  0  0  0
   -0.9187    0.7427   -5.0714 C   0  0  0  0  0  0  0  0  0  0  0  0
    1.0125   -0.5935   -8.2208 H   0  0  0  0  0  0  0  0  0  0  0  0
    1.7662   -1.7824   -2.6489 H   0  0  0  0  0  0  0  0  0  0  0  0
   -2.7470    1.9225   -1.5617 C   0  0  0  0  0  0  0  0  0  0  0  0
   -4.1301    1.8368   -1.4505 C   0  0  0  0  0  0  0  0  0  0  0  0
   -4.7597    2.2464   -0.2830 C   0  0  0  0  0  0  0  0  0  0  0  0
   -4.0063    2.7382    0.7776 C   0  0  0  0  0  0  0  0  0  0  0  0
   -4.6219    3.1391    1.9274 O   0  0  0  0  0  0  0  0  0  0  0  0
   -2.6226    2.8208    0.6669 C   0  0  0  0  0  0  0  0  0  0  0  0
   -1.9939    2.4154   -0.5032 C   0  0  0  0  0  0  0  0  0  0  0  0
   -5.5542    3.0841    2.0034 H   0  0  0  0  0  0  0  0  0  0  0  0
  1  2  2  0  0  0
  1 13  1  0  0  0
  2  3  1  0  0  0
  2  4  1  0  0  0
  4  5  2  0  0  0
  5  6  1  0  0  0
  5  7  1  0  0  0
  7  8  1  0  0  0
  7 13  2  0  0  0
  8  9  2  0  0  0
  8 10  1  0  0  0
 10 11  2  0  0  0
 10 16  1  0  0  0
 11 12  1  0  0  0
 12 13  1  0  0  0
 16 17  2  0  0  0
 16 22  1  0  0  0
 17 18  1  0  0  0
 18 19  2  0  0  0
 19 20  1  0  0  0
 19 21  1  0  0  0
 21 22  2  0  0  0
  3 14  1  0  0  0
  6 15  1  0  0  0
 20 23  1  0  0  0
M  END
> <minimizedAffinity>
-6.30167

$$$$
3KGU_GEN_A_3071


 23 25  0  0  0  0  0  0  0  0999 V2000
   -1.3482    0.9219   -5.1717 C   0  0  0  0  0  0  0  0  0  0  0  0
   -2.3574    1.7490   -4.6965 C   0  0  0  0  0  0  0  0  0  0  0  0
   -3.2109    2.3454   -5.5720 O   0  0  0  0  0  0  0  0  0  0  0  0
   -2.4980    1.9564   -3.3305 C   0  0  0  0  0  0  0  0  0  0  0  0
   -1.6230    1.3440   -2.4413 C   0  0  0  0  0  0  0  0  0  0  0  0
   -1.7648    1.5538   -1.1023 O   0  0  0  0  0  0  0  0  0  0  0  0
   -0.6132    0.5165   -2.9218 C   0  0  0  0  0  0  0  0  0  0  0  0
    0.2612   -0.0961   -2.0398 C   0  0  0  0  0  0  0  0  0  0  0  0
    0.1641    0.0831   -0.8268 O   0  0  0  0  0  0  0  0  0  0  0  0
    1.2618   -0.9024   -2.5452 C   0  0  0  0  0  0  0  0  0  0  0  0
    1.3569   -1.0922   -3.9163 C   0  0  0  0  0  0  0  0  0  0  0  0
    0.5049   -0.4996   -4.8052 O   0  0  0  0  0  0  0  0  0  0  0  0
   -0.4719    0.3040   -4.2898 C   0  0  0  0  0  0  0  0  0  0  0  0
   -3.1126    2.2029   -6.4929 H   0  0  0  0  0  0  0  0  0  0  0  0
   -2.4471    2.1123   -0.7853 H   0  0  0  0  0  0  0  0  0  0  0  0
    2.1603   -1.5260   -1.6867 C   0  0  0  0  0  0  0  0  0  0  0  0
    1.7019   -2.1487   -0.5313 C   0  0  0  0  0  0  0  0  0  0  0  0
    2.6000   -2.7694    0.3262 C   0  0  0  0  0  0  0  0  0  0  0  0
    3.9582   -2.7726    0.0269 C   0  0  0  0  0  0  0  0  0  0  0  0
    4.8433   -3.3842    0.8664 O   0  0  0  0  0  0  0  0  0  0  0  0
    4.4158   -2.1523   -1.1304 C   0  0  0  0  0  0  0  0  0  0  0  0
    3.5172   -1.5271   -1.9852 C   0  0  0  0  0  0  0  0  0  0  0  0
    4.5364   -3.8026    1.6466 H   0  0  0  0  0  0  0  0  0  0  0  0
  1  2  2  0  0  0
  1 13  1  0  0  0
  2  3  1  0  0  0
  2  4  1  0  0  0
  4  5  2  0  0  0
  5  6  1  0  0  0
  5  7  1  0  0  0
  7  8  1  0  0  0
  7 13  2  0  0  0
  8  9  2  0  0  0
  8 10  1  0  0  0
 10 11  2  0  0  0
 10 16  1  0  0  0
 11 12  1  0  0  0
 12 13  1  0  0  0
 16 17  2  0  0  0
 16 22  1  0  0  0
 17 18  1  0  0  0
 18 19  2  0  0  0
 19 20  1  0  0  0
 19 21  1  0  0  0
 21 22  2  0  0  0
  3 14  1  0  0  0
  6 15  1  0  0  0
 20 23  1  0  0  0
M  END
> <minimizedAffinity>
-5.42602

$$$$
