5G1A_7H1_A_373


 34 34  0  0  0  0  0  0  0  0999 V2000
   57.8528   12.1107  -23.7405 C   0  0  0  0  0  0  0  0  0  0  0  0
   58.1755   13.2322  -23.1284 F   0  0  0  0  0  0  0  0  0  0  0  0
   57.4319   12.4807  -24.9248 F   0  0  0  0  0  0  0  0  0  0  0  0
   56.7163   11.3764  -23.0006 C   0  0  0  0  0  0  0  0  0  0  0  0
   56.3824   10.3101  -23.6979 F   0  0  0  0  0  0  0  0  0  0  0  0
   57.1680   10.9279  -21.8474 F   0  0  0  0  0  0  0  0  0  0  0  0
   55.4336   12.1691  -22.6928 C   0  0  0  0  0  0  0  0  0  0  0  0
   55.1137   11.8818  -21.4524 F   0  0  0  0  0  0  0  0  0  0  0  0
   55.6793   13.4597  -22.7773 F   0  0  0  0  0  0  0  0  0  0  0  0
   54.1754   11.8903  -23.5244 C   0  0  0  0  0  0  0  0  0  0  0  0
   54.5724   11.7396  -24.7830 F   0  0  0  0  0  0  0  0  0  0  0  0
   53.6213   10.7695  -23.1426 F   0  0  0  0  0  0  0  0  0  0  0  0
   52.2395   13.3436  -22.7805 O   0  0  0  0  0  0  0  0  0  0  0  0
   53.1665   13.0449  -23.5153 C   0  0  0  0  0  0  0  0  0  0  0  0
   53.2877   13.8004  -24.5360 N   0  0  0  0  0  0  0  0  0  0  0  0
   52.3602   14.7511  -24.8163 O   0  0  0  0  0  0  0  0  0  0  0  0
   54.0658   13.6924  -25.1295 H   0  0  0  0  0  0  0  0  0  0  0  0
   51.6624   14.7305  -24.1428 H   0  0  0  0  0  0  0  0  0  0  0  0
   59.1334   11.2894  -23.8826 C   0  0  0  0  0  0  0  0  0  0  0  0
   58.8521   10.0163  -24.0357 F   0  0  0  0  0  0  0  0  0  0  0  0
   59.7773   11.3668  -22.7361 F   0  0  0  0  0  0  0  0  0  0  0  0
   60.0855   11.7470  -25.0016 C   0  0  0  0  0  0  0  0  0  0  0  0
   60.1381   13.0620  -25.0972 F   0  0  0  0  0  0  0  0  0  0  0  0
   59.6535   11.3019  -26.1613 F   0  0  0  0  0  0  0  0  0  0  0  0
   61.4795   11.2528  -24.6799 C   0  0  0  0  0  0  0  0  0  0  0  0
   62.2469   12.0766  -24.2167 O   0  0  0  0  0  0  0  0  0  0  0  0
   61.7794    9.9627  -24.9573 N   0  0  0  0  0  0  0  0  0  0  0  0
   61.0724    9.4259  -25.3831 H   0  0  0  0  0  0  0  0  0  0  0  0
   62.9709    9.3258  -24.7049 C   0  0  0  0  0  0  0  0  0  0  0  0
   63.1015    8.0030  -25.1311 C   0  0  0  0  0  0  0  0  0  0  0  0
   64.2466    7.2515  -24.8591 C   0  0  0  0  0  0  0  0  0  0  0  0
   65.3029    7.8091  -24.1462 C   0  0  0  0  0  0  0  0  0  0  0  0
   65.2014    9.1244  -23.7089 C   0  0  0  0  0  0  0  0  0  0  0  0
   64.0511    9.8668  -23.9935 C   0  0  0  0  0  0  0  0  0  0  0  0
 32 31  2  0  0  0
 32 33  1  0  0  0
 31 30  1  0  0  0
 33 34  2  0  0  0
 30 29  2  0  0  0
 34 29  1  0  0  0
 29 27  1  0  0  0
 27 25  1  0  0  0
 25 26  2  0  0  0
 25 22  1  0  0  0
 23 22  1  0  0  0
 22 24  1  0  0  0
 22 19  1  0  0  0
 21 19  1  0  0  0
 19 20  1  0  0  0
 19  1  1  0  0  0
  2  1  1  0  0  0
  1  3  1  0  0  0
  1  4  1  0  0  0
  6  4  1  0  0  0
  4  5  1  0  0  0
  4  7  1  0  0  0
  7  9  1  0  0  0
  7  8  1  0  0  0
  7 10  1  0  0  0
 12 10  1  0  0  0
 10 11  1  0  0  0
 10 14  1  0  0  0
 14 13  2  0  0  0
 14 15  1  0  0  0
 15 16  1  0  0  0
 15 17  1  0  0  0
 16 18  1  0  0  0
 27 28  1  0  0  0
M  END
> <minimizedAffinity>
-10.61808

$$$$
5G1A_7H1_A_373


 34 34  0  0  0  0  0  0  0  0999 V2000
   57.1166   10.3963  -23.8585 C   0  0  0  0  0  0  0  0  0  0  0  0
   56.6961   10.2112  -25.0936 F   0  0  0  0  0  0  0  0  0  0  0  0
   57.7376    9.2866  -23.5427 F   0  0  0  0  0  0  0  0  0  0  0  0
   55.9349   10.6136  -22.8918 C   0  0  0  0  0  0  0  0  0  0  0  0
   55.5365    9.4399  -22.4461 F   0  0  0  0  0  0  0  0  0  0  0  0
   56.3553   11.2783  -21.8351 F   0  0  0  0  0  0  0  0  0  0  0  0
   54.7036   11.3673  -23.4249 C   0  0  0  0  0  0  0  0  0  0  0  0
   54.8523   11.4376  -24.7275 F   0  0  0  0  0  0  0  0  0  0  0  0
   53.6136   10.6778  -23.1611 F   0  0  0  0  0  0  0  0  0  0  0  0
   54.4569   12.8060  -22.9541 C   0  0  0  0  0  0  0  0  0  0  0  0
   54.3976   12.7711  -21.6275 F   0  0  0  0  0  0  0  0  0  0  0  0
   55.4636   13.5695  -23.2897 F   0  0  0  0  0  0  0  0  0  0  0  0
   51.9652   13.2355  -23.0949 O   0  0  0  0  0  0  0  0  0  0  0  0
   53.1252   13.3900  -23.4401 C   0  0  0  0  0  0  0  0  0  0  0  0
   53.2695   14.1328  -24.4672 N   0  0  0  0  0  0  0  0  0  0  0  0
   52.1937   14.5740  -25.1676 O   0  0  0  0  0  0  0  0  0  0  0  0
   54.1748   14.3898  -24.7563 H   0  0  0  0  0  0  0  0  0  0  0  0
   51.3813   14.2365  -24.7590 H   0  0  0  0  0  0  0  0  0  0  0  0
   58.1141   11.5534  -23.8899 C   0  0  0  0  0  0  0  0  0  0  0  0
   58.3131   12.0256  -22.6813 F   0  0  0  0  0  0  0  0  0  0  0  0
   57.5501   12.5381  -24.5585 F   0  0  0  0  0  0  0  0  0  0  0  0
   59.4671   11.2353  -24.5503 C   0  0  0  0  0  0  0  0  0  0  0  0
   59.4478   11.4652  -25.8496 F   0  0  0  0  0  0  0  0  0  0  0  0
   59.7465    9.9594  -24.3975 F   0  0  0  0  0  0  0  0  0  0  0  0
   60.5232   12.1316  -23.9401 C   0  0  0  0  0  0  0  0  0  0  0  0
   61.1602   11.6582  -23.0170 O   0  0  0  0  0  0  0  0  0  0  0  0
   60.6584   13.3851  -24.4317 N   0  0  0  0  0  0  0  0  0  0  0  0
   60.0344   13.6500  -25.1457 H   0  0  0  0  0  0  0  0  0  0  0  0
   61.5785   14.3260  -24.0352 C   0  0  0  0  0  0  0  0  0  0  0  0
   61.1103   15.6094  -23.7484 C   0  0  0  0  0  0  0  0  0  0  0  0
   61.9767   16.6497  -23.4059 C   0  0  0  0  0  0  0  0  0  0  0  0
   63.3489   16.4317  -23.3404 C   0  0  0  0  0  0  0  0  0  0  0  0
   63.8443   15.1638  -23.6208 C   0  0  0  0  0  0  0  0  0  0  0  0
   62.9645   14.1302  -23.9568 C   0  0  0  0  0  0  0  0  0  0  0  0
 32 31  2  0  0  0
 32 33  1  0  0  0
 31 30  1  0  0  0
 33 34  2  0  0  0
 30 29  2  0  0  0
 34 29  1  0  0  0
 29 27  1  0  0  0
 27 25  1  0  0  0
 25 26  2  0  0  0
 25 22  1  0  0  0
 23 22  1  0  0  0
 22 24  1  0  0  0
 22 19  1  0  0  0
 21 19  1  0  0  0
 19 20  1  0  0  0
 19  1  1  0  0  0
  2  1  1  0  0  0
  1  3  1  0  0  0
  1  4  1  0  0  0
  6  4  1  0  0  0
  4  5  1  0  0  0
  4  7  1  0  0  0
  7  9  1  0  0  0
  7  8  1  0  0  0
  7 10  1  0  0  0
 12 10  1  0  0  0
 10 11  1  0  0  0
 10 14  1  0  0  0
 14 13  2  0  0  0
 14 15  1  0  0  0
 15 16  1  0  0  0
 15 17  1  0  0  0
 16 18  1  0  0  0
 27 28  1  0  0  0
M  END
> <minimizedAffinity>
-10.44001

$$$$
5G1A_7H1_A_373


 34 34  0  0  0  0  0  0  0  0999 V2000
   57.5339   10.8695  -23.8438 C   0  0  0  0  0  0  0  0  0  0  0  0
   57.0845   11.4813  -24.9209 F   0  0  0  0  0  0  0  0  0  0  0  0
   57.8505    9.6637  -24.2470 F   0  0  0  0  0  0  0  0  0  0  0  0
   56.4432   10.7754  -22.7577 C   0  0  0  0  0  0  0  0  0  0  0  0
   55.7923    9.6411  -22.9143 F   0  0  0  0  0  0  0  0  0  0  0  0
   57.0152   10.7039  -21.5732 F   0  0  0  0  0  0  0  0  0  0  0  0
   55.4107   11.9139  -22.6800 C   0  0  0  0  0  0  0  0  0  0  0  0
   55.0540   12.0001  -21.4194 F   0  0  0  0  0  0  0  0  0  0  0  0
   55.9745   13.0485  -23.0377 F   0  0  0  0  0  0  0  0  0  0  0  0
   54.1059   11.7836  -23.4756 C   0  0  0  0  0  0  0  0  0  0  0  0
   54.4474   11.6134  -24.7480 F   0  0  0  0  0  0  0  0  0  0  0  0
   53.4478   10.7211  -23.0923 F   0  0  0  0  0  0  0  0  0  0  0  0
   52.4238   13.4643  -22.6045 O   0  0  0  0  0  0  0  0  0  0  0  0
   53.2258   13.0378  -23.4190 C   0  0  0  0  0  0  0  0  0  0  0  0
   53.3043   13.7317  -24.4867 N   0  0  0  0  0  0  0  0  0  0  0  0
   52.4509   14.7623  -24.7150 O   0  0  0  0  0  0  0  0  0  0  0  0
   53.9944   13.5165  -25.1551 H   0  0  0  0  0  0  0  0  0  0  0  0
   51.8365   14.8447  -23.9690 H   0  0  0  0  0  0  0  0  0  0  0  0
   58.7934   11.6100  -23.3965 C   0  0  0  0  0  0  0  0  0  0  0  0
   59.1365   11.2477  -22.1822 F   0  0  0  0  0  0  0  0  0  0  0  0
   58.4843   12.8869  -23.3032 F   0  0  0  0  0  0  0  0  0  0  0  0
   60.0032   11.4746  -24.3379 C   0  0  0  0  0  0  0  0  0  0  0  0
   59.7226   11.8779  -25.5625 F   0  0  0  0  0  0  0  0  0  0  0  0
   60.3556   10.2109  -24.4287 F   0  0  0  0  0  0  0  0  0  0  0  0
   61.1228   12.3466  -23.8114 C   0  0  0  0  0  0  0  0  0  0  0  0
   61.8760   11.8261  -23.0091 O   0  0  0  0  0  0  0  0  0  0  0  0
   61.1855   13.6302  -24.2354 N   0  0  0  0  0  0  0  0  0  0  0  0
   60.4735   13.9297  -24.8457 H   0  0  0  0  0  0  0  0  0  0  0  0
   62.1426   14.5580  -23.9004 C   0  0  0  0  0  0  0  0  0  0  0  0
   61.7063   15.8097  -23.4628 C   0  0  0  0  0  0  0  0  0  0  0  0
   62.6020   16.8394  -23.1669 C   0  0  0  0  0  0  0  0  0  0  0  0
   63.9723   16.6425  -23.3020 C   0  0  0  0  0  0  0  0  0  0  0  0
   64.4362   15.4063  -23.7358 C   0  0  0  0  0  0  0  0  0  0  0  0
   63.5281   14.3825  -24.0230 C   0  0  0  0  0  0  0  0  0  0  0  0
 32 31  2  0  0  0
 32 33  1  0  0  0
 31 30  1  0  0  0
 33 34  2  0  0  0
 30 29  2  0  0  0
 34 29  1  0  0  0
 29 27  1  0  0  0
 27 25  1  0  0  0
 25 26  2  0  0  0
 25 22  1  0  0  0
 23 22  1  0  0  0
 22 24  1  0  0  0
 22 19  1  0  0  0
 21 19  1  0  0  0
 19 20  1  0  0  0
 19  1  1  0  0  0
  2  1  1  0  0  0
  1  3  1  0  0  0
  1  4  1  0  0  0
  6  4  1  0  0  0
  4  5  1  0  0  0
  4  7  1  0  0  0
  7  9  1  0  0  0
  7  8  1  0  0  0
  7 10  1  0  0  0
 12 10  1  0  0  0
 10 11  1  0  0  0
 10 14  1  0  0  0
 14 13  2  0  0  0
 14 15  1  0  0  0
 15 16  1  0  0  0
 15 17  1  0  0  0
 16 18  1  0  0  0
 27 28  1  0  0  0
M  END
> <minimizedAffinity>
-10.24617

$$$$
5G1A_7H1_A_373


 34 34  0  0  0  0  0  0  0  0999 V2000
   59.4294   12.6120  -24.2420 C   0  0  0  0  0  0  0  0  0  0  0  0
   59.4019   13.8592  -23.8172 F   0  0  0  0  0  0  0  0  0  0  0  0
   59.4186   12.6997  -25.5493 F   0  0  0  0  0  0  0  0  0  0  0  0
   58.1843   11.8331  -23.7717 C   0  0  0  0  0  0  0  0  0  0  0  0
   58.0926   10.7242  -24.4764 F   0  0  0  0  0  0  0  0  0  0  0  0
   58.3559   11.4545  -22.5217 F   0  0  0  0  0  0  0  0  0  0  0  0
   56.8254   12.5529  -23.8312 C   0  0  0  0  0  0  0  0  0  0  0  0
   56.8494   13.4608  -22.8830 F   0  0  0  0  0  0  0  0  0  0  0  0
   56.6954   13.1589  -24.9926 F   0  0  0  0  0  0  0  0  0  0  0  0
   55.5470   11.7383  -23.5975 C   0  0  0  0  0  0  0  0  0  0  0  0
   55.4996   10.8157  -24.5521 F   0  0  0  0  0  0  0  0  0  0  0  0
   55.6093   11.1208  -22.4470 F   0  0  0  0  0  0  0  0  0  0  0  0
   53.7255   13.1509  -24.6461 O   0  0  0  0  0  0  0  0  0  0  0  0
   54.2621   12.5659  -23.7197 C   0  0  0  0  0  0  0  0  0  0  0  0
   53.6841   12.7298  -22.5942 N   0  0  0  0  0  0  0  0  0  0  0  0
   52.6516   13.6004  -22.4588 O   0  0  0  0  0  0  0  0  0  0  0  0
   53.9917   12.2170  -21.8121 H   0  0  0  0  0  0  0  0  0  0  0  0
   52.4709   14.0232  -23.3129 H   0  0  0  0  0  0  0  0  0  0  0  0
   60.7530   12.0061  -23.7776 C   0  0  0  0  0  0  0  0  0  0  0  0
   60.9537   10.8407  -24.3477 F   0  0  0  0  0  0  0  0  0  0  0  0
   60.6351   11.7473  -22.4915 F   0  0  0  0  0  0  0  0  0  0  0  0
   61.9897   12.8997  -23.9779 C   0  0  0  0  0  0  0  0  0  0  0  0
   61.6607   14.1663  -24.1467 F   0  0  0  0  0  0  0  0  0  0  0  0
   62.6335   12.5296  -25.0633 F   0  0  0  0  0  0  0  0  0  0  0  0
   62.8542   12.8101  -22.7386 C   0  0  0  0  0  0  0  0  0  0  0  0
   63.0775   13.8596  -22.1636 O   0  0  0  0  0  0  0  0  0  0  0  0
   63.3378   11.5971  -22.3840 N   0  0  0  0  0  0  0  0  0  0  0  0
   63.1184   10.8426  -22.9772 H   0  0  0  0  0  0  0  0  0  0  0  0
   64.1043   11.3115  -21.2794 C   0  0  0  0  0  0  0  0  0  0  0  0
   65.3680   10.7583  -21.4932 C   0  0  0  0  0  0  0  0  0  0  0  0
   66.1906   10.3702  -20.4335 C   0  0  0  0  0  0  0  0  0  0  0  0
   65.7667   10.5268  -19.1180 C   0  0  0  0  0  0  0  0  0  0  0  0
   64.5130   11.0748  -18.8743 C   0  0  0  0  0  0  0  0  0  0  0  0
   63.7023   11.4643  -19.9450 C   0  0  0  0  0  0  0  0  0  0  0  0
 32 31  2  0  0  0
 32 33  1  0  0  0
 31 30  1  0  0  0
 33 34  2  0  0  0
 30 29  2  0  0  0
 34 29  1  0  0  0
 29 27  1  0  0  0
 27 25  1  0  0  0
 25 26  2  0  0  0
 25 22  1  0  0  0
 23 22  1  0  0  0
 22 24  1  0  0  0
 22 19  1  0  0  0
 21 19  1  0  0  0
 19 20  1  0  0  0
 19  1  1  0  0  0
  2  1  1  0  0  0
  1  3  1  0  0  0
  1  4  1  0  0  0
  6  4  1  0  0  0
  4  5  1  0  0  0
  4  7  1  0  0  0
  7  9  1  0  0  0
  7  8  1  0  0  0
  7 10  1  0  0  0
 12 10  1  0  0  0
 10 11  1  0  0  0
 10 14  1  0  0  0
 14 13  2  0  0  0
 14 15  1  0  0  0
 15 16  1  0  0  0
 15 17  1  0  0  0
 16 18  1  0  0  0
 27 28  1  0  0  0
M  END
> <minimizedAffinity>
-9.54714

$$$$
5G1A_7H1_A_373


 34 34  0  0  0  0  0  0  0  0999 V2000
   57.9059   11.4180  -24.3190 C   0  0  0  0  0  0  0  0  0  0  0  0
   57.4822   12.6086  -24.6922 F   0  0  0  0  0  0  0  0  0  0  0  0
   57.8006   10.6704  -25.3898 F   0  0  0  0  0  0  0  0  0  0  0  0
   57.0203   10.8346  -23.1993 C   0  0  0  0  0  0  0  0  0  0  0  0
   57.1747    9.5267  -23.1812 F   0  0  0  0  0  0  0  0  0  0  0  0
   57.4544   11.2665  -22.0331 F   0  0  0  0  0  0  0  0  0  0  0  0
   55.5124   11.1388  -23.2480 C   0  0  0  0  0  0  0  0  0  0  0  0
   55.1725   11.1062  -24.5157 F   0  0  0  0  0  0  0  0  0  0  0  0
   54.8497   10.1977  -22.6090 F   0  0  0  0  0  0  0  0  0  0  0  0
   55.0133   12.4879  -22.7159 C   0  0  0  0  0  0  0  0  0  0  0  0
   54.8378   12.3434  -21.4072 F   0  0  0  0  0  0  0  0  0  0  0  0
   55.9226   13.4093  -22.8983 F   0  0  0  0  0  0  0  0  0  0  0  0
   52.5104   12.5608  -23.0942 O   0  0  0  0  0  0  0  0  0  0  0  0
   53.6604   12.9137  -23.2982 C   0  0  0  0  0  0  0  0  0  0  0  0
   53.7864   13.7607  -24.2438 N   0  0  0  0  0  0  0  0  0  0  0  0
   52.7279   14.1029  -25.0216 O   0  0  0  0  0  0  0  0  0  0  0  0
   54.6648   14.1724  -24.4120 H   0  0  0  0  0  0  0  0  0  0  0  0
   51.9418   13.6146  -24.7309 H   0  0  0  0  0  0  0  0  0  0  0  0
   59.3777   11.5626  -23.9347 C   0  0  0  0  0  0  0  0  0  0  0  0
   60.0346   10.4560  -24.1943 F   0  0  0  0  0  0  0  0  0  0  0  0
   59.4289   11.6972  -22.6254 F   0  0  0  0  0  0  0  0  0  0  0  0
   60.1073   12.7587  -24.5709 C   0  0  0  0  0  0  0  0  0  0  0  0
   59.5912   13.9114  -24.1885 F   0  0  0  0  0  0  0  0  0  0  0  0
   59.9864   12.7073  -25.8794 F   0  0  0  0  0  0  0  0  0  0  0  0
   61.5539   12.7322  -24.1263 C   0  0  0  0  0  0  0  0  0  0  0  0
   62.2127   11.7795  -24.5009 O   0  0  0  0  0  0  0  0  0  0  0  0
   61.9953   13.7329  -23.3295 N   0  0  0  0  0  0  0  0  0  0  0  0
   61.3327   14.4099  -23.0613 H   0  0  0  0  0  0  0  0  0  0  0  0
   63.2750   13.9001  -22.8566 C   0  0  0  0  0  0  0  0  0  0  0  0
   63.6206   13.2411  -21.6756 C   0  0  0  0  0  0  0  0  0  0  0  0
   64.8732   13.4049  -21.0806 C   0  0  0  0  0  0  0  0  0  0  0  0
   65.8237   14.2410  -21.6571 C   0  0  0  0  0  0  0  0  0  0  0  0
   65.5080   14.9104  -22.8334 C   0  0  0  0  0  0  0  0  0  0  0  0
   64.2518   14.7324  -23.4212 C   0  0  0  0  0  0  0  0  0  0  0  0
 32 31  2  0  0  0
 32 33  1  0  0  0
 31 30  1  0  0  0
 33 34  2  0  0  0
 30 29  2  0  0  0
 34 29  1  0  0  0
 29 27  1  0  0  0
 27 25  1  0  0  0
 25 26  2  0  0  0
 25 22  1  0  0  0
 23 22  1  0  0  0
 22 24  1  0  0  0
 22 19  1  0  0  0
 21 19  1  0  0  0
 19 20  1  0  0  0
 19  1  1  0  0  0
  2  1  1  0  0  0
  1  3  1  0  0  0
  1  4  1  0  0  0
  6  4  1  0  0  0
  4  5  1  0  0  0
  4  7  1  0  0  0
  7  9  1  0  0  0
  7  8  1  0  0  0
  7 10  1  0  0  0
 12 10  1  0  0  0
 10 11  1  0  0  0
 10 14  1  0  0  0
 14 13  2  0  0  0
 14 15  1  0  0  0
 15 16  1  0  0  0
 15 17  1  0  0  0
 16 18  1  0  0  0
 27 28  1  0  0  0
M  END
> <minimizedAffinity>
-9.52232

$$$$
5G1A_7H1_A_373


 34 34  0  0  0  0  0  0  0  0999 V2000
   58.4229   11.2127  -24.3946 C   0  0  0  0  0  0  0  0  0  0  0  0
   57.7491   10.7995  -25.4490 F   0  0  0  0  0  0  0  0  0  0  0  0
   58.9060   10.1219  -23.8529 F   0  0  0  0  0  0  0  0  0  0  0  0
   57.4992   11.9202  -23.3824 C   0  0  0  0  0  0  0  0  0  0  0  0
   57.5838   11.2923  -22.2276 F   0  0  0  0  0  0  0  0  0  0  0  0
   57.9470   13.1397  -23.1649 F   0  0  0  0  0  0  0  0  0  0  0  0
   56.0101   12.0563  -23.7462 C   0  0  0  0  0  0  0  0  0  0  0  0
   55.9298   13.0548  -24.5950 F   0  0  0  0  0  0  0  0  0  0  0  0
   55.5983   10.9588  -24.3454 F   0  0  0  0  0  0  0  0  0  0  0  0
   55.0034   12.3719  -22.6330 C   0  0  0  0  0  0  0  0  0  0  0  0
   54.7950   11.2392  -21.9712 F   0  0  0  0  0  0  0  0  0  0  0  0
   55.5130   13.2367  -21.7956 F   0  0  0  0  0  0  0  0  0  0  0  0
   52.5199   12.3487  -23.1276 O   0  0  0  0  0  0  0  0  0  0  0  0
   53.6382   12.8356  -23.1547 C   0  0  0  0  0  0  0  0  0  0  0  0
   53.7181   13.9228  -23.8174 N   0  0  0  0  0  0  0  0  0  0  0  0
   52.6607   14.3854  -24.5319 O   0  0  0  0  0  0  0  0  0  0  0  0
   54.5594   14.4341  -23.8104 H   0  0  0  0  0  0  0  0  0  0  0  0
   51.9140   13.7736  -24.4371 H   0  0  0  0  0  0  0  0  0  0  0  0
   59.5688   12.0853  -24.9047 C   0  0  0  0  0  0  0  0  0  0  0  0
   59.1133   13.2322  -25.3524 F   0  0  0  0  0  0  0  0  0  0  0  0
   60.0821   11.4815  -25.9568 F   0  0  0  0  0  0  0  0  0  0  0  0
   60.7013   12.3377  -23.8939 C   0  0  0  0  0  0  0  0  0  0  0  0
   60.4130   11.8557  -22.6998 F   0  0  0  0  0  0  0  0  0  0  0  0
   60.8823   13.6317  -23.7442 F   0  0  0  0  0  0  0  0  0  0  0  0
   61.9497   11.6361  -24.3842 C   0  0  0  0  0  0  0  0  0  0  0  0
   62.8114   12.3487  -24.8653 O   0  0  0  0  0  0  0  0  0  0  0  0
   62.0039   10.2875  -24.2871 N   0  0  0  0  0  0  0  0  0  0  0  0
   61.2064    9.8376  -23.9252 H   0  0  0  0  0  0  0  0  0  0  0  0
   63.0594    9.4820  -24.6424 C   0  0  0  0  0  0  0  0  0  0  0  0
   62.8856    8.6304  -25.7346 C   0  0  0  0  0  0  0  0  0  0  0  0
   63.8743    7.7261  -26.1278 C   0  0  0  0  0  0  0  0  0  0  0  0
   65.0761    7.6488  -25.4317 C   0  0  0  0  0  0  0  0  0  0  0  0
   65.2777    8.4845  -24.3396 C   0  0  0  0  0  0  0  0  0  0  0  0
   64.2811    9.3892  -23.9608 C   0  0  0  0  0  0  0  0  0  0  0  0
 32 31  2  0  0  0
 32 33  1  0  0  0
 31 30  1  0  0  0
 33 34  2  0  0  0
 30 29  2  0  0  0
 34 29  1  0  0  0
 29 27  1  0  0  0
 27 25  1  0  0  0
 25 26  2  0  0  0
 25 22  1  0  0  0
 23 22  1  0  0  0
 22 24  1  0  0  0
 22 19  1  0  0  0
 21 19  1  0  0  0
 19 20  1  0  0  0
 19  1  1  0  0  0
  2  1  1  0  0  0
  1  3  1  0  0  0
  1  4  1  0  0  0
  6  4  1  0  0  0
  4  5  1  0  0  0
  4  7  1  0  0  0
  7  9  1  0  0  0
  7  8  1  0  0  0
  7 10  1  0  0  0
 12 10  1  0  0  0
 10 11  1  0  0  0
 10 14  1  0  0  0
 14 13  2  0  0  0
 14 15  1  0  0  0
 15 16  1  0  0  0
 15 17  1  0  0  0
 16 18  1  0  0  0
 27 28  1  0  0  0
M  END
> <minimizedAffinity>
-9.49276

$$$$
5G1A_7H1_A_373


 34 34  0  0  0  0  0  0  0  0999 V2000
   62.7115   10.3246  -24.5632 C   0  0  0  0  0  0  0  0  0  0  0  0
   63.3934   11.3116  -25.1086 F   0  0  0  0  0  0  0  0  0  0  0  0
   63.1097   10.2872  -23.3155 F   0  0  0  0  0  0  0  0  0  0  0  0
   63.0343    8.9787  -25.2433 C   0  0  0  0  0  0  0  0  0  0  0  0
   62.5000    8.0093  -24.5295 F   0  0  0  0  0  0  0  0  0  0  0  0
   62.4404    8.9326  -26.4182 F   0  0  0  0  0  0  0  0  0  0  0  0
   64.5151    8.6361  -25.4848 C   0  0  0  0  0  0  0  0  0  0  0  0
   64.9241    9.4331  -26.4447 F   0  0  0  0  0  0  0  0  0  0  0  0
   65.2122    8.8923  -24.3978 F   0  0  0  0  0  0  0  0  0  0  0  0
   64.8810    7.2166  -25.9358 C   0  0  0  0  0  0  0  0  0  0  0  0
   64.9992    6.4824  -24.8350 F   0  0  0  0  0  0  0  0  0  0  0  0
   63.9144    6.7080  -26.6541 F   0  0  0  0  0  0  0  0  0  0  0  0
   66.5380    6.9197  -27.8277 O   0  0  0  0  0  0  0  0  0  0  0  0
   66.2256    7.1336  -26.6678 C   0  0  0  0  0  0  0  0  0  0  0  0
   67.2167    7.2383  -25.8713 N   0  0  0  0  0  0  0  0  0  0  0  0
   68.4820    6.9851  -26.2926 O   0  0  0  0  0  0  0  0  0  0  0  0
   67.0614    7.5069  -24.9370 H   0  0  0  0  0  0  0  0  0  0  0  0
   68.4668    6.7347  -27.2296 H   0  0  0  0  0  0  0  0  0  0  0  0
   61.2342   10.7107  -24.6208 C   0  0  0  0  0  0  0  0  0  0  0  0
   60.4850    9.7480  -24.1357 F   0  0  0  0  0  0  0  0  0  0  0  0
   60.9026   10.8010  -25.8923 F   0  0  0  0  0  0  0  0  0  0  0  0
   60.8765   12.0405  -23.9340 C   0  0  0  0  0  0  0  0  0  0  0  0
   61.4955   13.0647  -24.4898 F   0  0  0  0  0  0  0  0  0  0  0  0
   61.2584   12.0070  -22.6760 F   0  0  0  0  0  0  0  0  0  0  0  0
   59.3872   12.2706  -24.0762 C   0  0  0  0  0  0  0  0  0  0  0  0
   59.0335   12.9045  -25.0534 O   0  0  0  0  0  0  0  0  0  0  0  0
   58.5723   11.7943  -23.1066 N   0  0  0  0  0  0  0  0  0  0  0  0
   59.0060   11.3468  -22.3444 H   0  0  0  0  0  0  0  0  0  0  0  0
   57.2003   11.8719  -23.0779 C   0  0  0  0  0  0  0  0  0  0  0  0
   56.4913   10.7053  -22.7868 C   0  0  0  0  0  0  0  0  0  0  0  0
   55.0954   10.6686  -22.8033 C   0  0  0  0  0  0  0  0  0  0  0  0
   54.3638   11.8099  -23.1145 C   0  0  0  0  0  0  0  0  0  0  0  0
   55.0426   12.9865  -23.4087 C   0  0  0  0  0  0  0  0  0  0  0  0
   56.4405   13.0100  -23.3828 C   0  0  0  0  0  0  0  0  0  0  0  0
 32 31  2  0  0  0
 32 33  1  0  0  0
 31 30  1  0  0  0
 33 34  2  0  0  0
 30 29  2  0  0  0
 34 29  1  0  0  0
 29 27  1  0  0  0
 27 25  1  0  0  0
 25 26  2  0  0  0
 25 22  1  0  0  0
 23 22  1  0  0  0
 22 24  1  0  0  0
 22 19  1  0  0  0
 21 19  1  0  0  0
 19 20  1  0  0  0
 19  1  1  0  0  0
  2  1  1  0  0  0
  1  3  1  0  0  0
  1  4  1  0  0  0
  6  4  1  0  0  0
  4  5  1  0  0  0
  4  7  1  0  0  0
  7  9  1  0  0  0
  7  8  1  0  0  0
  7 10  1  0  0  0
 12 10  1  0  0  0
 10 11  1  0  0  0
 10 14  1  0  0  0
 14 13  2  0  0  0
 14 15  1  0  0  0
 15 16  1  0  0  0
 15 17  1  0  0  0
 16 18  1  0  0  0
 27 28  1  0  0  0
M  END
> <minimizedAffinity>
-9.00178

$$$$
5G1A_7H1_A_373


 34 34  0  0  0  0  0  0  0  0999 V2000
   58.8473   11.4383  -23.5778 C   0  0  0  0  0  0  0  0  0  0  0  0
   59.0425   10.2782  -24.1715 F   0  0  0  0  0  0  0  0  0  0  0  0
   59.0786   11.2118  -22.3082 F   0  0  0  0  0  0  0  0  0  0  0  0
   57.3928   11.9195  -23.7543 C   0  0  0  0  0  0  0  0  0  0  0  0
   57.1603   12.8801  -22.8837 F   0  0  0  0  0  0  0  0  0  0  0  0
   57.2588   12.4690  -24.9440 F   0  0  0  0  0  0  0  0  0  0  0  0
   56.2721   10.8728  -23.6241 C   0  0  0  0  0  0  0  0  0  0  0  0
   55.8687   10.6135  -24.8463 F   0  0  0  0  0  0  0  0  0  0  0  0
   56.7565    9.7683  -23.0963 F   0  0  0  0  0  0  0  0  0  0  0  0
   55.0084   11.2376  -22.8353 C   0  0  0  0  0  0  0  0  0  0  0  0
   54.2631   10.1397  -22.7748 F   0  0  0  0  0  0  0  0  0  0  0  0
   55.3219   11.5763  -21.6122 F   0  0  0  0  0  0  0  0  0  0  0  0
   54.1288   12.7819  -24.6393 O   0  0  0  0  0  0  0  0  0  0  0  0
   54.1529   12.3148  -23.5125 C   0  0  0  0  0  0  0  0  0  0  0  0
   53.3557   12.8834  -22.6948 N   0  0  0  0  0  0  0  0  0  0  0  0
   52.6659   13.9969  -23.0508 O   0  0  0  0  0  0  0  0  0  0  0  0
   53.2390   12.5089  -21.7918 H   0  0  0  0  0  0  0  0  0  0  0  0
   52.8891   14.2375  -23.9637 H   0  0  0  0  0  0  0  0  0  0  0  0
   59.8929   12.4080  -24.1266 C   0  0  0  0  0  0  0  0  0  0  0  0
   59.6165   13.6395  -23.7658 F   0  0  0  0  0  0  0  0  0  0  0  0
   59.7846   12.3985  -25.4392 F   0  0  0  0  0  0  0  0  0  0  0  0
   61.3506   12.0767  -23.7610 C   0  0  0  0  0  0  0  0  0  0  0  0
   61.8632   11.1602  -24.5599 F   0  0  0  0  0  0  0  0  0  0  0  0
   61.4017   11.5854  -22.5422 F   0  0  0  0  0  0  0  0  0  0  0  0
   62.1816   13.3331  -23.9091 C   0  0  0  0  0  0  0  0  0  0  0  0
   62.5615   13.5950  -25.0356 O   0  0  0  0  0  0  0  0  0  0  0  0
   62.4676   14.0444  -22.7940 N   0  0  0  0  0  0  0  0  0  0  0  0
   62.1376   13.6809  -21.9407 H   0  0  0  0  0  0  0  0  0  0  0  0
   63.1722   15.2229  -22.7321 C   0  0  0  0  0  0  0  0  0  0  0  0
   62.4451   16.4056  -22.5871 C   0  0  0  0  0  0  0  0  0  0  0  0
   63.0664   17.6562  -22.5846 C   0  0  0  0  0  0  0  0  0  0  0  0
   64.4461   17.7583  -22.7286 C   0  0  0  0  0  0  0  0  0  0  0  0
   65.1964   16.5976  -22.8749 C   0  0  0  0  0  0  0  0  0  0  0  0
   64.5615   15.3517  -22.8697 C   0  0  0  0  0  0  0  0  0  0  0  0
 32 31  2  0  0  0
 32 33  1  0  0  0
 31 30  1  0  0  0
 33 34  2  0  0  0
 30 29  2  0  0  0
 34 29  1  0  0  0
 29 27  1  0  0  0
 27 25  1  0  0  0
 25 26  2  0  0  0
 25 22  1  0  0  0
 23 22  1  0  0  0
 22 24  1  0  0  0
 22 19  1  0  0  0
 21 19  1  0  0  0
 19 20  1  0  0  0
 19  1  1  0  0  0
  2  1  1  0  0  0
  1  3  1  0  0  0
  1  4  1  0  0  0
  6  4  1  0  0  0
  4  5  1  0  0  0
  4  7  1  0  0  0
  7  9  1  0  0  0
  7  8  1  0  0  0
  7 10  1  0  0  0
 12 10  1  0  0  0
 10 11  1  0  0  0
 10 14  1  0  0  0
 14 13  2  0  0  0
 14 15  1  0  0  0
 15 16  1  0  0  0
 15 17  1  0  0  0
 16 18  1  0  0  0
 27 28  1  0  0  0
M  END
> <minimizedAffinity>
-8.90172

$$$$
5G1A_7H1_A_373


 34 34  0  0  0  0  0  0  0  0999 V2000
   59.7798   11.6113  -23.7100 C   0  0  0  0  0  0  0  0  0  0  0  0
   59.9369   11.3394  -22.4302 F   0  0  0  0  0  0  0  0  0  0  0  0
   59.8157   12.9189  -23.7849 F   0  0  0  0  0  0  0  0  0  0  0  0
   58.4169   11.1070  -24.2260 C   0  0  0  0  0  0  0  0  0  0  0  0
   58.4024   11.2074  -25.5392 F   0  0  0  0  0  0  0  0  0  0  0  0
   58.3006    9.8221  -23.9600 F   0  0  0  0  0  0  0  0  0  0  0  0
   57.1489   11.7864  -23.6791 C   0  0  0  0  0  0  0  0  0  0  0  0
   57.4036   12.0838  -22.4260 F   0  0  0  0  0  0  0  0  0  0  0  0
   56.9238   12.9022  -24.3404 F   0  0  0  0  0  0  0  0  0  0  0  0
   55.8353   10.9948  -23.6622 C   0  0  0  0  0  0  0  0  0  0  0  0
   55.8305   10.2354  -24.7520 F   0  0  0  0  0  0  0  0  0  0  0  0
   55.7989   10.2031  -22.6226 F   0  0  0  0  0  0  0  0  0  0  0  0
   53.8921   12.2781  -24.6571 O   0  0  0  0  0  0  0  0  0  0  0  0
   54.5855   11.8798  -23.7357 C   0  0  0  0  0  0  0  0  0  0  0  0
   54.2589   12.3502  -22.5957 N   0  0  0  0  0  0  0  0  0  0  0  0
   53.3105   13.3148  -22.4830 O   0  0  0  0  0  0  0  0  0  0  0  0
   54.7013   12.0083  -21.7853 H   0  0  0  0  0  0  0  0  0  0  0  0
   52.9739   13.5418  -23.3640 H   0  0  0  0  0  0  0  0  0  0  0  0
   60.9803   11.0203  -24.4477 C   0  0  0  0  0  0  0  0  0  0  0  0
   60.8745   11.2226  -25.7405 F   0  0  0  0  0  0  0  0  0  0  0  0
   60.9281    9.7130  -24.2959 F   0  0  0  0  0  0  0  0  0  0  0  0
   62.3557   11.5076  -23.9588 C   0  0  0  0  0  0  0  0  0  0  0  0
   62.3560   11.7654  -22.6647 F   0  0  0  0  0  0  0  0  0  0  0  0
   62.6705   12.6304  -24.5669 F   0  0  0  0  0  0  0  0  0  0  0  0
   63.3714   10.4139  -24.2104 C   0  0  0  0  0  0  0  0  0  0  0  0
   63.9835   10.0162  -23.2362 O   0  0  0  0  0  0  0  0  0  0  0  0
   63.5489    9.9878  -25.4824 N   0  0  0  0  0  0  0  0  0  0  0  0
   63.0204   10.4410  -26.1785 H   0  0  0  0  0  0  0  0  0  0  0  0
   64.3922    8.9865  -25.9011 C   0  0  0  0  0  0  0  0  0  0  0  0
   63.8827    7.6877  -25.9481 C   0  0  0  0  0  0  0  0  0  0  0  0
   64.6815    6.5955  -26.2929 C   0  0  0  0  0  0  0  0  0  0  0  0
   66.0254    6.7751  -26.6034 C   0  0  0  0  0  0  0  0  0  0  0  0
   66.5608    8.0571  -26.5651 C   0  0  0  0  0  0  0  0  0  0  0  0
   65.7476    9.1423  -26.2236 C   0  0  0  0  0  0  0  0  0  0  0  0
 32 31  2  0  0  0
 32 33  1  0  0  0
 31 30  1  0  0  0
 33 34  2  0  0  0
 30 29  2  0  0  0
 34 29  1  0  0  0
 29 27  1  0  0  0
 27 25  1  0  0  0
 25 26  2  0  0  0
 25 22  1  0  0  0
 23 22  1  0  0  0
 22 24  1  0  0  0
 22 19  1  0  0  0
 21 19  1  0  0  0
 19 20  1  0  0  0
 19  1  1  0  0  0
  2  1  1  0  0  0
  1  3  1  0  0  0
  1  4  1  0  0  0
  6  4  1  0  0  0
  4  5  1  0  0  0
  4  7  1  0  0  0
  7  9  1  0  0  0
  7  8  1  0  0  0
  7 10  1  0  0  0
 12 10  1  0  0  0
 10 11  1  0  0  0
 10 14  1  0  0  0
 14 13  2  0  0  0
 14 15  1  0  0  0
 15 16  1  0  0  0
 15 17  1  0  0  0
 16 18  1  0  0  0
 27 28  1  0  0  0
M  END
> <minimizedAffinity>
-8.77480

$$$$
5G1A_7H1_A_373


 34 34  0  0  0  0  0  0  0  0999 V2000
   63.5637   11.4028  -24.1249 C   0  0  0  0  0  0  0  0  0  0  0  0
   63.7131   11.9109  -25.3315 F   0  0  0  0  0  0  0  0  0  0  0  0
   64.2979   12.1587  -23.3462 F   0  0  0  0  0  0  0  0  0  0  0  0
   64.0792    9.9508  -24.0614 C   0  0  0  0  0  0  0  0  0  0  0  0
   64.6253    9.7510  -22.8796 F   0  0  0  0  0  0  0  0  0  0  0  0
   63.0565    9.1237  -24.1321 F   0  0  0  0  0  0  0  0  0  0  0  0
   65.0845    9.5008  -25.1364 C   0  0  0  0  0  0  0  0  0  0  0  0
   64.4512    9.5738  -26.2841 F   0  0  0  0  0  0  0  0  0  0  0  0
   66.1053   10.3316  -25.1639 F   0  0  0  0  0  0  0  0  0  0  0  0
   65.6565    8.0796  -25.0642 C   0  0  0  0  0  0  0  0  0  0  0  0
   64.6523    7.2780  -24.7272 F   0  0  0  0  0  0  0  0  0  0  0  0
   66.0886    7.7068  -26.2404 F   0  0  0  0  0  0  0  0  0  0  0  0
   67.8460    8.3918  -23.8307 O   0  0  0  0  0  0  0  0  0  0  0  0
   66.7375    7.9078  -23.9906 C   0  0  0  0  0  0  0  0  0  0  0  0
   66.4296    7.0145  -23.1335 N   0  0  0  0  0  0  0  0  0  0  0  0
   67.3389    6.5708  -22.2286 O   0  0  0  0  0  0  0  0  0  0  0  0
   65.5186    6.6412  -23.1283 H   0  0  0  0  0  0  0  0  0  0  0  0
   68.1812    7.0326  -22.3636 H   0  0  0  0  0  0  0  0  0  0  0  0
   62.0903   11.5555  -23.7501 C   0  0  0  0  0  0  0  0  0  0  0  0
   61.9069   11.2925  -22.4771 F   0  0  0  0  0  0  0  0  0  0  0  0
   61.4232   10.6218  -24.3967 F   0  0  0  0  0  0  0  0  0  0  0  0
   61.4643   12.9191  -24.0919 C   0  0  0  0  0  0  0  0  0  0  0  0
   62.0494   13.4837  -25.1312 F   0  0  0  0  0  0  0  0  0  0  0  0
   61.6175   13.7440  -23.0791 F   0  0  0  0  0  0  0  0  0  0  0  0
   60.0077   12.7057  -24.4436 C   0  0  0  0  0  0  0  0  0  0  0  0
   59.6890   12.9659  -25.5893 O   0  0  0  0  0  0  0  0  0  0  0  0
   59.1709   12.2820  -23.4682 N   0  0  0  0  0  0  0  0  0  0  0  0
   59.5601   12.1646  -22.5715 H   0  0  0  0  0  0  0  0  0  0  0  0
   57.8326   11.9990  -23.6023 C   0  0  0  0  0  0  0  0  0  0  0  0
   57.4742   10.6786  -23.8790 C   0  0  0  0  0  0  0  0  0  0  0  0
   56.1465   10.3072  -24.1013 C   0  0  0  0  0  0  0  0  0  0  0  0
   55.1312   11.2567  -24.0522 C   0  0  0  0  0  0  0  0  0  0  0  0
   55.4579   12.5796  -23.7788 C   0  0  0  0  0  0  0  0  0  0  0  0
   56.7910   12.9361  -23.5526 C   0  0  0  0  0  0  0  0  0  0  0  0
 32 31  2  0  0  0
 32 33  1  0  0  0
 31 30  1  0  0  0
 33 34  2  0  0  0
 30 29  2  0  0  0
 34 29  1  0  0  0
 29 27  1  0  0  0
 27 25  1  0  0  0
 25 26  2  0  0  0
 25 22  1  0  0  0
 23 22  1  0  0  0
 22 24  1  0  0  0
 22 19  1  0  0  0
 21 19  1  0  0  0
 19 20  1  0  0  0
 19  1  1  0  0  0
  2  1  1  0  0  0
  1  3  1  0  0  0
  1  4  1  0  0  0
  6  4  1  0  0  0
  4  5  1  0  0  0
  4  7  1  0  0  0
  7  9  1  0  0  0
  7  8  1  0  0  0
  7 10  1  0  0  0
 12 10  1  0  0  0
 10 11  1  0  0  0
 10 14  1  0  0  0
 14 13  2  0  0  0
 14 15  1  0  0  0
 15 16  1  0  0  0
 15 17  1  0  0  0
 16 18  1  0  0  0
 27 28  1  0  0  0
M  END
> <minimizedAffinity>
-8.66920

$$$$
