5IVC_6E7_A_601


 28 30  0  0  0  0  0  0  0  0999 V2000
  -21.8102   19.7984    2.5238 C   0  0  0  0  0  0  0  0  0  0  0  0
  -20.9295   21.2524    0.3681 C   0  0  0  0  0  0  0  0  0  0  0  0
  -22.7225   20.2799    1.5987 C   0  0  0  0  0  0  0  0  0  0  0  0
  -22.2912   21.0205    0.4867 C   0  0  0  0  0  0  0  0  0  0  0  0
  -20.0828   20.7392    1.3356 C   0  0  0  0  0  0  0  0  0  0  0  0
  -20.5020   20.0440    2.4077 N   0  0  0  0  0  0  0  0  0  0  0  0
  -22.1495   18.4720    6.0805 C   0  0  0  0  0  0  0  0  0  0  0  0
  -23.0115   17.4120    5.8240 C   0  0  0  0  0  0  0  0  0  0  0  0
  -23.4308   17.2155    4.5237 C   0  0  0  0  0  0  0  0  0  0  0  0
  -23.0566   17.9720    3.4747 N   0  0  0  0  0  0  0  0  0  0  0  0
  -22.2208   19.0156    3.7301 C   0  0  0  0  0  0  0  0  0  0  0  0
  -21.7281   19.2934    5.0117 C   0  0  0  0  0  0  0  0  0  0  0  0
  -20.5101   18.3262    7.8011 O   0  0  0  0  0  0  0  0  0  0  0  0
  -21.6672   18.7181    7.5025 C   0  0  0  0  0  0  0  0  0  0  0  0
  -22.4327   19.3081    8.2836 O   0  0  0  0  0  0  0  0  0  0  0  0
  -23.2838   19.5730    7.9947 H   0  0  0  0  0  0  0  0  0  0  0  0
  -23.2415   21.5583   -0.5134 C   0  0  0  0  0  0  0  0  0  0  0  0
  -22.8804   22.3979   -1.3370 O   0  0  0  0  0  0  0  0  0  0  0  0
  -24.4650   21.1000   -0.5002 N   0  0  0  0  0  0  0  0  0  0  0  0
  -24.7111   20.4065    0.1537 H   0  0  0  0  0  0  0  0  0  0  0  0
  -25.4714   21.5892   -1.4274 C   0  0  0  0  0  0  0  0  0  0  0  0
  -26.3842   22.5794   -0.7819 C   0  0  0  0  0  0  0  0  0  0  0  0
  -27.0914   22.0421    0.4632 C   0  0  0  0  0  0  0  0  0  0  0  0
  -26.3928   21.8056    1.6278 C   0  0  0  0  0  0  0  0  0  0  0  0
  -28.3688   21.1017    2.8359 C   0  0  0  0  0  0  0  0  0  0  0  0
  -28.4771   21.8022    0.5196 C   0  0  0  0  0  0  0  0  0  0  0  0
  -26.9994   21.3407    2.7956 C   0  0  0  0  0  0  0  0  0  0  0  0
  -29.1125   21.3403    1.6807 C   0  0  0  0  0  0  0  0  0  0  0  0
  5  2  2  0  0  0
  5  6  1  0  0  0
  2  4  1  0  0  0
 18 17  2  0  0  0
  6  1  2  0  0  0
  4 17  1  0  0  0
  4  3  2  0  0  0
 17 19  1  0  0  0
 19 21  1  0  0  0
 21 22  1  0  0  0
  1  3  1  0  0  0
  1 11  1  0  0  0
 10 11  2  0  0  0
 10  9  1  0  0  0
 22 23  1  0  0  0
 11 12  1  0  0  0
  9  8  2  0  0  0
 23 26  2  0  0  0
 23 24  1  0  0  0
 12  7  2  0  0  0
 26 28  1  0  0  0
 24 27  2  0  0  0
  8  7  1  0  0  0
  7 14  1  0  0  0
 28 25  2  0  0  0
 27 25  1  0  0  0
 14 13  2  0  0  0
 14 15  1  0  0  0
 15 16  1  0  0  0
 19 20  1  0  0  0
M  END
> <minimizedAffinity>
-9.20388

$$$$
5IVC_6E7_A_601


 28 30  0  0  0  0  0  0  0  0999 V2000
  -24.6017   22.0187   -0.0904 C   0  0  0  0  0  0  0  0  0  0  0  0
  -21.8890   22.0422   -0.5108 C   0  0  0  0  0  0  0  0  0  0  0  0
  -23.7852   21.1650    0.6337 C   0  0  0  0  0  0  0  0  0  0  0  0
  -22.3951   21.1663    0.4372 C   0  0  0  0  0  0  0  0  0  0  0  0
  -22.7710   22.8616   -1.1942 C   0  0  0  0  0  0  0  0  0  0  0  0
  -24.1035   22.8456   -1.0141 N   0  0  0  0  0  0  0  0  0  0  0  0
  -28.1294   21.7479    1.3262 C   0  0  0  0  0  0  0  0  0  0  0  0
  -28.8396   22.0569    0.1718 C   0  0  0  0  0  0  0  0  0  0  0  0
  -28.1248   22.3452   -0.9732 C   0  0  0  0  0  0  0  0  0  0  0  0
  -26.7813   22.3389   -1.0604 N   0  0  0  0  0  0  0  0  0  0  0  0
  -26.0880   22.0463    0.0739 C   0  0  0  0  0  0  0  0  0  0  0  0
  -26.7180   21.7278    1.2840 C   0  0  0  0  0  0  0  0  0  0  0  0
  -29.5463   22.3510    3.1423 O   0  0  0  0  0  0  0  0  0  0  0  0
  -28.8852   21.4249    2.6068 C   0  0  0  0  0  0  0  0  0  0  0  0
  -28.8240   20.2626    3.0421 O   0  0  0  0  0  0  0  0  0  0  0  0
  -28.3111   19.6203    2.5923 H   0  0  0  0  0  0  0  0  0  0  0  0
  -21.4965   20.2588    1.1867 C   0  0  0  0  0  0  0  0  0  0  0  0
  -20.3023   20.1788    0.9019 O   0  0  0  0  0  0  0  0  0  0  0  0
  -22.0109   19.5629    2.1656 N   0  0  0  0  0  0  0  0  0  0  0  0
  -22.9642   19.6744    2.3850 H   0  0  0  0  0  0  0  0  0  0  0  0
  -21.2102   18.6282    2.9383 C   0  0  0  0  0  0  0  0  0  0  0  0
  -22.0570   17.7736    3.8232 C   0  0  0  0  0  0  0  0  0  0  0  0
  -22.4061   18.4302    5.1597 C   0  0  0  0  0  0  0  0  0  0  0  0
  -23.5144   19.2406    5.2824 C   0  0  0  0  0  0  0  0  0  0  0  0
  -23.1430   19.6293    7.6426 C   0  0  0  0  0  0  0  0  0  0  0  0
  -21.6659   18.2206    6.3383 C   0  0  0  0  0  0  0  0  0  0  0  0
  -23.8870   19.8397    6.4866 C   0  0  0  0  0  0  0  0  0  0  0  0
  -22.0207   18.8057    7.5618 C   0  0  0  0  0  0  0  0  0  0  0  0
  5  2  2  0  0  0
  5  6  1  0  0  0
  2  4  1  0  0  0
 18 17  2  0  0  0
  6  1  2  0  0  0
  4 17  1  0  0  0
  4  3  2  0  0  0
 17 19  1  0  0  0
 19 21  1  0  0  0
 21 22  1  0  0  0
  1  3  1  0  0  0
  1 11  1  0  0  0
 10 11  2  0  0  0
 10  9  1  0  0  0
 22 23  1  0  0  0
 11 12  1  0  0  0
  9  8  2  0  0  0
 23 26  2  0  0  0
 23 24  1  0  0  0
 12  7  2  0  0  0
 26 28  1  0  0  0
 24 27  2  0  0  0
  8  7  1  0  0  0
  7 14  1  0  0  0
 28 25  2  0  0  0
 27 25  1  0  0  0
 14 13  2  0  0  0
 14 15  1  0  0  0
 15 16  1  0  0  0
 19 20  1  0  0  0
M  END
> <minimizedAffinity>
-9.18790

$$$$
5IVC_6E7_A_601


 28 30  0  0  0  0  0  0  0  0999 V2000
  -22.9692   20.2648    2.3280 C   0  0  0  0  0  0  0  0  0  0  0  0
  -22.6085   21.7932    0.0763 C   0  0  0  0  0  0  0  0  0  0  0  0
  -24.0543   20.8998    1.7455 C   0  0  0  0  0  0  0  0  0  0  0  0
  -23.8910   21.6809    0.5905 C   0  0  0  0  0  0  0  0  0  0  0  0
  -21.5766   21.1296    0.7176 C   0  0  0  0  0  0  0  0  0  0  0  0
  -21.7350   20.3955    1.8331 N   0  0  0  0  0  0  0  0  0  0  0  0
  -23.3376   19.1228    5.9453 C   0  0  0  0  0  0  0  0  0  0  0  0
  -23.1960   17.7545    5.7451 C   0  0  0  0  0  0  0  0  0  0  0  0
  -23.0082   17.3026    4.4545 C   0  0  0  0  0  0  0  0  0  0  0  0
  -22.9402   18.0939    3.3673 N   0  0  0  0  0  0  0  0  0  0  0  0
  -23.0896   19.4324    3.5647 C   0  0  0  0  0  0  0  0  0  0  0  0
  -23.2725   19.9934    4.8353 C   0  0  0  0  0  0  0  0  0  0  0  0
  -24.3837   20.5812    7.5100 O   0  0  0  0  0  0  0  0  0  0  0  0
  -23.5461   19.6560    7.3551 C   0  0  0  0  0  0  0  0  0  0  0  0
  -22.8938   19.1371    8.2768 O   0  0  0  0  0  0  0  0  0  0  0  0
  -22.2846   18.4500    8.0904 H   0  0  0  0  0  0  0  0  0  0  0  0
  -25.0281   22.3811   -0.0495 C   0  0  0  0  0  0  0  0  0  0  0  0
  -25.0105   23.6019   -0.2015 O   0  0  0  0  0  0  0  0  0  0  0  0
  -26.0369   21.6586   -0.4588 N   0  0  0  0  0  0  0  0  0  0  0  0
  -26.0038   20.6810   -0.3477 H   0  0  0  0  0  0  0  0  0  0  0  0
  -27.2065   22.2632   -1.0740 C   0  0  0  0  0  0  0  0  0  0  0  0
  -28.4669   21.8594   -0.3821 C   0  0  0  0  0  0  0  0  0  0  0  0
  -28.4862   22.2020    1.1084 C   0  0  0  0  0  0  0  0  0  0  0  0
  -28.7444   21.2332    2.0544 C   0  0  0  0  0  0  0  0  0  0  0  0
  -28.4714   22.7689    3.9055 C   0  0  0  0  0  0  0  0  0  0  0  0
  -28.2029   23.4870    1.6077 C   0  0  0  0  0  0  0  0  0  0  0  0
  -28.7468   21.4930    3.4256 C   0  0  0  0  0  0  0  0  0  0  0  0
  -28.1936   23.7741    2.9798 C   0  0  0  0  0  0  0  0  0  0  0  0
  5  2  2  0  0  0
  5  6  1  0  0  0
  2  4  1  0  0  0
 18 17  2  0  0  0
  6  1  2  0  0  0
  4 17  1  0  0  0
  4  3  2  0  0  0
 17 19  1  0  0  0
 19 21  1  0  0  0
 21 22  1  0  0  0
  1  3  1  0  0  0
  1 11  1  0  0  0
 10 11  2  0  0  0
 10  9  1  0  0  0
 22 23  1  0  0  0
 11 12  1  0  0  0
  9  8  2  0  0  0
 23 26  2  0  0  0
 23 24  1  0  0  0
 12  7  2  0  0  0
 26 28  1  0  0  0
 24 27  2  0  0  0
  8  7  1  0  0  0
  7 14  1  0  0  0
 28 25  2  0  0  0
 27 25  1  0  0  0
 14 13  2  0  0  0
 14 15  1  0  0  0
 15 16  1  0  0  0
 19 20  1  0  0  0
M  END
> <minimizedAffinity>
-9.18647

$$$$
5IVC_6E7_A_601


 28 30  0  0  0  0  0  0  0  0999 V2000
  -26.2577   21.9814    1.8606 C   0  0  0  0  0  0  0  0  0  0  0  0
  -24.6086   21.3501   -0.2413 C   0  0  0  0  0  0  0  0  0  0  0  0
  -24.9338   21.6496    2.0995 C   0  0  0  0  0  0  0  0  0  0  0  0
  -24.0733   21.3294    1.0374 C   0  0  0  0  0  0  0  0  0  0  0  0
  -25.9416   21.6899   -0.3967 C   0  0  0  0  0  0  0  0  0  0  0  0
  -26.7662   21.9802    0.6251 N   0  0  0  0  0  0  0  0  0  0  0  0
  -27.8472   23.4077    5.0173 C   0  0  0  0  0  0  0  0  0  0  0  0
  -29.0708   22.7518    4.9465 C   0  0  0  0  0  0  0  0  0  0  0  0
  -29.2962   21.9106    3.8757 C   0  0  0  0  0  0  0  0  0  0  0  0
  -28.4095   21.6666    2.8924 N   0  0  0  0  0  0  0  0  0  0  0  0
  -27.2161   22.3180    2.9584 C   0  0  0  0  0  0  0  0  0  0  0  0
  -26.8840   23.1829    4.0091 C   0  0  0  0  0  0  0  0  0  0  0  0
  -26.9163   25.3932    5.9449 O   0  0  0  0  0  0  0  0  0  0  0  0
  -27.5647   24.3426    6.1841 C   0  0  0  0  0  0  0  0  0  0  0  0
  -28.0051   24.0280    7.3027 O   0  0  0  0  0  0  0  0  0  0  0  0
  -28.4813   23.2282    7.4107 H   0  0  0  0  0  0  0  0  0  0  0  0
  -22.6568   20.9599    1.2602 C   0  0  0  0  0  0  0  0  0  0  0  0
  -21.8140   21.8201    1.5120 O   0  0  0  0  0  0  0  0  0  0  0  0
  -22.3394   19.6941    1.1963 N   0  0  0  0  0  0  0  0  0  0  0  0
  -23.0452   19.0302    1.0223 H   0  0  0  0  0  0  0  0  0  0  0  0
  -20.9699   19.2424    1.3759 C   0  0  0  0  0  0  0  0  0  0  0  0
  -20.8966   18.0278    2.2417 C   0  0  0  0  0  0  0  0  0  0  0  0
  -21.7139   18.1413    3.5295 C   0  0  0  0  0  0  0  0  0  0  0  0
  -22.6813   17.2093    3.8386 C   0  0  0  0  0  0  0  0  0  0  0  0
  -23.2243   18.2656    5.9479 C   0  0  0  0  0  0  0  0  0  0  0  0
  -21.5082   19.1526    4.4864 C   0  0  0  0  0  0  0  0  0  0  0  0
  -23.4333   17.2571    5.0134 C   0  0  0  0  0  0  0  0  0  0  0  0
  -22.2456   19.2211    5.6767 C   0  0  0  0  0  0  0  0  0  0  0  0
  5  2  2  0  0  0
  5  6  1  0  0  0
  2  4  1  0  0  0
 18 17  2  0  0  0
  6  1  2  0  0  0
  4 17  1  0  0  0
  4  3  2  0  0  0
 17 19  1  0  0  0
 19 21  1  0  0  0
 21 22  1  0  0  0
  1  3  1  0  0  0
  1 11  1  0  0  0
 10 11  2  0  0  0
 10  9  1  0  0  0
 22 23  1  0  0  0
 11 12  1  0  0  0
  9  8  2  0  0  0
 23 26  2  0  0  0
 23 24  1  0  0  0
 12  7  2  0  0  0
 26 28  1  0  0  0
 24 27  2  0  0  0
  8  7  1  0  0  0
  7 14  1  0  0  0
 28 25  2  0  0  0
 27 25  1  0  0  0
 14 13  2  0  0  0
 14 15  1  0  0  0
 15 16  1  0  0  0
 19 20  1  0  0  0
M  END
> <minimizedAffinity>
-9.13572

$$$$
5IVC_6E7_A_601


 28 30  0  0  0  0  0  0  0  0999 V2000
  -26.5758   22.2197    2.7289 C   0  0  0  0  0  0  0  0  0  0  0  0
  -25.3412   21.5731    0.3637 C   0  0  0  0  0  0  0  0  0  0  0  0
  -25.3073   21.6622    2.7440 C   0  0  0  0  0  0  0  0  0  0  0  0
  -24.6571   21.3302    1.5448 C   0  0  0  0  0  0  0  0  0  0  0  0
  -26.6064   22.1306    0.4329 C   0  0  0  0  0  0  0  0  0  0  0  0
  -27.2318   22.4323    1.5845 N   0  0  0  0  0  0  0  0  0  0  0  0
  -29.3157   22.9826    5.2657 C   0  0  0  0  0  0  0  0  0  0  0  0
  -28.5090   23.3576    6.3340 C   0  0  0  0  0  0  0  0  0  0  0  0
  -27.1404   23.3203    6.1593 C   0  0  0  0  0  0  0  0  0  0  0  0
  -26.5225   22.9559    5.0199 N   0  0  0  0  0  0  0  0  0  0  0  0
  -27.3143   22.5791    3.9787 C   0  0  0  0  0  0  0  0  0  0  0  0
  -28.7133   22.5931    4.0492 C   0  0  0  0  0  0  0  0  0  0  0  0
  -31.3355   22.2868    6.3172 O   0  0  0  0  0  0  0  0  0  0  0  0
  -30.8288   23.0117    5.4232 C   0  0  0  0  0  0  0  0  0  0  0  0
  -31.4782   23.7621    4.6753 O   0  0  0  0  0  0  0  0  0  0  0  0
  -31.0358   24.2762    4.0287 H   0  0  0  0  0  0  0  0  0  0  0  0
  -23.3066   20.7231    1.5274 C   0  0  0  0  0  0  0  0  0  0  0  0
  -22.7132   20.5382    0.4657 O   0  0  0  0  0  0  0  0  0  0  0  0
  -22.7648   20.4079    2.6738 N   0  0  0  0  0  0  0  0  0  0  0  0
  -23.2562   20.5975    3.5056 H   0  0  0  0  0  0  0  0  0  0  0  0
  -21.4545   19.7842    2.7510 C   0  0  0  0  0  0  0  0  0  0  0  0
  -21.4614   18.5911    3.6493 C   0  0  0  0  0  0  0  0  0  0  0  0
  -21.9584   18.8906    5.0644 C   0  0  0  0  0  0  0  0  0  0  0  0
  -23.1846   19.4847    5.2733 C   0  0  0  0  0  0  0  0  0  0  0  0
  -22.9655   19.4141    7.6830 C   0  0  0  0  0  0  0  0  0  0  0  0
  -21.2377   18.5470    6.2234 C   0  0  0  0  0  0  0  0  0  0  0  0
  -23.6908   19.7532    6.5459 C   0  0  0  0  0  0  0  0  0  0  0  0
  -21.7248   18.8005    7.5132 C   0  0  0  0  0  0  0  0  0  0  0  0
  5  2  2  0  0  0
  5  6  1  0  0  0
  2  4  1  0  0  0
 18 17  2  0  0  0
  6  1  2  0  0  0
  4 17  1  0  0  0
  4  3  2  0  0  0
 17 19  1  0  0  0
 19 21  1  0  0  0
 21 22  1  0  0  0
  1  3  1  0  0  0
  1 11  1  0  0  0
 10 11  2  0  0  0
 10  9  1  0  0  0
 22 23  1  0  0  0
 11 12  1  0  0  0
  9  8  2  0  0  0
 23 26  2  0  0  0
 23 24  1  0  0  0
 12  7  2  0  0  0
 26 28  1  0  0  0
 24 27  2  0  0  0
  8  7  1  0  0  0
  7 14  1  0  0  0
 28 25  2  0  0  0
 27 25  1  0  0  0
 14 13  2  0  0  0
 14 15  1  0  0  0
 15 16  1  0  0  0
 19 20  1  0  0  0
M  END
> <minimizedAffinity>
-9.08647

$$$$
5IVC_6E7_A_601


 28 30  0  0  0  0  0  0  0  0999 V2000
  -24.0434   20.5809    2.2108 C   0  0  0  0  0  0  0  0  0  0  0  0
  -25.2230   21.5968   -0.0504 C   0  0  0  0  0  0  0  0  0  0  0  0
  -25.2388   21.2747    2.3099 C   0  0  0  0  0  0  0  0  0  0  0  0
  -25.8603   21.7967    1.1644 C   0  0  0  0  0  0  0  0  0  0  0  0
  -24.0299   20.8949   -0.0656 C   0  0  0  0  0  0  0  0  0  0  0  0
  -23.4300   20.4105    1.0361 N   0  0  0  0  0  0  0  0  0  0  0  0
  -23.0662   19.6218    5.7674 C   0  0  0  0  0  0  0  0  0  0  0  0
  -21.8569   18.9960    5.4874 C   0  0  0  0  0  0  0  0  0  0  0  0
  -21.4562   18.9168    4.1690 C   0  0  0  0  0  0  0  0  0  0  0  0
  -22.1479   19.4136    3.1262 N   0  0  0  0  0  0  0  0  0  0  0  0
  -23.3367   20.0167    3.4019 C   0  0  0  0  0  0  0  0  0  0  0  0
  -23.8273   20.1596    4.7063 C   0  0  0  0  0  0  0  0  0  0  0  0
  -24.4433   20.5622    7.4671 O   0  0  0  0  0  0  0  0  0  0  0  0
  -23.5389   19.7270    7.2099 C   0  0  0  0  0  0  0  0  0  0  0  0
  -23.0212   18.9710    8.0494 O   0  0  0  0  0  0  0  0  0  0  0  0
  -22.3503   18.3711    7.7888 H   0  0  0  0  0  0  0  0  0  0  0  0
  -27.1318   22.5522    1.2379 C   0  0  0  0  0  0  0  0  0  0  0  0
  -27.4107   23.3992    0.3902 O   0  0  0  0  0  0  0  0  0  0  0  0
  -27.9487   22.2771    2.2198 N   0  0  0  0  0  0  0  0  0  0  0  0
  -27.7065   21.5722    2.8629 H   0  0  0  0  0  0  0  0  0  0  0  0
  -29.2062   22.9864    2.3855 C   0  0  0  0  0  0  0  0  0  0  0  0
  -29.1017   24.0661    3.4121 C   0  0  0  0  0  0  0  0  0  0  0  0
  -27.9388   23.8758    4.3872 C   0  0  0  0  0  0  0  0  0  0  0  0
  -26.7606   24.5735    4.2288 C   0  0  0  0  0  0  0  0  0  0  0  0
  -25.7600   23.6103    6.2114 C   0  0  0  0  0  0  0  0  0  0  0  0
  -28.0058   23.0323    5.5118 C   0  0  0  0  0  0  0  0  0  0  0  0
  -25.6829   24.4524    5.1073 C   0  0  0  0  0  0  0  0  0  0  0  0
  -26.9405   22.8959    6.4126 C   0  0  0  0  0  0  0  0  0  0  0  0
  5  2  2  0  0  0
  5  6  1  0  0  0
  2  4  1  0  0  0
 18 17  2  0  0  0
  6  1  2  0  0  0
  4 17  1  0  0  0
  4  3  2  0  0  0
 17 19  1  0  0  0
 19 21  1  0  0  0
 21 22  1  0  0  0
  1  3  1  0  0  0
  1 11  1  0  0  0
 10 11  2  0  0  0
 10  9  1  0  0  0
 22 23  1  0  0  0
 11 12  1  0  0  0
  9  8  2  0  0  0
 23 26  2  0  0  0
 23 24  1  0  0  0
 12  7  2  0  0  0
 26 28  1  0  0  0
 24 27  2  0  0  0
  8  7  1  0  0  0
  7 14  1  0  0  0
 28 25  2  0  0  0
 27 25  1  0  0  0
 14 13  2  0  0  0
 14 15  1  0  0  0
 15 16  1  0  0  0
 19 20  1  0  0  0
M  END
> <minimizedAffinity>
-8.99918

$$$$
5IVC_6E7_A_601


 28 30  0  0  0  0  0  0  0  0999 V2000
  -25.1457   21.1882    4.3711 C   0  0  0  0  0  0  0  0  0  0  0  0
  -27.4084   22.7261    4.1435 C   0  0  0  0  0  0  0  0  0  0  0  0
  -25.9942   21.0093    3.2904 C   0  0  0  0  0  0  0  0  0  0  0  0
  -27.1530   21.7899    3.1533 C   0  0  0  0  0  0  0  0  0  0  0  0
  -26.5127   22.8425    5.1926 C   0  0  0  0  0  0  0  0  0  0  0  0
  -25.4124   22.0815    5.3282 N   0  0  0  0  0  0  0  0  0  0  0  0
  -22.3077   19.1626    5.9096 C   0  0  0  0  0  0  0  0  0  0  0  0
  -21.5456   18.9712    4.7628 C   0  0  0  0  0  0  0  0  0  0  0  0
  -22.0142   19.4972    3.5759 C   0  0  0  0  0  0  0  0  0  0  0  0
  -23.1572   20.1968    3.4456 N   0  0  0  0  0  0  0  0  0  0  0  0
  -23.9068   20.3739    4.5679 C   0  0  0  0  0  0  0  0  0  0  0  0
  -23.5144   19.8910    5.8230 C   0  0  0  0  0  0  0  0  0  0  0  0
  -22.2277   19.1491    8.2893 O   0  0  0  0  0  0  0  0  0  0  0  0
  -21.8212   18.5962    7.2355 C   0  0  0  0  0  0  0  0  0  0  0  0
  -21.0665   17.6094    7.2058 O   0  0  0  0  0  0  0  0  0  0  0  0
  -20.8019   17.2466    6.3834 H   0  0  0  0  0  0  0  0  0  0  0  0
  -28.0856   21.6157    2.0164 C   0  0  0  0  0  0  0  0  0  0  0  0
  -29.1420   21.0009    2.1573 O   0  0  0  0  0  0  0  0  0  0  0  0
  -27.7560   22.1488    0.8700 N   0  0  0  0  0  0  0  0  0  0  0  0
  -26.9171   22.6595    0.8013 H   0  0  0  0  0  0  0  0  0  0  0  0
  -28.5976   22.0061   -0.3062 C   0  0  0  0  0  0  0  0  0  0  0  0
  -28.0844   22.8108   -1.4549 C   0  0  0  0  0  0  0  0  0  0  0  0
  -26.6371   22.4901   -1.8314 C   0  0  0  0  0  0  0  0  0  0  0  0
  -25.6687   23.4710   -1.8208 C   0  0  0  0  0  0  0  0  0  0  0  0
  -23.9089   21.9373   -2.4615 C   0  0  0  0  0  0  0  0  0  0  0  0
  -26.1951   21.1952   -2.1610 C   0  0  0  0  0  0  0  0  0  0  0  0
  -24.3312   23.2205   -2.1313 C   0  0  0  0  0  0  0  0  0  0  0  0
  -24.8571   20.9150   -2.4719 C   0  0  0  0  0  0  0  0  0  0  0  0
  5  2  2  0  0  0
  5  6  1  0  0  0
  2  4  1  0  0  0
 18 17  2  0  0  0
  6  1  2  0  0  0
  4 17  1  0  0  0
  4  3  2  0  0  0
 17 19  1  0  0  0
 19 21  1  0  0  0
 21 22  1  0  0  0
  1  3  1  0  0  0
  1 11  1  0  0  0
 10 11  2  0  0  0
 10  9  1  0  0  0
 22 23  1  0  0  0
 11 12  1  0  0  0
  9  8  2  0  0  0
 23 26  2  0  0  0
 23 24  1  0  0  0
 12  7  2  0  0  0
 26 28  1  0  0  0
 24 27  2  0  0  0
  8  7  1  0  0  0
  7 14  1  0  0  0
 28 25  2  0  0  0
 27 25  1  0  0  0
 14 13  2  0  0  0
 14 15  1  0  0  0
 15 16  1  0  0  0
 19 20  1  0  0  0
M  END
> <minimizedAffinity>
-8.69932

$$$$
5IVC_6E7_A_601


 28 30  0  0  0  0  0  0  0  0999 V2000
  -20.2519   22.9578   -0.0590 C   0  0  0  0  0  0  0  0  0  0  0  0
  -19.9260   20.4069    0.9018 C   0  0  0  0  0  0  0  0  0  0  0  0
  -21.2947   22.3343    0.6073 C   0  0  0  0  0  0  0  0  0  0  0  0
  -21.1454   21.0324    1.1110 C   0  0  0  0  0  0  0  0  0  0  0  0
  -18.9347   21.0964    0.2249 C   0  0  0  0  0  0  0  0  0  0  0  0
  -19.0875   22.3374   -0.2699 N   0  0  0  0  0  0  0  0  0  0  0  0
  -21.5393   26.3977   -1.0761 C   0  0  0  0  0  0  0  0  0  0  0  0
  -20.4381   26.8209   -1.8114 C   0  0  0  0  0  0  0  0  0  0  0  0
  -19.3562   25.9695   -1.9097 C   0  0  0  0  0  0  0  0  0  0  0  0
  -19.2904   24.7457   -1.3522 N   0  0  0  0  0  0  0  0  0  0  0  0
  -20.3657   24.3378   -0.6240 C   0  0  0  0  0  0  0  0  0  0  0  0
  -21.5174   25.1208   -0.4730 C   0  0  0  0  0  0  0  0  0  0  0  0
  -23.1031   27.9573   -1.9659 O   0  0  0  0  0  0  0  0  0  0  0  0
  -22.7496   27.3108   -0.9468 C   0  0  0  0  0  0  0  0  0  0  0  0
  -23.3327   27.3535    0.1497 O   0  0  0  0  0  0  0  0  0  0  0  0
  -23.0149   26.8447    0.8695 H   0  0  0  0  0  0  0  0  0  0  0  0
  -22.2439   20.3346    1.8176 C   0  0  0  0  0  0  0  0  0  0  0  0
  -22.2844   19.1057    1.8601 O   0  0  0  0  0  0  0  0  0  0  0  0
  -23.1535   21.0663    2.4043 N   0  0  0  0  0  0  0  0  0  0  0  0
  -23.0731   22.0471    2.3753 H   0  0  0  0  0  0  0  0  0  0  0  0
  -24.2811   20.4676    3.0985 C   0  0  0  0  0  0  0  0  0  0  0  0
  -24.2565   20.7726    4.5603 C   0  0  0  0  0  0  0  0  0  0  0  0
  -23.6787   19.6426    5.4138 C   0  0  0  0  0  0  0  0  0  0  0  0
  -23.3776   19.8429    6.7440 C   0  0  0  0  0  0  0  0  0  0  0  0
  -22.6599   17.5543    7.0711 C   0  0  0  0  0  0  0  0  0  0  0  0
  -23.4637   18.3403    4.9255 C   0  0  0  0  0  0  0  0  0  0  0  0
  -22.8737   18.8355    7.5681 C   0  0  0  0  0  0  0  0  0  0  0  0
  -22.9635   17.3088    5.7324 C   0  0  0  0  0  0  0  0  0  0  0  0
  5  2  2  0  0  0
  5  6  1  0  0  0
  2  4  1  0  0  0
 18 17  2  0  0  0
  6  1  2  0  0  0
  4 17  1  0  0  0
  4  3  2  0  0  0
 17 19  1  0  0  0
 19 21  1  0  0  0
 21 22  1  0  0  0
  1  3  1  0  0  0
  1 11  1  0  0  0
 10 11  2  0  0  0
 10  9  1  0  0  0
 22 23  1  0  0  0
 11 12  1  0  0  0
  9  8  2  0  0  0
 23 26  2  0  0  0
 23 24  1  0  0  0
 12  7  2  0  0  0
 26 28  1  0  0  0
 24 27  2  0  0  0
  8  7  1  0  0  0
  7 14  1  0  0  0
 28 25  2  0  0  0
 27 25  1  0  0  0
 14 13  2  0  0  0
 14 15  1  0  0  0
 15 16  1  0  0  0
 19 20  1  0  0  0
M  END
> <minimizedAffinity>
-8.66106

$$$$
5IVC_6E7_A_601


 28 30  0  0  0  0  0  0  0  0999 V2000
  -27.1731   23.1728    4.9573 C   0  0  0  0  0  0  0  0  0  0  0  0
  -24.8917   21.7386    5.4811 C   0  0  0  0  0  0  0  0  0  0  0  0
  -26.4899   22.5618    3.9181 C   0  0  0  0  0  0  0  0  0  0  0  0
  -25.3246   21.8193    4.1666 C   0  0  0  0  0  0  0  0  0  0  0  0
  -25.6288   22.3789    6.4624 C   0  0  0  0  0  0  0  0  0  0  0  0
  -26.7356   23.1025    6.2177 N   0  0  0  0  0  0  0  0  0  0  0  0
  -30.0758   25.6021    5.4022 C   0  0  0  0  0  0  0  0  0  0  0  0
  -30.7612   25.3222    4.2257 C   0  0  0  0  0  0  0  0  0  0  0  0
  -30.2255   24.3812    3.3697 C   0  0  0  0  0  0  0  0  0  0  0  0
  -29.0860   23.7005    3.5948 N   0  0  0  0  0  0  0  0  0  0  0  0
  -28.4112   23.9839    4.7425 C   0  0  0  0  0  0  0  0  0  0  0  0
  -28.8756   24.9126    5.6828 C   0  0  0  0  0  0  0  0  0  0  0  0
  -30.6183   27.8393    6.0106 O   0  0  0  0  0  0  0  0  0  0  0  0
  -30.6375   26.6341    6.3691 C   0  0  0  0  0  0  0  0  0  0  0  0
  -31.1008   26.2294    7.4488 O   0  0  0  0  0  0  0  0  0  0  0  0
  -31.0831   25.3151    7.6529 H   0  0  0  0  0  0  0  0  0  0  0  0
  -24.5656   21.1638    3.0770 C   0  0  0  0  0  0  0  0  0  0  0  0
  -25.0914   20.9459    1.9863 O   0  0  0  0  0  0  0  0  0  0  0  0
  -23.3207   20.8420    3.3090 N   0  0  0  0  0  0  0  0  0  0  0  0
  -22.9236   21.0585    4.1834 H   0  0  0  0  0  0  0  0  0  0  0  0
  -22.5080   20.1725    2.3074 C   0  0  0  0  0  0  0  0  0  0  0  0
  -21.4856   19.2798    2.9306 C   0  0  0  0  0  0  0  0  0  0  0  0
  -21.8991   18.7334    4.2980 C   0  0  0  0  0  0  0  0  0  0  0  0
  -22.8970   17.7892    4.4110 C   0  0  0  0  0  0  0  0  0  0  0  0
  -22.6679   17.6304    6.8156 C   0  0  0  0  0  0  0  0  0  0  0  0
  -21.2737   19.1119    5.5007 C   0  0  0  0  0  0  0  0  0  0  0  0
  -23.2900   17.2428    5.6337 C   0  0  0  0  0  0  0  0  0  0  0  0
  -21.6451   18.5754    6.7414 C   0  0  0  0  0  0  0  0  0  0  0  0
  5  2  2  0  0  0
  5  6  1  0  0  0
  2  4  1  0  0  0
 18 17  2  0  0  0
  6  1  2  0  0  0
  4 17  1  0  0  0
  4  3  2  0  0  0
 17 19  1  0  0  0
 19 21  1  0  0  0
 21 22  1  0  0  0
  1  3  1  0  0  0
  1 11  1  0  0  0
 10 11  2  0  0  0
 10  9  1  0  0  0
 22 23  1  0  0  0
 11 12  1  0  0  0
  9  8  2  0  0  0
 23 26  2  0  0  0
 23 24  1  0  0  0
 12  7  2  0  0  0
 26 28  1  0  0  0
 24 27  2  0  0  0
  8  7  1  0  0  0
  7 14  1  0  0  0
 28 25  2  0  0  0
 27 25  1  0  0  0
 14 13  2  0  0  0
 14 15  1  0  0  0
 15 16  1  0  0  0
 19 20  1  0  0  0
M  END
> <minimizedAffinity>
-8.52716

$$$$
5IVC_6E7_A_601


 28 30  0  0  0  0  0  0  0  0999 V2000
  -25.2213   21.6948    5.6972 C   0  0  0  0  0  0  0  0  0  0  0  0
  -27.0138   23.7594    5.4510 C   0  0  0  0  0  0  0  0  0  0  0  0
  -25.8031   21.9588    4.4676 C   0  0  0  0  0  0  0  0  0  0  0  0
  -26.7175   23.0139    4.3204 C   0  0  0  0  0  0  0  0  0  0  0  0
  -26.3919   23.4311    6.6434 C   0  0  0  0  0  0  0  0  0  0  0  0
  -25.5287   22.4094    6.7834 N   0  0  0  0  0  0  0  0  0  0  0  0
  -22.8283   18.7791    5.1518 C   0  0  0  0  0  0  0  0  0  0  0  0
  -22.5536   18.4860    6.4826 C   0  0  0  0  0  0  0  0  0  0  0  0
  -23.1497   19.2627    7.4555 C   0  0  0  0  0  0  0  0  0  0  0  0
  -23.9925   20.2839    7.2116 N   0  0  0  0  0  0  0  0  0  0  0  0
  -24.2516   20.5757    5.9075 C   0  0  0  0  0  0  0  0  0  0  0  0
  -23.7074   19.8412    4.8460 C   0  0  0  0  0  0  0  0  0  0  0  0
  -22.7691   16.8796    3.7172 O   0  0  0  0  0  0  0  0  0  0  0  0
  -22.1883   17.9433    4.0531 C   0  0  0  0  0  0  0  0  0  0  0  0
  -21.1403   18.3652    3.5356 O   0  0  0  0  0  0  0  0  0  0  0  0
  -20.7600   19.1675    3.8349 H   0  0  0  0  0  0  0  0  0  0  0  0
  -27.3648   23.3148    3.0230 C   0  0  0  0  0  0  0  0  0  0  0  0
  -26.9184   24.1924    2.2854 O   0  0  0  0  0  0  0  0  0  0  0  0
  -28.4106   22.6083    2.6848 N   0  0  0  0  0  0  0  0  0  0  0  0
  -28.7224   21.8937    3.2860 H   0  0  0  0  0  0  0  0  0  0  0  0
  -29.1246   22.8515    1.4427 C   0  0  0  0  0  0  0  0  0  0  0  0
  -28.8544   21.7865    0.4312 C   0  0  0  0  0  0  0  0  0  0  0  0
  -28.0604   22.2773   -0.7804 C   0  0  0  0  0  0  0  0  0  0  0  0
  -26.8162   21.7589   -1.0690 C   0  0  0  0  0  0  0  0  0  0  0  0
  -26.5616   23.1076   -3.0629 C   0  0  0  0  0  0  0  0  0  0  0  0
  -28.5520   23.2339   -1.6882 C   0  0  0  0  0  0  0  0  0  0  0  0
  -26.0667   22.1566   -2.1771 C   0  0  0  0  0  0  0  0  0  0  0  0
  -27.8225   23.6475   -2.8116 C   0  0  0  0  0  0  0  0  0  0  0  0
  5  2  2  0  0  0
  5  6  1  0  0  0
  2  4  1  0  0  0
 18 17  2  0  0  0
  6  1  2  0  0  0
  4 17  1  0  0  0
  4  3  2  0  0  0
 17 19  1  0  0  0
 19 21  1  0  0  0
 21 22  1  0  0  0
  1  3  1  0  0  0
  1 11  1  0  0  0
 10 11  2  0  0  0
 10  9  1  0  0  0
 22 23  1  0  0  0
 11 12  1  0  0  0
  9  8  2  0  0  0
 23 26  2  0  0  0
 23 24  1  0  0  0
 12  7  2  0  0  0
 26 28  1  0  0  0
 24 27  2  0  0  0
  8  7  1  0  0  0
  7 14  1  0  0  0
 28 25  2  0  0  0
 27 25  1  0  0  0
 14 13  2  0  0  0
 14 15  1  0  0  0
 15 16  1  0  0  0
 19 20  1  0  0  0
M  END
> <minimizedAffinity>
-8.32842

$$$$
