5WE9_GY7_A_303


 37 40  0  0  0  0  0  0  0  0999 V2000
  -10.5895   79.9754   15.1932 C   0  0  0  0  0  0  0  0  0  0  0  0
   -9.9632   78.7680   14.8824 C   0  0  0  0  0  0  0  0  0  0  0  0
  -10.1694   79.3666   12.5845 C   0  0  0  0  0  0  0  0  0  0  0  0
  -10.9660   80.8230   14.1903 C   0  0  0  0  0  0  0  0  0  0  0  0
  -10.7683   80.5157   12.8967 N   0  0  0  0  0  0  0  0  0  0  0  0
   -9.7755   78.4926   13.5454 N   0  0  0  0  0  0  0  0  0  0  0  0
  -10.7718   80.2011   16.5034 O   0  0  0  0  0  0  0  0  0  0  0  0
   -9.5774   77.9527   15.7382 O   0  0  0  0  0  0  0  0  0  0  0  0
   -9.3476   77.6459   13.2822 H   0  0  0  0  0  0  0  0  0  0  0  0
  -10.4846   79.5685   17.1322 H   0  0  0  0  0  0  0  0  0  0  0  0
  -10.7223   77.8176   10.6105 C   0  0  0  0  0  0  0  0  0  0  0  0
   -9.7491   76.6999   10.9464 C   0  0  0  0  0  0  0  0  0  0  0  0
   -8.4400   77.2727   10.4517 C   0  0  0  0  0  0  0  0  0  0  0  0
   -7.5126   79.5416   10.7762 C   0  0  0  0  0  0  0  0  0  0  0  0
   -9.9631   79.0517   11.1192 C   0  0  0  0  0  0  0  0  0  0  0  0
   -8.5634   78.7046   10.7796 N   0  0  0  0  0  0  0  0  0  0  0  0
   -6.4939   79.2852   10.1425 O   0  0  0  0  0  0  0  0  0  0  0  0
   -7.1653   80.7412   12.9739 C   0  0  0  0  0  0  0  0  0  0  0  0
   -7.5788   80.7599   11.6502 C   0  0  0  0  0  0  0  0  0  0  0  0
   -8.0432   81.9727   11.1649 C   0  0  0  0  0  0  0  0  0  0  0  0
   -8.1257   83.1019   11.9443 C   0  0  0  0  0  0  0  0  0  0  0  0
   -7.7208   83.0216   13.2567 C   0  0  0  0  0  0  0  0  0  0  0  0
   -7.2368   81.8452   13.7898 C   0  0  0  0  0  0  0  0  0  0  0  0
   -6.6872   79.5944   13.5065 F   0  0  0  0  0  0  0  0  0  0  0  0
   -8.4563   82.0545    9.8801 F   0  0  0  0  0  0  0  0  0  0  0  0
  -11.6366   82.1475   14.4425 C   0  0  0  0  0  0  0  0  0  0  0  0
  -10.8156   83.0883   14.9193 N   0  0  0  0  0  0  0  0  0  0  0  0
  -12.8402   82.3171   14.2225 O   0  0  0  0  0  0  0  0  0  0  0  0
   -9.9215   82.8197   15.2319 H   0  0  0  0  0  0  0  0  0  0  0  0
  -11.1891   84.4972   14.9959 C   0  0  0  0  0  0  0  0  0  0  0  0
  -10.1239   85.3401   15.6586 C   0  0  0  0  0  0  0  0  0  0  0  0
   -9.1074   85.8929   14.6846 C   0  0  0  0  0  0  0  0  0  0  0  0
   -9.4997   86.3577   13.4368 C   0  0  0  0  0  0  0  0  0  0  0  0
   -8.5701   86.8602   12.5407 C   0  0  0  0  0  0  0  0  0  0  0  0
   -7.2380   86.9069   12.8814 C   0  0  0  0  0  0  0  0  0  0  0  0
   -6.8320   86.4508   14.1130 C   0  0  0  0  0  0  0  0  0  0  0  0
   -7.7609   85.9467   15.0113 C   0  0  0  0  0  0  0  0  0  0  0  0
 25 20  1  0  0  0
 21 20  2  0  0  0
 21 22  1  0  0  0
 20 19  1  0  0  0
 22 23  2  0  0  0
 17 14  2  0  0  0
 19 14  1  0  0  0
 19 18  2  0  0  0
 14 16  1  0  0  0
 23 18  1  0  0  0
 18 24  1  0  0  0
 16 15  1  0  0  0
 16 13  1  0  0  0
 15 11  1  0  0  0
 15  3  1  0  0  0
 13 12  1  0  0  0
  6  3  1  0  0  0
  6  2  1  0  0  0
 11 12  1  0  0  0
  3  5  2  0  0  0
  8  2  2  0  0  0
  2  1  1  0  0  0
  5  4  1  0  0  0
  1  4  2  0  0  0
  1  7  1  0  0  0
  4 26  1  0  0  0
 36 35  2  0  0  0
 36 37  1  0  0  0
 35 34  1  0  0  0
 37 32  2  0  0  0
 27 26  1  0  0  0
 27 30  1  0  0  0
 26 28  2  0  0  0
 34 33  2  0  0  0
 30 31  1  0  0  0
 32 33  1  0  0  0
 32 31  1  0  0  0
 27 29  1  0  0  0
  6  9  1  0  0  0
  7 10  1  0  0  0
M  END
> <minimizedAffinity>
-8.43526

$$$$
5WE9_GY7_A_303


 37 40  0  0  0  0  0  0  0  0999 V2000
  -10.0018   79.1994   17.2091 C   0  0  0  0  0  0  0  0  0  0  0  0
   -9.7716   80.2732   18.0695 C   0  0  0  0  0  0  0  0  0  0  0  0
   -8.4918   81.2702   16.3233 C   0  0  0  0  0  0  0  0  0  0  0  0
   -9.4771   79.2152   15.9479 C   0  0  0  0  0  0  0  0  0  0  0  0
   -8.7188   80.2364   15.5130 N   0  0  0  0  0  0  0  0  0  0  0  0
   -8.9930   81.3013   17.5843 N   0  0  0  0  0  0  0  0  0  0  0  0
  -10.7483   78.2091   17.7219 O   0  0  0  0  0  0  0  0  0  0  0  0
  -10.2276   80.3396   19.2244 O   0  0  0  0  0  0  0  0  0  0  0  0
   -8.7966   82.0731   18.1632 H   0  0  0  0  0  0  0  0  0  0  0  0
  -11.0727   78.2728   18.5986 H   0  0  0  0  0  0  0  0  0  0  0  0
   -6.2895   82.5782   16.5235 C   0  0  0  0  0  0  0  0  0  0  0  0
   -6.6830   83.4675   17.6913 C   0  0  0  0  0  0  0  0  0  0  0  0
   -7.5316   84.5157   17.0076 C   0  0  0  0  0  0  0  0  0  0  0  0
   -9.3205   84.2163   15.3272 C   0  0  0  0  0  0  0  0  0  0  0  0
   -7.6337   82.4021   15.8025 C   0  0  0  0  0  0  0  0  0  0  0  0
   -8.2469   83.7392   15.9787 N   0  0  0  0  0  0  0  0  0  0  0  0
   -9.5366   85.4214   15.2490 O   0  0  0  0  0  0  0  0  0  0  0  0
  -11.4049   82.7977   15.5069 C   0  0  0  0  0  0  0  0  0  0  0  0
  -10.3075   83.2289   14.7767 C   0  0  0  0  0  0  0  0  0  0  0  0
  -10.1756   82.7126   13.4967 C   0  0  0  0  0  0  0  0  0  0  0  0
  -11.0570   81.7989   12.9699 C   0  0  0  0  0  0  0  0  0  0  0  0
  -12.1170   81.3904   13.7459 C   0  0  0  0  0  0  0  0  0  0  0  0
  -12.3065   81.8808   15.0210 C   0  0  0  0  0  0  0  0  0  0  0  0
  -11.6020   83.2733   16.7569 F   0  0  0  0  0  0  0  0  0  0  0  0
   -9.1279   83.0990   12.7344 F   0  0  0  0  0  0  0  0  0  0  0  0
   -9.6880   78.1017   14.9564 C   0  0  0  0  0  0  0  0  0  0  0  0
   -9.8406   78.5201   13.6962 N   0  0  0  0  0  0  0  0  0  0  0  0
   -9.7166   76.9178   15.3075 O   0  0  0  0  0  0  0  0  0  0  0  0
   -9.9828   79.4804   13.5320 H   0  0  0  0  0  0  0  0  0  0  0  0
   -9.8051   77.6130   12.5533 C   0  0  0  0  0  0  0  0  0  0  0  0
  -10.1250   78.3130   11.2524 C   0  0  0  0  0  0  0  0  0  0  0  0
   -9.0568   79.2937   10.8230 C   0  0  0  0  0  0  0  0  0  0  0  0
   -9.3976   80.4876   10.2021 C   0  0  0  0  0  0  0  0  0  0  0  0
   -8.4209   81.3858    9.8034 C   0  0  0  0  0  0  0  0  0  0  0  0
   -7.0924   81.1034   10.0226 C   0  0  0  0  0  0  0  0  0  0  0  0
   -6.7371   79.9257   10.6361 C   0  0  0  0  0  0  0  0  0  0  0  0
   -7.7131   79.0248   11.0354 C   0  0  0  0  0  0  0  0  0  0  0  0
 25 20  1  0  0  0
 21 20  2  0  0  0
 21 22  1  0  0  0
 20 19  1  0  0  0
 22 23  2  0  0  0
 17 14  2  0  0  0
 19 14  1  0  0  0
 19 18  2  0  0  0
 14 16  1  0  0  0
 23 18  1  0  0  0
 18 24  1  0  0  0
 16 15  1  0  0  0
 16 13  1  0  0  0
 15 11  1  0  0  0
 15  3  1  0  0  0
 13 12  1  0  0  0
  6  3  1  0  0  0
  6  2  1  0  0  0
 11 12  1  0  0  0
  3  5  2  0  0  0
  8  2  2  0  0  0
  2  1  1  0  0  0
  5  4  1  0  0  0
  1  4  2  0  0  0
  1  7  1  0  0  0
  4 26  1  0  0  0
 36 35  2  0  0  0
 36 37  1  0  0  0
 35 34  1  0  0  0
 37 32  2  0  0  0
 27 26  1  0  0  0
 27 30  1  0  0  0
 26 28  2  0  0  0
 34 33  2  0  0  0
 30 31  1  0  0  0
 32 33  1  0  0  0
 32 31  1  0  0  0
 27 29  1  0  0  0
  6  9  1  0  0  0
  7 10  1  0  0  0
M  END
> <minimizedAffinity>
-8.10782

$$$$
5WE9_GY7_A_303


 37 40  0  0  0  0  0  0  0  0999 V2000
   -6.4161   78.4792   14.5664 C   0  0  0  0  0  0  0  0  0  0  0  0
   -7.1917   79.1898   15.4829 C   0  0  0  0  0  0  0  0  0  0  0  0
   -7.7348   80.6889   13.7113 C   0  0  0  0  0  0  0  0  0  0  0  0
   -6.3442   78.8988   13.2683 C   0  0  0  0  0  0  0  0  0  0  0  0
   -6.9885   80.0008   12.8474 N   0  0  0  0  0  0  0  0  0  0  0  0
   -7.8391   80.3107   15.0107 N   0  0  0  0  0  0  0  0  0  0  0  0
   -5.7861   77.4048   15.0661 O   0  0  0  0  0  0  0  0  0  0  0  0
   -7.3198   78.8624   16.6756 O   0  0  0  0  0  0  0  0  0  0  0  0
   -8.3876   80.8473   15.6274 H   0  0  0  0  0  0  0  0  0  0  0  0
   -5.8862   77.1817   15.9706 H   0  0  0  0  0  0  0  0  0  0  0  0
   -8.0088   83.2387   13.8674 C   0  0  0  0  0  0  0  0  0  0  0  0
   -8.9049   83.2753   15.0942 C   0  0  0  0  0  0  0  0  0  0  0  0
  -10.2502   82.9181   14.5034 C   0  0  0  0  0  0  0  0  0  0  0  0
  -10.8185   81.1247   12.8990 C   0  0  0  0  0  0  0  0  0  0  0  0
   -8.4458   81.9244   13.2046 C   0  0  0  0  0  0  0  0  0  0  0  0
   -9.9026   81.9215   13.4742 N   0  0  0  0  0  0  0  0  0  0  0  0
  -12.0085   81.4228   12.8892 O   0  0  0  0  0  0  0  0  0  0  0  0
  -10.0076   79.6429   11.0184 C   0  0  0  0  0  0  0  0  0  0  0  0
  -10.3600   79.8053   12.3500 C   0  0  0  0  0  0  0  0  0  0  0  0
  -10.2502   78.6849   13.1592 C   0  0  0  0  0  0  0  0  0  0  0  0
   -9.8441   77.4614   12.6825 C   0  0  0  0  0  0  0  0  0  0  0  0
   -9.5259   77.3521   11.3486 C   0  0  0  0  0  0  0  0  0  0  0  0
   -9.6027   78.4362   10.4993 C   0  0  0  0  0  0  0  0  0  0  0  0
  -10.0769   80.6990   10.1773 F   0  0  0  0  0  0  0  0  0  0  0  0
  -10.5754   78.7821   14.4680 F   0  0  0  0  0  0  0  0  0  0  0  0
   -5.5389   78.1823   12.2168 C   0  0  0  0  0  0  0  0  0  0  0  0
   -4.2432   78.0558   12.5196 N   0  0  0  0  0  0  0  0  0  0  0  0
   -6.0570   77.7642   11.1764 O   0  0  0  0  0  0  0  0  0  0  0  0
   -3.8835   78.5706   13.2777 H   0  0  0  0  0  0  0  0  0  0  0  0
   -3.3392   77.1863   11.7732 C   0  0  0  0  0  0  0  0  0  0  0  0
   -2.1207   76.7959   12.5776 C   0  0  0  0  0  0  0  0  0  0  0  0
   -2.4523   76.3356   13.9796 C   0  0  0  0  0  0  0  0  0  0  0  0
   -3.2259   75.2024   14.1902 C   0  0  0  0  0  0  0  0  0  0  0  0
   -3.5353   74.7812   15.4734 C   0  0  0  0  0  0  0  0  0  0  0  0
   -3.0733   75.4852   16.5614 C   0  0  0  0  0  0  0  0  0  0  0  0
   -2.3060   76.6097   16.3710 C   0  0  0  0  0  0  0  0  0  0  0  0
   -1.9957   77.0336   15.0874 C   0  0  0  0  0  0  0  0  0  0  0  0
 25 20  1  0  0  0
 21 20  2  0  0  0
 21 22  1  0  0  0
 20 19  1  0  0  0
 22 23  2  0  0  0
 17 14  2  0  0  0
 19 14  1  0  0  0
 19 18  2  0  0  0
 14 16  1  0  0  0
 23 18  1  0  0  0
 18 24  1  0  0  0
 16 15  1  0  0  0
 16 13  1  0  0  0
 15 11  1  0  0  0
 15  3  1  0  0  0
 13 12  1  0  0  0
  6  3  1  0  0  0
  6  2  1  0  0  0
 11 12  1  0  0  0
  3  5  2  0  0  0
  8  2  2  0  0  0
  2  1  1  0  0  0
  5  4  1  0  0  0
  1  4  2  0  0  0
  1  7  1  0  0  0
  4 26  1  0  0  0
 36 35  2  0  0  0
 36 37  1  0  0  0
 35 34  1  0  0  0
 37 32  2  0  0  0
 27 26  1  0  0  0
 27 30  1  0  0  0
 26 28  2  0  0  0
 34 33  2  0  0  0
 30 31  1  0  0  0
 32 33  1  0  0  0
 32 31  1  0  0  0
 27 29  1  0  0  0
  6  9  1  0  0  0
  7 10  1  0  0  0
M  END
> <minimizedAffinity>
-7.98332

$$$$
5WE9_GY7_A_303


 37 40  0  0  0  0  0  0  0  0999 V2000
   -9.2663   79.1242   18.0657 C   0  0  0  0  0  0  0  0  0  0  0  0
   -8.9051   79.0097   19.4084 C   0  0  0  0  0  0  0  0  0  0  0  0
  -10.0431   81.0694   19.7878 C   0  0  0  0  0  0  0  0  0  0  0  0
  -10.0043   80.1960   17.6500 C   0  0  0  0  0  0  0  0  0  0  0  0
  -10.3792   81.1661   18.5016 N   0  0  0  0  0  0  0  0  0  0  0  0
   -9.3124   80.0226   20.2491 N   0  0  0  0  0  0  0  0  0  0  0  0
   -8.8369   78.1293   17.2740 O   0  0  0  0  0  0  0  0  0  0  0  0
   -8.2493   78.0574   19.8658 O   0  0  0  0  0  0  0  0  0  0  0  0
   -9.0687   79.9864   21.2023 H   0  0  0  0  0  0  0  0  0  0  0  0
   -8.3337   77.4266   17.6359 H   0  0  0  0  0  0  0  0  0  0  0  0
  -11.9957   82.4240   20.7643 C   0  0  0  0  0  0  0  0  0  0  0  0
  -12.1858   83.3811   19.5993 C   0  0  0  0  0  0  0  0  0  0  0  0
  -11.0629   84.3682   19.8257 C   0  0  0  0  0  0  0  0  0  0  0  0
   -8.6954   83.9299   20.3878 C   0  0  0  0  0  0  0  0  0  0  0  0
  -10.4805   82.1788   20.7187 C   0  0  0  0  0  0  0  0  0  0  0  0
   -9.9715   83.5143   20.3284 N   0  0  0  0  0  0  0  0  0  0  0  0
   -8.4128   85.1235   20.4080 O   0  0  0  0  0  0  0  0  0  0  0  0
   -7.0742   82.4533   19.1304 C   0  0  0  0  0  0  0  0  0  0  0  0
   -7.6125   82.8923   20.3308 C   0  0  0  0  0  0  0  0  0  0  0  0
   -7.0850   82.3345   21.4853 C   0  0  0  0  0  0  0  0  0  0  0  0
   -6.1013   81.3748   21.4639 C   0  0  0  0  0  0  0  0  0  0  0  0
   -5.6175   80.9612   20.2442 C   0  0  0  0  0  0  0  0  0  0  0  0
   -6.0945   81.4914   19.0636 C   0  0  0  0  0  0  0  0  0  0  0  0
   -7.5324   82.9674   17.9671 F   0  0  0  0  0  0  0  0  0  0  0  0
   -7.5663   82.7260   22.6866 F   0  0  0  0  0  0  0  0  0  0  0  0
  -10.4429   80.3873   16.2222 C   0  0  0  0  0  0  0  0  0  0  0  0
  -11.5010   81.1920   16.0837 N   0  0  0  0  0  0  0  0  0  0  0  0
   -9.8593   79.8333   15.2850 O   0  0  0  0  0  0  0  0  0  0  0  0
  -12.0099   81.4445   16.8878 H   0  0  0  0  0  0  0  0  0  0  0  0
  -11.9336   81.7121   14.7904 C   0  0  0  0  0  0  0  0  0  0  0  0
  -11.8620   83.2203   14.7231 C   0  0  0  0  0  0  0  0  0  0  0  0
  -13.1013   83.9020   15.2587 C   0  0  0  0  0  0  0  0  0  0  0  0
  -14.3478   83.6467   14.7036 C   0  0  0  0  0  0  0  0  0  0  0  0
  -15.4841   84.2734   15.1892 C   0  0  0  0  0  0  0  0  0  0  0  0
  -15.3893   85.1603   16.2365 C   0  0  0  0  0  0  0  0  0  0  0  0
  -14.1627   85.4249   16.7980 C   0  0  0  0  0  0  0  0  0  0  0  0
  -13.0238   84.7993   16.3131 C   0  0  0  0  0  0  0  0  0  0  0  0
 25 20  1  0  0  0
 21 20  2  0  0  0
 21 22  1  0  0  0
 20 19  1  0  0  0
 22 23  2  0  0  0
 17 14  2  0  0  0
 19 14  1  0  0  0
 19 18  2  0  0  0
 14 16  1  0  0  0
 23 18  1  0  0  0
 18 24  1  0  0  0
 16 15  1  0  0  0
 16 13  1  0  0  0
 15 11  1  0  0  0
 15  3  1  0  0  0
 13 12  1  0  0  0
  6  3  1  0  0  0
  6  2  1  0  0  0
 11 12  1  0  0  0
  3  5  2  0  0  0
  8  2  2  0  0  0
  2  1  1  0  0  0
  5  4  1  0  0  0
  1  4  2  0  0  0
  1  7  1  0  0  0
  4 26  1  0  0  0
 36 35  2  0  0  0
 36 37  1  0  0  0
 35 34  1  0  0  0
 37 32  2  0  0  0
 27 26  1  0  0  0
 27 30  1  0  0  0
 26 28  2  0  0  0
 34 33  2  0  0  0
 30 31  1  0  0  0
 32 33  1  0  0  0
 32 31  1  0  0  0
 27 29  1  0  0  0
  6  9  1  0  0  0
  7 10  1  0  0  0
M  END
> <minimizedAffinity>
-7.98271

$$$$
5WE9_GY7_A_303


 37 40  0  0  0  0  0  0  0  0999 V2000
   -9.4408   83.7918   17.0324 C   0  0  0  0  0  0  0  0  0  0  0  0
   -9.6442   85.1453   17.3032 C   0  0  0  0  0  0  0  0  0  0  0  0
  -11.9392   84.6237   17.6797 C   0  0  0  0  0  0  0  0  0  0  0  0
  -10.4894   82.9194   17.1072 C   0  0  0  0  0  0  0  0  0  0  0  0
  -11.7301   83.3338   17.4166 N   0  0  0  0  0  0  0  0  0  0  0  0
  -10.9292   85.5285   17.6202 N   0  0  0  0  0  0  0  0  0  0  0  0
   -8.1815   83.4589   16.7098 O   0  0  0  0  0  0  0  0  0  0  0  0
   -8.7387   85.9969   17.2718 O   0  0  0  0  0  0  0  0  0  0  0  0
  -11.1183   86.4764   17.8072 H   0  0  0  0  0  0  0  0  0  0  0  0
   -7.5158   84.1176   16.6800 H   0  0  0  0  0  0  0  0  0  0  0  0
  -13.9771   86.0504   17.0372 C   0  0  0  0  0  0  0  0  0  0  0  0
  -13.4791   87.3788   17.5822 C   0  0  0  0  0  0  0  0  0  0  0  0
  -13.7438   87.2227   19.0627 C   0  0  0  0  0  0  0  0  0  0  0  0
  -13.2679   85.2931   20.5337 C   0  0  0  0  0  0  0  0  0  0  0  0
  -13.3475   85.0562   18.0237 C   0  0  0  0  0  0  0  0  0  0  0  0
  -13.4430   85.7994   19.3017 N   0  0  0  0  0  0  0  0  0  0  0  0
  -13.7183   85.8569   21.5258 O   0  0  0  0  0  0  0  0  0  0  0  0
  -11.0410   84.1309   20.8159 C   0  0  0  0  0  0  0  0  0  0  0  0
  -12.4192   84.0636   20.6766 C   0  0  0  0  0  0  0  0  0  0  0  0
  -12.9808   82.7961   20.6937 C   0  0  0  0  0  0  0  0  0  0  0  0
  -12.2283   81.6520   20.8119 C   0  0  0  0  0  0  0  0  0  0  0  0
  -10.8630   81.7762   20.9268 C   0  0  0  0  0  0  0  0  0  0  0  0
  -10.2506   83.0121   20.9302 C   0  0  0  0  0  0  0  0  0  0  0  0
  -10.4302   85.3369   20.8228 F   0  0  0  0  0  0  0  0  0  0  0  0
  -14.3206   82.6664   20.5665 F   0  0  0  0  0  0  0  0  0  0  0  0
  -10.3509   81.4438   16.8405 C   0  0  0  0  0  0  0  0  0  0  0  0
   -9.4688   80.8301   17.6353 N   0  0  0  0  0  0  0  0  0  0  0  0
  -11.0045   80.8806   15.9566 O   0  0  0  0  0  0  0  0  0  0  0  0
   -8.8664   81.3812   18.1855 H   0  0  0  0  0  0  0  0  0  0  0  0
   -9.3613   79.3771   17.7218 C   0  0  0  0  0  0  0  0  0  0  0  0
   -9.4173   78.8793   19.1478 C   0  0  0  0  0  0  0  0  0  0  0  0
   -8.0659   78.8565   19.8264 C   0  0  0  0  0  0  0  0  0  0  0  0
   -7.6368   79.9333   20.5900 C   0  0  0  0  0  0  0  0  0  0  0  0
   -6.3973   79.9171   21.2089 C   0  0  0  0  0  0  0  0  0  0  0  0
   -5.5728   78.8240   21.0746 C   0  0  0  0  0  0  0  0  0  0  0  0
   -5.9819   77.7489   20.3219 C   0  0  0  0  0  0  0  0  0  0  0  0
   -7.2220   77.7633   19.7010 C   0  0  0  0  0  0  0  0  0  0  0  0
 25 20  1  0  0  0
 21 20  2  0  0  0
 21 22  1  0  0  0
 20 19  1  0  0  0
 22 23  2  0  0  0
 17 14  2  0  0  0
 19 14  1  0  0  0
 19 18  2  0  0  0
 14 16  1  0  0  0
 23 18  1  0  0  0
 18 24  1  0  0  0
 16 15  1  0  0  0
 16 13  1  0  0  0
 15 11  1  0  0  0
 15  3  1  0  0  0
 13 12  1  0  0  0
  6  3  1  0  0  0
  6  2  1  0  0  0
 11 12  1  0  0  0
  3  5  2  0  0  0
  8  2  2  0  0  0
  2  1  1  0  0  0
  5  4  1  0  0  0
  1  4  2  0  0  0
  1  7  1  0  0  0
  4 26  1  0  0  0
 36 35  2  0  0  0
 36 37  1  0  0  0
 35 34  1  0  0  0
 37 32  2  0  0  0
 27 26  1  0  0  0
 27 30  1  0  0  0
 26 28  2  0  0  0
 34 33  2  0  0  0
 30 31  1  0  0  0
 32 33  1  0  0  0
 32 31  1  0  0  0
 27 29  1  0  0  0
  6  9  1  0  0  0
  7 10  1  0  0  0
M  END
> <minimizedAffinity>
-7.84457

$$$$
5WE9_GY7_A_303


 37 40  0  0  0  0  0  0  0  0999 V2000
  -11.4243   82.0092   13.5334 C   0  0  0  0  0  0  0  0  0  0  0  0
  -10.1031   82.1596   13.1111 C   0  0  0  0  0  0  0  0  0  0  0  0
  -10.2150   84.4102   13.8878 C   0  0  0  0  0  0  0  0  0  0  0  0
  -12.0734   83.0585   14.1197 C   0  0  0  0  0  0  0  0  0  0  0  0
  -11.4776   84.2521   14.2846 N   0  0  0  0  0  0  0  0  0  0  0  0
   -9.5277   83.3969   13.3019 N   0  0  0  0  0  0  0  0  0  0  0  0
  -11.9572   80.7971   13.3148 O   0  0  0  0  0  0  0  0  0  0  0  0
   -9.4410   81.2482   12.5846 O   0  0  0  0  0  0  0  0  0  0  0  0
   -8.6005   83.5489   13.0078 H   0  0  0  0  0  0  0  0  0  0  0  0
  -11.4454   80.1272   12.9058 H   0  0  0  0  0  0  0  0  0  0  0  0
   -9.1801   86.4914   12.7931 C   0  0  0  0  0  0  0  0  0  0  0  0
   -7.7955   85.9212   12.5335 C   0  0  0  0  0  0  0  0  0  0  0  0
   -7.1603   86.0204   13.9021 C   0  0  0  0  0  0  0  0  0  0  0  0
   -8.1025   85.4041   16.1034 C   0  0  0  0  0  0  0  0  0  0  0  0
   -9.5751   85.7664   14.0877 C   0  0  0  0  0  0  0  0  0  0  0  0
   -8.2815   85.7103   14.8077 N   0  0  0  0  0  0  0  0  0  0  0  0
   -7.0846   85.7346   16.7031 O   0  0  0  0  0  0  0  0  0  0  0  0
   -9.0831   83.1725   16.7728 C   0  0  0  0  0  0  0  0  0  0  0  0
   -9.1425   84.5582   16.7781 C   0  0  0  0  0  0  0  0  0  0  0  0
  -10.2082   85.1283   17.4574 C   0  0  0  0  0  0  0  0  0  0  0  0
  -11.1814   84.3795   18.0750 C   0  0  0  0  0  0  0  0  0  0  0  0
  -11.0839   83.0083   18.0213 C   0  0  0  0  0  0  0  0  0  0  0  0
  -10.0381   82.3860   17.3719 C   0  0  0  0  0  0  0  0  0  0  0  0
   -8.0616   82.5518   16.1414 F   0  0  0  0  0  0  0  0  0  0  0  0
  -10.3176   86.4753   17.5015 F   0  0  0  0  0  0  0  0  0  0  0  0
  -13.4941   82.9742   14.6116 C   0  0  0  0  0  0  0  0  0  0  0  0
  -13.9085   84.0669   15.2602 N   0  0  0  0  0  0  0  0  0  0  0  0
  -14.1878   81.9701   14.4209 O   0  0  0  0  0  0  0  0  0  0  0  0
  -13.2411   84.7417   15.5218 H   0  0  0  0  0  0  0  0  0  0  0  0
  -15.3092   84.3017   15.5969 C   0  0  0  0  0  0  0  0  0  0  0  0
  -15.5658   85.7258   16.0333 C   0  0  0  0  0  0  0  0  0  0  0  0
  -14.7765   86.1266   17.2596 C   0  0  0  0  0  0  0  0  0  0  0  0
  -14.8581   85.3846   18.4299 C   0  0  0  0  0  0  0  0  0  0  0  0
  -14.1399   85.7521   19.5563 C   0  0  0  0  0  0  0  0  0  0  0  0
  -13.3296   86.8635   19.5263 C   0  0  0  0  0  0  0  0  0  0  0  0
  -13.2372   87.6099   18.3756 C   0  0  0  0  0  0  0  0  0  0  0  0
  -13.9558   87.2442   17.2471 C   0  0  0  0  0  0  0  0  0  0  0  0
 25 20  1  0  0  0
 21 20  2  0  0  0
 21 22  1  0  0  0
 20 19  1  0  0  0
 22 23  2  0  0  0
 17 14  2  0  0  0
 19 14  1  0  0  0
 19 18  2  0  0  0
 14 16  1  0  0  0
 23 18  1  0  0  0
 18 24  1  0  0  0
 16 15  1  0  0  0
 16 13  1  0  0  0
 15 11  1  0  0  0
 15  3  1  0  0  0
 13 12  1  0  0  0
  6  3  1  0  0  0
  6  2  1  0  0  0
 11 12  1  0  0  0
  3  5  2  0  0  0
  8  2  2  0  0  0
  2  1  1  0  0  0
  5  4  1  0  0  0
  1  4  2  0  0  0
  1  7  1  0  0  0
  4 26  1  0  0  0
 36 35  2  0  0  0
 36 37  1  0  0  0
 35 34  1  0  0  0
 37 32  2  0  0  0
 27 26  1  0  0  0
 27 30  1  0  0  0
 26 28  2  0  0  0
 34 33  2  0  0  0
 30 31  1  0  0  0
 32 33  1  0  0  0
 32 31  1  0  0  0
 27 29  1  0  0  0
  6  9  1  0  0  0
  7 10  1  0  0  0
M  END
> <minimizedAffinity>
-7.83344

$$$$
5WE9_GY7_A_303


 37 40  0  0  0  0  0  0  0  0999 V2000
  -10.1622   78.9051   16.1968 C   0  0  0  0  0  0  0  0  0  0  0  0
   -9.8328   77.9862   15.2000 C   0  0  0  0  0  0  0  0  0  0  0  0
   -9.6990   79.8239   13.6880 C   0  0  0  0  0  0  0  0  0  0  0  0
  -10.2347   80.2358   15.8965 C   0  0  0  0  0  0  0  0  0  0  0  0
  -10.0166   80.6898   14.6503 N   0  0  0  0  0  0  0  0  0  0  0  0
   -9.6129   78.4924   13.9375 N   0  0  0  0  0  0  0  0  0  0  0  0
  -10.3871   78.3741   17.4085 O   0  0  0  0  0  0  0  0  0  0  0  0
   -9.7316   76.7628   15.3982 O   0  0  0  0  0  0  0  0  0  0  0  0
   -9.3892   77.8768   13.2025 H   0  0  0  0  0  0  0  0  0  0  0  0
  -10.3174   77.4483   17.5346 H   0  0  0  0  0  0  0  0  0  0  0  0
  -10.5184   79.9699   11.2572 C   0  0  0  0  0  0  0  0  0  0  0  0
   -9.9875   78.6285   10.7795 C   0  0  0  0  0  0  0  0  0  0  0  0
   -8.5226   78.9359   10.5652 C   0  0  0  0  0  0  0  0  0  0  0  0
   -6.9602   80.1681   12.0329 C   0  0  0  0  0  0  0  0  0  0  0  0
   -9.4608   80.3684   12.2967 C   0  0  0  0  0  0  0  0  0  0  0  0
   -8.2171   79.8644   11.6687 N   0  0  0  0  0  0  0  0  0  0  0  0
   -6.0184   80.0217   11.2604 O   0  0  0  0  0  0  0  0  0  0  0  0
   -6.4359   79.6965   14.4603 C   0  0  0  0  0  0  0  0  0  0  0  0
   -6.7220   80.6022   13.4496 C   0  0  0  0  0  0  0  0  0  0  0  0
   -6.7599   81.9400   13.8114 C   0  0  0  0  0  0  0  0  0  0  0  0
   -6.5569   82.3664   15.1022 C   0  0  0  0  0  0  0  0  0  0  0  0
   -6.2967   81.4230   16.0692 C   0  0  0  0  0  0  0  0  0  0  0  0
   -6.2328   80.0792   15.7649 C   0  0  0  0  0  0  0  0  0  0  0  0
   -6.3686   78.3772   14.1733 F   0  0  0  0  0  0  0  0  0  0  0  0
   -7.0295   82.8709   12.8685 F   0  0  0  0  0  0  0  0  0  0  0  0
  -10.5732   81.2908   16.9164 C   0  0  0  0  0  0  0  0  0  0  0  0
  -10.0111   81.0886   18.1120 N   0  0  0  0  0  0  0  0  0  0  0  0
  -11.3104   82.2436   16.6434 O   0  0  0  0  0  0  0  0  0  0  0  0
   -9.5885   80.2180   18.2933 H   0  0  0  0  0  0  0  0  0  0  0  0
   -9.9975   82.1043   19.1601 C   0  0  0  0  0  0  0  0  0  0  0  0
  -10.6239   81.6140   20.4452 C   0  0  0  0  0  0  0  0  0  0  0  0
  -12.0168   82.1562   20.6760 C   0  0  0  0  0  0  0  0  0  0  0  0
  -12.3130   83.4868   20.4140 C   0  0  0  0  0  0  0  0  0  0  0  0
  -13.5870   83.9873   20.6290 C   0  0  0  0  0  0  0  0  0  0  0  0
  -14.5808   83.1641   21.1056 C   0  0  0  0  0  0  0  0  0  0  0  0
  -14.3049   81.8438   21.3705 C   0  0  0  0  0  0  0  0  0  0  0  0
  -13.0302   81.3408   21.1567 C   0  0  0  0  0  0  0  0  0  0  0  0
 25 20  1  0  0  0
 21 20  2  0  0  0
 21 22  1  0  0  0
 20 19  1  0  0  0
 22 23  2  0  0  0
 17 14  2  0  0  0
 19 14  1  0  0  0
 19 18  2  0  0  0
 14 16  1  0  0  0
 23 18  1  0  0  0
 18 24  1  0  0  0
 16 15  1  0  0  0
 16 13  1  0  0  0
 15 11  1  0  0  0
 15  3  1  0  0  0
 13 12  1  0  0  0
  6  3  1  0  0  0
  6  2  1  0  0  0
 11 12  1  0  0  0
  3  5  2  0  0  0
  8  2  2  0  0  0
  2  1  1  0  0  0
  5  4  1  0  0  0
  1  4  2  0  0  0
  1  7  1  0  0  0
  4 26  1  0  0  0
 36 35  2  0  0  0
 36 37  1  0  0  0
 35 34  1  0  0  0
 37 32  2  0  0  0
 27 26  1  0  0  0
 27 30  1  0  0  0
 26 28  2  0  0  0
 34 33  2  0  0  0
 30 31  1  0  0  0
 32 33  1  0  0  0
 32 31  1  0  0  0
 27 29  1  0  0  0
  6  9  1  0  0  0
  7 10  1  0  0  0
M  END
> <minimizedAffinity>
-7.77152

$$$$
5WE9_GY7_A_303


 37 40  0  0  0  0  0  0  0  0999 V2000
   -9.2485   79.0880   18.3109 C   0  0  0  0  0  0  0  0  0  0  0  0
   -8.9399   79.0477   19.6709 C   0  0  0  0  0  0  0  0  0  0  0  0
  -10.0324   81.1557   19.8802 C   0  0  0  0  0  0  0  0  0  0  0  0
   -9.9402   80.1507   17.8027 C   0  0  0  0  0  0  0  0  0  0  0  0
  -10.3185   81.1811   18.5786 N   0  0  0  0  0  0  0  0  0  0  0  0
   -9.3489   80.1210   20.4320 N   0  0  0  0  0  0  0  0  0  0  0  0
   -8.8186   78.0352   17.5983 O   0  0  0  0  0  0  0  0  0  0  0  0
   -8.3284   78.1089   20.2102 O   0  0  0  0  0  0  0  0  0  0  0  0
   -9.1414   80.1377   21.3943 H   0  0  0  0  0  0  0  0  0  0  0  0
   -8.3490   77.3435   18.0213 H   0  0  0  0  0  0  0  0  0  0  0  0
  -11.9870   82.5826   20.7434 C   0  0  0  0  0  0  0  0  0  0  0  0
  -12.1686   83.4516   19.5100 C   0  0  0  0  0  0  0  0  0  0  0  0
  -11.0445   84.4504   19.6690 C   0  0  0  0  0  0  0  0  0  0  0  0
   -8.6811   84.0500   20.2749 C   0  0  0  0  0  0  0  0  0  0  0  0
  -10.4722   82.3317   20.7243 C   0  0  0  0  0  0  0  0  0  0  0  0
   -9.9578   83.6337   20.2393 N   0  0  0  0  0  0  0  0  0  0  0  0
   -8.3957   85.2413   20.2085 O   0  0  0  0  0  0  0  0  0  0  0  0
   -7.0560   82.4823   19.1388 C   0  0  0  0  0  0  0  0  0  0  0  0
   -7.6004   83.0089   20.3006 C   0  0  0  0  0  0  0  0  0  0  0  0
   -7.0813   82.5358   21.4959 C   0  0  0  0  0  0  0  0  0  0  0  0
   -6.0997   81.5751   21.5508 C   0  0  0  0  0  0  0  0  0  0  0  0
   -5.6097   81.0726   20.3675 C   0  0  0  0  0  0  0  0  0  0  0  0
   -6.0783   81.5160   19.1484 C   0  0  0  0  0  0  0  0  0  0  0  0
   -7.5059   82.9109   17.9382 F   0  0  0  0  0  0  0  0  0  0  0  0
   -7.5688   83.0150   22.6624 F   0  0  0  0  0  0  0  0  0  0  0  0
  -10.3208   80.2644   16.3502 C   0  0  0  0  0  0  0  0  0  0  0  0
  -11.4158   80.9994   16.1330 N   0  0  0  0  0  0  0  0  0  0  0  0
   -9.6624   79.7129   15.4624 O   0  0  0  0  0  0  0  0  0  0  0  0
  -11.9760   81.2499   16.9028 H   0  0  0  0  0  0  0  0  0  0  0  0
  -11.8156   81.4463   14.8023 C   0  0  0  0  0  0  0  0  0  0  0  0
  -12.5201   82.7832   14.8313 C   0  0  0  0  0  0  0  0  0  0  0  0
  -11.5696   83.9595   14.8444 C   0  0  0  0  0  0  0  0  0  0  0  0
  -11.4497   84.7626   15.9703 C   0  0  0  0  0  0  0  0  0  0  0  0
  -10.5833   85.8438   15.9834 C   0  0  0  0  0  0  0  0  0  0  0  0
   -9.8244   86.1339   14.8732 C   0  0  0  0  0  0  0  0  0  0  0  0
   -9.9307   85.3491   13.7497 C   0  0  0  0  0  0  0  0  0  0  0  0
  -10.7979   84.2667   13.7340 C   0  0  0  0  0  0  0  0  0  0  0  0
 25 20  1  0  0  0
 21 20  2  0  0  0
 21 22  1  0  0  0
 20 19  1  0  0  0
 22 23  2  0  0  0
 17 14  2  0  0  0
 19 14  1  0  0  0
 19 18  2  0  0  0
 14 16  1  0  0  0
 23 18  1  0  0  0
 18 24  1  0  0  0
 16 15  1  0  0  0
 16 13  1  0  0  0
 15 11  1  0  0  0
 15  3  1  0  0  0
 13 12  1  0  0  0
  6  3  1  0  0  0
  6  2  1  0  0  0
 11 12  1  0  0  0
  3  5  2  0  0  0
  8  2  2  0  0  0
  2  1  1  0  0  0
  5  4  1  0  0  0
  1  4  2  0  0  0
  1  7  1  0  0  0
  4 26  1  0  0  0
 36 35  2  0  0  0
 36 37  1  0  0  0
 35 34  1  0  0  0
 37 32  2  0  0  0
 27 26  1  0  0  0
 27 30  1  0  0  0
 26 28  2  0  0  0
 34 33  2  0  0  0
 30 31  1  0  0  0
 32 33  1  0  0  0
 32 31  1  0  0  0
 27 29  1  0  0  0
  6  9  1  0  0  0
  7 10  1  0  0  0
M  END
> <minimizedAffinity>
-7.66834

$$$$
5WE9_GY7_A_303


 37 40  0  0  0  0  0  0  0  0999 V2000
  -12.5502   81.5828   14.2450 C   0  0  0  0  0  0  0  0  0  0  0  0
  -13.0660   82.6063   15.0405 C   0  0  0  0  0  0  0  0  0  0  0  0
  -11.1982   82.2893   16.4868 C   0  0  0  0  0  0  0  0  0  0  0  0
  -11.3824   80.9695   14.6003 C   0  0  0  0  0  0  0  0  0  0  0  0
  -10.7185   81.3119   15.7179 N   0  0  0  0  0  0  0  0  0  0  0  0
  -12.3535   82.9297   16.1747 N   0  0  0  0  0  0  0  0  0  0  0  0
  -13.2800   81.2830   13.1595 O   0  0  0  0  0  0  0  0  0  0  0  0
  -14.1131   83.2225   14.7756 O   0  0  0  0  0  0  0  0  0  0  0  0
  -12.6888   83.6386   16.7699 H   0  0  0  0  0  0  0  0  0  0  0  0
  -14.0725   81.7510   12.9838 H   0  0  0  0  0  0  0  0  0  0  0  0
  -11.1764   82.3976   19.0537 C   0  0  0  0  0  0  0  0  0  0  0  0
  -11.9577   83.6914   19.2123 C   0  0  0  0  0  0  0  0  0  0  0  0
  -10.8993   84.7288   18.9124 C   0  0  0  0  0  0  0  0  0  0  0  0
   -9.2422   84.7760   17.0779 C   0  0  0  0  0  0  0  0  0  0  0  0
  -10.4266   82.6488   17.7375 C   0  0  0  0  0  0  0  0  0  0  0  0
  -10.1093   84.0921   17.8429 N   0  0  0  0  0  0  0  0  0  0  0  0
   -8.7642   85.8423   17.4514 O   0  0  0  0  0  0  0  0  0  0  0  0
   -7.8949   83.3759   15.4611 C   0  0  0  0  0  0  0  0  0  0  0  0
   -8.9452   84.2483   15.7047 C   0  0  0  0  0  0  0  0  0  0  0  0
   -9.7241   84.5979   14.6123 C   0  0  0  0  0  0  0  0  0  0  0  0
   -9.4697   84.1396   13.3417 C   0  0  0  0  0  0  0  0  0  0  0  0
   -8.4024   83.2920   13.1537 C   0  0  0  0  0  0  0  0  0  0  0  0
   -7.6016   82.8989   14.2057 C   0  0  0  0  0  0  0  0  0  0  0  0
   -7.1048   82.9821   16.4849 F   0  0  0  0  0  0  0  0  0  0  0  0
  -10.7656   85.4420   14.7879 F   0  0  0  0  0  0  0  0  0  0  0  0
  -10.7550   79.8654   13.7911 C   0  0  0  0  0  0  0  0  0  0  0  0
  -10.8677   80.0312   12.4696 N   0  0  0  0  0  0  0  0  0  0  0  0
  -10.1971   78.9037   14.3292 O   0  0  0  0  0  0  0  0  0  0  0  0
  -11.4780   80.7259   12.1317 H   0  0  0  0  0  0  0  0  0  0  0  0
  -10.1237   79.2254   11.5065 C   0  0  0  0  0  0  0  0  0  0  0  0
   -9.6505   80.0355   10.3215 C   0  0  0  0  0  0  0  0  0  0  0  0
   -8.2799   80.6428   10.5216 C   0  0  0  0  0  0  0  0  0  0  0  0
   -7.8926   81.7704    9.8107 C   0  0  0  0  0  0  0  0  0  0  0  0
   -6.6359   82.3260    9.9885 C   0  0  0  0  0  0  0  0  0  0  0  0
   -5.7522   81.7636   10.8805 C   0  0  0  0  0  0  0  0  0  0  0  0
   -6.1193   80.6467   11.5927 C   0  0  0  0  0  0  0  0  0  0  0  0
   -7.3766   80.0884   11.4158 C   0  0  0  0  0  0  0  0  0  0  0  0
 25 20  1  0  0  0
 21 20  2  0  0  0
 21 22  1  0  0  0
 20 19  1  0  0  0
 22 23  2  0  0  0
 17 14  2  0  0  0
 19 14  1  0  0  0
 19 18  2  0  0  0
 14 16  1  0  0  0
 23 18  1  0  0  0
 18 24  1  0  0  0
 16 15  1  0  0  0
 16 13  1  0  0  0
 15 11  1  0  0  0
 15  3  1  0  0  0
 13 12  1  0  0  0
  6  3  1  0  0  0
  6  2  1  0  0  0
 11 12  1  0  0  0
  3  5  2  0  0  0
  8  2  2  0  0  0
  2  1  1  0  0  0
  5  4  1  0  0  0
  1  4  2  0  0  0
  1  7  1  0  0  0
  4 26  1  0  0  0
 36 35  2  0  0  0
 36 37  1  0  0  0
 35 34  1  0  0  0
 37 32  2  0  0  0
 27 26  1  0  0  0
 27 30  1  0  0  0
 26 28  2  0  0  0
 34 33  2  0  0  0
 30 31  1  0  0  0
 32 33  1  0  0  0
 32 31  1  0  0  0
 27 29  1  0  0  0
  6  9  1  0  0  0
  7 10  1  0  0  0
M  END
> <minimizedAffinity>
-7.63909

$$$$
5WE9_GY7_A_303


 37 40  0  0  0  0  0  0  0  0999 V2000
   -9.4001   79.3090   18.2822 C   0  0  0  0  0  0  0  0  0  0  0  0
   -8.4639   79.2446   19.3146 C   0  0  0  0  0  0  0  0  0  0  0  0
   -7.8663   81.4891   18.7796 C   0  0  0  0  0  0  0  0  0  0  0  0
   -9.5323   80.4586   17.5561 C   0  0  0  0  0  0  0  0  0  0  0  0
   -8.7638   81.5352   17.7952 N   0  0  0  0  0  0  0  0  0  0  0  0
   -7.6991   80.3704   19.5299 N   0  0  0  0  0  0  0  0  0  0  0  0
  -10.1133   78.1886   18.0900 O   0  0  0  0  0  0  0  0  0  0  0  0
   -8.2958   78.2412   20.0294 O   0  0  0  0  0  0  0  0  0  0  0  0
   -7.0186   80.3632   20.2413 H   0  0  0  0  0  0  0  0  0  0  0  0
   -9.9632   77.4390   18.6317 H   0  0  0  0  0  0  0  0  0  0  0  0
   -5.5199   82.5350   18.7353 C   0  0  0  0  0  0  0  0  0  0  0  0
   -5.0215   81.9798   20.0592 C   0  0  0  0  0  0  0  0  0  0  0  0
   -5.6864   82.9069   21.0515 C   0  0  0  0  0  0  0  0  0  0  0  0
   -8.0277   83.6992   21.1138 C   0  0  0  0  0  0  0  0  0  0  0  0
   -7.0175   82.7179   19.0211 C   0  0  0  0  0  0  0  0  0  0  0  0
   -7.0020   83.1580   20.4357 N   0  0  0  0  0  0  0  0  0  0  0  0
   -7.8428   84.3645   22.1278 O   0  0  0  0  0  0  0  0  0  0  0  0
  -10.1036   82.2573   21.0782 C   0  0  0  0  0  0  0  0  0  0  0  0
   -9.4212   83.3870   20.6520 C   0  0  0  0  0  0  0  0  0  0  0  0
  -10.1009   84.2295   19.7858 C   0  0  0  0  0  0  0  0  0  0  0  0
  -11.3728   83.9641   19.3372 C   0  0  0  0  0  0  0  0  0  0  0  0
  -11.9954   82.8186   19.7763 C   0  0  0  0  0  0  0  0  0  0  0  0
  -11.3732   81.9509   20.6495 C   0  0  0  0  0  0  0  0  0  0  0  0
   -9.5046   81.4009   21.9356 F   0  0  0  0  0  0  0  0  0  0  0  0
   -9.4891   85.3494   19.3391 F   0  0  0  0  0  0  0  0  0  0  0  0
  -10.5251   80.6120   16.4344 C   0  0  0  0  0  0  0  0  0  0  0  0
  -11.2170   81.7548   16.4758 N   0  0  0  0  0  0  0  0  0  0  0  0
  -10.6671   79.7406   15.5706 O   0  0  0  0  0  0  0  0  0  0  0  0
  -11.1695   82.3057   17.2904 H   0  0  0  0  0  0  0  0  0  0  0  0
  -12.0401   82.2203   15.3640 C   0  0  0  0  0  0  0  0  0  0  0  0
  -11.5589   83.5390   14.8039 C   0  0  0  0  0  0  0  0  0  0  0  0
  -11.8680   84.7175   15.6999 C   0  0  0  0  0  0  0  0  0  0  0  0
  -13.1364   84.8864   16.2382 C   0  0  0  0  0  0  0  0  0  0  0  0
  -13.4237   85.9676   17.0556 C   0  0  0  0  0  0  0  0  0  0  0  0
  -12.4469   86.8915   17.3471 C   0  0  0  0  0  0  0  0  0  0  0  0
  -11.1854   86.7397   16.8225 C   0  0  0  0  0  0  0  0  0  0  0  0
  -10.8958   85.6585   16.0035 C   0  0  0  0  0  0  0  0  0  0  0  0
 25 20  1  0  0  0
 21 20  2  0  0  0
 21 22  1  0  0  0
 20 19  1  0  0  0
 22 23  2  0  0  0
 17 14  2  0  0  0
 19 14  1  0  0  0
 19 18  2  0  0  0
 14 16  1  0  0  0
 23 18  1  0  0  0
 18 24  1  0  0  0
 16 15  1  0  0  0
 16 13  1  0  0  0
 15 11  1  0  0  0
 15  3  1  0  0  0
 13 12  1  0  0  0
  6  3  1  0  0  0
  6  2  1  0  0  0
 11 12  1  0  0  0
  3  5  2  0  0  0
  8  2  2  0  0  0
  2  1  1  0  0  0
  5  4  1  0  0  0
  1  4  2  0  0  0
  1  7  1  0  0  0
  4 26  1  0  0  0
 36 35  2  0  0  0
 36 37  1  0  0  0
 35 34  1  0  0  0
 37 32  2  0  0  0
 27 26  1  0  0  0
 27 30  1  0  0  0
 26 28  2  0  0  0
 34 33  2  0  0  0
 30 31  1  0  0  0
 32 33  1  0  0  0
 32 31  1  0  0  0
 27 29  1  0  0  0
  6  9  1  0  0  0
  7 10  1  0  0  0
M  END
> <minimizedAffinity>
-7.57977

$$$$
