1TX7_4CM_A_247


 17 17  0  0  0  0  0  0  0  0999 V2000
   -1.5457   14.5434   50.7098 C   0  0  0  0  0  0  0  0  0  0  0  0
   -1.6444   13.1208   50.9209 C   0  0  0  0  0  0  0  0  0  0  0  0
   -1.1573   12.2264   49.9312 C   0  0  0  0  0  0  0  0  0  0  0  0
   -0.5694   12.7421   48.7166 C   0  0  0  0  0  0  0  0  0  0  0  0
   -0.4824   14.1893   48.5011 C   0  0  0  0  0  0  0  0  0  0  0  0
   -0.9669   15.0686   49.5067 C   0  0  0  0  0  0  0  0  0  0  0  0
   -1.5986   16.6651   51.8145 N   0  0  0  0  0  0  0  0  0  0  0  0
   -2.9216   15.0560   52.6450 N   0  0  0  0  0  0  0  0  0  0  0  0
   -2.0422   15.4617   51.7637 C   0  0  0  0  0  0  0  0  0  0  0  0
   -0.9373   16.9742   51.1539 H   0  0  0  0  0  0  0  0  0  0  0  0
   -1.9195   17.2789   52.5141 H   0  0  0  0  0  0  0  0  0  0  0  0
   -3.2645   14.1338   52.6096 H   0  0  0  0  0  0  0  0  0  0  0  0
   -0.1498   12.1445   46.0840 O   0  0  0  0  0  0  0  0  0  0  0  0
    1.5731   11.3108   47.6799 O   0  0  0  0  0  0  0  0  0  0  0  0
    0.0569   11.5483   47.4798 P   0  0  0  0  0  0  0  0  0  0  0  0
   -0.9020    9.9800   47.7178 C   0  0  0  0  0  0  0  0  0  0  0  0
    0.3674   12.9609   46.0012 H   0  0  0  0  0  0  0  0  0  0  0  0
  1  2  2  0  0  0
  1  6  1  0  0  0
  1  9  1  0  0  0
 13 15  1  0  0  0
  2  3  1  0  0  0
 14 15  2  0  0  0
  3  4  2  0  0  0
  7  9  1  0  0  0
  8  9  2  0  0  0
  4  5  1  0  0  0
  4 15  1  0  0  0
  5  6  2  0  0  0
 15 16  1  0  0  0
 13 17  1  0  0  0
  7 10  1  0  0  0
  7 11  1  0  0  0
  8 12  1  0  0  0
M  END
> <minimizedAffinity>
-6.85574

$$$$
1TX7_4CM_A_247


 17 17  0  0  0  0  0  0  0  0999 V2000
   -1.5784   14.5565   50.8498 C   0  0  0  0  0  0  0  0  0  0  0  0
   -1.7802   13.1400   51.0259 C   0  0  0  0  0  0  0  0  0  0  0  0
   -1.3129   12.2338   50.0374 C   0  0  0  0  0  0  0  0  0  0  0  0
   -0.6419   12.7316   48.8590 C   0  0  0  0  0  0  0  0  0  0  0  0
   -0.4500   14.1735   48.6786 C   0  0  0  0  0  0  0  0  0  0  0  0
   -0.9163   15.0642   49.6827 C   0  0  0  0  0  0  0  0  0  0  0  0
   -1.6554   16.7054   51.8992 N   0  0  0  0  0  0  0  0  0  0  0  0
   -2.8754   15.0743   52.8374 N   0  0  0  0  0  0  0  0  0  0  0  0
   -2.0562   15.4859   51.9027 C   0  0  0  0  0  0  0  0  0  0  0  0
   -1.0394   17.0191   51.1982 H   0  0  0  0  0  0  0  0  0  0  0  0
   -1.9641   17.3270   52.5975 H   0  0  0  0  0  0  0  0  0  0  0  0
   -3.1852   14.1398   52.8438 H   0  0  0  0  0  0  0  0  0  0  0  0
   -1.1346   10.4648   47.4157 O   0  0  0  0  0  0  0  0  0  0  0  0
    0.2091   12.2202   46.2652 O   0  0  0  0  0  0  0  0  0  0  0  0
   -0.0455   11.5220   47.6227 P   0  0  0  0  0  0  0  0  0  0  0  0
    1.5168   10.7909   48.3013 C   0  0  0  0  0  0  0  0  0  0  0  0
   -1.9322   10.8876   47.0608 H   0  0  0  0  0  0  0  0  0  0  0  0
  1  2  2  0  0  0
  1  6  1  0  0  0
  1  9  1  0  0  0
 13 15  1  0  0  0
  2  3  1  0  0  0
 14 15  2  0  0  0
  3  4  2  0  0  0
  7  9  1  0  0  0
  8  9  2  0  0  0
  4  5  1  0  0  0
  4 15  1  0  0  0
  5  6  2  0  0  0
 15 16  1  0  0  0
 13 17  1  0  0  0
  7 10  1  0  0  0
  7 11  1  0  0  0
  8 12  1  0  0  0
M  END
> <minimizedAffinity>
-6.84002

$$$$
1TX7_4CM_A_247


 17 17  0  0  0  0  0  0  0  0999 V2000
   -1.5331   14.4366   50.7234 C   0  0  0  0  0  0  0  0  0  0  0  0
   -0.9192   14.9403   49.5203 C   0  0  0  0  0  0  0  0  0  0  0  0
   -0.4400   14.0310   48.5403 C   0  0  0  0  0  0  0  0  0  0  0  0
   -0.5646   12.6075   48.7519 C   0  0  0  0  0  0  0  0  0  0  0  0
   -1.1786   12.1001   49.9824 C   0  0  0  0  0  0  0  0  0  0  0  0
   -1.6602   13.0253   50.9474 C   0  0  0  0  0  0  0  0  0  0  0  0
   -1.5976   16.6054   51.7321 N   0  0  0  0  0  0  0  0  0  0  0  0
   -2.9420   15.0389   52.6083 N   0  0  0  0  0  0  0  0  0  0  0  0
   -2.0451   15.4023   51.7264 C   0  0  0  0  0  0  0  0  0  0  0  0
   -0.9231   16.8828   51.0707 H   0  0  0  0  0  0  0  0  0  0  0  0
   -1.9288   17.2506   52.3978 H   0  0  0  0  0  0  0  0  0  0  0  0
   -3.2879   14.1172   52.6075 H   0  0  0  0  0  0  0  0  0  0  0  0
   -0.1910   12.1305   46.0879 O   0  0  0  0  0  0  0  0  0  0  0  0
    1.5781   11.2582   47.6110 O   0  0  0  0  0  0  0  0  0  0  0  0
    0.0545   11.4785   47.4521 P   0  0  0  0  0  0  0  0  0  0  0  0
   -0.8741    9.8856   47.6415 C   0  0  0  0  0  0  0  0  0  0  0  0
    0.3113   12.9583   46.0301 H   0  0  0  0  0  0  0  0  0  0  0  0
  1  2  2  0  0  0
  1  6  1  0  0  0
  1  9  1  0  0  0
 13 15  1  0  0  0
  2  3  1  0  0  0
 14 15  2  0  0  0
  3  4  2  0  0  0
  7  9  1  0  0  0
  8  9  2  0  0  0
  4  5  1  0  0  0
  4 15  1  0  0  0
  5  6  2  0  0  0
 15 16  1  0  0  0
 13 17  1  0  0  0
  7 10  1  0  0  0
  7 11  1  0  0  0
  8 12  1  0  0  0
M  END
> <minimizedAffinity>
-6.76808

$$$$
1TX7_4CM_A_247


 17 17  0  0  0  0  0  0  0  0999 V2000
   -1.0889   15.1440   50.4497 C   0  0  0  0  0  0  0  0  0  0  0  0
   -1.7166   13.9120   50.8572 C   0  0  0  0  0  0  0  0  0  0  0  0
   -1.7239   12.7996   49.9745 C   0  0  0  0  0  0  0  0  0  0  0  0
   -1.1077   12.9055   48.6722 C   0  0  0  0  0  0  0  0  0  0  0  0
   -0.4814   14.1641   48.2576 C   0  0  0  0  0  0  0  0  0  0  0  0
   -0.4760   15.2634   49.1579 C   0  0  0  0  0  0  0  0  0  0  0  0
   -2.0614   16.4593   52.1958 N   0  0  0  0  0  0  0  0  0  0  0  0
   -0.0700   17.1285   51.4111 N   0  0  0  0  0  0  0  0  0  0  0  0
   -1.0743   16.2886   51.3932 C   0  0  0  0  0  0  0  0  0  0  0  0
   -2.8186   15.8301   52.1856 H   0  0  0  0  0  0  0  0  0  0  0  0
   -2.0614   17.2194   52.8214 H   0  0  0  0  0  0  0  0  0  0  0  0
    0.6891   17.0013   50.7973 H   0  0  0  0  0  0  0  0  0  0  0  0
   -1.4114   11.9072   46.1473 O   0  0  0  0  0  0  0  0  0  0  0  0
    0.2482   10.7360   47.5911 O   0  0  0  0  0  0  0  0  0  0  0  0
   -1.1306   11.4390   47.5785 P   0  0  0  0  0  0  0  0  0  0  0  0
   -2.4589   10.3159   48.2187 C   0  0  0  0  0  0  0  0  0  0  0  0
   -0.6951   12.4906   45.8515 H   0  0  0  0  0  0  0  0  0  0  0  0
  1  2  2  0  0  0
  1  6  1  0  0  0
  1  9  1  0  0  0
 13 15  1  0  0  0
  2  3  1  0  0  0
 14 15  2  0  0  0
  3  4  2  0  0  0
  7  9  1  0  0  0
  8  9  2  0  0  0
  4  5  1  0  0  0
  4 15  1  0  0  0
  5  6  2  0  0  0
 15 16  1  0  0  0
 13 17  1  0  0  0
  7 10  1  0  0  0
  7 11  1  0  0  0
  8 12  1  0  0  0
M  END
> <minimizedAffinity>
-6.31083

$$$$
1TX7_4CM_A_247


 17 17  0  0  0  0  0  0  0  0999 V2000
   -0.6118   11.2765   48.4134 C   0  0  0  0  0  0  0  0  0  0  0  0
   -1.0511   11.4724   49.7724 C   0  0  0  0  0  0  0  0  0  0  0  0
   -1.1653   12.7888   50.2927 C   0  0  0  0  0  0  0  0  0  0  0  0
   -0.8383   13.9255   49.4633 C   0  0  0  0  0  0  0  0  0  0  0  0
   -0.3803   13.7206   48.0861 C   0  0  0  0  0  0  0  0  0  0  0  0
   -0.2809   12.3965   47.5801 C   0  0  0  0  0  0  0  0  0  0  0  0
   -0.6501    8.8991   48.6809 N   0  0  0  0  0  0  0  0  0  0  0  0
   -0.2944    9.6811   46.6094 N   0  0  0  0  0  0  0  0  0  0  0  0
   -0.5176    9.8948   47.8817 C   0  0  0  0  0  0  0  0  0  0  0  0
   -0.8180    9.0553   49.6383 H   0  0  0  0  0  0  0  0  0  0  0  0
   -0.5839    7.9792   48.3364 H   0  0  0  0  0  0  0  0  0  0  0  0
   -0.1922   10.4419   45.9929 H   0  0  0  0  0  0  0  0  0  0  0  0
    0.3711   16.2449   50.2516 O   0  0  0  0  0  0  0  0  0  0  0  0
   -1.9051   16.4821   49.2651 O   0  0  0  0  0  0  0  0  0  0  0  0
   -1.0167   15.6010   50.1760 P   0  0  0  0  0  0  0  0  0  0  0  0
   -1.7804   15.3901   51.8517 C   0  0  0  0  0  0  0  0  0  0  0  0
    0.7341   16.3369   49.3568 H   0  0  0  0  0  0  0  0  0  0  0  0
  1  2  2  0  0  0
  1  6  1  0  0  0
  1  9  1  0  0  0
 13 15  1  0  0  0
  2  3  1  0  0  0
 14 15  2  0  0  0
  3  4  2  0  0  0
  7  9  1  0  0  0
  8  9  2  0  0  0
  4  5  1  0  0  0
  4 15  1  0  0  0
  5  6  2  0  0  0
 15 16  1  0  0  0
 13 17  1  0  0  0
  7 10  1  0  0  0
  7 11  1  0  0  0
  8 12  1  0  0  0
M  END
> <minimizedAffinity>
-5.33928

$$$$
1TX7_4CM_A_247


 17 17  0  0  0  0  0  0  0  0999 V2000
   -1.3230   13.9414   49.9669 C   0  0  0  0  0  0  0  0  0  0  0  0
   -1.6134   12.7382   50.7058 C   0  0  0  0  0  0  0  0  0  0  0  0
   -1.1671   11.4836   50.2123 C   0  0  0  0  0  0  0  0  0  0  0  0
   -0.4287   11.4151   48.9726 C   0  0  0  0  0  0  0  0  0  0  0  0
   -0.1464   12.6399   48.2187 C   0  0  0  0  0  0  0  0  0  0  0  0
   -0.5933   13.8870   48.7328 C   0  0  0  0  0  0  0  0  0  0  0  0
   -2.3324   15.2894   51.6665 N   0  0  0  0  0  0  0  0  0  0  0  0
   -1.6337   16.3458   49.8159 N   0  0  0  0  0  0  0  0  0  0  0  0
   -1.7806   15.2444   50.5085 C   0  0  0  0  0  0  0  0  0  0  0  0
   -2.4448   14.4636   52.1906 H   0  0  0  0  0  0  0  0  0  0  0  0
   -2.6433   16.1496   52.0306 H   0  0  0  0  0  0  0  0  0  0  0  0
   -1.2110   16.3159   48.9273 H   0  0  0  0  0  0  0  0  0  0  0  0
    1.0095    9.1481   49.4792 O   0  0  0  0  0  0  0  0  0  0  0  0
   -1.0736    8.8434   48.1457 O   0  0  0  0  0  0  0  0  0  0  0  0
    0.1371    9.7764   48.3879 P   0  0  0  0  0  0  0  0  0  0  0  0
    1.0818   10.0658   46.8197 C   0  0  0  0  0  0  0  0  0  0  0  0
    0.4788    9.0138   50.2799 H   0  0  0  0  0  0  0  0  0  0  0  0
  1  2  2  0  0  0
  1  6  1  0  0  0
  1  9  1  0  0  0
 13 15  1  0  0  0
  2  3  1  0  0  0
 14 15  2  0  0  0
  3  4  2  0  0  0
  7  9  1  0  0  0
  8  9  2  0  0  0
  4  5  1  0  0  0
  4 15  1  0  0  0
  5  6  2  0  0  0
 15 16  1  0  0  0
 13 17  1  0  0  0
  7 10  1  0  0  0
  7 11  1  0  0  0
  8 12  1  0  0  0
M  END
> <minimizedAffinity>
-5.10339

$$$$
1TX7_4CM_A_247


 17 17  0  0  0  0  0  0  0  0999 V2000
   -1.2954   13.8955   49.5344 C   0  0  0  0  0  0  0  0  0  0  0  0
   -1.2855   13.2940   48.2244 C   0  0  0  0  0  0  0  0  0  0  0  0
   -1.7874   11.9770   48.0503 C   0  0  0  0  0  0  0  0  0  0  0  0
   -2.3016   11.2432   49.1834 C   0  0  0  0  0  0  0  0  0  0  0  0
   -2.2983   11.8545   50.5156 C   0  0  0  0  0  0  0  0  0  0  0  0
   -1.8004   13.1765   50.6686 C   0  0  0  0  0  0  0  0  0  0  0  0
   -1.4482   16.1212   50.3991 N   0  0  0  0  0  0  0  0  0  0  0  0
    0.3294   15.6519   49.1149 N   0  0  0  0  0  0  0  0  0  0  0  0
   -0.7849   15.2794   49.6927 C   0  0  0  0  0  0  0  0  0  0  0  0
   -2.2865   15.8453   50.8353 H   0  0  0  0  0  0  0  0  0  0  0  0
   -1.1185   17.0428   50.5048 H   0  0  0  0  0  0  0  0  0  0  0  0
    0.8412   15.0094   48.5722 H   0  0  0  0  0  0  0  0  0  0  0  0
   -2.5681    9.1191   47.4860 O   0  0  0  0  0  0  0  0  0  0  0  0
   -2.3113    8.5601   49.9009 O   0  0  0  0  0  0  0  0  0  0  0  0
   -2.9508    9.5557   48.9035 P   0  0  0  0  0  0  0  0  0  0  0  0
   -4.7878    9.6451   49.1340 C   0  0  0  0  0  0  0  0  0  0  0  0
   -1.6018    9.0853   47.4079 H   0  0  0  0  0  0  0  0  0  0  0  0
  1  2  2  0  0  0
  1  6  1  0  0  0
  1  9  1  0  0  0
 13 15  1  0  0  0
  2  3  1  0  0  0
 14 15  2  0  0  0
  3  4  2  0  0  0
  7  9  1  0  0  0
  8  9  2  0  0  0
  4  5  1  0  0  0
  4 15  1  0  0  0
  5  6  2  0  0  0
 15 16  1  0  0  0
 13 17  1  0  0  0
  7 10  1  0  0  0
  7 11  1  0  0  0
  8 12  1  0  0  0
M  END
> <minimizedAffinity>
-4.68718

$$$$
1TX7_4CM_A_247


 17 17  0  0  0  0  0  0  0  0999 V2000
   -1.2514   13.4777   49.2529 C   0  0  0  0  0  0  0  0  0  0  0  0
   -0.2422   12.4620   49.0861 C   0  0  0  0  0  0  0  0  0  0  0  0
   -0.4971   11.1366   49.5279 C   0  0  0  0  0  0  0  0  0  0  0  0
   -1.7617   10.8107   50.1456 C   0  0  0  0  0  0  0  0  0  0  0  0
   -2.7799   11.8497   50.3241 C   0  0  0  0  0  0  0  0  0  0  0  0
   -2.5102   13.1680   49.8675 C   0  0  0  0  0  0  0  0  0  0  0  0
   -0.1365   15.0274   47.8106 N   0  0  0  0  0  0  0  0  0  0  0  0
   -1.5686   15.8854   49.3078 N   0  0  0  0  0  0  0  0  0  0  0  0
   -0.9740   14.8517   48.7673 C   0  0  0  0  0  0  0  0  0  0  0  0
    0.3128   14.2529   47.4013 H   0  0  0  0  0  0  0  0  0  0  0  0
    0.0566   15.9366   47.4861 H   0  0  0  0  0  0  0  0  0  0  0  0
   -2.2117   15.7552   50.0418 H   0  0  0  0  0  0  0  0  0  0  0  0
   -0.7163    8.3293   50.6085 O   0  0  0  0  0  0  0  0  0  0  0  0
   -2.5342    9.0526   52.1520 O   0  0  0  0  0  0  0  0  0  0  0  0
   -2.0465    9.0854   50.6837 P   0  0  0  0  0  0  0  0  0  0  0  0
   -3.3198    8.3727   49.5407 C   0  0  0  0  0  0  0  0  0  0  0  0
   -0.0801    8.7327   51.2196 H   0  0  0  0  0  0  0  0  0  0  0  0
  1  2  2  0  0  0
  1  6  1  0  0  0
  1  9  1  0  0  0
 13 15  1  0  0  0
  2  3  1  0  0  0
 14 15  2  0  0  0
  3  4  2  0  0  0
  7  9  1  0  0  0
  8  9  2  0  0  0
  4  5  1  0  0  0
  4 15  1  0  0  0
  5  6  2  0  0  0
 15 16  1  0  0  0
 13 17  1  0  0  0
  7 10  1  0  0  0
  7 11  1  0  0  0
  8 12  1  0  0  0
M  END
> <minimizedAffinity>
-4.64622

$$$$
1TX7_4CM_A_247


 17 17  0  0  0  0  0  0  0  0999 V2000
    1.7249    9.8324   48.2559 C   0  0  0  0  0  0  0  0  0  0  0  0
    1.2452   10.8173   47.3189 C   0  0  0  0  0  0  0  0  0  0  0  0
    0.3195   11.8053   47.7477 C   0  0  0  0  0  0  0  0  0  0  0  0
   -0.1414   11.8190   49.1167 C   0  0  0  0  0  0  0  0  0  0  0  0
    0.3399   10.8081   50.0626 C   0  0  0  0  0  0  0  0  0  0  0  0
    1.2728    9.8330   49.6175 C   0  0  0  0  0  0  0  0  0  0  0  0
    2.6642    7.6320   48.2769 N   0  0  0  0  0  0  0  0  0  0  0  0
    3.6176    9.1287   46.9057 N   0  0  0  0  0  0  0  0  0  0  0  0
    2.7064    8.8206   47.7940 C   0  0  0  0  0  0  0  0  0  0  0  0
    1.9807    7.3961   48.9450 H   0  0  0  0  0  0  0  0  0  0  0  0
    3.3154    6.9563   47.9791 H   0  0  0  0  0  0  0  0  0  0  0  0
    3.6536   10.0391   46.5328 H   0  0  0  0  0  0  0  0  0  0  0  0
   -2.7038   12.7653   49.0656 O   0  0  0  0  0  0  0  0  0  0  0  0
   -1.4283   13.1827   51.1655 O   0  0  0  0  0  0  0  0  0  0  0  0
   -1.3221   13.1218   49.6228 P   0  0  0  0  0  0  0  0  0  0  0  0
   -0.6826   14.7192   48.9335 C   0  0  0  0  0  0  0  0  0  0  0  0
   -3.0008   11.9258   49.4503 H   0  0  0  0  0  0  0  0  0  0  0  0
  1  2  2  0  0  0
  1  6  1  0  0  0
  1  9  1  0  0  0
 13 15  1  0  0  0
  2  3  1  0  0  0
 14 15  2  0  0  0
  3  4  2  0  0  0
  7  9  1  0  0  0
  8  9  2  0  0  0
  4  5  1  0  0  0
  4 15  1  0  0  0
  5  6  2  0  0  0
 15 16  1  0  0  0
 13 17  1  0  0  0
  7 10  1  0  0  0
  7 11  1  0  0  0
  8 12  1  0  0  0
M  END
> <minimizedAffinity>
-4.63195

$$$$
1TX7_4CM_A_247


 17 17  0  0  0  0  0  0  0  0999 V2000
   -0.1274   10.8672   48.6027 C   0  0  0  0  0  0  0  0  0  0  0  0
   -1.1246   11.5836   47.8474 C   0  0  0  0  0  0  0  0  0  0  0  0
   -1.1809   11.4346   46.4362 C   0  0  0  0  0  0  0  0  0  0  0  0
   -0.2392   10.5713   45.7618 C   0  0  0  0  0  0  0  0  0  0  0  0
    0.7807    9.8546   46.5329 C   0  0  0  0  0  0  0  0  0  0  0  0
    0.8157   10.0091   47.9450 C   0  0  0  0  0  0  0  0  0  0  0  0
    0.6241   10.2254   50.7817 N   0  0  0  0  0  0  0  0  0  0  0  0
   -0.8020   11.9524   50.6686 N   0  0  0  0  0  0  0  0  0  0  0  0
   -0.0970   11.0205   50.0779 C   0  0  0  0  0  0  0  0  0  0  0  0
    1.1557    9.5233   50.3416 H   0  0  0  0  0  0  0  0  0  0  0  0
    0.6456   10.3176   51.7616 H   0  0  0  0  0  0  0  0  0  0  0  0
   -1.3565   12.5644   50.1326 H   0  0  0  0  0  0  0  0  0  0  0  0
   -1.8034   10.0155   43.5919 O   0  0  0  0  0  0  0  0  0  0  0  0
   -0.0464   11.7504   43.2546 O   0  0  0  0  0  0  0  0  0  0  0  0
   -0.3635   10.4018   43.9444 P   0  0  0  0  0  0  0  0  0  0  0  0
    0.8518    9.0942   43.4455 C   0  0  0  0  0  0  0  0  0  0  0  0
   -2.4052   10.7241   43.8688 H   0  0  0  0  0  0  0  0  0  0  0  0
  1  2  2  0  0  0
  1  6  1  0  0  0
  1  9  1  0  0  0
 13 15  1  0  0  0
  2  3  1  0  0  0
 14 15  2  0  0  0
  3  4  2  0  0  0
  7  9  1  0  0  0
  8  9  2  0  0  0
  4  5  1  0  0  0
  4 15  1  0  0  0
  5  6  2  0  0  0
 15 16  1  0  0  0
 13 17  1  0  0  0
  7 10  1  0  0  0
  7 11  1  0  0  0
  8 12  1  0  0  0
M  END
> <minimizedAffinity>
-4.37393

$$$$
