4K6I_9RA_A_500


 27 29  0  0  0  0  0  0  0  0999 V2000
   -2.3573   19.0480   -2.5208 C   0  0  0  0  0  0  0  0  0  0  0  0
   -1.4629   20.0743   -2.2473 C   0  0  0  0  0  0  0  0  0  0  0  0
   -1.6244   20.9413   -0.9958 C   0  0  0  0  0  0  0  0  0  0  0  0
   -0.4391   20.3438   -3.1465 C   0  0  0  0  0  0  0  0  0  0  0  0
   -2.2060   18.3099   -3.6885 C   0  0  0  0  0  0  0  0  0  0  0  0
   -1.1785   18.5768   -4.5899 C   0  0  0  0  0  0  0  0  0  0  0  0
   -1.0723   17.7181   -5.8540 C   0  0  0  0  0  0  0  0  0  0  0  0
   -1.1748   16.2433   -5.4599 C   0  0  0  0  0  0  0  0  0  0  0  0
   -2.2267   18.0820   -6.7875 C   0  0  0  0  0  0  0  0  0  0  0  0
    0.2511   17.9514   -6.5919 C   0  0  0  0  0  0  0  0  0  0  0  0
    0.5543   19.4431   -6.6699 C   0  0  0  0  0  0  0  0  0  0  0  0
    0.8643   19.9587   -5.2640 C   0  0  0  0  0  0  0  0  0  0  0  0
   -0.2871   19.6115   -4.3144 C   0  0  0  0  0  0  0  0  0  0  0  0
    1.0694   21.4701   -5.3190 C   0  0  0  0  0  0  0  0  0  0  0  0
    2.1429   19.3078   -4.7431 C   0  0  0  0  0  0  0  0  0  0  0  0
   -3.3725   18.7660   -1.6048 C   0  0  0  0  0  0  0  0  0  0  0  0
   -3.0361   18.1735   -0.3950 C   0  0  0  0  0  0  0  0  0  0  0  0
   -7.3951   19.5001   -2.5283 C   0  0  0  0  0  0  0  0  0  0  0  0
   -6.3869   19.9398   -3.3796 C   0  0  0  0  0  0  0  0  0  0  0  0
   -7.0529   18.8468   -1.3485 C   0  0  0  0  0  0  0  0  0  0  0  0
   -5.7180   18.6258   -1.0336 C   0  0  0  0  0  0  0  0  0  0  0  0
   -4.7034   19.0523   -1.8897 C   0  0  0  0  0  0  0  0  0  0  0  0
   -5.0510   19.7157   -3.0620 C   0  0  0  0  0  0  0  0  0  0  0  0
   -9.7154   18.9217   -2.3970 O   0  0  0  0  0  0  0  0  0  0  0  0
   -8.8633   19.6593   -2.9391 C   0  0  0  0  0  0  0  0  0  0  0  0
   -9.1294   20.5054   -3.8181 O   0  0  0  0  0  0  0  0  0  0  0  0
   -8.4453   21.0291   -4.1867 H   0  0  0  0  0  0  0  0  0  0  0  0
 25 24  2  0  0  0
 18 25  1  0  0  0
 25 26  1  0  0  0
 20 18  2  0  0  0
 19 18  1  0  0  0
 23 19  2  0  0  0
 21 20  1  0  0  0
 22 21  2  0  0  0
 16 22  1  0  0  0
 22 23  1  0  0  0
 17 16  2  0  0  0
  1 16  1  0  0  0
  5  1  2  0  0  0
  1  2  1  0  0  0
  4  2  2  0  0  0
  2  3  1  0  0  0
 13  4  1  0  0  0
  6  5  1  0  0  0
  7  6  1  0  0  0
  6 13  2  0  0  0
  9  7  1  0  0  0
 10  7  1  0  0  0
  7  8  1  0  0  0
 10 11  1  0  0  0
 12 11  1  0  0  0
 14 12  1  0  0  0
 12 13  1  0  0  0
 12 15  1  0  0  0
 26 27  1  0  0  0
M  END
> <minimizedAffinity>
-13.54607

$$$$
