4M8H_R4M_A_500


 24 25  0  0  0  0  0  0  0  0999 V2000
   65.4297   46.3137   30.2897 C   0  0  0  0  0  0  0  0  0  0  0  0
   66.5844   45.6421   31.0422 C   0  0  0  0  0  0  0  0  0  0  0  0
   66.2162   45.3003   32.4867 C   0  0  0  0  0  0  0  0  0  0  0  0
   67.4159   44.7179   33.2328 C   0  0  0  0  0  0  0  0  0  0  0  0
   65.6569   46.5114   33.2228 C   0  0  0  0  0  0  0  0  0  0  0  0
   65.7191   46.5515   34.6133 C   0  0  0  0  0  0  0  0  0  0  0  0
   65.2063   47.6253   35.3207 C   0  0  0  0  0  0  0  0  0  0  0  0
   64.6130   48.6859   34.6433 C   0  0  0  0  0  0  0  0  0  0  0  0
   64.5317   48.6515   33.2581 C   0  0  0  0  0  0  0  0  0  0  0  0
   65.0516   47.5643   32.5701 C   0  0  0  0  0  0  0  0  0  0  0  0
   64.7945   47.4187   31.1326 C   0  0  0  0  0  0  0  0  0  0  0  0
   63.9301   48.3519   30.5736 C   0  0  0  0  0  0  0  0  0  0  0  0
   63.5092   48.3810   29.1590 C   0  0  0  0  0  0  0  0  0  0  0  0
   64.3110   49.2705   28.1988 C   0  0  0  0  0  0  0  0  0  0  0  0
   62.4290   47.6825   28.6392 C   0  0  0  0  0  0  0  0  0  0  0  0
   61.5130   46.7881   29.3599 C   0  0  0  0  0  0  0  0  0  0  0  0
   60.2126   46.8109   28.8549 C   0  0  0  0  0  0  0  0  0  0  0  0
   59.0033   46.4984   29.6151 C   0  0  0  0  0  0  0  0  0  0  0  0
   59.0938   45.9575   31.0514 C   0  0  0  0  0  0  0  0  0  0  0  0
   57.7890   46.7146   28.9659 C   0  0  0  0  0  0  0  0  0  0  0  0
   56.5035   46.4472   29.6262 C   0  0  0  0  0  0  0  0  0  0  0  0
   55.7096   47.4040   29.7137 O   0  0  0  0  0  0  0  0  0  0  0  0
   56.2765   45.2993   30.0799 O   0  0  0  0  0  0  0  0  0  0  0  0
   56.9161   44.6217   29.9813 H   0  0  0  0  0  0  0  0  0  0  0  0
 14 13  1  0  0  0
 15 13  2  0  0  0
 15 16  1  0  0  0
 13 12  1  0  0  0
 17 16  1  0  0  0
 17 18  1  0  0  0
 20 18  2  0  0  0
 20 21  1  0  0  0
 12 11  2  0  0  0
 18 19  1  0  0  0
 21 22  2  0  0  0
 21 23  1  0  0  0
 11  1  1  0  0  0
 11 10  1  0  0  0
  9 10  2  0  0  0
  9  8  1  0  0  0
  1  2  1  0  0  0
 10  5  1  0  0  0
  8  7  2  0  0  0
  2  3  1  0  0  0
  5  3  1  0  0  0
  5  6  2  0  0  0
  7  6  1  0  0  0
  3  4  1  0  0  0
 23 24  1  0  0  0
M  END
> <minimizedAffinity>
-11.30698

$$$$
4M8H_R4M_A_500


 24 25  0  0  0  0  0  0  0  0999 V2000
   65.3230   46.6505   30.0195 C   0  0  0  0  0  0  0  0  0  0  0  0
   66.5220   46.0626   30.7729 C   0  0  0  0  0  0  0  0  0  0  0  0
   66.1531   45.6017   32.1836 C   0  0  0  0  0  0  0  0  0  0  0  0
   67.3874   45.1075   32.9368 C   0  0  0  0  0  0  0  0  0  0  0  0
   65.4471   46.7028   32.9650 C   0  0  0  0  0  0  0  0  0  0  0  0
   65.4664   46.6695   34.3569 C   0  0  0  0  0  0  0  0  0  0  0  0
   64.8221   47.6409   35.1037 C   0  0  0  0  0  0  0  0  0  0  0  0
   64.1372   48.6700   34.4652 C   0  0  0  0  0  0  0  0  0  0  0  0
   64.0981   48.7066   33.0782 C   0  0  0  0  0  0  0  0  0  0  0  0
   64.7505   47.7215   32.3503 C   0  0  0  0  0  0  0  0  0  0  0  0
   64.5500   47.6321   30.8992 C   0  0  0  0  0  0  0  0  0  0  0  0
   63.6061   48.4993   30.3629 C   0  0  0  0  0  0  0  0  0  0  0  0
   63.2235   48.5647   28.9386 C   0  0  0  0  0  0  0  0  0  0  0  0
   64.1569   49.3272   27.9881 C   0  0  0  0  0  0  0  0  0  0  0  0
   62.0717   48.0085   28.4012 C   0  0  0  0  0  0  0  0  0  0  0  0
   61.0298   47.2530   29.1098 C   0  0  0  0  0  0  0  0  0  0  0  0
   59.8529   47.1170   28.3729 C   0  0  0  0  0  0  0  0  0  0  0  0
   58.5055   47.0405   28.9354 C   0  0  0  0  0  0  0  0  0  0  0  0
   57.3768   47.9371   28.4006 C   0  0  0  0  0  0  0  0  0  0  0  0
   58.3152   46.1242   29.9682 C   0  0  0  0  0  0  0  0  0  0  0  0
   57.0051   45.9471   30.6103 C   0  0  0  0  0  0  0  0  0  0  0  0
   56.1408   45.3307   29.9575 O   0  0  0  0  0  0  0  0  0  0  0  0
   56.8136   46.4313   31.7521 O   0  0  0  0  0  0  0  0  0  0  0  0
   57.5063   46.8847   32.1910 H   0  0  0  0  0  0  0  0  0  0  0  0
 14 13  1  0  0  0
 15 13  2  0  0  0
 15 16  1  0  0  0
 13 12  1  0  0  0
 17 16  1  0  0  0
 17 18  1  0  0  0
 20 18  2  0  0  0
 20 21  1  0  0  0
 12 11  2  0  0  0
 18 19  1  0  0  0
 21 22  2  0  0  0
 21 23  1  0  0  0
 11  1  1  0  0  0
 11 10  1  0  0  0
  9 10  2  0  0  0
  9  8  1  0  0  0
  1  2  1  0  0  0
 10  5  1  0  0  0
  8  7  2  0  0  0
  2  3  1  0  0  0
  5  3  1  0  0  0
  5  6  2  0  0  0
  7  6  1  0  0  0
  3  4  1  0  0  0
 23 24  1  0  0  0
M  END
> <minimizedAffinity>
-11.26587

$$$$
4M8H_R4M_A_500


 24 25  0  0  0  0  0  0  0  0999 V2000
   63.7781   48.5853   31.3796 C   0  0  0  0  0  0  0  0  0  0  0  0
   63.8876   48.2561   32.8731 C   0  0  0  0  0  0  0  0  0  0  0  0
   65.2982   47.8185   33.2701 C   0  0  0  0  0  0  0  0  0  0  0  0
   65.3494   47.4108   34.7420 C   0  0  0  0  0  0  0  0  0  0  0  0
   65.8059   46.6922   32.3785 C   0  0  0  0  0  0  0  0  0  0  0  0
   66.8101   45.8506   32.8502 C   0  0  0  0  0  0  0  0  0  0  0  0
   67.3115   44.8267   32.0648 C   0  0  0  0  0  0  0  0  0  0  0  0
   66.8155   44.6276   30.7803 C   0  0  0  0  0  0  0  0  0  0  0  0
   65.8247   45.4686   30.2928 C   0  0  0  0  0  0  0  0  0  0  0  0
   65.3380   46.4890   31.0977 C   0  0  0  0  0  0  0  0  0  0  0  0
   64.4432   47.5038   30.5293 C   0  0  0  0  0  0  0  0  0  0  0  0
   64.2324   47.4268   29.1580 C   0  0  0  0  0  0  0  0  0  0  0  0
   63.3957   48.3556   28.3728 C   0  0  0  0  0  0  0  0  0  0  0  0
   64.1134   49.4447   27.5634 C   0  0  0  0  0  0  0  0  0  0  0  0
   62.0092   48.3311   28.3315 C   0  0  0  0  0  0  0  0  0  0  0  0
   61.1109   47.4005   29.0283 C   0  0  0  0  0  0  0  0  0  0  0  0
   59.9557   47.1059   28.3035 C   0  0  0  0  0  0  0  0  0  0  0  0
   58.6042   47.0337   28.8568 C   0  0  0  0  0  0  0  0  0  0  0  0
   57.4821   47.9340   28.3143 C   0  0  0  0  0  0  0  0  0  0  0  0
   58.4039   46.1180   29.8882 C   0  0  0  0  0  0  0  0  0  0  0  0
   57.0888   45.9451   30.5212 C   0  0  0  0  0  0  0  0  0  0  0  0
   56.2513   45.2670   29.8952 O   0  0  0  0  0  0  0  0  0  0  0  0
   56.8667   46.4926   31.6284 O   0  0  0  0  0  0  0  0  0  0  0  0
   57.5403   46.9903   32.0484 H   0  0  0  0  0  0  0  0  0  0  0  0
 14 13  1  0  0  0
 15 13  2  0  0  0
 15 16  1  0  0  0
 13 12  1  0  0  0
 17 16  1  0  0  0
 17 18  1  0  0  0
 20 18  2  0  0  0
 20 21  1  0  0  0
 12 11  2  0  0  0
 18 19  1  0  0  0
 21 22  2  0  0  0
 21 23  1  0  0  0
 11  1  1  0  0  0
 11 10  1  0  0  0
  9 10  2  0  0  0
  9  8  1  0  0  0
  1  2  1  0  0  0
 10  5  1  0  0  0
  8  7  2  0  0  0
  2  3  1  0  0  0
  5  3  1  0  0  0
  5  6  2  0  0  0
  7  6  1  0  0  0
  3  4  1  0  0  0
 23 24  1  0  0  0
M  END
> <minimizedAffinity>
-11.09517

$$$$
4M8H_R4M_A_500


 24 25  0  0  0  0  0  0  0  0999 V2000
   63.9044   48.3900   31.7871 C   0  0  0  0  0  0  0  0  0  0  0  0
   64.1365   48.1161   30.2965 C   0  0  0  0  0  0  0  0  0  0  0  0
   62.8537   48.2484   29.4745 C   0  0  0  0  0  0  0  0  0  0  0  0
   63.1017   47.8800   28.0123 C   0  0  0  0  0  0  0  0  0  0  0  0
   61.7252   47.4090   30.0602 C   0  0  0  0  0  0  0  0  0  0  0  0
   60.6743   47.0119   29.2373 C   0  0  0  0  0  0  0  0  0  0  0  0
   59.6209   46.2639   29.7347 C   0  0  0  0  0  0  0  0  0  0  0  0
   59.5980   45.9002   31.0774 C   0  0  0  0  0  0  0  0  0  0  0  0
   60.6321   46.3019   31.9115 C   0  0  0  0  0  0  0  0  0  0  0  0
   61.6772   47.0521   31.3911 C   0  0  0  0  0  0  0  0  0  0  0  0
   62.6663   47.6518   32.2943 C   0  0  0  0  0  0  0  0  0  0  0  0
   62.4111   47.5107   33.6528 C   0  0  0  0  0  0  0  0  0  0  0  0
   63.2522   48.0547   34.7371 C   0  0  0  0  0  0  0  0  0  0  0  0
   62.7777   49.3428   35.4241 C   0  0  0  0  0  0  0  0  0  0  0  0
   64.4505   47.5011   35.1642 C   0  0  0  0  0  0  0  0  0  0  0  0
   65.1083   46.2912   34.6524 C   0  0  0  0  0  0  0  0  0  0  0  0
   66.4892   46.4340   34.5131 C   0  0  0  0  0  0  0  0  0  0  0  0
   67.2458   46.1940   33.2852 C   0  0  0  0  0  0  0  0  0  0  0  0
   68.7833   46.1885   33.2960 C   0  0  0  0  0  0  0  0  0  0  0  0
   66.4992   45.9788   32.1282 C   0  0  0  0  0  0  0  0  0  0  0  0
   67.1426   45.7179   30.8327 C   0  0  0  0  0  0  0  0  0  0  0  0
   67.3218   44.5230   30.5275 O   0  0  0  0  0  0  0  0  0  0  0  0
   67.4931   46.6882   30.1180 O   0  0  0  0  0  0  0  0  0  0  0  0
   67.3291   47.5649   30.4051 H   0  0  0  0  0  0  0  0  0  0  0  0
 14 13  1  0  0  0
 15 13  2  0  0  0
 15 16  1  0  0  0
 13 12  1  0  0  0
 17 16  1  0  0  0
 17 18  1  0  0  0
 20 18  2  0  0  0
 20 21  1  0  0  0
 12 11  2  0  0  0
 18 19  1  0  0  0
 21 22  2  0  0  0
 21 23  1  0  0  0
 11  1  1  0  0  0
 11 10  1  0  0  0
  9 10  2  0  0  0
  9  8  1  0  0  0
  1  2  1  0  0  0
 10  5  1  0  0  0
  8  7  2  0  0  0
  2  3  1  0  0  0
  5  3  1  0  0  0
  5  6  2  0  0  0
  7  6  1  0  0  0
  3  4  1  0  0  0
 23 24  1  0  0  0
M  END
> <minimizedAffinity>
-8.79184

$$$$
4M8H_R4M_A_500


 24 25  0  0  0  0  0  0  0  0999 V2000
   66.7991   46.0437   30.3215 C   0  0  0  0  0  0  0  0  0  0  0  0
   68.0020   46.3695   31.2146 C   0  0  0  0  0  0  0  0  0  0  0  0
   67.7361   46.0516   32.6867 C   0  0  0  0  0  0  0  0  0  0  0  0
   68.9184   46.4728   33.5585 C   0  0  0  0  0  0  0  0  0  0  0  0
   66.4461   46.6991   33.1745 C   0  0  0  0  0  0  0  0  0  0  0  0
   66.2776   46.9399   34.5357 C   0  0  0  0  0  0  0  0  0  0  0  0
   65.1133   47.5098   35.0215 C   0  0  0  0  0  0  0  0  0  0  0  0
   64.0858   47.8482   34.1465 C   0  0  0  0  0  0  0  0  0  0  0  0
   64.2354   47.6001   32.7891 C   0  0  0  0  0  0  0  0  0  0  0  0
   65.4110   47.0269   32.3249 C   0  0  0  0  0  0  0  0  0  0  0  0
   65.5029   46.5753   30.9316 C   0  0  0  0  0  0  0  0  0  0  0  0
   64.3314   46.6577   30.1889 C   0  0  0  0  0  0  0  0  0  0  0  0
   64.1851   46.2359   28.7818 C   0  0  0  0  0  0  0  0  0  0  0  0
   64.6739   44.8294   28.4088 C   0  0  0  0  0  0  0  0  0  0  0  0
   63.6607   47.0251   27.7684 C   0  0  0  0  0  0  0  0  0  0  0  0
   63.1474   48.3972   27.8795 C   0  0  0  0  0  0  0  0  0  0  0  0
   61.7598   48.4554   28.0121 C   0  0  0  0  0  0  0  0  0  0  0  0
   60.9543   47.5910   28.8735 C   0  0  0  0  0  0  0  0  0  0  0  0
   61.3681   47.3251   30.3302 C   0  0  0  0  0  0  0  0  0  0  0  0
   59.8134   47.0327   28.2999 C   0  0  0  0  0  0  0  0  0  0  0  0
   58.9172   46.1539   29.0645 C   0  0  0  0  0  0  0  0  0  0  0  0
   59.4328   45.4971   29.9896 O   0  0  0  0  0  0  0  0  0  0  0  0
   57.7050   46.0905   28.7456 O   0  0  0  0  0  0  0  0  0  0  0  0
   57.3787   46.6115   28.0385 H   0  0  0  0  0  0  0  0  0  0  0  0
 14 13  1  0  0  0
 15 13  2  0  0  0
 15 16  1  0  0  0
 13 12  1  0  0  0
 17 16  1  0  0  0
 17 18  1  0  0  0
 20 18  2  0  0  0
 20 21  1  0  0  0
 12 11  2  0  0  0
 18 19  1  0  0  0
 21 22  2  0  0  0
 21 23  1  0  0  0
 11  1  1  0  0  0
 11 10  1  0  0  0
  9 10  2  0  0  0
  9  8  1  0  0  0
  1  2  1  0  0  0
 10  5  1  0  0  0
  8  7  2  0  0  0
  2  3  1  0  0  0
  5  3  1  0  0  0
  5  6  2  0  0  0
  7  6  1  0  0  0
  3  4  1  0  0  0
 23 24  1  0  0  0
M  END
> <minimizedAffinity>
-8.75478

$$$$
4M8H_R4M_A_500


 24 25  0  0  0  0  0  0  0  0999 V2000
   61.8314   47.0622   32.9889 C   0  0  0  0  0  0  0  0  0  0  0  0
   60.7077   46.7697   31.9876 C   0  0  0  0  0  0  0  0  0  0  0  0
   61.2427   46.2995   30.6343 C   0  0  0  0  0  0  0  0  0  0  0  0
   60.1036   46.1058   29.6343 C   0  0  0  0  0  0  0  0  0  0  0  0
   62.2898   47.2591   30.0829 C   0  0  0  0  0  0  0  0  0  0  0  0
   62.5327   47.2873   28.7120 C   0  0  0  0  0  0  0  0  0  0  0  0
   63.4882   48.1317   28.1731 C   0  0  0  0  0  0  0  0  0  0  0  0
   64.2273   48.9675   29.0043 C   0  0  0  0  0  0  0  0  0  0  0  0
   64.0049   48.9387   30.3740 C   0  0  0  0  0  0  0  0  0  0  0  0
   63.0427   48.0834   30.8920 C   0  0  0  0  0  0  0  0  0  0  0  0
   62.9382   47.8951   32.3437 C   0  0  0  0  0  0  0  0  0  0  0  0
   63.9138   48.5227   33.1084 C   0  0  0  0  0  0  0  0  0  0  0  0
   64.0201   48.4485   34.5789 C   0  0  0  0  0  0  0  0  0  0  0  0
   62.8911   49.0813   35.4042 C   0  0  0  0  0  0  0  0  0  0  0  0
   65.0759   47.8705   35.2688 C   0  0  0  0  0  0  0  0  0  0  0  0
   66.2659   47.2223   34.7013 C   0  0  0  0  0  0  0  0  0  0  0  0
   66.0053   45.9539   34.1819 C   0  0  0  0  0  0  0  0  0  0  0  0
   66.3263   45.5117   32.8257 C   0  0  0  0  0  0  0  0  0  0  0  0
   66.3744   44.0153   32.4761 C   0  0  0  0  0  0  0  0  0  0  0  0
   66.5840   46.5130   31.8911 C   0  0  0  0  0  0  0  0  0  0  0  0
   66.9098   46.1975   30.4931 C   0  0  0  0  0  0  0  0  0  0  0  0
   65.9481   46.0109   29.7228 O   0  0  0  0  0  0  0  0  0  0  0  0
   68.1142   46.1120   30.1506 O   0  0  0  0  0  0  0  0  0  0  0  0
   68.7920   46.2644   30.7793 H   0  0  0  0  0  0  0  0  0  0  0  0
 14 13  1  0  0  0
 15 13  2  0  0  0
 15 16  1  0  0  0
 13 12  1  0  0  0
 17 16  1  0  0  0
 17 18  1  0  0  0
 20 18  2  0  0  0
 20 21  1  0  0  0
 12 11  2  0  0  0
 18 19  1  0  0  0
 21 22  2  0  0  0
 21 23  1  0  0  0
 11  1  1  0  0  0
 11 10  1  0  0  0
  9 10  2  0  0  0
  9  8  1  0  0  0
  1  2  1  0  0  0
 10  5  1  0  0  0
  8  7  2  0  0  0
  2  3  1  0  0  0
  5  3  1  0  0  0
  5  6  2  0  0  0
  7  6  1  0  0  0
  3  4  1  0  0  0
 23 24  1  0  0  0
M  END
> <minimizedAffinity>
-8.70236

$$$$
4M8H_R4M_A_500


 24 25  0  0  0  0  0  0  0  0999 V2000
   64.2464   48.3462   33.4324 C   0  0  0  0  0  0  0  0  0  0  0  0
   64.3753   47.6990   34.8163 C   0  0  0  0  0  0  0  0  0  0  0  0
   65.7401   47.0415   35.0257 C   0  0  0  0  0  0  0  0  0  0  0  0
   65.8014   46.3288   36.3760 C   0  0  0  0  0  0  0  0  0  0  0  0
   66.0787   46.0822   33.8915 C   0  0  0  0  0  0  0  0  0  0  0  0
   66.9962   45.0591   34.1161 C   0  0  0  0  0  0  0  0  0  0  0  0
   67.3444   44.1776   33.1071 C   0  0  0  0  0  0  0  0  0  0  0  0
   66.7788   44.3079   31.8426 C   0  0  0  0  0  0  0  0  0  0  0  0
   65.8738   45.3323   31.6017 C   0  0  0  0  0  0  0  0  0  0  0  0
   65.5405   46.2048   32.6281 C   0  0  0  0  0  0  0  0  0  0  0  0
   64.7478   47.4052   32.3377 C   0  0  0  0  0  0  0  0  0  0  0  0
   64.4759   47.6425   30.9960 C   0  0  0  0  0  0  0  0  0  0  0  0
   63.7225   48.7990   30.4725 C   0  0  0  0  0  0  0  0  0  0  0  0
   63.7754   50.1037   31.2794 C   0  0  0  0  0  0  0  0  0  0  0  0
   62.9519   48.7862   29.3189 C   0  0  0  0  0  0  0  0  0  0  0  0
   62.7386   47.6604   28.3993 C   0  0  0  0  0  0  0  0  0  0  0  0
   61.4104   47.5268   27.9936 C   0  0  0  0  0  0  0  0  0  0  0  0
   60.3028   47.1003   28.8476 C   0  0  0  0  0  0  0  0  0  0  0  0
   58.8466   47.4031   28.4583 C   0  0  0  0  0  0  0  0  0  0  0  0
   60.6453   46.4192   30.0143 C   0  0  0  0  0  0  0  0  0  0  0  0
   59.6229   45.9314   30.9507 C   0  0  0  0  0  0  0  0  0  0  0  0
   58.8705   45.0282   30.5369 O   0  0  0  0  0  0  0  0  0  0  0  0
   59.5422   46.4486   32.0913 O   0  0  0  0  0  0  0  0  0  0  0  0
   60.1396   47.1254   32.3422 H   0  0  0  0  0  0  0  0  0  0  0  0
 14 13  1  0  0  0
 15 13  2  0  0  0
 15 16  1  0  0  0
 13 12  1  0  0  0
 17 16  1  0  0  0
 17 18  1  0  0  0
 20 18  2  0  0  0
 20 21  1  0  0  0
 12 11  2  0  0  0
 18 19  1  0  0  0
 21 22  2  0  0  0
 21 23  1  0  0  0
 11  1  1  0  0  0
 11 10  1  0  0  0
  9 10  2  0  0  0
  9  8  1  0  0  0
  1  2  1  0  0  0
 10  5  1  0  0  0
  8  7  2  0  0  0
  2  3  1  0  0  0
  5  3  1  0  0  0
  5  6  2  0  0  0
  7  6  1  0  0  0
  3  4  1  0  0  0
 23 24  1  0  0  0
M  END
> <minimizedAffinity>
-8.47786

$$$$
4M8H_R4M_A_500


 24 25  0  0  0  0  0  0  0  0999 V2000
   64.4562   46.5534   29.5232 C   0  0  0  0  0  0  0  0  0  0  0  0
   65.9748   46.6641   29.7033 C   0  0  0  0  0  0  0  0  0  0  0  0
   66.4044   46.4587   31.1566 C   0  0  0  0  0  0  0  0  0  0  0  0
   67.9100   46.6663   31.3154 C   0  0  0  0  0  0  0  0  0  0  0  0
   65.6299   47.3679   32.1025 C   0  0  0  0  0  0  0  0  0  0  0  0
   66.1784   47.6862   33.3422 C   0  0  0  0  0  0  0  0  0  0  0  0
   65.4990   48.4943   34.2377 C   0  0  0  0  0  0  0  0  0  0  0  0
   64.2455   48.9995   33.9073 C   0  0  0  0  0  0  0  0  0  0  0  0
   63.6813   48.6780   32.6806 C   0  0  0  0  0  0  0  0  0  0  0  0
   64.3803   47.8653   31.7993 C   0  0  0  0  0  0  0  0  0  0  0  0
   63.7169   47.3548   30.5939 C   0  0  0  0  0  0  0  0  0  0  0  0
   62.3625   47.6429   30.4790 C   0  0  0  0  0  0  0  0  0  0  0  0
   61.4919   47.2086   29.3688 C   0  0  0  0  0  0  0  0  0  0  0  0
   61.7678   47.7986   27.9788 C   0  0  0  0  0  0  0  0  0  0  0  0
   60.4291   46.3256   29.4940 C   0  0  0  0  0  0  0  0  0  0  0  0
   59.9675   45.6505   30.7145 C   0  0  0  0  0  0  0  0  0  0  0  0
   58.6410   45.9410   31.0346 C   0  0  0  0  0  0  0  0  0  0  0  0
   57.6258   46.4107   30.0929 C   0  0  0  0  0  0  0  0  0  0  0  0
   56.4162   45.5315   29.7357 C   0  0  0  0  0  0  0  0  0  0  0  0
   57.8233   47.6786   29.5489 C   0  0  0  0  0  0  0  0  0  0  0  0
   56.8697   48.2664   28.5974 C   0  0  0  0  0  0  0  0  0  0  0  0
   57.1631   48.1853   27.3889 O   0  0  0  0  0  0  0  0  0  0  0  0
   55.8369   48.8286   29.0358 O   0  0  0  0  0  0  0  0  0  0  0  0
   55.6737   48.8555   29.9581 H   0  0  0  0  0  0  0  0  0  0  0  0
 14 13  1  0  0  0
 15 13  2  0  0  0
 15 16  1  0  0  0
 13 12  1  0  0  0
 17 16  1  0  0  0
 17 18  1  0  0  0
 20 18  2  0  0  0
 20 21  1  0  0  0
 12 11  2  0  0  0
 18 19  1  0  0  0
 21 22  2  0  0  0
 21 23  1  0  0  0
 11  1  1  0  0  0
 11 10  1  0  0  0
  9 10  2  0  0  0
  9  8  1  0  0  0
  1  2  1  0  0  0
 10  5  1  0  0  0
  8  7  2  0  0  0
  2  3  1  0  0  0
  5  3  1  0  0  0
  5  6  2  0  0  0
  7  6  1  0  0  0
  3  4  1  0  0  0
 23 24  1  0  0  0
M  END
> <minimizedAffinity>
-8.45919

$$$$
