2QNQ_QN3_A_2501


 42 46  0  0  0  0  0  0  0  0999 V2000
  -16.7219   19.7814   -5.1699 C   0  0  0  0  0  0  0  0  0  0  0  0
  -17.2800   18.3864   -5.6586 C   0  0  0  0  0  0  0  0  0  0  0  0
  -16.3053   17.3803   -4.9905 C   0  0  0  0  0  0  0  0  0  0  0  0
  -14.9953   18.0729   -4.9118 N   0  0  0  0  0  0  0  0  0  0  0  0
  -15.2607   19.5154   -4.7059 C   0  0  0  0  0  0  0  0  0  0  0  0
  -14.4768   17.9353   -5.7794 H   0  0  0  0  0  0  0  0  0  0  0  0
  -17.5497   20.4889   -4.1402 N   0  0  0  0  0  0  0  0  0  0  0  0
  -17.9107   22.1974   -4.4879 S   0  0  0  0  0  0  0  0  0  0  0  0
  -17.9162   22.2984   -5.9408 O   0  0  0  0  0  0  0  0  0  0  0  0
  -18.9435   22.7399   -3.6142 O   0  0  0  0  0  0  0  0  0  0  0  0
  -15.3992   23.7494   -1.6210 C   0  0  0  0  0  0  0  0  0  0  0  0
  -14.1821   24.0174   -2.2930 C   0  0  0  0  0  0  0  0  0  0  0  0
  -14.0649   23.7251   -3.6741 C   0  0  0  0  0  0  0  0  0  0  0  0
  -15.1592   23.1683   -4.3996 C   0  0  0  0  0  0  0  0  0  0  0  0
  -16.4024   22.8905   -3.7368 C   0  0  0  0  0  0  0  0  0  0  0  0
  -16.4940   23.1924   -2.3372 C   0  0  0  0  0  0  0  0  0  0  0  0
  -14.9150   22.8473   -6.0732 Cl  0  0  0  0  0  0  0  0  0  0  0  0
  -18.0624   19.8496   -2.9025 C   0  0  0  0  0  0  0  0  0  0  0  0
  -19.4374   19.1808   -2.9152 C   0  0  0  0  0  0  0  0  0  0  0  0
  -20.4441   19.5640   -3.8390 C   0  0  0  0  0  0  0  0  0  0  0  0
  -21.7175   18.9235   -3.8123 C   0  0  0  0  0  0  0  0  0  0  0  0
  -21.9911   17.8945   -2.8610 C   0  0  0  0  0  0  0  0  0  0  0  0
  -20.9843   17.5085   -1.9348 C   0  0  0  0  0  0  0  0  0  0  0  0
  -19.7150   18.1507   -1.9636 C   0  0  0  0  0  0  0  0  0  0  0  0
  -17.4080   18.3040   -7.1466 N   0  0  0  0  0  0  0  0  0  0  0  0
  -18.9836   18.5247   -7.8533 S   0  0  0  0  0  0  0  0  0  0  0  0
  -19.5548   19.7152   -7.2558 O   0  0  0  0  0  0  0  0  0  0  0  0
  -18.8188   18.5374   -9.3056 O   0  0  0  0  0  0  0  0  0  0  0  0
  -20.0654   17.1189   -7.5327 C   0  0  0  0  0  0  0  0  0  0  0  0
  -21.2257   17.3334   -6.7344 C   0  0  0  0  0  0  0  0  0  0  0  0
  -22.1331   16.2721   -6.4519 C   0  0  0  0  0  0  0  0  0  0  0  0
  -21.8869   14.9688   -6.9731 C   0  0  0  0  0  0  0  0  0  0  0  0
  -20.7336   14.7338   -7.7747 C   0  0  0  0  0  0  0  0  0  0  0  0
  -19.8215   15.7974   -8.0587 C   0  0  0  0  0  0  0  0  0  0  0  0
  -18.4359   15.4388   -9.0551 Cl  0  0  0  0  0  0  0  0  0  0  0  0
  -16.2692   18.0121   -8.0545 C   0  0  0  0  0  0  0  0  0  0  0  0
  -15.3925   19.2385   -8.4193 C   0  0  0  0  0  0  0  0  0  0  0  0
  -15.9647   20.3640   -9.0885 C   0  0  0  0  0  0  0  0  0  0  0  0
  -15.1629   21.4870   -9.4357 C   0  0  0  0  0  0  0  0  0  0  0  0
  -13.7750   21.4994   -9.1147 C   0  0  0  0  0  0  0  0  0  0  0  0
  -13.1938   20.3848   -8.4460 C   0  0  0  0  0  0  0  0  0  0  0  0
  -13.9987   19.2648   -8.1026 C   0  0  0  0  0  0  0  0  0  0  0  0
 28 26  2  0  0  0
 39 38  2  0  0  0
 39 40  1  0  0  0
 35 34  1  0  0  0
 38 37  1  0  0  0
 40 41  2  0  0  0
 34 33  2  0  0  0
 34 29  1  0  0  0
 37 36  1  0  0  0
 37 42  2  0  0  0
 41 42  1  0  0  0
 33 32  1  0  0  0
 26 29  1  0  0  0
 26 27  2  0  0  0
 26 25  1  0  0  0
 36 25  1  0  0  0
 29 30  2  0  0  0
 32 31  2  0  0  0
 30 31  1  0  0  0
 25  2  1  0  0  0
 17 14  1  0  0  0
  9  8  2  0  0  0
  2  1  1  0  0  0
  2  3  1  0  0  0
  1  5  1  0  0  0
  1  7  1  0  0  0
  3  4  1  0  0  0
  4  5  1  0  0  0
 14 13  2  0  0  0
 14 15  1  0  0  0
  8  7  1  0  0  0
  8 15  1  0  0  0
  8 10  2  0  0  0
  7 18  1  0  0  0
 21 20  2  0  0  0
 21 22  1  0  0  0
 13 12  1  0  0  0
 20 19  1  0  0  0
 15 16  2  0  0  0
 22 23  2  0  0  0
 19 18  1  0  0  0
 19 24  2  0  0  0
 12 11  2  0  0  0
 16 11  1  0  0  0
 23 24  1  0  0  0
  4  6  1  0  0  0
M  END
> <minimizedAffinity>
-10.30191

$$$$
2QNQ_QN3_A_2501


 42 46  0  0  0  0  0  0  0  0999 V2000
  -17.2505   21.0840   -4.0903 C   0  0  0  0  0  0  0  0  0  0  0  0
  -18.0855   20.1523   -5.0551 C   0  0  0  0  0  0  0  0  0  0  0  0
  -19.3057   21.0429   -5.4114 C   0  0  0  0  0  0  0  0  0  0  0  0
  -19.5517   21.8928   -4.2203 N   0  0  0  0  0  0  0  0  0  0  0  0
  -18.2413   22.1747   -3.5902 C   0  0  0  0  0  0  0  0  0  0  0  0
  -20.1555   21.4012   -3.5613 H   0  0  0  0  0  0  0  0  0  0  0  0
  -15.9878   21.6512   -4.6650 N   0  0  0  0  0  0  0  0  0  0  0  0
  -14.4856   21.1706   -3.8390 S   0  0  0  0  0  0  0  0  0  0  0  0
  -14.9115   20.6327   -2.5544 O   0  0  0  0  0  0  0  0  0  0  0  0
  -13.5362   20.5238   -4.7361 O   0  0  0  0  0  0  0  0  0  0  0  0
  -11.9748   24.3550   -4.5397 C   0  0  0  0  0  0  0  0  0  0  0  0
  -12.4296   25.3875   -3.6841 C   0  0  0  0  0  0  0  0  0  0  0  0
  -13.5475   25.1603   -2.8443 C   0  0  0  0  0  0  0  0  0  0  0  0
  -14.2196   23.9024   -2.8450 C   0  0  0  0  0  0  0  0  0  0  0  0
  -13.7730   22.8421   -3.7043 C   0  0  0  0  0  0  0  0  0  0  0  0
  -12.6409   23.0989   -4.5474 C   0  0  0  0  0  0  0  0  0  0  0  0
  -15.5687   23.7276   -1.7900 Cl  0  0  0  0  0  0  0  0  0  0  0  0
  -15.9417   22.5506   -5.8450 C   0  0  0  0  0  0  0  0  0  0  0  0
  -15.4595   22.0041   -7.1893 C   0  0  0  0  0  0  0  0  0  0  0  0
  -14.2639   22.4683   -7.7968 C   0  0  0  0  0  0  0  0  0  0  0  0
  -13.8531   21.9413   -9.0562 C   0  0  0  0  0  0  0  0  0  0  0  0
  -14.6361   20.9457   -9.7152 C   0  0  0  0  0  0  0  0  0  0  0  0
  -15.8337   20.4788   -9.1085 C   0  0  0  0  0  0  0  0  0  0  0  0
  -16.2413   21.0078   -7.8521 C   0  0  0  0  0  0  0  0  0  0  0  0
  -18.3871   18.8173   -4.4518 N   0  0  0  0  0  0  0  0  0  0  0  0
  -18.2562   17.4059   -5.4626 S   0  0  0  0  0  0  0  0  0  0  0  0
  -16.8497   17.0636   -5.5351 O   0  0  0  0  0  0  0  0  0  0  0  0
  -19.1494   16.3863   -4.9158 O   0  0  0  0  0  0  0  0  0  0  0  0
  -18.8820   17.7114   -7.1252 C   0  0  0  0  0  0  0  0  0  0  0  0
  -20.2493   18.0850   -7.2695 C   0  0  0  0  0  0  0  0  0  0  0  0
  -20.8085   18.3558   -8.5514 C   0  0  0  0  0  0  0  0  0  0  0  0
  -19.9951   18.2559   -9.7173 C   0  0  0  0  0  0  0  0  0  0  0  0
  -18.6256   17.8855   -9.5946 C   0  0  0  0  0  0  0  0  0  0  0  0
  -18.0627   17.6127   -8.3090 C   0  0  0  0  0  0  0  0  0  0  0  0
  -16.3764   17.1743   -8.2339 Cl  0  0  0  0  0  0  0  0  0  0  0  0
  -18.8237   18.6312   -3.0443 C   0  0  0  0  0  0  0  0  0  0  0  0
  -20.3580   18.5236   -2.8442 C   0  0  0  0  0  0  0  0  0  0  0  0
  -20.8999   18.2016   -1.5618 C   0  0  0  0  0  0  0  0  0  0  0  0
  -22.3061   18.0904   -1.3749 C   0  0  0  0  0  0  0  0  0  0  0  0
  -23.1906   18.3031   -2.4713 C   0  0  0  0  0  0  0  0  0  0  0  0
  -22.6627   18.6266   -3.7534 C   0  0  0  0  0  0  0  0  0  0  0  0
  -21.2572   18.7351   -3.9352 C   0  0  0  0  0  0  0  0  0  0  0  0
 28 26  2  0  0  0
 39 38  2  0  0  0
 39 40  1  0  0  0
 35 34  1  0  0  0
 38 37  1  0  0  0
 40 41  2  0  0  0
 34 33  2  0  0  0
 34 29  1  0  0  0
 37 36  1  0  0  0
 37 42  2  0  0  0
 41 42  1  0  0  0
 33 32  1  0  0  0
 26 29  1  0  0  0
 26 27  2  0  0  0
 26 25  1  0  0  0
 36 25  1  0  0  0
 29 30  2  0  0  0
 32 31  2  0  0  0
 30 31  1  0  0  0
 25  2  1  0  0  0
 17 14  1  0  0  0
  9  8  2  0  0  0
  2  1  1  0  0  0
  2  3  1  0  0  0
  1  5  1  0  0  0
  1  7  1  0  0  0
  3  4  1  0  0  0
  4  5  1  0  0  0
 14 13  2  0  0  0
 14 15  1  0  0  0
  8  7  1  0  0  0
  8 15  1  0  0  0
  8 10  2  0  0  0
  7 18  1  0  0  0
 21 20  2  0  0  0
 21 22  1  0  0  0
 13 12  1  0  0  0
 20 19  1  0  0  0
 15 16  2  0  0  0
 22 23  2  0  0  0
 19 18  1  0  0  0
 19 24  2  0  0  0
 12 11  2  0  0  0
 16 11  1  0  0  0
 23 24  1  0  0  0
  4  6  1  0  0  0
M  END
> <minimizedAffinity>
-9.55455

$$$$
2QNQ_QN3_A_2501


 42 46  0  0  0  0  0  0  0  0999 V2000
  -17.6566   19.5903   -4.6267 C   0  0  0  0  0  0  0  0  0  0  0  0
  -19.1604   20.0492   -4.7814 C   0  0  0  0  0  0  0  0  0  0  0  0
  -19.6231   20.1917   -3.3068 C   0  0  0  0  0  0  0  0  0  0  0  0
  -18.8571   19.1786   -2.5396 N   0  0  0  0  0  0  0  0  0  0  0  0
  -17.5261   19.0444   -3.1754 C   0  0  0  0  0  0  0  0  0  0  0  0
  -19.3450   18.2832   -2.5627 H   0  0  0  0  0  0  0  0  0  0  0  0
  -16.6232   20.6216   -4.9655 N   0  0  0  0  0  0  0  0  0  0  0  0
  -14.9894   19.9928   -5.2895 S   0  0  0  0  0  0  0  0  0  0  0  0
  -14.1569   20.5230   -4.2187 O   0  0  0  0  0  0  0  0  0  0  0  0
  -15.0011   18.6002   -5.7197 O   0  0  0  0  0  0  0  0  0  0  0  0
  -15.4597   20.9730   -9.2586 C   0  0  0  0  0  0  0  0  0  0  0  0
  -14.5407   22.0233   -9.4977 C   0  0  0  0  0  0  0  0  0  0  0  0
  -13.7257   22.4959   -8.4398 C   0  0  0  0  0  0  0  0  0  0  0  0
  -13.8145   21.9243   -7.1363 C   0  0  0  0  0  0  0  0  0  0  0  0
  -14.7390   20.8574   -6.8737 C   0  0  0  0  0  0  0  0  0  0  0  0
  -15.5553   20.3995   -7.9611 C   0  0  0  0  0  0  0  0  0  0  0  0
  -12.7829   22.5706   -5.9189 Cl  0  0  0  0  0  0  0  0  0  0  0  0
  -16.8969   22.0785   -5.0446 C   0  0  0  0  0  0  0  0  0  0  0  0
  -16.1632   23.0341   -4.1030 C   0  0  0  0  0  0  0  0  0  0  0  0
  -15.4410   24.1536   -4.5918 C   0  0  0  0  0  0  0  0  0  0  0  0
  -14.7611   25.0158   -3.6824 C   0  0  0  0  0  0  0  0  0  0  0  0
  -14.8005   24.7631   -2.2777 C   0  0  0  0  0  0  0  0  0  0  0  0
  -15.5236   23.6427   -1.7856 C   0  0  0  0  0  0  0  0  0  0  0  0
  -16.2000   22.7837   -2.6961 C   0  0  0  0  0  0  0  0  0  0  0  0
  -19.9604   19.1272   -5.6459 N   0  0  0  0  0  0  0  0  0  0  0  0
  -20.7171   17.7470   -4.9021 S   0  0  0  0  0  0  0  0  0  0  0  0
  -19.6737   16.7724   -4.6533 O   0  0  0  0  0  0  0  0  0  0  0  0
  -21.4572   18.2241   -3.7353 O   0  0  0  0  0  0  0  0  0  0  0  0
  -21.9741   17.0161   -5.9676 C   0  0  0  0  0  0  0  0  0  0  0  0
  -23.3024   17.5246   -5.8846 C   0  0  0  0  0  0  0  0  0  0  0  0
  -24.3436   17.0050   -6.7064 C   0  0  0  0  0  0  0  0  0  0  0  0
  -24.0631   15.9591   -7.6329 C   0  0  0  0  0  0  0  0  0  0  0  0
  -22.7415   15.4381   -7.7325 C   0  0  0  0  0  0  0  0  0  0  0  0
  -21.6954   15.9577   -6.9081 C   0  0  0  0  0  0  0  0  0  0  0  0
  -20.0997   15.2783   -7.0911 Cl  0  0  0  0  0  0  0  0  0  0  0  0
  -20.1190   19.3061   -7.1119 C   0  0  0  0  0  0  0  0  0  0  0  0
  -19.1724   18.4395   -7.9828 C   0  0  0  0  0  0  0  0  0  0  0  0
  -19.5302   18.1010   -9.3242 C   0  0  0  0  0  0  0  0  0  0  0  0
  -18.6709   17.2971  -10.1241 C   0  0  0  0  0  0  0  0  0  0  0  0
  -17.4379   16.8222   -9.5914 C   0  0  0  0  0  0  0  0  0  0  0  0
  -17.0693   17.1545   -8.2569 C   0  0  0  0  0  0  0  0  0  0  0  0
  -17.9318   17.9568   -7.4615 C   0  0  0  0  0  0  0  0  0  0  0  0
 28 26  2  0  0  0
 39 38  2  0  0  0
 39 40  1  0  0  0
 35 34  1  0  0  0
 38 37  1  0  0  0
 40 41  2  0  0  0
 34 33  2  0  0  0
 34 29  1  0  0  0
 37 36  1  0  0  0
 37 42  2  0  0  0
 41 42  1  0  0  0
 33 32  1  0  0  0
 26 29  1  0  0  0
 26 27  2  0  0  0
 26 25  1  0  0  0
 36 25  1  0  0  0
 29 30  2  0  0  0
 32 31  2  0  0  0
 30 31  1  0  0  0
 25  2  1  0  0  0
 17 14  1  0  0  0
  9  8  2  0  0  0
  2  1  1  0  0  0
  2  3  1  0  0  0
  1  5  1  0  0  0
  1  7  1  0  0  0
  3  4  1  0  0  0
  4  5  1  0  0  0
 14 13  2  0  0  0
 14 15  1  0  0  0
  8  7  1  0  0  0
  8 15  1  0  0  0
  8 10  2  0  0  0
  7 18  1  0  0  0
 21 20  2  0  0  0
 21 22  1  0  0  0
 13 12  1  0  0  0
 20 19  1  0  0  0
 15 16  2  0  0  0
 22 23  2  0  0  0
 19 18  1  0  0  0
 19 24  2  0  0  0
 12 11  2  0  0  0
 16 11  1  0  0  0
 23 24  1  0  0  0
  4  6  1  0  0  0
M  END
> <minimizedAffinity>
-9.31841

$$$$
2QNQ_QN3_A_2501


 42 46  0  0  0  0  0  0  0  0999 V2000
  -17.9523   19.9690   -6.1725 C   0  0  0  0  0  0  0  0  0  0  0  0
  -17.1372   20.5107   -4.9322 C   0  0  0  0  0  0  0  0  0  0  0  0
  -18.2477   21.1336   -4.0448 C   0  0  0  0  0  0  0  0  0  0  0  0
  -19.2850   21.6334   -4.9808 N   0  0  0  0  0  0  0  0  0  0  0  0
  -19.3130   20.7233   -6.1490 C   0  0  0  0  0  0  0  0  0  0  0  0
  -19.0535   22.5797   -5.2830 H   0  0  0  0  0  0  0  0  0  0  0  0
  -18.1030   18.4800   -6.2522 N   0  0  0  0  0  0  0  0  0  0  0  0
  -18.0331   17.7886   -7.8914 S   0  0  0  0  0  0  0  0  0  0  0  0
  -18.0304   18.9350   -8.7895 O   0  0  0  0  0  0  0  0  0  0  0  0
  -17.1157   16.6597   -7.9837 O   0  0  0  0  0  0  0  0  0  0  0  0
  -20.7923   14.8018   -7.2580 C   0  0  0  0  0  0  0  0  0  0  0  0
  -22.0364   15.3493   -7.6545 C   0  0  0  0  0  0  0  0  0  0  0  0
  -22.0951   16.6808   -8.1346 C   0  0  0  0  0  0  0  0  0  0  0  0
  -20.9159   17.4772   -8.2288 C   0  0  0  0  0  0  0  0  0  0  0  0
  -19.6444   16.9400   -7.8332 C   0  0  0  0  0  0  0  0  0  0  0  0
  -19.6126   15.5904   -7.3473 C   0  0  0  0  0  0  0  0  0  0  0  0
  -21.0935   19.0834   -8.8224 Cl  0  0  0  0  0  0  0  0  0  0  0  0
  -18.2928   17.5989   -5.0727 C   0  0  0  0  0  0  0  0  0  0  0  0
  -19.4973   17.8172   -4.1564 C   0  0  0  0  0  0  0  0  0  0  0  0
  -20.8230   17.8442   -4.6620 C   0  0  0  0  0  0  0  0  0  0  0  0
  -21.9194   18.0608   -3.7767 C   0  0  0  0  0  0  0  0  0  0  0  0
  -21.6956   18.2511   -2.3795 C   0  0  0  0  0  0  0  0  0  0  0  0
  -20.3687   18.2242   -1.8705 C   0  0  0  0  0  0  0  0  0  0  0  0
  -19.2769   18.0089   -2.7571 C   0  0  0  0  0  0  0  0  0  0  0  0
  -16.0139   21.4152   -5.3288 N   0  0  0  0  0  0  0  0  0  0  0  0
  -14.5239   20.6939   -5.8675 S   0  0  0  0  0  0  0  0  0  0  0  0
  -13.6926   20.5086   -4.6947 O   0  0  0  0  0  0  0  0  0  0  0  0
  -14.8636   19.4904   -6.6243 O   0  0  0  0  0  0  0  0  0  0  0  0
  -13.6598   21.7439   -7.0509 C   0  0  0  0  0  0  0  0  0  0  0  0
  -12.4766   22.4095   -6.6186 C   0  0  0  0  0  0  0  0  0  0  0  0
  -11.7344   23.2435   -7.5035 C   0  0  0  0  0  0  0  0  0  0  0  0
  -12.1728   23.4214   -8.8477 C   0  0  0  0  0  0  0  0  0  0  0  0
  -13.3521   22.7637   -9.3001 C   0  0  0  0  0  0  0  0  0  0  0  0
  -14.0986   21.9269   -8.4133 C   0  0  0  0  0  0  0  0  0  0  0  0
  -15.5268   21.1457   -9.0388 Cl  0  0  0  0  0  0  0  0  0  0  0  0
  -16.0880   22.8970   -5.2582 C   0  0  0  0  0  0  0  0  0  0  0  0
  -15.2586   23.5398   -4.1160 C   0  0  0  0  0  0  0  0  0  0  0  0
  -14.4700   24.7058   -4.3618 C   0  0  0  0  0  0  0  0  0  0  0  0
  -13.6983   25.2932   -3.3206 C   0  0  0  0  0  0  0  0  0  0  0  0
  -13.7078   24.7213   -2.0159 C   0  0  0  0  0  0  0  0  0  0  0  0
  -14.4913   23.5607   -1.7581 C   0  0  0  0  0  0  0  0  0  0  0  0
  -15.2593   22.9770   -2.8019 C   0  0  0  0  0  0  0  0  0  0  0  0
 28 26  2  0  0  0
 39 38  2  0  0  0
 39 40  1  0  0  0
 35 34  1  0  0  0
 38 37  1  0  0  0
 40 41  2  0  0  0
 34 33  2  0  0  0
 34 29  1  0  0  0
 37 36  1  0  0  0
 37 42  2  0  0  0
 41 42  1  0  0  0
 33 32  1  0  0  0
 26 29  1  0  0  0
 26 27  2  0  0  0
 26 25  1  0  0  0
 36 25  1  0  0  0
 29 30  2  0  0  0
 32 31  2  0  0  0
 30 31  1  0  0  0
 25  2  1  0  0  0
 17 14  1  0  0  0
  9  8  2  0  0  0
  2  1  1  0  0  0
  2  3  1  0  0  0
  1  5  1  0  0  0
  1  7  1  0  0  0
  3  4  1  0  0  0
  4  5  1  0  0  0
 14 13  2  0  0  0
 14 15  1  0  0  0
  8  7  1  0  0  0
  8 15  1  0  0  0
  8 10  2  0  0  0
  7 18  1  0  0  0
 21 20  2  0  0  0
 21 22  1  0  0  0
 13 12  1  0  0  0
 20 19  1  0  0  0
 15 16  2  0  0  0
 22 23  2  0  0  0
 19 18  1  0  0  0
 19 24  2  0  0  0
 12 11  2  0  0  0
 16 11  1  0  0  0
 23 24  1  0  0  0
  4  6  1  0  0  0
M  END
> <minimizedAffinity>
-9.18378

$$$$
2QNQ_QN3_A_2501


 42 46  0  0  0  0  0  0  0  0999 V2000
  -14.9317   19.9817   -6.3125 C   0  0  0  0  0  0  0  0  0  0  0  0
  -16.4838   19.8480   -6.0490 C   0  0  0  0  0  0  0  0  0  0  0  0
  -16.6132   20.2871   -4.5660 C   0  0  0  0  0  0  0  0  0  0  0  0
  -15.3478   19.8778   -3.9077 N   0  0  0  0  0  0  0  0  0  0  0  0
  -14.2619   19.9951   -4.9080 C   0  0  0  0  0  0  0  0  0  0  0  0
  -15.4203   18.9128   -3.5852 H   0  0  0  0  0  0  0  0  0  0  0  0
  -14.5151   21.1329   -7.1771 N   0  0  0  0  0  0  0  0  0  0  0  0
  -13.6959   20.6943   -8.6958 S   0  0  0  0  0  0  0  0  0  0  0  0
  -13.2802   19.3097   -8.5193 O   0  0  0  0  0  0  0  0  0  0  0  0
  -14.3843   21.2107   -9.8722 O   0  0  0  0  0  0  0  0  0  0  0  0
   -9.9946   22.1768   -7.6769 C   0  0  0  0  0  0  0  0  0  0  0  0
   -9.9887   23.5176   -8.1319 C   0  0  0  0  0  0  0  0  0  0  0  0
  -11.1296   24.0397   -8.7893 C   0  0  0  0  0  0  0  0  0  0  0  0
  -12.2881   23.2339   -8.9954 C   0  0  0  0  0  0  0  0  0  0  0  0
  -12.3147   21.8723   -8.5402 C   0  0  0  0  0  0  0  0  0  0  0  0
  -11.1452   21.3667   -7.8805 C   0  0  0  0  0  0  0  0  0  0  0  0
  -13.6212   23.9608   -9.8067 Cl  0  0  0  0  0  0  0  0  0  0  0  0
  -14.7536   22.5578   -6.8365 C   0  0  0  0  0  0  0  0  0  0  0  0
  -14.2338   23.1114   -5.5093 C   0  0  0  0  0  0  0  0  0  0  0  0
  -12.8486   23.1318   -5.2017 C   0  0  0  0  0  0  0  0  0  0  0  0
  -12.4040   23.6467   -3.9487 C   0  0  0  0  0  0  0  0  0  0  0  0
  -13.3433   24.1451   -2.9960 C   0  0  0  0  0  0  0  0  0  0  0  0
  -14.7313   24.1262   -3.3019 C   0  0  0  0  0  0  0  0  0  0  0  0
  -15.1715   23.6106   -4.5528 C   0  0  0  0  0  0  0  0  0  0  0  0
  -17.0139   18.4922   -6.3924 N   0  0  0  0  0  0  0  0  0  0  0  0
  -17.1458   18.0586   -8.0732 S   0  0  0  0  0  0  0  0  0  0  0  0
  -17.1588   19.2938   -8.8314 O   0  0  0  0  0  0  0  0  0  0  0  0
  -16.0670   17.1191   -8.3733 O   0  0  0  0  0  0  0  0  0  0  0  0
  -18.6569   17.1357   -8.4112 C   0  0  0  0  0  0  0  0  0  0  0  0
  -18.5375   15.7648   -8.7804 C   0  0  0  0  0  0  0  0  0  0  0  0
  -19.6892   14.9701   -9.0480 C   0  0  0  0  0  0  0  0  0  0  0  0
  -20.9890   15.5453   -8.9463 C   0  0  0  0  0  0  0  0  0  0  0  0
  -21.1301   16.9134   -8.5771 C   0  0  0  0  0  0  0  0  0  0  0  0
  -19.9756   17.7127   -8.3088 C   0  0  0  0  0  0  0  0  0  0  0  0
  -20.2247   19.3775   -7.8527 Cl  0  0  0  0  0  0  0  0  0  0  0  0
  -17.4650   17.5051   -5.3782 C   0  0  0  0  0  0  0  0  0  0  0  0
  -18.9638   17.6029   -4.9916 C   0  0  0  0  0  0  0  0  0  0  0  0
  -19.8262   16.4739   -5.1451 C   0  0  0  0  0  0  0  0  0  0  0  0
  -21.2045   16.5611   -4.8027 C   0  0  0  0  0  0  0  0  0  0  0  0
  -21.7385   17.7818   -4.2984 C   0  0  0  0  0  0  0  0  0  0  0  0
  -20.8888   18.9130   -4.1388 C   0  0  0  0  0  0  0  0  0  0  0  0
  -19.5130   18.8212   -4.4837 C   0  0  0  0  0  0  0  0  0  0  0  0
 28 26  2  0  0  0
 39 38  2  0  0  0
 39 40  1  0  0  0
 35 34  1  0  0  0
 38 37  1  0  0  0
 40 41  2  0  0  0
 34 33  2  0  0  0
 34 29  1  0  0  0
 37 36  1  0  0  0
 37 42  2  0  0  0
 41 42  1  0  0  0
 33 32  1  0  0  0
 26 29  1  0  0  0
 26 27  2  0  0  0
 26 25  1  0  0  0
 36 25  1  0  0  0
 29 30  2  0  0  0
 32 31  2  0  0  0
 30 31  1  0  0  0
 25  2  1  0  0  0
 17 14  1  0  0  0
  9  8  2  0  0  0
  2  1  1  0  0  0
  2  3  1  0  0  0
  1  5  1  0  0  0
  1  7  1  0  0  0
  3  4  1  0  0  0
  4  5  1  0  0  0
 14 13  2  0  0  0
 14 15  1  0  0  0
  8  7  1  0  0  0
  8 15  1  0  0  0
  8 10  2  0  0  0
  7 18  1  0  0  0
 21 20  2  0  0  0
 21 22  1  0  0  0
 13 12  1  0  0  0
 20 19  1  0  0  0
 15 16  2  0  0  0
 22 23  2  0  0  0
 19 18  1  0  0  0
 19 24  2  0  0  0
 12 11  2  0  0  0
 16 11  1  0  0  0
 23 24  1  0  0  0
  4  6  1  0  0  0
M  END
> <minimizedAffinity>
-9.15894

$$$$
2QNQ_QN3_A_2501


 42 46  0  0  0  0  0  0  0  0999 V2000
  -20.0030   18.8901   -5.0661 C   0  0  0  0  0  0  0  0  0  0  0  0
  -18.4804   18.5936   -4.7666 C   0  0  0  0  0  0  0  0  0  0  0  0
  -18.4555   18.4880   -3.2183 C   0  0  0  0  0  0  0  0  0  0  0  0
  -19.5123   19.4081   -2.7300 N   0  0  0  0  0  0  0  0  0  0  0  0
  -20.6065   19.4066   -3.7282 C   0  0  0  0  0  0  0  0  0  0  0  0
  -19.1341   20.3501   -2.6304 H   0  0  0  0  0  0  0  0  0  0  0  0
  -20.7804   17.7584   -5.6674 N   0  0  0  0  0  0  0  0  0  0  0  0
  -21.3883   16.5469   -4.5131 S   0  0  0  0  0  0  0  0  0  0  0  0
  -20.7256   15.3032   -4.8806 O   0  0  0  0  0  0  0  0  0  0  0  0
  -21.4835   17.0667   -3.1547 O   0  0  0  0  0  0  0  0  0  0  0  0
  -25.3399   17.6884   -4.6426 C   0  0  0  0  0  0  0  0  0  0  0  0
  -25.9284   16.8912   -5.6541 C   0  0  0  0  0  0  0  0  0  0  0  0
  -25.1326   15.9575   -6.3622 C   0  0  0  0  0  0  0  0  0  0  0  0
  -23.7457   15.8053   -6.0668 C   0  0  0  0  0  0  0  0  0  0  0  0
  -23.1304   16.6031   -5.0436 C   0  0  0  0  0  0  0  0  0  0  0  0
  -23.9574   17.5437   -4.3437 C   0  0  0  0  0  0  0  0  0  0  0  0
  -22.8656   14.6454   -6.9853 Cl  0  0  0  0  0  0  0  0  0  0  0  0
  -21.0565   17.6179   -7.1191 C   0  0  0  0  0  0  0  0  0  0  0  0
  -19.9212   17.2291   -8.0668 C   0  0  0  0  0  0  0  0  0  0  0  0
  -19.4319   15.8989   -8.1375 C   0  0  0  0  0  0  0  0  0  0  0  0
  -18.3647   15.5781   -9.0266 C   0  0  0  0  0  0  0  0  0  0  0  0
  -17.7808   16.5868   -9.8513 C   0  0  0  0  0  0  0  0  0  0  0  0
  -18.2693   17.9199   -9.7827 C   0  0  0  0  0  0  0  0  0  0  0  0
  -19.3338   18.2367   -8.8934 C   0  0  0  0  0  0  0  0  0  0  0  0
  -17.5630   19.6022   -5.3816 N   0  0  0  0  0  0  0  0  0  0  0  0
  -16.0289   19.0559   -5.9973 S   0  0  0  0  0  0  0  0  0  0  0  0
  -15.1189   18.9871   -4.8713 O   0  0  0  0  0  0  0  0  0  0  0  0
  -16.2631   17.8101   -6.7252 O   0  0  0  0  0  0  0  0  0  0  0  0
  -15.3624   20.1847   -7.2346 C   0  0  0  0  0  0  0  0  0  0  0  0
  -15.9387   20.1684   -8.5374 C   0  0  0  0  0  0  0  0  0  0  0  0
  -15.4725   21.0427   -9.5611 C   0  0  0  0  0  0  0  0  0  0  0  0
  -14.4124   21.9551   -9.2882 C   0  0  0  0  0  0  0  0  0  0  0  0
  -13.8238   21.9883   -7.9919 C   0  0  0  0  0  0  0  0  0  0  0  0
  -14.2899   21.1113   -6.9635 C   0  0  0  0  0  0  0  0  0  0  0  0
  -13.5289   21.2141   -5.3977 Cl  0  0  0  0  0  0  0  0  0  0  0  0
  -17.8748   21.0519   -5.4679 C   0  0  0  0  0  0  0  0  0  0  0  0
  -16.9287   21.9740   -4.6553 C   0  0  0  0  0  0  0  0  0  0  0  0
  -16.4108   23.1724   -5.2362 C   0  0  0  0  0  0  0  0  0  0  0  0
  -15.5336   24.0163   -4.4995 C   0  0  0  0  0  0  0  0  0  0  0  0
  -15.1642   23.6722   -3.1673 C   0  0  0  0  0  0  0  0  0  0  0  0
  -15.6754   22.4818   -2.5767 C   0  0  0  0  0  0  0  0  0  0  0  0
  -16.5503   21.6415   -3.3174 C   0  0  0  0  0  0  0  0  0  0  0  0
 28 26  2  0  0  0
 39 38  2  0  0  0
 39 40  1  0  0  0
 35 34  1  0  0  0
 38 37  1  0  0  0
 40 41  2  0  0  0
 34 33  2  0  0  0
 34 29  1  0  0  0
 37 36  1  0  0  0
 37 42  2  0  0  0
 41 42  1  0  0  0
 33 32  1  0  0  0
 26 29  1  0  0  0
 26 27  2  0  0  0
 26 25  1  0  0  0
 36 25  1  0  0  0
 29 30  2  0  0  0
 32 31  2  0  0  0
 30 31  1  0  0  0
 25  2  1  0  0  0
 17 14  1  0  0  0
  9  8  2  0  0  0
  2  1  1  0  0  0
  2  3  1  0  0  0
  1  5  1  0  0  0
  1  7  1  0  0  0
  3  4  1  0  0  0
  4  5  1  0  0  0
 14 13  2  0  0  0
 14 15  1  0  0  0
  8  7  1  0  0  0
  8 15  1  0  0  0
  8 10  2  0  0  0
  7 18  1  0  0  0
 21 20  2  0  0  0
 21 22  1  0  0  0
 13 12  1  0  0  0
 20 19  1  0  0  0
 15 16  2  0  0  0
 22 23  2  0  0  0
 19 18  1  0  0  0
 19 24  2  0  0  0
 12 11  2  0  0  0
 16 11  1  0  0  0
 23 24  1  0  0  0
  4  6  1  0  0  0
M  END
> <minimizedAffinity>
-9.15125

$$$$
2QNQ_QN3_A_2501


 42 46  0  0  0  0  0  0  0  0999 V2000
  -19.7255   18.6769   -4.3823 C   0  0  0  0  0  0  0  0  0  0  0  0
  -18.3535   19.1741   -4.9877 C   0  0  0  0  0  0  0  0  0  0  0  0
  -17.3160   18.2985   -4.2356 C   0  0  0  0  0  0  0  0  0  0  0  0
  -17.8959   18.0409   -2.8942 N   0  0  0  0  0  0  0  0  0  0  0  0
  -19.3669   17.9620   -3.0476 C   0  0  0  0  0  0  0  0  0  0  0  0
  -17.6531   18.8011   -2.2589 H   0  0  0  0  0  0  0  0  0  0  0  0
  -20.5731   17.8401   -5.2921 N   0  0  0  0  0  0  0  0  0  0  0  0
  -21.3669   16.4409   -4.5291 S   0  0  0  0  0  0  0  0  0  0  0  0
  -20.4217   15.3420   -4.6699 O   0  0  0  0  0  0  0  0  0  0  0  0
  -22.0525   16.7927   -3.2919 O   0  0  0  0  0  0  0  0  0  0  0  0
  -25.0704   17.1366   -6.1830 C   0  0  0  0  0  0  0  0  0  0  0  0
  -25.1214   16.3277   -7.3441 C   0  0  0  0  0  0  0  0  0  0  0  0
  -24.0066   15.5240   -7.6878 C   0  0  0  0  0  0  0  0  0  0  0  0
  -22.8336   15.5145   -6.8769 C   0  0  0  0  0  0  0  0  0  0  0  0
  -22.7626   16.3266   -5.6947 C   0  0  0  0  0  0  0  0  0  0  0  0
  -23.9035   17.1339   -5.3706 C   0  0  0  0  0  0  0  0  0  0  0  0
  -21.5330   14.5059   -7.3818 Cl  0  0  0  0  0  0  0  0  0  0  0  0
  -20.7731   18.1223   -6.7356 C   0  0  0  0  0  0  0  0  0  0  0  0
  -19.7323   17.6416   -7.7475 C   0  0  0  0  0  0  0  0  0  0  0  0
  -18.7392   16.6894   -7.4000 C   0  0  0  0  0  0  0  0  0  0  0  0
  -17.7796   16.2740   -8.3691 C   0  0  0  0  0  0  0  0  0  0  0  0
  -17.8084   16.8087   -9.6926 C   0  0  0  0  0  0  0  0  0  0  0  0
  -18.8025   17.7623  -10.0434 C   0  0  0  0  0  0  0  0  0  0  0  0
  -19.7579   18.1754   -9.0734 C   0  0  0  0  0  0  0  0  0  0  0  0
  -18.1780   20.6558   -4.8822 N   0  0  0  0  0  0  0  0  0  0  0  0
  -17.6828   21.5318   -6.3028 S   0  0  0  0  0  0  0  0  0  0  0  0
  -18.2023   20.8123   -7.4487 O   0  0  0  0  0  0  0  0  0  0  0  0
  -18.1251   22.9160   -6.1451 O   0  0  0  0  0  0  0  0  0  0  0  0
  -15.8882   21.6418   -6.4313 C   0  0  0  0  0  0  0  0  0  0  0  0
  -15.2503   22.8141   -5.9325 C   0  0  0  0  0  0  0  0  0  0  0  0
  -13.8347   22.9636   -5.9876 C   0  0  0  0  0  0  0  0  0  0  0  0
  -13.0318   21.9281   -6.5480 C   0  0  0  0  0  0  0  0  0  0  0  0
  -13.6497   20.7476   -7.0506 C   0  0  0  0  0  0  0  0  0  0  0  0
  -15.0703   20.5961   -6.9968 C   0  0  0  0  0  0  0  0  0  0  0  0
  -15.7568   19.1198   -7.6221 Cl  0  0  0  0  0  0  0  0  0  0  0  0
  -18.3720   21.4187   -3.6226 C   0  0  0  0  0  0  0  0  0  0  0  0
  -17.0685   21.9542   -2.9747 C   0  0  0  0  0  0  0  0  0  0  0  0
  -15.8699   21.1770   -3.0108 C   0  0  0  0  0  0  0  0  0  0  0  0
  -14.6741   21.6583   -2.4083 C   0  0  0  0  0  0  0  0  0  0  0  0
  -14.6616   22.9281   -1.7625 C   0  0  0  0  0  0  0  0  0  0  0  0
  -15.8489   23.7127   -1.7219 C   0  0  0  0  0  0  0  0  0  0  0  0
  -17.0413   23.2268   -2.3239 C   0  0  0  0  0  0  0  0  0  0  0  0
 28 26  2  0  0  0
 39 38  2  0  0  0
 39 40  1  0  0  0
 35 34  1  0  0  0
 38 37  1  0  0  0
 40 41  2  0  0  0
 34 33  2  0  0  0
 34 29  1  0  0  0
 37 36  1  0  0  0
 37 42  2  0  0  0
 41 42  1  0  0  0
 33 32  1  0  0  0
 26 29  1  0  0  0
 26 27  2  0  0  0
 26 25  1  0  0  0
 36 25  1  0  0  0
 29 30  2  0  0  0
 32 31  2  0  0  0
 30 31  1  0  0  0
 25  2  1  0  0  0
 17 14  1  0  0  0
  9  8  2  0  0  0
  2  1  1  0  0  0
  2  3  1  0  0  0
  1  5  1  0  0  0
  1  7  1  0  0  0
  3  4  1  0  0  0
  4  5  1  0  0  0
 14 13  2  0  0  0
 14 15  1  0  0  0
  8  7  1  0  0  0
  8 15  1  0  0  0
  8 10  2  0  0  0
  7 18  1  0  0  0
 21 20  2  0  0  0
 21 22  1  0  0  0
 13 12  1  0  0  0
 20 19  1  0  0  0
 15 16  2  0  0  0
 22 23  2  0  0  0
 19 18  1  0  0  0
 19 24  2  0  0  0
 12 11  2  0  0  0
 16 11  1  0  0  0
 23 24  1  0  0  0
  4  6  1  0  0  0
M  END
> <minimizedAffinity>
-9.12250

$$$$
2QNQ_QN3_A_2501


 42 46  0  0  0  0  0  0  0  0999 V2000
  -17.1690   20.4378   -5.7322 C   0  0  0  0  0  0  0  0  0  0  0  0
  -16.6305   20.6233   -4.2585 C   0  0  0  0  0  0  0  0  0  0  0  0
  -17.9016   21.0715   -3.4888 C   0  0  0  0  0  0  0  0  0  0  0  0
  -18.7205   21.8341   -4.4633 N   0  0  0  0  0  0  0  0  0  0  0  0
  -18.5044   21.2336   -5.7999 C   0  0  0  0  0  0  0  0  0  0  0  0
  -18.4306   22.8120   -4.4708 H   0  0  0  0  0  0  0  0  0  0  0  0
  -17.3004   19.0212   -6.2036 N   0  0  0  0  0  0  0  0  0  0  0  0
  -17.0034   18.7599   -7.9396 S   0  0  0  0  0  0  0  0  0  0  0  0
  -16.8287   20.0920   -8.5018 O   0  0  0  0  0  0  0  0  0  0  0  0
  -16.1180   17.6299   -8.1918 O   0  0  0  0  0  0  0  0  0  0  0  0
  -21.0927   18.4268   -8.2585 C   0  0  0  0  0  0  0  0  0  0  0  0
  -21.3232   17.1436   -8.8111 C   0  0  0  0  0  0  0  0  0  0  0  0
  -20.2234   16.3081   -9.1255 C   0  0  0  0  0  0  0  0  0  0  0  0
  -18.8851   16.7399   -8.8883 C   0  0  0  0  0  0  0  0  0  0  0  0
  -18.6302   18.0369   -8.3271 C   0  0  0  0  0  0  0  0  0  0  0  0
  -19.7611   18.8650   -8.0209 C   0  0  0  0  0  0  0  0  0  0  0  0
  -17.6186   15.6515   -9.3068 Cl  0  0  0  0  0  0  0  0  0  0  0  0
  -17.6456   17.8793   -5.3203 C   0  0  0  0  0  0  0  0  0  0  0  0
  -19.1151   17.5314   -5.0799 C   0  0  0  0  0  0  0  0  0  0  0  0
  -20.0057   18.4458   -4.4598 C   0  0  0  0  0  0  0  0  0  0  0  0
  -21.3666   18.0802   -4.2437 C   0  0  0  0  0  0  0  0  0  0  0  0
  -21.8450   16.7970   -4.6476 C   0  0  0  0  0  0  0  0  0  0  0  0
  -20.9551   15.8795   -5.2694 C   0  0  0  0  0  0  0  0  0  0  0  0
  -19.5972   16.2473   -5.4825 C   0  0  0  0  0  0  0  0  0  0  0  0
  -15.4489   21.5373   -4.1853 N   0  0  0  0  0  0  0  0  0  0  0  0
  -15.7243   23.2142   -3.8073 S   0  0  0  0  0  0  0  0  0  0  0  0
  -16.2435   23.8409   -5.0066 O   0  0  0  0  0  0  0  0  0  0  0  0
  -16.5775   23.2657   -2.6216 O   0  0  0  0  0  0  0  0  0  0  0  0
  -14.2056   24.0476   -3.3087 C   0  0  0  0  0  0  0  0  0  0  0  0
  -13.5558   24.8846   -4.2610 C   0  0  0  0  0  0  0  0  0  0  0  0
  -12.3600   25.5856   -3.9322 C   0  0  0  0  0  0  0  0  0  0  0  0
  -11.7953   25.4562   -2.6301 C   0  0  0  0  0  0  0  0  0  0  0  0
  -12.4303   24.6257   -1.6632 C   0  0  0  0  0  0  0  0  0  0  0  0
  -13.6300   23.9209   -1.9915 C   0  0  0  0  0  0  0  0  0  0  0  0
  -14.3578   22.9301   -0.7545 Cl  0  0  0  0  0  0  0  0  0  0  0  0
  -14.0540   21.1000   -4.4490 C   0  0  0  0  0  0  0  0  0  0  0  0
  -13.6246   21.1462   -5.9386 C   0  0  0  0  0  0  0  0  0  0  0  0
  -13.6965   19.9719   -6.7496 C   0  0  0  0  0  0  0  0  0  0  0  0
  -13.2933   20.0057   -8.1137 C   0  0  0  0  0  0  0  0  0  0  0  0
  -12.8139   21.2190   -8.6861 C   0  0  0  0  0  0  0  0  0  0  0  0
  -12.7396   22.3963   -7.8889 C   0  0  0  0  0  0  0  0  0  0  0  0
  -13.1423   22.3569   -6.5263 C   0  0  0  0  0  0  0  0  0  0  0  0
 28 26  2  0  0  0
 39 38  2  0  0  0
 39 40  1  0  0  0
 35 34  1  0  0  0
 38 37  1  0  0  0
 40 41  2  0  0  0
 34 33  2  0  0  0
 34 29  1  0  0  0
 37 36  1  0  0  0
 37 42  2  0  0  0
 41 42  1  0  0  0
 33 32  1  0  0  0
 26 29  1  0  0  0
 26 27  2  0  0  0
 26 25  1  0  0  0
 36 25  1  0  0  0
 29 30  2  0  0  0
 32 31  2  0  0  0
 30 31  1  0  0  0
 25  2  1  0  0  0
 17 14  1  0  0  0
  9  8  2  0  0  0
  2  1  1  0  0  0
  2  3  1  0  0  0
  1  5  1  0  0  0
  1  7  1  0  0  0
  3  4  1  0  0  0
  4  5  1  0  0  0
 14 13  2  0  0  0
 14 15  1  0  0  0
  8  7  1  0  0  0
  8 15  1  0  0  0
  8 10  2  0  0  0
  7 18  1  0  0  0
 21 20  2  0  0  0
 21 22  1  0  0  0
 13 12  1  0  0  0
 20 19  1  0  0  0
 15 16  2  0  0  0
 22 23  2  0  0  0
 19 18  1  0  0  0
 19 24  2  0  0  0
 12 11  2  0  0  0
 16 11  1  0  0  0
 23 24  1  0  0  0
  4  6  1  0  0  0
M  END
> <minimizedAffinity>
-9.10488

$$$$
2QNQ_QN3_A_2501


 42 46  0  0  0  0  0  0  0  0999 V2000
  -17.7917   20.0274   -6.1628 C   0  0  0  0  0  0  0  0  0  0  0  0
  -17.1045   20.4301   -4.7984 C   0  0  0  0  0  0  0  0  0  0  0  0
  -18.3041   20.9337   -3.9522 C   0  0  0  0  0  0  0  0  0  0  0  0
  -19.2626   21.5276   -4.9167 N   0  0  0  0  0  0  0  0  0  0  0  0
  -19.1649   20.7592   -6.1791 C   0  0  0  0  0  0  0  0  0  0  0  0
  -19.0249   22.5050   -5.0857 H   0  0  0  0  0  0  0  0  0  0  0  0
  -17.9027   18.5562   -6.4263 N   0  0  0  0  0  0  0  0  0  0  0  0
  -17.6175   18.0550   -8.1108 S   0  0  0  0  0  0  0  0  0  0  0  0
  -17.7310   19.2758   -8.8968 O   0  0  0  0  0  0  0  0  0  0  0  0
  -16.5332   17.0883   -8.2309 O   0  0  0  0  0  0  0  0  0  0  0  0
  -19.8605   14.6096   -8.2938 C   0  0  0  0  0  0  0  0  0  0  0  0
  -21.1946   15.0400   -8.4933 C   0  0  0  0  0  0  0  0  0  0  0  0
  -21.4794   16.4252   -8.5749 C   0  0  0  0  0  0  0  0  0  0  0  0
  -20.4388   17.3940   -8.4636 C   0  0  0  0  0  0  0  0  0  0  0  0
  -19.0792   16.9780   -8.2626 C   0  0  0  0  0  0  0  0  0  0  0  0
  -18.8180   15.5697   -8.1800 C   0  0  0  0  0  0  0  0  0  0  0  0
  -20.8888   19.0520   -8.5737 Cl  0  0  0  0  0  0  0  0  0  0  0  0
  -18.2196   17.5464   -5.3855 C   0  0  0  0  0  0  0  0  0  0  0  0
  -19.4650   17.7265   -4.5168 C   0  0  0  0  0  0  0  0  0  0  0  0
  -19.3736   17.9209   -3.1141 C   0  0  0  0  0  0  0  0  0  0  0  0
  -20.5588   18.0746   -2.3368 C   0  0  0  0  0  0  0  0  0  0  0  0
  -21.8433   18.0354   -2.9589 C   0  0  0  0  0  0  0  0  0  0  0  0
  -21.9376   17.8412   -4.3639 C   0  0  0  0  0  0  0  0  0  0  0  0
  -20.7527   17.6870   -5.1363 C   0  0  0  0  0  0  0  0  0  0  0  0
  -15.9695   21.3866   -4.9828 N   0  0  0  0  0  0  0  0  0  0  0  0
  -14.6072   21.2690   -3.9053 S   0  0  0  0  0  0  0  0  0  0  0  0
  -15.0988   20.7228   -2.6561 O   0  0  0  0  0  0  0  0  0  0  0  0
  -13.5675   20.5023   -4.5893 O   0  0  0  0  0  0  0  0  0  0  0  0
  -13.8546   22.8778   -3.5975 C   0  0  0  0  0  0  0  0  0  0  0  0
  -12.6459   23.1951   -4.2818 C   0  0  0  0  0  0  0  0  0  0  0  0
  -12.0031   24.4532   -4.0984 C   0  0  0  0  0  0  0  0  0  0  0  0
  -12.5708   25.4199   -3.2186 C   0  0  0  0  0  0  0  0  0  0  0  0
  -13.7793   25.1230   -2.5264 C   0  0  0  0  0  0  0  0  0  0  0  0
  -14.4255   23.8607   -2.7086 C   0  0  0  0  0  0  0  0  0  0  0  0
  -15.9072   23.5701   -1.8360 Cl  0  0  0  0  0  0  0  0  0  0  0  0
  -15.9539   22.4540   -6.0156 C   0  0  0  0  0  0  0  0  0  0  0  0
  -15.0674   22.1545   -7.2525 C   0  0  0  0  0  0  0  0  0  0  0  0
  -15.5780   21.3784   -8.3383 C   0  0  0  0  0  0  0  0  0  0  0  0
  -14.7656   21.0910   -9.4705 C   0  0  0  0  0  0  0  0  0  0  0  0
  -13.4289   21.5800   -9.5322 C   0  0  0  0  0  0  0  0  0  0  0  0
  -12.9095   22.3562   -8.4576 C   0  0  0  0  0  0  0  0  0  0  0  0
  -13.7246   22.6393   -7.3281 C   0  0  0  0  0  0  0  0  0  0  0  0
 28 26  2  0  0  0
 39 38  2  0  0  0
 39 40  1  0  0  0
 35 34  1  0  0  0
 38 37  1  0  0  0
 40 41  2  0  0  0
 34 33  2  0  0  0
 34 29  1  0  0  0
 37 36  1  0  0  0
 37 42  2  0  0  0
 41 42  1  0  0  0
 33 32  1  0  0  0
 26 29  1  0  0  0
 26 27  2  0  0  0
 26 25  1  0  0  0
 36 25  1  0  0  0
 29 30  2  0  0  0
 32 31  2  0  0  0
 30 31  1  0  0  0
 25  2  1  0  0  0
 17 14  1  0  0  0
  9  8  2  0  0  0
  2  1  1  0  0  0
  2  3  1  0  0  0
  1  5  1  0  0  0
  1  7  1  0  0  0
  3  4  1  0  0  0
  4  5  1  0  0  0
 14 13  2  0  0  0
 14 15  1  0  0  0
  8  7  1  0  0  0
  8 15  1  0  0  0
  8 10  2  0  0  0
  7 18  1  0  0  0
 21 20  2  0  0  0
 21 22  1  0  0  0
 13 12  1  0  0  0
 20 19  1  0  0  0
 15 16  2  0  0  0
 22 23  2  0  0  0
 19 18  1  0  0  0
 19 24  2  0  0  0
 12 11  2  0  0  0
 16 11  1  0  0  0
 23 24  1  0  0  0
  4  6  1  0  0  0
M  END
> <minimizedAffinity>
-9.02519

$$$$
2QNQ_QN3_A_2501


 42 46  0  0  0  0  0  0  0  0999 V2000
  -16.4816   20.9896   -6.1589 C   0  0  0  0  0  0  0  0  0  0  0  0
  -17.9406   20.5098   -5.7883 C   0  0  0  0  0  0  0  0  0  0  0  0
  -18.8178   21.6979   -6.2653 C   0  0  0  0  0  0  0  0  0  0  0  0
  -17.9847   22.9140   -6.0947 N   0  0  0  0  0  0  0  0  0  0  0  0
  -16.5752   22.5320   -6.3417 C   0  0  0  0  0  0  0  0  0  0  0  0
  -18.0859   23.2742   -5.1458 H   0  0  0  0  0  0  0  0  0  0  0  0
  -15.8437   20.2939   -7.3231 N   0  0  0  0  0  0  0  0  0  0  0  0
  -14.1540   19.7872   -7.0819 S   0  0  0  0  0  0  0  0  0  0  0  0
  -14.0066   19.6223   -5.6425 O   0  0  0  0  0  0  0  0  0  0  0  0
  -13.7129   18.8187   -8.0778 O   0  0  0  0  0  0  0  0  0  0  0  0
  -12.7522   22.5856   -9.7539 C   0  0  0  0  0  0  0  0  0  0  0  0
  -12.2002   23.6199   -8.9597 C   0  0  0  0  0  0  0  0  0  0  0  0
  -12.2372   23.5148   -7.5476 C   0  0  0  0  0  0  0  0  0  0  0  0
  -12.8191   22.3777   -6.9134 C   0  0  0  0  0  0  0  0  0  0  0  0
  -13.3828   21.3175   -7.7008 C   0  0  0  0  0  0  0  0  0  0  0  0
  -13.3359   21.4498   -9.1287 C   0  0  0  0  0  0  0  0  0  0  0  0
  -12.8166   22.3464   -5.1921 Cl  0  0  0  0  0  0  0  0  0  0  0  0
  -16.5350   20.0173   -8.6073 C   0  0  0  0  0  0  0  0  0  0  0  0
  -17.3302   18.7214   -8.7699 C   0  0  0  0  0  0  0  0  0  0  0  0
  -16.6925   17.4539   -8.7957 C   0  0  0  0  0  0  0  0  0  0  0  0
  -17.4680   16.2689   -8.9596 C   0  0  0  0  0  0  0  0  0  0  0  0
  -18.8870   16.3450   -9.0980 C   0  0  0  0  0  0  0  0  0  0  0  0
  -19.5282   17.6133   -9.0720 C   0  0  0  0  0  0  0  0  0  0  0  0
  -18.7510   18.7940   -8.9094 C   0  0  0  0  0  0  0  0  0  0  0  0
  -18.0727   20.1174   -4.3510 N   0  0  0  0  0  0  0  0  0  0  0  0
  -17.9537   18.4296   -3.9415 S   0  0  0  0  0  0  0  0  0  0  0  0
  -16.8080   17.8990   -4.6532 O   0  0  0  0  0  0  0  0  0  0  0  0
  -17.9208   18.3297   -2.4836 O   0  0  0  0  0  0  0  0  0  0  0  0
  -19.4310   17.5165   -4.4246 C   0  0  0  0  0  0  0  0  0  0  0  0
  -19.3378   16.6285   -5.5348 C   0  0  0  0  0  0  0  0  0  0  0  0
  -20.4607   15.8638   -5.9637 C   0  0  0  0  0  0  0  0  0  0  0  0
  -21.7039   15.9798   -5.2768 C   0  0  0  0  0  0  0  0  0  0  0  0
  -21.8175   16.8606   -4.1636 C   0  0  0  0  0  0  0  0  0  0  0  0
  -20.6920   17.6293   -3.7321 C   0  0  0  0  0  0  0  0  0  0  0  0
  -20.9017   18.6797   -2.3558 Cl  0  0  0  0  0  0  0  0  0  0  0  0
  -18.3320   21.0861   -3.2552 C   0  0  0  0  0  0  0  0  0  0  0  0
  -17.0766   21.8286   -2.7277 C   0  0  0  0  0  0  0  0  0  0  0  0
  -15.7782   21.2503   -2.8752 C   0  0  0  0  0  0  0  0  0  0  0  0
  -14.6242   21.9216   -2.3832 C   0  0  0  0  0  0  0  0  0  0  0  0
  -14.7546   23.1850   -1.7377 C   0  0  0  0  0  0  0  0  0  0  0  0
  -16.0427   23.7724   -1.5867 C   0  0  0  0  0  0  0  0  0  0  0  0
  -17.1925   23.0971   -2.0787 C   0  0  0  0  0  0  0  0  0  0  0  0
 28 26  2  0  0  0
 39 38  2  0  0  0
 39 40  1  0  0  0
 35 34  1  0  0  0
 38 37  1  0  0  0
 40 41  2  0  0  0
 34 33  2  0  0  0
 34 29  1  0  0  0
 37 36  1  0  0  0
 37 42  2  0  0  0
 41 42  1  0  0  0
 33 32  1  0  0  0
 26 29  1  0  0  0
 26 27  2  0  0  0
 26 25  1  0  0  0
 36 25  1  0  0  0
 29 30  2  0  0  0
 32 31  2  0  0  0
 30 31  1  0  0  0
 25  2  1  0  0  0
 17 14  1  0  0  0
  9  8  2  0  0  0
  2  1  1  0  0  0
  2  3  1  0  0  0
  1  5  1  0  0  0
  1  7  1  0  0  0
  3  4  1  0  0  0
  4  5  1  0  0  0
 14 13  2  0  0  0
 14 15  1  0  0  0
  8  7  1  0  0  0
  8 15  1  0  0  0
  8 10  2  0  0  0
  7 18  1  0  0  0
 21 20  2  0  0  0
 21 22  1  0  0  0
 13 12  1  0  0  0
 20 19  1  0  0  0
 15 16  2  0  0  0
 22 23  2  0  0  0
 19 18  1  0  0  0
 19 24  2  0  0  0
 12 11  2  0  0  0
 16 11  1  0  0  0
 23 24  1  0  0  0
  4  6  1  0  0  0
M  END
> <minimizedAffinity>
-8.94622

$$$$
