3U6I_044_A_1


 42 46  0  0  0  0  0  0  0  0999 V2000
   23.2110   -2.8653   15.5341 N   0  0  0  0  0  0  0  0  0  0  0  0
   23.4851   -1.6044   15.1664 C   0  0  0  0  0  0  0  0  0  0  0  0
   23.3110   -0.6143   15.8776 O   0  0  0  0  0  0  0  0  0  0  0  0
   23.4124   -3.5548   14.8608 H   0  0  0  0  0  0  0  0  0  0  0  0
   21.7248   -4.4492   19.0829 C   0  0  0  0  0  0  0  0  0  0  0  0
   21.8573   -3.0592   18.9693 C   0  0  0  0  0  0  0  0  0  0  0  0
   22.0662   -5.2575   18.0107 C   0  0  0  0  0  0  0  0  0  0  0  0
   22.5583   -4.7060   16.8308 C   0  0  0  0  0  0  0  0  0  0  0  0
   22.6983   -3.3228   16.6959 C   0  0  0  0  0  0  0  0  0  0  0  0
   22.3520   -2.5080   17.7783 C   0  0  0  0  0  0  0  0  0  0  0  0
   21.9279   -6.5886   18.1463 F   0  0  0  0  0  0  0  0  0  0  0  0
   21.2409   -5.0623   20.2045 O   0  0  0  0  0  0  0  0  0  0  0  0
   20.2836   -6.2531   24.9410 C   0  0  0  0  0  0  0  0  0  0  0  0
   23.4002   -4.8033   21.3191 C   0  0  0  0  0  0  0  0  0  0  0  0
   24.1332   -4.8791   22.5062 C   0  0  0  0  0  0  0  0  0  0  0  0
   23.5495   -5.2493   23.6423 N   0  0  0  0  0  0  0  0  0  0  0  0
   22.2339   -5.5516   23.6891 C   0  0  0  0  0  0  0  0  0  0  0  0
   21.4515   -5.5000   22.5271 C   0  0  0  0  0  0  0  0  0  0  0  0
   22.0356   -5.1175   21.3243 C   0  0  0  0  0  0  0  0  0  0  0  0
   21.6468   -5.9310   24.8930 C   0  0  0  0  0  0  0  0  0  0  0  0
   19.5087   -6.1847   23.7852 C   0  0  0  0  0  0  0  0  0  0  0  0
   20.0906   -5.8121   22.5763 C   0  0  0  0  0  0  0  0  0  0  0  0
   19.6732   -6.6230   26.1024 O   0  0  0  0  0  0  0  0  0  0  0  0
   20.5766   -7.0019   27.1580 C   0  0  0  0  0  0  0  0  0  0  0  0
   24.7900   -2.4954   13.0811 C   0  0  0  0  0  0  0  0  0  0  0  0
   24.1317   -1.4878   13.7682 C   0  0  0  0  0  0  0  0  0  0  0  0
   24.9157   -0.7696   11.8347 N   0  0  0  0  0  0  0  0  0  0  0  0
   24.2581   -0.3774   12.9412 C   0  0  0  0  0  0  0  0  0  0  0  0
   25.2169   -1.9788   11.9239 N   0  0  0  0  0  0  0  0  0  0  0  0
   24.9171   -3.6611   13.4612 O   0  0  0  0  0  0  0  0  0  0  0  0
   23.7118    1.0349   13.2172 C   0  0  0  0  0  0  0  0  0  0  0  0
   25.9354   -2.6601   11.0274 C   0  0  0  0  0  0  0  0  0  0  0  0
   27.3239   -2.6663   11.2165 C   0  0  0  0  0  0  0  0  0  0  0  0
   25.3792   -3.3500    9.9497 C   0  0  0  0  0  0  0  0  0  0  0  0
   26.2237   -4.0312    9.0698 C   0  0  0  0  0  0  0  0  0  0  0  0
   28.1652   -3.3467   10.3374 C   0  0  0  0  0  0  0  0  0  0  0  0
   27.6056   -4.0320    9.2592 C   0  0  0  0  0  0  0  0  0  0  0  0
   25.2937    0.1242   10.6982 C   0  0  0  0  0  0  0  0  0  0  0  0
   24.3846    0.1576    9.4686 C   0  0  0  0  0  0  0  0  0  0  0  0
   23.0845   -0.6055    9.7686 C   0  0  0  0  0  0  0  0  0  0  0  0
   24.0944    1.5016    9.1055 O   0  0  0  0  0  0  0  0  0  0  0  0
   23.6384    1.9434    9.8389 H   0  0  0  0  0  0  0  0  0  0  0  0
 21 13  2  0  0  0
 20 13  1  0  0  0
 13 23  1  0  0  0
 19 14  2  0  0  0
 14 15  1  0  0  0
 15 16  2  0  0  0
 16 17  1  0  0  0
 18 17  1  0  0  0
 17 20  2  0  0  0
 19 18  1  0  0  0
 18 22  2  0  0  0
 12 19  1  0  0  0
 22 21  1  0  0  0
  5 12  1  0  0  0
  7  5  2  0  0  0
  6  5  1  0  0  0
 10  6  2  0  0  0
  8  7  1  0  0  0
  7 11  1  0  0  0
  9  8  2  0  0  0
  1  9  1  0  0  0
  9 10  1  0  0  0
  2  1  1  0  0  0
 29 25  1  0  0  0
 25 30  2  0  0  0
 25 26  1  0  0  0
 28 26  2  0  0  0
 26  2  1  0  0  0
  2  3  2  0  0  0
 38 27  1  0  0  0
 29 27  1  0  0  0
 27 28  1  0  0  0
 28 31  1  0  0  0
 32 29  1  0  0  0
 34 32  2  0  0  0
 32 33  1  0  0  0
 36 33  2  0  0  0
 35 34  1  0  0  0
 35 37  2  0  0  0
 37 36  1  0  0  0
 39 38  1  0  0  0
 41 39  1  0  0  0
 40 39  1  0  0  0
 23 24  1  0  0  0
  1  4  1  0  0  0
 41 42  1  0  0  0
M  END
> <minimizedAffinity>
-12.81145

$$$$
3U6I_044_A_1


 42 46  0  0  0  0  0  0  0  0999 V2000
   23.1584   -2.7058   15.2287 N   0  0  0  0  0  0  0  0  0  0  0  0
   23.4287   -1.4380   14.8823 C   0  0  0  0  0  0  0  0  0  0  0  0
   23.2838   -0.4643   15.6220 O   0  0  0  0  0  0  0  0  0  0  0  0
   23.3338   -3.3801   14.5332 H   0  0  0  0  0  0  0  0  0  0  0  0
   21.7766   -4.3652   18.7851 C   0  0  0  0  0  0  0  0  0  0  0  0
   21.9108   -2.9735   18.6989 C   0  0  0  0  0  0  0  0  0  0  0  0
   22.0818   -5.1500   17.6849 C   0  0  0  0  0  0  0  0  0  0  0  0
   22.5392   -4.5735   16.5032 C   0  0  0  0  0  0  0  0  0  0  0  0
   22.6802   -3.1879   16.3952 C   0  0  0  0  0  0  0  0  0  0  0  0
   22.3704   -2.3969   17.5060 C   0  0  0  0  0  0  0  0  0  0  0  0
   21.9428   -6.4835   17.7946 F   0  0  0  0  0  0  0  0  0  0  0  0
   21.3253   -5.0022   19.9071 O   0  0  0  0  0  0  0  0  0  0  0  0
   20.4364   -6.1524   24.6669 C   0  0  0  0  0  0  0  0  0  0  0  0
   23.4974   -4.7205   20.9909 C   0  0  0  0  0  0  0  0  0  0  0  0
   24.2461   -4.7806   22.1691 C   0  0  0  0  0  0  0  0  0  0  0  0
   23.6794   -5.1430   23.3161 N   0  0  0  0  0  0  0  0  0  0  0  0
   22.3662   -5.4523   23.3830 C   0  0  0  0  0  0  0  0  0  0  0  0
   21.5685   -5.4162   22.2308 C   0  0  0  0  0  0  0  0  0  0  0  0
   22.1349   -5.0422   21.0169 C   0  0  0  0  0  0  0  0  0  0  0  0
   21.7970   -5.8232   24.5980 C   0  0  0  0  0  0  0  0  0  0  0  0
   19.6462   -6.0995   23.5207 C   0  0  0  0  0  0  0  0  0  0  0  0
   20.2102   -5.7354   22.3007 C   0  0  0  0  0  0  0  0  0  0  0  0
   19.8433   -6.5144   25.8396 O   0  0  0  0  0  0  0  0  0  0  0  0
   20.6437   -7.3726   26.6743 C   0  0  0  0  0  0  0  0  0  0  0  0
   24.1428   -0.1177   12.7394 C   0  0  0  0  0  0  0  0  0  0  0  0
   24.0311   -1.2918   13.4673 C   0  0  0  0  0  0  0  0  0  0  0  0
   24.9153   -1.6542   11.4784 N   0  0  0  0  0  0  0  0  0  0  0  0
   24.5164   -2.2697   12.6064 C   0  0  0  0  0  0  0  0  0  0  0  0
   24.6967   -0.4269   11.5623 N   0  0  0  0  0  0  0  0  0  0  0  0
   23.8226    1.0058   13.1327 O   0  0  0  0  0  0  0  0  0  0  0  0
   24.6190   -3.7772   12.9003 C   0  0  0  0  0  0  0  0  0  0  0  0
   24.9106    0.4603   10.5870 C   0  0  0  0  0  0  0  0  0  0  0  0
   25.9658    1.3611   10.7846 C   0  0  0  0  0  0  0  0  0  0  0  0
   24.1572    0.5212    9.4142 C   0  0  0  0  0  0  0  0  0  0  0  0
   24.4663    1.4907    8.4572 C   0  0  0  0  0  0  0  0  0  0  0  0
   26.2729    2.3280    9.8283 C   0  0  0  0  0  0  0  0  0  0  0  0
   25.5149    2.3880    8.6590 C   0  0  0  0  0  0  0  0  0  0  0  0
   25.4712   -2.3434   10.2745 C   0  0  0  0  0  0  0  0  0  0  0  0
   26.9417   -2.7642   10.2943 C   0  0  0  0  0  0  0  0  0  0  0  0
   27.2249   -3.7014    9.1095 C   0  0  0  0  0  0  0  0  0  0  0  0
   27.7836   -1.6200   10.2298 O   0  0  0  0  0  0  0  0  0  0  0  0
   27.6114   -1.1379    9.4058 H   0  0  0  0  0  0  0  0  0  0  0  0
 21 13  2  0  0  0
 20 13  1  0  0  0
 13 23  1  0  0  0
 19 14  2  0  0  0
 14 15  1  0  0  0
 15 16  2  0  0  0
 16 17  1  0  0  0
 18 17  1  0  0  0
 17 20  2  0  0  0
 19 18  1  0  0  0
 18 22  2  0  0  0
 12 19  1  0  0  0
 22 21  1  0  0  0
  5 12  1  0  0  0
  7  5  2  0  0  0
  6  5  1  0  0  0
 10  6  2  0  0  0
  8  7  1  0  0  0
  7 11  1  0  0  0
  9  8  2  0  0  0
  1  9  1  0  0  0
  9 10  1  0  0  0
  2  1  1  0  0  0
 29 25  1  0  0  0
 25 30  2  0  0  0
 25 26  1  0  0  0
 28 26  2  0  0  0
 26  2  1  0  0  0
  2  3  2  0  0  0
 38 27  1  0  0  0
 29 27  1  0  0  0
 27 28  1  0  0  0
 28 31  1  0  0  0
 32 29  1  0  0  0
 34 32  2  0  0  0
 32 33  1  0  0  0
 36 33  2  0  0  0
 35 34  1  0  0  0
 35 37  2  0  0  0
 37 36  1  0  0  0
 39 38  1  0  0  0
 41 39  1  0  0  0
 40 39  1  0  0  0
 23 24  1  0  0  0
  1  4  1  0  0  0
 41 42  1  0  0  0
M  END
> <minimizedAffinity>
-12.44114

$$$$
3U6I_044_A_1


 42 46  0  0  0  0  0  0  0  0999 V2000
   22.7162   -2.8227   15.4226 N   0  0  0  0  0  0  0  0  0  0  0  0
   23.6277   -1.9174   15.0355 C   0  0  0  0  0  0  0  0  0  0  0  0
   24.3147   -1.2432   15.8036 O   0  0  0  0  0  0  0  0  0  0  0  0
   22.2508   -3.2920   14.6930 H   0  0  0  0  0  0  0  0  0  0  0  0
   21.6698   -4.1038   19.2404 C   0  0  0  0  0  0  0  0  0  0  0  0
   21.7661   -2.7280   18.9946 C   0  0  0  0  0  0  0  0  0  0  0  0
   21.8999   -4.9994   18.2086 C   0  0  0  0  0  0  0  0  0  0  0  0
   22.2453   -4.5487   16.9375 C   0  0  0  0  0  0  0  0  0  0  0  0
   22.3467   -3.1814   16.6703 C   0  0  0  0  0  0  0  0  0  0  0  0
   22.1128   -2.2785   17.7122 C   0  0  0  0  0  0  0  0  0  0  0  0
   21.7994   -6.3147   18.4719 F   0  0  0  0  0  0  0  0  0  0  0  0
   21.3268   -4.6209   20.4582 O   0  0  0  0  0  0  0  0  0  0  0  0
   21.2305   -6.4110   25.1009 C   0  0  0  0  0  0  0  0  0  0  0  0
   23.6528   -4.4660   21.1917 C   0  0  0  0  0  0  0  0  0  0  0  0
   24.5869   -4.6769   22.2091 C   0  0  0  0  0  0  0  0  0  0  0  0
   24.2150   -5.1963   23.3754 N   0  0  0  0  0  0  0  0  0  0  0  0
   22.9276   -5.5249   23.6186 C   0  0  0  0  0  0  0  0  0  0  0  0
   21.9493   -5.3419   22.6315 C   0  0  0  0  0  0  0  0  0  0  0  0
   22.3097   -4.8020   21.4015 C   0  0  0  0  0  0  0  0  0  0  0  0
   22.5646   -6.0619   24.8506 C   0  0  0  0  0  0  0  0  0  0  0  0
   20.2608   -6.2121   24.1207 C   0  0  0  0  0  0  0  0  0  0  0  0
   20.6177   -5.6812   22.8838 C   0  0  0  0  0  0  0  0  0  0  0  0
   20.8369   -6.9337   26.2968 O   0  0  0  0  0  0  0  0  0  0  0  0
   19.4128   -7.0936   26.4396 C   0  0  0  0  0  0  0  0  0  0  0  0
   23.9494   -2.9075   12.6352 C   0  0  0  0  0  0  0  0  0  0  0  0
   23.8166   -1.8362   13.5044 C   0  0  0  0  0  0  0  0  0  0  0  0
   24.1190   -1.1590   11.4262 N   0  0  0  0  0  0  0  0  0  0  0  0
   23.9596   -0.7199   12.6881 C   0  0  0  0  0  0  0  0  0  0  0  0
   24.1138   -2.4082   11.4057 N   0  0  0  0  0  0  0  0  0  0  0  0
   23.8858   -4.0985   12.9464 O   0  0  0  0  0  0  0  0  0  0  0  0
   23.9054    0.7522   13.1347 C   0  0  0  0  0  0  0  0  0  0  0  0
   24.3201   -3.1599   10.3211 C   0  0  0  0  0  0  0  0  0  0  0  0
   23.1777   -3.5703    9.6208 C   0  0  0  0  0  0  0  0  0  0  0  0
   25.5845   -3.5353    9.8660 C   0  0  0  0  0  0  0  0  0  0  0  0
   25.6872   -4.3250    8.7183 C   0  0  0  0  0  0  0  0  0  0  0  0
   23.2821   -4.3584    8.4756 C   0  0  0  0  0  0  0  0  0  0  0  0
   24.5478   -4.7347    8.0261 C   0  0  0  0  0  0  0  0  0  0  0  0
   24.3414   -0.2851   10.2345 C   0  0  0  0  0  0  0  0  0  0  0  0
   25.7535    0.2428    9.9759 C   0  0  0  0  0  0  0  0  0  0  0  0
   25.8613    1.6917   10.4775 C   0  0  0  0  0  0  0  0  0  0  0  0
   26.7145   -0.5774   10.6287 O   0  0  0  0  0  0  0  0  0  0  0  0
   26.5515   -0.5680   11.5848 H   0  0  0  0  0  0  0  0  0  0  0  0
 21 13  2  0  0  0
 20 13  1  0  0  0
 13 23  1  0  0  0
 19 14  2  0  0  0
 14 15  1  0  0  0
 15 16  2  0  0  0
 16 17  1  0  0  0
 18 17  1  0  0  0
 17 20  2  0  0  0
 19 18  1  0  0  0
 18 22  2  0  0  0
 12 19  1  0  0  0
 22 21  1  0  0  0
  5 12  1  0  0  0
  7  5  2  0  0  0
  6  5  1  0  0  0
 10  6  2  0  0  0
  8  7  1  0  0  0
  7 11  1  0  0  0
  9  8  2  0  0  0
  1  9  1  0  0  0
  9 10  1  0  0  0
  2  1  1  0  0  0
 29 25  1  0  0  0
 25 30  2  0  0  0
 25 26  1  0  0  0
 28 26  2  0  0  0
 26  2  1  0  0  0
  2  3  2  0  0  0
 38 27  1  0  0  0
 29 27  1  0  0  0
 27 28  1  0  0  0
 28 31  1  0  0  0
 32 29  1  0  0  0
 34 32  2  0  0  0
 32 33  1  0  0  0
 36 33  2  0  0  0
 35 34  1  0  0  0
 35 37  2  0  0  0
 37 36  1  0  0  0
 39 38  1  0  0  0
 41 39  1  0  0  0
 40 39  1  0  0  0
 23 24  1  0  0  0
  1  4  1  0  0  0
 41 42  1  0  0  0
M  END
> <minimizedAffinity>
-12.10572

$$$$
3U6I_044_A_1


 42 46  0  0  0  0  0  0  0  0999 V2000
   22.8320   -3.7463   15.1643 N   0  0  0  0  0  0  0  0  0  0  0  0
   22.0477   -3.5621   14.0913 C   0  0  0  0  0  0  0  0  0  0  0  0
   20.8186   -3.6363   14.1016 O   0  0  0  0  0  0  0  0  0  0  0  0
   23.7980   -3.6448   15.0038 H   0  0  0  0  0  0  0  0  0  0  0  0
   21.6734   -4.5058   19.0876 C   0  0  0  0  0  0  0  0  0  0  0  0
   21.8879   -5.5901   18.2270 C   0  0  0  0  0  0  0  0  0  0  0  0
   21.8735   -3.2158   18.6236 C   0  0  0  0  0  0  0  0  0  0  0  0
   22.2649   -2.9845   17.3077 C   0  0  0  0  0  0  0  0  0  0  0  0
   22.4846   -4.0509   16.4326 C   0  0  0  0  0  0  0  0  0  0  0  0
   22.2836   -5.3525   16.9026 C   0  0  0  0  0  0  0  0  0  0  0  0
   21.6616   -2.1932   19.4714 F   0  0  0  0  0  0  0  0  0  0  0  0
   21.2979   -4.6540   20.3935 O   0  0  0  0  0  0  0  0  0  0  0  0
   21.1547   -6.3848   25.0574 C   0  0  0  0  0  0  0  0  0  0  0  0
   23.6183   -4.5004   21.1443 C   0  0  0  0  0  0  0  0  0  0  0  0
   24.5430   -4.7026   22.1721 C   0  0  0  0  0  0  0  0  0  0  0  0
   24.1591   -5.2055   23.3417 N   0  0  0  0  0  0  0  0  0  0  0  0
   22.8682   -5.5251   23.5782 C   0  0  0  0  0  0  0  0  0  0  0  0
   21.8990   -5.3502   22.5808 C   0  0  0  0  0  0  0  0  0  0  0  0
   22.2720   -4.8275   21.3471 C   0  0  0  0  0  0  0  0  0  0  0  0
   22.4925   -6.0450   24.8138 C   0  0  0  0  0  0  0  0  0  0  0  0
   20.1942   -6.1939   24.0666 C   0  0  0  0  0  0  0  0  0  0  0  0
   20.5638   -5.6803   22.8262 C   0  0  0  0  0  0  0  0  0  0  0  0
   20.7489   -6.8906   26.2564 O   0  0  0  0  0  0  0  0  0  0  0  0
   19.3220   -7.0269   26.3955 C   0  0  0  0  0  0  0  0  0  0  0  0
   24.0002   -3.7194   12.3569 C   0  0  0  0  0  0  0  0  0  0  0  0
   22.8193   -3.1575   12.8156 C   0  0  0  0  0  0  0  0  0  0  0  0
   23.5250   -2.1667   10.9745 N   0  0  0  0  0  0  0  0  0  0  0  0
   22.5574   -2.1363   11.9092 C   0  0  0  0  0  0  0  0  0  0  0  0
   24.3448   -3.0717   11.2389 N   0  0  0  0  0  0  0  0  0  0  0  0
   24.5931   -4.6690   12.8729 O   0  0  0  0  0  0  0  0  0  0  0  0
   21.3590   -1.1708   11.9409 C   0  0  0  0  0  0  0  0  0  0  0  0
   25.4618   -3.3219   10.5507 C   0  0  0  0  0  0  0  0  0  0  0  0
   26.6688   -2.9848   11.1778 C   0  0  0  0  0  0  0  0  0  0  0  0
   25.4775   -3.8935    9.2780 C   0  0  0  0  0  0  0  0  0  0  0  0
   26.7040   -4.1124    8.6462 C   0  0  0  0  0  0  0  0  0  0  0  0
   27.8919   -3.2041   10.5457 C   0  0  0  0  0  0  0  0  0  0  0  0
   27.9032   -3.7722    9.2720 C   0  0  0  0  0  0  0  0  0  0  0  0
   23.6429   -1.2140    9.8293 C   0  0  0  0  0  0  0  0  0  0  0  0
   24.1761    0.1924   10.1079 C   0  0  0  0  0  0  0  0  0  0  0  0
   25.7122    0.1804   10.0545 C   0  0  0  0  0  0  0  0  0  0  0  0
   23.6572    1.1144    9.1576 O   0  0  0  0  0  0  0  0  0  0  0  0
   23.9339    0.8501    8.2662 H   0  0  0  0  0  0  0  0  0  0  0  0
 21 13  2  0  0  0
 20 13  1  0  0  0
 13 23  1  0  0  0
 19 14  2  0  0  0
 14 15  1  0  0  0
 15 16  2  0  0  0
 16 17  1  0  0  0
 18 17  1  0  0  0
 17 20  2  0  0  0
 19 18  1  0  0  0
 18 22  2  0  0  0
 12 19  1  0  0  0
 22 21  1  0  0  0
  5 12  1  0  0  0
  7  5  2  0  0  0
  6  5  1  0  0  0
 10  6  2  0  0  0
  8  7  1  0  0  0
  7 11  1  0  0  0
  9  8  2  0  0  0
  1  9  1  0  0  0
  9 10  1  0  0  0
  2  1  1  0  0  0
 29 25  1  0  0  0
 25 30  2  0  0  0
 25 26  1  0  0  0
 28 26  2  0  0  0
 26  2  1  0  0  0
  2  3  2  0  0  0
 38 27  1  0  0  0
 29 27  1  0  0  0
 27 28  1  0  0  0
 28 31  1  0  0  0
 32 29  1  0  0  0
 34 32  2  0  0  0
 32 33  1  0  0  0
 36 33  2  0  0  0
 35 34  1  0  0  0
 35 37  2  0  0  0
 37 36  1  0  0  0
 39 38  1  0  0  0
 41 39  1  0  0  0
 40 39  1  0  0  0
 23 24  1  0  0  0
  1  4  1  0  0  0
 41 42  1  0  0  0
M  END
> <minimizedAffinity>
-11.43888

$$$$
3U6I_044_A_1


 42 46  0  0  0  0  0  0  0  0999 V2000
   23.0456   -3.2127   14.9879 N   0  0  0  0  0  0  0  0  0  0  0  0
   23.9151   -3.9197   14.2502 C   0  0  0  0  0  0  0  0  0  0  0  0
   24.4627   -4.9592   14.6188 O   0  0  0  0  0  0  0  0  0  0  0  0
   22.6817   -2.4069   14.5549 H   0  0  0  0  0  0  0  0  0  0  0  0
   21.7454   -4.1265   18.8332 C   0  0  0  0  0  0  0  0  0  0  0  0
   21.9779   -2.7854   18.5019 C   0  0  0  0  0  0  0  0  0  0  0  0
   21.9290   -5.1086   17.8733 C   0  0  0  0  0  0  0  0  0  0  0  0
   22.3612   -4.7801   16.5913 C   0  0  0  0  0  0  0  0  0  0  0  0
   22.5988   -3.4493   16.2395 C   0  0  0  0  0  0  0  0  0  0  0  0
   22.4117   -2.4589   17.2089 C   0  0  0  0  0  0  0  0  0  0  0  0
   21.6972   -6.3881   18.2178 F   0  0  0  0  0  0  0  0  0  0  0  0
   21.3114   -4.5249   20.0665 O   0  0  0  0  0  0  0  0  0  0  0  0
   20.9105   -6.1620   24.7492 C   0  0  0  0  0  0  0  0  0  0  0  0
   23.5936   -4.3890   20.9295 C   0  0  0  0  0  0  0  0  0  0  0  0
   24.4629   -4.5840   22.0059 C   0  0  0  0  0  0  0  0  0  0  0  0
   24.0138   -5.0585   23.1641 N   0  0  0  0  0  0  0  0  0  0  0  0
   22.7081   -5.3554   23.3417 C   0  0  0  0  0  0  0  0  0  0  0  0
   21.7924   -5.1865   22.2939 C   0  0  0  0  0  0  0  0  0  0  0  0
   22.2342   -4.6933   21.0708 C   0  0  0  0  0  0  0  0  0  0  0  0
   22.2637   -5.8457   24.5665 C   0  0  0  0  0  0  0  0  0  0  0  0
   20.0034   -5.9771   23.7082 C   0  0  0  0  0  0  0  0  0  0  0  0
   20.4419   -5.4931   22.4784 C   0  0  0  0  0  0  0  0  0  0  0  0
   20.4380   -6.6385   25.9358 O   0  0  0  0  0  0  0  0  0  0  0  0
   19.3390   -7.5611   25.8142 C   0  0  0  0  0  0  0  0  0  0  0  0
   24.4077   -2.0442   12.4937 C   0  0  0  0  0  0  0  0  0  0  0  0
   24.1259   -3.3599   12.8258 C   0  0  0  0  0  0  0  0  0  0  0  0
   24.2736   -3.0911   10.6407 N   0  0  0  0  0  0  0  0  0  0  0  0
   24.0189   -4.0023   11.5975 C   0  0  0  0  0  0  0  0  0  0  0  0
   24.4925   -1.9764   11.1609 N   0  0  0  0  0  0  0  0  0  0  0  0
   24.5848   -1.1226   13.2930 O   0  0  0  0  0  0  0  0  0  0  0  0
   23.7070   -5.4922   11.3691 C   0  0  0  0  0  0  0  0  0  0  0  0
   24.7079   -0.8431   10.4878 C   0  0  0  0  0  0  0  0  0  0  0  0
   26.0015   -0.3094   10.5639 C   0  0  0  0  0  0  0  0  0  0  0  0
   23.7331   -0.1931    9.7302 C   0  0  0  0  0  0  0  0  0  0  0  0
   24.0656    0.9892    9.0647 C   0  0  0  0  0  0  0  0  0  0  0  0
   26.3316    0.8706    9.8990 C   0  0  0  0  0  0  0  0  0  0  0  0
   25.3532    1.5193    9.1458 C   0  0  0  0  0  0  0  0  0  0  0  0
   24.2308   -3.3548    9.1704 C   0  0  0  0  0  0  0  0  0  0  0  0
   22.9645   -3.9799    8.5824 C   0  0  0  0  0  0  0  0  0  0  0  0
   21.9543   -2.8727    8.2418 C   0  0  0  0  0  0  0  0  0  0  0  0
   23.2806   -4.7335    7.4186 O   0  0  0  0  0  0  0  0  0  0  0  0
   23.6747   -4.1492    6.7521 H   0  0  0  0  0  0  0  0  0  0  0  0
 21 13  2  0  0  0
 20 13  1  0  0  0
 13 23  1  0  0  0
 19 14  2  0  0  0
 14 15  1  0  0  0
 15 16  2  0  0  0
 16 17  1  0  0  0
 18 17  1  0  0  0
 17 20  2  0  0  0
 19 18  1  0  0  0
 18 22  2  0  0  0
 12 19  1  0  0  0
 22 21  1  0  0  0
  5 12  1  0  0  0
  7  5  2  0  0  0
  6  5  1  0  0  0
 10  6  2  0  0  0
  8  7  1  0  0  0
  7 11  1  0  0  0
  9  8  2  0  0  0
  1  9  1  0  0  0
  9 10  1  0  0  0
  2  1  1  0  0  0
 29 25  1  0  0  0
 25 30  2  0  0  0
 25 26  1  0  0  0
 28 26  2  0  0  0
 26  2  1  0  0  0
  2  3  2  0  0  0
 38 27  1  0  0  0
 29 27  1  0  0  0
 27 28  1  0  0  0
 28 31  1  0  0  0
 32 29  1  0  0  0
 34 32  2  0  0  0
 32 33  1  0  0  0
 36 33  2  0  0  0
 35 34  1  0  0  0
 35 37  2  0  0  0
 37 36  1  0  0  0
 39 38  1  0  0  0
 41 39  1  0  0  0
 40 39  1  0  0  0
 23 24  1  0  0  0
  1  4  1  0  0  0
 41 42  1  0  0  0
M  END
> <minimizedAffinity>
-10.78002

$$$$
3U6I_044_A_1


 42 46  0  0  0  0  0  0  0  0999 V2000
   22.6778   -3.3368   15.0117 N   0  0  0  0  0  0  0  0  0  0  0  0
   23.5605   -2.4387   14.5488 C   0  0  0  0  0  0  0  0  0  0  0  0
   24.2391   -1.6946   15.2575 O   0  0  0  0  0  0  0  0  0  0  0  0
   22.2159   -3.8684   14.3237 H   0  0  0  0  0  0  0  0  0  0  0  0
   21.7035   -4.3729   18.9218 C   0  0  0  0  0  0  0  0  0  0  0  0
   21.8184   -3.0159   18.5935 C   0  0  0  0  0  0  0  0  0  0  0  0
   21.8918   -5.3314   17.9393 C   0  0  0  0  0  0  0  0  0  0  0  0
   22.2136   -4.9623   16.6361 C   0  0  0  0  0  0  0  0  0  0  0  0
   22.3330   -3.6151   16.2867 C   0  0  0  0  0  0  0  0  0  0  0  0
   22.1413   -2.6486   17.2791 C   0  0  0  0  0  0  0  0  0  0  0  0
   21.7742   -6.6270   18.2815 F   0  0  0  0  0  0  0  0  0  0  0  0
   21.3816   -4.8115   20.1757 O   0  0  0  0  0  0  0  0  0  0  0  0
   21.3592   -6.2623   24.9363 C   0  0  0  0  0  0  0  0  0  0  0  0
   23.6968   -4.4978   20.8922 C   0  0  0  0  0  0  0  0  0  0  0  0
   24.6379   -4.5915   21.9207 C   0  0  0  0  0  0  0  0  0  0  0  0
   24.2882   -5.0412   23.1222 N   0  0  0  0  0  0  0  0  0  0  0  0
   23.0167   -5.4097   23.3907 C   0  0  0  0  0  0  0  0  0  0  0  0
   22.0327   -5.3436   22.3945 C   0  0  0  0  0  0  0  0  0  0  0  0
   22.3701   -4.8786   21.1280 C   0  0  0  0  0  0  0  0  0  0  0  0
   22.6764   -5.8719   24.6591 C   0  0  0  0  0  0  0  0  0  0  0  0
   20.3831   -6.1796   23.9457 C   0  0  0  0  0  0  0  0  0  0  0  0
   20.7175   -5.7241   22.6730 C   0  0  0  0  0  0  0  0  0  0  0  0
   20.9879   -6.7143   26.1676 O   0  0  0  0  0  0  0  0  0  0  0  0
   19.7421   -7.4364   26.1886 C   0  0  0  0  0  0  0  0  0  0  0  0
   22.7230   -2.6566   12.0798 C   0  0  0  0  0  0  0  0  0  0  0  0
   23.7286   -2.4620   13.0133 C   0  0  0  0  0  0  0  0  0  0  0  0
   24.5241   -2.4596   10.9551 N   0  0  0  0  0  0  0  0  0  0  0  0
   24.8853   -2.3660   12.2479 C   0  0  0  0  0  0  0  0  0  0  0  0
   23.2890   -2.6271   10.8686 N   0  0  0  0  0  0  0  0  0  0  0  0
   21.5239   -2.7913   12.3316 O   0  0  0  0  0  0  0  0  0  0  0  0
   26.3153   -2.1510   12.7754 C   0  0  0  0  0  0  0  0  0  0  0  0
   22.6185   -2.8282    9.7311 C   0  0  0  0  0  0  0  0  0  0  0  0
   22.4660   -4.1606    9.3249 C   0  0  0  0  0  0  0  0  0  0  0  0
   22.0742   -1.8013    8.9591 C   0  0  0  0  0  0  0  0  0  0  0  0
   21.3905   -2.1231    7.7843 C   0  0  0  0  0  0  0  0  0  0  0  0
   21.7833   -4.4801    8.1520 C   0  0  0  0  0  0  0  0  0  0  0  0
   21.2440   -3.4503    7.3812 C   0  0  0  0  0  0  0  0  0  0  0  0
   25.4674   -2.4386    9.7962 C   0  0  0  0  0  0  0  0  0  0  0  0
   26.3500   -3.6648    9.5574 C   0  0  0  0  0  0  0  0  0  0  0  0
   25.8364   -4.4382    8.3325 C   0  0  0  0  0  0  0  0  0  0  0  0
   27.7016   -3.2692    9.3591 O   0  0  0  0  0  0  0  0  0  0  0  0
   27.7587   -2.6914    8.5820 H   0  0  0  0  0  0  0  0  0  0  0  0
 21 13  2  0  0  0
 20 13  1  0  0  0
 13 23  1  0  0  0
 19 14  2  0  0  0
 14 15  1  0  0  0
 15 16  2  0  0  0
 16 17  1  0  0  0
 18 17  1  0  0  0
 17 20  2  0  0  0
 19 18  1  0  0  0
 18 22  2  0  0  0
 12 19  1  0  0  0
 22 21  1  0  0  0
  5 12  1  0  0  0
  7  5  2  0  0  0
  6  5  1  0  0  0
 10  6  2  0  0  0
  8  7  1  0  0  0
  7 11  1  0  0  0
  9  8  2  0  0  0
  1  9  1  0  0  0
  9 10  1  0  0  0
  2  1  1  0  0  0
 29 25  1  0  0  0
 25 30  2  0  0  0
 25 26  1  0  0  0
 28 26  2  0  0  0
 26  2  1  0  0  0
  2  3  2  0  0  0
 38 27  1  0  0  0
 29 27  1  0  0  0
 27 28  1  0  0  0
 28 31  1  0  0  0
 32 29  1  0  0  0
 34 32  2  0  0  0
 32 33  1  0  0  0
 36 33  2  0  0  0
 35 34  1  0  0  0
 35 37  2  0  0  0
 37 36  1  0  0  0
 39 38  1  0  0  0
 41 39  1  0  0  0
 40 39  1  0  0  0
 23 24  1  0  0  0
  1  4  1  0  0  0
 41 42  1  0  0  0
M  END
> <minimizedAffinity>
-10.73622

$$$$
