1XOW_R18_A_1001


 22 25  0  0  0  0  0  0  0  0999 V2000
   27.1419    5.1370    3.3853 C   0  0  0  0  0  0  0  0  0  0  0  0
   26.4383    6.4325    3.7781 C   0  0  0  0  0  0  0  0  0  0  0  0
   24.9397    6.3512    3.8758 C   0  0  0  0  0  0  0  0  0  0  0  0
   24.4100    5.1306    4.4678 C   0  0  0  0  0  0  0  0  0  0  0  0
   25.1090    3.9542    4.5683 C   0  0  0  0  0  0  0  0  0  0  0  0
   24.4502    2.7105    5.2259 C   0  0  0  0  0  0  0  0  0  0  0  0
   25.0327    1.4393    4.5924 C   0  0  0  0  0  0  0  0  0  0  0  0
   26.5626    1.4002    4.7612 C   0  0  0  0  0  0  0  0  0  0  0  0
   27.2099    2.6825    4.1264 C   0  0  0  0  0  0  0  0  0  0  0  0
   26.5245    3.8389    4.0219 C   0  0  0  0  0  0  0  0  0  0  0  0
   28.6241    2.5304    3.6841 C   0  0  0  0  0  0  0  0  0  0  0  0
   29.3387    1.3916    3.7822 C   0  0  0  0  0  0  0  0  0  0  0  0
   28.7565    0.1093    4.3462 C   0  0  0  0  0  0  0  0  0  0  0  0
   27.2119    0.1218    4.1404 C   0  0  0  0  0  0  0  0  0  0  0  0
   26.7047   -1.2444    4.7038 C   0  0  0  0  0  0  0  0  0  0  0  0
   27.9201   -2.1310    4.3052 C   0  0  0  0  0  0  0  0  0  0  0  0
   29.0592   -1.2308    3.6522 C   0  0  0  0  0  0  0  0  0  0  0  0
   29.0786    0.0690    5.9040 C   0  0  0  0  0  0  0  0  0  0  0  0
   28.8515   -1.2510    2.1575 C   0  0  0  0  0  0  0  0  0  0  0  0
   24.2028    7.2809    3.5471 O   0  0  0  0  0  0  0  0  0  0  0  0
   30.3228   -1.8081    4.0544 O   0  0  0  0  0  0  0  0  0  0  0  0
   30.4032   -1.7691    5.0203 H   0  0  0  0  0  0  0  0  0  0  0  0
  1  2  1  0  0  0
  1 10  1  0  0  0
  2  3  1  0  0  0
  3  4  1  0  0  0
  3 20  2  0  0  0
  4  5  2  0  0  0
  5  6  1  0  0  0
  5 10  1  0  0  0
  6  7  1  0  0  0
  7  8  1  0  0  0
  8  9  1  0  0  0
  8 14  1  0  0  0
  9 10  2  0  0  0
  9 11  1  0  0  0
 11 12  2  0  0  0
 12 13  1  0  0  0
 13 14  1  0  0  0
 13 17  1  0  0  0
 13 18  1  0  0  0
 14 15  1  0  0  0
 15 16  1  0  0  0
 16 17  1  0  0  0
 17 19  1  0  0  0
 17 21  1  0  0  0
 21 22  1  0  0  0
M  END
> <minimizedAffinity>
-12.22073

$$$$
