1G85_3OL_A_1001


 10  9  0  0  0  0  0  0  0  0999 V2000
   -2.4126   -0.4886    3.8950 C   0  0  0  0  0  0  0  0  0  0  0  0
   -2.2498   -1.9633    3.9095 O   0  0  0  0  0  0  0  0  0  0  0  0
   -2.8030   -2.3565    3.2165 H   0  0  0  0  0  0  0  0  0  0  0  0
   -4.3610    1.2026    4.2314 C   0  0  0  0  0  0  0  0  0  0  0  0
   -3.8720   -0.1520    4.0825 C   0  0  0  0  0  0  0  0  0  0  0  0
   -2.0326    0.0957    2.5550 C   0  0  0  0  0  0  0  0  0  0  0  0
   -0.6642    0.7583    2.6161 C   0  0  0  0  0  0  0  0  0  0  0  0
   -0.6773    1.8598    3.6921 C   0  0  0  0  0  0  0  0  0  0  0  0
    0.3374    1.6092    4.7870 C   0  0  0  0  0  0  0  0  0  0  0  0
    1.2858    0.4481    4.3938 C   0  0  0  0  0  0  0  0  0  0  0  0
  4  5  2  0  0  0
  5  1  1  0  0  0
  1  2  1  0  0  0
  1  6  1  0  0  0
  6  7  1  0  0  0
  7  8  1  0  0  0
  8  9  1  0  0  0
  9 10  1  0  0  0
  2  3  1  0  0  0
M  END
> <minimizedAffinity>
-6.13105

$$$$
1G85_3OL_A_1001


 10  9  0  0  0  0  0  0  0  0999 V2000
   -1.4920   -1.0465    4.6617 C   0  0  0  0  0  0  0  0  0  0  0  0
   -2.3026   -2.0287    3.9003 O   0  0  0  0  0  0  0  0  0  0  0  0
   -3.0207   -2.3599    4.4621 H   0  0  0  0  0  0  0  0  0  0  0  0
   -0.6555   -0.9749    7.1244 C   0  0  0  0  0  0  0  0  0  0  0  0
   -0.9674   -1.7058    5.9141 C   0  0  0  0  0  0  0  0  0  0  0  0
   -2.3342    0.1130    5.1386 C   0  0  0  0  0  0  0  0  0  0  0  0
   -1.9474    1.3996    4.4242 C   0  0  0  0  0  0  0  0  0  0  0  0
   -0.5558    1.2315    3.7865 C   0  0  0  0  0  0  0  0  0  0  0  0
    0.5576    1.6984    4.6995 C   0  0  0  0  0  0  0  0  0  0  0  0
    1.7177    0.6707    4.7116 C   0  0  0  0  0  0  0  0  0  0  0  0
  4  5  2  0  0  0
  5  1  1  0  0  0
  1  2  1  0  0  0
  1  6  1  0  0  0
  6  7  1  0  0  0
  7  8  1  0  0  0
  8  9  1  0  0  0
  9 10  1  0  0  0
  2  3  1  0  0  0
M  END
> <minimizedAffinity>
-5.81287

$$$$
1G85_3OL_A_1001


 10  9  0  0  0  0  0  0  0  0999 V2000
   -2.5145    0.2731    2.7289 C   0  0  0  0  0  0  0  0  0  0  0  0
   -3.1986   -0.1502    1.4821 O   0  0  0  0  0  0  0  0  0  0  0  0
   -3.3357    0.6215    0.9106 H   0  0  0  0  0  0  0  0  0  0  0  0
   -4.2972    1.0474    4.4586 C   0  0  0  0  0  0  0  0  0  0  0  0
   -3.3427    1.3361    3.4089 C   0  0  0  0  0  0  0  0  0  0  0  0
   -1.1841    0.9249    2.4348 C   0  0  0  0  0  0  0  0  0  0  0  0
   -0.8064    1.9133    3.5282 C   0  0  0  0  0  0  0  0  0  0  0  0
    0.1183    1.2206    4.5462 C   0  0  0  0  0  0  0  0  0  0  0  0
   -0.5658    0.9761    5.8742 C   0  0  0  0  0  0  0  0  0  0  0  0
   -1.0346   -0.4974    5.9811 C   0  0  0  0  0  0  0  0  0  0  0  0
  4  5  2  0  0  0
  5  1  1  0  0  0
  1  2  1  0  0  0
  1  6  1  0  0  0
  6  7  1  0  0  0
  7  8  1  0  0  0
  8  9  1  0  0  0
  9 10  1  0  0  0
  2  3  1  0  0  0
M  END
> <minimizedAffinity>
-5.75820

$$$$
1G85_3OL_A_1001


 10  9  0  0  0  0  0  0  0  0999 V2000
    0.7878    0.6180    4.7988 C   0  0  0  0  0  0  0  0  0  0  0  0
    2.2240    0.9864    4.8566 O   0  0  0  0  0  0  0  0  0  0  0  0
    2.7668    0.1906    4.7429 H   0  0  0  0  0  0  0  0  0  0  0  0
   -0.3033   -0.1431    7.0349 C   0  0  0  0  0  0  0  0  0  0  0  0
    0.5008   -0.4145    5.8618 C   0  0  0  0  0  0  0  0  0  0  0  0
    0.4404   -0.0458    3.4873 C   0  0  0  0  0  0  0  0  0  0  0  0
   -0.3627    0.8908    2.5968 C   0  0  0  0  0  0  0  0  0  0  0  0
   -1.1766    1.8587    3.4755 C   0  0  0  0  0  0  0  0  0  0  0  0
   -2.6609    1.5642    3.4365 C   0  0  0  0  0  0  0  0  0  0  0  0
   -3.1084    0.8527    4.7387 C   0  0  0  0  0  0  0  0  0  0  0  0
  4  5  2  0  0  0
  5  1  1  0  0  0
  1  2  1  0  0  0
  1  6  1  0  0  0
  6  7  1  0  0  0
  7  8  1  0  0  0
  8  9  1  0  0  0
  9 10  1  0  0  0
  2  3  1  0  0  0
M  END
> <minimizedAffinity>
-5.66952

$$$$
1G85_3OL_A_1001


 10  9  0  0  0  0  0  0  0  0999 V2000
    0.8098   -0.6103    6.5744 C   0  0  0  0  0  0  0  0  0  0  0  0
    1.8750   -0.8000    7.5897 O   0  0  0  0  0  0  0  0  0  0  0  0
    2.2698   -1.6797    7.4838 H   0  0  0  0  0  0  0  0  0  0  0  0
    0.1088   -3.0363    7.2013 C   0  0  0  0  0  0  0  0  0  0  0  0
   -0.2153   -1.7081    6.7247 C   0  0  0  0  0  0  0  0  0  0  0  0
    1.3519   -0.7537    5.1720 C   0  0  0  0  0  0  0  0  0  0  0  0
    1.5789    0.6080    4.5321 C   0  0  0  0  0  0  0  0  0  0  0  0
    0.4034    1.5393    4.8817 C   0  0  0  0  0  0  0  0  0  0  0  0
   -0.5326    1.7516    3.7112 C   0  0  0  0  0  0  0  0  0  0  0  0
   -1.9927    1.4262    4.1168 C   0  0  0  0  0  0  0  0  0  0  0  0
  4  5  2  0  0  0
  5  1  1  0  0  0
  1  2  1  0  0  0
  1  6  1  0  0  0
  6  7  1  0  0  0
  7  8  1  0  0  0
  8  9  1  0  0  0
  9 10  1  0  0  0
  2  3  1  0  0  0
M  END
> <minimizedAffinity>
-5.64233

$$$$
1G85_3OL_A_1001


 10  9  0  0  0  0  0  0  0  0999 V2000
   -2.7613    0.8667    4.8448 C   0  0  0  0  0  0  0  0  0  0  0  0
   -3.4160   -0.4394    4.5852 O   0  0  0  0  0  0  0  0  0  0  0  0
   -2.8143   -1.0078    4.0794 H   0  0  0  0  0  0  0  0  0  0  0  0
   -1.0400    1.9901    3.2496 C   0  0  0  0  0  0  0  0  0  0  0  0
   -2.3709    1.4926    3.5279 C   0  0  0  0  0  0  0  0  0  0  0  0
   -1.4696    0.6947    5.6085 C   0  0  0  0  0  0  0  0  0  0  0  0
   -1.3052   -0.7401    6.0877 C   0  0  0  0  0  0  0  0  0  0  0  0
    0.1159   -1.2306    5.7543 C   0  0  0  0  0  0  0  0  0  0  0  0
    1.0396   -0.0981    5.3598 C   0  0  0  0  0  0  0  0  0  0  0  0
    1.6602   -0.3637    3.9646 C   0  0  0  0  0  0  0  0  0  0  0  0
  4  5  2  0  0  0
  5  1  1  0  0  0
  1  2  1  0  0  0
  1  6  1  0  0  0
  6  7  1  0  0  0
  7  8  1  0  0  0
  8  9  1  0  0  0
  9 10  1  0  0  0
  2  3  1  0  0  0
M  END
> <minimizedAffinity>
-5.54007

$$$$
1G85_3OL_A_1001


 10  9  0  0  0  0  0  0  0  0999 V2000
   -1.9458    1.6350    3.6269 C   0  0  0  0  0  0  0  0  0  0  0  0
   -2.3506    1.0623    4.9345 O   0  0  0  0  0  0  0  0  0  0  0  0
   -1.8193    0.2723    5.1199 H   0  0  0  0  0  0  0  0  0  0  0  0
   -1.8700   -0.8258    2.7855 C   0  0  0  0  0  0  0  0  0  0  0  0
   -2.1098    0.5835    2.5565 C   0  0  0  0  0  0  0  0  0  0  0  0
   -0.4801    1.9991    3.6136 C   0  0  0  0  0  0  0  0  0  0  0  0
    0.2331    1.4392    4.8356 C   0  0  0  0  0  0  0  0  0  0  0  0
    1.3008    0.4254    4.3844 C   0  0  0  0  0  0  0  0  0  0  0  0
    1.4872   -0.6985    5.3811 C   0  0  0  0  0  0  0  0  0  0  0  0
    0.1140   -1.2233    5.8718 C   0  0  0  0  0  0  0  0  0  0  0  0
  4  5  2  0  0  0
  5  1  1  0  0  0
  1  2  1  0  0  0
  1  6  1  0  0  0
  6  7  1  0  0  0
  7  8  1  0  0  0
  8  9  1  0  0  0
  9 10  1  0  0  0
  2  3  1  0  0  0
M  END
> <minimizedAffinity>
-5.52546

$$$$
1G85_3OL_A_1001


 10  9  0  0  0  0  0  0  0  0999 V2000
   -2.8709    0.8753    4.8010 C   0  0  0  0  0  0  0  0  0  0  0  0
   -3.7170   -0.2873    4.4344 O   0  0  0  0  0  0  0  0  0  0  0  0
   -3.2060   -0.8967    3.8790 H   0  0  0  0  0  0  0  0  0  0  0  0
   -0.9828    1.8426    3.2948 C   0  0  0  0  0  0  0  0  0  0  0  0
   -2.3778    1.5430    3.5403 C   0  0  0  0  0  0  0  0  0  0  0  0
   -1.6275    0.4418    5.5408 C   0  0  0  0  0  0  0  0  0  0  0  0
   -1.5425   -1.0752    5.6244 C   0  0  0  0  0  0  0  0  0  0  0  0
   -0.9199   -1.4786    6.9738 C   0  0  0  0  0  0  0  0  0  0  0  0
   -0.0718   -0.3760    7.5707 C   0  0  0  0  0  0  0  0  0  0  0  0
    1.4016   -0.8371    7.7077 C   0  0  0  0  0  0  0  0  0  0  0  0
  4  5  2  0  0  0
  5  1  1  0  0  0
  1  2  1  0  0  0
  1  6  1  0  0  0
  6  7  1  0  0  0
  7  8  1  0  0  0
  8  9  1  0  0  0
  9 10  1  0  0  0
  2  3  1  0  0  0
M  END
> <minimizedAffinity>
-5.49827

$$$$
1G85_3OL_A_1001


 10  9  0  0  0  0  0  0  0  0999 V2000
   -0.6075   -0.5366    5.9730 C   0  0  0  0  0  0  0  0  0  0  0  0
   -1.9160   -1.2247    5.8467 O   0  0  0  0  0  0  0  0  0  0  0  0
   -2.5225   -0.8936    6.5275 H   0  0  0  0  0  0  0  0  0  0  0  0
    1.3482   -0.8539    7.6594 C   0  0  0  0  0  0  0  0  0  0  0  0
   -0.0660   -0.7591    7.3643 C   0  0  0  0  0  0  0  0  0  0  0  0
   -0.7548    0.9599    5.8319 C   0  0  0  0  0  0  0  0  0  0  0  0
    0.0919    1.4862    4.6823 C   0  0  0  0  0  0  0  0  0  0  0  0
   -0.8297    1.9462    3.5376 C   0  0  0  0  0  0  0  0  0  0  0  0
   -0.8408    0.9723    2.3789 C   0  0  0  0  0  0  0  0  0  0  0  0
   -2.0466    0.0054    2.4928 C   0  0  0  0  0  0  0  0  0  0  0  0
  4  5  2  0  0  0
  5  1  1  0  0  0
  1  2  1  0  0  0
  1  6  1  0  0  0
  6  7  1  0  0  0
  7  8  1  0  0  0
  8  9  1  0  0  0
  9 10  1  0  0  0
  2  3  1  0  0  0
M  END
> <minimizedAffinity>
-5.47865

$$$$
1G85_3OL_A_1001


 10  9  0  0  0  0  0  0  0  0999 V2000
    0.3192   -1.2894    5.9746 C   0  0  0  0  0  0  0  0  0  0  0  0
    0.8497   -0.5360    7.1377 O   0  0  0  0  0  0  0  0  0  0  0  0
    0.5840    0.3944    7.0687 H   0  0  0  0  0  0  0  0  0  0  0  0
    1.6347    0.5473    4.6840 C   0  0  0  0  0  0  0  0  0  0  0  0
    0.8255   -0.6531    4.7029 C   0  0  0  0  0  0  0  0  0  0  0  0
   -1.1866   -1.1997    5.8989 C   0  0  0  0  0  0  0  0  0  0  0  0
   -1.6682   -1.3003    4.4590 C   0  0  0  0  0  0  0  0  0  0  0  0
   -2.8571   -0.3442    4.2498 C   0  0  0  0  0  0  0  0  0  0  0  0
   -2.5080    1.0914    4.5791 C   0  0  0  0  0  0  0  0  0  0  0  0
   -1.7076    1.7361    3.4190 C   0  0  0  0  0  0  0  0  0  0  0  0
  4  5  2  0  0  0
  5  1  1  0  0  0
  1  2  1  0  0  0
  1  6  1  0  0  0
  6  7  1  0  0  0
  7  8  1  0  0  0
  8  9  1  0  0  0
  9 10  1  0  0  0
  2  3  1  0  0  0
M  END
> <minimizedAffinity>
-5.39442

$$$$
