2I6B_89I_A_500


 32 35  0  0  0  0  0  0  0  0999 V2000
    0.4400   -3.1076   24.4977 C   0  0  0  0  0  0  0  0  0  0  0  0
    1.3276   -3.0340   25.4632 N   0  0  0  0  0  0  0  0  0  0  0  0
    2.5784   -2.8897   25.0137 C   0  0  0  0  0  0  0  0  0  0  0  0
    2.9788   -2.8280   23.7061 C   0  0  0  0  0  0  0  0  0  0  0  0
    1.9317   -2.9216   22.8070 C   0  0  0  0  0  0  0  0  0  0  0  0
    0.6687   -3.0770   23.1891 N   0  0  0  0  0  0  0  0  0  0  0  0
    2.1977   -2.8721   21.4564 N   0  0  0  0  0  0  0  0  0  0  0  0
    3.1232   -2.7577   21.1408 H   0  0  0  0  0  0  0  0  0  0  0  0
    1.4623   -2.9511   20.8067 H   0  0  0  0  0  0  0  0  0  0  0  0
    4.3606   -2.5856   23.3231 C   0  0  0  0  0  0  0  0  0  0  0  0
    5.1171   -3.6997   23.1201 C   0  0  0  0  0  0  0  0  0  0  0  0
    6.4550   -3.6319   22.7926 C   0  0  0  0  0  0  0  0  0  0  0  0
    7.1017   -2.4399   22.6318 C   0  0  0  0  0  0  0  0  0  0  0  0
    6.3218   -1.3122   22.8073 C   0  0  0  0  0  0  0  0  0  0  0  0
    4.9846   -1.3806   23.1560 C   0  0  0  0  0  0  0  0  0  0  0  0
    8.4904   -2.4943   22.3006 N   0  0  0  0  0  0  0  0  0  0  0  0
    9.2414   -1.2238   22.3505 C   0  0  0  0  0  0  0  0  0  0  0  0
    9.0301   -3.4738   23.2354 C   0  0  0  0  0  0  0  0  0  0  0  0
    3.5801   -2.7843   25.9980 C   0  0  0  0  0  0  0  0  0  0  0  0
    4.5903   -2.8187   26.6773 C   0  0  0  0  0  0  0  0  0  0  0  0
    6.1401   -3.0272   28.4535 C   0  0  0  0  0  0  0  0  0  0  0  0
    7.3493   -3.0536   29.0213 N   0  0  0  0  0  0  0  0  0  0  0  0
    8.3676   -2.7487   28.1832 C   0  0  0  0  0  0  0  0  0  0  0  0
    8.1894   -2.4494   26.8380 C   0  0  0  0  0  0  0  0  0  0  0  0
    6.9178   -2.4696   26.2958 C   0  0  0  0  0  0  0  0  0  0  0  0
    5.8809   -2.7407   27.1465 C   0  0  0  0  0  0  0  0  0  0  0  0
   10.2422   -3.9273   29.2296 C   0  0  0  0  0  0  0  0  0  0  0  0
   11.7656   -3.8515   29.1528 C   0  0  0  0  0  0  0  0  0  0  0  0
   12.1505   -2.5471   29.6021 O   0  0  0  0  0  0  0  0  0  0  0  0
   11.6798   -1.5365   28.7419 C   0  0  0  0  0  0  0  0  0  0  0  0
   10.1943   -1.4077   28.9818 C   0  0  0  0  0  0  0  0  0  0  0  0
    9.6932   -2.6931   28.6543 N   0  0  0  0  0  0  0  0  0  0  0  0
  1  2  2  0  0  0
  1  6  1  0  0  0
  2  3  1  0  0  0
  3 19  1  0  0  0
  3  4  2  0  0  0
  4 10  1  0  0  0
  4  5  1  0  0  0
  5  7  1  0  0  0
  5  6  2  0  0  0
 10 15  2  0  0  0
 10 11  1  0  0  0
 11 12  2  0  0  0
 12 13  1  0  0  0
 13 16  1  0  0  0
 13 14  2  0  0  0
 14 15  1  0  0  0
 21 22  2  0  0  0
 21 26  1  0  0  0
 22 23  1  0  0  0
 23 32  1  0  0  0
 23 24  2  0  0  0
 24 25  1  0  0  0
 25 26  2  0  0  0
 26 20  1  0  0  0
 27 28  1  0  0  0
 27 32  1  0  0  0
 28 29  1  0  0  0
 29 30  1  0  0  0
 30 31  1  0  0  0
 31 32  1  0  0  0
 19 20  3  0  0  0
 16 17  1  0  0  0
 16 18  1  0  0  0
  7  8  1  0  0  0
  7  9  1  0  0  0
M  END
> <minimizedAffinity>
-8.38468

$$$$
2I6B_89I_A_500


 32 35  0  0  0  0  0  0  0  0999 V2000
    5.6256   -3.0465   29.7974 C   0  0  0  0  0  0  0  0  0  0  0  0
    4.5236   -3.0243   29.0828 N   0  0  0  0  0  0  0  0  0  0  0  0
    4.7541   -3.0326   27.7659 C   0  0  0  0  0  0  0  0  0  0  0  0
    5.9747   -3.0500   27.1462 C   0  0  0  0  0  0  0  0  0  0  0  0
    7.0383   -3.0695   28.0305 C   0  0  0  0  0  0  0  0  0  0  0  0
    6.8764   -3.0516   29.3492 N   0  0  0  0  0  0  0  0  0  0  0  0
    8.3240   -3.0893   27.5367 N   0  0  0  0  0  0  0  0  0  0  0  0
    8.4777   -3.1029   26.5643 H   0  0  0  0  0  0  0  0  0  0  0  0
    9.0893   -3.0898   28.1560 H   0  0  0  0  0  0  0  0  0  0  0  0
    6.1160   -3.1416   25.7018 C   0  0  0  0  0  0  0  0  0  0  0  0
    6.1741   -1.9519   25.0415 C   0  0  0  0  0  0  0  0  0  0  0  0
    6.2666   -1.8758   23.6676 C   0  0  0  0  0  0  0  0  0  0  0  0
    6.3254   -2.9919   22.8828 C   0  0  0  0  0  0  0  0  0  0  0  0
    6.2985   -4.1967   23.5600 C   0  0  0  0  0  0  0  0  0  0  0  0
    6.1851   -4.2727   24.9368 C   0  0  0  0  0  0  0  0  0  0  0  0
    6.4115   -2.7891   21.4713 N   0  0  0  0  0  0  0  0  0  0  0  0
    5.9028   -3.8725   20.6064 C   0  0  0  0  0  0  0  0  0  0  0  0
    5.6840   -1.5444   21.2564 C   0  0  0  0  0  0  0  0  0  0  0  0
    3.6140   -3.0297   26.9392 C   0  0  0  0  0  0  0  0  0  0  0  0
    2.7929   -2.9493   26.0434 C   0  0  0  0  0  0  0  0  0  0  0  0
    0.7482   -2.9711   24.8522 C   0  0  0  0  0  0  0  0  0  0  0  0
   -0.0324   -2.9824   23.7679 N   0  0  0  0  0  0  0  0  0  0  0  0
    0.6382   -3.0885   22.5969 C   0  0  0  0  0  0  0  0  0  0  0  0
    2.0232   -3.1617   22.5109 C   0  0  0  0  0  0  0  0  0  0  0  0
    2.7833   -3.1121   23.6647 C   0  0  0  0  0  0  0  0  0  0  0  0
    2.1093   -3.0423   24.8535 C   0  0  0  0  0  0  0  0  0  0  0  0
   -1.0948   -4.1910   21.2628 C   0  0  0  0  0  0  0  0  0  0  0  0
   -2.0726   -3.7668   20.1690 C   0  0  0  0  0  0  0  0  0  0  0  0
   -1.2949   -3.3229   19.0511 O   0  0  0  0  0  0  0  0  0  0  0  0
   -0.5490   -2.1684   19.3571 C   0  0  0  0  0  0  0  0  0  0  0  0
    0.5936   -2.6021   20.2444 C   0  0  0  0  0  0  0  0  0  0  0  0
   -0.0575   -3.1580   21.3748 N   0  0  0  0  0  0  0  0  0  0  0  0
  1  2  2  0  0  0
  1  6  1  0  0  0
  2  3  1  0  0  0
  3 19  1  0  0  0
  3  4  2  0  0  0
  4 10  1  0  0  0
  4  5  1  0  0  0
  5  7  1  0  0  0
  5  6  2  0  0  0
 10 15  2  0  0  0
 10 11  1  0  0  0
 11 12  2  0  0  0
 12 13  1  0  0  0
 13 16  1  0  0  0
 13 14  2  0  0  0
 14 15  1  0  0  0
 21 22  2  0  0  0
 21 26  1  0  0  0
 22 23  1  0  0  0
 23 32  1  0  0  0
 23 24  2  0  0  0
 24 25  1  0  0  0
 25 26  2  0  0  0
 26 20  1  0  0  0
 27 28  1  0  0  0
 27 32  1  0  0  0
 28 29  1  0  0  0
 29 30  1  0  0  0
 30 31  1  0  0  0
 31 32  1  0  0  0
 19 20  3  0  0  0
 16 17  1  0  0  0
 16 18  1  0  0  0
  7  8  1  0  0  0
  7  9  1  0  0  0
M  END
> <minimizedAffinity>
-8.31873

$$$$
2I6B_89I_A_500


 32 35  0  0  0  0  0  0  0  0999 V2000
    8.6265   -2.6324   28.5809 C   0  0  0  0  0  0  0  0  0  0  0  0
    7.3214   -2.6684   28.4362 N   0  0  0  0  0  0  0  0  0  0  0  0
    6.9385   -2.7191   27.1563 C   0  0  0  0  0  0  0  0  0  0  0  0
    7.7523   -2.7247   26.0555 C   0  0  0  0  0  0  0  0  0  0  0  0
    9.0989   -2.6808   26.3689 C   0  0  0  0  0  0  0  0  0  0  0  0
    9.5436   -2.6183   27.6195 N   0  0  0  0  0  0  0  0  0  0  0  0
   10.0273   -2.6821   25.3514 N   0  0  0  0  0  0  0  0  0  0  0  0
    9.7301   -2.7276   24.4140 H   0  0  0  0  0  0  0  0  0  0  0  0
   10.9881   -2.6377   25.5616 H   0  0  0  0  0  0  0  0  0  0  0  0
    7.2361   -2.8659   24.7033 C   0  0  0  0  0  0  0  0  0  0  0  0
    6.9317   -1.7010   24.0669 C   0  0  0  0  0  0  0  0  0  0  0  0
    6.3951   -1.6740   22.7969 C   0  0  0  0  0  0  0  0  0  0  0  0
    6.1527   -2.8162   22.0886 C   0  0  0  0  0  0  0  0  0  0  0  0
    6.4932   -3.9944   22.7263 C   0  0  0  0  0  0  0  0  0  0  0  0
    7.0125   -4.0220   24.0084 C   0  0  0  0  0  0  0  0  0  0  0  0
    5.5870   -2.6643   20.7856 N   0  0  0  0  0  0  0  0  0  0  0  0
    5.5271   -3.8709   19.9363 C   0  0  0  0  0  0  0  0  0  0  0  0
    4.2581   -2.1254   21.0469 C   0  0  0  0  0  0  0  0  0  0  0  0
    5.5499   -2.7797   26.9290 C   0  0  0  0  0  0  0  0  0  0  0  0
    4.4145   -2.7835   26.4887 C   0  0  0  0  0  0  0  0  0  0  0  0
    2.0614   -2.6632   26.2677 C   0  0  0  0  0  0  0  0  0  0  0  0
    0.8885   -2.7602   25.6353 N   0  0  0  0  0  0  0  0  0  0  0  0
    0.9701   -3.2555   24.3782 C   0  0  0  0  0  0  0  0  0  0  0  0
    2.1675   -3.6197   23.7743 C   0  0  0  0  0  0  0  0  0  0  0  0
    3.3555   -3.4665   24.4645 C   0  0  0  0  0  0  0  0  0  0  0  0
    3.2755   -3.0014   25.7490 C   0  0  0  0  0  0  0  0  0  0  0  0
   -1.2436   -4.2887   24.2042 C   0  0  0  0  0  0  0  0  0  0  0  0
   -2.5680   -3.9372   23.5297 C   0  0  0  0  0  0  0  0  0  0  0  0
   -2.3264   -3.8827   22.1190 O   0  0  0  0  0  0  0  0  0  0  0  0
   -1.4428   -2.8405   21.7785 C   0  0  0  0  0  0  0  0  0  0  0  0
   -0.0612   -3.2737   22.2082 C   0  0  0  0  0  0  0  0  0  0  0  0
   -0.1917   -3.4556   23.6084 N   0  0  0  0  0  0  0  0  0  0  0  0
  1  2  2  0  0  0
  1  6  1  0  0  0
  2  3  1  0  0  0
  3 19  1  0  0  0
  3  4  2  0  0  0
  4 10  1  0  0  0
  4  5  1  0  0  0
  5  7  1  0  0  0
  5  6  2  0  0  0
 10 15  2  0  0  0
 10 11  1  0  0  0
 11 12  2  0  0  0
 12 13  1  0  0  0
 13 16  1  0  0  0
 13 14  2  0  0  0
 14 15  1  0  0  0
 21 22  2  0  0  0
 21 26  1  0  0  0
 22 23  1  0  0  0
 23 32  1  0  0  0
 23 24  2  0  0  0
 24 25  1  0  0  0
 25 26  2  0  0  0
 26 20  1  0  0  0
 27 28  1  0  0  0
 27 32  1  0  0  0
 28 29  1  0  0  0
 29 30  1  0  0  0
 30 31  1  0  0  0
 31 32  1  0  0  0
 19 20  3  0  0  0
 16 17  1  0  0  0
 16 18  1  0  0  0
  7  8  1  0  0  0
  7  9  1  0  0  0
M  END
> <minimizedAffinity>
-8.12756

$$$$
2I6B_89I_A_500


 32 35  0  0  0  0  0  0  0  0999 V2000
    4.9089   -3.1790   29.5937 C   0  0  0  0  0  0  0  0  0  0  0  0
    4.2967   -3.0899   28.4349 N   0  0  0  0  0  0  0  0  0  0  0  0
    5.1407   -2.9552   27.4067 C   0  0  0  0  0  0  0  0  0  0  0  0
    6.5069   -2.8958   27.4685 C   0  0  0  0  0  0  0  0  0  0  0  0
    7.0027   -3.0008   28.7556 C   0  0  0  0  0  0  0  0  0  0  0  0
    6.2171   -3.1253   29.8199 N   0  0  0  0  0  0  0  0  0  0  0  0
    8.3644   -2.9566   28.9582 N   0  0  0  0  0  0  0  0  0  0  0  0
    8.9736   -2.8648   28.1903 H   0  0  0  0  0  0  0  0  0  0  0  0
    8.7285   -3.0168   29.8709 H   0  0  0  0  0  0  0  0  0  0  0  0
    7.3404   -2.8311   26.2785 C   0  0  0  0  0  0  0  0  0  0  0  0
    7.7874   -1.5894   25.9423 C   0  0  0  0  0  0  0  0  0  0  0  0
    8.5533   -1.3617   24.8183 C   0  0  0  0  0  0  0  0  0  0  0  0
    8.9286   -2.3729   23.9806 C   0  0  0  0  0  0  0  0  0  0  0  0
    8.4995   -3.6357   24.3438 C   0  0  0  0  0  0  0  0  0  0  0  0
    7.7140   -3.8608   25.4603 C   0  0  0  0  0  0  0  0  0  0  0  0
    9.7151   -2.0151   22.8429 N   0  0  0  0  0  0  0  0  0  0  0  0
    9.0370   -1.2598   21.7703 C   0  0  0  0  0  0  0  0  0  0  0  0
   10.8234   -1.2596   23.4132 C   0  0  0  0  0  0  0  0  0  0  0  0
    4.5511   -2.8737   26.1303 C   0  0  0  0  0  0  0  0  0  0  0  0
    4.2026   -2.6057   24.9946 C   0  0  0  0  0  0  0  0  0  0  0  0
    5.1945   -1.6293   23.0807 C   0  0  0  0  0  0  0  0  0  0  0  0
    5.3086   -1.3300   21.7836 N   0  0  0  0  0  0  0  0  0  0  0  0
    4.2701   -1.7439   21.0205 C   0  0  0  0  0  0  0  0  0  0  0  0
    3.1780   -2.4395   21.5249 C   0  0  0  0  0  0  0  0  0  0  0  0
    3.1285   -2.7514   22.8709 C   0  0  0  0  0  0  0  0  0  0  0  0
    4.1576   -2.3031   23.6536 C   0  0  0  0  0  0  0  0  0  0  0  0
    5.5094   -1.1125   19.0046 C   0  0  0  0  0  0  0  0  0  0  0  0
    5.3846   -1.3911   17.5082 C   0  0  0  0  0  0  0  0  0  0  0  0
    4.1300   -0.8509   17.0775 O   0  0  0  0  0  0  0  0  0  0  0  0
    3.0411   -1.5139   17.6755 C   0  0  0  0  0  0  0  0  0  0  0  0
    2.9802   -1.0565   19.1136 C   0  0  0  0  0  0  0  0  0  0  0  0
    4.2330   -1.4584   19.6423 N   0  0  0  0  0  0  0  0  0  0  0  0
  1  2  2  0  0  0
  1  6  1  0  0  0
  2  3  1  0  0  0
  3 19  1  0  0  0
  3  4  2  0  0  0
  4 10  1  0  0  0
  4  5  1  0  0  0
  5  7  1  0  0  0
  5  6  2  0  0  0
 10 15  2  0  0  0
 10 11  1  0  0  0
 11 12  2  0  0  0
 12 13  1  0  0  0
 13 16  1  0  0  0
 13 14  2  0  0  0
 14 15  1  0  0  0
 21 22  2  0  0  0
 21 26  1  0  0  0
 22 23  1  0  0  0
 23 32  1  0  0  0
 23 24  2  0  0  0
 24 25  1  0  0  0
 25 26  2  0  0  0
 26 20  1  0  0  0
 27 28  1  0  0  0
 27 32  1  0  0  0
 28 29  1  0  0  0
 29 30  1  0  0  0
 30 31  1  0  0  0
 31 32  1  0  0  0
 19 20  3  0  0  0
 16 17  1  0  0  0
 16 18  1  0  0  0
  7  8  1  0  0  0
  7  9  1  0  0  0
M  END
> <minimizedAffinity>
-7.51931

$$$$
2I6B_89I_A_500


 32 35  0  0  0  0  0  0  0  0999 V2000
    0.8946   -2.6498   20.6609 C   0  0  0  0  0  0  0  0  0  0  0  0
    2.1264   -2.1942   20.6390 N   0  0  0  0  0  0  0  0  0  0  0  0
    2.7946   -2.4388   21.7709 C   0  0  0  0  0  0  0  0  0  0  0  0
    2.3180   -3.0777   22.8838 C   0  0  0  0  0  0  0  0  0  0  0  0
    1.0058   -3.4965   22.7559 C   0  0  0  0  0  0  0  0  0  0  0  0
    0.2845   -3.2747   21.6623 N   0  0  0  0  0  0  0  0  0  0  0  0
    0.4040   -4.1549   23.8054 N   0  0  0  0  0  0  0  0  0  0  0  0
    0.9114   -4.3345   24.6297 H   0  0  0  0  0  0  0  0  0  0  0  0
   -0.5336   -4.4459   23.7313 H   0  0  0  0  0  0  0  0  0  0  0  0
    3.1556   -3.3675   24.0368 C   0  0  0  0  0  0  0  0  0  0  0  0
    3.0601   -2.4832   25.0681 C   0  0  0  0  0  0  0  0  0  0  0  0
    3.8212   -2.6011   26.2121 C   0  0  0  0  0  0  0  0  0  0  0  0
    4.7065   -3.6255   26.3907 C   0  0  0  0  0  0  0  0  0  0  0  0
    4.7761   -4.5382   25.3548 C   0  0  0  0  0  0  0  0  0  0  0  0
    4.0273   -4.4082   24.1986 C   0  0  0  0  0  0  0  0  0  0  0  0
    5.4456   -3.6391   27.6131 N   0  0  0  0  0  0  0  0  0  0  0  0
    6.7070   -2.8719   27.6419 C   0  0  0  0  0  0  0  0  0  0  0  0
    4.4928   -3.1425   28.5981 C   0  0  0  0  0  0  0  0  0  0  0  0
    4.1302   -1.9939   21.8080 C   0  0  0  0  0  0  0  0  0  0  0  0
    5.2105   -1.4885   22.0545 C   0  0  0  0  0  0  0  0  0  0  0  0
    7.0276    0.0254   22.1372 C   0  0  0  0  0  0  0  0  0  0  0  0
    8.1198    0.5937   22.6558 N   0  0  0  0  0  0  0  0  0  0  0  0
    8.5744    0.0037   23.7861 C   0  0  0  0  0  0  0  0  0  0  0  0
    7.9577   -1.0904   24.3806 C   0  0  0  0  0  0  0  0  0  0  0  0
    6.8099   -1.6172   23.8182 C   0  0  0  0  0  0  0  0  0  0  0  0
    6.3670   -1.0483   22.6551 C   0  0  0  0  0  0  0  0  0  0  0  0
   10.7092    1.1859   23.5766 C   0  0  0  0  0  0  0  0  0  0  0  0
   11.5709    2.0625   24.4829 C   0  0  0  0  0  0  0  0  0  0  0  0
   11.9627    1.2611   25.6035 O   0  0  0  0  0  0  0  0  0  0  0  0
   10.8569    0.8815   26.3884 C   0  0  0  0  0  0  0  0  0  0  0  0
   10.1147   -0.1862   25.6202 C   0  0  0  0  0  0  0  0  0  0  0  0
    9.7437    0.4680   24.4182 N   0  0  0  0  0  0  0  0  0  0  0  0
  1  2  2  0  0  0
  1  6  1  0  0  0
  2  3  1  0  0  0
  3 19  1  0  0  0
  3  4  2  0  0  0
  4 10  1  0  0  0
  4  5  1  0  0  0
  5  7  1  0  0  0
  5  6  2  0  0  0
 10 15  2  0  0  0
 10 11  1  0  0  0
 11 12  2  0  0  0
 12 13  1  0  0  0
 13 16  1  0  0  0
 13 14  2  0  0  0
 14 15  1  0  0  0
 21 22  2  0  0  0
 21 26  1  0  0  0
 22 23  1  0  0  0
 23 32  1  0  0  0
 23 24  2  0  0  0
 24 25  1  0  0  0
 25 26  2  0  0  0
 26 20  1  0  0  0
 27 28  1  0  0  0
 27 32  1  0  0  0
 28 29  1  0  0  0
 29 30  1  0  0  0
 30 31  1  0  0  0
 31 32  1  0  0  0
 19 20  3  0  0  0
 16 17  1  0  0  0
 16 18  1  0  0  0
  7  8  1  0  0  0
  7  9  1  0  0  0
M  END
> <minimizedAffinity>
-7.40453

$$$$
2I6B_89I_A_500


 32 35  0  0  0  0  0  0  0  0999 V2000
    0.3968   -1.8119   18.4945 C   0  0  0  0  0  0  0  0  0  0  0  0
    0.5078   -2.1685   19.7539 N   0  0  0  0  0  0  0  0  0  0  0  0
    1.7780   -2.2650   20.1600 C   0  0  0  0  0  0  0  0  0  0  0  0
    2.8996   -2.0449   19.4067 C   0  0  0  0  0  0  0  0  0  0  0  0
    2.6209   -1.6793   18.1020 C   0  0  0  0  0  0  0  0  0  0  0  0
    1.3816   -1.5765   17.6341 N   0  0  0  0  0  0  0  0  0  0  0  0
    3.6623   -1.4272   17.2364 N   0  0  0  0  0  0  0  0  0  0  0  0
    4.5923   -1.4949   17.5523 H   0  0  0  0  0  0  0  0  0  0  0  0
    3.4766   -1.1793   16.3019 H   0  0  0  0  0  0  0  0  0  0  0  0
    4.2401   -2.0962   19.9683 C   0  0  0  0  0  0  0  0  0  0  0  0
    4.9003   -3.2759   19.8037 C   0  0  0  0  0  0  0  0  0  0  0  0
    6.1625   -3.4912   20.3159 C   0  0  0  0  0  0  0  0  0  0  0  0
    6.8387   -2.5257   21.0054 C   0  0  0  0  0  0  0  0  0  0  0  0
    6.1774   -1.3195   21.1420 C   0  0  0  0  0  0  0  0  0  0  0  0
    4.9029   -1.1107   20.6457 C   0  0  0  0  0  0  0  0  0  0  0  0
    8.1365   -2.8666   21.4958 N   0  0  0  0  0  0  0  0  0  0  0  0
    8.7900   -1.8940   22.3944 C   0  0  0  0  0  0  0  0  0  0  0  0
    7.9303   -4.1509   22.1537 C   0  0  0  0  0  0  0  0  0  0  0  0
    1.9698   -2.6249   21.5079 C   0  0  0  0  0  0  0  0  0  0  0  0
    2.3848   -2.9323   22.6108 C   0  0  0  0  0  0  0  0  0  0  0  0
    4.4150   -3.2165   23.7932 C   0  0  0  0  0  0  0  0  0  0  0  0
    5.2074   -3.2436   24.8685 N   0  0  0  0  0  0  0  0  0  0  0  0
    4.5632   -3.0508   26.0432 C   0  0  0  0  0  0  0  0  0  0  0  0
    3.1956   -2.8239   26.1389 C   0  0  0  0  0  0  0  0  0  0  0  0
    2.4290   -2.7733   24.9894 C   0  0  0  0  0  0  0  0  0  0  0  0
    3.0687   -3.0043   23.8020 C   0  0  0  0  0  0  0  0  0  0  0  0
    6.7242   -3.2330   27.1812 C   0  0  0  0  0  0  0  0  0  0  0  0
    7.3240   -2.7127   28.4858 C   0  0  0  0  0  0  0  0  0  0  0  0
    6.5524   -3.2639   29.5592 O   0  0  0  0  0  0  0  0  0  0  0  0
    5.2241   -2.7967   29.5434 C   0  0  0  0  0  0  0  0  0  0  0  0
    4.5224   -3.4967   28.4038 C   0  0  0  0  0  0  0  0  0  0  0  0
    5.2646   -3.0982   27.2632 N   0  0  0  0  0  0  0  0  0  0  0  0
  1  2  2  0  0  0
  1  6  1  0  0  0
  2  3  1  0  0  0
  3 19  1  0  0  0
  3  4  2  0  0  0
  4 10  1  0  0  0
  4  5  1  0  0  0
  5  7  1  0  0  0
  5  6  2  0  0  0
 10 15  2  0  0  0
 10 11  1  0  0  0
 11 12  2  0  0  0
 12 13  1  0  0  0
 13 16  1  0  0  0
 13 14  2  0  0  0
 14 15  1  0  0  0
 21 22  2  0  0  0
 21 26  1  0  0  0
 22 23  1  0  0  0
 23 32  1  0  0  0
 23 24  2  0  0  0
 24 25  1  0  0  0
 25 26  2  0  0  0
 26 20  1  0  0  0
 27 28  1  0  0  0
 27 32  1  0  0  0
 28 29  1  0  0  0
 29 30  1  0  0  0
 30 31  1  0  0  0
 31 32  1  0  0  0
 19 20  3  0  0  0
 16 17  1  0  0  0
 16 18  1  0  0  0
  7  8  1  0  0  0
  7  9  1  0  0  0
M  END
> <minimizedAffinity>
-7.23864

$$$$
2I6B_89I_A_500


 32 35  0  0  0  0  0  0  0  0999 V2000
    0.5752   -3.1656   24.2899 C   0  0  0  0  0  0  0  0  0  0  0  0
    1.5586   -3.1083   25.1589 N   0  0  0  0  0  0  0  0  0  0  0  0
    2.7554   -2.9495   24.5844 C   0  0  0  0  0  0  0  0  0  0  0  0
    3.0169   -2.8592   23.2437 C   0  0  0  0  0  0  0  0  0  0  0  0
    1.8818   -2.9385   22.4570 C   0  0  0  0  0  0  0  0  0  0  0  0
    0.6659   -3.1071   22.9656 N   0  0  0  0  0  0  0  0  0  0  0  0
    2.0051   -2.8601   21.0874 N   0  0  0  0  0  0  0  0  0  0  0  0
    2.8924   -2.7354   20.6794 H   0  0  0  0  0  0  0  0  0  0  0  0
    1.2060   -2.9288   20.5165 H   0  0  0  0  0  0  0  0  0  0  0  0
    4.3507   -2.6032   22.7237 C   0  0  0  0  0  0  0  0  0  0  0  0
    4.7750   -1.3118   22.8074 C   0  0  0  0  0  0  0  0  0  0  0  0
    5.9995   -0.9059   22.3199 C   0  0  0  0  0  0  0  0  0  0  0  0
    6.8734   -1.7796   21.7386 C   0  0  0  0  0  0  0  0  0  0  0  0
    6.4515   -3.0949   21.6851 C   0  0  0  0  0  0  0  0  0  0  0  0
    5.2145   -3.4980   22.1558 C   0  0  0  0  0  0  0  0  0  0  0  0
    8.1088   -1.2423   21.2632 N   0  0  0  0  0  0  0  0  0  0  0  0
    8.0717    0.1190   20.6921 C   0  0  0  0  0  0  0  0  0  0  0  0
    8.9859   -1.3131   22.4252 C   0  0  0  0  0  0  0  0  0  0  0  0
    3.8542   -2.8602   25.4607 C   0  0  0  0  0  0  0  0  0  0  0  0
    4.8768   -3.0027   26.1066 C   0  0  0  0  0  0  0  0  0  0  0  0
    6.5443   -2.8724   27.7807 C   0  0  0  0  0  0  0  0  0  0  0  0
    7.7453   -3.0851   28.3260 N   0  0  0  0  0  0  0  0  0  0  0  0
    8.6347   -3.6880   27.5028 C   0  0  0  0  0  0  0  0  0  0  0  0
    8.3342   -4.0766   26.2029 C   0  0  0  0  0  0  0  0  0  0  0  0
    7.0639   -3.8614   25.7014 C   0  0  0  0  0  0  0  0  0  0  0  0
    6.1719   -3.2188   26.5163 C   0  0  0  0  0  0  0  0  0  0  0  0
   11.0197   -3.6974   26.9459 C   0  0  0  0  0  0  0  0  0  0  0  0
   12.3242   -3.4667   27.7058 C   0  0  0  0  0  0  0  0  0  0  0  0
   12.4117   -4.4759   28.7183 O   0  0  0  0  0  0  0  0  0  0  0  0
   11.3895   -4.3455   29.6779 C   0  0  0  0  0  0  0  0  0  0  0  0
   10.1098   -4.8153   29.0278 C   0  0  0  0  0  0  0  0  0  0  0  0
    9.9542   -3.9342   27.9278 N   0  0  0  0  0  0  0  0  0  0  0  0
  1  2  2  0  0  0
  1  6  1  0  0  0
  2  3  1  0  0  0
  3 19  1  0  0  0
  3  4  2  0  0  0
  4 10  1  0  0  0
  4  5  1  0  0  0
  5  7  1  0  0  0
  5  6  2  0  0  0
 10 15  2  0  0  0
 10 11  1  0  0  0
 11 12  2  0  0  0
 12 13  1  0  0  0
 13 16  1  0  0  0
 13 14  2  0  0  0
 14 15  1  0  0  0
 21 22  2  0  0  0
 21 26  1  0  0  0
 22 23  1  0  0  0
 23 32  1  0  0  0
 23 24  2  0  0  0
 24 25  1  0  0  0
 25 26  2  0  0  0
 26 20  1  0  0  0
 27 28  1  0  0  0
 27 32  1  0  0  0
 28 29  1  0  0  0
 29 30  1  0  0  0
 30 31  1  0  0  0
 31 32  1  0  0  0
 19 20  3  0  0  0
 16 17  1  0  0  0
 16 18  1  0  0  0
  7  8  1  0  0  0
  7  9  1  0  0  0
M  END
> <minimizedAffinity>
-7.18704

$$$$
2I6B_89I_A_500


 32 35  0  0  0  0  0  0  0  0999 V2000
    8.1681   -3.1870   27.4284 C   0  0  0  0  0  0  0  0  0  0  0  0
    6.8693   -3.0277   27.3133 N   0  0  0  0  0  0  0  0  0  0  0  0
    6.4840   -2.7623   26.0609 C   0  0  0  0  0  0  0  0  0  0  0  0
    7.2912   -2.6408   24.9620 C   0  0  0  0  0  0  0  0  0  0  0  0
    8.6321   -2.8329   25.2426 C   0  0  0  0  0  0  0  0  0  0  0  0
    9.0801   -3.0885   26.4671 N   0  0  0  0  0  0  0  0  0  0  0  0
    9.5534   -2.7391   24.2230 N   0  0  0  0  0  0  0  0  0  0  0  0
    9.2535   -2.5506   23.3044 H   0  0  0  0  0  0  0  0  0  0  0  0
   10.5118   -2.8605   24.4128 H   0  0  0  0  0  0  0  0  0  0  0  0
    6.7622   -2.4315   23.6236 C   0  0  0  0  0  0  0  0  0  0  0  0
    6.4451   -3.5627   22.9347 C   0  0  0  0  0  0  0  0  0  0  0  0
    5.9713   -3.5280   21.6400 C   0  0  0  0  0  0  0  0  0  0  0  0
    5.7717   -2.3532   20.9730 C   0  0  0  0  0  0  0  0  0  0  0  0
    6.0644   -1.2068   21.6879 C   0  0  0  0  0  0  0  0  0  0  0  0
    6.5591   -1.2427   22.9795 C   0  0  0  0  0  0  0  0  0  0  0  0
    5.2852   -2.4422   19.6328 N   0  0  0  0  0  0  0  0  0  0  0  0
    5.9560   -1.6033   18.6194 C   0  0  0  0  0  0  0  0  0  0  0  0
    5.4007   -3.8605   19.3172 C   0  0  0  0  0  0  0  0  0  0  0  0
    5.0994   -2.5992   25.8622 C   0  0  0  0  0  0  0  0  0  0  0  0
    3.9582   -2.5129   25.4456 C   0  0  0  0  0  0  0  0  0  0  0  0
    2.7223   -3.1918   23.5451 C   0  0  0  0  0  0  0  0  0  0  0  0
    1.6239   -3.5018   22.8506 N   0  0  0  0  0  0  0  0  0  0  0  0
    0.4643   -3.3042   23.5203 C   0  0  0  0  0  0  0  0  0  0  0  0
    0.4045   -2.8365   24.8275 C   0  0  0  0  0  0  0  0  0  0  0  0
    1.5753   -2.5631   25.5099 C   0  0  0  0  0  0  0  0  0  0  0  0
    2.7491   -2.7256   24.8255 C   0  0  0  0  0  0  0  0  0  0  0  0
   -0.9575   -2.9882   21.5513 C   0  0  0  0  0  0  0  0  0  0  0  0
   -2.0523   -3.7888   20.8492 C   0  0  0  0  0  0  0  0  0  0  0  0
   -3.1309   -3.9420   21.7790 O   0  0  0  0  0  0  0  0  0  0  0  0
   -2.7556   -4.7158   22.8940 C   0  0  0  0  0  0  0  0  0  0  0  0
   -1.8638   -3.8508   23.7528 C   0  0  0  0  0  0  0  0  0  0  0  0
   -0.7750   -3.5456   22.8972 N   0  0  0  0  0  0  0  0  0  0  0  0
  1  2  2  0  0  0
  1  6  1  0  0  0
  2  3  1  0  0  0
  3 19  1  0  0  0
  3  4  2  0  0  0
  4 10  1  0  0  0
  4  5  1  0  0  0
  5  7  1  0  0  0
  5  6  2  0  0  0
 10 15  2  0  0  0
 10 11  1  0  0  0
 11 12  2  0  0  0
 12 13  1  0  0  0
 13 16  1  0  0  0
 13 14  2  0  0  0
 14 15  1  0  0  0
 21 22  2  0  0  0
 21 26  1  0  0  0
 22 23  1  0  0  0
 23 32  1  0  0  0
 23 24  2  0  0  0
 24 25  1  0  0  0
 25 26  2  0  0  0
 26 20  1  0  0  0
 27 28  1  0  0  0
 27 32  1  0  0  0
 28 29  1  0  0  0
 29 30  1  0  0  0
 30 31  1  0  0  0
 31 32  1  0  0  0
 19 20  3  0  0  0
 16 17  1  0  0  0
 16 18  1  0  0  0
  7  8  1  0  0  0
  7  9  1  0  0  0
M  END
> <minimizedAffinity>
-7.00489

$$$$
2I6B_89I_A_500


 32 35  0  0  0  0  0  0  0  0999 V2000
    2.3718   -1.5635   17.8128 C   0  0  0  0  0  0  0  0  0  0  0  0
    2.2889   -1.9770   19.0569 N   0  0  0  0  0  0  0  0  0  0  0  0
    3.4048   -1.7521   19.7581 C   0  0  0  0  0  0  0  0  0  0  0  0
    4.5573   -1.1705   19.3026 C   0  0  0  0  0  0  0  0  0  0  0  0
    4.4921   -0.7910   17.9740 C   0  0  0  0  0  0  0  0  0  0  0  0
    3.4172   -0.9963   17.2204 N   0  0  0  0  0  0  0  0  0  0  0  0
    5.5865   -0.1917   17.3905 N   0  0  0  0  0  0  0  0  0  0  0  0
    6.3984   -0.0257   17.9220 H   0  0  0  0  0  0  0  0  0  0  0  0
    5.5567    0.0706   16.4421 H   0  0  0  0  0  0  0  0  0  0  0  0
    5.6899   -0.8956   20.1724 C   0  0  0  0  0  0  0  0  0  0  0  0
    5.6268    0.2752   20.8652 C   0  0  0  0  0  0  0  0  0  0  0  0
    6.6429    0.6936   21.6985 C   0  0  0  0  0  0  0  0  0  0  0  0
    7.7703   -0.0513   21.8963 C   0  0  0  0  0  0  0  0  0  0  0  0
    7.8152   -1.2537   21.2159 C   0  0  0  0  0  0  0  0  0  0  0  0
    6.8047   -1.6635   20.3642 C   0  0  0  0  0  0  0  0  0  0  0  0
    8.7587    0.4881   22.7757 N   0  0  0  0  0  0  0  0  0  0  0  0
    8.4386    1.7681   23.4387 C   0  0  0  0  0  0  0  0  0  0  0  0
    8.9773   -0.5785   23.7448 C   0  0  0  0  0  0  0  0  0  0  0  0
    3.3776   -2.1536   21.1076 C   0  0  0  0  0  0  0  0  0  0  0  0
    3.6101   -2.5029   22.2510 C   0  0  0  0  0  0  0  0  0  0  0  0
    5.4395   -2.5041   23.7521 C   0  0  0  0  0  0  0  0  0  0  0  0
    6.0385   -2.5382   24.9459 N   0  0  0  0  0  0  0  0  0  0  0  0
    5.1968   -2.7270   25.9890 C   0  0  0  0  0  0  0  0  0  0  0  0
    3.8204   -2.8575   25.8490 C   0  0  0  0  0  0  0  0  0  0  0  0
    3.2509   -2.7810   24.5916 C   0  0  0  0  0  0  0  0  0  0  0  0
    4.1005   -2.6275   23.5300 C   0  0  0  0  0  0  0  0  0  0  0  0
    4.6987   -2.9004   28.3807 C   0  0  0  0  0  0  0  0  0  0  0  0
    5.3582   -3.5530   29.5938 C   0  0  0  0  0  0  0  0  0  0  0  0
    6.6424   -2.9414   29.7610 O   0  0  0  0  0  0  0  0  0  0  0  0
    7.4978   -3.2136   28.6761 C   0  0  0  0  0  0  0  0  0  0  0  0
    7.0195   -2.3754   27.5144 C   0  0  0  0  0  0  0  0  0  0  0  0
    5.6929   -2.8292   27.3027 N   0  0  0  0  0  0  0  0  0  0  0  0
  1  2  2  0  0  0
  1  6  1  0  0  0
  2  3  1  0  0  0
  3 19  1  0  0  0
  3  4  2  0  0  0
  4 10  1  0  0  0
  4  5  1  0  0  0
  5  7  1  0  0  0
  5  6  2  0  0  0
 10 15  2  0  0  0
 10 11  1  0  0  0
 11 12  2  0  0  0
 12 13  1  0  0  0
 13 16  1  0  0  0
 13 14  2  0  0  0
 14 15  1  0  0  0
 21 22  2  0  0  0
 21 26  1  0  0  0
 22 23  1  0  0  0
 23 32  1  0  0  0
 23 24  2  0  0  0
 24 25  1  0  0  0
 25 26  2  0  0  0
 26 20  1  0  0  0
 27 28  1  0  0  0
 27 32  1  0  0  0
 28 29  1  0  0  0
 29 30  1  0  0  0
 30 31  1  0  0  0
 31 32  1  0  0  0
 19 20  3  0  0  0
 16 17  1  0  0  0
 16 18  1  0  0  0
  7  8  1  0  0  0
  7  9  1  0  0  0
M  END
> <minimizedAffinity>
-7.00206

$$$$
2I6B_89I_A_500


 32 35  0  0  0  0  0  0  0  0999 V2000
    5.0636   -4.0491   18.2327 C   0  0  0  0  0  0  0  0  0  0  0  0
    5.4924   -4.4123   19.4199 N   0  0  0  0  0  0  0  0  0  0  0  0
    6.0252   -3.4022   20.1151 C   0  0  0  0  0  0  0  0  0  0  0  0
    6.1588   -2.1033   19.7040 C   0  0  0  0  0  0  0  0  0  0  0  0
    5.6635   -1.8768   18.4324 C   0  0  0  0  0  0  0  0  0  0  0  0
    5.1323   -2.8397   17.6866 N   0  0  0  0  0  0  0  0  0  0  0  0
    5.7352   -0.6094   17.8979 N   0  0  0  0  0  0  0  0  0  0  0  0
    6.1233    0.1259   18.4250 H   0  0  0  0  0  0  0  0  0  0  0  0
    5.3982   -0.4389   16.9887 H   0  0  0  0  0  0  0  0  0  0  0  0
    6.6794   -1.0591   20.5720 C   0  0  0  0  0  0  0  0  0  0  0  0
    8.0279   -0.8747   20.5241 C   0  0  0  0  0  0  0  0  0  0  0  0
    8.6736    0.0495   21.3184 C   0  0  0  0  0  0  0  0  0  0  0  0
    7.9969    0.8531   22.1909 C   0  0  0  0  0  0  0  0  0  0  0  0
    6.6250    0.6845   22.2124 C   0  0  0  0  0  0  0  0  0  0  0  0
    5.9799   -0.2570   21.4303 C   0  0  0  0  0  0  0  0  0  0  0  0
    8.7733    1.7669   22.9675 N   0  0  0  0  0  0  0  0  0  0  0  0
    8.9776    1.4311   24.3909 C   0  0  0  0  0  0  0  0  0  0  0  0
   10.0383    1.8436   22.2473 C   0  0  0  0  0  0  0  0  0  0  0  0
    6.4880   -3.7180   21.4071 C   0  0  0  0  0  0  0  0  0  0  0  0
    7.0318   -3.7799   22.4951 C   0  0  0  0  0  0  0  0  0  0  0  0
    8.3087   -4.4506   24.3712 C   0  0  0  0  0  0  0  0  0  0  0  0
    8.9251   -4.2955   25.5463 N   0  0  0  0  0  0  0  0  0  0  0  0
    8.7379   -3.0842   26.1208 C   0  0  0  0  0  0  0  0  0  0  0  0
    7.9860   -2.0694   25.5413 C   0  0  0  0  0  0  0  0  0  0  0  0
    7.3975   -2.2741   24.3072 C   0  0  0  0  0  0  0  0  0  0  0  0
    7.5525   -3.5093   23.7391 C   0  0  0  0  0  0  0  0  0  0  0  0
    9.5879   -3.9396   28.2525 C   0  0  0  0  0  0  0  0  0  0  0  0
   10.6475   -3.5069   29.2637 C   0  0  0  0  0  0  0  0  0  0  0  0
   10.2538   -2.2271   29.7720 O   0  0  0  0  0  0  0  0  0  0  0  0
   10.2653   -1.2387   28.7691 C   0  0  0  0  0  0  0  0  0  0  0  0
    9.0649   -1.4890   27.8874 C   0  0  0  0  0  0  0  0  0  0  0  0
    9.2911   -2.7947   27.3827 N   0  0  0  0  0  0  0  0  0  0  0  0
  1  2  2  0  0  0
  1  6  1  0  0  0
  2  3  1  0  0  0
  3 19  1  0  0  0
  3  4  2  0  0  0
  4 10  1  0  0  0
  4  5  1  0  0  0
  5  7  1  0  0  0
  5  6  2  0  0  0
 10 15  2  0  0  0
 10 11  1  0  0  0
 11 12  2  0  0  0
 12 13  1  0  0  0
 13 16  1  0  0  0
 13 14  2  0  0  0
 14 15  1  0  0  0
 21 22  2  0  0  0
 21 26  1  0  0  0
 22 23  1  0  0  0
 23 32  1  0  0  0
 23 24  2  0  0  0
 24 25  1  0  0  0
 25 26  2  0  0  0
 26 20  1  0  0  0
 27 28  1  0  0  0
 27 32  1  0  0  0
 28 29  1  0  0  0
 29 30  1  0  0  0
 30 31  1  0  0  0
 31 32  1  0  0  0
 19 20  3  0  0  0
 16 17  1  0  0  0
 16 18  1  0  0  0
  7  8  1  0  0  0
  7  9  1  0  0  0
M  END
> <minimizedAffinity>
-6.87113

$$$$
