5NKI_8ZW_A_1001


 35 38  0  0  0  0  0  0  0  0999 V2000
  -99.3452  -13.6633   43.4423 N   0  0  0  0  0  0  0  0  0  0  0  0
  -99.4809  -13.2437   42.5621 H   0  0  0  0  0  0  0  0  0  0  0  0
  -96.5685  -13.7218   45.8226 C   0  0  0  0  0  0  0  0  0  0  0  0
  -97.8469  -13.6266   45.2752 C   0  0  0  0  0  0  0  0  0  0  0  0
  -95.4811  -13.9716   44.9910 C   0  0  0  0  0  0  0  0  0  0  0  0
  -95.6851  -14.1229   43.6283 C   0  0  0  0  0  0  0  0  0  0  0  0
  -96.9640  -14.0285   43.1011 C   0  0  0  0  0  0  0  0  0  0  0  0
  -98.0675  -13.7571   43.9071 C   0  0  0  0  0  0  0  0  0  0  0  0
  -97.5333  -13.5767   48.0583 C   0  0  0  0  0  0  0  0  0  0  0  0
  -97.2947  -12.6691   49.2573 C   0  0  0  0  0  0  0  0  0  0  0  0
  -96.0307  -12.9905   49.8659 O   0  0  0  0  0  0  0  0  0  0  0  0
  -94.9831  -12.5765   48.9674 C   0  0  0  0  0  0  0  0  0  0  0  0
  -95.0070  -13.4296   47.6999 C   0  0  0  0  0  0  0  0  0  0  0  0
  -96.3665  -13.5852   47.1481 N   0  0  0  0  0  0  0  0  0  0  0  0
  -94.3689  -14.4319   42.5315 S   0  0  0  0  0  0  0  0  0  0  0  0
  -93.2790  -15.2409   43.2321 O   0  0  0  0  0  0  0  0  0  0  0  0
  -94.9148  -15.1893   41.3193 O   0  0  0  0  0  0  0  0  0  0  0  0
  -93.6940  -12.8762   41.9928 C   0  0  0  0  0  0  0  0  0  0  0  0
 -100.4355  -14.1026   44.0989 C   0  0  0  0  0  0  0  0  0  0  0  0
 -100.5376  -14.9598   45.5534 S   0  0  0  0  0  0  0  0  0  0  0  0
 -101.7001  -13.9279   43.6504 N   0  0  0  0  0  0  0  0  0  0  0  0
 -102.6556  -14.4443   44.4643 C   0  0  0  0  0  0  0  0  0  0  0  0
 -102.1832  -15.0671   45.5599 C   0  0  0  0  0  0  0  0  0  0  0  0
 -102.8771  -15.6825   46.5462 C   0  0  0  0  0  0  0  0  0  0  0  0
 -102.3091  -15.9516   47.6016 O   0  0  0  0  0  0  0  0  0  0  0  0
 -104.1654  -16.0134   46.3200 N   0  0  0  0  0  0  0  0  0  0  0  0
 -104.5935  -15.8016   45.4591 H   0  0  0  0  0  0  0  0  0  0  0  0
 -104.8640  -16.6466   47.3058 C   0  0  0  0  0  0  0  0  0  0  0  0
 -105.5573  -15.9098   48.2731 C   0  0  0  0  0  0  0  0  0  0  0  0
 -105.5621  -14.1779   48.3042 Cl  0  0  0  0  0  0  0  0  0  0  0  0
 -106.2756  -16.5869   49.2593 C   0  0  0  0  0  0  0  0  0  0  0  0
 -106.3097  -17.9775   49.2908 C   0  0  0  0  0  0  0  0  0  0  0  0
 -105.6210  -18.7034   48.3263 C   0  0  0  0  0  0  0  0  0  0  0  0
 -104.8968  -18.0436   47.3318 C   0  0  0  0  0  0  0  0  0  0  0  0
 -104.2242  -18.8001   46.3761 C   0  0  0  0  0  0  0  0  0  0  0  0
 12 11  1  0  0  0
 12 13  1  0  0  0
 11 10  1  0  0  0
 13 14  1  0  0  0
 10  9  1  0  0  0
 14  9  1  0  0  0
 14  3  1  0  0  0
  4  3  2  0  0  0
  4  8  1  0  0  0
  1  8  1  0  0  0
  1 19  1  0  0  0
  3  5  1  0  0  0
 21 19  2  0  0  0
 21 22  1  0  0  0
  8  7  2  0  0  0
 19 20  1  0  0  0
 22 23  2  0  0  0
  5  6  2  0  0  0
  7  6  1  0  0  0
 23 20  1  0  0  0
 23 24  1  0  0  0
  6 15  1  0  0  0
 35 34  1  0  0  0
 26 24  1  0  0  0
 26 28  1  0  0  0
 24 25  2  0  0  0
 34 28  2  0  0  0
 34 33  1  0  0  0
 28 29  1  0  0  0
 15 16  2  0  0  0
 15 18  1  0  0  0
 15 17  2  0  0  0
 33 32  2  0  0  0
 29 30  1  0  0  0
 29 31  2  0  0  0
 32 31  1  0  0  0
  1  2  1  0  0  0
 26 27  1  0  0  0
M  END
> <minimizedAffinity>
-10.54349

$$$$
5NKI_8ZW_A_1001


 35 38  0  0  0  0  0  0  0  0999 V2000
  -99.2949  -13.7037   43.4138 N   0  0  0  0  0  0  0  0  0  0  0  0
  -99.4203  -13.3539   42.5021 H   0  0  0  0  0  0  0  0  0  0  0  0
  -96.5867  -13.5194   45.8654 C   0  0  0  0  0  0  0  0  0  0  0  0
  -97.8520  -13.5077   45.2806 C   0  0  0  0  0  0  0  0  0  0  0  0
  -95.4667  -13.7649   45.0769 C   0  0  0  0  0  0  0  0  0  0  0  0
  -95.6256  -13.9952   43.7193 C   0  0  0  0  0  0  0  0  0  0  0  0
  -96.8919  -13.9833   43.1547 C   0  0  0  0  0  0  0  0  0  0  0  0
  -98.0281  -13.7182   43.9161 C   0  0  0  0  0  0  0  0  0  0  0  0
  -95.2450  -13.8717   47.8719 C   0  0  0  0  0  0  0  0  0  0  0  0
  -95.5695  -14.2627   49.3072 C   0  0  0  0  0  0  0  0  0  0  0  0
  -96.2118  -13.1625   49.9769 O   0  0  0  0  0  0  0  0  0  0  0  0
  -97.5261  -12.9988   49.4097 C   0  0  0  0  0  0  0  0  0  0  0  0
  -97.4203  -12.5329   47.9582 C   0  0  0  0  0  0  0  0  0  0  0  0
  -96.4282  -13.3058   47.1867 N   0  0  0  0  0  0  0  0  0  0  0  0
  -94.2672  -14.3036   42.6750 S   0  0  0  0  0  0  0  0  0  0  0  0
  -94.7147  -15.1009   41.4513 O   0  0  0  0  0  0  0  0  0  0  0  0
  -93.6606  -12.9622   42.2586 O   0  0  0  0  0  0  0  0  0  0  0  0
  -93.0518  -15.2397   43.5763 C   0  0  0  0  0  0  0  0  0  0  0  0
 -100.3876  -14.1328   44.0732 C   0  0  0  0  0  0  0  0  0  0  0  0
 -100.4940  -14.9859   45.5298 S   0  0  0  0  0  0  0  0  0  0  0  0
 -101.6515  -13.9490   43.6265 N   0  0  0  0  0  0  0  0  0  0  0  0
 -102.6096  -14.4558   44.4433 C   0  0  0  0  0  0  0  0  0  0  0  0
 -102.1404  -15.0800   45.5394 C   0  0  0  0  0  0  0  0  0  0  0  0
 -102.8375  -15.6876   46.5283 C   0  0  0  0  0  0  0  0  0  0  0  0
 -102.2377  -16.1074   47.5147 O   0  0  0  0  0  0  0  0  0  0  0  0
 -104.1691  -15.8442   46.3777 N   0  0  0  0  0  0  0  0  0  0  0  0
 -104.6244  -15.5135   45.5699 H   0  0  0  0  0  0  0  0  0  0  0  0
 -104.8731  -16.4688   47.3652 C   0  0  0  0  0  0  0  0  0  0  0  0
 -104.9124  -17.8661   47.4368 C   0  0  0  0  0  0  0  0  0  0  0  0
 -104.1071  -18.8847   46.2902 Cl  0  0  0  0  0  0  0  0  0  0  0  0
 -105.6284  -18.4752   48.4680 C   0  0  0  0  0  0  0  0  0  0  0  0
 -106.2989  -17.7130   49.4195 C   0  0  0  0  0  0  0  0  0  0  0  0
 -106.2543  -16.3260   49.3443 C   0  0  0  0  0  0  0  0  0  0  0  0
 -105.5432  -15.6987   48.3197 C   0  0  0  0  0  0  0  0  0  0  0  0
 -105.5122  -14.3076   48.2771 C   0  0  0  0  0  0  0  0  0  0  0  0
 12 11  1  0  0  0
 12 13  1  0  0  0
 11 10  1  0  0  0
 13 14  1  0  0  0
 10  9  1  0  0  0
 14  9  1  0  0  0
 14  3  1  0  0  0
  4  3  2  0  0  0
  4  8  1  0  0  0
  1  8  1  0  0  0
  1 19  1  0  0  0
  3  5  1  0  0  0
 21 19  2  0  0  0
 21 22  1  0  0  0
  8  7  2  0  0  0
 19 20  1  0  0  0
 22 23  2  0  0  0
  5  6  2  0  0  0
  7  6  1  0  0  0
 23 20  1  0  0  0
 23 24  1  0  0  0
  6 15  1  0  0  0
 35 34  1  0  0  0
 26 24  1  0  0  0
 26 28  1  0  0  0
 24 25  2  0  0  0
 34 28  2  0  0  0
 34 33  1  0  0  0
 28 29  1  0  0  0
 15 16  2  0  0  0
 15 18  1  0  0  0
 15 17  2  0  0  0
 33 32  2  0  0  0
 29 30  1  0  0  0
 29 31  2  0  0  0
 32 31  1  0  0  0
  1  2  1  0  0  0
 26 27  1  0  0  0
M  END
> <minimizedAffinity>
-10.46186

$$$$
5NKI_8ZW_A_1001


 35 38  0  0  0  0  0  0  0  0999 V2000
  -99.3313  -13.8974   43.3347 N   0  0  0  0  0  0  0  0  0  0  0  0
  -99.4452  -13.7032   42.3763 H   0  0  0  0  0  0  0  0  0  0  0  0
  -95.6799  -13.7220   43.4610 C   0  0  0  0  0  0  0  0  0  0  0  0
  -96.9885  -13.8468   42.9970 C   0  0  0  0  0  0  0  0  0  0  0  0
  -95.4484  -13.5044   44.8158 C   0  0  0  0  0  0  0  0  0  0  0  0
  -96.5238  -13.4142   45.6857 C   0  0  0  0  0  0  0  0  0  0  0  0
  -97.8190  -13.5372   45.2065 C   0  0  0  0  0  0  0  0  0  0  0  0
  -98.0790  -13.7777   43.8590 C   0  0  0  0  0  0  0  0  0  0  0  0
  -94.4492  -12.7447   41.5953 C   0  0  0  0  0  0  0  0  0  0  0  0
  -93.8361  -13.3081   40.3206 C   0  0  0  0  0  0  0  0  0  0  0  0
  -92.6611  -14.0738   40.6441 O   0  0  0  0  0  0  0  0  0  0  0  0
  -93.0810  -15.2716   41.3258 C   0  0  0  0  0  0  0  0  0  0  0  0
  -93.6771  -14.9220   42.6887 C   0  0  0  0  0  0  0  0  0  0  0  0
  -94.6315  -13.7991   42.6175 N   0  0  0  0  0  0  0  0  0  0  0  0
  -96.3048  -13.1482   47.3921 S   0  0  0  0  0  0  0  0  0  0  0  0
  -95.5047  -14.2959   48.0051 O   0  0  0  0  0  0  0  0  0  0  0  0
  -95.5801  -11.8148   47.5865 O   0  0  0  0  0  0  0  0  0  0  0  0
  -97.9032  -13.0629   48.1692 C   0  0  0  0  0  0  0  0  0  0  0  0
 -100.4242  -14.2617   44.0317 C   0  0  0  0  0  0  0  0  0  0  0  0
 -100.5330  -15.1506   45.4666 S   0  0  0  0  0  0  0  0  0  0  0  0
 -101.6881  -13.9664   43.6498 N   0  0  0  0  0  0  0  0  0  0  0  0
 -102.6462  -14.4237   44.4953 C   0  0  0  0  0  0  0  0  0  0  0  0
 -102.1797  -15.1173   45.5501 C   0  0  0  0  0  0  0  0  0  0  0  0
 -102.8781  -15.7007   46.5525 C   0  0  0  0  0  0  0  0  0  0  0  0
 -102.3235  -15.9077   47.6289 O   0  0  0  0  0  0  0  0  0  0  0  0
 -104.1549  -16.0697   46.3205 N   0  0  0  0  0  0  0  0  0  0  0  0
 -104.5719  -15.9078   45.4434 H   0  0  0  0  0  0  0  0  0  0  0  0
 -104.8577  -16.6711   47.3231 C   0  0  0  0  0  0  0  0  0  0  0  0
 -105.5233  -15.9035   48.2858 C   0  0  0  0  0  0  0  0  0  0  0  0
 -105.4874  -14.1716   48.2898 Cl  0  0  0  0  0  0  0  0  0  0  0  0
 -106.2467  -16.5482   49.2898 C   0  0  0  0  0  0  0  0  0  0  0  0
 -106.3129  -17.9369   49.3433 C   0  0  0  0  0  0  0  0  0  0  0  0
 -105.6516  -18.6937   48.3833 C   0  0  0  0  0  0  0  0  0  0  0  0
 -104.9228  -18.0664   47.3713 C   0  0  0  0  0  0  0  0  0  0  0  0
 -104.2781  -18.8531   46.4208 C   0  0  0  0  0  0  0  0  0  0  0  0
 12 11  1  0  0  0
 12 13  1  0  0  0
 11 10  1  0  0  0
 13 14  1  0  0  0
 10  9  1  0  0  0
 14  9  1  0  0  0
 14  3  1  0  0  0
  4  3  2  0  0  0
  4  8  1  0  0  0
  1  8  1  0  0  0
  1 19  1  0  0  0
  3  5  1  0  0  0
 21 19  2  0  0  0
 21 22  1  0  0  0
  8  7  2  0  0  0
 19 20  1  0  0  0
 22 23  2  0  0  0
  5  6  2  0  0  0
  7  6  1  0  0  0
 23 20  1  0  0  0
 23 24  1  0  0  0
  6 15  1  0  0  0
 35 34  1  0  0  0
 26 24  1  0  0  0
 26 28  1  0  0  0
 24 25  2  0  0  0
 34 28  2  0  0  0
 34 33  1  0  0  0
 28 29  1  0  0  0
 15 16  2  0  0  0
 15 18  1  0  0  0
 15 17  2  0  0  0
 33 32  2  0  0  0
 29 30  1  0  0  0
 29 31  2  0  0  0
 32 31  1  0  0  0
  1  2  1  0  0  0
 26 27  1  0  0  0
M  END
> <minimizedAffinity>
-10.43490

$$$$
5NKI_8ZW_A_1001


 35 38  0  0  0  0  0  0  0  0999 V2000
  -98.4246  -14.0673   45.1029 N   0  0  0  0  0  0  0  0  0  0  0  0
  -97.9957  -14.2378   44.2333 H   0  0  0  0  0  0  0  0  0  0  0  0
  -97.4073  -13.0642   48.4701 C   0  0  0  0  0  0  0  0  0  0  0  0
  -98.1487  -13.5607   47.3992 C   0  0  0  0  0  0  0  0  0  0  0  0
  -96.1273  -12.5658   48.2481 C   0  0  0  0  0  0  0  0  0  0  0  0
  -95.6067  -12.5707   46.9635 C   0  0  0  0  0  0  0  0  0  0  0  0
  -96.3566  -13.0716   45.9104 C   0  0  0  0  0  0  0  0  0  0  0  0
  -97.6490  -13.5560   46.1001 C   0  0  0  0  0  0  0  0  0  0  0  0
  -97.3013  -12.1786   50.7406 C   0  0  0  0  0  0  0  0  0  0  0  0
  -97.3518  -12.8083   52.1259 C   0  0  0  0  0  0  0  0  0  0  0  0
  -98.6896  -13.2594   52.4059 O   0  0  0  0  0  0  0  0  0  0  0  0
  -98.9681  -14.3892   51.5562 C   0  0  0  0  0  0  0  0  0  0  0  0
  -99.0285  -13.9481   50.0944 C   0  0  0  0  0  0  0  0  0  0  0  0
  -97.9055  -13.0664   49.7225 N   0  0  0  0  0  0  0  0  0  0  0  0
  -94.0148  -11.9578   46.6154 S   0  0  0  0  0  0  0  0  0  0  0  0
  -93.6296  -12.2829   45.1735 O   0  0  0  0  0  0  0  0  0  0  0  0
  -94.0143  -10.4461   46.8512 O   0  0  0  0  0  0  0  0  0  0  0  0
  -92.8510  -12.7222   47.7231 C   0  0  0  0  0  0  0  0  0  0  0  0
  -99.7345  -14.3561   45.2201 C   0  0  0  0  0  0  0  0  0  0  0  0
 -100.5400  -15.2026   46.4429 S   0  0  0  0  0  0  0  0  0  0  0  0
 -100.6635  -14.0038   44.3017 N   0  0  0  0  0  0  0  0  0  0  0  0
 -101.9273  -14.3889   44.6124 C   0  0  0  0  0  0  0  0  0  0  0  0
 -102.0369  -15.0802   45.7619 C   0  0  0  0  0  0  0  0  0  0  0  0
 -103.1495  -15.6012   46.3308 C   0  0  0  0  0  0  0  0  0  0  0  0
 -104.2523  -15.2854   45.8915 O   0  0  0  0  0  0  0  0  0  0  0  0
 -103.0081  -16.4251   47.3899 N   0  0  0  0  0  0  0  0  0  0  0  0
 -102.1135  -16.6500   47.7340 H   0  0  0  0  0  0  0  0  0  0  0  0
 -104.1271  -16.9407   47.9753 C   0  0  0  0  0  0  0  0  0  0  0  0
 -104.7801  -16.2449   48.9993 C   0  0  0  0  0  0  0  0  0  0  0  0
 -104.2167  -14.7219   49.6024 Cl  0  0  0  0  0  0  0  0  0  0  0  0
 -105.9315  -16.7914   49.5672 C   0  0  0  0  0  0  0  0  0  0  0  0
 -106.4340  -18.0126   49.1289 C   0  0  0  0  0  0  0  0  0  0  0  0
 -105.7824  -18.6977   48.1102 C   0  0  0  0  0  0  0  0  0  0  0  0
 -104.6290  -18.1668   47.5300 C   0  0  0  0  0  0  0  0  0  0  0  0
 -104.0045  -18.8744   46.5067 C   0  0  0  0  0  0  0  0  0  0  0  0
 12 11  1  0  0  0
 12 13  1  0  0  0
 11 10  1  0  0  0
 13 14  1  0  0  0
 10  9  1  0  0  0
 14  9  1  0  0  0
 14  3  1  0  0  0
  4  3  2  0  0  0
  4  8  1  0  0  0
  1  8  1  0  0  0
  1 19  1  0  0  0
  3  5  1  0  0  0
 21 19  2  0  0  0
 21 22  1  0  0  0
  8  7  2  0  0  0
 19 20  1  0  0  0
 22 23  2  0  0  0
  5  6  2  0  0  0
  7  6  1  0  0  0
 23 20  1  0  0  0
 23 24  1  0  0  0
  6 15  1  0  0  0
 35 34  1  0  0  0
 26 24  1  0  0  0
 26 28  1  0  0  0
 24 25  2  0  0  0
 34 28  2  0  0  0
 34 33  1  0  0  0
 28 29  1  0  0  0
 15 16  2  0  0  0
 15 18  1  0  0  0
 15 17  2  0  0  0
 33 32  2  0  0  0
 29 30  1  0  0  0
 29 31  2  0  0  0
 32 31  1  0  0  0
  1  2  1  0  0  0
 26 27  1  0  0  0
M  END
> <minimizedAffinity>
-9.43219

$$$$
5NKI_8ZW_A_1001


 35 38  0  0  0  0  0  0  0  0999 V2000
  -98.8289  -13.8735   44.1725 N   0  0  0  0  0  0  0  0  0  0  0  0
  -98.6022  -13.7282   43.2256 H   0  0  0  0  0  0  0  0  0  0  0  0
  -95.4261  -13.6938   45.5022 C   0  0  0  0  0  0  0  0  0  0  0  0
  -96.5067  -13.7975   44.6277 C   0  0  0  0  0  0  0  0  0  0  0  0
  -95.6570  -13.5488   46.8667 C   0  0  0  0  0  0  0  0  0  0  0  0
  -96.9601  -13.5089   47.3375 C   0  0  0  0  0  0  0  0  0  0  0  0
  -98.0232  -13.6100   46.4532 C   0  0  0  0  0  0  0  0  0  0  0  0
  -97.8211  -13.7784   45.0850 C   0  0  0  0  0  0  0  0  0  0  0  0
  -93.7086  -14.8731   44.2333 C   0  0  0  0  0  0  0  0  0  0  0  0
  -92.2392  -15.1871   44.4791 C   0  0  0  0  0  0  0  0  0  0  0  0
  -91.4571  -13.9860   44.3470 O   0  0  0  0  0  0  0  0  0  0  0  0
  -91.7668  -13.1255   45.4603 C   0  0  0  0  0  0  0  0  0  0  0  0
  -93.2108  -12.6351   45.3629 C   0  0  0  0  0  0  0  0  0  0  0  0
  -94.1574  -13.7221   45.0480 N   0  0  0  0  0  0  0  0  0  0  0  0
  -97.3194  -13.3346   49.0320 S   0  0  0  0  0  0  0  0  0  0  0  0
  -96.3072  -12.3994   49.6909 O   0  0  0  0  0  0  0  0  0  0  0  0
  -98.7403  -12.7849   49.1730 O   0  0  0  0  0  0  0  0  0  0  0  0
  -97.2329  -14.9351   49.8044 C   0  0  0  0  0  0  0  0  0  0  0  0
 -100.1119  -14.1517   44.4715 C   0  0  0  0  0  0  0  0  0  0  0  0
 -100.7450  -15.0034   45.7885 S   0  0  0  0  0  0  0  0  0  0  0  0
 -101.1579  -13.7814   43.6971 N   0  0  0  0  0  0  0  0  0  0  0  0
 -102.3689  -14.1583   44.1802 C   0  0  0  0  0  0  0  0  0  0  0  0
 -102.3219  -14.8604   45.3275 C   0  0  0  0  0  0  0  0  0  0  0  0
 -103.3482  -15.3772   46.0435 C   0  0  0  0  0  0  0  0  0  0  0  0
 -104.4918  -14.9886   45.8195 O   0  0  0  0  0  0  0  0  0  0  0  0
 -103.0728  -16.2790   47.0086 N   0  0  0  0  0  0  0  0  0  0  0  0
 -102.1456  -16.5621   47.1801 H   0  0  0  0  0  0  0  0  0  0  0  0
 -104.1024  -16.7913   47.7422 C   0  0  0  0  0  0  0  0  0  0  0  0
 -104.6748  -16.0487   48.7815 C   0  0  0  0  0  0  0  0  0  0  0  0
 -104.1172  -14.4681   49.2192 Cl  0  0  0  0  0  0  0  0  0  0  0  0
 -105.7371  -16.5941   49.5033 C   0  0  0  0  0  0  0  0  0  0  0  0
 -106.2299  -17.8601   49.2026 C   0  0  0  0  0  0  0  0  0  0  0  0
 -105.6588  -18.5917   48.1682 C   0  0  0  0  0  0  0  0  0  0  0  0
 -104.5952  -18.0625   47.4349 C   0  0  0  0  0  0  0  0  0  0  0  0
 -104.0504  -18.8180   46.4002 C   0  0  0  0  0  0  0  0  0  0  0  0
 12 11  1  0  0  0
 12 13  1  0  0  0
 11 10  1  0  0  0
 13 14  1  0  0  0
 10  9  1  0  0  0
 14  9  1  0  0  0
 14  3  1  0  0  0
  4  3  2  0  0  0
  4  8  1  0  0  0
  1  8  1  0  0  0
  1 19  1  0  0  0
  3  5  1  0  0  0
 21 19  2  0  0  0
 21 22  1  0  0  0
  8  7  2  0  0  0
 19 20  1  0  0  0
 22 23  2  0  0  0
  5  6  2  0  0  0
  7  6  1  0  0  0
 23 20  1  0  0  0
 23 24  1  0  0  0
  6 15  1  0  0  0
 35 34  1  0  0  0
 26 24  1  0  0  0
 26 28  1  0  0  0
 24 25  2  0  0  0
 34 28  2  0  0  0
 34 33  1  0  0  0
 28 29  1  0  0  0
 15 16  2  0  0  0
 15 18  1  0  0  0
 15 17  2  0  0  0
 33 32  2  0  0  0
 29 30  1  0  0  0
 29 31  2  0  0  0
 32 31  1  0  0  0
  1  2  1  0  0  0
 26 27  1  0  0  0
M  END
> <minimizedAffinity>
-9.41694

$$$$
5NKI_8ZW_A_1001


 35 38  0  0  0  0  0  0  0  0999 V2000
  -98.8389  -13.7310   43.7961 N   0  0  0  0  0  0  0  0  0  0  0  0
  -99.2133  -13.3099   42.9888 H   0  0  0  0  0  0  0  0  0  0  0  0
  -95.5632  -13.4790   45.4040 C   0  0  0  0  0  0  0  0  0  0  0  0
  -96.9402  -13.4764   45.1874 C   0  0  0  0  0  0  0  0  0  0  0  0
  -94.7017  -13.7689   44.3504 C   0  0  0  0  0  0  0  0  0  0  0  0
  -95.2260  -14.0520   43.0988 C   0  0  0  0  0  0  0  0  0  0  0  0
  -96.5984  -14.0484   42.9019 C   0  0  0  0  0  0  0  0  0  0  0  0
  -97.4830  -13.7398   43.9331 C   0  0  0  0  0  0  0  0  0  0  0  0
  -93.6250  -13.5177   46.8847 C   0  0  0  0  0  0  0  0  0  0  0  0
  -93.4061  -13.9401   48.3310 C   0  0  0  0  0  0  0  0  0  0  0  0
  -94.0132  -12.9798   49.2146 O   0  0  0  0  0  0  0  0  0  0  0  0
  -95.4437  -13.0944   49.0854 C   0  0  0  0  0  0  0  0  0  0  0  0
  -95.8859  -12.6430   47.6942 C   0  0  0  0  0  0  0  0  0  0  0  0
  -95.0492  -13.2140   46.6215 N   0  0  0  0  0  0  0  0  0  0  0  0
  -94.2052  -14.4178   41.7369 S   0  0  0  0  0  0  0  0  0  0  0  0
  -94.7738  -15.6011   40.9560 O   0  0  0  0  0  0  0  0  0  0  0  0
  -94.1141  -13.1741   40.8505 O   0  0  0  0  0  0  0  0  0  0  0  0
  -92.5803  -14.8308   42.3326 C   0  0  0  0  0  0  0  0  0  0  0  0
  -99.7040  -14.2563   44.6842 C   0  0  0  0  0  0  0  0  0  0  0  0
 -101.3386  -14.6440   44.4874 S   0  0  0  0  0  0  0  0  0  0  0  0
  -99.3753  -14.5550   45.9623 N   0  0  0  0  0  0  0  0  0  0  0  0
 -100.3935  -15.0789   46.6909 C   0  0  0  0  0  0  0  0  0  0  0  0
 -101.5611  -15.1835   46.0298 C   0  0  0  0  0  0  0  0  0  0  0  0
 -102.7476  -15.6540   46.4813 C   0  0  0  0  0  0  0  0  0  0  0  0
 -103.7720  -15.4008   45.8525 O   0  0  0  0  0  0  0  0  0  0  0  0
 -102.7676  -16.3574   47.6325 N   0  0  0  0  0  0  0  0  0  0  0  0
 -101.9347  -16.5329   48.1271 H   0  0  0  0  0  0  0  0  0  0  0  0
 -103.9629  -16.8208   48.0986 C   0  0  0  0  0  0  0  0  0  0  0  0
 -104.4874  -18.0322   47.6331 C   0  0  0  0  0  0  0  0  0  0  0  0
 -103.6876  -19.0011   46.4406 Cl  0  0  0  0  0  0  0  0  0  0  0  0
 -105.7048  -18.4871   48.1410 C   0  0  0  0  0  0  0  0  0  0  0  0
 -106.3979  -17.7541   49.0992 C   0  0  0  0  0  0  0  0  0  0  0  0
 -105.8709  -16.5531   49.5591 C   0  0  0  0  0  0  0  0  0  0  0  0
 -104.6543  -16.0818   49.0626 C   0  0  0  0  0  0  0  0  0  0  0  0
 -104.1502  -14.8790   49.5496 C   0  0  0  0  0  0  0  0  0  0  0  0
 12 11  1  0  0  0
 12 13  1  0  0  0
 11 10  1  0  0  0
 13 14  1  0  0  0
 10  9  1  0  0  0
 14  9  1  0  0  0
 14  3  1  0  0  0
  4  3  2  0  0  0
  4  8  1  0  0  0
  1  8  1  0  0  0
  1 19  1  0  0  0
  3  5  1  0  0  0
 21 19  2  0  0  0
 21 22  1  0  0  0
  8  7  2  0  0  0
 19 20  1  0  0  0
 22 23  2  0  0  0
  5  6  2  0  0  0
  7  6  1  0  0  0
 23 20  1  0  0  0
 23 24  1  0  0  0
  6 15  1  0  0  0
 35 34  1  0  0  0
 26 24  1  0  0  0
 26 28  1  0  0  0
 24 25  2  0  0  0
 34 28  2  0  0  0
 34 33  1  0  0  0
 28 29  1  0  0  0
 15 16  2  0  0  0
 15 18  1  0  0  0
 15 17  2  0  0  0
 33 32  2  0  0  0
 29 30  1  0  0  0
 29 31  2  0  0  0
 32 31  1  0  0  0
  1  2  1  0  0  0
 26 27  1  0  0  0
M  END
> <minimizedAffinity>
-9.10954

$$$$
5NKI_8ZW_A_1001


 35 38  0  0  0  0  0  0  0  0999 V2000
  -98.7350  -13.6985   43.7861 N   0  0  0  0  0  0  0  0  0  0  0  0
  -99.1145  -13.2393   43.0023 H   0  0  0  0  0  0  0  0  0  0  0  0
  -95.2149  -13.8707   42.8073 C   0  0  0  0  0  0  0  0  0  0  0  0
  -96.6078  -13.8517   42.7580 C   0  0  0  0  0  0  0  0  0  0  0  0
  -94.5682  -13.7370   44.0322 C   0  0  0  0  0  0  0  0  0  0  0  0
  -95.3194  -13.5861   45.1873 C   0  0  0  0  0  0  0  0  0  0  0  0
  -96.7041  -13.5659   45.1195 C   0  0  0  0  0  0  0  0  0  0  0  0
  -97.3780  -13.7200   43.9098 C   0  0  0  0  0  0  0  0  0  0  0  0
  -93.9919  -15.3506   41.3025 C   0  0  0  0  0  0  0  0  0  0  0  0
  -92.6387  -15.2719   40.6089 C   0  0  0  0  0  0  0  0  0  0  0  0
  -92.6926  -14.3011   39.5477 O   0  0  0  0  0  0  0  0  0  0  0  0
  -92.7975  -12.9930   40.1426 C   0  0  0  0  0  0  0  0  0  0  0  0
  -94.1445  -12.8402   40.8477 C   0  0  0  0  0  0  0  0  0  0  0  0
  -94.4801  -14.0072   41.6858 N   0  0  0  0  0  0  0  0  0  0  0  0
  -94.5746  -13.4190   46.7519 S   0  0  0  0  0  0  0  0  0  0  0  0
  -95.4766  -14.0158   47.8305 O   0  0  0  0  0  0  0  0  0  0  0  0
  -93.2191  -14.1279   46.7225 O   0  0  0  0  0  0  0  0  0  0  0  0
  -94.3222  -11.6895   47.0852 C   0  0  0  0  0  0  0  0  0  0  0  0
  -99.5947  -14.2592   44.6575 C   0  0  0  0  0  0  0  0  0  0  0  0
 -101.2542  -14.5426   44.4939 S   0  0  0  0  0  0  0  0  0  0  0  0
  -99.2366  -14.6922   45.8884 N   0  0  0  0  0  0  0  0  0  0  0  0
 -100.2548  -15.2289   46.6076 C   0  0  0  0  0  0  0  0  0  0  0  0
 -101.4497  -15.2114   45.9886 C   0  0  0  0  0  0  0  0  0  0  0  0
 -102.6430  -15.6606   46.4439 C   0  0  0  0  0  0  0  0  0  0  0  0
 -103.6732  -15.3099   45.8742 O   0  0  0  0  0  0  0  0  0  0  0  0
 -102.6609  -16.4526   47.5361 N   0  0  0  0  0  0  0  0  0  0  0  0
 -101.8223  -16.7062   47.9851 H   0  0  0  0  0  0  0  0  0  0  0  0
 -103.8622  -16.8955   48.0069 C   0  0  0  0  0  0  0  0  0  0  0  0
 -104.5789  -16.1456   48.9467 C   0  0  0  0  0  0  0  0  0  0  0  0
 -103.9976  -14.6440   49.5852 Cl  0  0  0  0  0  0  0  0  0  0  0  0
 -105.8122  -16.6179   49.3971 C   0  0  0  0  0  0  0  0  0  0  0  0
 -106.3334  -17.8184   48.9248 C   0  0  0  0  0  0  0  0  0  0  0  0
 -105.6180  -18.5573   47.9900 C   0  0  0  0  0  0  0  0  0  0  0  0
 -104.3823  -18.1009   47.5277 C   0  0  0  0  0  0  0  0  0  0  0  0
 -103.6946  -18.8610   46.5858 C   0  0  0  0  0  0  0  0  0  0  0  0
 12 11  1  0  0  0
 12 13  1  0  0  0
 11 10  1  0  0  0
 13 14  1  0  0  0
 10  9  1  0  0  0
 14  9  1  0  0  0
 14  3  1  0  0  0
  4  3  2  0  0  0
  4  8  1  0  0  0
  1  8  1  0  0  0
  1 19  1  0  0  0
  3  5  1  0  0  0
 21 19  2  0  0  0
 21 22  1  0  0  0
  8  7  2  0  0  0
 19 20  1  0  0  0
 22 23  2  0  0  0
  5  6  2  0  0  0
  7  6  1  0  0  0
 23 20  1  0  0  0
 23 24  1  0  0  0
  6 15  1  0  0  0
 35 34  1  0  0  0
 26 24  1  0  0  0
 26 28  1  0  0  0
 24 25  2  0  0  0
 34 28  2  0  0  0
 34 33  1  0  0  0
 28 29  1  0  0  0
 15 16  2  0  0  0
 15 18  1  0  0  0
 15 17  2  0  0  0
 33 32  2  0  0  0
 29 30  1  0  0  0
 29 31  2  0  0  0
 32 31  1  0  0  0
  1  2  1  0  0  0
 26 27  1  0  0  0
M  END
> <minimizedAffinity>
-9.04079

$$$$
5NKI_8ZW_A_1001


 35 38  0  0  0  0  0  0  0  0999 V2000
  -98.3632  -13.7355   44.6886 N   0  0  0  0  0  0  0  0  0  0  0  0
  -98.6441  -13.2642   43.8711 H   0  0  0  0  0  0  0  0  0  0  0  0
  -94.7847  -14.3204   44.2075 C   0  0  0  0  0  0  0  0  0  0  0  0
  -96.1611  -14.2606   43.9953 C   0  0  0  0  0  0  0  0  0  0  0  0
  -94.2542  -13.8689   45.4121 C   0  0  0  0  0  0  0  0  0  0  0  0
  -95.1033  -13.3649   46.3850 C   0  0  0  0  0  0  0  0  0  0  0  0
  -96.4696  -13.3095   46.1558 C   0  0  0  0  0  0  0  0  0  0  0  0
  -97.0300  -13.7752   44.9682 C   0  0  0  0  0  0  0  0  0  0  0  0
  -92.6463  -15.3616   43.6657 C   0  0  0  0  0  0  0  0  0  0  0  0
  -91.5809  -15.1038   42.6090 C   0  0  0  0  0  0  0  0  0  0  0  0
  -92.0657  -15.5191   41.3190 O   0  0  0  0  0  0  0  0  0  0  0  0
  -93.1078  -14.6084   40.9181 C   0  0  0  0  0  0  0  0  0  0  0  0
  -94.3226  -14.7605   41.8325 C   0  0  0  0  0  0  0  0  0  0  0  0
  -93.9543  -14.8005   43.2606 N   0  0  0  0  0  0  0  0  0  0  0  0
  -94.5066  -12.7883   47.9154 S   0  0  0  0  0  0  0  0  0  0  0  0
  -93.4567  -13.7509   48.4672 O   0  0  0  0  0  0  0  0  0  0  0  0
  -93.9118  -11.3936   47.7103 O   0  0  0  0  0  0  0  0  0  0  0  0
  -95.8665  -12.6812   49.0578 C   0  0  0  0  0  0  0  0  0  0  0  0
  -99.3243  -14.2938   45.4485 C   0  0  0  0  0  0  0  0  0  0  0  0
 -100.9101  -14.7118   45.0346 S   0  0  0  0  0  0  0  0  0  0  0  0
  -99.1581  -14.6074   46.7542 N   0  0  0  0  0  0  0  0  0  0  0  0
 -100.2502  -15.1648   47.3361 C   0  0  0  0  0  0  0  0  0  0  0  0
 -101.3192  -15.2822   46.5268 C   0  0  0  0  0  0  0  0  0  0  0  0
 -102.5433  -15.7849   46.8128 C   0  0  0  0  0  0  0  0  0  0  0  0
 -103.4635  -15.6128   46.0175 O   0  0  0  0  0  0  0  0  0  0  0  0
 -102.7192  -16.4291   47.9852 N   0  0  0  0  0  0  0  0  0  0  0  0
 -101.9695  -16.5397   48.6137 H   0  0  0  0  0  0  0  0  0  0  0  0
 -103.9546  -16.9244   48.2839 C   0  0  0  0  0  0  0  0  0  0  0  0
 -104.4245  -18.0876   47.6631 C   0  0  0  0  0  0  0  0  0  0  0  0
 -103.5032  -18.9537   46.4792 Cl  0  0  0  0  0  0  0  0  0  0  0  0
 -105.6863  -18.5780   48.0016 C   0  0  0  0  0  0  0  0  0  0  0  0
 -106.4767  -17.9271   48.9437 C   0  0  0  0  0  0  0  0  0  0  0  0
 -106.0036  -16.7738   49.5582 C   0  0  0  0  0  0  0  0  0  0  0  0
 -104.7438  -16.2681   49.2323 C   0  0  0  0  0  0  0  0  0  0  0  0
 -104.2965  -15.1152   49.8715 C   0  0  0  0  0  0  0  0  0  0  0  0
 12 11  1  0  0  0
 12 13  1  0  0  0
 11 10  1  0  0  0
 13 14  1  0  0  0
 10  9  1  0  0  0
 14  9  1  0  0  0
 14  3  1  0  0  0
  4  3  2  0  0  0
  4  8  1  0  0  0
  1  8  1  0  0  0
  1 19  1  0  0  0
  3  5  1  0  0  0
 21 19  2  0  0  0
 21 22  1  0  0  0
  8  7  2  0  0  0
 19 20  1  0  0  0
 22 23  2  0  0  0
  5  6  2  0  0  0
  7  6  1  0  0  0
 23 20  1  0  0  0
 23 24  1  0  0  0
  6 15  1  0  0  0
 35 34  1  0  0  0
 26 24  1  0  0  0
 26 28  1  0  0  0
 24 25  2  0  0  0
 34 28  2  0  0  0
 34 33  1  0  0  0
 28 29  1  0  0  0
 15 16  2  0  0  0
 15 18  1  0  0  0
 15 17  2  0  0  0
 33 32  2  0  0  0
 29 30  1  0  0  0
 29 31  2  0  0  0
 32 31  1  0  0  0
  1  2  1  0  0  0
 26 27  1  0  0  0
M  END
> <minimizedAffinity>
-8.73827

$$$$
5NKI_8ZW_A_1001


 35 38  0  0  0  0  0  0  0  0999 V2000
  -96.8330  -15.0135   46.5785 N   0  0  0  0  0  0  0  0  0  0  0  0
  -96.3849  -15.8713   46.3975 H   0  0  0  0  0  0  0  0  0  0  0  0
  -95.1396  -12.4894   48.6134 C   0  0  0  0  0  0  0  0  0  0  0  0
  -95.9333  -13.5666   48.2225 C   0  0  0  0  0  0  0  0  0  0  0  0
  -94.4249  -11.7780   47.6545 C   0  0  0  0  0  0  0  0  0  0  0  0
  -94.5122  -12.1515   46.3225 C   0  0  0  0  0  0  0  0  0  0  0  0
  -95.3039  -13.2276   45.9517 C   0  0  0  0  0  0  0  0  0  0  0  0
  -96.0475  -13.9435   46.8875 C   0  0  0  0  0  0  0  0  0  0  0  0
  -96.0688  -12.6001   50.8661 C   0  0  0  0  0  0  0  0  0  0  0  0
  -96.3230  -11.5701   51.9582 C   0  0  0  0  0  0  0  0  0  0  0  0
  -95.0716  -11.1565   52.5366 O   0  0  0  0  0  0  0  0  0  0  0  0
  -94.3600  -10.3784   51.5547 C   0  0  0  0  0  0  0  0  0  0  0  0
  -93.9460  -11.2627   50.3793 C   0  0  0  0  0  0  0  0  0  0  0  0
  -95.0438  -12.1288   49.9085 N   0  0  0  0  0  0  0  0  0  0  0  0
  -93.6488  -11.3019   45.0721 S   0  0  0  0  0  0  0  0  0  0  0  0
  -94.2159  -11.6654   43.7011 O   0  0  0  0  0  0  0  0  0  0  0  0
  -93.7729   -9.7992   45.3314 O   0  0  0  0  0  0  0  0  0  0  0  0
  -91.9328  -11.7670   45.1424 C   0  0  0  0  0  0  0  0  0  0  0  0
  -98.1769  -14.9832   46.5025 C   0  0  0  0  0  0  0  0  0  0  0  0
  -99.3231  -15.7533   47.4793 S   0  0  0  0  0  0  0  0  0  0  0  0
  -98.8576  -14.2992   45.5541 N   0  0  0  0  0  0  0  0  0  0  0  0
 -100.2072  -14.3973   45.6579 C   0  0  0  0  0  0  0  0  0  0  0  0
 -100.6374  -15.1804   46.6644 C   0  0  0  0  0  0  0  0  0  0  0  0
 -101.9100  -15.4791   47.0169 C   0  0  0  0  0  0  0  0  0  0  0  0
 -102.8398  -14.9689   46.3971 O   0  0  0  0  0  0  0  0  0  0  0  0
 -102.1133  -16.3027   48.0661 N   0  0  0  0  0  0  0  0  0  0  0  0
 -101.3510  -16.6859   48.5574 H   0  0  0  0  0  0  0  0  0  0  0  0
 -103.3940  -16.5947   48.4337 C   0  0  0  0  0  0  0  0  0  0  0  0
 -104.0733  -15.7858   49.3520 C   0  0  0  0  0  0  0  0  0  0  0  0
 -103.3479  -14.3972   50.0913 Cl  0  0  0  0  0  0  0  0  0  0  0  0
 -105.3881  -16.1019   49.6959 C   0  0  0  0  0  0  0  0  0  0  0  0
 -106.0266  -17.2056   49.1390 C   0  0  0  0  0  0  0  0  0  0  0  0
 -105.3476  -18.0037   48.2261 C   0  0  0  0  0  0  0  0  0  0  0  0
 -104.0317  -17.7032   47.8699 C   0  0  0  0  0  0  0  0  0  0  0  0
 -103.3823  -18.5184   46.9471 C   0  0  0  0  0  0  0  0  0  0  0  0
 12 11  1  0  0  0
 12 13  1  0  0  0
 11 10  1  0  0  0
 13 14  1  0  0  0
 10  9  1  0  0  0
 14  9  1  0  0  0
 14  3  1  0  0  0
  4  3  2  0  0  0
  4  8  1  0  0  0
  1  8  1  0  0  0
  1 19  1  0  0  0
  3  5  1  0  0  0
 21 19  2  0  0  0
 21 22  1  0  0  0
  8  7  2  0  0  0
 19 20  1  0  0  0
 22 23  2  0  0  0
  5  6  2  0  0  0
  7  6  1  0  0  0
 23 20  1  0  0  0
 23 24  1  0  0  0
  6 15  1  0  0  0
 35 34  1  0  0  0
 26 24  1  0  0  0
 26 28  1  0  0  0
 24 25  2  0  0  0
 34 28  2  0  0  0
 34 33  1  0  0  0
 28 29  1  0  0  0
 15 16  2  0  0  0
 15 18  1  0  0  0
 15 17  2  0  0  0
 33 32  2  0  0  0
 29 30  1  0  0  0
 29 31  2  0  0  0
 32 31  1  0  0  0
  1  2  1  0  0  0
 26 27  1  0  0  0
M  END
> <minimizedAffinity>
-8.68728

$$$$
5NKI_8ZW_A_1001


 35 38  0  0  0  0  0  0  0  0999 V2000
 -100.4744  -14.7738   45.9403 N   0  0  0  0  0  0  0  0  0  0  0  0
 -100.9740  -14.8512   45.0955 H   0  0  0  0  0  0  0  0  0  0  0  0
 -102.9307  -15.9186   48.3970 C   0  0  0  0  0  0  0  0  0  0  0  0
 -102.1716  -15.7992   47.2339 C   0  0  0  0  0  0  0  0  0  0  0  0
 -102.6919  -15.0597   49.4654 C   0  0  0  0  0  0  0  0  0  0  0  0
 -101.7007  -14.0966   49.3579 C   0  0  0  0  0  0  0  0  0  0  0  0
 -100.9528  -13.9941   48.1949 C   0  0  0  0  0  0  0  0  0  0  0  0
 -101.1855  -14.8259   47.1017 C   0  0  0  0  0  0  0  0  0  0  0  0
 -103.7641  -18.1127   47.7321 C   0  0  0  0  0  0  0  0  0  0  0  0
 -105.1284  -18.6453   47.3160 C   0  0  0  0  0  0  0  0  0  0  0  0
 -105.9964  -18.7061   48.4625 O   0  0  0  0  0  0  0  0  0  0  0  0
 -106.3123  -17.3567   48.8567 C   0  0  0  0  0  0  0  0  0  0  0  0
 -105.0613  -16.6533   49.3812 C   0  0  0  0  0  0  0  0  0  0  0  0
 -103.8887  -16.8599   48.5098 N   0  0  0  0  0  0  0  0  0  0  0  0
 -101.3537  -12.9874   50.6540 S   0  0  0  0  0  0  0  0  0  0  0  0
 -100.9160  -11.6376   50.0885 O   0  0  0  0  0  0  0  0  0  0  0  0
 -102.6107  -12.8358   51.5130 O   0  0  0  0  0  0  0  0  0  0  0  0
 -100.0430  -13.6618   51.6506 C   0  0  0  0  0  0  0  0  0  0  0  0
  -99.1385  -14.6241   45.8637 C   0  0  0  0  0  0  0  0  0  0  0  0
  -98.2207  -13.7485   44.7449 S   0  0  0  0  0  0  0  0  0  0  0  0
  -98.2696  -15.2096   46.7199 N   0  0  0  0  0  0  0  0  0  0  0  0
  -96.9659  -14.9272   46.4694 C   0  0  0  0  0  0  0  0  0  0  0  0
  -96.7578  -14.1406   45.3974 C   0  0  0  0  0  0  0  0  0  0  0  0
  -95.5832  -13.6949   44.8927 C   0  0  0  0  0  0  0  0  0  0  0  0
  -95.5543  -13.2397   43.7521 O   0  0  0  0  0  0  0  0  0  0  0  0
  -94.4725  -13.8011   45.6513 N   0  0  0  0  0  0  0  0  0  0  0  0
  -94.5187  -14.1851   46.5566 H   0  0  0  0  0  0  0  0  0  0  0  0
  -93.2843  -13.3667   45.1411 C   0  0  0  0  0  0  0  0  0  0  0  0
  -92.8918  -12.0312   45.2882 C   0  0  0  0  0  0  0  0  0  0  0  0
  -93.8729  -10.8509   46.0914 Cl  0  0  0  0  0  0  0  0  0  0  0  0
  -91.6634  -11.6213   44.7688 C   0  0  0  0  0  0  0  0  0  0  0  0
  -90.8300  -12.5203   44.1107 C   0  0  0  0  0  0  0  0  0  0  0  0
  -91.2243  -13.8455   43.9697 C   0  0  0  0  0  0  0  0  0  0  0  0
  -92.4499  -14.2742   44.4826 C   0  0  0  0  0  0  0  0  0  0  0  0
  -92.8117  -15.6098   44.3311 C   0  0  0  0  0  0  0  0  0  0  0  0
 12 11  1  0  0  0
 12 13  1  0  0  0
 11 10  1  0  0  0
 13 14  1  0  0  0
 10  9  1  0  0  0
 14  9  1  0  0  0
 14  3  1  0  0  0
  4  3  2  0  0  0
  4  8  1  0  0  0
  1  8  1  0  0  0
  1 19  1  0  0  0
  3  5  1  0  0  0
 21 19  2  0  0  0
 21 22  1  0  0  0
  8  7  2  0  0  0
 19 20  1  0  0  0
 22 23  2  0  0  0
  5  6  2  0  0  0
  7  6  1  0  0  0
 23 20  1  0  0  0
 23 24  1  0  0  0
  6 15  1  0  0  0
 35 34  1  0  0  0
 26 24  1  0  0  0
 26 28  1  0  0  0
 24 25  2  0  0  0
 34 28  2  0  0  0
 34 33  1  0  0  0
 28 29  1  0  0  0
 15 16  2  0  0  0
 15 18  1  0  0  0
 15 17  2  0  0  0
 33 32  2  0  0  0
 29 30  1  0  0  0
 29 31  2  0  0  0
 32 31  1  0  0  0
  1  2  1  0  0  0
 26 27  1  0  0  0
M  END
> <minimizedAffinity>
-8.30075

$$$$
