4POJ_2VP_A_501


 24 25  0  0  0  0  0  0  0  0999 V2000
   65.5591   46.7677   29.6992 C   0  0  0  0  0  0  0  0  0  0  0  0
   66.2754   45.5969   30.3797 C   0  0  0  0  0  0  0  0  0  0  0  0
   66.9474   45.9783   31.7004 C   0  0  0  0  0  0  0  0  0  0  0  0
   66.0251   46.7727   32.6144 C   0  0  0  0  0  0  0  0  0  0  0  0
   66.2489   46.7194   33.9775 C   0  0  0  0  0  0  0  0  0  0  0  0
   65.4626   47.4525   34.8648 C   0  0  0  0  0  0  0  0  0  0  0  0
   64.4258   48.2310   34.3866 C   0  0  0  0  0  0  0  0  0  0  0  0
   63.5496   49.0364   35.3478 C   0  0  0  0  0  0  0  0  0  0  0  0
   64.1783   48.2742   33.0091 C   0  0  0  0  0  0  0  0  0  0  0  0
   64.9648   47.5690   32.1258 C   0  0  0  0  0  0  0  0  0  0  0  0
   64.7329   47.6030   30.6899 C   0  0  0  0  0  0  0  0  0  0  0  0
   63.7495   48.4401   30.1923 C   0  0  0  0  0  0  0  0  0  0  0  0
   63.4506   48.5720   28.7445 C   0  0  0  0  0  0  0  0  0  0  0  0
   64.3586   49.4405   27.8772 C   0  0  0  0  0  0  0  0  0  0  0  0
   62.3591   47.9585   28.1724 C   0  0  0  0  0  0  0  0  0  0  0  0
   61.4035   47.1407   28.9304 C   0  0  0  0  0  0  0  0  0  0  0  0
   60.0345   47.2756   28.6983 C   0  0  0  0  0  0  0  0  0  0  0  0
   59.0633   46.4929   29.4477 C   0  0  0  0  0  0  0  0  0  0  0  0
   59.5279   45.4710   30.4873 C   0  0  0  0  0  0  0  0  0  0  0  0
   57.7011   46.6928   29.1684 C   0  0  0  0  0  0  0  0  0  0  0  0
   56.6079   45.9841   29.8205 C   0  0  0  0  0  0  0  0  0  0  0  0
   56.1572   46.4951   30.8721 O   0  0  0  0  0  0  0  0  0  0  0  0
   56.1957   44.9034   29.3384 O   0  0  0  0  0  0  0  0  0  0  0  0
   56.5715   44.5696   28.5476 H   0  0  0  0  0  0  0  0  0  0  0  0
 14 13  1  0  0  0
 15 13  2  0  0  0
 15 16  1  0  0  0
 17 16  2  0  0  0
 17 18  1  0  0  0
 13 12  1  0  0  0
 20 18  2  0  0  0
 20 21  1  0  0  0
 18 19  1  0  0  0
 22 21  2  0  0  0
  1  2  1  0  0  0
  1 11  1  0  0  0
 21 23  1  0  0  0
 12 11  2  0  0  0
  2  3  1  0  0  0
 11 10  1  0  0  0
  3  4  1  0  0  0
 10  4  2  0  0  0
 10  9  1  0  0  0
  4  5  1  0  0  0
  9  7  2  0  0  0
  5  6  2  0  0  0
  7  6  1  0  0  0
  7  8  1  0  0  0
 23 24  1  0  0  0
M  END
> <minimizedAffinity>
-11.63817

$$$$
4POJ_2VP_A_501


 24 25  0  0  0  0  0  0  0  0999 V2000
   63.7893   49.2775   31.2664 C   0  0  0  0  0  0  0  0  0  0  0  0
   64.1410   50.0968   32.5121 C   0  0  0  0  0  0  0  0  0  0  0  0
   64.1158   49.2800   33.8058 C   0  0  0  0  0  0  0  0  0  0  0  0
   64.8730   47.9655   33.6788 C   0  0  0  0  0  0  0  0  0  0  0  0
   65.4012   47.4005   34.8246 C   0  0  0  0  0  0  0  0  0  0  0  0
   66.0736   46.1804   34.7808 C   0  0  0  0  0  0  0  0  0  0  0  0
   66.2399   45.5272   33.5743 C   0  0  0  0  0  0  0  0  0  0  0  0
   66.9812   44.1906   33.5084 C   0  0  0  0  0  0  0  0  0  0  0  0
   65.7268   46.1026   32.4055 C   0  0  0  0  0  0  0  0  0  0  0  0
   65.0432   47.2973   32.4454 C   0  0  0  0  0  0  0  0  0  0  0  0
   64.4941   47.9120   31.2464 C   0  0  0  0  0  0  0  0  0  0  0  0
   64.5843   47.2300   30.0455 C   0  0  0  0  0  0  0  0  0  0  0  0
   64.0332   47.7531   28.7705 C   0  0  0  0  0  0  0  0  0  0  0  0
   64.9635   48.4864   27.8074 C   0  0  0  0  0  0  0  0  0  0  0  0
   62.7007   47.6222   28.4508 C   0  0  0  0  0  0  0  0  0  0  0  0
   61.7195   46.9736   29.3302 C   0  0  0  0  0  0  0  0  0  0  0  0
   60.3740   46.9365   28.9637 C   0  0  0  0  0  0  0  0  0  0  0  0
   59.3764   46.3181   29.8239 C   0  0  0  0  0  0  0  0  0  0  0  0
   59.8051   45.4923   31.0385 C   0  0  0  0  0  0  0  0  0  0  0  0
   58.0228   46.4873   29.4885 C   0  0  0  0  0  0  0  0  0  0  0  0
   56.9061   45.9263   30.2373 C   0  0  0  0  0  0  0  0  0  0  0  0
   56.3002   44.9670   29.7054 O   0  0  0  0  0  0  0  0  0  0  0  0
   56.5810   46.4326   31.3365 O   0  0  0  0  0  0  0  0  0  0  0  0
   57.0724   47.1500   31.6856 H   0  0  0  0  0  0  0  0  0  0  0  0
 14 13  1  0  0  0
 15 13  2  0  0  0
 15 16  1  0  0  0
 17 16  2  0  0  0
 17 18  1  0  0  0
 13 12  1  0  0  0
 20 18  2  0  0  0
 20 21  1  0  0  0
 18 19  1  0  0  0
 22 21  2  0  0  0
  1  2  1  0  0  0
  1 11  1  0  0  0
 21 23  1  0  0  0
 12 11  2  0  0  0
  2  3  1  0  0  0
 11 10  1  0  0  0
  3  4  1  0  0  0
 10  4  2  0  0  0
 10  9  1  0  0  0
  4  5  1  0  0  0
  9  7  2  0  0  0
  5  6  2  0  0  0
  7  6  1  0  0  0
  7  8  1  0  0  0
 23 24  1  0  0  0
M  END
> <minimizedAffinity>
-10.14806

$$$$
