3SR4_TT8_A_417


 33 35  0  0  0  0  0  0  0  0999 V2000
   44.2444   48.9168    8.1080 C   0  0  0  0  0  0  0  0  0  0  0  0
   44.4261   50.1318    8.9912 C   0  0  0  0  0  0  0  0  0  0  0  0
   43.5408   50.1194   10.0819 O   0  0  0  0  0  0  0  0  0  0  0  0
   44.1706   51.2844    8.0231 C   0  0  0  0  0  0  0  0  0  0  0  0
   42.8882   51.8717    8.1523 O   0  0  0  0  0  0  0  0  0  0  0  0
   44.3985   50.6706    6.6429 C   0  0  0  0  0  0  0  0  0  0  0  0
   44.7677   49.3086    6.8471 O   0  0  0  0  0  0  0  0  0  0  0  0
   42.6284   50.0659    9.7572 H   0  0  0  0  0  0  0  0  0  0  0  0
   42.2072   51.2003    7.9902 H   0  0  0  0  0  0  0  0  0  0  0  0
   43.9150   43.7180    8.6410 N   0  0  0  0  0  0  0  0  0  0  0  0
   42.9643   44.5725    8.0624 C   0  0  0  0  0  0  0  0  0  0  0  0
   43.2522   45.9393    8.0282 N   0  0  0  0  0  0  0  0  0  0  0  0
   44.4286   46.4401    8.5414 C   0  0  0  0  0  0  0  0  0  0  0  0
   45.3857   45.5826    9.1231 C   0  0  0  0  0  0  0  0  0  0  0  0
   45.1197   44.1924    9.1717 C   0  0  0  0  0  0  0  0  0  0  0  0
   46.4207   46.3445    9.5295 N   0  0  0  0  0  0  0  0  0  0  0  0
   46.1685   47.6371    9.2342 C   0  0  0  0  0  0  0  0  0  0  0  0
   44.9324   47.7099    8.6187 N   0  0  0  0  0  0  0  0  0  0  0  0
   47.4513   43.1792    9.4837 C   0  0  0  0  0  0  0  0  0  0  0  0
   45.9805   43.2985    9.7060 N   0  0  0  0  0  0  0  0  0  0  0  0
   45.5859   42.6399   10.3223 H   0  0  0  0  0  0  0  0  0  0  0  0
   45.5260   51.3546    5.8822 C   0  0  0  0  0  0  0  0  0  0  0  0
   44.9664   52.8721    5.0673 S   0  0  0  0  0  0  0  0  0  0  0  0
   44.0272   52.2596    3.6497 C   0  0  0  0  0  0  0  0  0  0  0  0
   42.5535   52.7211    3.5982 C   0  0  0  0  0  0  0  0  0  0  0  0
   42.1715   51.3098    1.5539 N   0  0  0  0  0  0  0  0  0  0  0  0
   41.8894   52.6378    2.1929 C   0  0  0  0  0  0  0  0  0  0  0  0
   41.7293   51.2736    0.6355 H   0  0  0  0  0  0  0  0  0  0  0  0
   41.7979   50.5639    2.1408 H   0  0  0  0  0  0  0  0  0  0  0  0
   42.3625   53.7340    1.2346 C   0  0  0  0  0  0  0  0  0  0  0  0
   41.5628   54.2120    0.4102 O   0  0  0  0  0  0  0  0  0  0  0  0
   43.5399   54.1496    1.2494 O   0  0  0  0  0  0  0  0  0  0  0  0
   44.1530   53.7985    1.8650 H   0  0  0  0  0  0  0  0  0  0  0  0
 30 31  2  0  0  0
 30 27  1  0  0  0
 30 32  1  0  0  0
 26 27  1  0  0  0
 19 20  1  0  0  0
 10 11  2  0  0  0
 10 15  1  0  0  0
 11 12  1  0  0  0
 12 13  2  0  0  0
 13 14  1  0  0  0
 13 18  1  0  0  0
 14 15  2  0  0  0
 14 16  1  0  0  0
 15 20  1  0  0  0
 16 17  2  0  0  0
 17 18  1  0  0  0
 18  1  1  0  0  0
 27 25  1  0  0  0
 25 24  1  0  0  0
 23 24  1  0  0  0
 23 22  1  0  0  0
  1  2  1  0  0  0
  1  7  1  0  0  0
  2  3  1  0  0  0
  2  4  1  0  0  0
  4  5  1  0  0  0
  4  6  1  0  0  0
  6  7  1  0  0  0
  6 22  1  0  0  0
 26 28  1  0  0  0
 26 29  1  0  0  0
 20 21  1  0  0  0
  3  8  1  0  0  0
  5  9  1  0  0  0
 32 33  1  0  0  0
M  END
> <minimizedAffinity>
-10.44709

$$$$
3SR4_TT8_A_417


 33 35  0  0  0  0  0  0  0  0999 V2000
   44.4659   48.6083    8.3432 C   0  0  0  0  0  0  0  0  0  0  0  0
   44.5818   49.7596    9.3182 C   0  0  0  0  0  0  0  0  0  0  0  0
   43.7549   49.5774   10.4392 O   0  0  0  0  0  0  0  0  0  0  0  0
   44.1788   50.9581    8.4626 C   0  0  0  0  0  0  0  0  0  0  0  0
   42.8572   51.4124    8.6935 O   0  0  0  0  0  0  0  0  0  0  0  0
   44.3932   50.4816    7.0272 C   0  0  0  0  0  0  0  0  0  0  0  0
   44.8909   49.1474    7.0998 O   0  0  0  0  0  0  0  0  0  0  0  0
   42.8361   49.4665   10.1486 H   0  0  0  0  0  0  0  0  0  0  0  0
   42.2313   50.6963    8.5028 H   0  0  0  0  0  0  0  0  0  0  0  0
   44.4530   43.4012    8.8954 N   0  0  0  0  0  0  0  0  0  0  0  0
   43.3818   44.2134    8.4938 C   0  0  0  0  0  0  0  0  0  0  0  0
   43.6014   45.5912    8.4183 N   0  0  0  0  0  0  0  0  0  0  0  0
   44.8264   46.1425    8.7244 C   0  0  0  0  0  0  0  0  0  0  0  0
   45.9047   45.3275    9.1280 C   0  0  0  0  0  0  0  0  0  0  0  0
   45.7099   43.9273    9.2137 C   0  0  0  0  0  0  0  0  0  0  0  0
   46.9610   46.1335    9.3546 N   0  0  0  0  0  0  0  0  0  0  0  0
   46.6074   47.4137    9.1145 C   0  0  0  0  0  0  0  0  0  0  0  0
   45.2819   47.4328    8.7211 N   0  0  0  0  0  0  0  0  0  0  0  0
   47.4505   43.0371   10.8685 C   0  0  0  0  0  0  0  0  0  0  0  0
   46.6868   43.0718    9.5869 N   0  0  0  0  0  0  0  0  0  0  0  0
   46.9260   42.3812    8.9273 H   0  0  0  0  0  0  0  0  0  0  0  0
   45.4176   51.3259    6.2819 C   0  0  0  0  0  0  0  0  0  0  0  0
   44.9778   51.5364    4.5377 S   0  0  0  0  0  0  0  0  0  0  0  0
   45.7434   53.1153    4.1044 C   0  0  0  0  0  0  0  0  0  0  0  0
   46.9900   53.4838    4.9397 C   0  0  0  0  0  0  0  0  0  0  0  0
   49.2524   53.2004    3.8824 N   0  0  0  0  0  0  0  0  0  0  0  0
   48.1358   54.1691    4.1395 C   0  0  0  0  0  0  0  0  0  0  0  0
   49.9928   53.6663    3.3579 H   0  0  0  0  0  0  0  0  0  0  0  0
   48.8993   52.4100    3.3429 H   0  0  0  0  0  0  0  0  0  0  0  0
   48.7236   55.3906    4.8510 C   0  0  0  0  0  0  0  0  0  0  0  0
   49.8544   55.7988    4.5311 O   0  0  0  0  0  0  0  0  0  0  0  0
   48.1003   55.9790    5.7590 O   0  0  0  0  0  0  0  0  0  0  0  0
   47.2477   55.6824    6.0102 H   0  0  0  0  0  0  0  0  0  0  0  0
 30 31  2  0  0  0
 30 27  1  0  0  0
 30 32  1  0  0  0
 26 27  1  0  0  0
 19 20  1  0  0  0
 10 11  2  0  0  0
 10 15  1  0  0  0
 11 12  1  0  0  0
 12 13  2  0  0  0
 13 14  1  0  0  0
 13 18  1  0  0  0
 14 15  2  0  0  0
 14 16  1  0  0  0
 15 20  1  0  0  0
 16 17  2  0  0  0
 17 18  1  0  0  0
 18  1  1  0  0  0
 27 25  1  0  0  0
 25 24  1  0  0  0
 23 24  1  0  0  0
 23 22  1  0  0  0
  1  2  1  0  0  0
  1  7  1  0  0  0
  2  3  1  0  0  0
  2  4  1  0  0  0
  4  5  1  0  0  0
  4  6  1  0  0  0
  6  7  1  0  0  0
  6 22  1  0  0  0
 26 28  1  0  0  0
 26 29  1  0  0  0
 20 21  1  0  0  0
  3  8  1  0  0  0
  5  9  1  0  0  0
 32 33  1  0  0  0
M  END
> <minimizedAffinity>
-9.38596

$$$$
3SR4_TT8_A_417


 33 35  0  0  0  0  0  0  0  0999 V2000
   44.1536   49.6799    8.4506 C   0  0  0  0  0  0  0  0  0  0  0  0
   43.9199   51.1363    8.7880 C   0  0  0  0  0  0  0  0  0  0  0  0
   42.7337   51.3173    9.5187 O   0  0  0  0  0  0  0  0  0  0  0  0
   43.8827   51.7922    7.4099 C   0  0  0  0  0  0  0  0  0  0  0  0
   42.5775   52.0973    6.9522 O   0  0  0  0  0  0  0  0  0  0  0  0
   44.6051   50.7976    6.5031 C   0  0  0  0  0  0  0  0  0  0  0  0
   45.0178   49.7073    7.3239 O   0  0  0  0  0  0  0  0  0  0  0  0
   41.9860   50.9585    9.0155 H   0  0  0  0  0  0  0  0  0  0  0  0
   42.0545   51.2821    6.8995 H   0  0  0  0  0  0  0  0  0  0  0  0
   47.5500   45.8858    9.6705 N   0  0  0  0  0  0  0  0  0  0  0  0
   47.2303   46.3568    8.3881 C   0  0  0  0  0  0  0  0  0  0  0  0
   46.2844   47.3801    8.2870 N   0  0  0  0  0  0  0  0  0  0  0  0
   45.6820   47.9163    9.4041 C   0  0  0  0  0  0  0  0  0  0  0  0
   46.0024   47.4444   10.6943 C   0  0  0  0  0  0  0  0  0  0  0  0
   46.9577   46.4071   10.8261 C   0  0  0  0  0  0  0  0  0  0  0  0
   45.2689   48.1489   11.5787 N   0  0  0  0  0  0  0  0  0  0  0  0
   44.5033   49.0412   10.9159 C   0  0  0  0  0  0  0  0  0  0  0  0
   44.7515   48.9069    9.5622 N   0  0  0  0  0  0  0  0  0  0  0  0
   48.1379   44.6754   12.2988 C   0  0  0  0  0  0  0  0  0  0  0  0
   47.3278   45.8976   12.0215 N   0  0  0  0  0  0  0  0  0  0  0  0
   47.0233   46.3980   12.8128 H   0  0  0  0  0  0  0  0  0  0  0  0
   45.8469   51.3966    5.8573 C   0  0  0  0  0  0  0  0  0  0  0  0
   45.4256   52.6446    4.6143 S   0  0  0  0  0  0  0  0  0  0  0  0
   44.1148   51.8501    3.6564 C   0  0  0  0  0  0  0  0  0  0  0  0
   42.7891   52.6408    3.5886 C   0  0  0  0  0  0  0  0  0  0  0  0
   42.2967   51.2317    1.5666 N   0  0  0  0  0  0  0  0  0  0  0  0
   42.0450   52.5567    2.2240 C   0  0  0  0  0  0  0  0  0  0  0  0
   41.8020   51.1949    0.6753 H   0  0  0  0  0  0  0  0  0  0  0  0
   41.9618   50.4825    2.1725 H   0  0  0  0  0  0  0  0  0  0  0  0
   42.4557   53.6575    1.2425 C   0  0  0  0  0  0  0  0  0  0  0  0
   43.6631   53.9007    1.0671 O   0  0  0  0  0  0  0  0  0  0  0  0
   41.6049   54.3305    0.6240 O   0  0  0  0  0  0  0  0  0  0  0  0
   40.6920   54.1582    0.7464 H   0  0  0  0  0  0  0  0  0  0  0  0
 30 31  2  0  0  0
 30 27  1  0  0  0
 30 32  1  0  0  0
 26 27  1  0  0  0
 19 20  1  0  0  0
 10 11  2  0  0  0
 10 15  1  0  0  0
 11 12  1  0  0  0
 12 13  2  0  0  0
 13 14  1  0  0  0
 13 18  1  0  0  0
 14 15  2  0  0  0
 14 16  1  0  0  0
 15 20  1  0  0  0
 16 17  2  0  0  0
 17 18  1  0  0  0
 18  1  1  0  0  0
 27 25  1  0  0  0
 25 24  1  0  0  0
 23 24  1  0  0  0
 23 22  1  0  0  0
  1  2  1  0  0  0
  1  7  1  0  0  0
  2  3  1  0  0  0
  2  4  1  0  0  0
  4  5  1  0  0  0
  4  6  1  0  0  0
  6  7  1  0  0  0
  6 22  1  0  0  0
 26 28  1  0  0  0
 26 29  1  0  0  0
 20 21  1  0  0  0
  3  8  1  0  0  0
  5  9  1  0  0  0
 32 33  1  0  0  0
M  END
> <minimizedAffinity>
-9.09050

$$$$
3SR4_TT8_A_417


 33 35  0  0  0  0  0  0  0  0999 V2000
   44.5845   49.1924    8.3257 C   0  0  0  0  0  0  0  0  0  0  0  0
   44.4897   50.5288    9.0287 C   0  0  0  0  0  0  0  0  0  0  0  0
   43.6111   50.4795   10.1239 O   0  0  0  0  0  0  0  0  0  0  0  0
   44.0089   51.4545    7.9140 C   0  0  0  0  0  0  0  0  0  0  0  0
   42.6290   51.7671    7.9796 O   0  0  0  0  0  0  0  0  0  0  0  0
   44.3833   50.7179    6.6291 C   0  0  0  0  0  0  0  0  0  0  0  0
   45.0312   49.5078    7.0149 O   0  0  0  0  0  0  0  0  0  0  0  0
   42.7360   50.1882    9.8235 H   0  0  0  0  0  0  0  0  0  0  0  0
   42.1093   50.9501    7.9225 H   0  0  0  0  0  0  0  0  0  0  0  0
   46.0098   47.1301   12.9230 N   0  0  0  0  0  0  0  0  0  0  0  0
   45.0155   48.0942   12.6985 C   0  0  0  0  0  0  0  0  0  0  0  0
   44.8001   48.5140   11.3834 N   0  0  0  0  0  0  0  0  0  0  0  0
   45.5335   48.0023   10.3354 C   0  0  0  0  0  0  0  0  0  0  0  0
   46.5333   47.0326   10.5590 C   0  0  0  0  0  0  0  0  0  0  0  0
   46.7733   46.5893   11.8825 C   0  0  0  0  0  0  0  0  0  0  0  0
   47.0729   46.7218    9.3636 N   0  0  0  0  0  0  0  0  0  0  0  0
   46.4663   47.4426    8.3971 C   0  0  0  0  0  0  0  0  0  0  0  0
   45.5062   48.2428    8.9887 N   0  0  0  0  0  0  0  0  0  0  0  0
   48.0628   45.1094   13.5279 C   0  0  0  0  0  0  0  0  0  0  0  0
   47.7071   45.6619   12.1881 N   0  0  0  0  0  0  0  0  0  0  0  0
   48.2196   45.3038   11.4276 H   0  0  0  0  0  0  0  0  0  0  0  0
   45.3503   51.5141    5.7639 C   0  0  0  0  0  0  0  0  0  0  0  0
   44.6294   51.9325    4.1561 S   0  0  0  0  0  0  0  0  0  0  0  0
   43.1725   52.9076    4.5957 C   0  0  0  0  0  0  0  0  0  0  0  0
   41.9043   52.5883    3.7729 C   0  0  0  0  0  0  0  0  0  0  0  0
   40.1794   53.4384    2.1546 N   0  0  0  0  0  0  0  0  0  0  0  0
   41.5939   53.5974    2.6291 C   0  0  0  0  0  0  0  0  0  0  0  0
   39.9946   54.1066    1.4065 H   0  0  0  0  0  0  0  0  0  0  0  0
   39.5394   53.6104    2.9299 H   0  0  0  0  0  0  0  0  0  0  0  0
   42.5190   53.4432    1.4190 C   0  0  0  0  0  0  0  0  0  0  0  0
   42.3744   52.4687    0.6594 O   0  0  0  0  0  0  0  0  0  0  0  0
   43.4290   54.2656    1.1848 O   0  0  0  0  0  0  0  0  0  0  0  0
   43.5495   55.0042    1.7486 H   0  0  0  0  0  0  0  0  0  0  0  0
 30 31  2  0  0  0
 30 27  1  0  0  0
 30 32  1  0  0  0
 26 27  1  0  0  0
 19 20  1  0  0  0
 10 11  2  0  0  0
 10 15  1  0  0  0
 11 12  1  0  0  0
 12 13  2  0  0  0
 13 14  1  0  0  0
 13 18  1  0  0  0
 14 15  2  0  0  0
 14 16  1  0  0  0
 15 20  1  0  0  0
 16 17  2  0  0  0
 17 18  1  0  0  0
 18  1  1  0  0  0
 27 25  1  0  0  0
 25 24  1  0  0  0
 23 24  1  0  0  0
 23 22  1  0  0  0
  1  2  1  0  0  0
  1  7  1  0  0  0
  2  3  1  0  0  0
  2  4  1  0  0  0
  4  5  1  0  0  0
  4  6  1  0  0  0
  6  7  1  0  0  0
  6 22  1  0  0  0
 26 28  1  0  0  0
 26 29  1  0  0  0
 20 21  1  0  0  0
  3  8  1  0  0  0
  5  9  1  0  0  0
 32 33  1  0  0  0
M  END
> <minimizedAffinity>
-8.68011

$$$$
3SR4_TT8_A_417


 33 35  0  0  0  0  0  0  0  0999 V2000
   44.1942   48.3927    8.7264 C   0  0  0  0  0  0  0  0  0  0  0  0
   44.5853   49.5642    9.6004 C   0  0  0  0  0  0  0  0  0  0  0  0
   43.9133   49.5404   10.8339 O   0  0  0  0  0  0  0  0  0  0  0  0
   44.2078   50.7629    8.7335 C   0  0  0  0  0  0  0  0  0  0  0  0
   42.9967   51.3907    9.1145 O   0  0  0  0  0  0  0  0  0  0  0  0
   44.1545   50.1967    7.3157 C   0  0  0  0  0  0  0  0  0  0  0  0
   44.4960   48.8152    7.4044 O   0  0  0  0  0  0  0  0  0  0  0  0
   42.9556   49.5330   10.6802 H   0  0  0  0  0  0  0  0  0  0  0  0
   42.2693   50.7514    9.0581 H   0  0  0  0  0  0  0  0  0  0  0  0
   47.4984   46.1433   12.1091 N   0  0  0  0  0  0  0  0  0  0  0  0
   47.0340   47.4671   12.1311 C   0  0  0  0  0  0  0  0  0  0  0  0
   46.1551   47.8661   11.1210 N   0  0  0  0  0  0  0  0  0  0  0  0
   45.7509   46.9950   10.1331 C   0  0  0  0  0  0  0  0  0  0  0  0
   46.2164   45.6636   10.1094 C   0  0  0  0  0  0  0  0  0  0  0  0
   47.1088   45.2323   11.1210 C   0  0  0  0  0  0  0  0  0  0  0  0
   45.6566   45.0560    9.0445 N   0  0  0  0  0  0  0  0  0  0  0  0
   44.8616   45.9324    8.3953 C   0  0  0  0  0  0  0  0  0  0  0  0
   44.9111   47.1423    9.0629 N   0  0  0  0  0  0  0  0  0  0  0  0
   48.8329   43.4306   10.5362 C   0  0  0  0  0  0  0  0  0  0  0  0
   47.6010   43.9753   11.1786 N   0  0  0  0  0  0  0  0  0  0  0  0
   47.0788   43.3353   11.7142 H   0  0  0  0  0  0  0  0  0  0  0  0
   45.1533   50.8692    6.3840 C   0  0  0  0  0  0  0  0  0  0  0  0
   44.4427   52.3217    5.5683 S   0  0  0  0  0  0  0  0  0  0  0  0
   44.4265   51.8510    3.8233 C   0  0  0  0  0  0  0  0  0  0  0  0
   43.6040   52.7838    2.9063 C   0  0  0  0  0  0  0  0  0  0  0  0
   42.3091   51.1905    1.4568 N   0  0  0  0  0  0  0  0  0  0  0  0
   42.1961   52.2456    2.5176 C   0  0  0  0  0  0  0  0  0  0  0  0
   41.3783   50.8502    1.2152 H   0  0  0  0  0  0  0  0  0  0  0  0
   42.8740   50.4164    1.8060 H   0  0  0  0  0  0  0  0  0  0  0  0
   41.2532   53.3359    2.0019 C   0  0  0  0  0  0  0  0  0  0  0  0
   41.6585   54.1377    1.1414 O   0  0  0  0  0  0  0  0  0  0  0  0
   40.0886   53.4505    2.4377 O   0  0  0  0  0  0  0  0  0  0  0  0
   39.7701   52.8536    3.0859 H   0  0  0  0  0  0  0  0  0  0  0  0
 30 31  2  0  0  0
 30 27  1  0  0  0
 30 32  1  0  0  0
 26 27  1  0  0  0
 19 20  1  0  0  0
 10 11  2  0  0  0
 10 15  1  0  0  0
 11 12  1  0  0  0
 12 13  2  0  0  0
 13 14  1  0  0  0
 13 18  1  0  0  0
 14 15  2  0  0  0
 14 16  1  0  0  0
 15 20  1  0  0  0
 16 17  2  0  0  0
 17 18  1  0  0  0
 18  1  1  0  0  0
 27 25  1  0  0  0
 25 24  1  0  0  0
 23 24  1  0  0  0
 23 22  1  0  0  0
  1  2  1  0  0  0
  1  7  1  0  0  0
  2  3  1  0  0  0
  2  4  1  0  0  0
  4  5  1  0  0  0
  4  6  1  0  0  0
  6  7  1  0  0  0
  6 22  1  0  0  0
 26 28  1  0  0  0
 26 29  1  0  0  0
 20 21  1  0  0  0
  3  8  1  0  0  0
  5  9  1  0  0  0
 32 33  1  0  0  0
M  END
> <minimizedAffinity>
-8.61798

$$$$
3SR4_TT8_A_417


 33 35  0  0  0  0  0  0  0  0999 V2000
   44.4858   49.0776    8.5094 C   0  0  0  0  0  0  0  0  0  0  0  0
   44.6271   50.4985    9.0097 C   0  0  0  0  0  0  0  0  0  0  0  0
   44.0250   50.6697   10.2674 O   0  0  0  0  0  0  0  0  0  0  0  0
   43.9505   51.3060    7.9047 C   0  0  0  0  0  0  0  0  0  0  0  0
   42.6419   51.7410    8.2279 O   0  0  0  0  0  0  0  0  0  0  0  0
   43.9774   50.3765    6.6927 C   0  0  0  0  0  0  0  0  0  0  0  0
   44.6324   49.1774    7.1002 O   0  0  0  0  0  0  0  0  0  0  0  0
   43.0900   50.4168   10.2153 H   0  0  0  0  0  0  0  0  0  0  0  0
   42.0808   50.9709    8.4095 H   0  0  0  0  0  0  0  0  0  0  0  0
   46.3199   46.9952   12.9501 N   0  0  0  0  0  0  0  0  0  0  0  0
   45.2814   47.9293   12.8177 C   0  0  0  0  0  0  0  0  0  0  0  0
   44.9538   48.3613   11.5300 N   0  0  0  0  0  0  0  0  0  0  0  0
   45.6215   47.8896   10.4210 C   0  0  0  0  0  0  0  0  0  0  0  0
   46.6657   46.9501   10.5520 C   0  0  0  0  0  0  0  0  0  0  0  0
   47.0191   46.4954   11.8459 C   0  0  0  0  0  0  0  0  0  0  0  0
   47.1227   46.6751    9.3142 N   0  0  0  0  0  0  0  0  0  0  0  0
   46.4221   47.3898    8.4087 C   0  0  0  0  0  0  0  0  0  0  0  0
   45.4846   48.1491    9.0846 N   0  0  0  0  0  0  0  0  0  0  0  0
   49.0051   45.5649   13.1689 C   0  0  0  0  0  0  0  0  0  0  0  0
   48.0023   45.5948   12.0642 N   0  0  0  0  0  0  0  0  0  0  0  0
   48.0653   44.8626   11.4090 H   0  0  0  0  0  0  0  0  0  0  0  0
   44.7581   50.9659    5.5261 C   0  0  0  0  0  0  0  0  0  0  0  0
   43.9375   52.4242    4.8334 S   0  0  0  0  0  0  0  0  0  0  0  0
   45.2662   53.2624    3.9395 C   0  0  0  0  0  0  0  0  0  0  0  0
   46.6405   53.2374    4.6452 C   0  0  0  0  0  0  0  0  0  0  0  0
   47.0320   55.2710    3.2211 N   0  0  0  0  0  0  0  0  0  0  0  0
   47.5194   54.5010    4.4131 C   0  0  0  0  0  0  0  0  0  0  0  0
   47.6189   56.0941    3.0849 H   0  0  0  0  0  0  0  0  0  0  0  0
   46.0672   55.5633    3.3764 H   0  0  0  0  0  0  0  0  0  0  0  0
   48.9993   54.1764    4.1939 C   0  0  0  0  0  0  0  0  0  0  0  0
   49.8510   55.0691    4.3529 O   0  0  0  0  0  0  0  0  0  0  0  0
   49.3720   53.0377    3.8421 O   0  0  0  0  0  0  0  0  0  0  0  0
   48.7415   52.3557    3.7186 H   0  0  0  0  0  0  0  0  0  0  0  0
 30 31  2  0  0  0
 30 27  1  0  0  0
 30 32  1  0  0  0
 26 27  1  0  0  0
 19 20  1  0  0  0
 10 11  2  0  0  0
 10 15  1  0  0  0
 11 12  1  0  0  0
 12 13  2  0  0  0
 13 14  1  0  0  0
 13 18  1  0  0  0
 14 15  2  0  0  0
 14 16  1  0  0  0
 15 20  1  0  0  0
 16 17  2  0  0  0
 17 18  1  0  0  0
 18  1  1  0  0  0
 27 25  1  0  0  0
 25 24  1  0  0  0
 23 24  1  0  0  0
 23 22  1  0  0  0
  1  2  1  0  0  0
  1  7  1  0  0  0
  2  3  1  0  0  0
  2  4  1  0  0  0
  4  5  1  0  0  0
  4  6  1  0  0  0
  6  7  1  0  0  0
  6 22  1  0  0  0
 26 28  1  0  0  0
 26 29  1  0  0  0
 20 21  1  0  0  0
  3  8  1  0  0  0
  5  9  1  0  0  0
 32 33  1  0  0  0
M  END
> <minimizedAffinity>
-8.58413

$$$$
3SR4_TT8_A_417


 33 35  0  0  0  0  0  0  0  0999 V2000
   46.0465   45.9757    8.6909 C   0  0  0  0  0  0  0  0  0  0  0  0
   44.6299   45.6824    9.1342 C   0  0  0  0  0  0  0  0  0  0  0  0
   44.2148   44.4007    8.7358 O   0  0  0  0  0  0  0  0  0  0  0  0
   43.8370   46.8046    8.4688 C   0  0  0  0  0  0  0  0  0  0  0  0
   43.1361   46.4032    7.3053 O   0  0  0  0  0  0  0  0  0  0  0  0
   44.8820   47.8813    8.1823 C   0  0  0  0  0  0  0  0  0  0  0  0
   46.1295   47.3935    8.6709 O   0  0  0  0  0  0  0  0  0  0  0  0
   44.2956   44.3196    7.7726 H   0  0  0  0  0  0  0  0  0  0  0  0
   43.7654   46.0644    6.6495 H   0  0  0  0  0  0  0  0  0  0  0  0
   48.4010   46.4138   13.3475 N   0  0  0  0  0  0  0  0  0  0  0  0
   47.3973   47.2428   12.8241 C   0  0  0  0  0  0  0  0  0  0  0  0
   46.9087   46.9486   11.5486 N   0  0  0  0  0  0  0  0  0  0  0  0
   47.3892   45.8808   10.8225 C   0  0  0  0  0  0  0  0  0  0  0  0
   48.3981   45.0460   11.3472 C   0  0  0  0  0  0  0  0  0  0  0  0
   48.9120   45.3215   12.6378 C   0  0  0  0  0  0  0  0  0  0  0  0
   48.6607   44.0975   10.4263 N   0  0  0  0  0  0  0  0  0  0  0  0
   47.8707   44.2882    9.3488 C   0  0  0  0  0  0  0  0  0  0  0  0
   47.0745   45.3943    9.5829 N   0  0  0  0  0  0  0  0  0  0  0  0
   51.3202   44.4781   12.8609 C   0  0  0  0  0  0  0  0  0  0  0  0
   49.8748   44.5732   13.2196 N   0  0  0  0  0  0  0  0  0  0  0  0
   49.5849   44.0182   13.9794 H   0  0  0  0  0  0  0  0  0  0  0  0
   44.5770   49.1911    8.8960 C   0  0  0  0  0  0  0  0  0  0  0  0
   45.1831   50.6226    7.9669 S   0  0  0  0  0  0  0  0  0  0  0  0
   44.2112   50.5706    6.4439 C   0  0  0  0  0  0  0  0  0  0  0  0
   44.0502   51.9309    5.7291 C   0  0  0  0  0  0  0  0  0  0  0  0
   45.2611   50.7648    3.8607 N   0  0  0  0  0  0  0  0  0  0  0  0
   44.9125   52.1023    4.4446 C   0  0  0  0  0  0  0  0  0  0  0  0
   45.8252   50.8968    3.0213 H   0  0  0  0  0  0  0  0  0  0  0  0
   44.4049   50.2654    3.6199 H   0  0  0  0  0  0  0  0  0  0  0  0
   46.2166   52.8661    4.6892 C   0  0  0  0  0  0  0  0  0  0  0  0
   46.3439   54.0183    4.2379 O   0  0  0  0  0  0  0  0  0  0  0  0
   47.1649   52.3525    5.3187 O   0  0  0  0  0  0  0  0  0  0  0  0
   47.0829   51.4854    5.6642 H   0  0  0  0  0  0  0  0  0  0  0  0
 30 31  2  0  0  0
 30 27  1  0  0  0
 30 32  1  0  0  0
 26 27  1  0  0  0
 19 20  1  0  0  0
 10 11  2  0  0  0
 10 15  1  0  0  0
 11 12  1  0  0  0
 12 13  2  0  0  0
 13 14  1  0  0  0
 13 18  1  0  0  0
 14 15  2  0  0  0
 14 16  1  0  0  0
 15 20  1  0  0  0
 16 17  2  0  0  0
 17 18  1  0  0  0
 18  1  1  0  0  0
 27 25  1  0  0  0
 25 24  1  0  0  0
 23 24  1  0  0  0
 23 22  1  0  0  0
  1  2  1  0  0  0
  1  7  1  0  0  0
  2  3  1  0  0  0
  2  4  1  0  0  0
  4  5  1  0  0  0
  4  6  1  0  0  0
  6  7  1  0  0  0
  6 22  1  0  0  0
 26 28  1  0  0  0
 26 29  1  0  0  0
 20 21  1  0  0  0
  3  8  1  0  0  0
  5  9  1  0  0  0
 32 33  1  0  0  0
M  END
> <minimizedAffinity>
-7.80651

$$$$
3SR4_TT8_A_417


 33 35  0  0  0  0  0  0  0  0999 V2000
   45.0109   49.8790    8.9928 C   0  0  0  0  0  0  0  0  0  0  0  0
   44.1514   49.0897    9.9559 C   0  0  0  0  0  0  0  0  0  0  0  0
   43.8747   49.8191   11.1243 O   0  0  0  0  0  0  0  0  0  0  0  0
   44.9989   47.8457   10.2107 C   0  0  0  0  0  0  0  0  0  0  0  0
   45.6837   47.8592   11.4505 O   0  0  0  0  0  0  0  0  0  0  0  0
   45.9492   47.7898    9.0160 C   0  0  0  0  0  0  0  0  0  0  0  0
   45.6288   48.8957    8.1751 O   0  0  0  0  0  0  0  0  0  0  0  0
   44.7077   50.0823   11.5459 H   0  0  0  0  0  0  0  0  0  0  0  0
   46.2768   48.6260   11.4840 H   0  0  0  0  0  0  0  0  0  0  0  0
   44.4536   51.9301    4.2071 N   0  0  0  0  0  0  0  0  0  0  0  0
   45.3877   50.9646    4.6118 C   0  0  0  0  0  0  0  0  0  0  0  0
   45.3673   50.5583    5.9485 N   0  0  0  0  0  0  0  0  0  0  0  0
   44.4623   51.0814    6.8459 C   0  0  0  0  0  0  0  0  0  0  0  0
   43.5221   52.0520    6.4409 C   0  0  0  0  0  0  0  0  0  0  0  0
   43.5207   52.4826    5.0917 C   0  0  0  0  0  0  0  0  0  0  0  0
   42.7769   52.3705    7.5179 N   0  0  0  0  0  0  0  0  0  0  0  0
   43.1958   51.6521    8.5810 C   0  0  0  0  0  0  0  0  0  0  0  0
   44.2436   50.8458    8.1759 N   0  0  0  0  0  0  0  0  0  0  0  0
   41.5487   53.2166    3.6312 C   0  0  0  0  0  0  0  0  0  0  0  0
   42.6542   53.4037    4.6161 N   0  0  0  0  0  0  0  0  0  0  0  0
   42.7667   54.3174    4.9648 H   0  0  0  0  0  0  0  0  0  0  0  0
   45.7825   46.5150    8.2006 C   0  0  0  0  0  0  0  0  0  0  0  0
   44.7433   45.3005    9.0521 S   0  0  0  0  0  0  0  0  0  0  0  0
   45.8428   43.8797    9.2499 C   0  0  0  0  0  0  0  0  0  0  0  0
   47.3497   44.2211    9.2631 C   0  0  0  0  0  0  0  0  0  0  0  0
   47.3045   42.7379   11.2915 N   0  0  0  0  0  0  0  0  0  0  0  0
   48.1199   43.7387   10.5268 C   0  0  0  0  0  0  0  0  0  0  0  0
   47.8244   42.4337   12.1147 H   0  0  0  0  0  0  0  0  0  0  0  0
   47.1088   41.9329   10.6964 H   0  0  0  0  0  0  0  0  0  0  0  0
   48.4884   44.8773   11.4816 C   0  0  0  0  0  0  0  0  0  0  0  0
   49.6224   44.9037   11.9925 O   0  0  0  0  0  0  0  0  0  0  0  0
   47.6700   45.7740   11.7739 O   0  0  0  0  0  0  0  0  0  0  0  0
   46.8124   45.7667   11.3966 H   0  0  0  0  0  0  0  0  0  0  0  0
 30 31  2  0  0  0
 30 27  1  0  0  0
 30 32  1  0  0  0
 26 27  1  0  0  0
 19 20  1  0  0  0
 10 11  2  0  0  0
 10 15  1  0  0  0
 11 12  1  0  0  0
 12 13  2  0  0  0
 13 14  1  0  0  0
 13 18  1  0  0  0
 14 15  2  0  0  0
 14 16  1  0  0  0
 15 20  1  0  0  0
 16 17  2  0  0  0
 17 18  1  0  0  0
 18  1  1  0  0  0
 27 25  1  0  0  0
 25 24  1  0  0  0
 23 24  1  0  0  0
 23 22  1  0  0  0
  1  2  1  0  0  0
  1  7  1  0  0  0
  2  3  1  0  0  0
  2  4  1  0  0  0
  4  5  1  0  0  0
  4  6  1  0  0  0
  6  7  1  0  0  0
  6 22  1  0  0  0
 26 28  1  0  0  0
 26 29  1  0  0  0
 20 21  1  0  0  0
  3  8  1  0  0  0
  5  9  1  0  0  0
 32 33  1  0  0  0
M  END
> <minimizedAffinity>
-7.66272

$$$$
