1IE9_VDX_A_500


 33 35  0  0  0  0  0  0  0  0999 V2000
   14.3814   21.5866   33.7703 C   0  0  0  0  0  0  0  0  0  0  0  0
   14.0740   22.7553   33.1929 C   0  0  0  0  0  0  0  0  0  0  0  0
   14.1710   23.0160   31.6979 C   0  0  0  0  0  0  0  0  0  0  0  0
   12.7555   23.3679   31.1930 C   0  0  0  0  0  0  0  0  0  0  0  0
   12.1075   24.4897   32.0490 C   0  0  0  0  0  0  0  0  0  0  0  0
   12.0779   24.2018   33.5755 C   0  0  0  0  0  0  0  0  0  0  0  0
   13.5831   23.9326   33.9635 C   0  0  0  0  0  0  0  0  0  0  0  0
   13.6386   23.9497   35.4807 C   0  0  0  0  0  0  0  0  0  0  0  0
   12.5541   25.0120   35.7846 C   0  0  0  0  0  0  0  0  0  0  0  0
   11.8065   25.4213   34.4831 C   0  0  0  0  0  0  0  0  0  0  0  0
   11.1653   22.9859   33.9271 C   0  0  0  0  0  0  0  0  0  0  0  0
   16.8583   17.2204   34.3862 O   0  0  0  0  0  0  0  0  0  0  0  0
   14.1366   17.4695   35.4356 C   0  0  0  0  0  0  0  0  0  0  0  0
   14.6611   16.2672   34.6210 C   0  0  0  0  0  0  0  0  0  0  0  0
   15.7548   16.7649   33.6302 C   0  0  0  0  0  0  0  0  0  0  0  0
   15.2107   17.9298   32.7933 C   0  0  0  0  0  0  0  0  0  0  0  0
   14.5588   19.0560   33.5472 C   0  0  0  0  0  0  0  0  0  0  0  0
   14.8183   20.3219   33.1524 C   0  0  0  0  0  0  0  0  0  0  0  0
   13.6292   18.6380   34.6162 C   0  0  0  0  0  0  0  0  0  0  0  0
   12.3669   19.1654   34.7434 C   0  0  0  0  0  0  0  0  0  0  0  0
   13.1836   17.0886   36.4002 O   0  0  0  0  0  0  0  0  0  0  0  0
   17.2090   16.4895   34.9189 H   0  0  0  0  0  0  0  0  0  0  0  0
   12.3870   16.7596   35.9553 H   0  0  0  0  0  0  0  0  0  0  0  0
   10.3274   25.7604   34.8000 C   0  0  0  0  0  0  0  0  0  0  0  0
   10.1702   25.9659   36.3489 C   0  0  0  0  0  0  0  0  0  0  0  0
    9.7126   26.8328   33.9530 C   0  0  0  0  0  0  0  0  0  0  0  0
    8.9975   26.2176   32.6709 C   0  0  0  0  0  0  0  0  0  0  0  0
    8.3668   24.8427   32.6745 C   0  0  0  0  0  0  0  0  0  0  0  0
    6.2706   23.5523   32.4958 O   0  0  0  0  0  0  0  0  0  0  0  0
    6.8306   24.7762   32.9152 C   0  0  0  0  0  0  0  0  0  0  0  0
    6.4836   25.0214   34.3556 C   0  0  0  0  0  0  0  0  0  0  0  0
    6.1022   25.7863   32.0221 C   0  0  0  0  0  0  0  0  0  0  0  0
    6.6648   22.8256   33.0033 H   0  0  0  0  0  0  0  0  0  0  0  0
 12 15  1  0  0  0
 29 30  1  0  0  0
 13 14  1  0  0  0
 13 19  1  0  0  0
 13 21  1  0  0  0
 14 15  1  0  0  0
 15 16  1  0  0  0
 16 17  1  0  0  0
 17 18  2  0  0  0
 17 19  1  0  0  0
 18  1  1  0  0  0
  1  2  2  0  0  0
  2  3  1  0  0  0
  2  7  1  0  0  0
  3  4  1  0  0  0
 19 20  2  0  0  0
  4  5  1  0  0  0
  5  6  1  0  0  0
  6  7  1  0  0  0
  6 10  1  0  0  0
  6 11  1  0  0  0
  7  8  1  0  0  0
  8  9  1  0  0  0
  9 10  1  0  0  0
 10 24  1  0  0  0
 24 25  1  0  0  0
 24 26  1  0  0  0
 26 27  1  0  0  0
 27 28  1  0  0  0
 28 30  1  0  0  0
 30 31  1  0  0  0
 30 32  1  0  0  0
 12 22  1  0  0  0
 29 33  1  0  0  0
 21 23  1  0  0  0
M  END
> <minimizedAffinity>
-13.46083

$$$$
