4BCK_T3E_A_1298


 31 33  0  0  0  0  0  0  0  0999 V2000
    4.8656   24.3237   23.8743 C   0  0  0  0  0  0  0  0  0  0  0  0
    5.6852   23.2425   23.9818 N   0  0  0  0  0  0  0  0  0  0  0  0
    6.7192   23.2112   24.8822 C   0  0  0  0  0  0  0  0  0  0  0  0
    6.9512   24.2947   25.6743 N   0  0  0  0  0  0  0  0  0  0  0  0
    6.1451   25.3838   25.5790 C   0  0  0  0  0  0  0  0  0  0  0  0
    5.0949   25.4109   24.6884 C   0  0  0  0  0  0  0  0  0  0  0  0
    2.4836   24.1622   20.7064 C   0  0  0  0  0  0  0  0  0  0  0  0
    1.6076   24.0567   21.7883 N   0  0  0  0  0  0  0  0  0  0  0  0
    2.3292   24.0965   23.0839 C   0  0  0  0  0  0  0  0  0  0  0  0
    1.6446   24.0039   24.3974 C   0  0  0  0  0  0  0  0  0  0  0  0
    3.7389   24.2258   22.8604 C   0  0  0  0  0  0  0  0  0  0  0  0
    4.0041   24.2951   21.2772 S   0  0  0  0  0  0  0  0  0  0  0  0
    0.8301   23.6103   18.9131 C   0  0  0  0  0  0  0  0  0  0  0  0
    2.1067   24.1585   19.3143 N   0  0  0  0  0  0  0  0  0  0  0  0
    2.7183   24.5289   18.6374 H   0  0  0  0  0  0  0  0  0  0  0  0
    7.5724   22.0344   24.9524 N   0  0  0  0  0  0  0  0  0  0  0  0
    7.4969   21.4169   25.7154 H   0  0  0  0  0  0  0  0  0  0  0  0
    8.5385   21.7695   23.8942 C   0  0  0  0  0  0  0  0  0  0  0  0
    8.1682   21.0350   22.7637 C   0  0  0  0  0  0  0  0  0  0  0  0
    9.0986   20.7895   21.7406 C   0  0  0  0  0  0  0  0  0  0  0  0
   10.3871   21.2879   21.8433 C   0  0  0  0  0  0  0  0  0  0  0  0
   10.7573   22.0310   22.9642 C   0  0  0  0  0  0  0  0  0  0  0  0
    9.8308   22.2705   23.9876 C   0  0  0  0  0  0  0  0  0  0  0  0
    8.6262   19.8459   20.3103 S   0  0  0  0  0  0  0  0  0  0  0  0
    8.3193   18.4852   20.6852 O   0  0  0  0  0  0  0  0  0  0  0  0
    9.9169   19.8691   19.2957 N   0  0  0  0  0  0  0  0  0  0  0  0
    7.4777   20.4397   19.6814 O   0  0  0  0  0  0  0  0  0  0  0  0
   10.7207   19.4446   19.7582 H   0  0  0  0  0  0  0  0  0  0  0  0
   10.1374   20.8337   19.0481 H   0  0  0  0  0  0  0  0  0  0  0  0
    4.2417   26.6412   24.6351 C   0  0  0  0  0  0  0  0  0  0  0  0
    3.6046   27.5914   24.5889 N   0  0  0  0  0  0  0  0  0  0  0  0
 13 14  1  0  0  0
 14  7  1  0  0  0
  7  8  2  0  0  0
  7 12  1  0  0  0
  8  9  1  0  0  0
  9 10  1  0  0  0
  9 11  2  0  0  0
 11  1  1  0  0  0
 11 12  1  0  0  0
  1  2  1  0  0  0
  1  6  2  0  0  0
  2  3  2  0  0  0
  3 16  1  0  0  0
  3  4  1  0  0  0
 16 18  1  0  0  0
 18 19  1  0  0  0
 18 23  2  0  0  0
 19 20  2  0  0  0
 20 24  1  0  0  0
 20 21  1  0  0  0
 24 25  2  0  0  0
 24 26  1  0  0  0
 24 27  2  0  0  0
 21 22  2  0  0  0
 22 23  1  0  0  0
  4  5  2  0  0  0
  5  6  1  0  0  0
  6 30  1  0  0  0
 30 31  3  0  0  0
 14 15  1  0  0  0
 16 17  1  0  0  0
 26 28  1  0  0  0
 26 29  1  0  0  0
M  END
> <minimizedAffinity>
-8.19302

$$$$
4BCK_T3E_A_1298


 31 33  0  0  0  0  0  0  0  0999 V2000
    4.9674   24.6300   24.0626 C   0  0  0  0  0  0  0  0  0  0  0  0
    5.7663   23.5330   24.1654 N   0  0  0  0  0  0  0  0  0  0  0  0
    6.8117   23.4860   25.0519 C   0  0  0  0  0  0  0  0  0  0  0  0
    7.0765   24.5691   25.8342 N   0  0  0  0  0  0  0  0  0  0  0  0
    6.2914   25.6737   25.7433 C   0  0  0  0  0  0  0  0  0  0  0  0
    5.2298   25.7170   24.8669 C   0  0  0  0  0  0  0  0  0  0  0  0
    1.5352   24.4742   22.0797 C   0  0  0  0  0  0  0  0  0  0  0  0
    2.5030   24.3318   21.0835 N   0  0  0  0  0  0  0  0  0  0  0  0
    3.8761   24.3684   21.6438 C   0  0  0  0  0  0  0  0  0  0  0  0
    5.0968   24.2400   20.8096 C   0  0  0  0  0  0  0  0  0  0  0  0
    3.8252   24.5492   23.0646 C   0  0  0  0  0  0  0  0  0  0  0  0
    2.2857   24.6286   23.5178 S   0  0  0  0  0  0  0  0  0  0  0  0
   -0.5817   25.7278   21.6309 C   0  0  0  0  0  0  0  0  0  0  0  0
    0.1080   24.4799   21.8726 N   0  0  0  0  0  0  0  0  0  0  0  0
   -0.3964   23.6347   21.8957 H   0  0  0  0  0  0  0  0  0  0  0  0
    7.6419   22.2925   25.1176 N   0  0  0  0  0  0  0  0  0  0  0  0
    7.5383   21.6619   25.8665 H   0  0  0  0  0  0  0  0  0  0  0  0
    8.6263   22.0303   24.0759 C   0  0  0  0  0  0  0  0  0  0  0  0
    8.2581   21.3623   22.9041 C   0  0  0  0  0  0  0  0  0  0  0  0
    9.2067   21.1195   21.8973 C   0  0  0  0  0  0  0  0  0  0  0  0
   10.5120   21.5549   22.0575 C   0  0  0  0  0  0  0  0  0  0  0  0
   10.8809   22.2319   23.2199 C   0  0  0  0  0  0  0  0  0  0  0  0
    9.9359   22.4684   24.2269 C   0  0  0  0  0  0  0  0  0  0  0  0
    8.7361   20.2603   20.4142 S   0  0  0  0  0  0  0  0  0  0  0  0
    7.6552   20.9540   19.7533 O   0  0  0  0  0  0  0  0  0  0  0  0
    8.2386   18.7678   20.8841 N   0  0  0  0  0  0  0  0  0  0  0  0
    9.8584   20.1613   19.5209 O   0  0  0  0  0  0  0  0  0  0  0  0
    7.4432   18.8580   21.5162 H   0  0  0  0  0  0  0  0  0  0  0  0
    9.0017   18.2903   21.3637 H   0  0  0  0  0  0  0  0  0  0  0  0
    4.4010   26.9641   24.8178 C   0  0  0  0  0  0  0  0  0  0  0  0
    3.7709   27.9198   24.7985 N   0  0  0  0  0  0  0  0  0  0  0  0
 13 14  1  0  0  0
 14  7  1  0  0  0
  7  8  2  0  0  0
  7 12  1  0  0  0
  8  9  1  0  0  0
  9 10  1  0  0  0
  9 11  2  0  0  0
 11  1  1  0  0  0
 11 12  1  0  0  0
  1  2  1  0  0  0
  1  6  2  0  0  0
  2  3  2  0  0  0
  3 16  1  0  0  0
  3  4  1  0  0  0
 16 18  1  0  0  0
 18 19  1  0  0  0
 18 23  2  0  0  0
 19 20  2  0  0  0
 20 24  1  0  0  0
 20 21  1  0  0  0
 24 25  2  0  0  0
 24 26  1  0  0  0
 24 27  2  0  0  0
 21 22  2  0  0  0
 22 23  1  0  0  0
  4  5  2  0  0  0
  5  6  1  0  0  0
  6 30  1  0  0  0
 30 31  3  0  0  0
 14 15  1  0  0  0
 16 17  1  0  0  0
 26 28  1  0  0  0
 26 29  1  0  0  0
M  END
> <minimizedAffinity>
-7.93643

$$$$
4BCK_T3E_A_1298


 31 33  0  0  0  0  0  0  0  0999 V2000
    8.2273   22.0506   23.4421 C   0  0  0  0  0  0  0  0  0  0  0  0
    7.7478   22.6939   24.5414 N   0  0  0  0  0  0  0  0  0  0  0  0
    8.5488   23.5011   25.3080 C   0  0  0  0  0  0  0  0  0  0  0  0
    9.8626   23.6478   24.9802 N   0  0  0  0  0  0  0  0  0  0  0  0
   10.3593   23.0113   23.8879 C   0  0  0  0  0  0  0  0  0  0  0  0
    9.5531   22.2144   23.1058 C   0  0  0  0  0  0  0  0  0  0  0  0
    5.4174   20.5253   21.0940 C   0  0  0  0  0  0  0  0  0  0  0  0
    5.9100   19.4182   21.7876 N   0  0  0  0  0  0  0  0  0  0  0  0
    6.9908   19.7981   22.7301 C   0  0  0  0  0  0  0  0  0  0  0  0
    7.6938   18.8192   23.5961 C   0  0  0  0  0  0  0  0  0  0  0  0
    7.2349   21.2086   22.6590 C   0  0  0  0  0  0  0  0  0  0  0  0
    6.2255   21.8516   21.5871 S   0  0  0  0  0  0  0  0  0  0  0  0
    3.0208   20.8846   20.4762 C   0  0  0  0  0  0  0  0  0  0  0  0
    4.3656   20.5012   20.1076 N   0  0  0  0  0  0  0  0  0  0  0  0
    4.5630   20.2240   19.1838 H   0  0  0  0  0  0  0  0  0  0  0  0
    7.9899   24.1603   26.4790 N   0  0  0  0  0  0  0  0  0  0  0  0
    8.2103   23.8317   27.3805 H   0  0  0  0  0  0  0  0  0  0  0  0
    7.1046   25.3064   26.3180 C   0  0  0  0  0  0  0  0  0  0  0  0
    6.3080   25.7419   27.3813 C   0  0  0  0  0  0  0  0  0  0  0  0
    5.4627   26.8528   27.2265 C   0  0  0  0  0  0  0  0  0  0  0  0
    5.4260   27.5309   26.0190 C   0  0  0  0  0  0  0  0  0  0  0  0
    6.2277   27.1068   24.9593 C   0  0  0  0  0  0  0  0  0  0  0  0
    7.0661   25.9946   25.1119 C   0  0  0  0  0  0  0  0  0  0  0  0
    4.4439   27.3960   28.5777 S   0  0  0  0  0  0  0  0  0  0  0  0
    3.3180   26.5071   28.7468 O   0  0  0  0  0  0  0  0  0  0  0  0
    3.9154   28.8992   28.1815 N   0  0  0  0  0  0  0  0  0  0  0  0
    5.2107   27.4336   29.7934 O   0  0  0  0  0  0  0  0  0  0  0  0
    3.3743   28.8527   27.3181 H   0  0  0  0  0  0  0  0  0  0  0  0
    4.7160   29.5170   28.0483 H   0  0  0  0  0  0  0  0  0  0  0  0
   10.1621   21.5431   21.9129 C   0  0  0  0  0  0  0  0  0  0  0  0
   10.6329   21.0469   20.9948 N   0  0  0  0  0  0  0  0  0  0  0  0
 13 14  1  0  0  0
 14  7  1  0  0  0
  7  8  2  0  0  0
  7 12  1  0  0  0
  8  9  1  0  0  0
  9 10  1  0  0  0
  9 11  2  0  0  0
 11  1  1  0  0  0
 11 12  1  0  0  0
  1  2  1  0  0  0
  1  6  2  0  0  0
  2  3  2  0  0  0
  3 16  1  0  0  0
  3  4  1  0  0  0
 16 18  1  0  0  0
 18 19  1  0  0  0
 18 23  2  0  0  0
 19 20  2  0  0  0
 20 24  1  0  0  0
 20 21  1  0  0  0
 24 25  2  0  0  0
 24 26  1  0  0  0
 24 27  2  0  0  0
 21 22  2  0  0  0
 22 23  1  0  0  0
  4  5  2  0  0  0
  5  6  1  0  0  0
  6 30  1  0  0  0
 30 31  3  0  0  0
 14 15  1  0  0  0
 16 17  1  0  0  0
 26 28  1  0  0  0
 26 29  1  0  0  0
M  END
> <minimizedAffinity>
-7.90445

$$$$
4BCK_T3E_A_1298


 31 33  0  0  0  0  0  0  0  0999 V2000
    7.1368   20.7905   22.0639 C   0  0  0  0  0  0  0  0  0  0  0  0
    6.4437   21.4583   21.1017 N   0  0  0  0  0  0  0  0  0  0  0  0
    5.3401   20.9099   20.4997 C   0  0  0  0  0  0  0  0  0  0  0  0
    4.9373   19.6574   20.8520 N   0  0  0  0  0  0  0  0  0  0  0  0
    5.6185   18.9749   21.8087 C   0  0  0  0  0  0  0  0  0  0  0  0
    6.7162   19.5303   22.4278 C   0  0  0  0  0  0  0  0  0  0  0  0
    9.7337   22.8869   24.2081 C   0  0  0  0  0  0  0  0  0  0  0  0
   10.4763   22.4650   23.1036 N   0  0  0  0  0  0  0  0  0  0  0  0
    9.6587   21.6498   22.1721 C   0  0  0  0  0  0  0  0  0  0  0  0
   10.1949   21.0712   20.9151 C   0  0  0  0  0  0  0  0  0  0  0  0
    8.3234   21.5154   22.6752 C   0  0  0  0  0  0  0  0  0  0  0  0
    8.2133   22.3192   24.0621 S   0  0  0  0  0  0  0  0  0  0  0  0
    9.3051   24.2412   26.2664 C   0  0  0  0  0  0  0  0  0  0  0  0
   10.2276   23.6943   25.2962 N   0  0  0  0  0  0  0  0  0  0  0  0
   11.1922   23.8732   25.3785 H   0  0  0  0  0  0  0  0  0  0  0  0
    4.6383   21.6614   19.4699 N   0  0  0  0  0  0  0  0  0  0  0  0
    5.0686   21.8227   18.5992 H   0  0  0  0  0  0  0  0  0  0  0  0
    3.2992   22.1754   19.7266 C   0  0  0  0  0  0  0  0  0  0  0  0
    3.1193   23.3455   20.4703 C   0  0  0  0  0  0  0  0  0  0  0  0
    1.8280   23.8441   20.7080 C   0  0  0  0  0  0  0  0  0  0  0  0
    0.7254   23.1824   20.1925 C   0  0  0  0  0  0  0  0  0  0  0  0
    0.9012   22.0210   19.4402 C   0  0  0  0  0  0  0  0  0  0  0  0
    2.1891   21.5203   19.2086 C   0  0  0  0  0  0  0  0  0  0  0  0
    1.6037   25.3260   21.6633 S   0  0  0  0  0  0  0  0  0  0  0  0
    0.7804   26.2687   20.9422 O   0  0  0  0  0  0  0  0  0  0  0  0
    3.1021   25.9557   21.8962 N   0  0  0  0  0  0  0  0  0  0  0  0
    0.9843   25.0153   22.9230 O   0  0  0  0  0  0  0  0  0  0  0  0
    3.5252   26.1696   20.9930 H   0  0  0  0  0  0  0  0  0  0  0  0
    3.6822   25.2786   22.3916 H   0  0  0  0  0  0  0  0  0  0  0  0
    7.4212   18.7262   23.4770 C   0  0  0  0  0  0  0  0  0  0  0  0
    7.9530   18.0960   24.2713 N   0  0  0  0  0  0  0  0  0  0  0  0
 13 14  1  0  0  0
 14  7  1  0  0  0
  7  8  2  0  0  0
  7 12  1  0  0  0
  8  9  1  0  0  0
  9 10  1  0  0  0
  9 11  2  0  0  0
 11  1  1  0  0  0
 11 12  1  0  0  0
  1  2  1  0  0  0
  1  6  2  0  0  0
  2  3  2  0  0  0
  3 16  1  0  0  0
  3  4  1  0  0  0
 16 18  1  0  0  0
 18 19  1  0  0  0
 18 23  2  0  0  0
 19 20  2  0  0  0
 20 24  1  0  0  0
 20 21  1  0  0  0
 24 25  2  0  0  0
 24 26  1  0  0  0
 24 27  2  0  0  0
 21 22  2  0  0  0
 22 23  1  0  0  0
  4  5  2  0  0  0
  5  6  1  0  0  0
  6 30  1  0  0  0
 30 31  3  0  0  0
 14 15  1  0  0  0
 16 17  1  0  0  0
 26 28  1  0  0  0
 26 29  1  0  0  0
M  END
> <minimizedAffinity>
-7.54596

$$$$
4BCK_T3E_A_1298


 31 33  0  0  0  0  0  0  0  0999 V2000
    6.0729   20.6791   21.8474 C   0  0  0  0  0  0  0  0  0  0  0  0
    6.0153   21.3608   23.0240 N   0  0  0  0  0  0  0  0  0  0  0  0
    7.0905   21.4204   23.8733 C   0  0  0  0  0  0  0  0  0  0  0  0
    8.2387   20.7640   23.5483 N   0  0  0  0  0  0  0  0  0  0  0  0
    8.3137   20.0764   22.3793 C   0  0  0  0  0  0  0  0  0  0  0  0
    7.2416   20.0297   21.5159 C   0  0  0  0  0  0  0  0  0  0  0  0
    3.0255   21.4915   19.4414 C   0  0  0  0  0  0  0  0  0  0  0  0
    2.7843   20.1798   19.8544 N   0  0  0  0  0  0  0  0  0  0  0  0
    3.8399   19.6920   20.7754 C   0  0  0  0  0  0  0  0  0  0  0  0
    3.8349   18.3314   21.3680 C   0  0  0  0  0  0  0  0  0  0  0  0
    4.8264   20.7114   20.9801 C   0  0  0  0  0  0  0  0  0  0  0  0
    4.4026   22.0131   20.1390 S   0  0  0  0  0  0  0  0  0  0  0  0
    1.2702   21.5862   17.6625 C   0  0  0  0  0  0  0  0  0  0  0  0
    2.1930   22.2599   18.5490 N   0  0  0  0  0  0  0  0  0  0  0  0
    2.2530   23.2426   18.5432 H   0  0  0  0  0  0  0  0  0  0  0  0
    6.9753   22.1556   25.1240 N   0  0  0  0  0  0  0  0  0  0  0  0
    7.0146   21.6752   25.9824 H   0  0  0  0  0  0  0  0  0  0  0  0
    6.8018   23.6022   25.1066 C   0  0  0  0  0  0  0  0  0  0  0  0
    5.5710   24.1647   24.7550 C   0  0  0  0  0  0  0  0  0  0  0  0
    5.4036   25.5591   24.7486 C   0  0  0  0  0  0  0  0  0  0  0  0
    6.4581   26.3839   25.1049 C   0  0  0  0  0  0  0  0  0  0  0  0
    7.6843   25.8265   25.4675 C   0  0  0  0  0  0  0  0  0  0  0  0
    7.8529   24.4356   25.4677 C   0  0  0  0  0  0  0  0  0  0  0  0
    3.8401   26.2696   24.2904 S   0  0  0  0  0  0  0  0  0  0  0  0
    3.6577   26.2018   22.8592 O   0  0  0  0  0  0  0  0  0  0  0  0
    3.8867   27.8378   24.7747 N   0  0  0  0  0  0  0  0  0  0  0  0
    2.7669   25.5703   24.9434 O   0  0  0  0  0  0  0  0  0  0  0  0
    4.6529   28.3171   24.3018 H   0  0  0  0  0  0  0  0  0  0  0  0
    4.0315   27.8779   25.7836 H   0  0  0  0  0  0  0  0  0  0  0  0
    7.3905   19.2566   20.2413 C   0  0  0  0  0  0  0  0  0  0  0  0
    7.5203   18.6748   19.2638 N   0  0  0  0  0  0  0  0  0  0  0  0
 13 14  1  0  0  0
 14  7  1  0  0  0
  7  8  2  0  0  0
  7 12  1  0  0  0
  8  9  1  0  0  0
  9 10  1  0  0  0
  9 11  2  0  0  0
 11  1  1  0  0  0
 11 12  1  0  0  0
  1  2  1  0  0  0
  1  6  2  0  0  0
  2  3  2  0  0  0
  3 16  1  0  0  0
  3  4  1  0  0  0
 16 18  1  0  0  0
 18 19  1  0  0  0
 18 23  2  0  0  0
 19 20  2  0  0  0
 20 24  1  0  0  0
 20 21  1  0  0  0
 24 25  2  0  0  0
 24 26  1  0  0  0
 24 27  2  0  0  0
 21 22  2  0  0  0
 22 23  1  0  0  0
  4  5  2  0  0  0
  5  6  1  0  0  0
  6 30  1  0  0  0
 30 31  3  0  0  0
 14 15  1  0  0  0
 16 17  1  0  0  0
 26 28  1  0  0  0
 26 29  1  0  0  0
M  END
> <minimizedAffinity>
-7.37441

$$$$
4BCK_T3E_A_1298


 31 33  0  0  0  0  0  0  0  0999 V2000
    4.4626   23.3471   22.8454 C   0  0  0  0  0  0  0  0  0  0  0  0
    5.6027   22.8076   23.3566 N   0  0  0  0  0  0  0  0  0  0  0  0
    6.2797   23.4042   24.3894 C   0  0  0  0  0  0  0  0  0  0  0  0
    5.8181   24.5776   24.9043 N   0  0  0  0  0  0  0  0  0  0  0  0
    4.6832   25.1321   24.4049 C   0  0  0  0  0  0  0  0  0  0  0  0
    3.9913   24.5260   23.3800 C   0  0  0  0  0  0  0  0  0  0  0  0
    2.2816   21.0281   20.4787 C   0  0  0  0  0  0  0  0  0  0  0  0
    3.1736   21.6523   19.6046 N   0  0  0  0  0  0  0  0  0  0  0  0
    4.0861   22.5772   20.3204 C   0  0  0  0  0  0  0  0  0  0  0  0
    5.1356   23.3730   19.6365 C   0  0  0  0  0  0  0  0  0  0  0  0
    3.7890   22.5773   21.7226 C   0  0  0  0  0  0  0  0  0  0  0  0
    2.5796   21.5544   21.9918 S   0  0  0  0  0  0  0  0  0  0  0  0
    1.5178   19.1330   19.0366 C   0  0  0  0  0  0  0  0  0  0  0  0
    1.2671   20.0730   20.1065 N   0  0  0  0  0  0  0  0  0  0  0  0
    0.4043   20.0610   20.5806 H   0  0  0  0  0  0  0  0  0  0  0  0
    7.4991   22.7915   24.8949 N   0  0  0  0  0  0  0  0  0  0  0  0
    7.6153   22.6528   25.8627 H   0  0  0  0  0  0  0  0  0  0  0  0
    8.5483   22.3832   23.9698 C   0  0  0  0  0  0  0  0  0  0  0  0
    8.2355   21.6472   22.8230 C   0  0  0  0  0  0  0  0  0  0  0  0
    9.2474   21.2634   21.9279 C   0  0  0  0  0  0  0  0  0  0  0  0
   10.5617   21.6260   22.1731 C   0  0  0  0  0  0  0  0  0  0  0  0
   10.8766   22.3701   23.3101 C   0  0  0  0  0  0  0  0  0  0  0  0
    9.8678   22.7476   24.2062 C   0  0  0  0  0  0  0  0  0  0  0  0
    8.8461   20.3185   20.4769 S   0  0  0  0  0  0  0  0  0  0  0  0
    8.5755   18.9446   20.8312 O   0  0  0  0  0  0  0  0  0  0  0  0
   10.1622   20.3950   19.4982 N   0  0  0  0  0  0  0  0  0  0  0  0
    7.6955   20.8794   19.8221 O   0  0  0  0  0  0  0  0  0  0  0  0
   10.9672   19.9932   19.9789 H   0  0  0  0  0  0  0  0  0  0  0  0
   10.3565   21.3689   19.2653 H   0  0  0  0  0  0  0  0  0  0  0  0
    2.7450   25.1877   22.8768 C   0  0  0  0  0  0  0  0  0  0  0  0
    1.7989   25.7100   22.4986 N   0  0  0  0  0  0  0  0  0  0  0  0
 13 14  1  0  0  0
 14  7  1  0  0  0
  7  8  2  0  0  0
  7 12  1  0  0  0
  8  9  1  0  0  0
  9 10  1  0  0  0
  9 11  2  0  0  0
 11  1  1  0  0  0
 11 12  1  0  0  0
  1  2  1  0  0  0
  1  6  2  0  0  0
  2  3  2  0  0  0
  3 16  1  0  0  0
  3  4  1  0  0  0
 16 18  1  0  0  0
 18 19  1  0  0  0
 18 23  2  0  0  0
 19 20  2  0  0  0
 20 24  1  0  0  0
 20 21  1  0  0  0
 24 25  2  0  0  0
 24 26  1  0  0  0
 24 27  2  0  0  0
 21 22  2  0  0  0
 22 23  1  0  0  0
  4  5  2  0  0  0
  5  6  1  0  0  0
  6 30  1  0  0  0
 30 31  3  0  0  0
 14 15  1  0  0  0
 16 17  1  0  0  0
 26 28  1  0  0  0
 26 29  1  0  0  0
M  END
> <minimizedAffinity>
-7.32322

$$$$
4BCK_T3E_A_1298


 31 33  0  0  0  0  0  0  0  0999 V2000
    4.1474   21.1670   21.7094 C   0  0  0  0  0  0  0  0  0  0  0  0
    5.1976   20.9798   22.5545 N   0  0  0  0  0  0  0  0  0  0  0  0
    6.0610   19.9247   22.4051 C   0  0  0  0  0  0  0  0  0  0  0  0
    5.8538   19.0257   21.4031 N   0  0  0  0  0  0  0  0  0  0  0  0
    4.8092   19.1951   20.5515 C   0  0  0  0  0  0  0  0  0  0  0  0
    3.9512   20.2637   20.6881 C   0  0  0  0  0  0  0  0  0  0  0  0
    2.1737   24.6079   21.6997 C   0  0  0  0  0  0  0  0  0  0  0  0
    1.7997   24.0120   22.9056 N   0  0  0  0  0  0  0  0  0  0  0  0
    2.4483   22.6904   23.0885 C   0  0  0  0  0  0  0  0  0  0  0  0
    2.2289   21.8369   24.2825 C   0  0  0  0  0  0  0  0  0  0  0  0
    3.2802   22.3883   21.9612 C   0  0  0  0  0  0  0  0  0  0  0  0
    3.2063   23.6138   20.9247 S   0  0  0  0  0  0  0  0  0  0  0  0
    0.3190   26.1164   20.9654 C   0  0  0  0  0  0  0  0  0  0  0  0
    1.7248   25.8918   21.2199 N   0  0  0  0  0  0  0  0  0  0  0  0
    2.3749   26.6148   21.0658 H   0  0  0  0  0  0  0  0  0  0  0  0
    7.1641   19.7639   23.3406 N   0  0  0  0  0  0  0  0  0  0  0  0
    7.2228   18.9541   23.8974 H   0  0  0  0  0  0  0  0  0  0  0  0
    8.1817   20.8005   23.4537 C   0  0  0  0  0  0  0  0  0  0  0  0
    7.9959   21.8856   24.3156 C   0  0  0  0  0  0  0  0  0  0  0  0
    8.9827   22.8784   24.4301 C   0  0  0  0  0  0  0  0  0  0  0  0
   10.1535   22.7777   23.6963 C   0  0  0  0  0  0  0  0  0  0  0  0
   10.3479   21.6908   22.8439 C   0  0  0  0  0  0  0  0  0  0  0  0
    9.3606   20.7038   22.7251 C   0  0  0  0  0  0  0  0  0  0  0  0
    8.7372   24.2615   25.5190 S   0  0  0  0  0  0  0  0  0  0  0  0
    8.7409   23.8239   26.8956 O   0  0  0  0  0  0  0  0  0  0  0  0
    7.2710   24.8944   25.1372 N   0  0  0  0  0  0  0  0  0  0  0  0
    9.7754   25.2369   25.3241 O   0  0  0  0  0  0  0  0  0  0  0  0
    6.5483   24.1892   25.2815 H   0  0  0  0  0  0  0  0  0  0  0  0
    7.2709   25.1865   24.1599 H   0  0  0  0  0  0  0  0  0  0  0  0
    2.8206   20.3946   19.7139 C   0  0  0  0  0  0  0  0  0  0  0  0
    1.9524   20.5114   18.9766 N   0  0  0  0  0  0  0  0  0  0  0  0
 13 14  1  0  0  0
 14  7  1  0  0  0
  7  8  2  0  0  0
  7 12  1  0  0  0
  8  9  1  0  0  0
  9 10  1  0  0  0
  9 11  2  0  0  0
 11  1  1  0  0  0
 11 12  1  0  0  0
  1  2  1  0  0  0
  1  6  2  0  0  0
  2  3  2  0  0  0
  3 16  1  0  0  0
  3  4  1  0  0  0
 16 18  1  0  0  0
 18 19  1  0  0  0
 18 23  2  0  0  0
 19 20  2  0  0  0
 20 24  1  0  0  0
 20 21  1  0  0  0
 24 25  2  0  0  0
 24 26  1  0  0  0
 24 27  2  0  0  0
 21 22  2  0  0  0
 22 23  1  0  0  0
  4  5  2  0  0  0
  5  6  1  0  0  0
  6 30  1  0  0  0
 30 31  3  0  0  0
 14 15  1  0  0  0
 16 17  1  0  0  0
 26 28  1  0  0  0
 26 29  1  0  0  0
M  END
> <minimizedAffinity>
-7.23331

$$$$
4BCK_T3E_A_1298


 31 33  0  0  0  0  0  0  0  0999 V2000
    6.0279   20.0804   21.9780 C   0  0  0  0  0  0  0  0  0  0  0  0
    4.8358   20.3719   22.5663 N   0  0  0  0  0  0  0  0  0  0  0  0
    3.6435   20.0199   21.9872 C   0  0  0  0  0  0  0  0  0  0  0  0
    3.6453   19.3840   20.7827 N   0  0  0  0  0  0  0  0  0  0  0  0
    4.8255   19.0872   20.1794 C   0  0  0  0  0  0  0  0  0  0  0  0
    6.0248   19.4234   20.7673 C   0  0  0  0  0  0  0  0  0  0  0  0
    9.2091   21.8346   23.5712 C   0  0  0  0  0  0  0  0  0  0  0  0
    9.2299   20.5487   24.1145 N   0  0  0  0  0  0  0  0  0  0  0  0
    8.0933   19.7292   23.6274 C   0  0  0  0  0  0  0  0  0  0  0  0
    7.8699   18.3223   24.0436 C   0  0  0  0  0  0  0  0  0  0  0  0
    7.2790   20.4968   22.7319 C   0  0  0  0  0  0  0  0  0  0  0  0
    7.9208   21.9621   22.5817 S   0  0  0  0  0  0  0  0  0  0  0  0
   10.0360   23.6976   25.0203 C   0  0  0  0  0  0  0  0  0  0  0  0
   10.1698   22.8769   23.8372 N   0  0  0  0  0  0  0  0  0  0  0  0
   10.9163   23.0295   23.2138 H   0  0  0  0  0  0  0  0  0  0  0  0
    2.3953   20.3621   22.6526 N   0  0  0  0  0  0  0  0  0  0  0  0
    1.7884   19.6491   22.9566 H   0  0  0  0  0  0  0  0  0  0  0  0
    2.0433   21.7593   22.8693 C   0  0  0  0  0  0  0  0  0  0  0  0
    1.6420   22.5638   21.7986 C   0  0  0  0  0  0  0  0  0  0  0  0
    1.2938   23.9076   22.0117 C   0  0  0  0  0  0  0  0  0  0  0  0
    1.3345   24.4380   23.2908 C   0  0  0  0  0  0  0  0  0  0  0  0
    1.7232   23.6358   24.3637 C   0  0  0  0  0  0  0  0  0  0  0  0
    2.0766   22.2969   24.1498 C   0  0  0  0  0  0  0  0  0  0  0  0
    0.7947   24.9292   20.6456 S   0  0  0  0  0  0  0  0  0  0  0  0
   -0.6167   24.7657   20.3855 O   0  0  0  0  0  0  0  0  0  0  0  0
    1.6650   24.4226   19.3488 N   0  0  0  0  0  0  0  0  0  0  0  0
    1.0715   26.3108   20.9320 O   0  0  0  0  0  0  0  0  0  0  0  0
    1.4558   23.4421   19.1610 H   0  0  0  0  0  0  0  0  0  0  0  0
    2.6604   24.5262   19.5458 H   0  0  0  0  0  0  0  0  0  0  0  0
    7.2909   19.0647   20.0513 C   0  0  0  0  0  0  0  0  0  0  0  0
    8.2498   18.7758   19.4964 N   0  0  0  0  0  0  0  0  0  0  0  0
 13 14  1  0  0  0
 14  7  1  0  0  0
  7  8  2  0  0  0
  7 12  1  0  0  0
  8  9  1  0  0  0
  9 10  1  0  0  0
  9 11  2  0  0  0
 11  1  1  0  0  0
 11 12  1  0  0  0
  1  2  1  0  0  0
  1  6  2  0  0  0
  2  3  2  0  0  0
  3 16  1  0  0  0
  3  4  1  0  0  0
 16 18  1  0  0  0
 18 19  1  0  0  0
 18 23  2  0  0  0
 19 20  2  0  0  0
 20 24  1  0  0  0
 20 21  1  0  0  0
 24 25  2  0  0  0
 24 26  1  0  0  0
 24 27  2  0  0  0
 21 22  2  0  0  0
 22 23  1  0  0  0
  4  5  2  0  0  0
  5  6  1  0  0  0
  6 30  1  0  0  0
 30 31  3  0  0  0
 14 15  1  0  0  0
 16 17  1  0  0  0
 26 28  1  0  0  0
 26 29  1  0  0  0
M  END
> <minimizedAffinity>
-7.01025

$$$$
4BCK_T3E_A_1298


 31 33  0  0  0  0  0  0  0  0999 V2000
    6.0075   24.0735   24.0954 C   0  0  0  0  0  0  0  0  0  0  0  0
    6.3918   22.7853   23.8833 N   0  0  0  0  0  0  0  0  0  0  0  0
    7.5265   22.2702   24.4562 C   0  0  0  0  0  0  0  0  0  0  0  0
    8.3045   23.0692   25.2382 N   0  0  0  0  0  0  0  0  0  0  0  0
    7.9380   24.3583   25.4590 C   0  0  0  0  0  0  0  0  0  0  0  0
    6.7896   24.8730   24.8996 C   0  0  0  0  0  0  0  0  0  0  0  0
    2.3835   25.3243   23.0768 C   0  0  0  0  0  0  0  0  0  0  0  0
    2.9977   25.0492   21.8536 N   0  0  0  0  0  0  0  0  0  0  0  0
    4.3873   24.5626   22.0349 C   0  0  0  0  0  0  0  0  0  0  0  0
    5.2730   24.1950   20.9023 C   0  0  0  0  0  0  0  0  0  0  0  0
    4.7168   24.5175   23.4291 C   0  0  0  0  0  0  0  0  0  0  0  0
    3.4392   25.0007   24.2751 S   0  0  0  0  0  0  0  0  0  0  0  0
    0.0149   25.4709   22.2876 C   0  0  0  0  0  0  0  0  0  0  0  0
    1.0371   25.8104   23.2526 N   0  0  0  0  0  0  0  0  0  0  0  0
    0.8140   26.3730   24.0290 H   0  0  0  0  0  0  0  0  0  0  0  0
    7.8987   20.8885   24.1913 N   0  0  0  0  0  0  0  0  0  0  0  0
    8.3277   20.3509   24.8958 H   0  0  0  0  0  0  0  0  0  0  0  0
    7.6371   20.3002   22.8842 C   0  0  0  0  0  0  0  0  0  0  0  0
    6.3276   20.1837   22.4082 C   0  0  0  0  0  0  0  0  0  0  0  0
    6.0789   19.6253   21.1438 C   0  0  0  0  0  0  0  0  0  0  0  0
    7.1357   19.1989   20.3561 C   0  0  0  0  0  0  0  0  0  0  0  0
    8.4444   19.3238   20.8223 C   0  0  0  0  0  0  0  0  0  0  0  0
    8.6919   19.8752   22.0864 C   0  0  0  0  0  0  0  0  0  0  0  0
    4.4117   19.4694   20.5477 S   0  0  0  0  0  0  0  0  0  0  0  0
    3.5055   19.2312   21.6469 O   0  0  0  0  0  0  0  0  0  0  0  0
    4.4050   18.1825   19.5281 N   0  0  0  0  0  0  0  0  0  0  0  0
    4.0188   20.6661   19.8543 O   0  0  0  0  0  0  0  0  0  0  0  0
    4.6858   17.3442   20.0369 H   0  0  0  0  0  0  0  0  0  0  0  0
    5.0586   18.3510   18.7634 H   0  0  0  0  0  0  0  0  0  0  0  0
    6.4402   26.3017   25.1850 C   0  0  0  0  0  0  0  0  0  0  0  0
    6.1597   27.3926   25.3901 N   0  0  0  0  0  0  0  0  0  0  0  0
 13 14  1  0  0  0
 14  7  1  0  0  0
  7  8  2  0  0  0
  7 12  1  0  0  0
  8  9  1  0  0  0
  9 10  1  0  0  0
  9 11  2  0  0  0
 11  1  1  0  0  0
 11 12  1  0  0  0
  1  2  1  0  0  0
  1  6  2  0  0  0
  2  3  2  0  0  0
  3 16  1  0  0  0
  3  4  1  0  0  0
 16 18  1  0  0  0
 18 19  1  0  0  0
 18 23  2  0  0  0
 19 20  2  0  0  0
 20 24  1  0  0  0
 20 21  1  0  0  0
 24 25  2  0  0  0
 24 26  1  0  0  0
 24 27  2  0  0  0
 21 22  2  0  0  0
 22 23  1  0  0  0
  4  5  2  0  0  0
  5  6  1  0  0  0
  6 30  1  0  0  0
 30 31  3  0  0  0
 14 15  1  0  0  0
 16 17  1  0  0  0
 26 28  1  0  0  0
 26 29  1  0  0  0
M  END
> <minimizedAffinity>
-7.00218

$$$$
4BCK_T3E_A_1298


 31 33  0  0  0  0  0  0  0  0999 V2000
    5.5569   20.3785   22.3217 C   0  0  0  0  0  0  0  0  0  0  0  0
    4.4522   20.7145   23.0421 N   0  0  0  0  0  0  0  0  0  0  0  0
    3.1871   20.4490   22.5836 C   0  0  0  0  0  0  0  0  0  0  0  0
    3.0254   19.8564   21.3680 N   0  0  0  0  0  0  0  0  0  0  0  0
    4.1164   19.5162   20.6339 C   0  0  0  0  0  0  0  0  0  0  0  0
    5.3883   19.7653   21.0998 C   0  0  0  0  0  0  0  0  0  0  0  0
    8.9265   21.9334   23.7230 C   0  0  0  0  0  0  0  0  0  0  0  0
    9.0343   20.5748   24.0263 N   0  0  0  0  0  0  0  0  0  0  0  0
    7.8436   19.8155   23.5722 C   0  0  0  0  0  0  0  0  0  0  0  0
    7.6919   18.3519   23.7657 C   0  0  0  0  0  0  0  0  0  0  0  0
    6.9024   20.6989   22.9494 C   0  0  0  0  0  0  0  0  0  0  0  0
    7.5064   22.1876   22.9654 S   0  0  0  0  0  0  0  0  0  0  0  0
    9.7732   23.7502   25.2185 C   0  0  0  0  0  0  0  0  0  0  0  0
    9.9096   22.9443   24.0255 N   0  0  0  0  0  0  0  0  0  0  0  0
   10.6730   23.0857   23.4202 H   0  0  0  0  0  0  0  0  0  0  0  0
    2.0379   20.8360   23.3881 N   0  0  0  0  0  0  0  0  0  0  0  0
    1.5338   20.1528   23.8865 H   0  0  0  0  0  0  0  0  0  0  0  0
    1.6327   22.2340   23.4565 C   0  0  0  0  0  0  0  0  0  0  0  0
    2.5811   23.2372   23.6777 C   0  0  0  0  0  0  0  0  0  0  0  0
    2.1893   24.5847   23.7335 C   0  0  0  0  0  0  0  0  0  0  0  0
    0.8585   24.9259   23.5553 C   0  0  0  0  0  0  0  0  0  0  0  0
   -0.0892   23.9292   23.3228 C   0  0  0  0  0  0  0  0  0  0  0  0
    0.3009   22.5844   23.2736 C   0  0  0  0  0  0  0  0  0  0  0  0
    3.3971   25.8555   24.0257 S   0  0  0  0  0  0  0  0  0  0  0  0
    4.5077   25.3281   24.7839 O   0  0  0  0  0  0  0  0  0  0  0  0
    2.6354   27.0257   24.8897 N   0  0  0  0  0  0  0  0  0  0  0  0
    3.8770   26.3807   22.7763 O   0  0  0  0  0  0  0  0  0  0  0  0
    2.3025   26.6352   25.7712 H   0  0  0  0  0  0  0  0  0  0  0  0
    1.8434   27.3820   24.3549 H   0  0  0  0  0  0  0  0  0  0  0  0
    6.5492   19.3626   20.2427 C   0  0  0  0  0  0  0  0  0  0  0  0
    7.4468   19.0682   19.5958 N   0  0  0  0  0  0  0  0  0  0  0  0
 13 14  1  0  0  0
 14  7  1  0  0  0
  7  8  2  0  0  0
  7 12  1  0  0  0
  8  9  1  0  0  0
  9 10  1  0  0  0
  9 11  2  0  0  0
 11  1  1  0  0  0
 11 12  1  0  0  0
  1  2  1  0  0  0
  1  6  2  0  0  0
  2  3  2  0  0  0
  3 16  1  0  0  0
  3  4  1  0  0  0
 16 18  1  0  0  0
 18 19  1  0  0  0
 18 23  2  0  0  0
 19 20  2  0  0  0
 20 24  1  0  0  0
 20 21  1  0  0  0
 24 25  2  0  0  0
 24 26  1  0  0  0
 24 27  2  0  0  0
 21 22  2  0  0  0
 22 23  1  0  0  0
  4  5  2  0  0  0
  5  6  1  0  0  0
  6 30  1  0  0  0
 30 31  3  0  0  0
 14 15  1  0  0  0
 16 17  1  0  0  0
 26 28  1  0  0  0
 26 29  1  0  0  0
M  END
> <minimizedAffinity>
-7.00174

$$$$
