4G8M_G8M_A_301


 16 16  0  0  0  0  0  0  0  0999 V2000
    8.2906   25.7000   18.9953 C   0  0  0  0  0  0  0  0  0  0  0  0
    9.7665   25.6038   19.0132 N   0  0  0  0  0  0  0  0  0  0  0  0
   10.1617   26.3262   18.4112 H   0  0  0  0  0  0  0  0  0  0  0  0
   10.0515   24.6851   18.6739 H   0  0  0  0  0  0  0  0  0  0  0  0
    6.4284   27.0543   20.3617 C   0  0  0  0  0  0  0  0  0  0  0  0
    7.7710   27.0404   19.5866 C   0  0  0  0  0  0  0  0  0  0  0  0
    8.4458   27.6704   20.8220 C   0  0  0  0  0  0  0  0  0  0  0  0
    7.0560   28.0540   21.3585 C   0  0  0  0  0  0  0  0  0  0  0  0
    6.0880   25.6982   21.0169 C   0  0  0  0  0  0  0  0  0  0  0  0
    6.2652   25.5657   22.2487 O   0  0  0  0  0  0  0  0  0  0  0  0
    5.6316   24.7641   20.3202 O   0  0  0  0  0  0  0  0  0  0  0  0
    5.5066   24.8842   19.3994 H   0  0  0  0  0  0  0  0  0  0  0  0
    7.7993   25.4793   17.5466 C   0  0  0  0  0  0  0  0  0  0  0  0
    8.5962   25.5944   16.5995 O   0  0  0  0  0  0  0  0  0  0  0  0
    6.6043   25.1873   17.3433 O   0  0  0  0  0  0  0  0  0  0  0  0
    9.4920   25.8142   16.7649 H   0  0  0  0  0  0  0  0  0  0  0  0
 15 13  2  0  0  0
 14 13  1  0  0  0
 13  1  1  0  0  0
  1  2  1  0  0  0
  1  6  1  0  0  0
  6  5  1  0  0  0
  6  7  1  0  0  0
  5  9  1  0  0  0
  5  8  1  0  0  0
 10  9  2  0  0  0
  7  8  1  0  0  0
  9 11  1  0  0  0
 11 12  1  0  0  0
 14 16  1  0  0  0
  2  3  1  0  0  0
  2  4  1  0  0  0
M  END
> <minimizedAffinity>
-8.26841

$$$$
4G8M_G8M_A_301


 16 16  0  0  0  0  0  0  0  0999 V2000
    7.2162   26.8950   22.4717 C   0  0  0  0  0  0  0  0  0  0  0  0
    6.7271   25.9467   23.4962 N   0  0  0  0  0  0  0  0  0  0  0  0
    5.7758   26.1978   23.7654 H   0  0  0  0  0  0  0  0  0  0  0  0
    7.3341   25.9876   24.3148 H   0  0  0  0  0  0  0  0  0  0  0  0
    7.1098   27.1059   19.8047 C   0  0  0  0  0  0  0  0  0  0  0  0
    6.3967   26.8262   21.1527 C   0  0  0  0  0  0  0  0  0  0  0  0
    5.9350   25.4698   20.5821 C   0  0  0  0  0  0  0  0  0  0  0  0
    6.2723   25.9742   19.1686 C   0  0  0  0  0  0  0  0  0  0  0  0
    8.6191   26.7821   19.8342 C   0  0  0  0  0  0  0  0  0  0  0  0
    9.3872   27.5577   20.4465 O   0  0  0  0  0  0  0  0  0  0  0  0
    9.0495   25.7539   19.2652 O   0  0  0  0  0  0  0  0  0  0  0  0
    8.4573   25.1865   18.8122 H   0  0  0  0  0  0  0  0  0  0  0  0
    7.2177   28.3173   23.0767 C   0  0  0  0  0  0  0  0  0  0  0  0
    7.5977   29.2809   22.3894 O   0  0  0  0  0  0  0  0  0  0  0  0
    6.8362   28.4828   24.2522 O   0  0  0  0  0  0  0  0  0  0  0  0
    7.8821   29.1439   21.5072 H   0  0  0  0  0  0  0  0  0  0  0  0
 15 13  2  0  0  0
 14 13  1  0  0  0
 13  1  1  0  0  0
  1  2  1  0  0  0
  1  6  1  0  0  0
  6  5  1  0  0  0
  6  7  1  0  0  0
  5  9  1  0  0  0
  5  8  1  0  0  0
 10  9  2  0  0  0
  7  8  1  0  0  0
  9 11  1  0  0  0
 11 12  1  0  0  0
 14 16  1  0  0  0
  2  3  1  0  0  0
  2  4  1  0  0  0
M  END
> <minimizedAffinity>
-6.87556

$$$$
4G8M_G8M_A_301


 16 16  0  0  0  0  0  0  0  0999 V2000
    5.4016   26.4158   21.0776 C   0  0  0  0  0  0  0  0  0  0  0  0
    3.9572   26.1020   21.0210 N   0  0  0  0  0  0  0  0  0  0  0  0
    3.8007   25.1564   21.3697 H   0  0  0  0  0  0  0  0  0  0  0  0
    3.6329   26.1665   20.0561 H   0  0  0  0  0  0  0  0  0  0  0  0
    7.2857   27.1677   22.8251 C   0  0  0  0  0  0  0  0  0  0  0  0
    5.9545   26.4295   22.5303 C   0  0  0  0  0  0  0  0  0  0  0  0
    5.2823   27.2883   23.6208 C   0  0  0  0  0  0  0  0  0  0  0  0
    6.6756   27.6602   24.1563 C   0  0  0  0  0  0  0  0  0  0  0  0
    7.5738   28.3225   21.8416 C   0  0  0  0  0  0  0  0  0  0  0  0
    8.3167   28.1021   20.8587 O   0  0  0  0  0  0  0  0  0  0  0  0
    7.0566   29.4467   22.0282 O   0  0  0  0  0  0  0  0  0  0  0  0
    6.5034   29.5905   22.7706 H   0  0  0  0  0  0  0  0  0  0  0  0
    6.1602   25.4111   20.1809 C   0  0  0  0  0  0  0  0  0  0  0  0
    6.4473   24.2844   20.6208 O   0  0  0  0  0  0  0  0  0  0  0  0
    6.4771   25.7434   19.0216 O   0  0  0  0  0  0  0  0  0  0  0  0
    6.2038   24.0462   21.4937 H   0  0  0  0  0  0  0  0  0  0  0  0
 15 13  2  0  0  0
 14 13  1  0  0  0
 13  1  1  0  0  0
  1  2  1  0  0  0
  1  6  1  0  0  0
  6  5  1  0  0  0
  6  7  1  0  0  0
  5  9  1  0  0  0
  5  8  1  0  0  0
 10  9  2  0  0  0
  7  8  1  0  0  0
  9 11  1  0  0  0
 11 12  1  0  0  0
 14 16  1  0  0  0
  2  3  1  0  0  0
  2  4  1  0  0  0
M  END
> <minimizedAffinity>
-6.78014

$$$$
4G8M_G8M_A_301


 16 16  0  0  0  0  0  0  0  0999 V2000
    5.4675   27.5390   23.1201 C   0  0  0  0  0  0  0  0  0  0  0  0
    5.3740   28.8172   23.8587 N   0  0  0  0  0  0  0  0  0  0  0  0
    6.0201   28.8019   24.6479 H   0  0  0  0  0  0  0  0  0  0  0  0
    4.4216   28.9430   24.2014 H   0  0  0  0  0  0  0  0  0  0  0  0
    7.0091   26.3388   21.2893 C   0  0  0  0  0  0  0  0  0  0  0  0
    6.8685   27.3159   22.4848 C   0  0  0  0  0  0  0  0  0  0  0  0
    7.5229   28.4100   21.6169 C   0  0  0  0  0  0  0  0  0  0  0  0
    8.0217   27.3181   20.6550 C   0  0  0  0  0  0  0  0  0  0  0  0
    5.7154   26.2020   20.4577 C   0  0  0  0  0  0  0  0  0  0  0  0
    5.4762   27.0568   19.5754 O   0  0  0  0  0  0  0  0  0  0  0  0
    4.9383   25.2427   20.6630 O   0  0  0  0  0  0  0  0  0  0  0  0
    5.1362   24.6136   21.3287 H   0  0  0  0  0  0  0  0  0  0  0  0
    5.0768   26.3880   24.0747 C   0  0  0  0  0  0  0  0  0  0  0  0
    3.9811   26.4163   24.6612 O   0  0  0  0  0  0  0  0  0  0  0  0
    5.8683   25.4400   24.2466 O   0  0  0  0  0  0  0  0  0  0  0  0
    3.3946   27.1341   24.5240 H   0  0  0  0  0  0  0  0  0  0  0  0
 15 13  2  0  0  0
 14 13  1  0  0  0
 13  1  1  0  0  0
  1  2  1  0  0  0
  1  6  1  0  0  0
  6  5  1  0  0  0
  6  7  1  0  0  0
  5  9  1  0  0  0
  5  8  1  0  0  0
 10  9  2  0  0  0
  7  8  1  0  0  0
  9 11  1  0  0  0
 11 12  1  0  0  0
 14 16  1  0  0  0
  2  3  1  0  0  0
  2  4  1  0  0  0
M  END
> <minimizedAffinity>
-6.77966

$$$$
4G8M_G8M_A_301


 16 16  0  0  0  0  0  0  0  0999 V2000
    7.5998   26.4159   20.6824 C   0  0  0  0  0  0  0  0  0  0  0  0
    8.7104   26.7841   19.7775 N   0  0  0  0  0  0  0  0  0  0  0  0
    8.3365   27.2605   18.9567 H   0  0  0  0  0  0  0  0  0  0  0  0
    9.2048   25.9411   19.4854 H   0  0  0  0  0  0  0  0  0  0  0  0
    6.1832   27.5642   22.6429 C   0  0  0  0  0  0  0  0  0  0  0  0
    6.8516   27.6560   21.2470 C   0  0  0  0  0  0  0  0  0  0  0  0
    7.6338   28.8880   21.7458 C   0  0  0  0  0  0  0  0  0  0  0  0
    6.6480   29.0113   22.9202 C   0  0  0  0  0  0  0  0  0  0  0  0
    6.8577   26.5355   23.5760 C   0  0  0  0  0  0  0  0  0  0  0  0
    7.8480   26.8964   24.2507 O   0  0  0  0  0  0  0  0  0  0  0  0
    6.4036   25.3720   23.6564 O   0  0  0  0  0  0  0  0  0  0  0  0
    5.6611   25.1223   23.1423 H   0  0  0  0  0  0  0  0  0  0  0  0
    6.6465   25.4600   19.9299 C   0  0  0  0  0  0  0  0  0  0  0  0
    6.5904   25.4939   18.6885 O   0  0  0  0  0  0  0  0  0  0  0  0
    5.9415   24.6623   20.5791 O   0  0  0  0  0  0  0  0  0  0  0  0
    7.1251   26.0977   18.2116 H   0  0  0  0  0  0  0  0  0  0  0  0
 15 13  2  0  0  0
 14 13  1  0  0  0
 13  1  1  0  0  0
  1  2  1  0  0  0
  1  6  1  0  0  0
  6  5  1  0  0  0
  6  7  1  0  0  0
  5  9  1  0  0  0
  5  8  1  0  0  0
 10  9  2  0  0  0
  7  8  1  0  0  0
  9 11  1  0  0  0
 11 12  1  0  0  0
 14 16  1  0  0  0
  2  3  1  0  0  0
  2  4  1  0  0  0
M  END
> <minimizedAffinity>
-6.69881

$$$$
4G8M_G8M_A_301


 16 16  0  0  0  0  0  0  0  0999 V2000
    7.0843   26.2425   18.8383 C   0  0  0  0  0  0  0  0  0  0  0  0
    6.0999   26.0417   17.7526 N   0  0  0  0  0  0  0  0  0  0  0  0
    5.9185   25.0445   17.6383 H   0  0  0  0  0  0  0  0  0  0  0  0
    6.4716   26.4217   16.8821 H   0  0  0  0  0  0  0  0  0  0  0  0
    7.1128   26.4309   21.5090 C   0  0  0  0  0  0  0  0  0  0  0  0
    6.5539   25.7721   20.2216 C   0  0  0  0  0  0  0  0  0  0  0  0
    5.1344   26.1506   20.6911 C   0  0  0  0  0  0  0  0  0  0  0  0
    5.6889   26.3858   22.1066 C   0  0  0  0  0  0  0  0  0  0  0  0
    7.6173   27.8731   21.2866 C   0  0  0  0  0  0  0  0  0  0  0  0
    6.8856   28.8256   21.6383 O   0  0  0  0  0  0  0  0  0  0  0  0
    8.7433   28.0703   20.7772 O   0  0  0  0  0  0  0  0  0  0  0  0
    9.2754   27.3430   20.5208 H   0  0  0  0  0  0  0  0  0  0  0  0
    8.3987   25.5278   18.4507 C   0  0  0  0  0  0  0  0  0  0  0  0
    9.4147   25.6802   19.1506 O   0  0  0  0  0  0  0  0  0  0  0  0
    8.4254   24.8034   17.4362 O   0  0  0  0  0  0  0  0  0  0  0  0
    9.3823   26.2271   19.9107 H   0  0  0  0  0  0  0  0  0  0  0  0
 15 13  2  0  0  0
 14 13  1  0  0  0
 13  1  1  0  0  0
  1  2  1  0  0  0
  1  6  1  0  0  0
  6  5  1  0  0  0
  6  7  1  0  0  0
  5  9  1  0  0  0
  5  8  1  0  0  0
 10  9  2  0  0  0
  7  8  1  0  0  0
  9 11  1  0  0  0
 11 12  1  0  0  0
 14 16  1  0  0  0
  2  3  1  0  0  0
  2  4  1  0  0  0
M  END
> <minimizedAffinity>
-6.68823

$$$$
4G8M_G8M_A_301


 16 16  0  0  0  0  0  0  0  0999 V2000
    6.4863   25.8001   19.5143 C   0  0  0  0  0  0  0  0  0  0  0  0
    6.5046   24.7055   20.5091 N   0  0  0  0  0  0  0  0  0  0  0  0
    7.4601   24.5573   20.8339 H   0  0  0  0  0  0  0  0  0  0  0  0
    6.1551   23.8493   20.0790 H   0  0  0  0  0  0  0  0  0  0  0  0
    6.2710   27.6444   21.4433 C   0  0  0  0  0  0  0  0  0  0  0  0
    6.9187   27.1654   20.1186 C   0  0  0  0  0  0  0  0  0  0  0  0
    8.3018   27.3310   20.7806 C   0  0  0  0  0  0  0  0  0  0  0  0
    7.6497   28.1897   21.8778 C   0  0  0  0  0  0  0  0  0  0  0  0
    5.7831   26.4846   22.3382 C   0  0  0  0  0  0  0  0  0  0  0  0
    4.5944   26.1066   22.2352 O   0  0  0  0  0  0  0  0  0  0  0  0
    6.5751   25.9338   23.1354 O   0  0  0  0  0  0  0  0  0  0  0  0
    7.4611   26.2324   23.1969 H   0  0  0  0  0  0  0  0  0  0  0  0
    7.3733   25.3925   18.3160 C   0  0  0  0  0  0  0  0  0  0  0  0
    8.5446   25.0246   18.5109 O   0  0  0  0  0  0  0  0  0  0  0  0
    6.9021   25.4376   17.1624 O   0  0  0  0  0  0  0  0  0  0  0  0
    8.8874   24.9949   19.3824 H   0  0  0  0  0  0  0  0  0  0  0  0
 15 13  2  0  0  0
 14 13  1  0  0  0
 13  1  1  0  0  0
  1  2  1  0  0  0
  1  6  1  0  0  0
  6  5  1  0  0  0
  6  7  1  0  0  0
  5  9  1  0  0  0
  5  8  1  0  0  0
 10  9  2  0  0  0
  7  8  1  0  0  0
  9 11  1  0  0  0
 11 12  1  0  0  0
 14 16  1  0  0  0
  2  3  1  0  0  0
  2  4  1  0  0  0
M  END
> <minimizedAffinity>
-6.65943

$$$$
4G8M_G8M_A_301


 16 16  0  0  0  0  0  0  0  0999 V2000
    6.3179   26.7163   23.2281 C   0  0  0  0  0  0  0  0  0  0  0  0
    6.4178   25.4166   23.9272 N   0  0  0  0  0  0  0  0  0  0  0  0
    5.5003   24.9715   23.9502 H   0  0  0  0  0  0  0  0  0  0  0  0
    6.7464   25.5679   24.8809 H   0  0  0  0  0  0  0  0  0  0  0  0
    6.4914   27.5492   20.6893 C   0  0  0  0  0  0  0  0  0  0  0  0
    5.9108   26.5634   21.7357 C   0  0  0  0  0  0  0  0  0  0  0  0
    6.4586   25.3993   20.8852 C   0  0  0  0  0  0  0  0  0  0  0  0
    6.6188   26.3684   19.7013 C   0  0  0  0  0  0  0  0  0  0  0  0
    7.8618   28.1330   21.0957 C   0  0  0  0  0  0  0  0  0  0  0  0
    8.9000   27.5382   20.7287 O   0  0  0  0  0  0  0  0  0  0  0  0
    7.9181   29.1881   21.7664 O   0  0  0  0  0  0  0  0  0  0  0  0
    7.1286   29.6177   22.0311 H   0  0  0  0  0  0  0  0  0  0  0  0
    5.3338   27.6200   24.0050 C   0  0  0  0  0  0  0  0  0  0  0  0
    5.4274   28.8564   23.9151 O   0  0  0  0  0  0  0  0  0  0  0  0
    4.4535   27.0967   24.7163 O   0  0  0  0  0  0  0  0  0  0  0  0
    6.0931   29.2379   23.3774 H   0  0  0  0  0  0  0  0  0  0  0  0
 15 13  2  0  0  0
 14 13  1  0  0  0
 13  1  1  0  0  0
  1  2  1  0  0  0
  1  6  1  0  0  0
  6  5  1  0  0  0
  6  7  1  0  0  0
  5  9  1  0  0  0
  5  8  1  0  0  0
 10  9  2  0  0  0
  7  8  1  0  0  0
  9 11  1  0  0  0
 11 12  1  0  0  0
 14 16  1  0  0  0
  2  3  1  0  0  0
  2  4  1  0  0  0
M  END
> <minimizedAffinity>
-6.65769

$$$$
4G8M_G8M_A_301


 16 16  0  0  0  0  0  0  0  0999 V2000
    6.3138   27.5709   22.6049 C   0  0  0  0  0  0  0  0  0  0  0  0
    6.9513   28.7974   23.1312 N   0  0  0  0  0  0  0  0  0  0  0  0
    7.7372   28.5423   23.7294 H   0  0  0  0  0  0  0  0  0  0  0  0
    6.2701   29.3291   23.6731 H   0  0  0  0  0  0  0  0  0  0  0  0
    6.6528   25.7591   20.6628 C   0  0  0  0  0  0  0  0  0  0  0  0
    7.2629   26.7491   21.6883 C   0  0  0  0  0  0  0  0  0  0  0  0
    8.0172   27.4267   20.5262 C   0  0  0  0  0  0  0  0  0  0  0  0
    7.7410   26.1899   19.6544 C   0  0  0  0  0  0  0  0  0  0  0  0
    5.2314   26.1527   20.2059 C   0  0  0  0  0  0  0  0  0  0  0  0
    4.2507   25.6036   20.7563 O   0  0  0  0  0  0  0  0  0  0  0  0
    5.0782   27.0153   19.3123 O   0  0  0  0  0  0  0  0  0  0  0  0
    5.8261   27.4143   18.9130 H   0  0  0  0  0  0  0  0  0  0  0  0
    5.7951   26.7343   23.7965 C   0  0  0  0  0  0  0  0  0  0  0  0
    6.3057   25.6282   24.0440 O   0  0  0  0  0  0  0  0  0  0  0  0
    4.8663   27.1799   24.4990 O   0  0  0  0  0  0  0  0  0  0  0  0
    7.0032   25.3040   23.5088 H   0  0  0  0  0  0  0  0  0  0  0  0
 15 13  2  0  0  0
 14 13  1  0  0  0
 13  1  1  0  0  0
  1  2  1  0  0  0
  1  6  1  0  0  0
  6  5  1  0  0  0
  6  7  1  0  0  0
  5  9  1  0  0  0
  5  8  1  0  0  0
 10  9  2  0  0  0
  7  8  1  0  0  0
  9 11  1  0  0  0
 11 12  1  0  0  0
 14 16  1  0  0  0
  2  3  1  0  0  0
  2  4  1  0  0  0
M  END
> <minimizedAffinity>
-6.36840

$$$$
4G8M_G8M_A_301


 16 16  0  0  0  0  0  0  0  0999 V2000
    7.8166   27.7387   21.8656 C   0  0  0  0  0  0  0  0  0  0  0  0
    7.1573   29.0589   21.7637 N   0  0  0  0  0  0  0  0  0  0  0  0
    6.3767   28.9996   21.1098 H   0  0  0  0  0  0  0  0  0  0  0  0
    7.8292   29.7496   21.4292 H   0  0  0  0  0  0  0  0  0  0  0  0
    6.4439   26.7513   23.9415 C   0  0  0  0  0  0  0  0  0  0  0  0
    6.8819   26.6471   22.4579 C   0  0  0  0  0  0  0  0  0  0  0  0
    5.3922   26.5870   22.0632 C   0  0  0  0  0  0  0  0  0  0  0  0
    5.0408   26.2576   23.5241 C   0  0  0  0  0  0  0  0  0  0  0  0
    6.4289   28.2008   24.4729 C   0  0  0  0  0  0  0  0  0  0  0  0
    7.4774   28.6678   24.9719 O   0  0  0  0  0  0  0  0  0  0  0  0
    5.3863   28.8878   24.3868 O   0  0  0  0  0  0  0  0  0  0  0  0
    4.6120   28.5189   24.0097 H   0  0  0  0  0  0  0  0  0  0  0  0
    8.3514   27.3453   20.4699 C   0  0  0  0  0  0  0  0  0  0  0  0
    9.5764   27.3295   20.2592 O   0  0  0  0  0  0  0  0  0  0  0  0
    7.5447   27.0471   19.5670 O   0  0  0  0  0  0  0  0  0  0  0  0
   10.1728   27.5556   20.9457 H   0  0  0  0  0  0  0  0  0  0  0  0
 15 13  2  0  0  0
 14 13  1  0  0  0
 13  1  1  0  0  0
  1  2  1  0  0  0
  1  6  1  0  0  0
  6  5  1  0  0  0
  6  7  1  0  0  0
  5  9  1  0  0  0
  5  8  1  0  0  0
 10  9  2  0  0  0
  7  8  1  0  0  0
  9 11  1  0  0  0
 11 12  1  0  0  0
 14 16  1  0  0  0
  2  3  1  0  0  0
  2  4  1  0  0  0
M  END
> <minimizedAffinity>
-6.25895

$$$$
