1H46_RNP_X_1433


 20 21  0  0  0  0  0  0  0  0999 V2000
    4.1410    8.3453   22.8367 C   0  0  0  0  0  0  0  0  0  0  0  0
    4.0314    7.8235   21.5578 C   0  0  0  0  0  0  0  0  0  0  0  0
    3.1484    8.4037   20.6338 C   0  0  0  0  0  0  0  0  0  0  0  0
    2.3621    9.5198   20.9506 C   0  0  0  0  0  0  0  0  0  0  0  0
    1.6862   11.2202   22.5916 C   0  0  0  0  0  0  0  0  0  0  0  0
    1.8270   11.7357   23.8812 C   0  0  0  0  0  0  0  0  0  0  0  0
    2.6879   11.1763   24.8234 C   0  0  0  0  0  0  0  0  0  0  0  0
    3.4572   10.0657   24.4924 C   0  0  0  0  0  0  0  0  0  0  0  0
    3.3458    9.5324   23.2184 C   0  0  0  0  0  0  0  0  0  0  0  0
    2.4270   10.1060   22.2123 C   0  0  0  0  0  0  0  0  0  0  0  0
    4.9797    7.8328   23.7881 O   0  0  0  0  0  0  0  0  0  0  0  0
    5.5746    6.5292   23.5754 C   0  0  0  0  0  0  0  0  0  0  0  0
    6.7898    6.2964   24.4458 C   0  0  0  0  0  0  0  0  0  0  0  0
    7.9574    6.1764   23.6279 O   0  0  0  0  0  0  0  0  0  0  0  0
    7.8525    5.4256   23.0228 H   0  0  0  0  0  0  0  0  0  0  0  0
    6.6185    5.0151   25.2179 C   0  0  0  0  0  0  0  0  0  0  0  0
    5.9804    5.0998   26.3893 N   0  0  0  0  0  0  0  0  0  0  0  0
    6.0066    6.2909   27.2350 C   0  0  0  0  0  0  0  0  0  0  0  0
    4.6214    6.9342   27.2218 C   0  0  0  0  0  0  0  0  0  0  0  0
    6.3615    5.9092   28.6697 C   0  0  0  0  0  0  0  0  0  0  0  0
  1  2  2  0  0  0
  1  9  1  0  0  0
  1 11  1  0  0  0
  2  3  1  0  0  0
  3  4  2  0  0  0
  4 10  1  0  0  0
  5  6  2  0  0  0
  5 10  1  0  0  0
  6  7  1  0  0  0
  7  8  2  0  0  0
  8  9  1  0  0  0
  9 10  2  0  0  0
 11 12  1  0  0  0
 12 13  1  0  0  0
 13 14  1  0  0  0
 13 16  1  0  0  0
 16 17  2  0  0  0
 17 18  1  0  0  0
 18 19  1  0  0  0
 18 20  1  0  0  0
 14 15  1  0  0  0
M  END
> <minimizedAffinity>
-8.54280

$$$$
1H46_RNP_X_1433


 20 21  0  0  0  0  0  0  0  0999 V2000
    7.0715    4.1072   28.4385 C   0  0  0  0  0  0  0  0  0  0  0  0
    6.9043    5.0247   29.4633 C   0  0  0  0  0  0  0  0  0  0  0  0
    6.6186    4.5829   30.7645 C   0  0  0  0  0  0  0  0  0  0  0  0
    6.5027    3.2230   31.0836 C   0  0  0  0  0  0  0  0  0  0  0  0
    6.5806    0.8768   30.3555 C   0  0  0  0  0  0  0  0  0  0  0  0
    6.7688   -0.0271   29.3085 C   0  0  0  0  0  0  0  0  0  0  0  0
    7.0442    0.3810   28.0049 C   0  0  0  0  0  0  0  0  0  0  0  0
    7.1510    1.7353   27.7060 C   0  0  0  0  0  0  0  0  0  0  0  0
    6.9756    2.6591   28.7236 C   0  0  0  0  0  0  0  0  0  0  0  0
    6.6693    2.2425   30.1086 C   0  0  0  0  0  0  0  0  0  0  0  0
    7.3517    4.4645   27.1481 O   0  0  0  0  0  0  0  0  0  0  0  0
    6.4514    5.3620   26.4536 C   0  0  0  0  0  0  0  0  0  0  0  0
    6.3152    5.0261   24.9849 C   0  0  0  0  0  0  0  0  0  0  0  0
    6.9527    3.7749   24.7115 O   0  0  0  0  0  0  0  0  0  0  0  0
    7.8943    3.8357   24.9366 H   0  0  0  0  0  0  0  0  0  0  0  0
    6.9883    6.0909   24.1601 C   0  0  0  0  0  0  0  0  0  0  0  0
    6.2702    7.1854   23.8896 N   0  0  0  0  0  0  0  0  0  0  0  0
    4.8149    7.1807   23.7601 C   0  0  0  0  0  0  0  0  0  0  0  0
    4.2285    8.1707   24.7645 C   0  0  0  0  0  0  0  0  0  0  0  0
    4.4111    7.6071   22.3512 C   0  0  0  0  0  0  0  0  0  0  0  0
  1  2  2  0  0  0
  1  9  1  0  0  0
  1 11  1  0  0  0
  2  3  1  0  0  0
  3  4  2  0  0  0
  4 10  1  0  0  0
  5  6  2  0  0  0
  5 10  1  0  0  0
  6  7  1  0  0  0
  7  8  2  0  0  0
  8  9  1  0  0  0
  9 10  2  0  0  0
 11 12  1  0  0  0
 12 13  1  0  0  0
 13 14  1  0  0  0
 13 16  1  0  0  0
 16 17  2  0  0  0
 17 18  1  0  0  0
 18 19  1  0  0  0
 18 20  1  0  0  0
 14 15  1  0  0  0
M  END
> <minimizedAffinity>
-8.48908

$$$$
1H46_RNP_X_1433


 20 21  0  0  0  0  0  0  0  0999 V2000
    4.5148    8.2328   24.0294 C   0  0  0  0  0  0  0  0  0  0  0  0
    4.3006    8.9374   25.2032 C   0  0  0  0  0  0  0  0  0  0  0  0
    3.4091   10.0213   25.2212 C   0  0  0  0  0  0  0  0  0  0  0  0
    2.7011   10.4259   24.0812 C   0  0  0  0  0  0  0  0  0  0  0  0
    2.1778   10.0969   21.7024 C   0  0  0  0  0  0  0  0  0  0  0  0
    2.4000    9.3610   20.5372 C   0  0  0  0  0  0  0  0  0  0  0  0
    3.2853    8.2862   20.4856 C   0  0  0  0  0  0  0  0  0  0  0  0
    3.9829    7.9019   21.6260 C   0  0  0  0  0  0  0  0  0  0  0  0
    3.7812    8.6077   22.8012 C   0  0  0  0  0  0  0  0  0  0  0  0
    2.8558    9.7587   22.8685 C   0  0  0  0  0  0  0  0  0  0  0  0
    5.3673    7.1670   23.9376 O   0  0  0  0  0  0  0  0  0  0  0  0
    5.9378    6.6139   25.1488 C   0  0  0  0  0  0  0  0  0  0  0  0
    7.1414    5.7388   24.8768 C   0  0  0  0  0  0  0  0  0  0  0  0
    7.7773    6.1508   23.6632 O   0  0  0  0  0  0  0  0  0  0  0  0
    7.1521    6.0678   22.9263 H   0  0  0  0  0  0  0  0  0  0  0  0
    6.6987    4.3085   24.7176 C   0  0  0  0  0  0  0  0  0  0  0  0
    6.6582    3.5646   25.8275 N   0  0  0  0  0  0  0  0  0  0  0  0
    7.5427    3.7774   26.9708 C   0  0  0  0  0  0  0  0  0  0  0  0
    6.7580    4.4822   28.0754 C   0  0  0  0  0  0  0  0  0  0  0  0
    8.0486    2.4381   27.5002 C   0  0  0  0  0  0  0  0  0  0  0  0
  1  2  2  0  0  0
  1  9  1  0  0  0
  1 11  1  0  0  0
  2  3  1  0  0  0
  3  4  2  0  0  0
  4 10  1  0  0  0
  5  6  2  0  0  0
  5 10  1  0  0  0
  6  7  1  0  0  0
  7  8  2  0  0  0
  8  9  1  0  0  0
  9 10  2  0  0  0
 11 12  1  0  0  0
 12 13  1  0  0  0
 13 14  1  0  0  0
 13 16  1  0  0  0
 16 17  2  0  0  0
 17 18  1  0  0  0
 18 19  1  0  0  0
 18 20  1  0  0  0
 14 15  1  0  0  0
M  END
> <minimizedAffinity>
-8.28185

$$$$
1H46_RNP_X_1433


 20 21  0  0  0  0  0  0  0  0999 V2000
    4.0796    8.6125   24.3267 C   0  0  0  0  0  0  0  0  0  0  0  0
    3.8935    8.7239   22.9581 C   0  0  0  0  0  0  0  0  0  0  0  0
    3.1303    9.7790   22.4347 C   0  0  0  0  0  0  0  0  0  0  0  0
    2.5430   10.7542   23.2525 C   0  0  0  0  0  0  0  0  0  0  0  0
    2.1529   11.6535   25.5063 C   0  0  0  0  0  0  0  0  0  0  0  0
    2.3685   11.5271   26.8797 C   0  0  0  0  0  0  0  0  0  0  0  0
    3.1134   10.4859   27.4299 C   0  0  0  0  0  0  0  0  0  0  0  0
    3.6849    9.5245   26.6029 C   0  0  0  0  0  0  0  0  0  0  0  0
    3.4952    9.6237   25.2340 C   0  0  0  0  0  0  0  0  0  0  0  0
    2.6961   10.7145   24.6362 C   0  0  0  0  0  0  0  0  0  0  0  0
    4.8105    7.6123   24.9069 O   0  0  0  0  0  0  0  0  0  0  0  0
    5.4162    6.6017   24.0642 C   0  0  0  0  0  0  0  0  0  0  0  0
    6.7470    6.1208   24.5992 C   0  0  0  0  0  0  0  0  0  0  0  0
    7.7432    6.2114   23.5763 O   0  0  0  0  0  0  0  0  0  0  0  0
    7.4851    5.6567   22.8236 H   0  0  0  0  0  0  0  0  0  0  0  0
    6.6298    4.6799   25.0200 C   0  0  0  0  0  0  0  0  0  0  0  0
    6.4288    4.4479   26.3209 N   0  0  0  0  0  0  0  0  0  0  0  0
    6.9208    5.3263   27.3797 C   0  0  0  0  0  0  0  0  0  0  0  0
    5.7381    6.0841   27.9795 C   0  0  0  0  0  0  0  0  0  0  0  0
    7.5893    4.5028   28.4775 C   0  0  0  0  0  0  0  0  0  0  0  0
  1  2  2  0  0  0
  1  9  1  0  0  0
  1 11  1  0  0  0
  2  3  1  0  0  0
  3  4  2  0  0  0
  4 10  1  0  0  0
  5  6  2  0  0  0
  5 10  1  0  0  0
  6  7  1  0  0  0
  7  8  2  0  0  0
  8  9  1  0  0  0
  9 10  2  0  0  0
 11 12  1  0  0  0
 12 13  1  0  0  0
 13 14  1  0  0  0
 13 16  1  0  0  0
 16 17  2  0  0  0
 17 18  1  0  0  0
 18 19  1  0  0  0
 18 20  1  0  0  0
 14 15  1  0  0  0
M  END
> <minimizedAffinity>
-8.18081

$$$$
1H46_RNP_X_1433


 20 21  0  0  0  0  0  0  0  0999 V2000
    7.1586    1.3544   28.7186 C   0  0  0  0  0  0  0  0  0  0  0  0
    6.9926    0.0102   29.0114 C   0  0  0  0  0  0  0  0  0  0  0  0
    6.5332   -0.3832   30.2779 C   0  0  0  0  0  0  0  0  0  0  0  0
    6.2172    0.5446   31.2798 C   0  0  0  0  0  0  0  0  0  0  0  0
    6.0418    2.8888   31.9972 C   0  0  0  0  0  0  0  0  0  0  0  0
    6.2031    4.2366   31.6716 C   0  0  0  0  0  0  0  0  0  0  0  0
    6.6658    4.6579   30.4266 C   0  0  0  0  0  0  0  0  0  0  0  0
    6.9789    3.7224   29.4460 C   0  0  0  0  0  0  0  0  0  0  0  0
    6.8246    2.3760   29.7345 C   0  0  0  0  0  0  0  0  0  0  0  0
    6.3479    1.9129   31.0551 C   0  0  0  0  0  0  0  0  0  0  0  0
    7.6012    1.8106   27.5074 O   0  0  0  0  0  0  0  0  0  0  0  0
    6.8199    1.5307   26.3201 C   0  0  0  0  0  0  0  0  0  0  0  0
    6.7579    2.7098   25.3744 C   0  0  0  0  0  0  0  0  0  0  0  0
    7.1338    2.2964   24.0573 O   0  0  0  0  0  0  0  0  0  0  0  0
    8.0398    1.9504   24.0733 H   0  0  0  0  0  0  0  0  0  0  0  0
    7.7218    3.7727   25.8305 C   0  0  0  0  0  0  0  0  0  0  0  0
    7.2016    4.9662   26.1331 N   0  0  0  0  0  0  0  0  0  0  0  0
    5.9986    5.5027   25.5011 C   0  0  0  0  0  0  0  0  0  0  0  0
    5.3386    6.4919   26.4596 C   0  0  0  0  0  0  0  0  0  0  0  0
    6.3634    6.2320   24.2107 C   0  0  0  0  0  0  0  0  0  0  0  0
  1  2  2  0  0  0
  1  9  1  0  0  0
  1 11  1  0  0  0
  2  3  1  0  0  0
  3  4  2  0  0  0
  4 10  1  0  0  0
  5  6  2  0  0  0
  5 10  1  0  0  0
  6  7  1  0  0  0
  7  8  2  0  0  0
  8  9  1  0  0  0
  9 10  2  0  0  0
 11 12  1  0  0  0
 12 13  1  0  0  0
 13 14  1  0  0  0
 13 16  1  0  0  0
 16 17  2  0  0  0
 17 18  1  0  0  0
 18 19  1  0  0  0
 18 20  1  0  0  0
 14 15  1  0  0  0
M  END
> <minimizedAffinity>
-8.12058

$$$$
1H46_RNP_X_1433


 20 21  0  0  0  0  0  0  0  0999 V2000
    3.8979    8.8468   23.2567 C   0  0  0  0  0  0  0  0  0  0  0  0
    4.5062    7.7379   22.6906 C   0  0  0  0  0  0  0  0  0  0  0  0
    5.0737    6.7504   23.5108 C   0  0  0  0  0  0  0  0  0  0  0  0
    5.0427    6.8321   24.9097 C   0  0  0  0  0  0  0  0  0  0  0  0
    4.3601    8.0514   26.9316 C   0  0  0  0  0  0  0  0  0  0  0  0
    3.7281    9.1704   27.4765 C   0  0  0  0  0  0  0  0  0  0  0  0
    3.1638   10.1717   26.6887 C   0  0  0  0  0  0  0  0  0  0  0  0
    3.2082   10.0759   25.3018 C   0  0  0  0  0  0  0  0  0  0  0  0
    3.8233    8.9748   24.7282 C   0  0  0  0  0  0  0  0  0  0  0  0
    4.4386    7.9112   25.5503 C   0  0  0  0  0  0  0  0  0  0  0  0
    3.3242    9.8470   22.5207 O   0  0  0  0  0  0  0  0  0  0  0  0
    2.4682    9.4994   21.4050 C   0  0  0  0  0  0  0  0  0  0  0  0
    1.5211   10.6177   21.0294 C   0  0  0  0  0  0  0  0  0  0  0  0
    0.4562   10.1027   20.2246 O   0  0  0  0  0  0  0  0  0  0  0  0
    0.8221    9.7121   19.4156 H   0  0  0  0  0  0  0  0  0  0  0  0
    2.2606   11.6564   20.2284 C   0  0  0  0  0  0  0  0  0  0  0  0
    2.5771   12.7905   20.8610 N   0  0  0  0  0  0  0  0  0  0  0  0
    1.7827   13.3517   21.9513 C   0  0  0  0  0  0  0  0  0  0  0  0
    2.5280   13.1326   23.2663 C   0  0  0  0  0  0  0  0  0  0  0  0
    1.5831   14.8500   21.7390 C   0  0  0  0  0  0  0  0  0  0  0  0
  1  2  2  0  0  0
  1  9  1  0  0  0
  1 11  1  0  0  0
  2  3  1  0  0  0
  3  4  2  0  0  0
  4 10  1  0  0  0
  5  6  2  0  0  0
  5 10  1  0  0  0
  6  7  1  0  0  0
  7  8  2  0  0  0
  8  9  1  0  0  0
  9 10  2  0  0  0
 11 12  1  0  0  0
 12 13  1  0  0  0
 13 14  1  0  0  0
 13 16  1  0  0  0
 16 17  2  0  0  0
 17 18  1  0  0  0
 18 19  1  0  0  0
 18 20  1  0  0  0
 14 15  1  0  0  0
M  END
> <minimizedAffinity>
-8.09776

$$$$
1H46_RNP_X_1433


 20 21  0  0  0  0  0  0  0  0999 V2000
    4.1490    9.3523   25.1308 C   0  0  0  0  0  0  0  0  0  0  0  0
    3.5619    9.8308   26.2911 C   0  0  0  0  0  0  0  0  0  0  0  0
    3.6058    9.0685   27.4687 C   0  0  0  0  0  0  0  0  0  0  0  0
    4.2411    7.8205   27.5280 C   0  0  0  0  0  0  0  0  0  0  0  0
    5.5216    6.0553   26.3943 C   0  0  0  0  0  0  0  0  0  0  0  0
    6.1183    5.6033   25.2161 C   0  0  0  0  0  0  0  0  0  0  0  0
    6.0835    6.3328   24.0293 C   0  0  0  0  0  0  0  0  0  0  0  0
    5.4443    7.5675   23.9882 C   0  0  0  0  0  0  0  0  0  0  0  0
    4.8465    8.0483   25.1421 C   0  0  0  0  0  0  0  0  0  0  0  0
    4.8631    7.2801   26.4051 C   0  0  0  0  0  0  0  0  0  0  0  0
    4.1456   10.0397   23.9481 O   0  0  0  0  0  0  0  0  0  0  0  0
    2.8833   10.4875   23.3964 C   0  0  0  0  0  0  0  0  0  0  0  0
    2.8569   11.9785   23.1421 C   0  0  0  0  0  0  0  0  0  0  0  0
    3.6380   12.6541   24.1322 O   0  0  0  0  0  0  0  0  0  0  0  0
    3.2695   12.4760   25.0116 H   0  0  0  0  0  0  0  0  0  0  0  0
    1.4401   12.4801   23.2331 C   0  0  0  0  0  0  0  0  0  0  0  0
    1.0682   13.3973   22.3347 N   0  0  0  0  0  0  0  0  0  0  0  0
    1.9911   14.3619   21.7410 C   0  0  0  0  0  0  0  0  0  0  0  0
    1.9945   14.1711   20.2256 C   0  0  0  0  0  0  0  0  0  0  0  0
    1.5408   15.7851   22.0598 C   0  0  0  0  0  0  0  0  0  0  0  0
  1  2  2  0  0  0
  1  9  1  0  0  0
  1 11  1  0  0  0
  2  3  1  0  0  0
  3  4  2  0  0  0
  4 10  1  0  0  0
  5  6  2  0  0  0
  5 10  1  0  0  0
  6  7  1  0  0  0
  7  8  2  0  0  0
  8  9  1  0  0  0
  9 10  2  0  0  0
 11 12  1  0  0  0
 12 13  1  0  0  0
 13 14  1  0  0  0
 13 16  1  0  0  0
 16 17  2  0  0  0
 17 18  1  0  0  0
 18 19  1  0  0  0
 18 20  1  0  0  0
 14 15  1  0  0  0
M  END
> <minimizedAffinity>
-8.04859

$$$$
1H46_RNP_X_1433


 20 21  0  0  0  0  0  0  0  0999 V2000
    3.5661    9.2829   25.9587 C   0  0  0  0  0  0  0  0  0  0  0  0
    3.5200    9.4414   27.3345 C   0  0  0  0  0  0  0  0  0  0  0  0
    4.2127    8.5510   28.1696 C   0  0  0  0  0  0  0  0  0  0  0  0
    4.9755    7.4903   27.6621 C   0  0  0  0  0  0  0  0  0  0  0  0
    5.8257    6.2519   25.7168 C   0  0  0  0  0  0  0  0  0  0  0  0
    5.8681    6.1238   24.3274 C   0  0  0  0  0  0  0  0  0  0  0  0
    5.1840    6.9859   23.4728 C   0  0  0  0  0  0  0  0  0  0  0  0
    4.4280    8.0304   23.9947 C   0  0  0  0  0  0  0  0  0  0  0  0
    4.3693    8.1895   25.3699 C   0  0  0  0  0  0  0  0  0  0  0  0
    5.0783    7.2750   26.2900 C   0  0  0  0  0  0  0  0  0  0  0  0
    2.9174   10.1114   25.0846 O   0  0  0  0  0  0  0  0  0  0  0  0
    2.7032   11.4960   25.4524 C   0  0  0  0  0  0  0  0  0  0  0  0
    2.8478   12.4380   24.2775 C   0  0  0  0  0  0  0  0  0  0  0  0
    3.3255   13.7085   24.7294 O   0  0  0  0  0  0  0  0  0  0  0  0
    2.6938   14.0853   25.3617 H   0  0  0  0  0  0  0  0  0  0  0  0
    1.5054   12.6409   23.6263 C   0  0  0  0  0  0  0  0  0  0  0  0
    1.2337   11.8824   22.5599 N   0  0  0  0  0  0  0  0  0  0  0  0
    2.2579   11.3884   21.6424 C   0  0  0  0  0  0  0  0  0  0  0  0
    2.1896    9.8631   21.6040 C   0  0  0  0  0  0  0  0  0  0  0  0
    2.0104   11.9306   20.2372 C   0  0  0  0  0  0  0  0  0  0  0  0
  1  2  2  0  0  0
  1  9  1  0  0  0
  1 11  1  0  0  0
  2  3  1  0  0  0
  3  4  2  0  0  0
  4 10  1  0  0  0
  5  6  2  0  0  0
  5 10  1  0  0  0
  6  7  1  0  0  0
  7  8  2  0  0  0
  8  9  1  0  0  0
  9 10  2  0  0  0
 11 12  1  0  0  0
 12 13  1  0  0  0
 13 14  1  0  0  0
 13 16  1  0  0  0
 16 17  2  0  0  0
 17 18  1  0  0  0
 18 19  1  0  0  0
 18 20  1  0  0  0
 14 15  1  0  0  0
M  END
> <minimizedAffinity>
-8.01576

$$$$
1H46_RNP_X_1433


 20 21  0  0  0  0  0  0  0  0999 V2000
    5.1225    6.5049   25.6773 C   0  0  0  0  0  0  0  0  0  0  0  0
    4.9726    6.7947   27.0240 C   0  0  0  0  0  0  0  0  0  0  0  0
    4.3576    7.9917   27.4225 C   0  0  0  0  0  0  0  0  0  0  0  0
    3.8671    8.9240   26.4979 C   0  0  0  0  0  0  0  0  0  0  0  0
    3.4971    9.5698   24.1555 C   0  0  0  0  0  0  0  0  0  0  0  0
    3.6468    9.2466   22.8058 C   0  0  0  0  0  0  0  0  0  0  0  0
    4.2610    8.0709   22.3790 C   0  0  0  0  0  0  0  0  0  0  0  0
    4.7460    7.1594   23.3112 C   0  0  0  0  0  0  0  0  0  0  0  0
    4.6084    7.4468   24.6596 C   0  0  0  0  0  0  0  0  0  0  0  0
    3.9716    8.6961   25.1279 C   0  0  0  0  0  0  0  0  0  0  0  0
    5.7106    5.3592   25.2161 O   0  0  0  0  0  0  0  0  0  0  0  0
    7.1539    5.3020   25.1070 C   0  0  0  0  0  0  0  0  0  0  0  0
    7.7927    4.5399   26.2470 C   0  0  0  0  0  0  0  0  0  0  0  0
    9.1551    4.2411   25.9285 O   0  0  0  0  0  0  0  0  0  0  0  0
    9.1877    3.6970   25.1261 H   0  0  0  0  0  0  0  0  0  0  0  0
    7.0599    3.2417   26.4583 C   0  0  0  0  0  0  0  0  0  0  0  0
    6.8075    2.8928   27.7237 N   0  0  0  0  0  0  0  0  0  0  0  0
    7.6620    3.2695   28.8474 C   0  0  0  0  0  0  0  0  0  0  0  0
    6.7771    3.6915   30.0186 C   0  0  0  0  0  0  0  0  0  0  0  0
    8.5191    2.0818   29.2772 C   0  0  0  0  0  0  0  0  0  0  0  0
  1  2  2  0  0  0
  1  9  1  0  0  0
  1 11  1  0  0  0
  2  3  1  0  0  0
  3  4  2  0  0  0
  4 10  1  0  0  0
  5  6  2  0  0  0
  5 10  1  0  0  0
  6  7  1  0  0  0
  7  8  2  0  0  0
  8  9  1  0  0  0
  9 10  2  0  0  0
 11 12  1  0  0  0
 12 13  1  0  0  0
 13 14  1  0  0  0
 13 16  1  0  0  0
 16 17  2  0  0  0
 17 18  1  0  0  0
 18 19  1  0  0  0
 18 20  1  0  0  0
 14 15  1  0  0  0
M  END
> <minimizedAffinity>
-8.00550

$$$$
1H46_RNP_X_1433


 20 21  0  0  0  0  0  0  0  0999 V2000
    5.4472    6.6480   25.3386 C   0  0  0  0  0  0  0  0  0  0  0  0
    5.5193    6.4618   23.9674 C   0  0  0  0  0  0  0  0  0  0  0  0
    4.8519    7.3416   23.1011 C   0  0  0  0  0  0  0  0  0  0  0  0
    4.1072    8.4319   23.5712 C   0  0  0  0  0  0  0  0  0  0  0  0
    3.2880    9.7579   25.4717 C   0  0  0  0  0  0  0  0  0  0  0  0
    3.2442    9.9320   26.8559 C   0  0  0  0  0  0  0  0  0  0  0  0
    3.8884    9.0705   27.7417 C   0  0  0  0  0  0  0  0  0  0  0  0
    4.6192    7.9908   27.2570 C   0  0  0  0  0  0  0  0  0  0  0  0
    4.6879    7.7924   25.8874 C   0  0  0  0  0  0  0  0  0  0  0  0
    3.9988    8.6895   24.9357 C   0  0  0  0  0  0  0  0  0  0  0  0
    6.0714    5.8319   26.2417 O   0  0  0  0  0  0  0  0  0  0  0  0
    6.7436    4.6395   25.7678 C   0  0  0  0  0  0  0  0  0  0  0  0
    7.8506    4.1894   26.6954 C   0  0  0  0  0  0  0  0  0  0  0  0
    8.7700    3.3543   25.9853 O   0  0  0  0  0  0  0  0  0  0  0  0
    8.3033    2.5742   25.6469 H   0  0  0  0  0  0  0  0  0  0  0  0
    7.2642    3.3910   27.8294 C   0  0  0  0  0  0  0  0  0  0  0  0
    7.0523    4.0428   28.9770 N   0  0  0  0  0  0  0  0  0  0  0  0
    7.8614    5.1762   29.4192 C   0  0  0  0  0  0  0  0  0  0  0  0
    6.9331    6.3408   29.7578 C   0  0  0  0  0  0  0  0  0  0  0  0
    8.6575    4.7990   30.6658 C   0  0  0  0  0  0  0  0  0  0  0  0
  1  2  2  0  0  0
  1  9  1  0  0  0
  1 11  1  0  0  0
  2  3  1  0  0  0
  3  4  2  0  0  0
  4 10  1  0  0  0
  5  6  2  0  0  0
  5 10  1  0  0  0
  6  7  1  0  0  0
  7  8  2  0  0  0
  8  9  1  0  0  0
  9 10  2  0  0  0
 11 12  1  0  0  0
 12 13  1  0  0  0
 13 14  1  0  0  0
 13 16  1  0  0  0
 16 17  2  0  0  0
 17 18  1  0  0  0
 18 19  1  0  0  0
 18 20  1  0  0  0
 14 15  1  0  0  0
M  END
> <minimizedAffinity>
-7.93582

$$$$
