3TFN_2CJ_A_301


 32 35  0  0  0  0  0  0  0  0999 V2000
    2.4546   23.9936    7.3759 O   0  0  0  0  0  0  0  0  0  0  0  0
    3.0660   27.4730    6.8741 C   0  0  0  0  0  0  0  0  0  0  0  0
    1.6031   26.3304    8.4809 C   0  0  0  0  0  0  0  0  0  0  0  0
    1.8171   28.1055    6.2202 C   0  0  0  0  0  0  0  0  0  0  0  0
    0.8710   27.6564    8.3119 C   0  0  0  0  0  0  0  0  0  0  0  0
    2.9569   24.9841    6.8934 C   0  0  0  0  0  0  0  0  0  0  0  0
    2.6038   26.1824    7.4006 N   0  0  0  0  0  0  0  0  0  0  0  0
    0.5430   27.7496    6.8926 N   0  0  0  0  0  0  0  0  0  0  0  0
    3.9468   24.7531    5.7659 C   0  0  0  0  0  0  0  0  0  0  0  0
    7.3583   24.4571    5.5908 C   0  0  0  0  0  0  0  0  0  0  0  0
    7.3529   24.2750    7.0693 C   0  0  0  0  0  0  0  0  0  0  0  0
    6.1739   23.5983    5.1481 C   0  0  0  0  0  0  0  0  0  0  0  0
    5.8732   24.5346    7.3158 C   0  0  0  0  0  0  0  0  0  0  0  0
    5.1331   23.8462    6.2316 C   0  0  0  0  0  0  0  0  0  0  0  0
    4.6728   22.4955    6.7497 C   0  0  0  0  0  0  0  0  0  0  0  0
    4.8578   20.5957    5.4222 O   0  0  0  0  0  0  0  0  0  0  0  0
    3.1216   21.8606    5.0920 O   0  0  0  0  0  0  0  0  0  0  0  0
    4.1627   21.5618    5.6855 C   0  0  0  0  0  0  0  0  0  0  0  0
    2.6370   22.6201    5.3494 H   0  0  0  0  0  0  0  0  0  0  0  0
   -0.3180   28.8934    6.5998 C   0  0  0  0  0  0  0  0  0  0  0  0
   -4.3473   29.3787    7.8299 C   0  0  0  0  0  0  0  0  0  0  0  0
   -3.3740   30.1585    8.3496 C   0  0  0  0  0  0  0  0  0  0  0  0
   -4.0167   28.4078    6.9323 C   0  0  0  0  0  0  0  0  0  0  0  0
   -2.0903   29.9583    7.9393 C   0  0  0  0  0  0  0  0  0  0  0  0
   -2.7311   28.2205    6.5189 C   0  0  0  0  0  0  0  0  0  0  0  0
   -1.7548   28.9776    7.0787 C   0  0  0  0  0  0  0  0  0  0  0  0
   -1.0907   29.9664    2.5309 C   0  0  0  0  0  0  0  0  0  0  0  0
   -1.3311   28.6779    2.9399 C   0  0  0  0  0  0  0  0  0  0  0  0
   -0.5904   30.9013    3.4003 C   0  0  0  0  0  0  0  0  0  0  0  0
   -1.0813   28.2938    4.2336 C   0  0  0  0  0  0  0  0  0  0  0  0
   -0.3475   30.5235    4.6878 C   0  0  0  0  0  0  0  0  0  0  0  0
   -0.5573   29.2134    5.1098 C   0  0  0  0  0  0  0  0  0  0  0  0
 16 18  2  0  0  0
  1  6  2  0  0  0
 17 18  1  0  0  0
 21 22  2  0  0  0
 21 23  1  0  0  0
 27 28  2  0  0  0
 27 29  1  0  0  0
 22 24  1  0  0  0
 23 25  2  0  0  0
 28 30  1  0  0  0
 29 31  2  0  0  0
 24 26  2  0  0  0
 25 26  1  0  0  0
 30 32  2  0  0  0
 31 32  1  0  0  0
 10 11  1  0  0  0
 10 12  1  0  0  0
 11 13  1  0  0  0
  2  4  1  0  0  0
  2  7  1  0  0  0
  3  5  1  0  0  0
  3  7  1  0  0  0
  4  8  1  0  0  0
  5  8  1  0  0  0
 12 14  1  0  0  0
 13 14  1  0  0  0
 15 18  1  0  0  0
 15 14  1  0  0  0
  9  6  1  0  0  0
  9 14  1  0  0  0
  6  7  1  0  0  0
 26 20  1  0  0  0
 32 20  1  0  0  0
 20  8  1  0  0  0
 17 19  1  0  0  0
M  END
> <minimizedAffinity>
-10.34668

$$$$
3TFN_2CJ_A_301


 32 35  0  0  0  0  0  0  0  0999 V2000
    2.6808   25.6156    8.7926 O   0  0  0  0  0  0  0  0  0  0  0  0
    2.0189   29.1219    8.8103 C   0  0  0  0  0  0  0  0  0  0  0  0
    0.5609   27.2249    9.3608 C   0  0  0  0  0  0  0  0  0  0  0  0
    1.0957   29.4570    7.6175 C   0  0  0  0  0  0  0  0  0  0  0  0
   -0.4609   28.2469    8.8765 C   0  0  0  0  0  0  0  0  0  0  0  0
    2.9113   26.7993    8.6830 C   0  0  0  0  0  0  0  0  0  0  0  0
    1.9181   27.6653    8.9681 N   0  0  0  0  0  0  0  0  0  0  0  0
   -0.0835   28.5635    7.5024 N   0  0  0  0  0  0  0  0  0  0  0  0
    4.3154   27.1713    8.2417 C   0  0  0  0  0  0  0  0  0  0  0  0
    4.3518   24.6049    5.9683 C   0  0  0  0  0  0  0  0  0  0  0  0
    3.4457   25.4297    5.1210 C   0  0  0  0  0  0  0  0  0  0  0  0
    5.3730   25.6320    6.4565 C   0  0  0  0  0  0  0  0  0  0  0  0
    3.2176   26.5757    6.0968 C   0  0  0  0  0  0  0  0  0  0  0  0
    4.5288   26.8713    6.7215 C   0  0  0  0  0  0  0  0  0  0  0  0
    5.1628   28.0320    5.9762 C   0  0  0  0  0  0  0  0  0  0  0  0
    3.6410   29.6978    5.4148 O   0  0  0  0  0  0  0  0  0  0  0  0
    4.9041   30.0624    7.1456 O   0  0  0  0  0  0  0  0  0  0  0  0
    4.4983   29.3611    6.2134 C   0  0  0  0  0  0  0  0  0  0  0  0
    5.5674   29.7375    7.7221 H   0  0  0  0  0  0  0  0  0  0  0  0
   -1.0755   29.4063    6.8386 C   0  0  0  0  0  0  0  0  0  0  0  0
   -5.2850   29.1387    7.2775 C   0  0  0  0  0  0  0  0  0  0  0  0
   -4.5936   30.1228    7.8930 C   0  0  0  0  0  0  0  0  0  0  0  0
   -4.6118   28.2089    6.5427 C   0  0  0  0  0  0  0  0  0  0  0  0
   -3.2404   30.1625    7.7391 C   0  0  0  0  0  0  0  0  0  0  0  0
   -3.2587   28.2615    6.3850 C   0  0  0  0  0  0  0  0  0  0  0  0
   -2.5678   29.2260    7.0424 C   0  0  0  0  0  0  0  0  0  0  0  0
   -1.1568   29.5965    2.5652 C   0  0  0  0  0  0  0  0  0  0  0  0
   -1.3687   28.3898    3.1851 C   0  0  0  0  0  0  0  0  0  0  0  0
   -0.9013   30.7294    3.2942 C   0  0  0  0  0  0  0  0  0  0  0  0
   -1.3355   28.2879    4.5534 C   0  0  0  0  0  0  0  0  0  0  0  0
   -0.8742   30.6317    4.6541 C   0  0  0  0  0  0  0  0  0  0  0  0
   -1.0569   29.4098    5.2961 C   0  0  0  0  0  0  0  0  0  0  0  0
 16 18  2  0  0  0
  1  6  2  0  0  0
 17 18  1  0  0  0
 21 22  2  0  0  0
 21 23  1  0  0  0
 27 28  2  0  0  0
 27 29  1  0  0  0
 22 24  1  0  0  0
 23 25  2  0  0  0
 28 30  1  0  0  0
 29 31  2  0  0  0
 24 26  2  0  0  0
 25 26  1  0  0  0
 30 32  2  0  0  0
 31 32  1  0  0  0
 10 11  1  0  0  0
 10 12  1  0  0  0
 11 13  1  0  0  0
  2  4  1  0  0  0
  2  7  1  0  0  0
  3  5  1  0  0  0
  3  7  1  0  0  0
  4  8  1  0  0  0
  5  8  1  0  0  0
 12 14  1  0  0  0
 13 14  1  0  0  0
 15 18  1  0  0  0
 15 14  1  0  0  0
  9  6  1  0  0  0
  9 14  1  0  0  0
  6  7  1  0  0  0
 26 20  1  0  0  0
 32 20  1  0  0  0
 20  8  1  0  0  0
 17 19  1  0  0  0
M  END
> <minimizedAffinity>
-10.15276

$$$$
3TFN_2CJ_A_301


 32 35  0  0  0  0  0  0  0  0999 V2000
    3.8101   27.2967    9.4847 O   0  0  0  0  0  0  0  0  0  0  0  0
    2.9281   29.1236    6.5493 C   0  0  0  0  0  0  0  0  0  0  0  0
    1.7741   28.9266    8.7073 C   0  0  0  0  0  0  0  0  0  0  0  0
    1.7315   28.4207    5.8701 C   0  0  0  0  0  0  0  0  0  0  0  0
    0.5990   29.1811    7.7705 C   0  0  0  0  0  0  0  0  0  0  0  0
    3.9258   27.7365    8.3625 C   0  0  0  0  0  0  0  0  0  0  0  0
    2.9685   28.5707    7.9092 N   0  0  0  0  0  0  0  0  0  0  0  0
    0.6231   28.0909    6.8000 N   0  0  0  0  0  0  0  0  0  0  0  0
    5.1592   27.2978    7.5938 C   0  0  0  0  0  0  0  0  0  0  0  0
    3.4343   25.3284    5.3796 C   0  0  0  0  0  0  0  0  0  0  0  0
    4.7490   24.7791    4.9449 C   0  0  0  0  0  0  0  0  0  0  0  0
    3.5816   25.3728    6.9003 C   0  0  0  0  0  0  0  0  0  0  0  0
    5.6492   25.6927    5.7651 C   0  0  0  0  0  0  0  0  0  0  0  0
    5.0234   25.8189    7.1028 C   0  0  0  0  0  0  0  0  0  0  0  0
    5.6890   24.8252    8.0378 C   0  0  0  0  0  0  0  0  0  0  0  0
    7.6403   25.8336    8.8006 O   0  0  0  0  0  0  0  0  0  0  0  0
    6.0777   25.4792   10.2691 O   0  0  0  0  0  0  0  0  0  0  0  0
    6.5268   25.4530    9.1187 C   0  0  0  0  0  0  0  0  0  0  0  0
    5.2103   25.1692   10.4405 H   0  0  0  0  0  0  0  0  0  0  0  0
   -0.5525   28.0995    5.9322 C   0  0  0  0  0  0  0  0  0  0  0  0
   -1.0960   30.5311    2.5005 C   0  0  0  0  0  0  0  0  0  0  0  0
   -1.4758   29.2345    2.4882 C   0  0  0  0  0  0  0  0  0  0  0  0
   -0.5017   31.0419    3.6156 C   0  0  0  0  0  0  0  0  0  0  0  0
   -1.2679   28.4842    3.6064 C   0  0  0  0  0  0  0  0  0  0  0  0
   -0.3065   30.2874    4.7342 C   0  0  0  0  0  0  0  0  0  0  0  0
   -0.6498   28.9757    4.6978 C   0  0  0  0  0  0  0  0  0  0  0  0
   -4.3608   29.1845    7.5521 C   0  0  0  0  0  0  0  0  0  0  0  0
   -3.2342   29.8253    8.0052 C   0  0  0  0  0  0  0  0  0  0  0  0
   -4.2778   28.1939    6.6076 C   0  0  0  0  0  0  0  0  0  0  0  0
   -1.9943   29.4935    7.5193 C   0  0  0  0  0  0  0  0  0  0  0  0
   -3.0475   27.8671    6.1187 C   0  0  0  0  0  0  0  0  0  0  0  0
   -1.8931   28.4863    6.5902 C   0  0  0  0  0  0  0  0  0  0  0  0
 16 18  2  0  0  0
  1  6  2  0  0  0
 17 18  1  0  0  0
 21 22  2  0  0  0
 21 23  1  0  0  0
 27 28  2  0  0  0
 27 29  1  0  0  0
 22 24  1  0  0  0
 23 25  2  0  0  0
 28 30  1  0  0  0
 29 31  2  0  0  0
 24 26  2  0  0  0
 25 26  1  0  0  0
 30 32  2  0  0  0
 31 32  1  0  0  0
 10 11  1  0  0  0
 10 12  1  0  0  0
 11 13  1  0  0  0
  2  4  1  0  0  0
  2  7  1  0  0  0
  3  5  1  0  0  0
  3  7  1  0  0  0
  4  8  1  0  0  0
  5  8  1  0  0  0
 12 14  1  0  0  0
 13 14  1  0  0  0
 15 18  1  0  0  0
 15 14  1  0  0  0
  9  6  1  0  0  0
  9 14  1  0  0  0
  6  7  1  0  0  0
 26 20  1  0  0  0
 32 20  1  0  0  0
 20  8  1  0  0  0
 17 19  1  0  0  0
M  END
> <minimizedAffinity>
-10.02977

$$$$
3TFN_2CJ_A_301


 32 35  0  0  0  0  0  0  0  0999 V2000
    2.7784   24.2208    7.2686 O   0  0  0  0  0  0  0  0  0  0  0  0
    3.2016   27.7312    6.7890 C   0  0  0  0  0  0  0  0  0  0  0  0
    1.8000   26.5013    8.3860 C   0  0  0  0  0  0  0  0  0  0  0  0
    1.9214   28.2992    6.1365 C   0  0  0  0  0  0  0  0  0  0  0  0
    0.9976   27.7869    8.2236 C   0  0  0  0  0  0  0  0  0  0  0  0
    3.2272   25.2400    6.7931 C   0  0  0  0  0  0  0  0  0  0  0  0
    2.8090   26.4142    7.3068 N   0  0  0  0  0  0  0  0  0  0  0  0
    0.6673   27.8709    6.8042 N   0  0  0  0  0  0  0  0  0  0  0  0
    4.2300   25.0697    5.6662 C   0  0  0  0  0  0  0  0  0  0  0  0
    6.4848   22.4896    5.7893 C   0  0  0  0  0  0  0  0  0  0  0  0
    7.5212   23.4604    5.3393 C   0  0  0  0  0  0  0  0  0  0  0  0
    5.7060   23.2960    6.8283 C   0  0  0  0  0  0  0  0  0  0  0  0
    6.6099   24.6553    5.0959 C   0  0  0  0  0  0  0  0  0  0  0  0
    5.6431   24.6901    6.2189 C   0  0  0  0  0  0  0  0  0  0  0  0
    6.1520   25.6733    7.2577 C   0  0  0  0  0  0  0  0  0  0  0  0
    5.7338   25.0583    9.4606 O   0  0  0  0  0  0  0  0  0  0  0  0
    7.7139   24.6233    8.6773 O   0  0  0  0  0  0  0  0  0  0  0  0
    6.5584   25.0445    8.5630 C   0  0  0  0  0  0  0  0  0  0  0  0
    8.2948   24.6436    7.9424 H   0  0  0  0  0  0  0  0  0  0  0  0
   -0.2538   28.9682    6.5167 C   0  0  0  0  0  0  0  0  0  0  0  0
   -4.2864   29.2576    7.7965 C   0  0  0  0  0  0  0  0  0  0  0  0
   -3.3452   30.0815    8.3070 C   0  0  0  0  0  0  0  0  0  0  0  0
   -3.9208   28.3061    6.8918 C   0  0  0  0  0  0  0  0  0  0  0  0
   -2.0584   29.9439    7.8807 C   0  0  0  0  0  0  0  0  0  0  0  0
   -2.6329   28.1814    6.4625 C   0  0  0  0  0  0  0  0  0  0  0  0
   -1.6871   28.9826    7.0130 C   0  0  0  0  0  0  0  0  0  0  0  0
   -1.1302   29.9781    2.4526 C   0  0  0  0  0  0  0  0  0  0  0  0
   -1.2933   28.6800    2.8693 C   0  0  0  0  0  0  0  0  0  0  0  0
   -0.6737   30.9435    3.3127 C   0  0  0  0  0  0  0  0  0  0  0  0
   -1.0081   28.3163    4.1615 C   0  0  0  0  0  0  0  0  0  0  0  0
   -0.3958   30.5856    4.5989 C   0  0  0  0  0  0  0  0  0  0  0  0
   -0.5270   29.2677    5.0283 C   0  0  0  0  0  0  0  0  0  0  0  0
 16 18  2  0  0  0
  1  6  2  0  0  0
 17 18  1  0  0  0
 21 22  2  0  0  0
 21 23  1  0  0  0
 27 28  2  0  0  0
 27 29  1  0  0  0
 22 24  1  0  0  0
 23 25  2  0  0  0
 28 30  1  0  0  0
 29 31  2  0  0  0
 24 26  2  0  0  0
 25 26  1  0  0  0
 30 32  2  0  0  0
 31 32  1  0  0  0
 10 11  1  0  0  0
 10 12  1  0  0  0
 11 13  1  0  0  0
  2  4  1  0  0  0
  2  7  1  0  0  0
  3  5  1  0  0  0
  3  7  1  0  0  0
  4  8  1  0  0  0
  5  8  1  0  0  0
 12 14  1  0  0  0
 13 14  1  0  0  0
 15 18  1  0  0  0
 15 14  1  0  0  0
  9  6  1  0  0  0
  9 14  1  0  0  0
  6  7  1  0  0  0
 26 20  1  0  0  0
 32 20  1  0  0  0
 20  8  1  0  0  0
 17 19  1  0  0  0
M  END
> <minimizedAffinity>
-10.01721

$$$$
3TFN_2CJ_A_301


 32 35  0  0  0  0  0  0  0  0999 V2000
    2.4406   25.1810    8.1945 O   0  0  0  0  0  0  0  0  0  0  0  0
    1.7061   28.5647    9.0565 C   0  0  0  0  0  0  0  0  0  0  0  0
    0.2225   26.6210    8.8375 C   0  0  0  0  0  0  0  0  0  0  0  0
    0.9739   29.2298    7.8696 C   0  0  0  0  0  0  0  0  0  0  0  0
   -0.7333   27.7573    8.4939 C   0  0  0  0  0  0  0  0  0  0  0  0
    2.6590   26.3450    8.4469 C   0  0  0  0  0  0  0  0  0  0  0  0
    1.6144   27.1223    8.7964 N   0  0  0  0  0  0  0  0  0  0  0  0
   -0.1525   28.4261    7.3336 N   0  0  0  0  0  0  0  0  0  0  0  0
    4.1063   26.7927    8.3485 C   0  0  0  0  0  0  0  0  0  0  0  0
    3.5564   28.8837    5.6874 C   0  0  0  0  0  0  0  0  0  0  0  0
    5.0358   28.9922    5.5509 C   0  0  0  0  0  0  0  0  0  0  0  0
    3.3576   27.3910    5.9492 C   0  0  0  0  0  0  0  0  0  0  0  0
    5.4279   28.2066    6.7946 C   0  0  0  0  0  0  0  0  0  0  0  0
    4.5240   27.0337    6.8606 C   0  0  0  0  0  0  0  0  0  0  0  0
    5.2408   25.8426    6.2505 C   0  0  0  0  0  0  0  0  0  0  0  0
    7.1243   25.2825    7.4934 O   0  0  0  0  0  0  0  0  0  0  0  0
    5.3943   23.9816    7.6894 O   0  0  0  0  0  0  0  0  0  0  0  0
    5.9702   24.9795    7.2443 C   0  0  0  0  0  0  0  0  0  0  0  0
    4.5034   23.8110    7.4545 H   0  0  0  0  0  0  0  0  0  0  0  0
   -1.0469   29.4380    6.7757 C   0  0  0  0  0  0  0  0  0  0  0  0
   -5.1962   29.1997    7.6187 C   0  0  0  0  0  0  0  0  0  0  0  0
   -4.6327   28.3703    6.7133 C   0  0  0  0  0  0  0  0  0  0  0  0
   -4.4247   30.1404    8.2331 C   0  0  0  0  0  0  0  0  0  0  0  0
   -3.2994   28.4915    6.4600 C   0  0  0  0  0  0  0  0  0  0  0  0
   -3.0891   30.2486    7.9819 C   0  0  0  0  0  0  0  0  0  0  0  0
   -2.5407   29.4421    7.0393 C   0  0  0  0  0  0  0  0  0  0  0  0
   -1.0362   29.5628    2.4992 C   0  0  0  0  0  0  0  0  0  0  0  0
   -0.7677   30.7111    3.2024 C   0  0  0  0  0  0  0  0  0  0  0  0
   -1.3255   28.3895    3.1472 C   0  0  0  0  0  0  0  0  0  0  0  0
   -0.7767   30.7123    4.5748 C   0  0  0  0  0  0  0  0  0  0  0  0
   -1.3287   28.3869    4.5108 C   0  0  0  0  0  0  0  0  0  0  0  0
   -1.0884   29.5498    5.2377 C   0  0  0  0  0  0  0  0  0  0  0  0
 16 18  2  0  0  0
  1  6  2  0  0  0
 17 18  1  0  0  0
 21 22  2  0  0  0
 21 23  1  0  0  0
 27 28  2  0  0  0
 27 29  1  0  0  0
 22 24  1  0  0  0
 23 25  2  0  0  0
 28 30  1  0  0  0
 29 31  2  0  0  0
 24 26  2  0  0  0
 25 26  1  0  0  0
 30 32  2  0  0  0
 31 32  1  0  0  0
 10 11  1  0  0  0
 10 12  1  0  0  0
 11 13  1  0  0  0
  2  4  1  0  0  0
  2  7  1  0  0  0
  3  5  1  0  0  0
  3  7  1  0  0  0
  4  8  1  0  0  0
  5  8  1  0  0  0
 12 14  1  0  0  0
 13 14  1  0  0  0
 15 18  1  0  0  0
 15 14  1  0  0  0
  9  6  1  0  0  0
  9 14  1  0  0  0
  6  7  1  0  0  0
 26 20  1  0  0  0
 32 20  1  0  0  0
 20  8  1  0  0  0
 17 19  1  0  0  0
M  END
> <minimizedAffinity>
-9.82578

$$$$
3TFN_2CJ_A_301


 32 35  0  0  0  0  0  0  0  0999 V2000
    2.8235   25.7915    8.9615 O   0  0  0  0  0  0  0  0  0  0  0  0
    1.3699   28.9314    8.0899 C   0  0  0  0  0  0  0  0  0  0  0  0
    0.3348   26.8927    8.9840 C   0  0  0  0  0  0  0  0  0  0  0  0
    0.5486   28.7534    6.7933 C   0  0  0  0  0  0  0  0  0  0  0  0
   -0.8282   27.4908    8.2014 C   0  0  0  0  0  0  0  0  0  0  0  0
    2.7851   26.9417    8.5853 C   0  0  0  0  0  0  0  0  0  0  0  0
    1.5908   27.5674    8.5871 N   0  0  0  0  0  0  0  0  0  0  0  0
   -0.3679   27.5866    6.8194 N   0  0  0  0  0  0  0  0  0  0  0  0
    4.1081   27.5534    8.1609 C   0  0  0  0  0  0  0  0  0  0  0  0
    4.6489   24.7764    6.2240 C   0  0  0  0  0  0  0  0  0  0  0  0
    3.7359   25.3827    5.2151 C   0  0  0  0  0  0  0  0  0  0  0  0
    5.4958   25.9707    6.6628 C   0  0  0  0  0  0  0  0  0  0  0  0
    3.2884   26.5919    6.0245 C   0  0  0  0  0  0  0  0  0  0  0  0
    4.4938   27.1164    6.7095 C   0  0  0  0  0  0  0  0  0  0  0  0
    5.0558   28.2577    5.8812 C   0  0  0  0  0  0  0  0  0  0  0  0
    3.4971   29.9321    5.4653 O   0  0  0  0  0  0  0  0  0  0  0  0
    4.9516   30.3107    7.0353 O   0  0  0  0  0  0  0  0  0  0  0  0
    4.4358   29.5986    6.1678 C   0  0  0  0  0  0  0  0  0  0  0  0
    5.6726   29.9876    7.5389 H   0  0  0  0  0  0  0  0  0  0  0  0
   -1.4385   27.9844    5.9081 C   0  0  0  0  0  0  0  0  0  0  0  0
   -1.0738   30.7252    2.6927 C   0  0  0  0  0  0  0  0  0  0  0  0
   -1.8453   29.6231    2.5688 C   0  0  0  0  0  0  0  0  0  0  0  0
   -0.3830   30.9298    3.8497 C   0  0  0  0  0  0  0  0  0  0  0  0
   -1.9217   28.7598    3.6202 C   0  0  0  0  0  0  0  0  0  0  0  0
   -0.4727   30.0666    4.9011 C   0  0  0  0  0  0  0  0  0  0  0  0
   -1.2138   28.9404    4.7520 C   0  0  0  0  0  0  0  0  0  0  0  0
   -4.7266   29.8992    7.8644 C   0  0  0  0  0  0  0  0  0  0  0  0
   -4.9761   28.8735    6.9864 C   0  0  0  0  0  0  0  0  0  0  0  0
   -3.4463   30.3272    8.1044 C   0  0  0  0  0  0  0  0  0  0  0  0
   -3.9475   28.2456    6.3296 C   0  0  0  0  0  0  0  0  0  0  0  0
   -2.4222   29.7006    7.4577 C   0  0  0  0  0  0  0  0  0  0  0  0
   -2.6612   28.6796    6.5418 C   0  0  0  0  0  0  0  0  0  0  0  0
 16 18  2  0  0  0
  1  6  2  0  0  0
 17 18  1  0  0  0
 21 22  2  0  0  0
 21 23  1  0  0  0
 27 28  2  0  0  0
 27 29  1  0  0  0
 22 24  1  0  0  0
 23 25  2  0  0  0
 28 30  1  0  0  0
 29 31  2  0  0  0
 24 26  2  0  0  0
 25 26  1  0  0  0
 30 32  2  0  0  0
 31 32  1  0  0  0
 10 11  1  0  0  0
 10 12  1  0  0  0
 11 13  1  0  0  0
  2  4  1  0  0  0
  2  7  1  0  0  0
  3  5  1  0  0  0
  3  7  1  0  0  0
  4  8  1  0  0  0
  5  8  1  0  0  0
 12 14  1  0  0  0
 13 14  1  0  0  0
 15 18  1  0  0  0
 15 14  1  0  0  0
  9  6  1  0  0  0
  9 14  1  0  0  0
  6  7  1  0  0  0
 26 20  1  0  0  0
 32 20  1  0  0  0
 20  8  1  0  0  0
 17 19  1  0  0  0
M  END
> <minimizedAffinity>
-9.81691

$$$$
3TFN_2CJ_A_301


 32 35  0  0  0  0  0  0  0  0999 V2000
    3.7683   26.4337    9.0685 O   0  0  0  0  0  0  0  0  0  0  0  0
    2.9242   28.8345    6.5674 C   0  0  0  0  0  0  0  0  0  0  0  0
    1.7603   28.2200    8.6399 C   0  0  0  0  0  0  0  0  0  0  0  0
    1.7190   28.3039    5.7592 C   0  0  0  0  0  0  0  0  0  0  0  0
    0.5924   28.6787    7.7748 C   0  0  0  0  0  0  0  0  0  0  0  0
    3.8944   27.0912    8.0596 C   0  0  0  0  0  0  0  0  0  0  0  0
    2.9516   28.0154    7.7860 N   0  0  0  0  0  0  0  0  0  0  0  0
    0.6026   27.8091    6.6024 N   0  0  0  0  0  0  0  0  0  0  0  0
    5.1232   26.7989    7.2175 C   0  0  0  0  0  0  0  0  0  0  0  0
    7.0035   24.4095    5.6327 C   0  0  0  0  0  0  0  0  0  0  0  0
    6.3675   23.4063    6.5317 C   0  0  0  0  0  0  0  0  0  0  0  0
    5.8216   25.2942    5.2368 C   0  0  0  0  0  0  0  0  0  0  0  0
    5.5897   24.3693    7.4178 C   0  0  0  0  0  0  0  0  0  0  0  0
    5.0140   25.4016    6.5233 C   0  0  0  0  0  0  0  0  0  0  0  0
    3.5813   25.0133    6.2049 C   0  0  0  0  0  0  0  0  0  0  0  0
    3.6072   23.0237    5.0019 O   0  0  0  0  0  0  0  0  0  0  0  0
    2.8517   22.9321    7.0377 O   0  0  0  0  0  0  0  0  0  0  0  0
    3.3514   23.5314    6.0802 C   0  0  0  0  0  0  0  0  0  0  0  0
    2.6820   23.3877    7.8387 H   0  0  0  0  0  0  0  0  0  0  0  0
   -0.5699   28.0132    5.7546 C   0  0  0  0  0  0  0  0  0  0  0  0
   -0.9311   30.8862    2.6564 C   0  0  0  0  0  0  0  0  0  0  0  0
   -1.4216   29.6379    2.4933 C   0  0  0  0  0  0  0  0  0  0  0  0
   -0.2851   31.2035    3.8138 C   0  0  0  0  0  0  0  0  0  0  0  0
   -1.2696   28.7407    3.5073 C   0  0  0  0  0  0  0  0  0  0  0  0
   -0.1462   30.3032    4.8280 C   0  0  0  0  0  0  0  0  0  0  0  0
   -0.6019   29.0398    4.6384 C   0  0  0  0  0  0  0  0  0  0  0  0
   -4.2925   29.1423    7.5356 C   0  0  0  0  0  0  0  0  0  0  0  0
   -3.1401   29.7697    7.9400 C   0  0  0  0  0  0  0  0  0  0  0  0
   -4.2616   28.1510    6.5888 C   0  0  0  0  0  0  0  0  0  0  0  0
   -1.9261   29.4236    7.4015 C   0  0  0  0  0  0  0  0  0  0  0  0
   -3.0573   27.8099    6.0477 C   0  0  0  0  0  0  0  0  0  0  0  0
   -1.8765   28.4155    6.4692 C   0  0  0  0  0  0  0  0  0  0  0  0
 16 18  2  0  0  0
  1  6  2  0  0  0
 17 18  1  0  0  0
 21 22  2  0  0  0
 21 23  1  0  0  0
 27 28  2  0  0  0
 27 29  1  0  0  0
 22 24  1  0  0  0
 23 25  2  0  0  0
 28 30  1  0  0  0
 29 31  2  0  0  0
 24 26  2  0  0  0
 25 26  1  0  0  0
 30 32  2  0  0  0
 31 32  1  0  0  0
 10 11  1  0  0  0
 10 12  1  0  0  0
 11 13  1  0  0  0
  2  4  1  0  0  0
  2  7  1  0  0  0
  3  5  1  0  0  0
  3  7  1  0  0  0
  4  8  1  0  0  0
  5  8  1  0  0  0
 12 14  1  0  0  0
 13 14  1  0  0  0
 15 18  1  0  0  0
 15 14  1  0  0  0
  9  6  1  0  0  0
  9 14  1  0  0  0
  6  7  1  0  0  0
 26 20  1  0  0  0
 32 20  1  0  0  0
 20  8  1  0  0  0
 17 19  1  0  0  0
M  END
> <minimizedAffinity>
-9.61983

$$$$
3TFN_2CJ_A_301


 32 35  0  0  0  0  0  0  0  0999 V2000
    4.9256   28.8361    9.1462 O   0  0  0  0  0  0  0  0  0  0  0  0
    3.4074   26.6657    6.7553 C   0  0  0  0  0  0  0  0  0  0  0  0
    3.6959   29.1036    6.7331 C   0  0  0  0  0  0  0  0  0  0  0  0
    1.8766   26.8693    6.8043 C   0  0  0  0  0  0  0  0  0  0  0  0
    2.4317   28.9521    5.8955 C   0  0  0  0  0  0  0  0  0  0  0  0
    4.5652   27.7907    8.6529 C   0  0  0  0  0  0  0  0  0  0  0  0
    3.9661   27.8351    7.4459 N   0  0  0  0  0  0  0  0  0  0  0  0
    1.4593   28.2927    6.7618 N   0  0  0  0  0  0  0  0  0  0  0  0
    4.8457   26.5360    9.4603 C   0  0  0  0  0  0  0  0  0  0  0  0
    7.9182   26.7762   10.9630 C   0  0  0  0  0  0  0  0  0  0  0  0
    8.0246   25.2960   10.8334 C   0  0  0  0  0  0  0  0  0  0  0  0
    7.3419   27.1857    9.6078 C   0  0  0  0  0  0  0  0  0  0  0  0
    6.6261   25.0228   10.2974 C   0  0  0  0  0  0  0  0  0  0  0  0
    6.3350   26.0843    9.3046 C   0  0  0  0  0  0  0  0  0  0  0  0
    6.6438   25.5422    7.9206 C   0  0  0  0  0  0  0  0  0  0  0  0
    7.2375   23.3028    7.7249 O   0  0  0  0  0  0  0  0  0  0  0  0
    5.1273   23.7819    7.5218 O   0  0  0  0  0  0  0  0  0  0  0  0
    6.3053   24.0881    7.7321 C   0  0  0  0  0  0  0  0  0  0  0  0
    4.4611   24.4404    7.5434 H   0  0  0  0  0  0  0  0  0  0  0  0
    0.1318   28.2319    6.1543 C   0  0  0  0  0  0  0  0  0  0  0  0
   -1.1221   30.3063    2.6746 C   0  0  0  0  0  0  0  0  0  0  0  0
   -1.3519   28.9811    2.8018 C   0  0  0  0  0  0  0  0  0  0  0  0
   -0.4495   30.9648    3.6603 C   0  0  0  0  0  0  0  0  0  0  0  0
   -0.9177   28.3499    3.9285 C   0  0  0  0  0  0  0  0  0  0  0  0
   -0.0274   30.3282    4.7895 C   0  0  0  0  0  0  0  0  0  0  0  0
   -0.2227   28.9897    4.8889 C   0  0  0  0  0  0  0  0  0  0  0  0
   -3.2535   29.5713    8.4014 C   0  0  0  0  0  0  0  0  0  0  0  0
   -1.9940   29.9367    8.8080 C   0  0  0  0  0  0  0  0  0  0  0  0
   -3.4365   28.7712    7.3031 C   0  0  0  0  0  0  0  0  0  0  0  0
   -0.8840   29.5138    8.1204 C   0  0  0  0  0  0  0  0  0  0  0  0
   -2.3354   28.3551    6.6146 C   0  0  0  0  0  0  0  0  0  0  0  0
   -1.0505   28.6919    7.0319 C   0  0  0  0  0  0  0  0  0  0  0  0
 16 18  2  0  0  0
  1  6  2  0  0  0
 17 18  1  0  0  0
 21 22  2  0  0  0
 21 23  1  0  0  0
 27 28  2  0  0  0
 27 29  1  0  0  0
 22 24  1  0  0  0
 23 25  2  0  0  0
 28 30  1  0  0  0
 29 31  2  0  0  0
 24 26  2  0  0  0
 25 26  1  0  0  0
 30 32  2  0  0  0
 31 32  1  0  0  0
 10 11  1  0  0  0
 10 12  1  0  0  0
 11 13  1  0  0  0
  2  4  1  0  0  0
  2  7  1  0  0  0
  3  5  1  0  0  0
  3  7  1  0  0  0
  4  8  1  0  0  0
  5  8  1  0  0  0
 12 14  1  0  0  0
 13 14  1  0  0  0
 15 18  1  0  0  0
 15 14  1  0  0  0
  9  6  1  0  0  0
  9 14  1  0  0  0
  6  7  1  0  0  0
 26 20  1  0  0  0
 32 20  1  0  0  0
 20  8  1  0  0  0
 17 19  1  0  0  0
M  END
> <minimizedAffinity>
-9.20428

$$$$
3TFN_2CJ_A_301


 32 35  0  0  0  0  0  0  0  0999 V2000
    4.9371   29.0624    9.1666 O   0  0  0  0  0  0  0  0  0  0  0  0
    3.4204   26.7190    6.9441 C   0  0  0  0  0  0  0  0  0  0  0  0
    3.7193   29.1467    6.7343 C   0  0  0  0  0  0  0  0  0  0  0  0
    1.8902   26.9317    6.9699 C   0  0  0  0  0  0  0  0  0  0  0  0
    2.4581   28.9356    5.9049 C   0  0  0  0  0  0  0  0  0  0  0  0
    4.5746   27.9832    8.7542 C   0  0  0  0  0  0  0  0  0  0  0  0
    3.9810   27.9363    7.5446 N   0  0  0  0  0  0  0  0  0  0  0  0
    1.4792   28.3491    6.8152 N   0  0  0  0  0  0  0  0  0  0  0  0
    4.8462   26.7938    9.6577 C   0  0  0  0  0  0  0  0  0  0  0  0
    6.8972   24.0775    9.2447 C   0  0  0  0  0  0  0  0  0  0  0  0
    7.6478   24.8794    8.2384 C   0  0  0  0  0  0  0  0  0  0  0  0
    6.6574   25.0917   10.3628 C   0  0  0  0  0  0  0  0  0  0  0  0
    6.7366   26.0987    8.2074 C   0  0  0  0  0  0  0  0  0  0  0  0
    6.3541   26.3809    9.6113 C   0  0  0  0  0  0  0  0  0  0  0  0
    7.2762   27.4595   10.1506 C   0  0  0  0  0  0  0  0  0  0  0  0
    7.3806   27.2611   12.4649 O   0  0  0  0  0  0  0  0  0  0  0  0
    9.1624   26.7093   11.3494 O   0  0  0  0  0  0  0  0  0  0  0  0
    7.9895   27.0893   11.4229 C   0  0  0  0  0  0  0  0  0  0  0  0
    9.5674   26.5987   10.5117 H   0  0  0  0  0  0  0  0  0  0  0  0
    0.1541   28.2465    6.2079 C   0  0  0  0  0  0  0  0  0  0  0  0
   -1.1380   30.2196    2.6836 C   0  0  0  0  0  0  0  0  0  0  0  0
   -1.3684   28.8991    2.8527 C   0  0  0  0  0  0  0  0  0  0  0  0
   -0.4527   30.9056    3.6414 C   0  0  0  0  0  0  0  0  0  0  0  0
   -0.9218   28.3007    3.9923 C   0  0  0  0  0  0  0  0  0  0  0  0
   -0.0180   30.3019    4.7838 C   0  0  0  0  0  0  0  0  0  0  0  0
   -0.2143   28.9673    4.9251 C   0  0  0  0  0  0  0  0  0  0  0  0
   -3.2595   29.5717    8.4206 C   0  0  0  0  0  0  0  0  0  0  0  0
   -2.0059   29.9465    8.8369 C   0  0  0  0  0  0  0  0  0  0  0  0
   -3.4276   28.7666    7.3234 C   0  0  0  0  0  0  0  0  0  0  0  0
   -0.8872   29.5285    8.1605 C   0  0  0  0  0  0  0  0  0  0  0  0
   -2.3178   28.3553    6.6461 C   0  0  0  0  0  0  0  0  0  0  0  0
   -1.0388   28.7018    7.0736 C   0  0  0  0  0  0  0  0  0  0  0  0
 16 18  2  0  0  0
  1  6  2  0  0  0
 17 18  1  0  0  0
 21 22  2  0  0  0
 21 23  1  0  0  0
 27 28  2  0  0  0
 27 29  1  0  0  0
 22 24  1  0  0  0
 23 25  2  0  0  0
 28 30  1  0  0  0
 29 31  2  0  0  0
 24 26  2  0  0  0
 25 26  1  0  0  0
 30 32  2  0  0  0
 31 32  1  0  0  0
 10 11  1  0  0  0
 10 12  1  0  0  0
 11 13  1  0  0  0
  2  4  1  0  0  0
  2  7  1  0  0  0
  3  5  1  0  0  0
  3  7  1  0  0  0
  4  8  1  0  0  0
  5  8  1  0  0  0
 12 14  1  0  0  0
 13 14  1  0  0  0
 15 18  1  0  0  0
 15 14  1  0  0  0
  9  6  1  0  0  0
  9 14  1  0  0  0
  6  7  1  0  0  0
 26 20  1  0  0  0
 32 20  1  0  0  0
 20  8  1  0  0  0
 17 19  1  0  0  0
M  END
> <minimizedAffinity>
-9.08065

$$$$
3TFN_2CJ_A_301


 32 35  0  0  0  0  0  0  0  0999 V2000
    2.7443   29.0978    5.8435 O   0  0  0  0  0  0  0  0  0  0  0  0
    2.5442   27.9018    9.1994 C   0  0  0  0  0  0  0  0  0  0  0  0
    4.1289   29.4613    8.1581 C   0  0  0  0  0  0  0  0  0  0  0  0
    3.7086   26.9159    9.4434 C   0  0  0  0  0  0  0  0  0  0  0  0
    4.9916   28.8636    9.2633 C   0  0  0  0  0  0  0  0  0  0  0  0
    2.2996   28.4878    6.7903 C   0  0  0  0  0  0  0  0  0  0  0  0
    2.9164   28.6314    7.9805 N   0  0  0  0  0  0  0  0  0  0  0  0
    5.0300   27.4278    9.0030 N   0  0  0  0  0  0  0  0  0  0  0  0
    1.0759   27.6305    6.5212 C   0  0  0  0  0  0  0  0  0  0  0  0
   -1.4246   28.2887    4.2696 C   0  0  0  0  0  0  0  0  0  0  0  0
   -2.3902   28.1165    5.3908 C   0  0  0  0  0  0  0  0  0  0  0  0
   -0.3092   29.1086    4.9176 C   0  0  0  0  0  0  0  0  0  0  0  0
   -1.4051   27.6639    6.4596 C   0  0  0  0  0  0  0  0  0  0  0  0
   -0.1988   28.5130    6.3146 C   0  0  0  0  0  0  0  0  0  0  0  0
   -0.2934   29.6527    7.3131 C   0  0  0  0  0  0  0  0  0  0  0  0
   -2.2213   29.9917    8.5678 O   0  0  0  0  0  0  0  0  0  0  0  0
   -0.7636   28.5902    9.3643 O   0  0  0  0  0  0  0  0  0  0  0  0
   -1.1754   29.3694    8.4989 C   0  0  0  0  0  0  0  0  0  0  0  0
    0.0520   28.1448    9.2438 H   0  0  0  0  0  0  0  0  0  0  0  0
    5.9660   26.7328    9.8839 C   0  0  0  0  0  0  0  0  0  0  0  0
    9.8303   28.0815   10.9940 C   0  0  0  0  0  0  0  0  0  0  0  0
    8.7914   28.2008   11.8495 C   0  0  0  0  0  0  0  0  0  0  0  0
    9.6172   27.5565    9.7544 C   0  0  0  0  0  0  0  0  0  0  0  0
    7.5631   27.7700   11.4468 C   0  0  0  0  0  0  0  0  0  0  0  0
    8.3872   27.1181    9.3626 C   0  0  0  0  0  0  0  0  0  0  0  0
    7.3415   27.2825   10.2107 C   0  0  0  0  0  0  0  0  0  0  0  0
    6.9395   22.7721    8.5917 C   0  0  0  0  0  0  0  0  0  0  0  0
    7.0846   23.0976    9.9177 C   0  0  0  0  0  0  0  0  0  0  0  0
    6.5085   23.7010    7.6799 C   0  0  0  0  0  0  0  0  0  0  0  0
    6.7960   24.3622   10.3659 C   0  0  0  0  0  0  0  0  0  0  0  0
    6.2150   24.9564    8.1242 C   0  0  0  0  0  0  0  0  0  0  0  0
    6.3860   25.3103    9.4598 C   0  0  0  0  0  0  0  0  0  0  0  0
 16 18  2  0  0  0
  1  6  2  0  0  0
 17 18  1  0  0  0
 21 22  2  0  0  0
 21 23  1  0  0  0
 27 28  2  0  0  0
 27 29  1  0  0  0
 22 24  1  0  0  0
 23 25  2  0  0  0
 28 30  1  0  0  0
 29 31  2  0  0  0
 24 26  2  0  0  0
 25 26  1  0  0  0
 30 32  2  0  0  0
 31 32  1  0  0  0
 10 11  1  0  0  0
 10 12  1  0  0  0
 11 13  1  0  0  0
  2  4  1  0  0  0
  2  7  1  0  0  0
  3  5  1  0  0  0
  3  7  1  0  0  0
  4  8  1  0  0  0
  5  8  1  0  0  0
 12 14  1  0  0  0
 13 14  1  0  0  0
 15 18  1  0  0  0
 15 14  1  0  0  0
  9  6  1  0  0  0
  9 14  1  0  0  0
  6  7  1  0  0  0
 26 20  1  0  0  0
 32 20  1  0  0  0
 20  8  1  0  0  0
 17 19  1  0  0  0
M  END
> <minimizedAffinity>
-8.98856

$$$$
