4OR4_M7G_A_501


 37 39  0  0  0  0  0  0  0  0999 V2000
   -7.9310   23.6886  -43.1606 C   0  0  0  0  0  0  0  0  0  0  0  0
   -8.1538   22.4116  -42.5474 O   0  0  0  0  0  0  0  0  0  0  0  0
   -6.5296   23.6593  -43.7571 C   0  0  0  0  0  0  0  0  0  0  0  0
   -5.6510   24.1819  -42.7704 O   0  0  0  0  0  0  0  0  0  0  0  0
   -6.2739   22.1807  -43.9019 C   0  0  0  0  0  0  0  0  0  0  0  0
   -4.8726   21.9375  -43.7090 O   0  0  0  0  0  0  0  0  0  0  0  0
   -7.0460   21.5302  -42.7399 C   0  0  0  0  0  0  0  0  0  0  0  0
   -5.7613   23.6862  -41.9440 H   0  0  0  0  0  0  0  0  0  0  0  0
   -4.6015   22.2788  -42.8425 H   0  0  0  0  0  0  0  0  0  0  0  0
   -7.2354   20.0525  -42.9769 N   0  0  0  0  0  0  0  0  0  0  0  0
   -7.9493   19.2669  -44.0918 C   0  0  0  0  0  0  0  0  0  0  0  0
   -8.0983   17.7729  -43.6968 N   0  0  0  0  0  0  0  0  0  0  0  0
   -8.6791   17.0526  -44.6188 C   0  0  0  0  0  0  0  0  0  0  0  0
   -7.9346   17.9386  -42.2928 C   0  0  0  0  0  0  0  0  0  0  0  0
   -8.1705   17.0726  -41.1475 C   0  0  0  0  0  0  0  0  0  0  0  0
   -8.5703   15.9591  -41.3912 O   0  0  0  0  0  0  0  0  0  0  0  0
   -7.9523   17.5411  -39.8696 N   0  0  0  0  0  0  0  0  0  0  0  0
   -7.4643   18.7896  -39.5815 C   0  0  0  0  0  0  0  0  0  0  0  0
   -7.2308   19.2486  -38.3098 N   0  0  0  0  0  0  0  0  0  0  0  0
   -7.2297   19.6629  -40.5909 N   0  0  0  0  0  0  0  0  0  0  0  0
   -7.4811   19.2850  -41.8776 C   0  0  0  0  0  0  0  0  0  0  0  0
   -8.1597   16.9417  -39.1166 H   0  0  0  0  0  0  0  0  0  0  0  0
   -7.3841   18.6578  -37.5374 H   0  0  0  0  0  0  0  0  0  0  0  0
   -6.9099   20.1687  -38.1698 H   0  0  0  0  0  0  0  0  0  0  0  0
   -8.9193   23.8120  -44.3210 C   0  0  0  0  0  0  0  0  0  0  0  0
   -9.6807   24.9923  -44.0608 O   0  0  0  0  0  0  0  0  0  0  0  0
  -11.1478   24.8063  -43.3443 P   0  0  0  0  0  0  0  0  0  0  0  0
  -12.1963   24.3100  -44.3206 O   0  0  0  0  0  0  0  0  0  0  0  0
  -10.9281   24.1452  -42.0571 O   0  0  0  0  0  0  0  0  0  0  0  0
  -11.7789   24.0208  -41.6081 H   0  0  0  0  0  0  0  0  0  0  0  0
  -11.5546   26.3448  -42.9322 O   0  0  0  0  0  0  0  0  0  0  0  0
  -11.7839   27.5395  -44.0027 P   0  0  0  0  0  0  0  0  0  0  0  0
  -12.7651   28.6269  -43.6812 O   0  0  0  0  0  0  0  0  0  0  0  0
  -10.3812   28.0355  -44.2685 O   0  0  0  0  0  0  0  0  0  0  0  0
  -12.4123   27.0624  -45.3966 O   0  0  0  0  0  0  0  0  0  0  0  0
   -9.9795   28.3306  -43.4363 H   0  0  0  0  0  0  0  0  0  0  0  0
  -13.3150   26.7390  -45.2505 H   0  0  0  0  0  0  0  0  0  0  0  0
 27 28  2  0  0  0
 27 29  1  0  0  0
 27 31  1  0  0  0
 27 26  1  0  0  0
 31 32  1  0  0  0
 26 25  1  0  0  0
 32 33  2  0  0  0
 32 34  1  0  0  0
 32 35  1  0  0  0
 25  1  1  0  0  0
  1  2  1  0  0  0
  1  3  1  0  0  0
  2  7  1  0  0  0
  3  4  1  0  0  0
  3  5  1  0  0  0
  5  6  1  0  0  0
  5  7  1  0  0  0
  7 10  1  0  0  0
 10 11  1  0  0  0
 10 21  1  0  0  0
 11 12  1  0  0  0
 12 13  1  0  0  0
 12 14  1  0  0  0
 14 15  1  0  0  0
 14 21  2  0  0  0
 15 16  2  0  0  0
 15 17  1  0  0  0
 17 18  1  0  0  0
 18 19  1  0  0  0
 18 20  2  0  0  0
 20 21  1  0  0  0
 29 30  1  0  0  0
 34 36  1  0  0  0
 35 37  1  0  0  0
  4  8  1  0  0  0
  6  9  1  0  0  0
 17 22  1  0  0  0
 19 23  1  0  0  0
 19 24  1  0  0  0
M  END
> <minimizedAffinity>
-8.68840

$$$$
4OR4_M7G_A_501


 37 39  0  0  0  0  0  0  0  0999 V2000
   -8.1257   23.7734  -43.1208 C   0  0  0  0  0  0  0  0  0  0  0  0
   -8.3279   22.4812  -42.5327 O   0  0  0  0  0  0  0  0  0  0  0  0
   -6.7113   23.7903  -43.6864 C   0  0  0  0  0  0  0  0  0  0  0  0
   -5.8685   24.3197  -42.6725 O   0  0  0  0  0  0  0  0  0  0  0  0
   -6.4136   22.3214  -43.8486 C   0  0  0  0  0  0  0  0  0  0  0  0
   -5.0108   22.1118  -43.6285 O   0  0  0  0  0  0  0  0  0  0  0  0
   -7.1932   21.6322  -42.7143 C   0  0  0  0  0  0  0  0  0  0  0  0
   -5.9836   23.8079  -41.8566 H   0  0  0  0  0  0  0  0  0  0  0  0
   -4.7677   22.4460  -42.7509 H   0  0  0  0  0  0  0  0  0  0  0  0
   -7.3382   20.1541  -42.9785 N   0  0  0  0  0  0  0  0  0  0  0  0
   -8.0482   19.3678  -44.0953 C   0  0  0  0  0  0  0  0  0  0  0  0
   -8.1395   17.8619  -43.7289 N   0  0  0  0  0  0  0  0  0  0  0  0
   -8.7146   17.1413  -44.6543 C   0  0  0  0  0  0  0  0  0  0  0  0
   -7.9529   18.0045  -42.3253 C   0  0  0  0  0  0  0  0  0  0  0  0
   -8.1367   17.1080  -41.1939 C   0  0  0  0  0  0  0  0  0  0  0  0
   -8.5042   15.9869  -41.4531 O   0  0  0  0  0  0  0  0  0  0  0  0
   -7.9082   17.5575  -39.9110 N   0  0  0  0  0  0  0  0  0  0  0  0
   -7.4562   18.8156  -39.6065 C   0  0  0  0  0  0  0  0  0  0  0  0
   -7.2123   19.2563  -38.3303 N   0  0  0  0  0  0  0  0  0  0  0  0
   -7.2712   19.7165  -40.6018 N   0  0  0  0  0  0  0  0  0  0  0  0
   -7.5360   19.3567  -41.8909 C   0  0  0  0  0  0  0  0  0  0  0  0
   -8.0804   16.9363  -39.1669 H   0  0  0  0  0  0  0  0  0  0  0  0
   -7.3302   18.6451  -37.5675 H   0  0  0  0  0  0  0  0  0  0  0  0
   -6.9194   20.1836  -38.1773 H   0  0  0  0  0  0  0  0  0  0  0  0
   -9.0915   23.8896  -44.3007 C   0  0  0  0  0  0  0  0  0  0  0  0
   -8.6976   25.0636  -45.0126 O   0  0  0  0  0  0  0  0  0  0  0  0
   -9.8883   26.0005  -45.6490 P   0  0  0  0  0  0  0  0  0  0  0  0
   -9.8377   27.4196  -45.1177 O   0  0  0  0  0  0  0  0  0  0  0  0
   -9.9459   25.7235  -47.0850 O   0  0  0  0  0  0  0  0  0  0  0  0
  -10.6421   26.2635  -47.4908 H   0  0  0  0  0  0  0  0  0  0  0  0
  -11.2575   25.3076  -45.0593 O   0  0  0  0  0  0  0  0  0  0  0  0
  -12.2849   26.0477  -44.0481 P   0  0  0  0  0  0  0  0  0  0  0  0
  -13.6290   25.4325  -43.7966 O   0  0  0  0  0  0  0  0  0  0  0  0
  -11.4553   26.2446  -42.8001 O   0  0  0  0  0  0  0  0  0  0  0  0
  -12.7768   27.4878  -44.5474 O   0  0  0  0  0  0  0  0  0  0  0  0
  -11.1455   25.3834  -42.4786 H   0  0  0  0  0  0  0  0  0  0  0  0
  -13.3127   27.3863  -45.3495 H   0  0  0  0  0  0  0  0  0  0  0  0
 27 28  2  0  0  0
 27 29  1  0  0  0
 27 31  1  0  0  0
 27 26  1  0  0  0
 31 32  1  0  0  0
 26 25  1  0  0  0
 32 33  2  0  0  0
 32 34  1  0  0  0
 32 35  1  0  0  0
 25  1  1  0  0  0
  1  2  1  0  0  0
  1  3  1  0  0  0
  2  7  1  0  0  0
  3  4  1  0  0  0
  3  5  1  0  0  0
  5  6  1  0  0  0
  5  7  1  0  0  0
  7 10  1  0  0  0
 10 11  1  0  0  0
 10 21  1  0  0  0
 11 12  1  0  0  0
 12 13  1  0  0  0
 12 14  1  0  0  0
 14 15  1  0  0  0
 14 21  2  0  0  0
 15 16  2  0  0  0
 15 17  1  0  0  0
 17 18  1  0  0  0
 18 19  1  0  0  0
 18 20  2  0  0  0
 20 21  1  0  0  0
 29 30  1  0  0  0
 34 36  1  0  0  0
 35 37  1  0  0  0
  4  8  1  0  0  0
  6  9  1  0  0  0
 17 22  1  0  0  0
 19 23  1  0  0  0
 19 24  1  0  0  0
M  END
> <minimizedAffinity>
-8.57552

$$$$
4OR4_M7G_A_501


 37 39  0  0  0  0  0  0  0  0999 V2000
   -8.8068   23.9394  -43.3482 C   0  0  0  0  0  0  0  0  0  0  0  0
   -8.9947   22.5264  -43.5052 O   0  0  0  0  0  0  0  0  0  0  0  0
   -7.7736   24.1328  -42.2455 C   0  0  0  0  0  0  0  0  0  0  0  0
   -8.4922   24.2758  -41.0283 O   0  0  0  0  0  0  0  0  0  0  0  0
   -7.0618   22.8040  -42.2368 C   0  0  0  0  0  0  0  0  0  0  0  0
   -6.6451   22.5168  -40.8937 O   0  0  0  0  0  0  0  0  0  0  0  0
   -8.1345   21.7780  -42.6443 C   0  0  0  0  0  0  0  0  0  0  0  0
   -9.0864   23.5179  -40.9126 H   0  0  0  0  0  0  0  0  0  0  0  0
   -7.4168   22.5292  -40.3061 H   0  0  0  0  0  0  0  0  0  0  0  0
   -7.5025   20.4800  -43.0820 N   0  0  0  0  0  0  0  0  0  0  0  0
   -7.6115   19.6633  -44.3823 C   0  0  0  0  0  0  0  0  0  0  0  0
   -6.9848   18.2552  -44.1961 N   0  0  0  0  0  0  0  0  0  0  0  0
   -7.0296   17.5250  -45.2783 C   0  0  0  0  0  0  0  0  0  0  0  0
   -7.0396   18.2180  -42.7745 C   0  0  0  0  0  0  0  0  0  0  0  0
   -6.8729   17.1569  -41.7928 C   0  0  0  0  0  0  0  0  0  0  0  0
   -6.6098   16.0612  -42.2277 O   0  0  0  0  0  0  0  0  0  0  0  0
   -7.0306   17.4260  -40.4500 N   0  0  0  0  0  0  0  0  0  0  0  0
   -7.2931   18.6719  -39.9414 C   0  0  0  0  0  0  0  0  0  0  0  0
   -7.4324   18.9418  -38.6035 N   0  0  0  0  0  0  0  0  0  0  0  0
   -7.4750   19.7133  -40.7893 N   0  0  0  0  0  0  0  0  0  0  0  0
   -7.3923   19.5056  -42.1352 C   0  0  0  0  0  0  0  0  0  0  0  0
   -6.9497   16.6766  -39.8166 H   0  0  0  0  0  0  0  0  0  0  0  0
   -7.3115   18.2234  -37.9412 H   0  0  0  0  0  0  0  0  0  0  0  0
   -7.6532   19.8538  -38.3056 H   0  0  0  0  0  0  0  0  0  0  0  0
   -8.1919   24.4612  -44.6475 C   0  0  0  0  0  0  0  0  0  0  0  0
   -9.0768   25.4799  -45.1159 O   0  0  0  0  0  0  0  0  0  0  0  0
  -10.1455   25.0729  -46.2961 P   0  0  0  0  0  0  0  0  0  0  0  0
   -9.6931   25.5544  -47.6607 O   0  0  0  0  0  0  0  0  0  0  0  0
  -10.5432   23.6827  -46.0690 O   0  0  0  0  0  0  0  0  0  0  0  0
  -11.1763   23.4119  -46.7522 H   0  0  0  0  0  0  0  0  0  0  0  0
  -11.4855   25.9362  -45.8939 O   0  0  0  0  0  0  0  0  0  0  0  0
  -12.0643   26.0612  -44.3855 P   0  0  0  0  0  0  0  0  0  0  0  0
  -13.3669   26.7694  -44.1618 O   0  0  0  0  0  0  0  0  0  0  0  0
  -12.0484   24.6324  -43.8929 O   0  0  0  0  0  0  0  0  0  0  0  0
  -11.1515   26.9341  -43.4006 O   0  0  0  0  0  0  0  0  0  0  0  0
  -12.5961   24.0834  -44.4755 H   0  0  0  0  0  0  0  0  0  0  0  0
  -11.1465   27.8575  -43.6978 H   0  0  0  0  0  0  0  0  0  0  0  0
 27 28  2  0  0  0
 27 29  1  0  0  0
 27 31  1  0  0  0
 27 26  1  0  0  0
 31 32  1  0  0  0
 26 25  1  0  0  0
 32 33  2  0  0  0
 32 34  1  0  0  0
 32 35  1  0  0  0
 25  1  1  0  0  0
  1  2  1  0  0  0
  1  3  1  0  0  0
  2  7  1  0  0  0
  3  4  1  0  0  0
  3  5  1  0  0  0
  5  6  1  0  0  0
  5  7  1  0  0  0
  7 10  1  0  0  0
 10 11  1  0  0  0
 10 21  1  0  0  0
 11 12  1  0  0  0
 12 13  1  0  0  0
 12 14  1  0  0  0
 14 15  1  0  0  0
 14 21  2  0  0  0
 15 16  2  0  0  0
 15 17  1  0  0  0
 17 18  1  0  0  0
 18 19  1  0  0  0
 18 20  2  0  0  0
 20 21  1  0  0  0
 29 30  1  0  0  0
 34 36  1  0  0  0
 35 37  1  0  0  0
  4  8  1  0  0  0
  6  9  1  0  0  0
 17 22  1  0  0  0
 19 23  1  0  0  0
 19 24  1  0  0  0
M  END
> <minimizedAffinity>
-8.02990

$$$$
4OR4_M7G_A_501


 37 39  0  0  0  0  0  0  0  0999 V2000
  -11.1185   26.0073  -43.6717 C   0  0  0  0  0  0  0  0  0  0  0  0
  -10.1628   25.0687  -43.1600 O   0  0  0  0  0  0  0  0  0  0  0  0
  -10.7168   26.3154  -45.1086 C   0  0  0  0  0  0  0  0  0  0  0  0
   -9.8818   27.4640  -45.0656 O   0  0  0  0  0  0  0  0  0  0  0  0
   -9.8771   25.1169  -45.4704 C   0  0  0  0  0  0  0  0  0  0  0  0
   -8.8543   25.5345  -46.3866 O   0  0  0  0  0  0  0  0  0  0  0  0
   -9.2062   24.6914  -44.1519 C   0  0  0  0  0  0  0  0  0  0  0  0
   -9.1462   27.3063  -44.4532 H   0  0  0  0  0  0  0  0  0  0  0  0
   -8.3323   26.2470  -45.9857 H   0  0  0  0  0  0  0  0  0  0  0  0
   -8.6702   23.2845  -44.2475 N   0  0  0  0  0  0  0  0  0  0  0  0
   -9.2203   22.0112  -44.9152 C   0  0  0  0  0  0  0  0  0  0  0  0
   -8.4134   20.7651  -44.4612 N   0  0  0  0  0  0  0  0  0  0  0  0
   -8.8241   19.6562  -45.0161 C   0  0  0  0  0  0  0  0  0  0  0  0
   -7.8597   21.3283  -43.2773 C   0  0  0  0  0  0  0  0  0  0  0  0
   -7.1720   20.7636  -42.1259 C   0  0  0  0  0  0  0  0  0  0  0  0
   -6.9903   19.5695  -42.1430 O   0  0  0  0  0  0  0  0  0  0  0  0
   -6.7798   21.5791  -41.0861 N   0  0  0  0  0  0  0  0  0  0  0  0
   -6.9475   22.9398  -41.0711 C   0  0  0  0  0  0  0  0  0  0  0  0
   -6.5408   23.7527  -40.0434 N   0  0  0  0  0  0  0  0  0  0  0  0
   -7.5901   23.5437  -42.1002 N   0  0  0  0  0  0  0  0  0  0  0  0
   -8.0583   22.7882  -43.1353 C   0  0  0  0  0  0  0  0  0  0  0  0
   -6.3525   21.1582  -40.3054 H   0  0  0  0  0  0  0  0  0  0  0  0
   -6.0691   23.3688  -39.2693 H   0  0  0  0  0  0  0  0  0  0  0  0
   -6.7208   24.7199  -40.0801 H   0  0  0  0  0  0  0  0  0  0  0  0
  -12.4715   25.2960  -43.7177 C   0  0  0  0  0  0  0  0  0  0  0  0
  -13.4371   26.3123  -43.9917 O   0  0  0  0  0  0  0  0  0  0  0  0
  -14.7298   25.9005  -44.9190 P   0  0  0  0  0  0  0  0  0  0  0  0
  -14.3670   25.8088  -46.3882 O   0  0  0  0  0  0  0  0  0  0  0  0
  -15.4328   24.8135  -44.2359 O   0  0  0  0  0  0  0  0  0  0  0  0
  -16.2039   24.5472  -44.7605 H   0  0  0  0  0  0  0  0  0  0  0  0
  -15.7346   27.1899  -44.7443 O   0  0  0  0  0  0  0  0  0  0  0  0
  -15.2392   28.7327  -44.7524 P   0  0  0  0  0  0  0  0  0  0  0  0
  -14.8499   29.3657  -46.0548 O   0  0  0  0  0  0  0  0  0  0  0  0
  -16.3516   29.4537  -44.0263 O   0  0  0  0  0  0  0  0  0  0  0  0
  -13.8767   28.9906  -43.9508 O   0  0  0  0  0  0  0  0  0  0  0  0
  -17.1889   29.3114  -44.4948 H   0  0  0  0  0  0  0  0  0  0  0  0
  -13.1466   28.5362  -44.3995 H   0  0  0  0  0  0  0  0  0  0  0  0
 27 28  2  0  0  0
 27 29  1  0  0  0
 27 31  1  0  0  0
 27 26  1  0  0  0
 31 32  1  0  0  0
 26 25  1  0  0  0
 32 33  2  0  0  0
 32 34  1  0  0  0
 32 35  1  0  0  0
 25  1  1  0  0  0
  1  2  1  0  0  0
  1  3  1  0  0  0
  2  7  1  0  0  0
  3  4  1  0  0  0
  3  5  1  0  0  0
  5  6  1  0  0  0
  5  7  1  0  0  0
  7 10  1  0  0  0
 10 11  1  0  0  0
 10 21  1  0  0  0
 11 12  1  0  0  0
 12 13  1  0  0  0
 12 14  1  0  0  0
 14 15  1  0  0  0
 14 21  2  0  0  0
 15 16  2  0  0  0
 15 17  1  0  0  0
 17 18  1  0  0  0
 18 19  1  0  0  0
 18 20  2  0  0  0
 20 21  1  0  0  0
 29 30  1  0  0  0
 34 36  1  0  0  0
 35 37  1  0  0  0
  4  8  1  0  0  0
  6  9  1  0  0  0
 17 22  1  0  0  0
 19 23  1  0  0  0
 19 24  1  0  0  0
M  END
> <minimizedAffinity>
-7.83562

$$$$
4OR4_M7G_A_501


 37 39  0  0  0  0  0  0  0  0999 V2000
   -8.0957   22.2464  -44.6053 C   0  0  0  0  0  0  0  0  0  0  0  0
   -8.2484   21.2914  -43.5466 O   0  0  0  0  0  0  0  0  0  0  0  0
   -6.8566   21.8438  -45.3948 C   0  0  0  0  0  0  0  0  0  0  0  0
   -5.7625   22.5578  -44.8366 O   0  0  0  0  0  0  0  0  0  0  0  0
   -6.7142   20.3844  -45.0450 C   0  0  0  0  0  0  0  0  0  0  0  0
   -5.3183   20.0503  -45.0348 O   0  0  0  0  0  0  0  0  0  0  0  0
   -7.2538   20.2675  -43.6081 C   0  0  0  0  0  0  0  0  0  0  0  0
   -5.7198   22.3898  -43.8822 H   0  0  0  0  0  0  0  0  0  0  0  0
   -4.8518   20.6294  -44.4119 H   0  0  0  0  0  0  0  0  0  0  0  0
   -7.5652   18.8325  -43.2626 N   0  0  0  0  0  0  0  0  0  0  0  0
   -8.4412   17.7697  -43.9503 C   0  0  0  0  0  0  0  0  0  0  0  0
   -8.6484   16.5465  -43.0169 N   0  0  0  0  0  0  0  0  0  0  0  0
   -9.3681   15.6012  -43.5600 C   0  0  0  0  0  0  0  0  0  0  0  0
   -8.3303   17.1966  -41.7916 C   0  0  0  0  0  0  0  0  0  0  0  0
   -8.5044   16.8376  -40.3922 C   0  0  0  0  0  0  0  0  0  0  0  0
   -9.0009   15.7583  -40.1739 O   0  0  0  0  0  0  0  0  0  0  0  0
   -8.1248   17.7163  -39.4003 N   0  0  0  0  0  0  0  0  0  0  0  0
   -7.5272   18.9280  -39.6342 C   0  0  0  0  0  0  0  0  0  0  0  0
   -7.1337   19.7941  -38.6456 N   0  0  0  0  0  0  0  0  0  0  0  0
   -7.3398   19.3435  -40.9104 N   0  0  0  0  0  0  0  0  0  0  0  0
   -7.7472   18.5488  -41.9419 C   0  0  0  0  0  0  0  0  0  0  0  0
   -8.2933   17.4577  -38.4654 H   0  0  0  0  0  0  0  0  0  0  0  0
   -7.2459   19.5451  -37.6997 H   0  0  0  0  0  0  0  0  0  0  0  0
   -6.7393   20.6645  -38.8820 H   0  0  0  0  0  0  0  0  0  0  0  0
   -9.3005   22.0892  -45.5338 C   0  0  0  0  0  0  0  0  0  0  0  0
   -9.6855   23.4150  -45.9007 O   0  0  0  0  0  0  0  0  0  0  0  0
  -11.2646   23.8272  -45.7082 P   0  0  0  0  0  0  0  0  0  0  0  0
  -11.5660   25.1984  -46.2806 O   0  0  0  0  0  0  0  0  0  0  0  0
  -12.0707   22.6576  -46.0607 O   0  0  0  0  0  0  0  0  0  0  0  0
  -13.0115   22.8700  -45.9569 H   0  0  0  0  0  0  0  0  0  0  0  0
  -11.4210   23.9353  -44.0753 O   0  0  0  0  0  0  0  0  0  0  0  0
  -10.5106   24.8945  -43.1389 P   0  0  0  0  0  0  0  0  0  0  0  0
   -9.9008   24.3282  -41.8916 O   0  0  0  0  0  0  0  0  0  0  0  0
   -9.5043   25.4668  -44.1106 O   0  0  0  0  0  0  0  0  0  0  0  0
  -11.3076   26.1153  -42.4758 O   0  0  0  0  0  0  0  0  0  0  0  0
   -9.0083   24.7439  -44.5256 H   0  0  0  0  0  0  0  0  0  0  0  0
  -11.9609   25.7713  -41.8467 H   0  0  0  0  0  0  0  0  0  0  0  0
 27 28  2  0  0  0
 27 29  1  0  0  0
 27 31  1  0  0  0
 27 26  1  0  0  0
 31 32  1  0  0  0
 26 25  1  0  0  0
 32 33  2  0  0  0
 32 34  1  0  0  0
 32 35  1  0  0  0
 25  1  1  0  0  0
  1  2  1  0  0  0
  1  3  1  0  0  0
  2  7  1  0  0  0
  3  4  1  0  0  0
  3  5  1  0  0  0
  5  6  1  0  0  0
  5  7  1  0  0  0
  7 10  1  0  0  0
 10 11  1  0  0  0
 10 21  1  0  0  0
 11 12  1  0  0  0
 12 13  1  0  0  0
 12 14  1  0  0  0
 14 15  1  0  0  0
 14 21  2  0  0  0
 15 16  2  0  0  0
 15 17  1  0  0  0
 17 18  1  0  0  0
 18 19  1  0  0  0
 18 20  2  0  0  0
 20 21  1  0  0  0
 29 30  1  0  0  0
 34 36  1  0  0  0
 35 37  1  0  0  0
  4  8  1  0  0  0
  6  9  1  0  0  0
 17 22  1  0  0  0
 19 23  1  0  0  0
 19 24  1  0  0  0
M  END
> <minimizedAffinity>
-7.24006

$$$$
4OR4_M7G_A_501


 37 39  0  0  0  0  0  0  0  0999 V2000
   -6.9811   22.0515  -43.3434 C   0  0  0  0  0  0  0  0  0  0  0  0
   -6.6600   20.7916  -42.7385 O   0  0  0  0  0  0  0  0  0  0  0  0
   -7.2005   21.7911  -44.8282 C   0  0  0  0  0  0  0  0  0  0  0  0
   -5.9525   22.0045  -45.4727 O   0  0  0  0  0  0  0  0  0  0  0  0
   -7.5143   20.3168  -44.8519 C   0  0  0  0  0  0  0  0  0  0  0  0
   -7.0157   19.7624  -46.0783 O   0  0  0  0  0  0  0  0  0  0  0  0
   -6.7069   19.7218  -43.6843 C   0  0  0  0  0  0  0  0  0  0  0  0
   -5.2727   21.4561  -45.0508 H   0  0  0  0  0  0  0  0  0  0  0  0
   -6.0652   19.9416  -46.1513 H   0  0  0  0  0  0  0  0  0  0  0  0
   -7.2210   18.3527  -43.3138 N   0  0  0  0  0  0  0  0  0  0  0  0
   -8.1348   17.3568  -44.0505 C   0  0  0  0  0  0  0  0  0  0  0  0
   -8.5859   16.2202  -43.0941 N   0  0  0  0  0  0  0  0  0  0  0  0
   -9.3475   15.3316  -43.6743 C   0  0  0  0  0  0  0  0  0  0  0  0
   -8.3304   16.9000  -41.8702 C   0  0  0  0  0  0  0  0  0  0  0  0
   -8.6985   16.6437  -40.4859 C   0  0  0  0  0  0  0  0  0  0  0  0
   -9.3395   15.6410  -40.2789 O   0  0  0  0  0  0  0  0  0  0  0  0
   -8.3298   17.5301  -39.4967 N   0  0  0  0  0  0  0  0  0  0  0  0
   -7.5718   18.6519  -39.7133 C   0  0  0  0  0  0  0  0  0  0  0  0
   -7.1904   19.5240  -38.7252 N   0  0  0  0  0  0  0  0  0  0  0  0
   -7.1975   18.9698  -40.9764 N   0  0  0  0  0  0  0  0  0  0  0  0
   -7.5793   18.1676  -42.0118 C   0  0  0  0  0  0  0  0  0  0  0  0
   -8.6294   17.3461  -38.5771 H   0  0  0  0  0  0  0  0  0  0  0  0
   -7.4345   19.3439  -37.7886 H   0  0  0  0  0  0  0  0  0  0  0  0
   -6.6727   20.3298  -38.9527 H   0  0  0  0  0  0  0  0  0  0  0  0
   -8.3176   22.5077  -42.7567 C   0  0  0  0  0  0  0  0  0  0  0  0
   -8.8378   23.4707  -43.6745 O   0  0  0  0  0  0  0  0  0  0  0  0
  -10.3732   24.0018  -43.4279 P   0  0  0  0  0  0  0  0  0  0  0  0
  -11.3348   23.4571  -44.4659 O   0  0  0  0  0  0  0  0  0  0  0  0
  -10.6520   23.8916  -41.9953 O   0  0  0  0  0  0  0  0  0  0  0  0
  -11.5546   24.1989  -41.8169 H   0  0  0  0  0  0  0  0  0  0  0  0
  -10.2484   25.6213  -43.6811 O   0  0  0  0  0  0  0  0  0  0  0  0
  -10.1445   26.3042  -45.1470 P   0  0  0  0  0  0  0  0  0  0  0  0
   -9.7943   27.7586  -45.2495 O   0  0  0  0  0  0  0  0  0  0  0  0
   -9.1944   25.3892  -45.8848 O   0  0  0  0  0  0  0  0  0  0  0  0
  -11.5263   26.3390  -45.9561 O   0  0  0  0  0  0  0  0  0  0  0  0
   -8.3483   25.3524  -45.4119 H   0  0  0  0  0  0  0  0  0  0  0  0
  -12.1535   26.9217  -45.5000 H   0  0  0  0  0  0  0  0  0  0  0  0
 27 28  2  0  0  0
 27 29  1  0  0  0
 27 31  1  0  0  0
 27 26  1  0  0  0
 31 32  1  0  0  0
 26 25  1  0  0  0
 32 33  2  0  0  0
 32 34  1  0  0  0
 32 35  1  0  0  0
 25  1  1  0  0  0
  1  2  1  0  0  0
  1  3  1  0  0  0
  2  7  1  0  0  0
  3  4  1  0  0  0
  3  5  1  0  0  0
  5  6  1  0  0  0
  5  7  1  0  0  0
  7 10  1  0  0  0
 10 11  1  0  0  0
 10 21  1  0  0  0
 11 12  1  0  0  0
 12 13  1  0  0  0
 12 14  1  0  0  0
 14 15  1  0  0  0
 14 21  2  0  0  0
 15 16  2  0  0  0
 15 17  1  0  0  0
 17 18  1  0  0  0
 18 19  1  0  0  0
 18 20  2  0  0  0
 20 21  1  0  0  0
 29 30  1  0  0  0
 34 36  1  0  0  0
 35 37  1  0  0  0
  4  8  1  0  0  0
  6  9  1  0  0  0
 17 22  1  0  0  0
 19 23  1  0  0  0
 19 24  1  0  0  0
M  END
> <minimizedAffinity>
-7.08770

$$$$
4OR4_M7G_A_501


 37 39  0  0  0  0  0  0  0  0999 V2000
   -9.3935   24.9297  -43.9407 C   0  0  0  0  0  0  0  0  0  0  0  0
   -9.7343   25.9589  -44.8793 O   0  0  0  0  0  0  0  0  0  0  0  0
  -10.7015   24.3821  -43.3839 C   0  0  0  0  0  0  0  0  0  0  0  0
  -10.9850   25.1163  -42.2010 O   0  0  0  0  0  0  0  0  0  0  0  0
  -11.6927   24.7751  -44.4495 C   0  0  0  0  0  0  0  0  0  0  0  0
  -12.9565   25.0412  -43.8233 O   0  0  0  0  0  0  0  0  0  0  0  0
  -11.1487   26.0934  -45.0289 C   0  0  0  0  0  0  0  0  0  0  0  0
  -10.9837   26.0653  -42.4013 H   0  0  0  0  0  0  0  0  0  0  0  0
  -12.8444   25.7284  -43.1479 H   0  0  0  0  0  0  0  0  0  0  0  0
  -11.7833   26.4002  -46.3627 N   0  0  0  0  0  0  0  0  0  0  0  0
  -11.1999   26.5225  -47.7819 C   0  0  0  0  0  0  0  0  0  0  0  0
  -12.2429   27.1452  -48.7487 N   0  0  0  0  0  0  0  0  0  0  0  0
  -11.8076   27.2519  -49.9756 C   0  0  0  0  0  0  0  0  0  0  0  0
  -13.0703   27.7479  -47.7600 C   0  0  0  0  0  0  0  0  0  0  0  0
  -14.1410   28.7318  -47.8137 C   0  0  0  0  0  0  0  0  0  0  0  0
  -14.4417   29.1370  -48.9112 O   0  0  0  0  0  0  0  0  0  0  0  0
  -14.7428   29.1633  -46.6510 N   0  0  0  0  0  0  0  0  0  0  0  0
  -14.4360   28.6847  -45.4033 C   0  0  0  0  0  0  0  0  0  0  0  0
  -15.0479   29.1022  -44.2485 N   0  0  0  0  0  0  0  0  0  0  0  0
  -13.4414   27.7747  -45.2644 N   0  0  0  0  0  0  0  0  0  0  0  0
  -12.7627   27.3482  -46.3684 C   0  0  0  0  0  0  0  0  0  0  0  0
  -15.4363   29.8586  -46.7209 H   0  0  0  0  0  0  0  0  0  0  0  0
  -15.7771   29.7623  -44.2888 H   0  0  0  0  0  0  0  0  0  0  0  0
  -14.7578   28.7416  -43.3796 H   0  0  0  0  0  0  0  0  0  0  0  0
   -8.7244   23.8025  -44.7282 C   0  0  0  0  0  0  0  0  0  0  0  0
   -7.7284   23.2588  -43.8607 O   0  0  0  0  0  0  0  0  0  0  0  0
   -7.6918   21.6262  -43.6765 P   0  0  0  0  0  0  0  0  0  0  0  0
   -6.4941   21.1744  -42.8641 O   0  0  0  0  0  0  0  0  0  0  0  0
   -9.0491   21.1905  -43.3446 O   0  0  0  0  0  0  0  0  0  0  0  0
   -9.0603   20.2274  -43.2292 H   0  0  0  0  0  0  0  0  0  0  0  0
   -7.4701   21.0867  -45.2135 O   0  0  0  0  0  0  0  0  0  0  0  0
   -6.0457   21.1102  -45.9858 P   0  0  0  0  0  0  0  0  0  0  0  0
   -6.0209   20.9231  -47.4734 O   0  0  0  0  0  0  0  0  0  0  0  0
   -5.4237   22.4059  -45.5183 O   0  0  0  0  0  0  0  0  0  0  0  0
   -5.0591   19.9144  -45.5834 O   0  0  0  0  0  0  0  0  0  0  0  0
   -6.0051   23.1464  -45.7517 H   0  0  0  0  0  0  0  0  0  0  0  0
   -5.4386   19.0704  -45.8743 H   0  0  0  0  0  0  0  0  0  0  0  0
 27 28  2  0  0  0
 27 29  1  0  0  0
 27 31  1  0  0  0
 27 26  1  0  0  0
 31 32  1  0  0  0
 26 25  1  0  0  0
 32 33  2  0  0  0
 32 34  1  0  0  0
 32 35  1  0  0  0
 25  1  1  0  0  0
  1  2  1  0  0  0
  1  3  1  0  0  0
  2  7  1  0  0  0
  3  4  1  0  0  0
  3  5  1  0  0  0
  5  6  1  0  0  0
  5  7  1  0  0  0
  7 10  1  0  0  0
 10 11  1  0  0  0
 10 21  1  0  0  0
 11 12  1  0  0  0
 12 13  1  0  0  0
 12 14  1  0  0  0
 14 15  1  0  0  0
 14 21  2  0  0  0
 15 16  2  0  0  0
 15 17  1  0  0  0
 17 18  1  0  0  0
 18 19  1  0  0  0
 18 20  2  0  0  0
 20 21  1  0  0  0
 29 30  1  0  0  0
 34 36  1  0  0  0
 35 37  1  0  0  0
  4  8  1  0  0  0
  6  9  1  0  0  0
 17 22  1  0  0  0
 19 23  1  0  0  0
 19 24  1  0  0  0
M  END
> <minimizedAffinity>
-6.84625

$$$$
4OR4_M7G_A_501


 37 39  0  0  0  0  0  0  0  0999 V2000
   -9.7027   25.3649  -44.3960 C   0  0  0  0  0  0  0  0  0  0  0  0
  -10.2023   26.4804  -45.1459 O   0  0  0  0  0  0  0  0  0  0  0  0
  -10.9122   24.6074  -43.8630 C   0  0  0  0  0  0  0  0  0  0  0  0
  -11.1844   25.1247  -42.5681 O   0  0  0  0  0  0  0  0  0  0  0  0
  -12.0057   25.0481  -44.8025 C   0  0  0  0  0  0  0  0  0  0  0  0
  -13.2442   25.0851  -44.0781 O   0  0  0  0  0  0  0  0  0  0  0  0
  -11.6299   26.4871  -45.1995 C   0  0  0  0  0  0  0  0  0  0  0  0
  -11.2870   26.0879  -42.6197 H   0  0  0  0  0  0  0  0  0  0  0  0
  -13.1530   25.6727  -43.3117 H   0  0  0  0  0  0  0  0  0  0  0  0
  -12.3789   26.9200  -46.4353 N   0  0  0  0  0  0  0  0  0  0  0  0
  -11.9055   27.3233  -47.8435 C   0  0  0  0  0  0  0  0  0  0  0  0
  -13.0690   27.9637  -48.6475 N   0  0  0  0  0  0  0  0  0  0  0  0
  -12.7283   28.3055  -49.8614 C   0  0  0  0  0  0  0  0  0  0  0  0
  -13.8886   28.3101  -47.5369 C   0  0  0  0  0  0  0  0  0  0  0  0
  -15.0578   29.1625  -47.3818 C   0  0  0  0  0  0  0  0  0  0  0  0
  -15.4703   29.6938  -48.3851 O   0  0  0  0  0  0  0  0  0  0  0  0
  -15.6242   29.3399  -46.1377 N   0  0  0  0  0  0  0  0  0  0  0  0
  -15.1880   28.7143  -44.9983 C   0  0  0  0  0  0  0  0  0  0  0  0
  -15.7636   28.8780  -43.7637 N   0  0  0  0  0  0  0  0  0  0  0  0
  -14.0967   27.9129  -45.0539 N   0  0  0  0  0  0  0  0  0  0  0  0
  -13.4505   27.7401  -46.2431 C   0  0  0  0  0  0  0  0  0  0  0  0
  -16.3898   29.9543  -46.0626 H   0  0  0  0  0  0  0  0  0  0  0  0
  -16.5591   29.4493  -43.6632 H   0  0  0  0  0  0  0  0  0  0  0  0
  -15.3811   28.4242  -42.9781 H   0  0  0  0  0  0  0  0  0  0  0  0
   -8.9835   24.4428  -45.3814 C   0  0  0  0  0  0  0  0  0  0  0  0
   -7.6900   24.2083  -44.8228 O   0  0  0  0  0  0  0  0  0  0  0  0
   -7.1283   22.6640  -44.8315 P   0  0  0  0  0  0  0  0  0  0  0  0
   -7.7889   21.8268  -45.9091 O   0  0  0  0  0  0  0  0  0  0  0  0
   -5.6721   22.7247  -44.6959 O   0  0  0  0  0  0  0  0  0  0  0  0
   -5.3094   21.8251  -44.6977 H   0  0  0  0  0  0  0  0  0  0  0  0
   -7.6345   22.0793  -43.3808 O   0  0  0  0  0  0  0  0  0  0  0  0
   -7.3542   20.5691  -42.8645 P   0  0  0  0  0  0  0  0  0  0  0  0
   -7.2622   20.3087  -41.3907 O   0  0  0  0  0  0  0  0  0  0  0  0
   -8.4232   19.7632  -43.5660 O   0  0  0  0  0  0  0  0  0  0  0  0
   -5.9284   19.9803  -43.2952 O   0  0  0  0  0  0  0  0  0  0  0  0
   -9.2979   20.1025  -43.3196 H   0  0  0  0  0  0  0  0  0  0  0  0
   -5.2248   20.4833  -42.8560 H   0  0  0  0  0  0  0  0  0  0  0  0
 27 28  2  0  0  0
 27 29  1  0  0  0
 27 31  1  0  0  0
 27 26  1  0  0  0
 31 32  1  0  0  0
 26 25  1  0  0  0
 32 33  2  0  0  0
 32 34  1  0  0  0
 32 35  1  0  0  0
 25  1  1  0  0  0
  1  2  1  0  0  0
  1  3  1  0  0  0
  2  7  1  0  0  0
  3  4  1  0  0  0
  3  5  1  0  0  0
  5  6  1  0  0  0
  5  7  1  0  0  0
  7 10  1  0  0  0
 10 11  1  0  0  0
 10 21  1  0  0  0
 11 12  1  0  0  0
 12 13  1  0  0  0
 12 14  1  0  0  0
 14 15  1  0  0  0
 14 21  2  0  0  0
 15 16  2  0  0  0
 15 17  1  0  0  0
 17 18  1  0  0  0
 18 19  1  0  0  0
 18 20  2  0  0  0
 20 21  1  0  0  0
 29 30  1  0  0  0
 34 36  1  0  0  0
 35 37  1  0  0  0
  4  8  1  0  0  0
  6  9  1  0  0  0
 17 22  1  0  0  0
 19 23  1  0  0  0
 19 24  1  0  0  0
M  END
> <minimizedAffinity>
-6.83784

$$$$
4OR4_M7G_A_501


 37 39  0  0  0  0  0  0  0  0999 V2000
  -10.3774   12.6101  -40.5269 C   0  0  0  0  0  0  0  0  0  0  0  0
   -9.5803   13.3581  -41.4550 O   0  0  0  0  0  0  0  0  0  0  0  0
  -10.6924   13.5376  -39.3601 C   0  0  0  0  0  0  0  0  0  0  0  0
   -9.6823   13.3282  -38.3832 O   0  0  0  0  0  0  0  0  0  0  0  0
  -10.5005   14.9010  -39.9738 C   0  0  0  0  0  0  0  0  0  0  0  0
  -10.0131   15.7941  -38.9613 O   0  0  0  0  0  0  0  0  0  0  0  0
   -9.3948   14.7085  -41.0272 C   0  0  0  0  0  0  0  0  0  0  0  0
   -8.8098   13.4521  -38.7886 H   0  0  0  0  0  0  0  0  0  0  0  0
   -9.1941   15.4379  -38.5830 H   0  0  0  0  0  0  0  0  0  0  0  0
   -9.3727   15.8579  -42.0040 N   0  0  0  0  0  0  0  0  0  0  0  0
   -9.3727   15.9078  -43.5426 C   0  0  0  0  0  0  0  0  0  0  0  0
   -9.0464   17.3412  -44.0418 N   0  0  0  0  0  0  0  0  0  0  0  0
   -9.0551   17.4468  -45.3438 C   0  0  0  0  0  0  0  0  0  0  0  0
   -8.4315   17.8139  -42.8486 C   0  0  0  0  0  0  0  0  0  0  0  0
   -7.6252   18.9833  -42.5324 C   0  0  0  0  0  0  0  0  0  0  0  0
   -7.4263   19.7576  -43.4379 O   0  0  0  0  0  0  0  0  0  0  0  0
   -7.1216   19.1528  -41.2605 N   0  0  0  0  0  0  0  0  0  0  0  0
   -7.3701   18.3006  -40.2155 C   0  0  0  0  0  0  0  0  0  0  0  0
   -6.8828   18.4797  -38.9455 N   0  0  0  0  0  0  0  0  0  0  0  0
   -8.1025   17.1804  -40.4285 N   0  0  0  0  0  0  0  0  0  0  0  0
   -8.5821   16.9195  -41.6788 C   0  0  0  0  0  0  0  0  0  0  0  0
   -6.5476   19.9346  -41.0918 H   0  0  0  0  0  0  0  0  0  0  0  0
   -6.3440   19.2758  -38.7328 H   0  0  0  0  0  0  0  0  0  0  0  0
   -7.0719   17.8122  -38.2470 H   0  0  0  0  0  0  0  0  0  0  0  0
  -11.6997   12.2868  -41.2238 C   0  0  0  0  0  0  0  0  0  0  0  0
  -12.6200   11.9601  -40.1814 O   0  0  0  0  0  0  0  0  0  0  0  0
  -14.0608   12.7503  -40.1661 P   0  0  0  0  0  0  0  0  0  0  0  0
  -15.1653   11.9271  -40.7992 O   0  0  0  0  0  0  0  0  0  0  0  0
  -14.2189   13.3511  -38.8408 O   0  0  0  0  0  0  0  0  0  0  0  0
  -15.0634   13.8266  -38.8000 H   0  0  0  0  0  0  0  0  0  0  0  0
  -13.7859   14.0374  -41.1512 O   0  0  0  0  0  0  0  0  0  0  0  0
  -14.7346   15.3495  -41.2143 P   0  0  0  0  0  0  0  0  0  0  0  0
  -14.3530   16.4811  -42.1211 O   0  0  0  0  0  0  0  0  0  0  0  0
  -16.1022   14.7705  -41.4951 O   0  0  0  0  0  0  0  0  0  0  0  0
  -14.8169   16.1687  -39.8404 O   0  0  0  0  0  0  0  0  0  0  0  0
  -16.0767   14.2687  -42.3248 H   0  0  0  0  0  0  0  0  0  0  0  0
  -13.9482   16.5505  -39.6391 H   0  0  0  0  0  0  0  0  0  0  0  0
 27 28  2  0  0  0
 27 29  1  0  0  0
 27 31  1  0  0  0
 27 26  1  0  0  0
 31 32  1  0  0  0
 26 25  1  0  0  0
 32 33  2  0  0  0
 32 34  1  0  0  0
 32 35  1  0  0  0
 25  1  1  0  0  0
  1  2  1  0  0  0
  1  3  1  0  0  0
  2  7  1  0  0  0
  3  4  1  0  0  0
  3  5  1  0  0  0
  5  6  1  0  0  0
  5  7  1  0  0  0
  7 10  1  0  0  0
 10 11  1  0  0  0
 10 21  1  0  0  0
 11 12  1  0  0  0
 12 13  1  0  0  0
 12 14  1  0  0  0
 14 15  1  0  0  0
 14 21  2  0  0  0
 15 16  2  0  0  0
 15 17  1  0  0  0
 17 18  1  0  0  0
 18 19  1  0  0  0
 18 20  2  0  0  0
 20 21  1  0  0  0
 29 30  1  0  0  0
 34 36  1  0  0  0
 35 37  1  0  0  0
  4  8  1  0  0  0
  6  9  1  0  0  0
 17 22  1  0  0  0
 19 23  1  0  0  0
 19 24  1  0  0  0
M  END
> <minimizedAffinity>
-6.68350

$$$$
4OR4_M7G_A_501


 37 39  0  0  0  0  0  0  0  0999 V2000
   -6.9062   16.6289  -42.5487 C   0  0  0  0  0  0  0  0  0  0  0  0
   -6.8106   17.8256  -43.3330 O   0  0  0  0  0  0  0  0  0  0  0  0
   -7.3337   17.0463  -41.1474 C   0  0  0  0  0  0  0  0  0  0  0  0
   -6.1447   17.2309  -40.3918 O   0  0  0  0  0  0  0  0  0  0  0  0
   -7.9675   18.3918  -41.3933 C   0  0  0  0  0  0  0  0  0  0  0  0
   -7.7369   19.2229  -40.2460 O   0  0  0  0  0  0  0  0  0  0  0  0
   -7.1934   18.9816  -42.5859 C   0  0  0  0  0  0  0  0  0  0  0  0
   -5.5629   17.8558  -40.8521 H   0  0  0  0  0  0  0  0  0  0  0  0
   -6.7835   19.2858  -40.0787 H   0  0  0  0  0  0  0  0  0  0  0  0
   -7.9562   20.1206  -43.2155 N   0  0  0  0  0  0  0  0  0  0  0  0
   -8.3651   20.4123  -44.6706 C   0  0  0  0  0  0  0  0  0  0  0  0
   -8.8829   21.8692  -44.8102 N   0  0  0  0  0  0  0  0  0  0  0  0
   -9.2659   22.1650  -46.0235 C   0  0  0  0  0  0  0  0  0  0  0  0
   -8.2833   22.3894  -43.6290 C   0  0  0  0  0  0  0  0  0  0  0  0
   -8.0666   23.7374  -43.1254 C   0  0  0  0  0  0  0  0  0  0  0  0
   -8.4865   24.6391  -43.8107 O   0  0  0  0  0  0  0  0  0  0  0  0
   -7.4000   23.9320  -41.9347 N   0  0  0  0  0  0  0  0  0  0  0  0
   -6.9509   22.9166  -41.1303 C   0  0  0  0  0  0  0  0  0  0  0  0
   -6.3032   23.1113  -39.9366 N   0  0  0  0  0  0  0  0  0  0  0  0
   -7.1021   21.6312  -41.5322 N   0  0  0  0  0  0  0  0  0  0  0  0
   -7.7002   21.3683  -42.7300 C   0  0  0  0  0  0  0  0  0  0  0  0
   -7.2361   24.8581  -41.6436 H   0  0  0  0  0  0  0  0  0  0  0  0
   -6.1648   24.0242  -39.5949 H   0  0  0  0  0  0  0  0  0  0  0  0
   -5.9768   22.3382  -39.4218 H   0  0  0  0  0  0  0  0  0  0  0  0
   -8.0384   15.7889  -43.1410 C   0  0  0  0  0  0  0  0  0  0  0  0
   -8.5729   15.0328  -42.0534 O   0  0  0  0  0  0  0  0  0  0  0  0
   -9.5039   13.7293  -42.4205 P   0  0  0  0  0  0  0  0  0  0  0  0
  -10.0444   13.7995  -43.8353 O   0  0  0  0  0  0  0  0  0  0  0  0
   -8.8098   12.5395  -41.9255 O   0  0  0  0  0  0  0  0  0  0  0  0
   -9.3363   11.7504  -42.1278 H   0  0  0  0  0  0  0  0  0  0  0  0
  -10.7833   13.8911  -41.4010 O   0  0  0  0  0  0  0  0  0  0  0  0
  -10.6640   13.8635  -39.7852 P   0  0  0  0  0  0  0  0  0  0  0  0
   -9.8773   14.9372  -39.0947 O   0  0  0  0  0  0  0  0  0  0  0  0
  -12.1044   13.7712  -39.3367 O   0  0  0  0  0  0  0  0  0  0  0  0
   -9.8827   12.5915  -39.2047 O   0  0  0  0  0  0  0  0  0  0  0  0
  -12.5985   14.5332  -39.6773 H   0  0  0  0  0  0  0  0  0  0  0  0
   -8.9535   12.6292  -39.4805 H   0  0  0  0  0  0  0  0  0  0  0  0
 27 28  2  0  0  0
 27 29  1  0  0  0
 27 31  1  0  0  0
 27 26  1  0  0  0
 31 32  1  0  0  0
 26 25  1  0  0  0
 32 33  2  0  0  0
 32 34  1  0  0  0
 32 35  1  0  0  0
 25  1  1  0  0  0
  1  2  1  0  0  0
  1  3  1  0  0  0
  2  7  1  0  0  0
  3  4  1  0  0  0
  3  5  1  0  0  0
  5  6  1  0  0  0
  5  7  1  0  0  0
  7 10  1  0  0  0
 10 11  1  0  0  0
 10 21  1  0  0  0
 11 12  1  0  0  0
 12 13  1  0  0  0
 12 14  1  0  0  0
 14 15  1  0  0  0
 14 21  2  0  0  0
 15 16  2  0  0  0
 15 17  1  0  0  0
 17 18  1  0  0  0
 18 19  1  0  0  0
 18 20  2  0  0  0
 20 21  1  0  0  0
 29 30  1  0  0  0
 34 36  1  0  0  0
 35 37  1  0  0  0
  4  8  1  0  0  0
  6  9  1  0  0  0
 17 22  1  0  0  0
 19 23  1  0  0  0
 19 24  1  0  0  0
M  END
> <minimizedAffinity>
-6.65787

$$$$
