4Q1X_017_A_101


 42 45  0  0  0  0  0  0  0  0999 V2000
   19.9360   29.6107   15.3601 C   0  0  0  0  0  0  0  0  0  0  0  0
   19.9465   28.5251   16.3183 O   0  0  0  0  0  0  0  0  0  0  0  0
   19.0551   28.1497   16.3913 H   0  0  0  0  0  0  0  0  0  0  0  0
   18.9778   30.6913   15.8634 C   0  0  0  0  0  0  0  0  0  0  0  0
   19.3506   31.9995   15.3105 N   0  0  0  0  0  0  0  0  0  0  0  0
   18.1679   32.7169   14.4678 S   0  0  0  0  0  0  0  0  0  0  0  0
   17.5802   31.7573   13.5697 O   0  0  0  0  0  0  0  0  0  0  0  0
   18.8036   33.7687   13.7454 O   0  0  0  0  0  0  0  0  0  0  0  0
   14.0811   34.9396   17.8995 N   0  0  0  0  0  0  0  0  0  0  0  0
   15.0157   34.3697   17.0977 C   0  0  0  0  0  0  0  0  0  0  0  0
   14.9723   33.0112   16.7570 C   0  0  0  0  0  0  0  0  0  0  0  0
   15.9636   32.4740   15.9318 C   0  0  0  0  0  0  0  0  0  0  0  0
   17.0069   33.2697   15.4457 C   0  0  0  0  0  0  0  0  0  0  0  0
   17.0403   34.6124   15.8017 C   0  0  0  0  0  0  0  0  0  0  0  0
   16.0614   35.1565   16.6319 C   0  0  0  0  0  0  0  0  0  0  0  0
   13.3313   34.4010   18.2413 H   0  0  0  0  0  0  0  0  0  0  0  0
   14.1529   35.8917   18.1394 H   0  0  0  0  0  0  0  0  0  0  0  0
   19.9752   32.8911   16.3221 C   0  0  0  0  0  0  0  0  0  0  0  0
   21.5027   32.8212   16.2539 C   0  0  0  0  0  0  0  0  0  0  0  0
   22.0266   32.8135   14.8113 C   0  0  0  0  0  0  0  0  0  0  0  0
   22.1053   33.9811   17.0447 C   0  0  0  0  0  0  0  0  0  0  0  0
   19.5934   29.1385   13.9508 C   0  0  0  0  0  0  0  0  0  0  0  0
   20.7242   28.3504   13.4865 N   0  0  0  0  0  0  0  0  0  0  0  0
   21.7920   28.8394   12.8627 C   0  0  0  0  0  0  0  0  0  0  0  0
   22.0105   30.0077   12.5833 O   0  0  0  0  0  0  0  0  0  0  0  0
   20.6971   27.3794   13.6465 H   0  0  0  0  0  0  0  0  0  0  0  0
   22.7275   27.7985   12.5240 O   0  0  0  0  0  0  0  0  0  0  0  0
   23.5563   27.8622   11.3670 C   0  0  0  0  0  0  0  0  0  0  0  0
   24.8897   27.2667   11.7743 C   0  0  0  0  0  0  0  0  0  0  0  0
   24.7080   25.8507   11.6674 O   0  0  0  0  0  0  0  0  0  0  0  0
   23.7325   25.6079   10.6458 C   0  0  0  0  0  0  0  0  0  0  0  0
   22.6966   24.7323   11.0782 O   0  0  0  0  0  0  0  0  0  0  0  0
   21.4368   25.4190   11.1239 C   0  0  0  0  0  0  0  0  0  0  0  0
   21.5748   26.6383   10.2240 C   0  0  0  0  0  0  0  0  0  0  0  0
   23.0747   26.9266   10.2742 C   0  0  0  0  0  0  0  0  0  0  0  0
   18.3057   28.3077   13.8253 C   0  0  0  0  0  0  0  0  0  0  0  0
   18.0442   26.5680   12.0213 C   0  0  0  0  0  0  0  0  0  0  0  0
   17.8200   26.1643   10.7120 C   0  0  0  0  0  0  0  0  0  0  0  0
   17.5877   27.1175    9.7400 C   0  0  0  0  0  0  0  0  0  0  0  0
   17.5729   28.4599   10.0893 C   0  0  0  0  0  0  0  0  0  0  0  0
   17.8035   28.8683   11.4024 C   0  0  0  0  0  0  0  0  0  0  0  0
   18.0448   27.9145   12.3824 C   0  0  0  0  0  0  0  0  0  0  0  0
  9 10  1  0  0  0
 10 11  2  0  0  0
 10 15  1  0  0  0
 11 12  1  0  0  0
 12 13  2  0  0  0
 13 14  1  0  0  0
 13  6  1  0  0  0
 14 15  2  0  0  0
  6  7  2  0  0  0
  6  8  2  0  0  0
  6  5  1  0  0  0
  5 18  1  0  0  0
  5  4  1  0  0  0
 18 19  1  0  0  0
 19 20  1  0  0  0
 19 21  1  0  0  0
  4  1  1  0  0  0
  1  2  1  0  0  0
  1 22  1  0  0  0
 22 23  1  0  0  0
 22 36  1  0  0  0
 23 24  1  0  0  0
 24 25  2  0  0  0
 24 27  1  0  0  0
 27 28  1  0  0  0
 28 29  1  0  0  0
 28 35  1  0  0  0
 29 30  1  0  0  0
 30 31  1  0  0  0
 31 32  1  0  0  0
 31 35  1  0  0  0
 32 33  1  0  0  0
 33 34  1  0  0  0
 34 35  1  0  0  0
 36 42  1  0  0  0
 37 38  2  0  0  0
 37 42  1  0  0  0
 38 39  1  0  0  0
 39 40  2  0  0  0
 40 41  1  0  0  0
 41 42  2  0  0  0
  9 16  1  0  0  0
  9 17  1  0  0  0
  2  3  1  0  0  0
 23 26  1  0  0  0
M  END
> <minimizedAffinity>
-9.93132

$$$$
4Q1X_017_A_101


 42 45  0  0  0  0  0  0  0  0999 V2000
   19.4986   30.8546   16.0227 C   0  0  0  0  0  0  0  0  0  0  0  0
   19.6879   29.9688   17.1524 O   0  0  0  0  0  0  0  0  0  0  0  0
   19.2290   30.3301   17.9269 H   0  0  0  0  0  0  0  0  0  0  0  0
   20.1000   32.2172   16.3698 C   0  0  0  0  0  0  0  0  0  0  0  0
   21.4657   32.3204   15.8404 N   0  0  0  0  0  0  0  0  0  0  0  0
   21.5337   32.5180   14.2342 S   0  0  0  0  0  0  0  0  0  0  0  0
   22.7430   33.2225   13.8966 O   0  0  0  0  0  0  0  0  0  0  0  0
   20.3832   33.2905   13.8999 O   0  0  0  0  0  0  0  0  0  0  0  0
   21.5393   27.5494   11.2792 N   0  0  0  0  0  0  0  0  0  0  0  0
   21.5625   28.6900   12.0138 C   0  0  0  0  0  0  0  0  0  0  0  0
   22.1095   28.7310   13.3032 C   0  0  0  0  0  0  0  0  0  0  0  0
   22.1028   29.9313   14.0185 C   0  0  0  0  0  0  0  0  0  0  0  0
   21.5495   31.0941   13.4711 C   0  0  0  0  0  0  0  0  0  0  0  0
   21.0021   31.0331   12.1954 C   0  0  0  0  0  0  0  0  0  0  0  0
   20.9954   29.8386   11.4767 C   0  0  0  0  0  0  0  0  0  0  0  0
   21.9353   26.7234   11.6399 H   0  0  0  0  0  0  0  0  0  0  0  0
   21.1264   27.5478   10.3855 H   0  0  0  0  0  0  0  0  0  0  0  0
   22.2967   33.2994   16.5884 C   0  0  0  0  0  0  0  0  0  0  0  0
   21.4270   34.3650   17.2598 C   0  0  0  0  0  0  0  0  0  0  0  0
   21.8869   34.6840   18.6888 C   0  0  0  0  0  0  0  0  0  0  0  0
   21.4081   35.6279   16.4004 C   0  0  0  0  0  0  0  0  0  0  0  0
   18.0362   30.9534   15.6004 C   0  0  0  0  0  0  0  0  0  0  0  0
   17.4426   32.0194   16.3920 N   0  0  0  0  0  0  0  0  0  0  0  0
   16.1761   32.4166   16.3118 C   0  0  0  0  0  0  0  0  0  0  0  0
   15.3072   31.9632   15.5837 O   0  0  0  0  0  0  0  0  0  0  0  0
   18.0238   32.4831   17.0374 H   0  0  0  0  0  0  0  0  0  0  0  0
   15.9050   33.5009   17.2196 O   0  0  0  0  0  0  0  0  0  0  0  0
   15.3666   34.7461   16.7845 C   0  0  0  0  0  0  0  0  0  0  0  0
   14.2051   35.0464   17.7115 C   0  0  0  0  0  0  0  0  0  0  0  0
   14.8048   35.6194   18.8784 O   0  0  0  0  0  0  0  0  0  0  0  0
   16.0075   36.2854   18.4735 C   0  0  0  0  0  0  0  0  0  0  0  0
   17.1306   35.9113   19.2644 O   0  0  0  0  0  0  0  0  0  0  0  0
   18.0982   35.2068   18.4718 C   0  0  0  0  0  0  0  0  0  0  0  0
   17.8160   35.5681   17.0209 C   0  0  0  0  0  0  0  0  0  0  0  0
   16.3234   35.8956   17.0390 C   0  0  0  0  0  0  0  0  0  0  0  0
   17.7952   31.2305   14.1074 C   0  0  0  0  0  0  0  0  0  0  0  0
   18.1725   28.7472   13.9062 C   0  0  0  0  0  0  0  0  0  0  0  0
   18.1788   27.5472   13.2081 C   0  0  0  0  0  0  0  0  0  0  0  0
   17.7786   27.5307   11.8864 C   0  0  0  0  0  0  0  0  0  0  0  0
   17.3683   28.7100   11.2820 C   0  0  0  0  0  0  0  0  0  0  0  0
   17.3664   29.9174   11.9792 C   0  0  0  0  0  0  0  0  0  0  0  0
   17.7749   29.9411   13.3062 C   0  0  0  0  0  0  0  0  0  0  0  0
  9 10  1  0  0  0
 10 11  2  0  0  0
 10 15  1  0  0  0
 11 12  1  0  0  0
 12 13  2  0  0  0
 13 14  1  0  0  0
 13  6  1  0  0  0
 14 15  2  0  0  0
  6  7  2  0  0  0
  6  8  2  0  0  0
  6  5  1  0  0  0
  5 18  1  0  0  0
  5  4  1  0  0  0
 18 19  1  0  0  0
 19 20  1  0  0  0
 19 21  1  0  0  0
  4  1  1  0  0  0
  1  2  1  0  0  0
  1 22  1  0  0  0
 22 23  1  0  0  0
 22 36  1  0  0  0
 23 24  1  0  0  0
 24 25  2  0  0  0
 24 27  1  0  0  0
 27 28  1  0  0  0
 28 29  1  0  0  0
 28 35  1  0  0  0
 29 30  1  0  0  0
 30 31  1  0  0  0
 31 32  1  0  0  0
 31 35  1  0  0  0
 32 33  1  0  0  0
 33 34  1  0  0  0
 34 35  1  0  0  0
 36 42  1  0  0  0
 37 38  2  0  0  0
 37 42  1  0  0  0
 38 39  1  0  0  0
 39 40  2  0  0  0
 40 41  1  0  0  0
 41 42  2  0  0  0
  9 16  1  0  0  0
  9 17  1  0  0  0
  2  3  1  0  0  0
 23 26  1  0  0  0
M  END
> <minimizedAffinity>
-9.64353

$$$$
4Q1X_017_A_101


 42 45  0  0  0  0  0  0  0  0999 V2000
   18.0333   30.5939   14.7021 C   0  0  0  0  0  0  0  0  0  0  0  0
   18.3673   29.2440   15.1060 O   0  0  0  0  0  0  0  0  0  0  0  0
   19.2505   29.0168   14.7755 H   0  0  0  0  0  0  0  0  0  0  0  0
   18.0262   30.6542   13.1740 C   0  0  0  0  0  0  0  0  0  0  0  0
   18.6862   29.4676   12.6149 N   0  0  0  0  0  0  0  0  0  0  0  0
   17.6640   28.3954   11.9600 S   0  0  0  0  0  0  0  0  0  0  0  0
   16.5135   29.0931   11.4477 O   0  0  0  0  0  0  0  0  0  0  0  0
   17.2981   27.5229   13.0263 O   0  0  0  0  0  0  0  0  0  0  0  0
   20.0866   25.7492    7.4271 N   0  0  0  0  0  0  0  0  0  0  0  0
   19.5435   26.3353    8.5238 C   0  0  0  0  0  0  0  0  0  0  0  0
   19.8116   25.8760    9.8201 C   0  0  0  0  0  0  0  0  0  0  0  0
   19.2212   26.5131   10.9146 C   0  0  0  0  0  0  0  0  0  0  0  0
   18.3573   27.5994   10.7371 C   0  0  0  0  0  0  0  0  0  0  0  0
   18.0944   28.0354    9.4443 C   0  0  0  0  0  0  0  0  0  0  0  0
   18.6709   27.4011    8.3447 C   0  0  0  0  0  0  0  0  0  0  0  0
   20.7076   24.9922    7.5302 H   0  0  0  0  0  0  0  0  0  0  0  0
   19.8597   26.0809    6.5284 H   0  0  0  0  0  0  0  0  0  0  0  0
   19.8253   29.8128   11.7249 C   0  0  0  0  0  0  0  0  0  0  0  0
   21.1620   29.4219   12.3598 C   0  0  0  0  0  0  0  0  0  0  0  0
   20.9919   28.4545   13.5390 C   0  0  0  0  0  0  0  0  0  0  0  0
   22.0806   28.8248   11.2952 C   0  0  0  0  0  0  0  0  0  0  0  0
   18.9626   31.6325   15.3221 C   0  0  0  0  0  0  0  0  0  0  0  0
   18.1398   32.4739   16.1767 N   0  0  0  0  0  0  0  0  0  0  0  0
   18.2085   33.8006   16.2376 C   0  0  0  0  0  0  0  0  0  0  0  0
   18.9499   34.5294   15.5975 O   0  0  0  0  0  0  0  0  0  0  0  0
   17.4807   32.0265   16.7552 H   0  0  0  0  0  0  0  0  0  0  0  0
   17.2687   34.3341   17.1892 O   0  0  0  0  0  0  0  0  0  0  0  0
   15.9303   34.6707   16.8358 C   0  0  0  0  0  0  0  0  0  0  0  0
   15.0444   34.0057   17.8709 C   0  0  0  0  0  0  0  0  0  0  0  0
   15.0591   34.8947   18.9930 O   0  0  0  0  0  0  0  0  0  0  0  0
   15.2570   36.2251   18.4982 C   0  0  0  0  0  0  0  0  0  0  0  0
   16.3070   36.9081   19.1749 O   0  0  0  0  0  0  0  0  0  0  0  0
   17.3975   37.1766   18.2809 C   0  0  0  0  0  0  0  0  0  0  0  0
   16.8303   37.1038   16.8708 C   0  0  0  0  0  0  0  0  0  0  0  0
   15.6483   36.1484   17.0317 C   0  0  0  0  0  0  0  0  0  0  0  0
   20.1364   31.0675   16.1388 C   0  0  0  0  0  0  0  0  0  0  0  0
   22.1386   31.9151   14.8650 C   0  0  0  0  0  0  0  0  0  0  0  0
   23.2734   32.7016   14.7204 C   0  0  0  0  0  0  0  0  0  0  0  0
   23.6451   33.5489   15.7459 C   0  0  0  0  0  0  0  0  0  0  0  0
   22.8741   33.6067   16.8976 C   0  0  0  0  0  0  0  0  0  0  0  0
   21.7372   32.8136   17.0476 C   0  0  0  0  0  0  0  0  0  0  0  0
   21.3630   31.9546   16.0227 C   0  0  0  0  0  0  0  0  0  0  0  0
  9 10  1  0  0  0
 10 11  2  0  0  0
 10 15  1  0  0  0
 11 12  1  0  0  0
 12 13  2  0  0  0
 13 14  1  0  0  0
 13  6  1  0  0  0
 14 15  2  0  0  0
  6  7  2  0  0  0
  6  8  2  0  0  0
  6  5  1  0  0  0
  5 18  1  0  0  0
  5  4  1  0  0  0
 18 19  1  0  0  0
 19 20  1  0  0  0
 19 21  1  0  0  0
  4  1  1  0  0  0
  1  2  1  0  0  0
  1 22  1  0  0  0
 22 23  1  0  0  0
 22 36  1  0  0  0
 23 24  1  0  0  0
 24 25  2  0  0  0
 24 27  1  0  0  0
 27 28  1  0  0  0
 28 29  1  0  0  0
 28 35  1  0  0  0
 29 30  1  0  0  0
 30 31  1  0  0  0
 31 32  1  0  0  0
 31 35  1  0  0  0
 32 33  1  0  0  0
 33 34  1  0  0  0
 34 35  1  0  0  0
 36 42  1  0  0  0
 37 38  2  0  0  0
 37 42  1  0  0  0
 38 39  1  0  0  0
 39 40  2  0  0  0
 40 41  1  0  0  0
 41 42  2  0  0  0
  9 16  1  0  0  0
  9 17  1  0  0  0
  2  3  1  0  0  0
 23 26  1  0  0  0
M  END
> <minimizedAffinity>
-9.06562

$$$$
4Q1X_017_A_101


 42 45  0  0  0  0  0  0  0  0999 V2000
   18.7369   29.0507   13.9787 C   0  0  0  0  0  0  0  0  0  0  0  0
   17.6033   28.4540   14.6537 O   0  0  0  0  0  0  0  0  0  0  0  0
   16.7906   28.6629   14.1671 H   0  0  0  0  0  0  0  0  0  0  0  0
   18.5434   30.5676   13.9562 C   0  0  0  0  0  0  0  0  0  0  0  0
   19.2805   31.1910   15.0626 N   0  0  0  0  0  0  0  0  0  0  0  0
   20.6916   31.8522   14.6209 S   0  0  0  0  0  0  0  0  0  0  0  0
   20.5369   32.4767   13.3329 O   0  0  0  0  0  0  0  0  0  0  0  0
   21.6126   30.7662   14.5537 O   0  0  0  0  0  0  0  0  0  0  0  0
   22.2001   36.0552   18.2921 N   0  0  0  0  0  0  0  0  0  0  0  0
   21.8720   35.0331   17.4621 C   0  0  0  0  0  0  0  0  0  0  0  0
   22.2700   33.7139   17.7164 C   0  0  0  0  0  0  0  0  0  0  0  0
   21.9093   32.6997   16.8255 C   0  0  0  0  0  0  0  0  0  0  0  0
   21.1629   32.9812   15.6759 C   0  0  0  0  0  0  0  0  0  0  0  0
   20.7853   34.2964   15.4339 C   0  0  0  0  0  0  0  0  0  0  0  0
   21.1477   35.3173   16.3114 C   0  0  0  0  0  0  0  0  0  0  0  0
   22.7131   35.8772   19.1133 H   0  0  0  0  0  0  0  0  0  0  0  0
   21.9252   36.9748   18.0731 H   0  0  0  0  0  0  0  0  0  0  0  0
   18.4321   32.1035   15.8727 C   0  0  0  0  0  0  0  0  0  0  0  0
   17.1884   32.5397   15.0946 C   0  0  0  0  0  0  0  0  0  0  0  0
   15.8864   32.2274   15.8448 C   0  0  0  0  0  0  0  0  0  0  0  0
   17.2836   34.0290   14.7680 C   0  0  0  0  0  0  0  0  0  0  0  0
   18.9548   28.4702   12.5851 C   0  0  0  0  0  0  0  0  0  0  0  0
   20.3118   27.9475   12.5564 N   0  0  0  0  0  0  0  0  0  0  0  0
   21.3643   28.5810   12.0471 C   0  0  0  0  0  0  0  0  0  0  0  0
   21.3792   29.6886   11.5337 O   0  0  0  0  0  0  0  0  0  0  0  0
   20.4628   27.0553   12.9441 H   0  0  0  0  0  0  0  0  0  0  0  0
   22.5623   27.7906   12.1630 O   0  0  0  0  0  0  0  0  0  0  0  0
   23.6025   27.8318   11.1904 C   0  0  0  0  0  0  0  0  0  0  0  0
   24.8510   27.3342   11.8920 C   0  0  0  0  0  0  0  0  0  0  0  0
   24.7535   25.9066   11.8476 O   0  0  0  0  0  0  0  0  0  0  0  0
   24.0132   25.5522   10.6727 C   0  0  0  0  0  0  0  0  0  0  0  0
   22.9491   24.6482   10.9508 O   0  0  0  0  0  0  0  0  0  0  0  0
   21.6781   25.2670   10.7006 C   0  0  0  0  0  0  0  0  0  0  0  0
   21.9425   26.4376    9.7650 C   0  0  0  0  0  0  0  0  0  0  0  0
   23.3887   26.8093   10.0902 C   0  0  0  0  0  0  0  0  0  0  0  0
   17.9721   27.3639   12.1673 C   0  0  0  0  0  0  0  0  0  0  0  0
   17.8747   25.8093   10.1865 C   0  0  0  0  0  0  0  0  0  0  0  0
   17.9389   25.5263    8.8289 C   0  0  0  0  0  0  0  0  0  0  0  0
   18.1687   26.5525    7.9335 C   0  0  0  0  0  0  0  0  0  0  0  0
   18.3217   27.8484    8.4042 C   0  0  0  0  0  0  0  0  0  0  0  0
   18.2634   28.1343    9.7676 C   0  0  0  0  0  0  0  0  0  0  0  0
   18.0399   27.1053   10.6729 C   0  0  0  0  0  0  0  0  0  0  0  0
  9 10  1  0  0  0
 10 11  2  0  0  0
 10 15  1  0  0  0
 11 12  1  0  0  0
 12 13  2  0  0  0
 13 14  1  0  0  0
 13  6  1  0  0  0
 14 15  2  0  0  0
  6  7  2  0  0  0
  6  8  2  0  0  0
  6  5  1  0  0  0
  5 18  1  0  0  0
  5  4  1  0  0  0
 18 19  1  0  0  0
 19 20  1  0  0  0
 19 21  1  0  0  0
  4  1  1  0  0  0
  1  2  1  0  0  0
  1 22  1  0  0  0
 22 23  1  0  0  0
 22 36  1  0  0  0
 23 24  1  0  0  0
 24 25  2  0  0  0
 24 27  1  0  0  0
 27 28  1  0  0  0
 28 29  1  0  0  0
 28 35  1  0  0  0
 29 30  1  0  0  0
 30 31  1  0  0  0
 31 32  1  0  0  0
 31 35  1  0  0  0
 32 33  1  0  0  0
 33 34  1  0  0  0
 34 35  1  0  0  0
 36 42  1  0  0  0
 37 38  2  0  0  0
 37 42  1  0  0  0
 38 39  1  0  0  0
 39 40  2  0  0  0
 40 41  1  0  0  0
 41 42  2  0  0  0
  9 16  1  0  0  0
  9 17  1  0  0  0
  2  3  1  0  0  0
 23 26  1  0  0  0
M  END
> <minimizedAffinity>
-9.06076

$$$$
4Q1X_017_A_101


 42 45  0  0  0  0  0  0  0  0999 V2000
   18.3889   34.2594   15.6138 C   0  0  0  0  0  0  0  0  0  0  0  0
   17.8030   34.4586   14.3047 O   0  0  0  0  0  0  0  0  0  0  0  0
   16.9379   34.0214   14.2677 H   0  0  0  0  0  0  0  0  0  0  0  0
   18.5774   32.7581   15.8363 C   0  0  0  0  0  0  0  0  0  0  0  0
   19.7773   32.2862   15.1337 N   0  0  0  0  0  0  0  0  0  0  0  0
   19.4925   31.7624   13.6277 S   0  0  0  0  0  0  0  0  0  0  0  0
   19.7953   32.8176   12.6963 O   0  0  0  0  0  0  0  0  0  0  0  0
   18.1047   31.4380   13.5970 O   0  0  0  0  0  0  0  0  0  0  0  0
   22.8757   27.3265   12.1126 N   0  0  0  0  0  0  0  0  0  0  0  0
   22.0814   28.3487   12.5190 C   0  0  0  0  0  0  0  0  0  0  0  0
   21.6548   28.4737   13.8479 C   0  0  0  0  0  0  0  0  0  0  0  0
   20.8327   29.5433   14.2117 C   0  0  0  0  0  0  0  0  0  0  0  0
   20.4198   30.4896   13.2672 C   0  0  0  0  0  0  0  0  0  0  0  0
   20.8438   30.3448   11.9519 C   0  0  0  0  0  0  0  0  0  0  0  0
   21.6566   29.2762   11.5763 C   0  0  0  0  0  0  0  0  0  0  0  0
   23.1886   26.6575   12.7635 H   0  0  0  0  0  0  0  0  0  0  0  0
   23.1390   27.2538   11.1667 H   0  0  0  0  0  0  0  0  0  0  0  0
   20.9052   33.2503   15.2169 C   0  0  0  0  0  0  0  0  0  0  0  0
   22.1941   32.5572   15.6650 C   0  0  0  0  0  0  0  0  0  0  0  0
   23.4144   32.9993   14.8459 C   0  0  0  0  0  0  0  0  0  0  0  0
   22.4201   32.8075   17.1550 C   0  0  0  0  0  0  0  0  0  0  0  0
   17.5713   34.9148   16.7222 C   0  0  0  0  0  0  0  0  0  0  0  0
   18.4375   35.8947   17.3583 N   0  0  0  0  0  0  0  0  0  0  0  0
   18.8048   35.8750   18.6363 C   0  0  0  0  0  0  0  0  0  0  0  0
   18.4943   35.0477   19.4787 O   0  0  0  0  0  0  0  0  0  0  0  0
   18.7785   36.6299   16.7993 H   0  0  0  0  0  0  0  0  0  0  0  0
   19.6564   36.9908   18.9574 O   0  0  0  0  0  0  0  0  0  0  0  0
   19.8678   38.0751   18.0578 C   0  0  0  0  0  0  0  0  0  0  0  0
   20.0262   39.3107   18.9218 C   0  0  0  0  0  0  0  0  0  0  0  0
   21.3930   39.2892   19.3472 O   0  0  0  0  0  0  0  0  0  0  0  0
   22.1595   38.6280   18.3327 C   0  0  0  0  0  0  0  0  0  0  0  0
   22.9901   37.5992   18.8605 O   0  0  0  0  0  0  0  0  0  0  0  0
   22.5713   36.3123   18.3818 C   0  0  0  0  0  0  0  0  0  0  0  0
   21.7565   36.5627   17.1214 C   0  0  0  0  0  0  0  0  0  0  0  0
   21.2055   37.9697   17.3498 C   0  0  0  0  0  0  0  0  0  0  0  0
   16.2710   35.5994   16.2697 C   0  0  0  0  0  0  0  0  0  0  0  0
   14.8247   36.0430   18.2849 C   0  0  0  0  0  0  0  0  0  0  0  0
   14.3021   36.8577   19.2801 C   0  0  0  0  0  0  0  0  0  0  0  0
   14.6943   38.1802   19.3479 C   0  0  0  0  0  0  0  0  0  0  0  0
   15.6099   38.6693   18.4276 C   0  0  0  0  0  0  0  0  0  0  0  0
   16.1318   37.8546   17.4237 C   0  0  0  0  0  0  0  0  0  0  0  0
   15.7354   36.5260   17.3464 C   0  0  0  0  0  0  0  0  0  0  0  0
  9 10  1  0  0  0
 10 11  2  0  0  0
 10 15  1  0  0  0
 11 12  1  0  0  0
 12 13  2  0  0  0
 13 14  1  0  0  0
 13  6  1  0  0  0
 14 15  2  0  0  0
  6  7  2  0  0  0
  6  8  2  0  0  0
  6  5  1  0  0  0
  5 18  1  0  0  0
  5  4  1  0  0  0
 18 19  1  0  0  0
 19 20  1  0  0  0
 19 21  1  0  0  0
  4  1  1  0  0  0
  1  2  1  0  0  0
  1 22  1  0  0  0
 22 23  1  0  0  0
 22 36  1  0  0  0
 23 24  1  0  0  0
 24 25  2  0  0  0
 24 27  1  0  0  0
 27 28  1  0  0  0
 28 29  1  0  0  0
 28 35  1  0  0  0
 29 30  1  0  0  0
 30 31  1  0  0  0
 31 32  1  0  0  0
 31 35  1  0  0  0
 32 33  1  0  0  0
 33 34  1  0  0  0
 34 35  1  0  0  0
 36 42  1  0  0  0
 37 38  2  0  0  0
 37 42  1  0  0  0
 38 39  1  0  0  0
 39 40  2  0  0  0
 40 41  1  0  0  0
 41 42  2  0  0  0
  9 16  1  0  0  0
  9 17  1  0  0  0
  2  3  1  0  0  0
 23 26  1  0  0  0
M  END
> <minimizedAffinity>
-8.85988

$$$$
4Q1X_017_A_101


 42 45  0  0  0  0  0  0  0  0999 V2000
   19.0144   29.8049   14.0082 C   0  0  0  0  0  0  0  0  0  0  0  0
   17.9529   29.3275   14.8697 O   0  0  0  0  0  0  0  0  0  0  0  0
   17.0946   29.5071   14.4551 H   0  0  0  0  0  0  0  0  0  0  0  0
   18.8511   31.3151   13.8304 C   0  0  0  0  0  0  0  0  0  0  0  0
   19.1628   32.0118   15.0849 N   0  0  0  0  0  0  0  0  0  0  0  0
   17.8872   32.2004   16.0651 S   0  0  0  0  0  0  0  0  0  0  0  0
   17.8944   31.1546   17.0547 O   0  0  0  0  0  0  0  0  0  0  0  0
   16.7435   32.0955   15.2207 O   0  0  0  0  0  0  0  0  0  0  0  0
   17.8642   37.2271   18.9199 N   0  0  0  0  0  0  0  0  0  0  0  0
   17.9225   36.0542   18.2402 C   0  0  0  0  0  0  0  0  0  0  0  0
   19.1125   35.5880   17.6658 C   0  0  0  0  0  0  0  0  0  0  0  0
   19.1156   34.3755   16.9715 C   0  0  0  0  0  0  0  0  0  0  0  0
   17.9454   33.6211   16.8320 C   0  0  0  0  0  0  0  0  0  0  0  0
   16.7721   34.1033   17.3990 C   0  0  0  0  0  0  0  0  0  0  0  0
   16.7559   35.3163   18.0860 C   0  0  0  0  0  0  0  0  0  0  0  0
   18.6787   37.7667   19.0414 H   0  0  0  0  0  0  0  0  0  0  0  0
   17.0074   37.5386   19.2916 H   0  0  0  0  0  0  0  0  0  0  0  0
   20.3535   31.4475   15.7720 C   0  0  0  0  0  0  0  0  0  0  0  0
   21.5907   32.3184   15.5407 C   0  0  0  0  0  0  0  0  0  0  0  0
   22.2962   32.6965   16.8501 C   0  0  0  0  0  0  0  0  0  0  0  0
   22.5517   31.6032   14.5926 C   0  0  0  0  0  0  0  0  0  0  0  0
   19.0600   29.0627   12.6764 C   0  0  0  0  0  0  0  0  0  0  0  0
   20.3470   28.3881   12.6165 N   0  0  0  0  0  0  0  0  0  0  0  0
   21.4594   28.9078   12.1056 C   0  0  0  0  0  0  0  0  0  0  0  0
   21.5959   30.0178   11.6159 O   0  0  0  0  0  0  0  0  0  0  0  0
   20.3988   27.4757   12.9827 H   0  0  0  0  0  0  0  0  0  0  0  0
   22.5594   27.9822   12.1868 O   0  0  0  0  0  0  0  0  0  0  0  0
   23.5877   27.9285   11.2022 C   0  0  0  0  0  0  0  0  0  0  0  0
   24.8181   27.3971   11.9109 C   0  0  0  0  0  0  0  0  0  0  0  0
   24.6470   25.9758   11.9286 O   0  0  0  0  0  0  0  0  0  0  0  0
   23.8743   25.6110   10.7780 C   0  0  0  0  0  0  0  0  0  0  0  0
   22.7690   24.7758   11.1060 O   0  0  0  0  0  0  0  0  0  0  0  0
   21.5283   25.4484   10.8433 C   0  0  0  0  0  0  0  0  0  0  0  0
   21.8402   26.5632    9.8557 C   0  0  0  0  0  0  0  0  0  0  0  0
   23.3076   26.8730   10.1490 C   0  0  0  0  0  0  0  0  0  0  0  0
   17.9354   28.0390   12.4499 C   0  0  0  0  0  0  0  0  0  0  0  0
   18.1431   28.3272    9.9552 C   0  0  0  0  0  0  0  0  0  0  0  0
   18.1851   27.8510    8.6519 C   0  0  0  0  0  0  0  0  0  0  0  0
   18.0726   26.4936    8.4231 C   0  0  0  0  0  0  0  0  0  0  0  0
   17.9294   25.6291    9.4985 C   0  0  0  0  0  0  0  0  0  0  0  0
   17.8812   26.1055   10.8080 C   0  0  0  0  0  0  0  0  0  0  0  0
   17.9864   27.4700   11.0433 C   0  0  0  0  0  0  0  0  0  0  0  0
  9 10  1  0  0  0
 10 11  2  0  0  0
 10 15  1  0  0  0
 11 12  1  0  0  0
 12 13  2  0  0  0
 13 14  1  0  0  0
 13  6  1  0  0  0
 14 15  2  0  0  0
  6  7  2  0  0  0
  6  8  2  0  0  0
  6  5  1  0  0  0
  5 18  1  0  0  0
  5  4  1  0  0  0
 18 19  1  0  0  0
 19 20  1  0  0  0
 19 21  1  0  0  0
  4  1  1  0  0  0
  1  2  1  0  0  0
  1 22  1  0  0  0
 22 23  1  0  0  0
 22 36  1  0  0  0
 23 24  1  0  0  0
 24 25  2  0  0  0
 24 27  1  0  0  0
 27 28  1  0  0  0
 28 29  1  0  0  0
 28 35  1  0  0  0
 29 30  1  0  0  0
 30 31  1  0  0  0
 31 32  1  0  0  0
 31 35  1  0  0  0
 32 33  1  0  0  0
 33 34  1  0  0  0
 34 35  1  0  0  0
 36 42  1  0  0  0
 37 38  2  0  0  0
 37 42  1  0  0  0
 38 39  1  0  0  0
 39 40  2  0  0  0
 40 41  1  0  0  0
 41 42  2  0  0  0
  9 16  1  0  0  0
  9 17  1  0  0  0
  2  3  1  0  0  0
 23 26  1  0  0  0
M  END
> <minimizedAffinity>
-8.75111

$$$$
4Q1X_017_A_101


 42 45  0  0  0  0  0  0  0  0999 V2000
   18.4399   33.4016   16.1183 C   0  0  0  0  0  0  0  0  0  0  0  0
   18.4732   33.8382   14.7381 O   0  0  0  0  0  0  0  0  0  0  0  0
   17.5837   33.7728   14.3567 H   0  0  0  0  0  0  0  0  0  0  0  0
   17.9870   31.9413   16.1533 C   0  0  0  0  0  0  0  0  0  0  0  0
   18.7653   31.1441   15.1968 N   0  0  0  0  0  0  0  0  0  0  0  0
   20.0693   30.4332   15.8431 S   0  0  0  0  0  0  0  0  0  0  0  0
   20.4239   29.2866   15.0478 O   0  0  0  0  0  0  0  0  0  0  0  0
   19.6741   30.0410   17.1554 O   0  0  0  0  0  0  0  0  0  0  0  0
   24.5903   34.0316   15.6655 N   0  0  0  0  0  0  0  0  0  0  0  0
   23.5212   33.2013   15.7589 C   0  0  0  0  0  0  0  0  0  0  0  0
   22.7829   33.0726   16.9429 C   0  0  0  0  0  0  0  0  0  0  0  0
   21.6936   32.1985   16.9861 C   0  0  0  0  0  0  0  0  0  0  0  0
   21.3319   31.4407   15.8668 C   0  0  0  0  0  0  0  0  0  0  0  0
   22.0811   31.5730   14.7041 C   0  0  0  0  0  0  0  0  0  0  0  0
   23.1754   32.4353   14.6529 C   0  0  0  0  0  0  0  0  0  0  0  0
   24.8535   34.5838   16.4369 H   0  0  0  0  0  0  0  0  0  0  0  0
   25.1027   34.0818   14.8264 H   0  0  0  0  0  0  0  0  0  0  0  0
   17.9191   30.2123   14.4067 C   0  0  0  0  0  0  0  0  0  0  0  0
   17.8801   30.6163   12.9309 C   0  0  0  0  0  0  0  0  0  0  0  0
   19.2497   31.0730   12.4103 C   0  0  0  0  0  0  0  0  0  0  0  0
   17.3404   29.4566   12.0956 C   0  0  0  0  0  0  0  0  0  0  0  0
   17.5723   34.3021   16.9918 C   0  0  0  0  0  0  0  0  0  0  0  0
   18.4382   35.3554   17.4978 N   0  0  0  0  0  0  0  0  0  0  0  0
   18.7815   35.5163   18.7724 C   0  0  0  0  0  0  0  0  0  0  0  0
   18.4456   34.8215   19.7185 O   0  0  0  0  0  0  0  0  0  0  0  0
   18.7982   35.9993   16.8460 H   0  0  0  0  0  0  0  0  0  0  0  0
   19.6402   36.6588   18.9470 O   0  0  0  0  0  0  0  0  0  0  0  0
   19.6651   37.7446   18.0251 C   0  0  0  0  0  0  0  0  0  0  0  0
   19.6064   39.0065   18.8634 C   0  0  0  0  0  0  0  0  0  0  0  0
   20.9553   39.2287   19.2883 O   0  0  0  0  0  0  0  0  0  0  0  0
   21.8270   38.6883   18.2871 C   0  0  0  0  0  0  0  0  0  0  0  0
   22.8203   37.8284   18.8355 O   0  0  0  0  0  0  0  0  0  0  0  0
   22.6300   36.4792   18.3837 C   0  0  0  0  0  0  0  0  0  0  0  0
   21.7880   36.5602   17.1189 C   0  0  0  0  0  0  0  0  0  0  0  0
   21.0030   37.8561   17.3186 C   0  0  0  0  0  0  0  0  0  0  0  0
   16.3569   34.9320   16.2917 C   0  0  0  0  0  0  0  0  0  0  0  0
   16.0404   37.2210   17.2966 C   0  0  0  0  0  0  0  0  0  0  0  0
   15.4092   38.1301   18.1348 C   0  0  0  0  0  0  0  0  0  0  0  0
   14.3431   37.7119   18.9069 C   0  0  0  0  0  0  0  0  0  0  0  0
   13.9153   36.3949   18.8249 C   0  0  0  0  0  0  0  0  0  0  0  0
   14.5512   35.4786   17.9881 C   0  0  0  0  0  0  0  0  0  0  0  0
   15.6282   35.8918   17.2151 C   0  0  0  0  0  0  0  0  0  0  0  0
  9 10  1  0  0  0
 10 11  2  0  0  0
 10 15  1  0  0  0
 11 12  1  0  0  0
 12 13  2  0  0  0
 13 14  1  0  0  0
 13  6  1  0  0  0
 14 15  2  0  0  0
  6  7  2  0  0  0
  6  8  2  0  0  0
  6  5  1  0  0  0
  5 18  1  0  0  0
  5  4  1  0  0  0
 18 19  1  0  0  0
 19 20  1  0  0  0
 19 21  1  0  0  0
  4  1  1  0  0  0
  1  2  1  0  0  0
  1 22  1  0  0  0
 22 23  1  0  0  0
 22 36  1  0  0  0
 23 24  1  0  0  0
 24 25  2  0  0  0
 24 27  1  0  0  0
 27 28  1  0  0  0
 28 29  1  0  0  0
 28 35  1  0  0  0
 29 30  1  0  0  0
 30 31  1  0  0  0
 31 32  1  0  0  0
 31 35  1  0  0  0
 32 33  1  0  0  0
 33 34  1  0  0  0
 34 35  1  0  0  0
 36 42  1  0  0  0
 37 38  2  0  0  0
 37 42  1  0  0  0
 38 39  1  0  0  0
 39 40  2  0  0  0
 40 41  1  0  0  0
 41 42  2  0  0  0
  9 16  1  0  0  0
  9 17  1  0  0  0
  2  3  1  0  0  0
 23 26  1  0  0  0
M  END
> <minimizedAffinity>
-8.42648

$$$$
4Q1X_017_A_101


 42 45  0  0  0  0  0  0  0  0999 V2000
   20.5765   31.4661   13.5612 C   0  0  0  0  0  0  0  0  0  0  0  0
   22.0144   31.3649   13.6991 O   0  0  0  0  0  0  0  0  0  0  0  0
   22.2424   30.5048   14.0855 H   0  0  0  0  0  0  0  0  0  0  0  0
   19.9482   31.3600   14.9515 C   0  0  0  0  0  0  0  0  0  0  0  0
   19.5274   32.6857   15.4223 N   0  0  0  0  0  0  0  0  0  0  0  0
   20.6853   33.5008   16.2086 S   0  0  0  0  0  0  0  0  0  0  0  0
   21.6314   34.0155   15.2531 O   0  0  0  0  0  0  0  0  0  0  0  0
   21.2997   32.5463   17.0710 O   0  0  0  0  0  0  0  0  0  0  0  0
   18.3265   37.7935   19.2791 N   0  0  0  0  0  0  0  0  0  0  0  0
   18.9191   36.8202   18.5425 C   0  0  0  0  0  0  0  0  0  0  0  0
   20.0845   37.0564   17.8013 C   0  0  0  0  0  0  0  0  0  0  0  0
   20.6507   36.0194   17.0553 C   0  0  0  0  0  0  0  0  0  0  0  0
   20.0671   34.7479   17.0286 C   0  0  0  0  0  0  0  0  0  0  0  0
   18.9060   34.5339   17.7613 C   0  0  0  0  0  0  0  0  0  0  0  0
   18.3277   35.5640   18.5016 C   0  0  0  0  0  0  0  0  0  0  0  0
   18.7280   38.6913   19.3225 H   0  0  0  0  0  0  0  0  0  0  0  0
   17.4950   37.6018   19.7701 H   0  0  0  0  0  0  0  0  0  0  0  0
   18.8636   33.4857   14.3603 C   0  0  0  0  0  0  0  0  0  0  0  0
   17.3406   33.4458   14.5076 C   0  0  0  0  0  0  0  0  0  0  0  0
   16.8789   32.4348   15.5659 C   0  0  0  0  0  0  0  0  0  0  0  0
   16.8194   34.8453   14.8291 C   0  0  0  0  0  0  0  0  0  0  0  0
   20.0124   30.4373   12.5866 C   0  0  0  0  0  0  0  0  0  0  0  0
   21.0377   29.4209   12.4103 N   0  0  0  0  0  0  0  0  0  0  0  0
   21.4415   28.5713   13.3502 C   0  0  0  0  0  0  0  0  0  0  0  0
   21.0281   28.4906   14.4962 O   0  0  0  0  0  0  0  0  0  0  0  0
   21.4663   29.3570   11.5262 H   0  0  0  0  0  0  0  0  0  0  0  0
   22.4782   27.6992   12.8626 O   0  0  0  0  0  0  0  0  0  0  0  0
   23.2614   28.0101   11.7138 C   0  0  0  0  0  0  0  0  0  0  0  0
   24.6722   27.5567   12.0341 C   0  0  0  0  0  0  0  0  0  0  0  0
   24.6780   26.1517   11.7596 O   0  0  0  0  0  0  0  0  0  0  0  0
   23.7178   25.9010   10.7256 C   0  0  0  0  0  0  0  0  0  0  0  0
   22.8191   24.8485   11.0596 O   0  0  0  0  0  0  0  0  0  0  0  0
   21.4806   25.3483   11.1993 C   0  0  0  0  0  0  0  0  0  0  0  0
   21.4319   26.6724   10.4510 C   0  0  0  0  0  0  0  0  0  0  0  0
   22.8809   27.1530   10.5212 C   0  0  0  0  0  0  0  0  0  0  0  0
   18.6976   29.7672   13.0183 C   0  0  0  0  0  0  0  0  0  0  0  0
   18.1266   28.8730   10.7327 C   0  0  0  0  0  0  0  0  0  0  0  0
   17.7827   27.8590    9.8490 C   0  0  0  0  0  0  0  0  0  0  0  0
   17.6442   26.5682   10.3204 C   0  0  0  0  0  0  0  0  0  0  0  0
   17.8601   26.3052   11.6652 C   0  0  0  0  0  0  0  0  0  0  0  0
   18.2000   27.3228   12.5558 C   0  0  0  0  0  0  0  0  0  0  0  0
   18.3335   28.6236   12.0886 C   0  0  0  0  0  0  0  0  0  0  0  0
  9 10  1  0  0  0
 10 11  2  0  0  0
 10 15  1  0  0  0
 11 12  1  0  0  0
 12 13  2  0  0  0
 13 14  1  0  0  0
 13  6  1  0  0  0
 14 15  2  0  0  0
  6  7  2  0  0  0
  6  8  2  0  0  0
  6  5  1  0  0  0
  5 18  1  0  0  0
  5  4  1  0  0  0
 18 19  1  0  0  0
 19 20  1  0  0  0
 19 21  1  0  0  0
  4  1  1  0  0  0
  1  2  1  0  0  0
  1 22  1  0  0  0
 22 23  1  0  0  0
 22 36  1  0  0  0
 23 24  1  0  0  0
 24 25  2  0  0  0
 24 27  1  0  0  0
 27 28  1  0  0  0
 28 29  1  0  0  0
 28 35  1  0  0  0
 29 30  1  0  0  0
 30 31  1  0  0  0
 31 32  1  0  0  0
 31 35  1  0  0  0
 32 33  1  0  0  0
 33 34  1  0  0  0
 34 35  1  0  0  0
 36 42  1  0  0  0
 37 38  2  0  0  0
 37 42  1  0  0  0
 38 39  1  0  0  0
 39 40  2  0  0  0
 40 41  1  0  0  0
 41 42  2  0  0  0
  9 16  1  0  0  0
  9 17  1  0  0  0
  2  3  1  0  0  0
 23 26  1  0  0  0
M  END
> <minimizedAffinity>
-8.29877

$$$$
4Q1X_017_A_101


 42 45  0  0  0  0  0  0  0  0999 V2000
   19.7202   30.2191   15.8150 C   0  0  0  0  0  0  0  0  0  0  0  0
   19.7888   29.7468   17.1822 O   0  0  0  0  0  0  0  0  0  0  0  0
   20.7041   29.8034   17.4982 H   0  0  0  0  0  0  0  0  0  0  0  0
   20.6050   29.3223   14.9481 C   0  0  0  0  0  0  0  0  0  0  0  0
   20.2079   29.4258   13.5382 N   0  0  0  0  0  0  0  0  0  0  0  0
   21.4148   29.8537   12.5463 S   0  0  0  0  0  0  0  0  0  0  0  0
   22.3474   30.6800   13.2676 O   0  0  0  0  0  0  0  0  0  0  0  0
   20.7950   30.5855   11.4915 O   0  0  0  0  0  0  0  0  0  0  0  0
   24.0943   25.2126   10.3786 N   0  0  0  0  0  0  0  0  0  0  0  0
   23.5074   26.3092   10.9209 C   0  0  0  0  0  0  0  0  0  0  0  0
   24.1164   27.0467   11.9449 C   0  0  0  0  0  0  0  0  0  0  0  0
   23.4653   28.1652   12.4717 C   0  0  0  0  0  0  0  0  0  0  0  0
   22.2080   28.5572   11.9989 C   0  0  0  0  0  0  0  0  0  0  0  0
   21.6141   27.8085   10.9902 C   0  0  0  0  0  0  0  0  0  0  0  0
   22.2508   26.6855   10.4639 C   0  0  0  0  0  0  0  0  0  0  0  0
   24.9846   24.9274   10.6871 H   0  0  0  0  0  0  0  0  0  0  0  0
   23.6298   24.7021    9.6765 H   0  0  0  0  0  0  0  0  0  0  0  0
   19.4546   28.2345   13.0671 C   0  0  0  0  0  0  0  0  0  0  0  0
   17.9504   28.5136   13.0202 C   0  0  0  0  0  0  0  0  0  0  0  0
   17.5594   29.4321   11.8544 C   0  0  0  0  0  0  0  0  0  0  0  0
   17.1854   27.1931   12.9518 C   0  0  0  0  0  0  0  0  0  0  0  0
   20.0867   31.6946   15.6910 C   0  0  0  0  0  0  0  0  0  0  0  0
   19.0722   32.4409   16.4184 N   0  0  0  0  0  0  0  0  0  0  0  0
   17.9587   32.9359   15.8860 C   0  0  0  0  0  0  0  0  0  0  0  0
   17.5960   32.8470   14.7236 O   0  0  0  0  0  0  0  0  0  0  0  0
   19.2215   32.5914   17.3798 H   0  0  0  0  0  0  0  0  0  0  0  0
   17.1687   33.6320   16.8682 O   0  0  0  0  0  0  0  0  0  0  0  0
   15.9697   34.3249   16.5337 C   0  0  0  0  0  0  0  0  0  0  0  0
   14.8869   33.7381   17.4180 C   0  0  0  0  0  0  0  0  0  0  0  0
   15.0274   34.4169   18.6706 O   0  0  0  0  0  0  0  0  0  0  0  0
   15.5568   35.7223   18.4072 C   0  0  0  0  0  0  0  0  0  0  0  0
   16.6862   36.0267   19.2188 O   0  0  0  0  0  0  0  0  0  0  0  0
   17.8677   36.1632   18.4150 C   0  0  0  0  0  0  0  0  0  0  0  0
   17.3964   36.4421   16.9953 C   0  0  0  0  0  0  0  0  0  0  0  0
   16.0196   35.7798   16.9607 C   0  0  0  0  0  0  0  0  0  0  0  0
   21.4793   32.0777   16.2183 C   0  0  0  0  0  0  0  0  0  0  0  0
   21.9397   33.8246   17.9749 C   0  0  0  0  0  0  0  0  0  0  0  0
   21.9759   35.1306   18.4444 C   0  0  0  0  0  0  0  0  0  0  0  0
   21.5819   36.1603   17.6126 C   0  0  0  0  0  0  0  0  0  0  0  0
   21.1663   35.8737   16.3205 C   0  0  0  0  0  0  0  0  0  0  0  0
   21.1236   34.5624   15.8485 C   0  0  0  0  0  0  0  0  0  0  0  0
   21.5117   33.5226   16.6830 C   0  0  0  0  0  0  0  0  0  0  0  0
  9 10  1  0  0  0
 10 11  2  0  0  0
 10 15  1  0  0  0
 11 12  1  0  0  0
 12 13  2  0  0  0
 13 14  1  0  0  0
 13  6  1  0  0  0
 14 15  2  0  0  0
  6  7  2  0  0  0
  6  8  2  0  0  0
  6  5  1  0  0  0
  5 18  1  0  0  0
  5  4  1  0  0  0
 18 19  1  0  0  0
 19 20  1  0  0  0
 19 21  1  0  0  0
  4  1  1  0  0  0
  1  2  1  0  0  0
  1 22  1  0  0  0
 22 23  1  0  0  0
 22 36  1  0  0  0
 23 24  1  0  0  0
 24 25  2  0  0  0
 24 27  1  0  0  0
 27 28  1  0  0  0
 28 29  1  0  0  0
 28 35  1  0  0  0
 29 30  1  0  0  0
 30 31  1  0  0  0
 31 32  1  0  0  0
 31 35  1  0  0  0
 32 33  1  0  0  0
 33 34  1  0  0  0
 34 35  1  0  0  0
 36 42  1  0  0  0
 37 38  2  0  0  0
 37 42  1  0  0  0
 38 39  1  0  0  0
 39 40  2  0  0  0
 40 41  1  0  0  0
 41 42  2  0  0  0
  9 16  1  0  0  0
  9 17  1  0  0  0
  2  3  1  0  0  0
 23 26  1  0  0  0
M  END
> <minimizedAffinity>
-8.17242

$$$$
4Q1X_017_A_101


 42 45  0  0  0  0  0  0  0  0999 V2000
   18.4198   32.2988   14.1965 C   0  0  0  0  0  0  0  0  0  0  0  0
   18.7510   33.6505   13.7965 O   0  0  0  0  0  0  0  0  0  0  0  0
   19.4097   34.0163   14.4074 H   0  0  0  0  0  0  0  0  0  0  0  0
   17.8255   32.3428   15.6050 C   0  0  0  0  0  0  0  0  0  0  0  0
   17.7012   33.7328   16.0617 N   0  0  0  0  0  0  0  0  0  0  0  0
   16.3086   34.4416   15.6352 S   0  0  0  0  0  0  0  0  0  0  0  0
   15.3063   33.4279   15.4331 O   0  0  0  0  0  0  0  0  0  0  0  0
   16.5918   35.1285   14.4186 O   0  0  0  0  0  0  0  0  0  0  0  0
   14.3149   37.8276   19.8753 N   0  0  0  0  0  0  0  0  0  0  0  0
   14.8190   37.0714   18.8678 C   0  0  0  0  0  0  0  0  0  0  0  0
   15.8764   37.5167   18.0634 C   0  0  0  0  0  0  0  0  0  0  0  0
   16.3538   36.6996   17.0354 C   0  0  0  0  0  0  0  0  0  0  0  0
   15.7867   35.4443   16.7893 C   0  0  0  0  0  0  0  0  0  0  0  0
   14.7322   35.0227   17.5900 C   0  0  0  0  0  0  0  0  0  0  0  0
   14.2421   35.8339   18.6124 C   0  0  0  0  0  0  0  0  0  0  0  0
   14.7081   38.7080   20.0742 H   0  0  0  0  0  0  0  0  0  0  0  0
   13.5559   37.4959   20.4074 H   0  0  0  0  0  0  0  0  0  0  0  0
   18.0242   33.8922   17.5035 C   0  0  0  0  0  0  0  0  0  0  0  0
   19.3801   34.5760   17.6947 C   0  0  0  0  0  0  0  0  0  0  0  0
   19.8411   35.3284   16.4390 C   0  0  0  0  0  0  0  0  0  0  0  0
   19.3161   35.5150   18.8980 C   0  0  0  0  0  0  0  0  0  0  0  0
   19.6135   31.3544   14.0967 C   0  0  0  0  0  0  0  0  0  0  0  0
   19.2383   30.3019   13.1656 N   0  0  0  0  0  0  0  0  0  0  0  0
   19.3771   28.9984   13.3892 C   0  0  0  0  0  0  0  0  0  0  0  0
   19.8253   28.4674   14.3930 O   0  0  0  0  0  0  0  0  0  0  0  0
   18.8514   30.5759   12.3028 H   0  0  0  0  0  0  0  0  0  0  0  0
   18.9221   28.2196   12.2668 O   0  0  0  0  0  0  0  0  0  0  0  0
   19.5272   28.3070   10.9800 C   0  0  0  0  0  0  0  0  0  0  0  0
   21.0022   28.0274   11.1914 C   0  0  0  0  0  0  0  0  0  0  0  0
   21.1034   26.5999   11.2329 O   0  0  0  0  0  0  0  0  0  0  0  0
   20.0512   26.0601   10.4234 C   0  0  0  0  0  0  0  0  0  0  0  0
   19.3006   25.0584   11.1017 O   0  0  0  0  0  0  0  0  0  0  0  0
   17.9490   25.4931   11.3143 C   0  0  0  0  0  0  0  0  0  0  0  0
   17.6878   26.6048   10.3088 C   0  0  0  0  0  0  0  0  0  0  0  0
   19.0842   27.1776   10.0690 C   0  0  0  0  0  0  0  0  0  0  0  0
   20.9311   31.9988   13.6356 C   0  0  0  0  0  0  0  0  0  0  0  0
   21.4437   32.0253   16.1026 C   0  0  0  0  0  0  0  0  0  0  0  0
   22.1623   32.4428   17.2146 C   0  0  0  0  0  0  0  0  0  0  0  0
   23.2133   33.3236   17.0500 C   0  0  0  0  0  0  0  0  0  0  0  0
   23.5389   33.7684   15.7771 C   0  0  0  0  0  0  0  0  0  0  0  0
   22.8151   33.3551   14.6593 C   0  0  0  0  0  0  0  0  0  0  0  0
   21.7528   32.4753   14.8198 C   0  0  0  0  0  0  0  0  0  0  0  0
  9 10  1  0  0  0
 10 11  2  0  0  0
 10 15  1  0  0  0
 11 12  1  0  0  0
 12 13  2  0  0  0
 13 14  1  0  0  0
 13  6  1  0  0  0
 14 15  2  0  0  0
  6  7  2  0  0  0
  6  8  2  0  0  0
  6  5  1  0  0  0
  5 18  1  0  0  0
  5  4  1  0  0  0
 18 19  1  0  0  0
 19 20  1  0  0  0
 19 21  1  0  0  0
  4  1  1  0  0  0
  1  2  1  0  0  0
  1 22  1  0  0  0
 22 23  1  0  0  0
 22 36  1  0  0  0
 23 24  1  0  0  0
 24 25  2  0  0  0
 24 27  1  0  0  0
 27 28  1  0  0  0
 28 29  1  0  0  0
 28 35  1  0  0  0
 29 30  1  0  0  0
 30 31  1  0  0  0
 31 32  1  0  0  0
 31 35  1  0  0  0
 32 33  1  0  0  0
 33 34  1  0  0  0
 34 35  1  0  0  0
 36 42  1  0  0  0
 37 38  2  0  0  0
 37 42  1  0  0  0
 38 39  1  0  0  0
 39 40  2  0  0  0
 40 41  1  0  0  0
 41 42  2  0  0  0
  9 16  1  0  0  0
  9 17  1  0  0  0
  2  3  1  0  0  0
 23 26  1  0  0  0
M  END
> <minimizedAffinity>
-8.12726

$$$$
