5KO5_CYT_A_301


 11 11  0  0  0  0  0  0  0  0999 V2000
   -3.4173   71.9090   79.4113 N   0  0  0  0  0  0  0  0  0  0  0  0
   -2.9228   70.7167   79.0759 C   0  0  0  0  0  0  0  0  0  0  0  0
   -1.3215   72.8945   78.8789 N   0  0  0  0  0  0  0  0  0  0  0  0
   -2.6382   73.0179   79.3374 C   0  0  0  0  0  0  0  0  0  0  0  0
   -3.0640   74.1243   79.6849 O   0  0  0  0  0  0  0  0  0  0  0  0
   -3.7354   69.6595   79.1825 N   0  0  0  0  0  0  0  0  0  0  0  0
   -1.5846   70.5707   78.5962 C   0  0  0  0  0  0  0  0  0  0  0  0
   -0.8288   71.6755   78.5226 C   0  0  0  0  0  0  0  0  0  0  0  0
   -4.3511   71.9851   79.7138 H   0  0  0  0  0  0  0  0  0  0  0  0
   -4.6547   69.7768   79.5148 H   0  0  0  0  0  0  0  0  0  0  0  0
   -3.4142   68.7642   78.9287 H   0  0  0  0  0  0  0  0  0  0  0  0
  1  2  1  0  0  0
  1  4  1  0  0  0
  2  6  1  0  0  0
  2  7  2  0  0  0
  3  4  1  0  0  0
  3  8  2  0  0  0
  4  5  2  0  0  0
  7  8  1  0  0  0
  1  9  1  0  0  0
  6 10  1  0  0  0
  6 11  1  0  0  0
M  END
> <minimizedAffinity>
-5.53899

$$$$
5KO5_CYT_A_301


 11 11  0  0  0  0  0  0  0  0999 V2000
    1.0967   77.6093   79.3087 N   0  0  0  0  0  0  0  0  0  0  0  0
    1.5994   76.9268   80.3384 C   0  0  0  0  0  0  0  0  0  0  0  0
   -0.7199   76.0799   79.2206 N   0  0  0  0  0  0  0  0  0  0  0  0
   -0.0557   77.2044   78.7171 C   0  0  0  0  0  0  0  0  0  0  0  0
   -0.5142   77.7972   77.7350 O   0  0  0  0  0  0  0  0  0  0  0  0
    2.7448   77.3674   80.8706 N   0  0  0  0  0  0  0  0  0  0  0  0
    0.9317   75.7823   80.8736 C   0  0  0  0  0  0  0  0  0  0  0  0
   -0.2087   75.3977   80.2831 C   0  0  0  0  0  0  0  0  0  0  0  0
    1.5635   78.4099   78.9765 H   0  0  0  0  0  0  0  0  0  0  0  0
    3.1925   78.1574   80.4902 H   0  0  0  0  0  0  0  0  0  0  0  0
    3.1400   76.9018   81.6427 H   0  0  0  0  0  0  0  0  0  0  0  0
  1  2  1  0  0  0
  1  4  1  0  0  0
  2  6  1  0  0  0
  2  7  2  0  0  0
  3  4  1  0  0  0
  3  8  2  0  0  0
  4  5  2  0  0  0
  7  8  1  0  0  0
  1  9  1  0  0  0
  6 10  1  0  0  0
  6 11  1  0  0  0
M  END
> <minimizedAffinity>
-5.45626

$$$$
5KO5_CYT_A_301


 11 11  0  0  0  0  0  0  0  0999 V2000
   -1.7747   73.4704   79.3653 N   0  0  0  0  0  0  0  0  0  0  0  0
   -0.7692   72.6720   79.0043 C   0  0  0  0  0  0  0  0  0  0  0  0
   -3.2741   71.6434   79.1190 N   0  0  0  0  0  0  0  0  0  0  0  0
   -3.0431   72.9908   79.4197 C   0  0  0  0  0  0  0  0  0  0  0  0
   -3.9937   73.7248   79.7093 O   0  0  0  0  0  0  0  0  0  0  0  0
    0.4562   73.2062   78.9566 N   0  0  0  0  0  0  0  0  0  0  0  0
   -0.9824   71.2915   78.7031 C   0  0  0  0  0  0  0  0  0  0  0  0
   -2.2395   70.8301   78.7670 C   0  0  0  0  0  0  0  0  0  0  0  0
   -1.5961   74.4114   79.5931 H   0  0  0  0  0  0  0  0  0  0  0  0
    0.5864   74.1591   79.1670 H   0  0  0  0  0  0  0  0  0  0  0  0
    1.2280   72.6464   78.7112 H   0  0  0  0  0  0  0  0  0  0  0  0
  1  2  1  0  0  0
  1  4  1  0  0  0
  2  6  1  0  0  0
  2  7  2  0  0  0
  3  4  1  0  0  0
  3  8  2  0  0  0
  4  5  2  0  0  0
  7  8  1  0  0  0
  1  9  1  0  0  0
  6 10  1  0  0  0
  6 11  1  0  0  0
M  END
> <minimizedAffinity>
-5.39463

$$$$
5KO5_CYT_A_301


 11 11  0  0  0  0  0  0  0  0999 V2000
   -0.4864   76.0463   78.9784 N   0  0  0  0  0  0  0  0  0  0  0  0
   -0.0084   75.5712   80.1293 C   0  0  0  0  0  0  0  0  0  0  0  0
    0.7941   78.0225   79.2971 N   0  0  0  0  0  0  0  0  0  0  0  0
   -0.1156   77.2759   78.5395 C   0  0  0  0  0  0  0  0  0  0  0  0
   -0.5807   77.7517   77.4986 O   0  0  0  0  0  0  0  0  0  0  0  0
   -0.4212   74.3588   80.5153 N   0  0  0  0  0  0  0  0  0  0  0  0
    0.9287   76.3132   80.9124 C   0  0  0  0  0  0  0  0  0  0  0  0
    1.2906   77.5235   80.4634 C   0  0  0  0  0  0  0  0  0  0  0  0
   -1.1106   75.5030   78.4452 H   0  0  0  0  0  0  0  0  0  0  0  0
   -1.0673   73.8603   79.9645 H   0  0  0  0  0  0  0  0  0  0  0  0
   -0.0789   73.9649   81.3501 H   0  0  0  0  0  0  0  0  0  0  0  0
  1  2  1  0  0  0
  1  4  1  0  0  0
  2  6  1  0  0  0
  2  7  2  0  0  0
  3  4  1  0  0  0
  3  8  2  0  0  0
  4  5  2  0  0  0
  7  8  1  0  0  0
  1  9  1  0  0  0
  6 10  1  0  0  0
  6 11  1  0  0  0
M  END
> <minimizedAffinity>
-5.22243

$$$$
5KO5_CYT_A_301


 11 11  0  0  0  0  0  0  0  0999 V2000
   -3.1406   72.0786   79.2798 N   0  0  0  0  0  0  0  0  0  0  0  0
   -2.0613   71.3927   78.9012 C   0  0  0  0  0  0  0  0  0  0  0  0
   -1.7642   73.9787   79.6562 N   0  0  0  0  0  0  0  0  0  0  0  0
   -3.0250   73.3712   79.6769 C   0  0  0  0  0  0  0  0  0  0  0  0
   -4.0056   74.0100   80.0726 O   0  0  0  0  0  0  0  0  0  0  0  0
   -2.2374   70.1188   78.5334 N   0  0  0  0  0  0  0  0  0  0  0  0
   -0.7670   71.9972   78.8635 C   0  0  0  0  0  0  0  0  0  0  0  0
   -0.6689   73.2764   79.2526 C   0  0  0  0  0  0  0  0  0  0  0  0
   -4.0247   71.6455   79.2712 H   0  0  0  0  0  0  0  0  0  0  0  0
   -3.1356   69.7169   78.5650 H   0  0  0  0  0  0  0  0  0  0  0  0
   -1.4688   69.5830   78.2310 H   0  0  0  0  0  0  0  0  0  0  0  0
  1  2  1  0  0  0
  1  4  1  0  0  0
  2  6  1  0  0  0
  2  7  2  0  0  0
  3  4  1  0  0  0
  3  8  2  0  0  0
  4  5  2  0  0  0
  7  8  1  0  0  0
  1  9  1  0  0  0
  6 10  1  0  0  0
  6 11  1  0  0  0
M  END
> <minimizedAffinity>
-5.18128

$$$$
5KO5_CYT_A_301


 11 11  0  0  0  0  0  0  0  0999 V2000
   -2.0449   73.6958   79.7376 N   0  0  0  0  0  0  0  0  0  0  0  0
   -0.7224   73.8484   79.8175 C   0  0  0  0  0  0  0  0  0  0  0  0
   -1.7091   71.6822   78.5213 N   0  0  0  0  0  0  0  0  0  0  0  0
   -2.5721   72.6297   79.0839 C   0  0  0  0  0  0  0  0  0  0  0  0
   -3.7939   72.4936   78.9613 O   0  0  0  0  0  0  0  0  0  0  0  0
   -0.2634   74.9262   80.4632 N   0  0  0  0  0  0  0  0  0  0  0  0
    0.1758   72.8876   79.2586 C   0  0  0  0  0  0  0  0  0  0  0  0
   -0.3593   71.8364   78.6213 C   0  0  0  0  0  0  0  0  0  0  0  0
   -2.6410   74.3592   80.1544 H   0  0  0  0  0  0  0  0  0  0  0  0
   -0.8953   75.5789   80.8426 H   0  0  0  0  0  0  0  0  0  0  0  0
    0.7063   75.0668   80.5590 H   0  0  0  0  0  0  0  0  0  0  0  0
  1  2  1  0  0  0
  1  4  1  0  0  0
  2  6  1  0  0  0
  2  7  2  0  0  0
  3  4  1  0  0  0
  3  8  2  0  0  0
  4  5  2  0  0  0
  7  8  1  0  0  0
  1  9  1  0  0  0
  6 10  1  0  0  0
  6 11  1  0  0  0
M  END
> <minimizedAffinity>
-5.11202

$$$$
5KO5_CYT_A_301


 11 11  0  0  0  0  0  0  0  0999 V2000
   -1.9255   74.3386   79.7627 N   0  0  0  0  0  0  0  0  0  0  0  0
   -2.4183   73.2254   79.2182 C   0  0  0  0  0  0  0  0  0  0  0  0
    0.2670   73.4605   79.5003 N   0  0  0  0  0  0  0  0  0  0  0  0
   -0.5866   74.4829   79.9310 C   0  0  0  0  0  0  0  0  0  0  0  0
   -0.1135   75.4872   80.4730 O   0  0  0  0  0  0  0  0  0  0  0  0
   -3.7470   73.1366   79.0909 N   0  0  0  0  0  0  0  0  0  0  0  0
   -1.5637   72.1744   78.7630 C   0  0  0  0  0  0  0  0  0  0  0  0
   -0.2431   72.3334   78.9301 C   0  0  0  0  0  0  0  0  0  0  0  0
   -2.5354   75.0586   80.0437 H   0  0  0  0  0  0  0  0  0  0  0  0
   -4.3221   73.8694   79.4095 H   0  0  0  0  0  0  0  0  0  0  0  0
   -4.1497   72.3385   78.6784 H   0  0  0  0  0  0  0  0  0  0  0  0
  1  2  1  0  0  0
  1  4  1  0  0  0
  2  6  1  0  0  0
  2  7  2  0  0  0
  3  4  1  0  0  0
  3  8  2  0  0  0
  4  5  2  0  0  0
  7  8  1  0  0  0
  1  9  1  0  0  0
  6 10  1  0  0  0
  6 11  1  0  0  0
M  END
> <minimizedAffinity>
-5.03361

$$$$
5KO5_CYT_A_301


 11 11  0  0  0  0  0  0  0  0999 V2000
   -0.9774   72.2792   78.8836 N   0  0  0  0  0  0  0  0  0  0  0  0
   -0.8412   73.5268   79.3345 C   0  0  0  0  0  0  0  0  0  0  0  0
   -3.3165   72.4246   79.2764 N   0  0  0  0  0  0  0  0  0  0  0  0
   -2.2009   71.6924   78.8539 C   0  0  0  0  0  0  0  0  0  0  0  0
   -2.3418   70.5231   78.4809 O   0  0  0  0  0  0  0  0  0  0  0  0
    0.3916   74.0456   79.3517 N   0  0  0  0  0  0  0  0  0  0  0  0
   -1.9685   74.2946   79.7611 C   0  0  0  0  0  0  0  0  0  0  0  0
   -3.1715   73.7042   79.7204 C   0  0  0  0  0  0  0  0  0  0  0  0
   -0.1874   71.7818   78.5709 H   0  0  0  0  0  0  0  0  0  0  0  0
    1.1579   73.5036   79.0546 H   0  0  0  0  0  0  0  0  0  0  0  0
    0.5327   74.9694   79.6613 H   0  0  0  0  0  0  0  0  0  0  0  0
  1  2  1  0  0  0
  1  4  1  0  0  0
  2  6  1  0  0  0
  2  7  2  0  0  0
  3  4  1  0  0  0
  3  8  2  0  0  0
  4  5  2  0  0  0
  7  8  1  0  0  0
  1  9  1  0  0  0
  6 10  1  0  0  0
  6 11  1  0  0  0
M  END
> <minimizedAffinity>
-5.01414

$$$$
5KO5_CYT_A_301


 11 11  0  0  0  0  0  0  0  0999 V2000
   -0.1846   74.1556   80.6457 N   0  0  0  0  0  0  0  0  0  0  0  0
    1.0178   74.3658   81.1830 C   0  0  0  0  0  0  0  0  0  0  0  0
   -0.1477   76.3656   79.7731 N   0  0  0  0  0  0  0  0  0  0  0  0
   -0.8023   75.1404   79.9453 C   0  0  0  0  0  0  0  0  0  0  0  0
   -1.9343   74.9803   79.4772 O   0  0  0  0  0  0  0  0  0  0  0  0
    1.5694   73.3614   81.8731 N   0  0  0  0  0  0  0  0  0  0  0  0
    1.7071   75.6056   81.0104 C   0  0  0  0  0  0  0  0  0  0  0  0
    1.0875   76.5670   80.3111 C   0  0  0  0  0  0  0  0  0  0  0  0
   -0.6259   73.2827   80.7576 H   0  0  0  0  0  0  0  0  0  0  0  0
    1.0815   72.5134   81.9830 H   0  0  0  0  0  0  0  0  0  0  0  0
    2.4632   73.4702   82.2712 H   0  0  0  0  0  0  0  0  0  0  0  0
  1  2  1  0  0  0
  1  4  1  0  0  0
  2  6  1  0  0  0
  2  7  2  0  0  0
  3  4  1  0  0  0
  3  8  2  0  0  0
  4  5  2  0  0  0
  7  8  1  0  0  0
  1  9  1  0  0  0
  6 10  1  0  0  0
  6 11  1  0  0  0
M  END
> <minimizedAffinity>
-4.99899

$$$$
5KO5_CYT_A_301


 11 11  0  0  0  0  0  0  0  0999 V2000
   -2.1206   72.3697   78.7638 N   0  0  0  0  0  0  0  0  0  0  0  0
   -2.5861   73.4263   79.4312 C   0  0  0  0  0  0  0  0  0  0  0  0
    0.0951   73.0667   79.2655 N   0  0  0  0  0  0  0  0  0  0  0  0
   -0.7834   72.1674   78.6501 C   0  0  0  0  0  0  0  0  0  0  0  0
   -0.3320   71.2192   77.9994 O   0  0  0  0  0  0  0  0  0  0  0  0
   -3.9134   73.5787   79.4973 N   0  0  0  0  0  0  0  0  0  0  0  0
   -1.7065   74.3505   80.0749 C   0  0  0  0  0  0  0  0  0  0  0  0
   -0.3884   74.1346   79.9594 C   0  0  0  0  0  0  0  0  0  0  0  0
   -2.7495   71.7339   78.3521 H   0  0  0  0  0  0  0  0  0  0  0  0
   -4.5059   72.9333   79.0483 H   0  0  0  0  0  0  0  0  0  0  0  0
   -4.2978   74.3363   79.9949 H   0  0  0  0  0  0  0  0  0  0  0  0
  1  2  1  0  0  0
  1  4  1  0  0  0
  2  6  1  0  0  0
  2  7  2  0  0  0
  3  4  1  0  0  0
  3  8  2  0  0  0
  4  5  2  0  0  0
  7  8  1  0  0  0
  1  9  1  0  0  0
  6 10  1  0  0  0
  6 11  1  0  0  0
M  END
> <minimizedAffinity>
-4.96565

$$$$
