2P09_ATP_A_500


 39 41  0  0  0  0  0  0  0  0999 V2000
    0.3127   29.8526   16.6839 C   0  0  0  0  0  0  0  0  0  0  0  0
    0.0768   31.2667   16.6616 O   0  0  0  0  0  0  0  0  0  0  0  0
    1.7838   29.6823   16.3485 C   0  0  0  0  0  0  0  0  0  0  0  0
    1.9362   29.6563   14.9093 O   0  0  0  0  0  0  0  0  0  0  0  0
    2.3674   31.0164   16.8474 C   0  0  0  0  0  0  0  0  0  0  0  0
    3.5983   31.3908   16.2693 O   0  0  0  0  0  0  0  0  0  0  0  0
    1.2599   31.9935   16.3729 C   0  0  0  0  0  0  0  0  0  0  0  0
    1.5356   30.4528   14.5273 H   0  0  0  0  0  0  0  0  0  0  0  0
    3.4998   31.4453   15.3059 H   0  0  0  0  0  0  0  0  0  0  0  0
    1.2285   33.2204   17.2172 N   0  0  0  0  0  0  0  0  0  0  0  0
    0.3119   33.5165   18.1780 C   0  0  0  0  0  0  0  0  0  0  0  0
    0.5961   34.7294   18.7285 N   0  0  0  0  0  0  0  0  0  0  0  0
    1.6876   35.2161   18.1151 C   0  0  0  0  0  0  0  0  0  0  0  0
    2.5001   36.4313   18.2314 C   0  0  0  0  0  0  0  0  0  0  0  0
    2.1778   37.3818   19.1561 N   0  0  0  0  0  0  0  0  0  0  0  0
    3.5946   36.5651   17.4070 N   0  0  0  0  0  0  0  0  0  0  0  0
    3.9028   35.5895   16.4911 C   0  0  0  0  0  0  0  0  0  0  0  0
    3.1943   34.4456   16.3416 N   0  0  0  0  0  0  0  0  0  0  0  0
    2.1029   34.2063   17.1082 C   0  0  0  0  0  0  0  0  0  0  0  0
    1.3891   37.2601   19.7327 H   0  0  0  0  0  0  0  0  0  0  0  0
    2.7340   38.1891   19.2467 H   0  0  0  0  0  0  0  0  0  0  0  0
   -0.1255   29.2576   18.0306 C   0  0  0  0  0  0  0  0  0  0  0  0
   -0.4959   30.3298   18.9370 O   0  0  0  0  0  0  0  0  0  0  0  0
   -1.8729   30.3100   19.6930 P   0  0  0  0  0  0  0  0  0  0  0  0
   -1.6706   29.5397   21.0123 O   0  0  0  0  0  0  0  0  0  0  0  0
   -2.9191   29.7681   18.7323 O   0  0  0  0  0  0  0  0  0  0  0  0
   -3.7824   29.7446   19.1740 H   0  0  0  0  0  0  0  0  0  0  0  0
   -2.1005   31.8907   19.8757 O   0  0  0  0  0  0  0  0  0  0  0  0
   -3.4554   32.7727   20.1498 P   0  0  0  0  0  0  0  0  0  0  0  0
   -3.3499   33.8652   19.0855 O   0  0  0  0  0  0  0  0  0  0  0  0
   -4.6445   31.7811   20.1323 O   0  0  0  0  0  0  0  0  0  0  0  0
   -5.4706   32.2640   20.2914 H   0  0  0  0  0  0  0  0  0  0  0  0
   -3.3865   33.4317   21.6419 O   0  0  0  0  0  0  0  0  0  0  0  0
   -2.0097   33.8313   22.4668 P   0  0  0  0  0  0  0  0  0  0  0  0
   -1.5561   32.5372   23.1367 O   0  0  0  0  0  0  0  0  0  0  0  0
   -2.3684   34.9020   23.4911 O   0  0  0  0  0  0  0  0  0  0  0  0
   -1.0685   34.3521   21.3764 O   0  0  0  0  0  0  0  0  0  0  0  0
   -1.5741   35.1528   23.9884 H   0  0  0  0  0  0  0  0  0  0  0  0
   -0.2240   34.6131   21.7758 H   0  0  0  0  0  0  0  0  0  0  0  0
 34 35  2  0  0  0
 34 36  1  0  0  0
 34 37  1  0  0  0
 34 33  1  0  0  0
 29 30  2  0  0  0
 29 31  1  0  0  0
 29 33  1  0  0  0
 29 28  1  0  0  0
 24 25  2  0  0  0
 24 26  1  0  0  0
 24 28  1  0  0  0
 24 23  1  0  0  0
 23 22  1  0  0  0
 22  1  1  0  0  0
  1  2  1  0  0  0
  1  3  1  0  0  0
  2  7  1  0  0  0
  3  4  1  0  0  0
  3  5  1  0  0  0
  5  6  1  0  0  0
  5  7  1  0  0  0
  7 10  1  0  0  0
 10 11  1  0  0  0
 10 19  1  0  0  0
 11 12  2  0  0  0
 12 13  1  0  0  0
 13 14  1  0  0  0
 13 19  2  0  0  0
 14 15  1  0  0  0
 14 16  2  0  0  0
 16 17  1  0  0  0
 17 18  2  0  0  0
 18 19  1  0  0  0
 36 38  1  0  0  0
 37 39  1  0  0  0
 31 32  1  0  0  0
 26 27  1  0  0  0
  4  8  1  0  0  0
  6  9  1  0  0  0
 15 20  1  0  0  0
 15 21  1  0  0  0
M  END
> <minimizedAffinity>
-7.60232

$$$$
2P09_ATP_A_500


 39 41  0  0  0  0  0  0  0  0999 V2000
    0.3881   29.7931   16.7662 C   0  0  0  0  0  0  0  0  0  0  0  0
    0.0671   31.1904   16.7840 O   0  0  0  0  0  0  0  0  0  0  0  0
    1.8177   29.7127   16.2607 C   0  0  0  0  0  0  0  0  0  0  0  0
    1.8027   29.6986   14.8134 O   0  0  0  0  0  0  0  0  0  0  0  0
    2.3745   31.0787   16.7002 C   0  0  0  0  0  0  0  0  0  0  0  0
    3.5052   31.5279   15.9864 O   0  0  0  0  0  0  0  0  0  0  0  0
    1.1629   31.9880   16.3662 C   0  0  0  0  0  0  0  0  0  0  0  0
    1.3133   30.4701   14.4876 H   0  0  0  0  0  0  0  0  0  0  0  0
    3.2920   31.5781   15.0414 H   0  0  0  0  0  0  0  0  0  0  0  0
    1.1568   33.2092   17.2193 N   0  0  0  0  0  0  0  0  0  0  0  0
    0.2572   33.5082   18.1952 C   0  0  0  0  0  0  0  0  0  0  0  0
    0.5622   34.7141   18.7498 N   0  0  0  0  0  0  0  0  0  0  0  0
    1.6500   35.1935   18.1241 C   0  0  0  0  0  0  0  0  0  0  0  0
    2.4770   36.3993   18.2369 C   0  0  0  0  0  0  0  0  0  0  0  0
    2.1782   37.3466   19.1727 N   0  0  0  0  0  0  0  0  0  0  0  0
    3.5608   36.5273   17.3977 N   0  0  0  0  0  0  0  0  0  0  0  0
    3.8454   35.5549   16.4707 C   0  0  0  0  0  0  0  0  0  0  0  0
    3.1227   34.4197   16.3237 N   0  0  0  0  0  0  0  0  0  0  0  0
    2.0399   34.1866   17.1043 C   0  0  0  0  0  0  0  0  0  0  0  0
    1.3966   37.2293   19.7598 H   0  0  0  0  0  0  0  0  0  0  0  0
    2.7441   38.1474   19.2607 H   0  0  0  0  0  0  0  0  0  0  0  0
    0.1462   29.1703   18.1494 C   0  0  0  0  0  0  0  0  0  0  0  0
   -0.9181   28.1867   18.0590 O   0  0  0  0  0  0  0  0  0  0  0  0
   -2.0960   28.1720   19.0984 P   0  0  0  0  0  0  0  0  0  0  0  0
   -1.6121   27.4013   20.3421 O   0  0  0  0  0  0  0  0  0  0  0  0
   -3.3291   27.6334   18.3908 O   0  0  0  0  0  0  0  0  0  0  0  0
   -4.0747   27.6131   19.0110 H   0  0  0  0  0  0  0  0  0  0  0  0
   -2.2727   29.7534   19.3248 O   0  0  0  0  0  0  0  0  0  0  0  0
   -2.6624   30.6274   20.6565 P   0  0  0  0  0  0  0  0  0  0  0  0
   -4.1740   30.7959   20.5006 O   0  0  0  0  0  0  0  0  0  0  0  0
   -2.0857   29.8655   21.8748 O   0  0  0  0  0  0  0  0  0  0  0  0
   -2.2948   30.3509   22.6882 H   0  0  0  0  0  0  0  0  0  0  0  0
   -1.9241   32.0821   20.5915 O   0  0  0  0  0  0  0  0  0  0  0  0
   -2.0185   33.2734   21.7348 P   0  0  0  0  0  0  0  0  0  0  0  0
   -3.4836   33.7005   21.7462 O   0  0  0  0  0  0  0  0  0  0  0  0
   -1.1014   34.4129   21.3045 O   0  0  0  0  0  0  0  0  0  0  0  0
   -1.5413   32.5869   23.0182 O   0  0  0  0  0  0  0  0  0  0  0  0
   -1.1404   35.1251   21.9618 H   0  0  0  0  0  0  0  0  0  0  0  0
   -1.5644   33.2210   23.7519 H   0  0  0  0  0  0  0  0  0  0  0  0
 34 35  2  0  0  0
 34 36  1  0  0  0
 34 37  1  0  0  0
 34 33  1  0  0  0
 29 30  2  0  0  0
 29 31  1  0  0  0
 29 33  1  0  0  0
 29 28  1  0  0  0
 24 25  2  0  0  0
 24 26  1  0  0  0
 24 28  1  0  0  0
 24 23  1  0  0  0
 23 22  1  0  0  0
 22  1  1  0  0  0
  1  2  1  0  0  0
  1  3  1  0  0  0
  2  7  1  0  0  0
  3  4  1  0  0  0
  3  5  1  0  0  0
  5  6  1  0  0  0
  5  7  1  0  0  0
  7 10  1  0  0  0
 10 11  1  0  0  0
 10 19  1  0  0  0
 11 12  2  0  0  0
 12 13  1  0  0  0
 13 14  1  0  0  0
 13 19  2  0  0  0
 14 15  1  0  0  0
 14 16  2  0  0  0
 16 17  1  0  0  0
 17 18  2  0  0  0
 18 19  1  0  0  0
 36 38  1  0  0  0
 37 39  1  0  0  0
 31 32  1  0  0  0
 26 27  1  0  0  0
  4  8  1  0  0  0
  6  9  1  0  0  0
 15 20  1  0  0  0
 15 21  1  0  0  0
M  END
> <minimizedAffinity>
-7.11231

$$$$
2P09_ATP_A_500


 39 41  0  0  0  0  0  0  0  0999 V2000
    0.2153   30.0611   16.1545 C   0  0  0  0  0  0  0  0  0  0  0  0
    0.1690   31.4941   16.1418 O   0  0  0  0  0  0  0  0  0  0  0  0
    1.6910   29.7036   16.1426 C   0  0  0  0  0  0  0  0  0  0  0  0
    2.1557   29.6781   14.7720 O   0  0  0  0  0  0  0  0  0  0  0  0
    2.3109   30.9423   16.8140 C   0  0  0  0  0  0  0  0  0  0  0  0
    3.6766   31.1598   16.5362 O   0  0  0  0  0  0  0  0  0  0  0  0
    1.4680   32.0631   16.1507 C   0  0  0  0  0  0  0  0  0  0  0  0
    1.9530   30.5257   14.3461 H   0  0  0  0  0  0  0  0  0  0  0  0
    3.8028   31.2403   15.5778 H   0  0  0  0  0  0  0  0  0  0  0  0
    1.4031   33.2715   17.0195 N   0  0  0  0  0  0  0  0  0  0  0  0
    0.4462   33.5498   17.9457 C   0  0  0  0  0  0  0  0  0  0  0  0
    0.7092   34.7494   18.5344 N   0  0  0  0  0  0  0  0  0  0  0  0
    1.8277   35.2456   17.9798 C   0  0  0  0  0  0  0  0  0  0  0  0
    2.6374   36.4552   18.1578 C   0  0  0  0  0  0  0  0  0  0  0  0
    2.2775   37.3865   19.0883 N   0  0  0  0  0  0  0  0  0  0  0  0
    3.7670   36.6031   17.3849 N   0  0  0  0  0  0  0  0  0  0  0  0
    4.1123   35.6465   16.4621 C   0  0  0  0  0  0  0  0  0  0  0  0
    3.4081   34.5087   16.2571 N   0  0  0  0  0  0  0  0  0  0  0  0
    2.2838   34.2565   16.9701 C   0  0  0  0  0  0  0  0  0  0  0  0
    1.4642   37.2550   19.6272 H   0  0  0  0  0  0  0  0  0  0  0  0
    2.8312   38.1897   19.2205 H   0  0  0  0  0  0  0  0  0  0  0  0
   -0.5828   29.5100   17.3458 C   0  0  0  0  0  0  0  0  0  0  0  0
   -1.3248   30.5889   17.9732 O   0  0  0  0  0  0  0  0  0  0  0  0
   -1.7575   30.5027   19.4809 P   0  0  0  0  0  0  0  0  0  0  0  0
   -0.9558   29.3592   20.1326 O   0  0  0  0  0  0  0  0  0  0  0  0
   -3.2731   30.3910   19.5204 O   0  0  0  0  0  0  0  0  0  0  0  0
   -3.5694   30.3360   20.4424 H   0  0  0  0  0  0  0  0  0  0  0  0
   -1.3294   31.9739   19.9666 O   0  0  0  0  0  0  0  0  0  0  0  0
   -2.0043   33.0042   21.0493 P   0  0  0  0  0  0  0  0  0  0  0  0
   -2.0516   32.1528   22.3184 O   0  0  0  0  0  0  0  0  0  0  0  0
   -1.1621   34.3030   21.0142 O   0  0  0  0  0  0  0  0  0  0  0  0
   -1.5290   34.9434   21.6436 H   0  0  0  0  0  0  0  0  0  0  0  0
   -3.5178   33.3862   20.5709 O   0  0  0  0  0  0  0  0  0  0  0  0
   -4.9065   33.1170   21.4279 P   0  0  0  0  0  0  0  0  0  0  0  0
   -6.0247   33.7023   20.5699 O   0  0  0  0  0  0  0  0  0  0  0  0
   -4.7827   33.8400   22.7645 O   0  0  0  0  0  0  0  0  0  0  0  0
   -4.9498   31.5940   21.5848 O   0  0  0  0  0  0  0  0  0  0  0  0
   -5.5880   33.6960   23.2858 H   0  0  0  0  0  0  0  0  0  0  0  0
   -5.7433   31.3426   22.0828 H   0  0  0  0  0  0  0  0  0  0  0  0
 34 35  2  0  0  0
 34 36  1  0  0  0
 34 37  1  0  0  0
 34 33  1  0  0  0
 29 30  2  0  0  0
 29 31  1  0  0  0
 29 33  1  0  0  0
 29 28  1  0  0  0
 24 25  2  0  0  0
 24 26  1  0  0  0
 24 28  1  0  0  0
 24 23  1  0  0  0
 23 22  1  0  0  0
 22  1  1  0  0  0
  1  2  1  0  0  0
  1  3  1  0  0  0
  2  7  1  0  0  0
  3  4  1  0  0  0
  3  5  1  0  0  0
  5  6  1  0  0  0
  5  7  1  0  0  0
  7 10  1  0  0  0
 10 11  1  0  0  0
 10 19  1  0  0  0
 11 12  2  0  0  0
 12 13  1  0  0  0
 13 14  1  0  0  0
 13 19  2  0  0  0
 14 15  1  0  0  0
 14 16  2  0  0  0
 16 17  1  0  0  0
 17 18  2  0  0  0
 18 19  1  0  0  0
 36 38  1  0  0  0
 37 39  1  0  0  0
 31 32  1  0  0  0
 26 27  1  0  0  0
  4  8  1  0  0  0
  6  9  1  0  0  0
 15 20  1  0  0  0
 15 21  1  0  0  0
M  END
> <minimizedAffinity>
-7.09784

$$$$
2P09_ATP_A_500


 39 41  0  0  0  0  0  0  0  0999 V2000
    0.0434   30.1119   15.8928 C   0  0  0  0  0  0  0  0  0  0  0  0
    0.0826   31.5443   15.9446 O   0  0  0  0  0  0  0  0  0  0  0  0
    1.4913   29.6638   15.9849 C   0  0  0  0  0  0  0  0  0  0  0  0
    2.0682   29.6676   14.6575 O   0  0  0  0  0  0  0  0  0  0  0  0
    2.1237   30.8317   16.7631 C   0  0  0  0  0  0  0  0  0  0  0  0
    3.5185   30.9750   16.6090 O   0  0  0  0  0  0  0  0  0  0  0  0
    1.4074   32.0302   16.0870 C   0  0  0  0  0  0  0  0  0  0  0  0
    1.9525   30.5435   14.2571 H   0  0  0  0  0  0  0  0  0  0  0  0
    3.7299   31.0881   15.6691 H   0  0  0  0  0  0  0  0  0  0  0  0
    1.3401   33.2022   17.0041 N   0  0  0  0  0  0  0  0  0  0  0  0
    0.4179   33.4103   17.9825 C   0  0  0  0  0  0  0  0  0  0  0  0
    0.6654   34.5961   18.6049 N   0  0  0  0  0  0  0  0  0  0  0  0
    1.7387   35.1536   18.0203 C   0  0  0  0  0  0  0  0  0  0  0  0
    2.5126   36.3849   18.2085 C   0  0  0  0  0  0  0  0  0  0  0  0
    2.1635   37.2670   19.1896 N   0  0  0  0  0  0  0  0  0  0  0  0
    3.5994   36.6031   17.3921 N   0  0  0  0  0  0  0  0  0  0  0  0
    3.9352   35.6949   16.4183 C   0  0  0  0  0  0  0  0  0  0  0  0
    3.2629   34.5402   16.2010 N   0  0  0  0  0  0  0  0  0  0  0  0
    2.1823   34.2203   16.9535 C   0  0  0  0  0  0  0  0  0  0  0  0
    1.3812   37.0856   19.7591 H   0  0  0  0  0  0  0  0  0  0  0  0
    2.6941   38.0847   19.3280 H   0  0  0  0  0  0  0  0  0  0  0  0
   -0.8837   29.5617   16.9870 C   0  0  0  0  0  0  0  0  0  0  0  0
   -0.1337   29.3938   18.2190 O   0  0  0  0  0  0  0  0  0  0  0  0
   -0.7614   28.6512   19.4529 P   0  0  0  0  0  0  0  0  0  0  0  0
   -2.0684   29.3799   19.8215 O   0  0  0  0  0  0  0  0  0  0  0  0
    0.3066   28.5643   20.5313 O   0  0  0  0  0  0  0  0  0  0  0  0
   -0.0544   28.1088   21.3079 H   0  0  0  0  0  0  0  0  0  0  0  0
   -0.9731   27.1939   18.8088 O   0  0  0  0  0  0  0  0  0  0  0  0
   -0.4479   25.7107   19.2709 P   0  0  0  0  0  0  0  0  0  0  0  0
   -0.4979   25.8116   20.7957 O   0  0  0  0  0  0  0  0  0  0  0  0
   -1.3285   24.6747   18.5301 O   0  0  0  0  0  0  0  0  0  0  0  0
   -1.0499   23.7788   18.7762 H   0  0  0  0  0  0  0  0  0  0  0  0
    1.0913   25.4952   18.7711 O   0  0  0  0  0  0  0  0  0  0  0  0
    1.8774   24.0462   18.6376 P   0  0  0  0  0  0  0  0  0  0  0  0
    1.6771   23.3580   19.9850 O   0  0  0  0  0  0  0  0  0  0  0  0
    3.3495   24.3325   18.3629 O   0  0  0  0  0  0  0  0  0  0  0  0
    1.1814   23.3601   17.4582 O   0  0  0  0  0  0  0  0  0  0  0  0
    3.8319   23.4950   18.2805 H   0  0  0  0  0  0  0  0  0  0  0  0
    1.5842   22.4909   17.3062 H   0  0  0  0  0  0  0  0  0  0  0  0
 34 35  2  0  0  0
 34 36  1  0  0  0
 34 37  1  0  0  0
 34 33  1  0  0  0
 29 30  2  0  0  0
 29 31  1  0  0  0
 29 33  1  0  0  0
 29 28  1  0  0  0
 24 25  2  0  0  0
 24 26  1  0  0  0
 24 28  1  0  0  0
 24 23  1  0  0  0
 23 22  1  0  0  0
 22  1  1  0  0  0
  1  2  1  0  0  0
  1  3  1  0  0  0
  2  7  1  0  0  0
  3  4  1  0  0  0
  3  5  1  0  0  0
  5  6  1  0  0  0
  5  7  1  0  0  0
  7 10  1  0  0  0
 10 11  1  0  0  0
 10 19  1  0  0  0
 11 12  2  0  0  0
 12 13  1  0  0  0
 13 14  1  0  0  0
 13 19  2  0  0  0
 14 15  1  0  0  0
 14 16  2  0  0  0
 16 17  1  0  0  0
 17 18  2  0  0  0
 18 19  1  0  0  0
 36 38  1  0  0  0
 37 39  1  0  0  0
 31 32  1  0  0  0
 26 27  1  0  0  0
  4  8  1  0  0  0
  6  9  1  0  0  0
 15 20  1  0  0  0
 15 21  1  0  0  0
M  END
> <minimizedAffinity>
-6.86970

$$$$
2P09_ATP_A_500


 39 41  0  0  0  0  0  0  0  0999 V2000
    0.1077   30.1139   15.7798 C   0  0  0  0  0  0  0  0  0  0  0  0
    0.1140   31.5455   15.8612 O   0  0  0  0  0  0  0  0  0  0  0  0
    1.5669   29.6984   15.8421 C   0  0  0  0  0  0  0  0  0  0  0  0
    2.1242   29.7434   14.5071 O   0  0  0  0  0  0  0  0  0  0  0  0
    2.1830   30.8646   16.6358 C   0  0  0  0  0  0  0  0  0  0  0  0
    3.5716   31.0441   16.4651 O   0  0  0  0  0  0  0  0  0  0  0  0
    1.4290   32.0595   15.9952 C   0  0  0  0  0  0  0  0  0  0  0  0
    1.9822   30.6245   14.1269 H   0  0  0  0  0  0  0  0  0  0  0  0
    3.7667   31.1817   15.5249 H   0  0  0  0  0  0  0  0  0  0  0  0
    1.3476   33.2104   16.9376 N   0  0  0  0  0  0  0  0  0  0  0  0
    0.4090   33.3977   17.9045 C   0  0  0  0  0  0  0  0  0  0  0  0
    0.6475   34.5685   18.5581 N   0  0  0  0  0  0  0  0  0  0  0  0
    1.7315   35.1372   18.0050 C   0  0  0  0  0  0  0  0  0  0  0  0
    2.5038   36.3626   18.2346 C   0  0  0  0  0  0  0  0  0  0  0  0
    2.1392   37.2226   19.2295 N   0  0  0  0  0  0  0  0  0  0  0  0
    3.6047   36.5974   17.4421 N   0  0  0  0  0  0  0  0  0  0  0  0
    3.9560   35.7111   16.4537 C   0  0  0  0  0  0  0  0  0  0  0  0
    3.2858   34.5629   16.1985 N   0  0  0  0  0  0  0  0  0  0  0  0
    2.1920   34.2278   16.9248 C   0  0  0  0  0  0  0  0  0  0  0  0
    1.3469   37.0296   19.7812 H   0  0  0  0  0  0  0  0  0  0  0  0
    2.6684   38.0359   19.3957 H   0  0  0  0  0  0  0  0  0  0  0  0
   -0.7903   29.5193   16.8751 C   0  0  0  0  0  0  0  0  0  0  0  0
   -0.1481   28.3490   17.4465 O   0  0  0  0  0  0  0  0  0  0  0  0
   -0.2981   28.0087   18.9728 P   0  0  0  0  0  0  0  0  0  0  0  0
   -1.7729   28.2338   19.3590 O   0  0  0  0  0  0  0  0  0  0  0  0
    0.7434   28.8166   19.7302 O   0  0  0  0  0  0  0  0  0  0  0  0
    0.6737   28.6256   20.6787 H   0  0  0  0  0  0  0  0  0  0  0  0
    0.1536   26.4663   18.9486 O   0  0  0  0  0  0  0  0  0  0  0  0
    1.1202   25.6292   17.9220 P   0  0  0  0  0  0  0  0  0  0  0  0
    0.1416   24.6352   17.2960 O   0  0  0  0  0  0  0  0  0  0  0  0
    1.8415   26.6743   17.0361 O   0  0  0  0  0  0  0  0  0  0  0  0
    2.4269   26.2193   16.4107 H   0  0  0  0  0  0  0  0  0  0  0  0
    2.2634   24.8334   18.7736 O   0  0  0  0  0  0  0  0  0  0  0  0
    2.3010   23.2064   19.0686 P   0  0  0  0  0  0  0  0  0  0  0  0
    3.5863   22.9734   19.8578 O   0  0  0  0  0  0  0  0  0  0  0  0
    2.3240   22.4847   17.7258 O   0  0  0  0  0  0  0  0  0  0  0  0
    1.0115   22.9474   19.8536 O   0  0  0  0  0  0  0  0  0  0  0  0
    2.3463   21.5264   17.8741 H   0  0  0  0  0  0  0  0  0  0  0  0
    0.9498   22.0043   20.0721 H   0  0  0  0  0  0  0  0  0  0  0  0
 34 35  2  0  0  0
 34 36  1  0  0  0
 34 37  1  0  0  0
 34 33  1  0  0  0
 29 30  2  0  0  0
 29 31  1  0  0  0
 29 33  1  0  0  0
 29 28  1  0  0  0
 24 25  2  0  0  0
 24 26  1  0  0  0
 24 28  1  0  0  0
 24 23  1  0  0  0
 23 22  1  0  0  0
 22  1  1  0  0  0
  1  2  1  0  0  0
  1  3  1  0  0  0
  2  7  1  0  0  0
  3  4  1  0  0  0
  3  5  1  0  0  0
  5  6  1  0  0  0
  5  7  1  0  0  0
  7 10  1  0  0  0
 10 11  1  0  0  0
 10 19  1  0  0  0
 11 12  2  0  0  0
 12 13  1  0  0  0
 13 14  1  0  0  0
 13 19  2  0  0  0
 14 15  1  0  0  0
 14 16  2  0  0  0
 16 17  1  0  0  0
 17 18  2  0  0  0
 18 19  1  0  0  0
 36 38  1  0  0  0
 37 39  1  0  0  0
 31 32  1  0  0  0
 26 27  1  0  0  0
  4  8  1  0  0  0
  6  9  1  0  0  0
 15 20  1  0  0  0
 15 21  1  0  0  0
M  END
> <minimizedAffinity>
-6.70965

$$$$
2P09_ATP_A_500


 39 41  0  0  0  0  0  0  0  0999 V2000
    0.4151   29.7923   16.3341 C   0  0  0  0  0  0  0  0  0  0  0  0
    0.1551   31.2019   16.3745 O   0  0  0  0  0  0  0  0  0  0  0  0
    1.9094   29.6629   16.0970 C   0  0  0  0  0  0  0  0  0  0  0  0
    2.1646   29.7219   14.6735 O   0  0  0  0  0  0  0  0  0  0  0  0
    2.4309   30.9745   16.7112 C   0  0  0  0  0  0  0  0  0  0  0  0
    3.6928   31.3993   16.2457 O   0  0  0  0  0  0  0  0  0  0  0  0
    1.3421   31.9611   16.2134 C   0  0  0  0  0  0  0  0  0  0  0  0
    1.7775   30.5332   14.3090 H   0  0  0  0  0  0  0  0  0  0  0  0
    3.6624   31.5076   15.2822 H   0  0  0  0  0  0  0  0  0  0  0  0
    1.2278   33.1369   17.1210 N   0  0  0  0  0  0  0  0  0  0  0  0
    0.2605   33.3455   18.0547 C   0  0  0  0  0  0  0  0  0  0  0  0
    0.4742   34.5351   18.6824 N   0  0  0  0  0  0  0  0  0  0  0  0
    1.5712   35.0945   18.1455 C   0  0  0  0  0  0  0  0  0  0  0  0
    2.3306   36.3299   18.3636 C   0  0  0  0  0  0  0  0  0  0  0  0
    1.9330   37.2148   19.3235 N   0  0  0  0  0  0  0  0  0  0  0  0
    3.4530   36.5491   17.5972 N   0  0  0  0  0  0  0  0  0  0  0  0
    3.8371   35.6380   16.6442 C   0  0  0  0  0  0  0  0  0  0  0  0
    3.1802   34.4795   16.4015 N   0  0  0  0  0  0  0  0  0  0  0  0
    2.0674   34.1584   17.1046 C   0  0  0  0  0  0  0  0  0  0  0  0
    1.1259   37.0327   19.8570 H   0  0  0  0  0  0  0  0  0  0  0  0
    2.4533   38.0354   19.4824 H   0  0  0  0  0  0  0  0  0  0  0  0
   -0.1070   29.1147   17.6100 C   0  0  0  0  0  0  0  0  0  0  0  0
   -0.8464   30.0798   18.4039 O   0  0  0  0  0  0  0  0  0  0  0  0
   -1.9352   29.6133   19.4359 P   0  0  0  0  0  0  0  0  0  0  0  0
   -3.1935   30.4735   19.2085 O   0  0  0  0  0  0  0  0  0  0  0  0
   -1.3091   29.6609   20.8204 O   0  0  0  0  0  0  0  0  0  0  0  0
   -1.9612   29.3769   21.4800 H   0  0  0  0  0  0  0  0  0  0  0  0
   -2.0904   28.0783   18.9854 O   0  0  0  0  0  0  0  0  0  0  0  0
   -1.7865   26.6739   19.7756 P   0  0  0  0  0  0  0  0  0  0  0  0
   -2.0143   25.6318   18.6803 O   0  0  0  0  0  0  0  0  0  0  0  0
   -0.3912   26.8231   20.4300 O   0  0  0  0  0  0  0  0  0  0  0  0
   -0.1708   26.0098   20.9106 H   0  0  0  0  0  0  0  0  0  0  0  0
   -2.8745   26.4755   20.9765 O   0  0  0  0  0  0  0  0  0  0  0  0
   -3.1335   25.0859   21.8354 P   0  0  0  0  0  0  0  0  0  0  0  0
   -1.7950   24.7704   22.4972 O   0  0  0  0  0  0  0  0  0  0  0  0
   -3.5489   23.9960   20.8536 O   0  0  0  0  0  0  0  0  0  0  0  0
   -4.2561   25.4610   22.8075 O   0  0  0  0  0  0  0  0  0  0  0  0
   -3.7067   23.1693   21.3359 H   0  0  0  0  0  0  0  0  0  0  0  0
   -4.4759   24.6940   23.3591 H   0  0  0  0  0  0  0  0  0  0  0  0
 34 35  2  0  0  0
 34 36  1  0  0  0
 34 37  1  0  0  0
 34 33  1  0  0  0
 29 30  2  0  0  0
 29 31  1  0  0  0
 29 33  1  0  0  0
 29 28  1  0  0  0
 24 25  2  0  0  0
 24 26  1  0  0  0
 24 28  1  0  0  0
 24 23  1  0  0  0
 23 22  1  0  0  0
 22  1  1  0  0  0
  1  2  1  0  0  0
  1  3  1  0  0  0
  2  7  1  0  0  0
  3  4  1  0  0  0
  3  5  1  0  0  0
  5  6  1  0  0  0
  5  7  1  0  0  0
  7 10  1  0  0  0
 10 11  1  0  0  0
 10 19  1  0  0  0
 11 12  2  0  0  0
 12 13  1  0  0  0
 13 14  1  0  0  0
 13 19  2  0  0  0
 14 15  1  0  0  0
 14 16  2  0  0  0
 16 17  1  0  0  0
 17 18  2  0  0  0
 18 19  1  0  0  0
 36 38  1  0  0  0
 37 39  1  0  0  0
 31 32  1  0  0  0
 26 27  1  0  0  0
  4  8  1  0  0  0
  6  9  1  0  0  0
 15 20  1  0  0  0
 15 21  1  0  0  0
M  END
> <minimizedAffinity>
-6.22166

$$$$
2P09_ATP_A_500


 39 41  0  0  0  0  0  0  0  0999 V2000
    0.3068   29.7816   16.8670 C   0  0  0  0  0  0  0  0  0  0  0  0
   -0.0267   31.1755   16.9080 O   0  0  0  0  0  0  0  0  0  0  0  0
    1.6989   29.7160   16.2640 C   0  0  0  0  0  0  0  0  0  0  0  0
    1.5842   29.7018   14.8212 O   0  0  0  0  0  0  0  0  0  0  0  0
    2.2705   31.0877   16.6652 C   0  0  0  0  0  0  0  0  0  0  0  0
    3.3445   31.5486   15.8754 O   0  0  0  0  0  0  0  0  0  0  0  0
    1.0294   31.9844   16.4162 C   0  0  0  0  0  0  0  0  0  0  0  0
    1.0656   30.4682   14.5305 H   0  0  0  0  0  0  0  0  0  0  0  0
    3.0662   31.5966   14.9474 H   0  0  0  0  0  0  0  0  0  0  0  0
    1.0695   33.2055   17.2686 N   0  0  0  0  0  0  0  0  0  0  0  0
    0.2003   33.5232   18.2658 C   0  0  0  0  0  0  0  0  0  0  0  0
    0.5438   34.7225   18.8123 N   0  0  0  0  0  0  0  0  0  0  0  0
    1.6259   35.1790   18.1602 C   0  0  0  0  0  0  0  0  0  0  0  0
    2.4804   36.3672   18.2524 C   0  0  0  0  0  0  0  0  0  0  0  0
    2.2243   37.3205   19.1947 N   0  0  0  0  0  0  0  0  0  0  0  0
    3.5461   36.4725   17.3872 N   0  0  0  0  0  0  0  0  0  0  0  0
    3.7878   35.4944   16.4540 C   0  0  0  0  0  0  0  0  0  0  0  0
    3.0381   34.3745   16.3251 N   0  0  0  0  0  0  0  0  0  0  0  0
    1.9699   34.1641   17.1318 C   0  0  0  0  0  0  0  0  0  0  0  0
    1.4549   37.2196   19.8006 H   0  0  0  0  0  0  0  0  0  0  0  0
    2.8088   38.1092   19.2686 H   0  0  0  0  0  0  0  0  0  0  0  0
    0.1673   29.1563   18.2631 C   0  0  0  0  0  0  0  0  0  0  0  0
   -0.6118   27.9343   18.1716 O   0  0  0  0  0  0  0  0  0  0  0  0
    0.0876   26.5276   18.1716 P   0  0  0  0  0  0  0  0  0  0  0  0
    1.5884   26.7519   17.9030 O   0  0  0  0  0  0  0  0  0  0  0  0
   -0.6624   25.6394   17.1920 O   0  0  0  0  0  0  0  0  0  0  0  0
   -0.2509   24.7612   17.1714 H   0  0  0  0  0  0  0  0  0  0  0  0
   -0.2555   26.0584   19.6702 O   0  0  0  0  0  0  0  0  0  0  0  0
   -1.4594   25.1207   20.2705 P   0  0  0  0  0  0  0  0  0  0  0  0
   -1.2633   23.8133   19.5025 O   0  0  0  0  0  0  0  0  0  0  0  0
   -1.3186   25.1465   21.8122 O   0  0  0  0  0  0  0  0  0  0  0  0
   -2.0154   24.6012   22.2097 H   0  0  0  0  0  0  0  0  0  0  0  0
   -2.9050   25.7813   19.8974 O   0  0  0  0  0  0  0  0  0  0  0  0
   -3.4371   27.2795   20.3533 P   0  0  0  0  0  0  0  0  0  0  0  0
   -4.1185   27.8549   19.1148 O   0  0  0  0  0  0  0  0  0  0  0  0
   -2.2234   28.1052   20.7651 O   0  0  0  0  0  0  0  0  0  0  0  0
   -4.3785   26.9916   21.5268 O   0  0  0  0  0  0  0  0  0  0  0  0
   -2.5118   28.9905   21.0372 H   0  0  0  0  0  0  0  0  0  0  0  0
   -4.7420   27.8261   21.8619 H   0  0  0  0  0  0  0  0  0  0  0  0
 34 35  2  0  0  0
 34 36  1  0  0  0
 34 37  1  0  0  0
 34 33  1  0  0  0
 29 30  2  0  0  0
 29 31  1  0  0  0
 29 33  1  0  0  0
 29 28  1  0  0  0
 24 25  2  0  0  0
 24 26  1  0  0  0
 24 28  1  0  0  0
 24 23  1  0  0  0
 23 22  1  0  0  0
 22  1  1  0  0  0
  1  2  1  0  0  0
  1  3  1  0  0  0
  2  7  1  0  0  0
  3  4  1  0  0  0
  3  5  1  0  0  0
  5  6  1  0  0  0
  5  7  1  0  0  0
  7 10  1  0  0  0
 10 11  1  0  0  0
 10 19  1  0  0  0
 11 12  2  0  0  0
 12 13  1  0  0  0
 13 14  1  0  0  0
 13 19  2  0  0  0
 14 15  1  0  0  0
 14 16  2  0  0  0
 16 17  1  0  0  0
 17 18  2  0  0  0
 18 19  1  0  0  0
 36 38  1  0  0  0
 37 39  1  0  0  0
 31 32  1  0  0  0
 26 27  1  0  0  0
  4  8  1  0  0  0
  6  9  1  0  0  0
 15 20  1  0  0  0
 15 21  1  0  0  0
M  END
> <minimizedAffinity>
-6.09830

$$$$
2P09_ATP_A_500


 39 41  0  0  0  0  0  0  0  0999 V2000
    0.3341   29.3047   16.1368 C   0  0  0  0  0  0  0  0  0  0  0  0
    0.0101   30.6998   16.2056 O   0  0  0  0  0  0  0  0  0  0  0  0
    1.8395   29.2477   15.9466 C   0  0  0  0  0  0  0  0  0  0  0  0
    2.1377   29.3574   14.5344 O   0  0  0  0  0  0  0  0  0  0  0  0
    2.2816   30.5633   16.6122 C   0  0  0  0  0  0  0  0  0  0  0  0
    3.5377   31.0559   16.2006 O   0  0  0  0  0  0  0  0  0  0  0  0
    1.1664   31.5147   16.1045 C   0  0  0  0  0  0  0  0  0  0  0  0
    1.7266   30.1608   14.1786 H   0  0  0  0  0  0  0  0  0  0  0  0
    3.5335   31.1896   15.2399 H   0  0  0  0  0  0  0  0  0  0  0  0
    0.9703   32.6586   17.0383 N   0  0  0  0  0  0  0  0  0  0  0  0
   -0.0384   32.8013   17.9401 C   0  0  0  0  0  0  0  0  0  0  0  0
    0.1026   33.9802   18.6072 N   0  0  0  0  0  0  0  0  0  0  0  0
    1.1945   34.5984   18.1275 C   0  0  0  0  0  0  0  0  0  0  0  0
    1.8936   35.8568   18.4074 C   0  0  0  0  0  0  0  0  0  0  0  0
    1.4248   36.6973   19.3750 N   0  0  0  0  0  0  0  0  0  0  0  0
    3.0335   36.1427   17.6903 N   0  0  0  0  0  0  0  0  0  0  0  0
    3.4897   35.2754   16.7283 C   0  0  0  0  0  0  0  0  0  0  0  0
    2.8907   34.0987   16.4298 N   0  0  0  0  0  0  0  0  0  0  0  0
    1.7669   33.7131   17.0813 C   0  0  0  0  0  0  0  0  0  0  0  0
    0.6068   36.4676   19.8725 H   0  0  0  0  0  0  0  0  0  0  0  0
    1.9045   37.5333   19.5756 H   0  0  0  0  0  0  0  0  0  0  0  0
   -0.1981   28.5696   17.3761 C   0  0  0  0  0  0  0  0  0  0  0  0
   -0.8285   29.5228   18.2720 O   0  0  0  0  0  0  0  0  0  0  0  0
   -1.1858   29.1289   19.7502 P   0  0  0  0  0  0  0  0  0  0  0  0
    0.0523   28.4472   20.3645 O   0  0  0  0  0  0  0  0  0  0  0  0
   -2.4715   28.3184   19.7139 O   0  0  0  0  0  0  0  0  0  0  0  0
   -2.7169   28.0607   20.6162 H   0  0  0  0  0  0  0  0  0  0  0  0
   -1.5045   30.5873   20.3460 O   0  0  0  0  0  0  0  0  0  0  0  0
   -2.9107   31.4149   20.5098 P   0  0  0  0  0  0  0  0  0  0  0  0
   -2.5963   32.3582   21.6713 O   0  0  0  0  0  0  0  0  0  0  0  0
   -3.2565   31.9878   19.1135 O   0  0  0  0  0  0  0  0  0  0  0  0
   -4.0862   32.4875   19.1655 H   0  0  0  0  0  0  0  0  0  0  0  0
   -4.1060   30.3848   20.9288 O   0  0  0  0  0  0  0  0  0  0  0  0
   -4.4783   29.8992   22.4654 P   0  0  0  0  0  0  0  0  0  0  0  0
   -3.2053   29.2467   22.9971 O   0  0  0  0  0  0  0  0  0  0  0  0
   -5.6296   28.9035   22.3787 O   0  0  0  0  0  0  0  0  0  0  0  0
   -4.8759   31.1982   23.1729 O   0  0  0  0  0  0  0  0  0  0  0  0
   -5.8659   28.6040   23.2705 H   0  0  0  0  0  0  0  0  0  0  0  0
   -5.1135   31.0054   24.0934 H   0  0  0  0  0  0  0  0  0  0  0  0
 34 35  2  0  0  0
 34 36  1  0  0  0
 34 37  1  0  0  0
 34 33  1  0  0  0
 29 30  2  0  0  0
 29 31  1  0  0  0
 29 33  1  0  0  0
 29 28  1  0  0  0
 24 25  2  0  0  0
 24 26  1  0  0  0
 24 28  1  0  0  0
 24 23  1  0  0  0
 23 22  1  0  0  0
 22  1  1  0  0  0
  1  2  1  0  0  0
  1  3  1  0  0  0
  2  7  1  0  0  0
  3  4  1  0  0  0
  3  5  1  0  0  0
  5  6  1  0  0  0
  5  7  1  0  0  0
  7 10  1  0  0  0
 10 11  1  0  0  0
 10 19  1  0  0  0
 11 12  2  0  0  0
 12 13  1  0  0  0
 13 14  1  0  0  0
 13 19  2  0  0  0
 14 15  1  0  0  0
 14 16  2  0  0  0
 16 17  1  0  0  0
 17 18  2  0  0  0
 18 19  1  0  0  0
 36 38  1  0  0  0
 37 39  1  0  0  0
 31 32  1  0  0  0
 26 27  1  0  0  0
  4  8  1  0  0  0
  6  9  1  0  0  0
 15 20  1  0  0  0
 15 21  1  0  0  0
M  END
> <minimizedAffinity>
-6.02738

$$$$
2P09_ATP_A_500


 39 41  0  0  0  0  0  0  0  0999 V2000
    0.2364   30.1312   15.9085 C   0  0  0  0  0  0  0  0  0  0  0  0
    0.2134   31.5642   15.9535 O   0  0  0  0  0  0  0  0  0  0  0  0
    1.7050   29.7482   15.9564 C   0  0  0  0  0  0  0  0  0  0  0  0
    2.2390   29.7706   14.6114 O   0  0  0  0  0  0  0  0  0  0  0  0
    2.3089   30.9470   16.7097 C   0  0  0  0  0  0  0  0  0  0  0  0
    3.6904   31.1512   16.5109 O   0  0  0  0  0  0  0  0  0  0  0  0
    1.5191   32.1090   16.0520 C   0  0  0  0  0  0  0  0  0  0  0  0
    2.0720   30.6384   14.2115 H   0  0  0  0  0  0  0  0  0  0  0  0
    3.8669   31.2687   15.5644 H   0  0  0  0  0  0  0  0  0  0  0  0
    1.4286   33.2817   16.9662 N   0  0  0  0  0  0  0  0  0  0  0  0
    0.4635   33.5065   17.8985 C   0  0  0  0  0  0  0  0  0  0  0  0
    0.7021   34.6873   18.5338 N   0  0  0  0  0  0  0  0  0  0  0  0
    1.8130   35.2249   18.0034 C   0  0  0  0  0  0  0  0  0  0  0  0
    2.5995   36.4415   18.2311 C   0  0  0  0  0  0  0  0  0  0  0  0
    2.2191   37.3295   19.1951 N   0  0  0  0  0  0  0  0  0  0  0  0
    3.7289   36.6398   17.4692 N   0  0  0  0  0  0  0  0  0  0  0  0
    4.0952   35.7259   16.5119 C   0  0  0  0  0  0  0  0  0  0  0  0
    3.4130   34.5840   16.2604 N   0  0  0  0  0  0  0  0  0  0  0  0
    2.2911   34.2840   16.9584 C   0  0  0  0  0  0  0  0  0  0  0  0
    1.4065   37.1625   19.7252 H   0  0  0  0  0  0  0  0  0  0  0  0
    2.7573   38.1372   19.3604 H   0  0  0  0  0  0  0  0  0  0  0  0
   -0.6305   29.5461   17.0336 C   0  0  0  0  0  0  0  0  0  0  0  0
    0.2107   28.8126   17.9624 O   0  0  0  0  0  0  0  0  0  0  0  0
   -0.4149   28.0104   19.1595 P   0  0  0  0  0  0  0  0  0  0  0  0
   -1.9448   28.0107   18.9735 O   0  0  0  0  0  0  0  0  0  0  0  0
    0.1224   28.6112   20.4485 O   0  0  0  0  0  0  0  0  0  0  0  0
   -0.2485   28.1337   21.2070 H   0  0  0  0  0  0  0  0  0  0  0  0
    0.2825   26.5825   18.9183 O   0  0  0  0  0  0  0  0  0  0  0  0
    0.6387   25.7612   17.5443 P   0  0  0  0  0  0  0  0  0  0  0  0
    1.9717   26.3860   17.1315 O   0  0  0  0  0  0  0  0  0  0  0  0
    0.5597   24.2545   17.8920 O   0  0  0  0  0  0  0  0  0  0  0  0
    0.7647   23.7293   17.1026 H   0  0  0  0  0  0  0  0  0  0  0  0
   -0.4997   26.0657   16.4144 O   0  0  0  0  0  0  0  0  0  0  0  0
   -2.0417   25.4676   16.4005 P   0  0  0  0  0  0  0  0  0  0  0  0
   -2.1460   24.6040   17.6544 O   0  0  0  0  0  0  0  0  0  0  0  0
   -2.2153   24.6424   15.1303 O   0  0  0  0  0  0  0  0  0  0  0  0
   -2.9204   26.7221   16.4118 O   0  0  0  0  0  0  0  0  0  0  0  0
   -3.1148   24.2805   15.1003 H   0  0  0  0  0  0  0  0  0  0  0  0
   -3.8549   26.4624   16.4046 H   0  0  0  0  0  0  0  0  0  0  0  0
 34 35  2  0  0  0
 34 36  1  0  0  0
 34 37  1  0  0  0
 34 33  1  0  0  0
 29 30  2  0  0  0
 29 31  1  0  0  0
 29 33  1  0  0  0
 29 28  1  0  0  0
 24 25  2  0  0  0
 24 26  1  0  0  0
 24 28  1  0  0  0
 24 23  1  0  0  0
 23 22  1  0  0  0
 22  1  1  0  0  0
  1  2  1  0  0  0
  1  3  1  0  0  0
  2  7  1  0  0  0
  3  4  1  0  0  0
  3  5  1  0  0  0
  5  6  1  0  0  0
  5  7  1  0  0  0
  7 10  1  0  0  0
 10 11  1  0  0  0
 10 19  1  0  0  0
 11 12  2  0  0  0
 12 13  1  0  0  0
 13 14  1  0  0  0
 13 19  2  0  0  0
 14 15  1  0  0  0
 14 16  2  0  0  0
 16 17  1  0  0  0
 17 18  2  0  0  0
 18 19  1  0  0  0
 36 38  1  0  0  0
 37 39  1  0  0  0
 31 32  1  0  0  0
 26 27  1  0  0  0
  4  8  1  0  0  0
  6  9  1  0  0  0
 15 20  1  0  0  0
 15 21  1  0  0  0
M  END
> <minimizedAffinity>
-5.94281

$$$$
2P09_ATP_A_500


 39 41  0  0  0  0  0  0  0  0999 V2000
    1.3608   31.1082   13.6510 C   0  0  0  0  0  0  0  0  0  0  0  0
    1.2890   32.3384   14.3839 O   0  0  0  0  0  0  0  0  0  0  0  0
    2.4768   30.3122   14.3043 C   0  0  0  0  0  0  0  0  0  0  0  0
    3.7391   30.7042   13.7143 O   0  0  0  0  0  0  0  0  0  0  0  0
    2.4490   30.8683   15.7394 C   0  0  0  0  0  0  0  0  0  0  0  0
    3.6425   30.7054   16.4732 O   0  0  0  0  0  0  0  0  0  0  0  0
    2.2302   32.3754   15.4442 C   0  0  0  0  0  0  0  0  0  0  0  0
    3.8461   31.6654   13.7888 H   0  0  0  0  0  0  0  0  0  0  0  0
    4.3743   31.1298   15.9986 H   0  0  0  0  0  0  0  0  0  0  0  0
    1.5626   33.0554   16.5893 N   0  0  0  0  0  0  0  0  0  0  0  0
    0.4527   32.6254   17.2483 C   0  0  0  0  0  0  0  0  0  0  0  0
    0.1254   33.5127   18.2282 N   0  0  0  0  0  0  0  0  0  0  0  0
    1.0177   34.5162   18.1920 C   0  0  0  0  0  0  0  0  0  0  0  0
    1.2398   35.7484   18.9554 C   0  0  0  0  0  0  0  0  0  0  0  0
    0.4076   36.0708   19.9879 N   0  0  0  0  0  0  0  0  0  0  0  0
    2.3131   36.5410   18.6162 N   0  0  0  0  0  0  0  0  0  0  0  0
    3.1412   36.1891   17.5787 C   0  0  0  0  0  0  0  0  0  0  0  0
    2.9897   35.0632   16.8425 N   0  0  0  0  0  0  0  0  0  0  0  0
    1.9715   34.2059   17.0966 C   0  0  0  0  0  0  0  0  0  0  0  0
   -0.3527   35.4855   20.2085 H   0  0  0  0  0  0  0  0  0  0  0  0
    0.5676   36.8886   20.5121 H   0  0  0  0  0  0  0  0  0  0  0  0
   -0.0109   30.4170   13.6291 C   0  0  0  0  0  0  0  0  0  0  0  0
   -0.6780   30.6228   14.9023 O   0  0  0  0  0  0  0  0  0  0  0  0
   -2.1147   30.0443   15.1652 P   0  0  0  0  0  0  0  0  0  0  0  0
   -1.9887   28.5123   15.2751 O   0  0  0  0  0  0  0  0  0  0  0  0
   -3.0348   30.5838   14.0819 O   0  0  0  0  0  0  0  0  0  0  0  0
   -3.9320   30.2417   14.2197 H   0  0  0  0  0  0  0  0  0  0  0  0
   -2.4512   30.7836   16.5522 O   0  0  0  0  0  0  0  0  0  0  0  0
   -2.7258   30.2004   18.0600 P   0  0  0  0  0  0  0  0  0  0  0  0
   -3.3798   31.3956   18.7538 O   0  0  0  0  0  0  0  0  0  0  0  0
   -3.5082   28.8751   17.8902 O   0  0  0  0  0  0  0  0  0  0  0  0
   -3.6925   28.4943   18.7631 H   0  0  0  0  0  0  0  0  0  0  0  0
   -1.3027   29.8433   18.7760 O   0  0  0  0  0  0  0  0  0  0  0  0
   -0.9439   28.4461   19.5851 P   0  0  0  0  0  0  0  0  0  0  0  0
   -2.1529   28.1800   20.4776 O   0  0  0  0  0  0  0  0  0  0  0  0
    0.3200   28.6869   20.4031 O   0  0  0  0  0  0  0  0  0  0  0  0
   -0.7346   27.4199   18.4674 O   0  0  0  0  0  0  0  0  0  0  0  0
    0.5504   27.8788   20.8876 H   0  0  0  0  0  0  0  0  0  0  0  0
   -0.5168   26.5583   18.8561 H   0  0  0  0  0  0  0  0  0  0  0  0
 34 35  2  0  0  0
 34 36  1  0  0  0
 34 37  1  0  0  0
 34 33  1  0  0  0
 29 30  2  0  0  0
 29 31  1  0  0  0
 29 33  1  0  0  0
 29 28  1  0  0  0
 24 25  2  0  0  0
 24 26  1  0  0  0
 24 28  1  0  0  0
 24 23  1  0  0  0
 23 22  1  0  0  0
 22  1  1  0  0  0
  1  2  1  0  0  0
  1  3  1  0  0  0
  2  7  1  0  0  0
  3  4  1  0  0  0
  3  5  1  0  0  0
  5  6  1  0  0  0
  5  7  1  0  0  0
  7 10  1  0  0  0
 10 11  1  0  0  0
 10 19  1  0  0  0
 11 12  2  0  0  0
 12 13  1  0  0  0
 13 14  1  0  0  0
 13 19  2  0  0  0
 14 15  1  0  0  0
 14 16  2  0  0  0
 16 17  1  0  0  0
 17 18  2  0  0  0
 18 19  1  0  0  0
 36 38  1  0  0  0
 37 39  1  0  0  0
 31 32  1  0  0  0
 26 27  1  0  0  0
  4  8  1  0  0  0
  6  9  1  0  0  0
 15 20  1  0  0  0
 15 21  1  0  0  0
M  END
> <minimizedAffinity>
-5.94247

$$$$
