3SU6_SU3_A_1


 56 61  0  0  0  0  0  0  0  0999 V2000
  -15.0476   -9.6766   13.4125 N   0  0  0  0  0  0  0  0  0  0  0  0
  -13.6379   -9.6428   13.8593 C   0  0  0  0  0  0  0  0  0  0  0  0
  -12.9115  -10.4823   12.8337 C   0  0  0  0  0  0  0  0  0  0  0  0
  -13.9537  -11.5239   12.4460 C   0  0  0  0  0  0  0  0  0  0  0  0
  -16.0134   -8.9304   13.9617 C   0  0  0  0  0  0  0  0  0  0  0  0
  -15.7405   -8.1576   14.8892 O   0  0  0  0  0  0  0  0  0  0  0  0
  -17.4149   -9.0035   13.4124 C   0  0  0  0  0  0  0  0  0  0  0  0
  -18.3328   -9.2279   14.5263 N   0  0  0  0  0  0  0  0  0  0  0  0
  -18.9480  -10.3867   14.7060 C   0  0  0  0  0  0  0  0  0  0  0  0
  -19.7257  -10.4055   15.8030 O   0  0  0  0  0  0  0  0  0  0  0  0
  -18.8585  -11.3480   13.9376 O   0  0  0  0  0  0  0  0  0  0  0  0
  -13.3185  -13.5415   13.5646 C   0  0  0  0  0  0  0  0  0  0  0  0
  -12.4607  -13.7233   12.7039 O   0  0  0  0  0  0  0  0  0  0  0  0
  -13.4732  -14.3934   14.5578 N   0  0  0  0  0  0  0  0  0  0  0  0
  -12.7768  -15.6643   14.8257 C   0  0  0  0  0  0  0  0  0  0  0  0
  -13.3707  -16.1994   16.1192 C   0  0  0  0  0  0  0  0  0  0  0  0
  -14.3327  -15.3122   16.5754 C   0  0  0  0  0  0  0  0  0  0  0  0
  -14.4626  -14.1303   15.6172 C   0  0  0  0  0  0  0  0  0  0  0  0
  -13.1042  -17.3571   16.8495 C   0  0  0  0  0  0  0  0  0  0  0  0
  -13.8006  -17.5988   18.0283 C   0  0  0  0  0  0  0  0  0  0  0  0
  -14.7606  -16.6988   18.4782 C   0  0  0  0  0  0  0  0  0  0  0  0
  -15.0411  -15.5408   17.7512 C   0  0  0  0  0  0  0  0  0  0  0  0
  -16.0951  -14.5867   18.3093 C   0  0  0  0  0  0  0  0  0  0  0  0
  -17.4926  -14.8763   17.7895 C   0  0  0  0  0  0  0  0  0  0  0  0
  -18.4478  -13.7670   18.2478 C   0  0  0  0  0  0  0  0  0  0  0  0
  -18.9398  -12.9657   17.0434 C   0  0  0  0  0  0  0  0  0  0  0  0
  -20.2674  -12.2452   17.2919 C   0  0  0  0  0  0  0  0  0  0  0  0
  -20.5934  -11.5282   15.9941 C   0  0  0  0  0  0  0  0  0  0  0  0
  -21.3912  -13.2491   17.5669 C   0  0  0  0  0  0  0  0  0  0  0  0
  -20.1560  -11.2342   18.4455 C   0  0  0  0  0  0  0  0  0  0  0  0
  -15.2456  -10.7008   12.3594 C   0  0  0  0  0  0  0  0  0  0  0  0
  -14.1296  -12.4595   13.5407 O   0  0  0  0  0  0  0  0  0  0  0  0
  -18.4992   -8.4955   15.1628 H   0  0  0  0  0  0  0  0  0  0  0  0
  -13.1534   -8.1786   13.8796 C   0  0  0  0  0  0  0  0  0  0  0  0
  -13.1444   -7.4985   12.8543 O   0  0  0  0  0  0  0  0  0  0  0  0
  -12.7479   -7.7381   15.0647 N   0  0  0  0  0  0  0  0  0  0  0  0
  -12.6263   -8.3851   15.7967 H   0  0  0  0  0  0  0  0  0  0  0  0
  -12.4785   -6.3382   15.3162 C   0  0  0  0  0  0  0  0  0  0  0  0
  -13.7664   -5.4722   15.2953 C   0  0  0  0  0  0  0  0  0  0  0  0
  -13.0627   -5.7914   16.6039 C   0  0  0  0  0  0  0  0  0  0  0  0
  -11.1269   -5.7836   14.9013 C   0  0  0  0  0  0  0  0  0  0  0  0
  -10.5059   -6.4287   13.9067 N   0  0  0  0  0  0  0  0  0  0  0  0
  -10.6583   -4.8405   15.5399 O   0  0  0  0  0  0  0  0  0  0  0  0
  -10.8871   -7.2186   13.4595 H   0  0  0  0  0  0  0  0  0  0  0  0
   -9.0902   -5.8026   13.5097 S   0  0  0  0  0  0  0  0  0  0  0  0
   -9.2621   -4.6565   12.6291 O   0  0  0  0  0  0  0  0  0  0  0  0
   -8.2234   -5.5137   14.6392 O   0  0  0  0  0  0  0  0  0  0  0  0
   -8.3359   -7.0817   12.5291 C   0  0  0  0  0  0  0  0  0  0  0  0
   -6.9857   -6.7259   11.9428 C   0  0  0  0  0  0  0  0  0  0  0  0
   -7.0780   -7.7259   13.0986 C   0  0  0  0  0  0  0  0  0  0  0  0
  -13.7443   -4.0144   14.8235 C   0  0  0  0  0  0  0  0  0  0  0  0
  -14.6901   -3.8150   13.6521 C   0  0  0  0  0  0  0  0  0  0  0  0
  -17.8003   -7.7284   12.6086 C   0  0  0  0  0  0  0  0  0  0  0  0
  -18.4454   -6.7260   13.5808 C   0  0  0  0  0  0  0  0  0  0  0  0
  -16.6173   -7.0543   11.9131 C   0  0  0  0  0  0  0  0  0  0  0  0
  -18.8188   -8.1185   11.5436 C   0  0  0  0  0  0  0  0  0  0  0  0
 34 36  1  0  0  0
  1  5  1  0  0  0
  1  2  1  0  0  0
 35 34  2  0  0  0
  2 34  1  0  0  0
  3  2  1  0  0  0
  4  3  1  0  0  0
  4 32  1  0  0  0
  5  6  2  0  0  0
  7  5  1  0  0  0
  7  8  1  0  0  0
  8  9  1  0  0  0
  9 10  1  0  0  0
 10 28  1  0  0  0
 53  7  1  0  0  0
 53 55  1  0  0  0
 11  9  2  0  0  0
 12 14  1  0  0  0
 13 12  2  0  0  0
 14 15  1  0  0  0
 14 18  1  0  0  0
 51 39  1  0  0  0
 52 51  1  0  0  0
 54 53  1  0  0  0
 36 38  1  0  0  0
 38 39  1  0  0  0
 38 40  1  0  0  0
 41 38  1  0  0  0
 41 43  2  0  0  0
 39 40  1  0  0  0
 15 16  1  0  0  0
 16 17  2  0  0  0
 16 19  1  0  0  0
 17 22  1  0  0  0
 18 17  1  0  0  0
 19 20  2  0  0  0
 20 21  1  0  0  0
 22 21  2  0  0  0
 22 23  1  0  0  0
 23 24  1  0  0  0
 42 41  1  0  0  0
 45 42  1  0  0  0
 45 47  2  0  0  0
 48 45  1  0  0  0
 48 50  1  0  0  0
 46 45  2  0  0  0
 49 48  1  0  0  0
 49 50  1  0  0  0
 24 25  1  0  0  0
 26 25  1  0  0  0
 27 26  1  0  0  0
 27 29  1  0  0  0
 27 30  1  0  0  0
 28 27  1  0  0  0
 56 53  1  0  0  0
 31  1  1  0  0  0
 31  4  1  0  0  0
 32 12  1  0  0  0
  8 33  1  0  0  0
 36 37  1  0  0  0
 42 44  1  0  0  0
M  END
> <minimizedAffinity>
-12.28765

$$$$
3SU6_SU3_A_1


 56 61  0  0  0  0  0  0  0  0999 V2000
  -15.0408  -10.1735   13.1720 N   0  0  0  0  0  0  0  0  0  0  0  0
  -13.6146  -10.1444   13.5631 C   0  0  0  0  0  0  0  0  0  0  0  0
  -12.9475  -11.0709   12.5726 C   0  0  0  0  0  0  0  0  0  0  0  0
  -14.0272  -12.1102   12.2976 C   0  0  0  0  0  0  0  0  0  0  0  0
  -15.9676   -9.3669   13.7030 C   0  0  0  0  0  0  0  0  0  0  0  0
  -15.6417   -8.5390   14.5634 O   0  0  0  0  0  0  0  0  0  0  0  0
  -17.3906   -9.4424   13.2123 C   0  0  0  0  0  0  0  0  0  0  0  0
  -18.2697   -9.5660   14.3723 N   0  0  0  0  0  0  0  0  0  0  0  0
  -18.9035  -10.6937   14.6552 C   0  0  0  0  0  0  0  0  0  0  0  0
  -19.6385  -10.6170   15.7789 O   0  0  0  0  0  0  0  0  0  0  0  0
  -18.8655  -11.7078   13.9533 O   0  0  0  0  0  0  0  0  0  0  0  0
  -13.3951  -14.0610   13.5304 C   0  0  0  0  0  0  0  0  0  0  0  0
  -12.5755  -14.3235   12.6535 O   0  0  0  0  0  0  0  0  0  0  0  0
  -13.5306  -14.8380   14.5860 N   0  0  0  0  0  0  0  0  0  0  0  0
  -12.8533  -16.1046   14.9162 C   0  0  0  0  0  0  0  0  0  0  0  0
  -13.4088  -16.5338   16.2651 C   0  0  0  0  0  0  0  0  0  0  0  0
  -14.3322  -15.5932   16.6933 C   0  0  0  0  0  0  0  0  0  0  0  0
  -14.4722  -14.4774   15.6601 C   0  0  0  0  0  0  0  0  0  0  0  0
  -13.1406  -17.6447   17.0643 C   0  0  0  0  0  0  0  0  0  0  0  0
  -13.7963  -17.7867   18.2821 C   0  0  0  0  0  0  0  0  0  0  0  0
  -14.7176  -16.8337   18.7029 C   0  0  0  0  0  0  0  0  0  0  0  0
  -14.9997  -15.7221   17.9076 C   0  0  0  0  0  0  0  0  0  0  0  0
  -16.0095  -14.7054   18.4360 C   0  0  0  0  0  0  0  0  0  0  0  0
  -17.4322  -14.9948   17.9897 C   0  0  0  0  0  0  0  0  0  0  0  0
  -18.3436  -13.8327   18.4042 C   0  0  0  0  0  0  0  0  0  0  0  0
  -18.8635  -13.1044   17.1656 C   0  0  0  0  0  0  0  0  0  0  0  0
  -20.1638  -12.3351   17.4119 C   0  0  0  0  0  0  0  0  0  0  0  0
  -20.5233  -11.7015   16.0800 C   0  0  0  0  0  0  0  0  0  0  0  0
  -21.2986  -13.2889   17.7978 C   0  0  0  0  0  0  0  0  0  0  0  0
  -19.9852  -11.2499   18.4869 C   0  0  0  0  0  0  0  0  0  0  0  0
  -15.3025  -11.2626   12.2013 C   0  0  0  0  0  0  0  0  0  0  0  0
  -14.1819  -12.9632   13.4608 O   0  0  0  0  0  0  0  0  0  0  0  0
  -18.3947   -8.7873   14.9616 H   0  0  0  0  0  0  0  0  0  0  0  0
  -13.0966   -8.6951   13.4629 C   0  0  0  0  0  0  0  0  0  0  0  0
  -12.6504   -8.1106   14.4493 O   0  0  0  0  0  0  0  0  0  0  0  0
  -13.1859   -8.1496   12.2556 N   0  0  0  0  0  0  0  0  0  0  0  0
  -13.7045   -8.6151   11.5603 H   0  0  0  0  0  0  0  0  0  0  0  0
  -12.5459   -6.8932   11.9278 C   0  0  0  0  0  0  0  0  0  0  0  0
  -10.9971   -6.9959   11.9339 C   0  0  0  0  0  0  0  0  0  0  0  0
  -11.7662   -6.8878   10.6276 C   0  0  0  0  0  0  0  0  0  0  0  0
  -13.2702   -5.6067   12.2838 C   0  0  0  0  0  0  0  0  0  0  0  0
  -13.9699   -5.6211   13.4246 N   0  0  0  0  0  0  0  0  0  0  0  0
  -13.2338   -4.6716   11.4830 O   0  0  0  0  0  0  0  0  0  0  0  0
  -14.0240   -6.4105   14.0104 H   0  0  0  0  0  0  0  0  0  0  0  0
  -14.7096   -4.2428   13.7511 S   0  0  0  0  0  0  0  0  0  0  0  0
  -14.2657   -3.1925   12.8466 O   0  0  0  0  0  0  0  0  0  0  0  0
  -16.1573   -4.3410   13.8249 O   0  0  0  0  0  0  0  0  0  0  0  0
  -14.0879   -3.8148   15.3626 C   0  0  0  0  0  0  0  0  0  0  0  0
  -14.0945   -4.9442   16.3715 C   0  0  0  0  0  0  0  0  0  0  0  0
  -12.7699   -4.4566   15.7782 C   0  0  0  0  0  0  0  0  0  0  0  0
  -10.1167   -5.8062   12.3310 C   0  0  0  0  0  0  0  0  0  0  0  0
   -9.6617   -5.9334   13.7743 C   0  0  0  0  0  0  0  0  0  0  0  0
  -17.7778   -8.2165   12.3359 C   0  0  0  0  0  0  0  0  0  0  0  0
  -18.4165   -7.1569   13.2499 C   0  0  0  0  0  0  0  0  0  0  0  0
  -16.5970   -7.5872   11.5960 C   0  0  0  0  0  0  0  0  0  0  0  0
  -18.8019   -8.6672   11.3008 C   0  0  0  0  0  0  0  0  0  0  0  0
 34 36  1  0  0  0
  1  5  1  0  0  0
  1  2  1  0  0  0
 35 34  2  0  0  0
  2 34  1  0  0  0
  3  2  1  0  0  0
  4  3  1  0  0  0
  4 32  1  0  0  0
  5  6  2  0  0  0
  7  5  1  0  0  0
  7  8  1  0  0  0
  8  9  1  0  0  0
  9 10  1  0  0  0
 10 28  1  0  0  0
 53  7  1  0  0  0
 53 55  1  0  0  0
 11  9  2  0  0  0
 12 14  1  0  0  0
 13 12  2  0  0  0
 14 15  1  0  0  0
 14 18  1  0  0  0
 51 39  1  0  0  0
 52 51  1  0  0  0
 54 53  1  0  0  0
 36 38  1  0  0  0
 38 39  1  0  0  0
 38 40  1  0  0  0
 41 38  1  0  0  0
 41 43  2  0  0  0
 39 40  1  0  0  0
 15 16  1  0  0  0
 16 17  2  0  0  0
 16 19  1  0  0  0
 17 22  1  0  0  0
 18 17  1  0  0  0
 19 20  2  0  0  0
 20 21  1  0  0  0
 22 21  2  0  0  0
 22 23  1  0  0  0
 23 24  1  0  0  0
 42 41  1  0  0  0
 45 42  1  0  0  0
 45 47  2  0  0  0
 48 45  1  0  0  0
 48 50  1  0  0  0
 46 45  2  0  0  0
 49 48  1  0  0  0
 49 50  1  0  0  0
 24 25  1  0  0  0
 26 25  1  0  0  0
 27 26  1  0  0  0
 27 29  1  0  0  0
 27 30  1  0  0  0
 28 27  1  0  0  0
 56 53  1  0  0  0
 31  1  1  0  0  0
 31  4  1  0  0  0
 32 12  1  0  0  0
  8 33  1  0  0  0
 36 37  1  0  0  0
 42 44  1  0  0  0
M  END
> <minimizedAffinity>
-9.47654

$$$$
