1UML_FR4_A_1001


 37 40  0  0  0  0  0  0  0  0999 V2000
   48.9710   57.3052   18.9286 N   0  0  0  0  0  0  0  0  0  0  0  0
   48.5485   58.3867   18.2167 C   0  0  0  0  0  0  0  0  0  0  0  0
   48.0390   57.9847   16.9776 C   0  0  0  0  0  0  0  0  0  0  0  0
   48.1595   56.5500   16.9540 C   0  0  0  0  0  0  0  0  0  0  0  0
   48.7471   56.1580   18.1931 C   0  0  0  0  0  0  0  0  0  0  0  0
   47.8239   55.6079   16.0177 C   0  0  0  0  0  0  0  0  0  0  0  0
   48.0673   54.2609   16.2871 C   0  0  0  0  0  0  0  0  0  0  0  0
   48.6565   53.8687   17.5029 C   0  0  0  0  0  0  0  0  0  0  0  0
   48.9895   54.8390   18.4517 C   0  0  0  0  0  0  0  0  0  0  0  0
   48.9436   52.5743   17.8036 N   0  0  0  0  0  0  0  0  0  0  0  0
   49.8967   51.8064   17.2212 C   0  0  0  0  0  0  0  0  0  0  0  0
   50.6320   52.1405   16.2924 O   0  0  0  0  0  0  0  0  0  0  0  0
   48.4068   52.1536   18.5136 H   0  0  0  0  0  0  0  0  0  0  0  0
   49.9686   50.4354   17.8740 C   0  0  0  0  0  0  0  0  0  0  0  0
   49.3567   49.3496   16.9832 C   0  0  0  0  0  0  0  0  0  0  0  0
   47.5653   48.8526   18.7036 C   0  0  0  0  0  0  0  0  0  0  0  0
   47.9303   49.0021   17.3663 C   0  0  0  0  0  0  0  0  0  0  0  0
   46.9878   48.7867   16.3634 C   0  0  0  0  0  0  0  0  0  0  0  0
   45.6956   48.4043   16.6927 C   0  0  0  0  0  0  0  0  0  0  0  0
   45.3396   48.2249   18.0297 C   0  0  0  0  0  0  0  0  0  0  0  0
   46.2722   48.4544   19.0306 C   0  0  0  0  0  0  0  0  0  0  0  0
   49.6024   57.2822   20.2500 C   0  0  0  0  0  0  0  0  0  0  0  0
   51.1135   57.4950   20.1105 C   0  0  0  0  0  0  0  0  0  0  0  0
   51.9445   57.0993   21.3454 C   0  0  0  0  0  0  0  0  0  0  0  0
   52.0219   54.5873   20.6578 C   0  0  0  0  0  0  0  0  0  0  0  0
   51.8728   55.6711   21.6336 N   0  0  0  0  0  0  0  0  0  0  0  0
   51.6789   55.1677   22.8634 C   0  0  0  0  0  0  0  0  0  0  0  0
   51.6779   53.8321   22.7909 N   0  0  0  0  0  0  0  0  0  0  0  0
   51.8701   53.4763   21.3920 C   0  0  0  0  0  0  0  0  0  0  0  0
   51.8939   52.0931   20.8711 C   0  0  0  0  0  0  0  0  0  0  0  0
   52.4490   51.8954   19.8067 O   0  0  0  0  0  0  0  0  0  0  0  0
   51.3000   51.1220   21.5698 N   0  0  0  0  0  0  0  0  0  0  0  0
   50.8628   51.3292   22.4272 H   0  0  0  0  0  0  0  0  0  0  0  0
   51.2994   50.1990   21.2274 H   0  0  0  0  0  0  0  0  0  0  0  0
   53.4056   57.5704   21.2358 C   0  0  0  0  0  0  0  0  0  0  0  0
   54.0721   57.5707   22.4715 O   0  0  0  0  0  0  0  0  0  0  0  0
   53.6298   58.1857   23.0773 H   0  0  0  0  0  0  0  0  0  0  0  0
 25 26  1  0  0  0
 25 29  2  0  0  0
 26 27  1  0  0  0
 26 24  1  0  0  0
 27 28  2  0  0  0
 28 29  1  0  0  0
 29 30  1  0  0  0
 30 31  2  0  0  0
 30 32  1  0  0  0
 24 35  1  0  0  0
 24 23  1  0  0  0
 35 36  1  0  0  0
 23 22  1  0  0  0
 22  1  1  0  0  0
  1  2  1  0  0  0
  1  5  1  0  0  0
  2  3  2  0  0  0
  3  4  1  0  0  0
  4  5  2  0  0  0
  4  6  1  0  0  0
  5  9  1  0  0  0
  6  7  2  0  0  0
  7  8  1  0  0  0
  8  9  2  0  0  0
  8 10  1  0  0  0
 10 11  1  0  0  0
 11 12  2  0  0  0
 11 14  1  0  0  0
 14 15  1  0  0  0
 15 17  1  0  0  0
 16 17  2  0  0  0
 16 21  1  0  0  0
 17 18  1  0  0  0
 18 19  2  0  0  0
 19 20  1  0  0  0
 20 21  2  0  0  0
 32 33  1  0  0  0
 32 34  1  0  0  0
 36 37  1  0  0  0
 10 13  1  0  0  0
M  END
> <minimizedAffinity>
-10.15099

$$$$
1UML_FR4_A_1001


 37 40  0  0  0  0  0  0  0  0999 V2000
   50.5815   53.5486   19.8091 N   0  0  0  0  0  0  0  0  0  0  0  0
   51.3269   52.8557   20.7144 C   0  0  0  0  0  0  0  0  0  0  0  0
   51.7484   53.7010   21.7461 C   0  0  0  0  0  0  0  0  0  0  0  0
   51.2034   54.9970   21.4349 C   0  0  0  0  0  0  0  0  0  0  0  0
   50.4773   54.8646   20.2145 C   0  0  0  0  0  0  0  0  0  0  0  0
   51.2696   56.2070   22.0739 C   0  0  0  0  0  0  0  0  0  0  0  0
   50.6230   57.3100   21.5156 C   0  0  0  0  0  0  0  0  0  0  0  0
   49.9142   57.1883   20.3065 C   0  0  0  0  0  0  0  0  0  0  0  0
   49.8500   55.9474   19.6673 C   0  0  0  0  0  0  0  0  0  0  0  0
   49.2925   58.2364   19.7035 N   0  0  0  0  0  0  0  0  0  0  0  0
   48.0630   58.7220   20.0032 C   0  0  0  0  0  0  0  0  0  0  0  0
   47.2865   58.2667   20.8426 O   0  0  0  0  0  0  0  0  0  0  0  0
   49.7833   58.6865   18.9783 H   0  0  0  0  0  0  0  0  0  0  0  0
   47.7392   59.9466   19.1627 C   0  0  0  0  0  0  0  0  0  0  0  0
   46.6160   59.6658   18.1594 C   0  0  0  0  0  0  0  0  0  0  0  0
   44.3292   59.2485   19.1655 C   0  0  0  0  0  0  0  0  0  0  0  0
   45.2586   60.1447   18.6391 C   0  0  0  0  0  0  0  0  0  0  0  0
   44.9247   61.4908   18.5081 C   0  0  0  0  0  0  0  0  0  0  0  0
   43.6644   61.9350   18.8807 C   0  0  0  0  0  0  0  0  0  0  0  0
   42.7245   61.0322   19.3785 C   0  0  0  0  0  0  0  0  0  0  0  0
   43.0604   59.6943   19.5246 C   0  0  0  0  0  0  0  0  0  0  0  0
   49.9829   53.0584   18.5655 C   0  0  0  0  0  0  0  0  0  0  0  0
   49.8218   51.5359   18.6281 C   0  0  0  0  0  0  0  0  0  0  0  0
   49.1378   50.9015   17.4025 C   0  0  0  0  0  0  0  0  0  0  0  0
   51.4374   51.1981   16.2139 C   0  0  0  0  0  0  0  0  0  0  0  0
   50.0127   50.8535   16.2363 N   0  0  0  0  0  0  0  0  0  0  0  0
   49.6101   50.4561   15.0183 C   0  0  0  0  0  0  0  0  0  0  0  0
   50.6486   50.5134   14.1773 N   0  0  0  0  0  0  0  0  0  0  0  0
   51.7902   51.0062   14.9352 C   0  0  0  0  0  0  0  0  0  0  0  0
   53.1331   51.2528   14.3688 C   0  0  0  0  0  0  0  0  0  0  0  0
   53.3562   52.3487   13.8897 O   0  0  0  0  0  0  0  0  0  0  0  0
   54.0401   50.2724   14.3884 N   0  0  0  0  0  0  0  0  0  0  0  0
   53.8145   49.4011   14.7872 H   0  0  0  0  0  0  0  0  0  0  0  0
   54.9341   50.4212   14.0039 H   0  0  0  0  0  0  0  0  0  0  0  0
   48.5571   49.5116   17.7178 C   0  0  0  0  0  0  0  0  0  0  0  0
   49.5410   48.5812   18.0886 O   0  0  0  0  0  0  0  0  0  0  0  0
   50.1634   48.4590   17.3547 H   0  0  0  0  0  0  0  0  0  0  0  0
 25 26  1  0  0  0
 25 29  2  0  0  0
 26 27  1  0  0  0
 26 24  1  0  0  0
 27 28  2  0  0  0
 28 29  1  0  0  0
 29 30  1  0  0  0
 30 31  2  0  0  0
 30 32  1  0  0  0
 24 35  1  0  0  0
 24 23  1  0  0  0
 35 36  1  0  0  0
 23 22  1  0  0  0
 22  1  1  0  0  0
  1  2  1  0  0  0
  1  5  1  0  0  0
  2  3  2  0  0  0
  3  4  1  0  0  0
  4  5  2  0  0  0
  4  6  1  0  0  0
  5  9  1  0  0  0
  6  7  2  0  0  0
  7  8  1  0  0  0
  8  9  2  0  0  0
  8 10  1  0  0  0
 10 11  1  0  0  0
 11 12  2  0  0  0
 11 14  1  0  0  0
 14 15  1  0  0  0
 15 17  1  0  0  0
 16 17  2  0  0  0
 16 21  1  0  0  0
 17 18  1  0  0  0
 18 19  2  0  0  0
 19 20  1  0  0  0
 20 21  2  0  0  0
 32 33  1  0  0  0
 32 34  1  0  0  0
 36 37  1  0  0  0
 10 13  1  0  0  0
M  END
> <minimizedAffinity>
-9.20650

$$$$
1UML_FR4_A_1001


 37 40  0  0  0  0  0  0  0  0999 V2000
   51.0147   54.3472   20.3909 N   0  0  0  0  0  0  0  0  0  0  0  0
   51.4700   54.2629   21.6718 C   0  0  0  0  0  0  0  0  0  0  0  0
   51.6107   52.9238   22.0509 C   0  0  0  0  0  0  0  0  0  0  0  0
   51.2168   52.1504   20.9019 C   0  0  0  0  0  0  0  0  0  0  0  0
   50.8499   53.0749   19.8797 C   0  0  0  0  0  0  0  0  0  0  0  0
   51.1543   50.8015   20.6709 C   0  0  0  0  0  0  0  0  0  0  0  0
   50.7234   50.3413   19.4264 C   0  0  0  0  0  0  0  0  0  0  0  0
   50.3499   51.2480   18.4176 C   0  0  0  0  0  0  0  0  0  0  0  0
   50.4230   52.6215   18.6642 C   0  0  0  0  0  0  0  0  0  0  0  0
   49.8940   50.8539   17.1989 N   0  0  0  0  0  0  0  0  0  0  0  0
   50.5347   51.0049   16.0140 C   0  0  0  0  0  0  0  0  0  0  0  0
   51.6172   51.5638   15.8390 O   0  0  0  0  0  0  0  0  0  0  0  0
   49.0126   50.4160   17.1747 H   0  0  0  0  0  0  0  0  0  0  0  0
   49.7430   50.3736   14.8801 C   0  0  0  0  0  0  0  0  0  0  0  0
   48.2897   50.8581   14.8638 C   0  0  0  0  0  0  0  0  0  0  0  0
   47.0348   48.9538   15.9659 C   0  0  0  0  0  0  0  0  0  0  0  0
   47.2857   49.7211   14.8292 C   0  0  0  0  0  0  0  0  0  0  0  0
   46.6423   49.4154   13.6320 C   0  0  0  0  0  0  0  0  0  0  0  0
   45.7704   48.3384   13.5653 C   0  0  0  0  0  0  0  0  0  0  0  0
   45.5436   47.5524   14.6953 C   0  0  0  0  0  0  0  0  0  0  0  0
   46.1710   47.8647   15.8924 C   0  0  0  0  0  0  0  0  0  0  0  0
   50.6942   55.5519   19.6220 C   0  0  0  0  0  0  0  0  0  0  0  0
   49.2451   55.9720   19.8895 C   0  0  0  0  0  0  0  0  0  0  0  0
   48.9420   57.4619   19.6435 C   0  0  0  0  0  0  0  0  0  0  0  0
   48.4329   56.8659   17.1587 C   0  0  0  0  0  0  0  0  0  0  0  0
   48.2916   57.6957   18.3590 N   0  0  0  0  0  0  0  0  0  0  0  0
   47.4468   58.7132   18.1254 C   0  0  0  0  0  0  0  0  0  0  0  0
   47.0151   58.6381   16.8617 N   0  0  0  0  0  0  0  0  0  0  0  0
   47.6620   57.4841   16.2531 C   0  0  0  0  0  0  0  0  0  0  0  0
   47.4863   57.0655   14.8464 C   0  0  0  0  0  0  0  0  0  0  0  0
   46.6189   56.2488   14.5997 O   0  0  0  0  0  0  0  0  0  0  0  0
   48.2851   57.5799   13.9075 N   0  0  0  0  0  0  0  0  0  0  0  0
   48.9738   58.2387   14.1542 H   0  0  0  0  0  0  0  0  0  0  0  0
   48.1852   57.3002   12.9689 H   0  0  0  0  0  0  0  0  0  0  0  0
   48.1354   58.0871   20.7955 C   0  0  0  0  0  0  0  0  0  0  0  0
   48.9513   58.5992   21.8169 O   0  0  0  0  0  0  0  0  0  0  0  0
   49.4728   57.8796   22.2055 H   0  0  0  0  0  0  0  0  0  0  0  0
 25 26  1  0  0  0
 25 29  2  0  0  0
 26 27  1  0  0  0
 26 24  1  0  0  0
 27 28  2  0  0  0
 28 29  1  0  0  0
 29 30  1  0  0  0
 30 31  2  0  0  0
 30 32  1  0  0  0
 24 35  1  0  0  0
 24 23  1  0  0  0
 35 36  1  0  0  0
 23 22  1  0  0  0
 22  1  1  0  0  0
  1  2  1  0  0  0
  1  5  1  0  0  0
  2  3  2  0  0  0
  3  4  1  0  0  0
  4  5  2  0  0  0
  4  6  1  0  0  0
  5  9  1  0  0  0
  6  7  2  0  0  0
  7  8  1  0  0  0
  8  9  2  0  0  0
  8 10  1  0  0  0
 10 11  1  0  0  0
 11 12  2  0  0  0
 11 14  1  0  0  0
 14 15  1  0  0  0
 15 17  1  0  0  0
 16 17  2  0  0  0
 16 21  1  0  0  0
 17 18  1  0  0  0
 18 19  2  0  0  0
 19 20  1  0  0  0
 20 21  2  0  0  0
 32 33  1  0  0  0
 32 34  1  0  0  0
 36 37  1  0  0  0
 10 13  1  0  0  0
M  END
> <minimizedAffinity>
-9.13045

$$$$
1UML_FR4_A_1001


 37 40  0  0  0  0  0  0  0  0999 V2000
   50.9549   53.1342   19.8035 N   0  0  0  0  0  0  0  0  0  0  0  0
   51.5858   53.4792   20.9602 C   0  0  0  0  0  0  0  0  0  0  0  0
   51.8250   52.3437   21.7413 C   0  0  0  0  0  0  0  0  0  0  0  0
   51.3034   51.2345   20.9857 C   0  0  0  0  0  0  0  0  0  0  0  0
   50.7660   51.7665   19.7764 C   0  0  0  0  0  0  0  0  0  0  0  0
   51.2572   49.8874   21.2307 C   0  0  0  0  0  0  0  0  0  0  0  0
   50.6746   49.0415   20.2866 C   0  0  0  0  0  0  0  0  0  0  0  0
   50.1332   49.5613   19.0967 C   0  0  0  0  0  0  0  0  0  0  0  0
   50.1911   50.9366   18.8565 C   0  0  0  0  0  0  0  0  0  0  0  0
   49.5271   48.7865   18.1581 N   0  0  0  0  0  0  0  0  0  0  0  0
   48.1976   48.5446   18.0523 C   0  0  0  0  0  0  0  0  0  0  0  0
   47.3218   48.9514   18.8154 O   0  0  0  0  0  0  0  0  0  0  0  0
   50.1108   48.3596   17.4901 H   0  0  0  0  0  0  0  0  0  0  0  0
   47.8928   47.6901   16.8325 C   0  0  0  0  0  0  0  0  0  0  0  0
   46.4377   47.8458   16.3795 C   0  0  0  0  0  0  0  0  0  0  0  0
   45.4648   47.7594   14.0424 C   0  0  0  0  0  0  0  0  0  0  0  0
   46.3107   48.3758   14.9635 C   0  0  0  0  0  0  0  0  0  0  0  0
   47.0852   49.4651   14.5708 C   0  0  0  0  0  0  0  0  0  0  0  0
   47.0309   49.9225   13.2623 C   0  0  0  0  0  0  0  0  0  0  0  0
   46.2074   49.2858   12.3334 C   0  0  0  0  0  0  0  0  0  0  0  0
   45.4234   48.2110   12.7264 C   0  0  0  0  0  0  0  0  0  0  0  0
   50.4885   54.0146   18.7299 C   0  0  0  0  0  0  0  0  0  0  0  0
   49.1469   54.6453   19.1174 C   0  0  0  0  0  0  0  0  0  0  0  0
   49.1524   56.1825   19.2131 C   0  0  0  0  0  0  0  0  0  0  0  0
   51.6038   56.8832   19.7505 C   0  0  0  0  0  0  0  0  0  0  0  0
   50.1946   56.6838   20.1021 N   0  0  0  0  0  0  0  0  0  0  0  0
   49.9751   57.0525   21.3746 C   0  0  0  0  0  0  0  0  0  0  0  0
   51.1257   57.4764   21.9088 N   0  0  0  0  0  0  0  0  0  0  0  0
   52.1518   57.3423   20.8842 C   0  0  0  0  0  0  0  0  0  0  0  0
   53.5807   57.6681   21.0764 C   0  0  0  0  0  0  0  0  0  0  0  0
   54.2581   57.8643   20.0850 O   0  0  0  0  0  0  0  0  0  0  0  0
   54.0774   57.7208   22.3152 N   0  0  0  0  0  0  0  0  0  0  0  0
   53.4908   57.5549   23.0883 H   0  0  0  0  0  0  0  0  0  0  0  0
   55.0302   57.9256   22.4553 H   0  0  0  0  0  0  0  0  0  0  0  0
   49.2366   56.8490   17.8285 C   0  0  0  0  0  0  0  0  0  0  0  0
   48.2314   57.8073   17.6229 O   0  0  0  0  0  0  0  0  0  0  0  0
   47.3622   57.3792   17.6693 H   0  0  0  0  0  0  0  0  0  0  0  0
 25 26  1  0  0  0
 25 29  2  0  0  0
 26 27  1  0  0  0
 26 24  1  0  0  0
 27 28  2  0  0  0
 28 29  1  0  0  0
 29 30  1  0  0  0
 30 31  2  0  0  0
 30 32  1  0  0  0
 24 35  1  0  0  0
 24 23  1  0  0  0
 35 36  1  0  0  0
 23 22  1  0  0  0
 22  1  1  0  0  0
  1  2  1  0  0  0
  1  5  1  0  0  0
  2  3  2  0  0  0
  3  4  1  0  0  0
  4  5  2  0  0  0
  4  6  1  0  0  0
  5  9  1  0  0  0
  6  7  2  0  0  0
  7  8  1  0  0  0
  8  9  2  0  0  0
  8 10  1  0  0  0
 10 11  1  0  0  0
 11 12  2  0  0  0
 11 14  1  0  0  0
 14 15  1  0  0  0
 15 17  1  0  0  0
 16 17  2  0  0  0
 16 21  1  0  0  0
 17 18  1  0  0  0
 18 19  2  0  0  0
 19 20  1  0  0  0
 20 21  2  0  0  0
 32 33  1  0  0  0
 32 34  1  0  0  0
 36 37  1  0  0  0
 10 13  1  0  0  0
M  END
> <minimizedAffinity>
-9.09668

$$$$
1UML_FR4_A_1001


 37 40  0  0  0  0  0  0  0  0999 V2000
   50.8883   55.5403   20.0461 N   0  0  0  0  0  0  0  0  0  0  0  0
   51.7977   55.3816   21.0476 C   0  0  0  0  0  0  0  0  0  0  0  0
   51.5836   56.3295   22.0538 C   0  0  0  0  0  0  0  0  0  0  0  0
   50.4520   57.1077   21.6211 C   0  0  0  0  0  0  0  0  0  0  0  0
   50.0414   56.5852   20.3592 C   0  0  0  0  0  0  0  0  0  0  0  0
   49.7817   58.1604   22.1863 C   0  0  0  0  0  0  0  0  0  0  0  0
   48.6958   58.7192   21.5121 C   0  0  0  0  0  0  0  0  0  0  0  0
   48.2925   58.2153   20.2620 C   0  0  0  0  0  0  0  0  0  0  0  0
   48.9814   57.1380   19.6987 C   0  0  0  0  0  0  0  0  0  0  0  0
   47.2617   58.7416   19.5486 N   0  0  0  0  0  0  0  0  0  0  0  0
   47.3371   59.7656   18.6637 C   0  0  0  0  0  0  0  0  0  0  0  0
   48.3445   60.4183   18.3914 O   0  0  0  0  0  0  0  0  0  0  0  0
   46.3739   58.3397   19.6884 H   0  0  0  0  0  0  0  0  0  0  0  0
   45.9892   60.0233   18.0097 C   0  0  0  0  0  0  0  0  0  0  0  0
   44.8463   59.3587   18.7837 C   0  0  0  0  0  0  0  0  0  0  0  0
   42.3286   59.5739   18.6085 C   0  0  0  0  0  0  0  0  0  0  0  0
   43.5715   60.1814   18.7820 C   0  0  0  0  0  0  0  0  0  0  0  0
   43.6530   61.5661   18.9108 C   0  0  0  0  0  0  0  0  0  0  0  0
   42.5038   62.3404   18.8459 C   0  0  0  0  0  0  0  0  0  0  0  0
   41.2640   61.7343   18.6414 C   0  0  0  0  0  0  0  0  0  0  0  0
   41.1788   60.3544   18.5288 C   0  0  0  0  0  0  0  0  0  0  0  0
   50.7817   54.7890   18.7933 C   0  0  0  0  0  0  0  0  0  0  0  0
   49.9603   53.5149   19.0166 C   0  0  0  0  0  0  0  0  0  0  0  0
   50.7744   52.2076   19.0272 C   0  0  0  0  0  0  0  0  0  0  0  0
   51.6681   51.7419   16.6244 C   0  0  0  0  0  0  0  0  0  0  0  0
   51.8209   52.1922   18.0112 N   0  0  0  0  0  0  0  0  0  0  0  0
   53.0752   52.6210   18.2264 C   0  0  0  0  0  0  0  0  0  0  0  0
   53.7797   52.4877   17.0972 N   0  0  0  0  0  0  0  0  0  0  0  0
   52.8901   51.9094   16.1000 C   0  0  0  0  0  0  0  0  0  0  0  0
   53.2860   51.5639   14.7183 C   0  0  0  0  0  0  0  0  0  0  0  0
   53.2441   52.4424   13.8777 O   0  0  0  0  0  0  0  0  0  0  0  0
   53.6573   50.3115   14.4394 N   0  0  0  0  0  0  0  0  0  0  0  0
   53.6762   49.6332   15.1527 H   0  0  0  0  0  0  0  0  0  0  0  0
   53.9122   50.0667   13.5205 H   0  0  0  0  0  0  0  0  0  0  0  0
   51.3491   51.8941   20.4201 C   0  0  0  0  0  0  0  0  0  0  0  0
   50.9016   50.6649   20.9301 O   0  0  0  0  0  0  0  0  0  0  0  0
   49.9371   50.6881   21.0297 H   0  0  0  0  0  0  0  0  0  0  0  0
 25 26  1  0  0  0
 25 29  2  0  0  0
 26 27  1  0  0  0
 26 24  1  0  0  0
 27 28  2  0  0  0
 28 29  1  0  0  0
 29 30  1  0  0  0
 30 31  2  0  0  0
 30 32  1  0  0  0
 24 35  1  0  0  0
 24 23  1  0  0  0
 35 36  1  0  0  0
 23 22  1  0  0  0
 22  1  1  0  0  0
  1  2  1  0  0  0
  1  5  1  0  0  0
  2  3  2  0  0  0
  3  4  1  0  0  0
  4  5  2  0  0  0
  4  6  1  0  0  0
  5  9  1  0  0  0
  6  7  2  0  0  0
  7  8  1  0  0  0
  8  9  2  0  0  0
  8 10  1  0  0  0
 10 11  1  0  0  0
 11 12  2  0  0  0
 11 14  1  0  0  0
 14 15  1  0  0  0
 15 17  1  0  0  0
 16 17  2  0  0  0
 16 21  1  0  0  0
 17 18  1  0  0  0
 18 19  2  0  0  0
 19 20  1  0  0  0
 20 21  2  0  0  0
 32 33  1  0  0  0
 32 34  1  0  0  0
 36 37  1  0  0  0
 10 13  1  0  0  0
M  END
> <minimizedAffinity>
-9.01711

$$$$
1UML_FR4_A_1001


 37 40  0  0  0  0  0  0  0  0999 V2000
   50.8848   54.3829   20.2453 N   0  0  0  0  0  0  0  0  0  0  0  0
   51.3683   54.6847   21.4823 C   0  0  0  0  0  0  0  0  0  0  0  0
   51.7364   53.5170   22.1589 C   0  0  0  0  0  0  0  0  0  0  0  0
   51.4585   52.4359   21.2493 C   0  0  0  0  0  0  0  0  0  0  0  0
   50.9263   53.0151   20.0596 C   0  0  0  0  0  0  0  0  0  0  0  0
   51.6181   51.0788   21.3478 C   0  0  0  0  0  0  0  0  0  0  0  0
   51.2500   50.2685   20.2735 C   0  0  0  0  0  0  0  0  0  0  0  0
   50.7144   50.8328   19.1014 C   0  0  0  0  0  0  0  0  0  0  0  0
   50.5615   52.2188   19.0116 C   0  0  0  0  0  0  0  0  0  0  0  0
   50.3111   50.0880   18.0379 N   0  0  0  0  0  0  0  0  0  0  0  0
   49.1677   49.3652   17.9504 C   0  0  0  0  0  0  0  0  0  0  0  0
   48.3248   49.2282   18.8367 O   0  0  0  0  0  0  0  0  0  0  0  0
   50.9078   50.0720   17.2550 H   0  0  0  0  0  0  0  0  0  0  0  0
   49.0292   48.7252   16.5784 C   0  0  0  0  0  0  0  0  0  0  0  0
   48.1735   49.5791   15.6374 C   0  0  0  0  0  0  0  0  0  0  0  0
   46.1146   48.2226   16.2179 C   0  0  0  0  0  0  0  0  0  0  0  0
   46.8596   48.9174   15.2659 C   0  0  0  0  0  0  0  0  0  0  0  0
   46.4190   48.9695   13.9454 C   0  0  0  0  0  0  0  0  0  0  0  0
   45.2536   48.3150   13.5739 C   0  0  0  0  0  0  0  0  0  0  0  0
   44.5252   47.5943   14.5206 C   0  0  0  0  0  0  0  0  0  0  0  0
   44.9537   47.5544   15.8393 C   0  0  0  0  0  0  0  0  0  0  0  0
   50.3556   55.2990   19.2324 C   0  0  0  0  0  0  0  0  0  0  0  0
   49.1232   56.0269   19.7795 C   0  0  0  0  0  0  0  0  0  0  0  0
   49.2817   57.5510   19.9351 C   0  0  0  0  0  0  0  0  0  0  0  0
   47.9218   59.6410   19.1790 C   0  0  0  0  0  0  0  0  0  0  0  0
   48.4738   58.2979   18.9773 N   0  0  0  0  0  0  0  0  0  0  0  0
   48.1510   57.8397   17.7570 C   0  0  0  0  0  0  0  0  0  0  0  0
   47.4195   58.7643   17.1253 N   0  0  0  0  0  0  0  0  0  0  0  0
   47.2597   59.8862   18.0398 C   0  0  0  0  0  0  0  0  0  0  0  0
   46.4822   61.1083   17.7447 C   0  0  0  0  0  0  0  0  0  0  0  0
   46.4478   61.4966   16.5922 O   0  0  0  0  0  0  0  0  0  0  0  0
   45.8640   61.7456   18.7426 N   0  0  0  0  0  0  0  0  0  0  0  0
   45.9196   61.3940   19.6605 H   0  0  0  0  0  0  0  0  0  0  0  0
   45.3526   62.5669   18.5602 H   0  0  0  0  0  0  0  0  0  0  0  0
   49.0073   58.0181   21.3756 C   0  0  0  0  0  0  0  0  0  0  0  0
   50.1442   57.9499   22.1965 O   0  0  0  0  0  0  0  0  0  0  0  0
   50.4435   57.0293   22.2584 H   0  0  0  0  0  0  0  0  0  0  0  0
 25 26  1  0  0  0
 25 29  2  0  0  0
 26 27  1  0  0  0
 26 24  1  0  0  0
 27 28  2  0  0  0
 28 29  1  0  0  0
 29 30  1  0  0  0
 30 31  2  0  0  0
 30 32  1  0  0  0
 24 35  1  0  0  0
 24 23  1  0  0  0
 35 36  1  0  0  0
 23 22  1  0  0  0
 22  1  1  0  0  0
  1  2  1  0  0  0
  1  5  1  0  0  0
  2  3  2  0  0  0
  3  4  1  0  0  0
  4  5  2  0  0  0
  4  6  1  0  0  0
  5  9  1  0  0  0
  6  7  2  0  0  0
  7  8  1  0  0  0
  8  9  2  0  0  0
  8 10  1  0  0  0
 10 11  1  0  0  0
 11 12  2  0  0  0
 11 14  1  0  0  0
 14 15  1  0  0  0
 15 17  1  0  0  0
 16 17  2  0  0  0
 16 21  1  0  0  0
 17 18  1  0  0  0
 18 19  2  0  0  0
 19 20  1  0  0  0
 20 21  2  0  0  0
 32 33  1  0  0  0
 32 34  1  0  0  0
 36 37  1  0  0  0
 10 13  1  0  0  0
M  END
> <minimizedAffinity>
-8.91252

$$$$
1UML_FR4_A_1001


 37 40  0  0  0  0  0  0  0  0999 V2000
   51.4792   51.9209   18.9814 N   0  0  0  0  0  0  0  0  0  0  0  0
   52.1570   50.9275   19.6209 C   0  0  0  0  0  0  0  0  0  0  0  0
   52.3814   51.2740   20.9575 C   0  0  0  0  0  0  0  0  0  0  0  0
   51.7818   52.5719   21.1291 C   0  0  0  0  0  0  0  0  0  0  0  0
   51.2252   52.9466   19.8706 C   0  0  0  0  0  0  0  0  0  0  0  0
   51.6756   53.4071   22.2098 C   0  0  0  0  0  0  0  0  0  0  0  0
   51.0210   54.6306   22.0652 C   0  0  0  0  0  0  0  0  0  0  0  0
   50.4793   55.0107   20.8237 C   0  0  0  0  0  0  0  0  0  0  0  0
   50.5900   54.1475   19.7305 C   0  0  0  0  0  0  0  0  0  0  0  0
   49.8592   56.2033   20.6199 N   0  0  0  0  0  0  0  0  0  0  0  0
   50.4476   57.3568   20.2193 C   0  0  0  0  0  0  0  0  0  0  0  0
   51.6495   57.5271   20.0154 O   0  0  0  0  0  0  0  0  0  0  0  0
   48.8880   56.2319   20.7787 H   0  0  0  0  0  0  0  0  0  0  0  0
   49.4179   58.4592   20.0312 C   0  0  0  0  0  0  0  0  0  0  0  0
   48.0060   57.9842   20.3886 C   0  0  0  0  0  0  0  0  0  0  0  0
   45.5728   58.5395   19.9560 C   0  0  0  0  0  0  0  0  0  0  0  0
   46.9185   58.8809   19.8271 C   0  0  0  0  0  0  0  0  0  0  0  0
   47.2762   60.0360   19.1355 C   0  0  0  0  0  0  0  0  0  0  0  0
   46.2984   60.8334   18.5590 C   0  0  0  0  0  0  0  0  0  0  0  0
   44.9541   60.4747   18.6621 C   0  0  0  0  0  0  0  0  0  0  0  0
   44.5947   59.3334   19.3639 C   0  0  0  0  0  0  0  0  0  0  0  0
   51.0789   51.9822   17.5739 C   0  0  0  0  0  0  0  0  0  0  0  0
   49.7382   51.2659   17.3805 C   0  0  0  0  0  0  0  0  0  0  0  0
   49.8222   49.9090   16.6567 C   0  0  0  0  0  0  0  0  0  0  0  0
   47.7708   49.1706   18.0835 C   0  0  0  0  0  0  0  0  0  0  0  0
   48.6717   49.0558   16.9326 N   0  0  0  0  0  0  0  0  0  0  0  0
   48.2789   48.0521   16.1316 C   0  0  0  0  0  0  0  0  0  0  0  0
   47.1906   47.4780   16.6561 N   0  0  0  0  0  0  0  0  0  0  0  0
   46.8928   48.1747   17.8997 C   0  0  0  0  0  0  0  0  0  0  0  0
   45.7845   47.8278   18.8142 C   0  0  0  0  0  0  0  0  0  0  0  0
   45.9544   48.0021   20.0062 O   0  0  0  0  0  0  0  0  0  0  0  0
   44.6538   47.3270   18.3092 N   0  0  0  0  0  0  0  0  0  0  0  0
   44.5613   47.2034   17.3368 H   0  0  0  0  0  0  0  0  0  0  0  0
   43.9130   47.0816   18.9093 H   0  0  0  0  0  0  0  0  0  0  0  0
   50.0408   50.0727   15.1422 C   0  0  0  0  0  0  0  0  0  0  0  0
   51.3988   50.1355   14.7912 O   0  0  0  0  0  0  0  0  0  0  0  0
   51.8062   50.9083   15.2128 H   0  0  0  0  0  0  0  0  0  0  0  0
 25 26  1  0  0  0
 25 29  2  0  0  0
 26 27  1  0  0  0
 26 24  1  0  0  0
 27 28  2  0  0  0
 28 29  1  0  0  0
 29 30  1  0  0  0
 30 31  2  0  0  0
 30 32  1  0  0  0
 24 35  1  0  0  0
 24 23  1  0  0  0
 35 36  1  0  0  0
 23 22  1  0  0  0
 22  1  1  0  0  0
  1  2  1  0  0  0
  1  5  1  0  0  0
  2  3  2  0  0  0
  3  4  1  0  0  0
  4  5  2  0  0  0
  4  6  1  0  0  0
  5  9  1  0  0  0
  6  7  2  0  0  0
  7  8  1  0  0  0
  8  9  2  0  0  0
  8 10  1  0  0  0
 10 11  1  0  0  0
 11 12  2  0  0  0
 11 14  1  0  0  0
 14 15  1  0  0  0
 15 17  1  0  0  0
 16 17  2  0  0  0
 16 21  1  0  0  0
 17 18  1  0  0  0
 18 19  2  0  0  0
 19 20  1  0  0  0
 20 21  2  0  0  0
 32 33  1  0  0  0
 32 34  1  0  0  0
 36 37  1  0  0  0
 10 13  1  0  0  0
M  END
> <minimizedAffinity>
-8.78450

$$$$
1UML_FR4_A_1001


 37 40  0  0  0  0  0  0  0  0999 V2000
   51.1037   55.7403   20.7501 N   0  0  0  0  0  0  0  0  0  0  0  0
   51.5904   55.8361   22.0186 C   0  0  0  0  0  0  0  0  0  0  0  0
   51.8000   54.5621   22.5568 C   0  0  0  0  0  0  0  0  0  0  0  0
   51.4163   53.6351   21.5238 C   0  0  0  0  0  0  0  0  0  0  0  0
   50.9855   54.4082   20.4054 C   0  0  0  0  0  0  0  0  0  0  0  0
   51.4100   52.2665   21.4637 C   0  0  0  0  0  0  0  0  0  0  0  0
   50.9730   51.6365   20.2982 C   0  0  0  0  0  0  0  0  0  0  0  0
   50.5366   52.3933   19.1955 C   0  0  0  0  0  0  0  0  0  0  0  0
   50.5528   53.7886   19.2677 C   0  0  0  0  0  0  0  0  0  0  0  0
   50.0723   51.8309   18.0481 N   0  0  0  0  0  0  0  0  0  0  0  0
   50.7339   51.7500   16.8678 C   0  0  0  0  0  0  0  0  0  0  0  0
   51.8491   52.2116   16.6266 O   0  0  0  0  0  0  0  0  0  0  0  0
   49.1672   51.4447   18.0773 H   0  0  0  0  0  0  0  0  0  0  0  0
   49.9196   50.9865   15.8358 C   0  0  0  0  0  0  0  0  0  0  0  0
   49.7102   49.5254   16.2457 C   0  0  0  0  0  0  0  0  0  0  0  0
   47.8650   49.2455   17.9582 C   0  0  0  0  0  0  0  0  0  0  0  0
   48.2743   49.2158   16.6257 C   0  0  0  0  0  0  0  0  0  0  0  0
   47.3682   48.8540   15.6313 C   0  0  0  0  0  0  0  0  0  0  0  0
   46.0685   48.5042   15.9673 C   0  0  0  0  0  0  0  0  0  0  0  0
   45.6685   48.5044   17.3039 C   0  0  0  0  0  0  0  0  0  0  0  0
   46.5646   48.8798   18.2940 C   0  0  0  0  0  0  0  0  0  0  0  0
   50.7119   56.8247   19.8469 C   0  0  0  0  0  0  0  0  0  0  0  0
   49.1855   56.8757   19.7232 C   0  0  0  0  0  0  0  0  0  0  0  0
   48.6489   57.8686   18.6752 C   0  0  0  0  0  0  0  0  0  0  0  0
   47.6582   57.8676   16.2654 C   0  0  0  0  0  0  0  0  0  0  0  0
   48.2527   57.2123   17.4343 N   0  0  0  0  0  0  0  0  0  0  0  0
   48.4109   55.8991   17.2021 C   0  0  0  0  0  0  0  0  0  0  0  0
   47.9630   55.6181   15.9735 N   0  0  0  0  0  0  0  0  0  0  0  0
   47.4676   56.8617   15.4005 C   0  0  0  0  0  0  0  0  0  0  0  0
   46.8499   56.9848   14.0632 C   0  0  0  0  0  0  0  0  0  0  0  0
   46.0663   56.1210   13.7165 O   0  0  0  0  0  0  0  0  0  0  0  0
   47.1796   58.0187   13.2844 N   0  0  0  0  0  0  0  0  0  0  0  0
   47.8188   58.6941   13.6074 H   0  0  0  0  0  0  0  0  0  0  0  0
   46.7834   58.1052   12.3873 H   0  0  0  0  0  0  0  0  0  0  0  0
   47.5074   58.7380   19.2318 C   0  0  0  0  0  0  0  0  0  0  0  0
   47.0595   58.3083   20.4911 O   0  0  0  0  0  0  0  0  0  0  0  0
   46.7083   57.4070   20.4191 H   0  0  0  0  0  0  0  0  0  0  0  0
 25 26  1  0  0  0
 25 29  2  0  0  0
 26 27  1  0  0  0
 26 24  1  0  0  0
 27 28  2  0  0  0
 28 29  1  0  0  0
 29 30  1  0  0  0
 30 31  2  0  0  0
 30 32  1  0  0  0
 24 35  1  0  0  0
 24 23  1  0  0  0
 35 36  1  0  0  0
 23 22  1  0  0  0
 22  1  1  0  0  0
  1  2  1  0  0  0
  1  5  1  0  0  0
  2  3  2  0  0  0
  3  4  1  0  0  0
  4  5  2  0  0  0
  4  6  1  0  0  0
  5  9  1  0  0  0
  6  7  2  0  0  0
  7  8  1  0  0  0
  8  9  2  0  0  0
  8 10  1  0  0  0
 10 11  1  0  0  0
 11 12  2  0  0  0
 11 14  1  0  0  0
 14 15  1  0  0  0
 15 17  1  0  0  0
 16 17  2  0  0  0
 16 21  1  0  0  0
 17 18  1  0  0  0
 18 19  2  0  0  0
 19 20  1  0  0  0
 20 21  2  0  0  0
 32 33  1  0  0  0
 32 34  1  0  0  0
 36 37  1  0  0  0
 10 13  1  0  0  0
M  END
> <minimizedAffinity>
-8.78288

$$$$
1UML_FR4_A_1001


 37 40  0  0  0  0  0  0  0  0999 V2000
   52.0759   52.7548   19.6730 N   0  0  0  0  0  0  0  0  0  0  0  0
   53.2734   53.0993   19.1230 C   0  0  0  0  0  0  0  0  0  0  0  0
   53.3112   52.7358   17.7728 C   0  0  0  0  0  0  0  0  0  0  0  0
   52.0320   52.1358   17.4952 C   0  0  0  0  0  0  0  0  0  0  0  0
   51.2829   52.1648   18.7085 C   0  0  0  0  0  0  0  0  0  0  0  0
   51.4867   51.6028   16.3570 C   0  0  0  0  0  0  0  0  0  0  0  0
   50.1923   51.0843   16.3983 C   0  0  0  0  0  0  0  0  0  0  0  0
   49.4522   51.1003   17.5947 C   0  0  0  0  0  0  0  0  0  0  0  0
   50.0179   51.6513   18.7475 C   0  0  0  0  0  0  0  0  0  0  0  0
   48.1999   50.5811   17.6982 N   0  0  0  0  0  0  0  0  0  0  0  0
   47.8848   49.2900   17.9645 C   0  0  0  0  0  0  0  0  0  0  0  0
   48.6810   48.3634   18.1139 O   0  0  0  0  0  0  0  0  0  0  0  0
   47.4487   51.2038   17.5669 H   0  0  0  0  0  0  0  0  0  0  0  0
   46.3797   49.1060   18.0737 C   0  0  0  0  0  0  0  0  0  0  0  0
   45.9098   47.8347   17.3595 C   0  0  0  0  0  0  0  0  0  0  0  0
   46.6192   48.8667   15.1577 C   0  0  0  0  0  0  0  0  0  0  0  0
   45.7672   48.0151   15.8598 C   0  0  0  0  0  0  0  0  0  0  0  0
   44.7417   47.3538   15.1876 C   0  0  0  0  0  0  0  0  0  0  0  0
   44.5555   47.5576   13.8281 C   0  0  0  0  0  0  0  0  0  0  0  0
   45.3892   48.4335   13.1325 C   0  0  0  0  0  0  0  0  0  0  0  0
   46.4208   49.0807   13.7967 C   0  0  0  0  0  0  0  0  0  0  0  0
   51.6374   52.9176   21.0610 C   0  0  0  0  0  0  0  0  0  0  0  0
   50.6098   54.0504   21.1545 C   0  0  0  0  0  0  0  0  0  0  0  0
   51.1303   55.4390   20.7387 C   0  0  0  0  0  0  0  0  0  0  0  0
   49.7884   55.5018   18.5061 C   0  0  0  0  0  0  0  0  0  0  0  0
   50.2659   56.0906   19.7610 N   0  0  0  0  0  0  0  0  0  0  0  0
   49.7746   57.3315   19.9102 C   0  0  0  0  0  0  0  0  0  0  0  0
   49.0114   57.6267   18.8521 N   0  0  0  0  0  0  0  0  0  0  0  0
   49.0466   56.4758   17.9607 C   0  0  0  0  0  0  0  0  0  0  0  0
   48.3617   56.4030   16.6528 C   0  0  0  0  0  0  0  0  0  0  0  0
   48.2221   57.4360   16.0253 O   0  0  0  0  0  0  0  0  0  0  0  0
   47.9118   55.2236   16.2161 N   0  0  0  0  0  0  0  0  0  0  0  0
   48.0479   54.4134   16.7586 H   0  0  0  0  0  0  0  0  0  0  0  0
   47.4440   55.1646   15.3519 H   0  0  0  0  0  0  0  0  0  0  0  0
   51.3808   56.3513   21.9526 C   0  0  0  0  0  0  0  0  0  0  0  0
   52.4791   55.9412   22.7250 O   0  0  0  0  0  0  0  0  0  0  0  0
   52.3125   55.0534   23.0783 H   0  0  0  0  0  0  0  0  0  0  0  0
 25 26  1  0  0  0
 25 29  2  0  0  0
 26 27  1  0  0  0
 26 24  1  0  0  0
 27 28  2  0  0  0
 28 29  1  0  0  0
 29 30  1  0  0  0
 30 31  2  0  0  0
 30 32  1  0  0  0
 24 35  1  0  0  0
 24 23  1  0  0  0
 35 36  1  0  0  0
 23 22  1  0  0  0
 22  1  1  0  0  0
  1  2  1  0  0  0
  1  5  1  0  0  0
  2  3  2  0  0  0
  3  4  1  0  0  0
  4  5  2  0  0  0
  4  6  1  0  0  0
  5  9  1  0  0  0
  6  7  2  0  0  0
  7  8  1  0  0  0
  8  9  2  0  0  0
  8 10  1  0  0  0
 10 11  1  0  0  0
 11 12  2  0  0  0
 11 14  1  0  0  0
 14 15  1  0  0  0
 15 17  1  0  0  0
 16 17  2  0  0  0
 16 21  1  0  0  0
 17 18  1  0  0  0
 18 19  2  0  0  0
 19 20  1  0  0  0
 20 21  2  0  0  0
 32 33  1  0  0  0
 32 34  1  0  0  0
 36 37  1  0  0  0
 10 13  1  0  0  0
M  END
> <minimizedAffinity>
-8.43361

$$$$
1UML_FR4_A_1001


 37 40  0  0  0  0  0  0  0  0999 V2000
   50.9840   56.3391   19.9421 N   0  0  0  0  0  0  0  0  0  0  0  0
   51.4950   57.1795   20.8843 C   0  0  0  0  0  0  0  0  0  0  0  0
   51.9038   56.4571   22.0102 C   0  0  0  0  0  0  0  0  0  0  0  0
   51.6222   55.0771   21.7107 C   0  0  0  0  0  0  0  0  0  0  0  0
   51.0468   55.0399   20.4062 C   0  0  0  0  0  0  0  0  0  0  0  0
   51.8106   53.9190   22.4180 C   0  0  0  0  0  0  0  0  0  0  0  0
   51.4291   52.7030   21.8506 C   0  0  0  0  0  0  0  0  0  0  0  0
   50.8511   52.6607   20.5687 C   0  0  0  0  0  0  0  0  0  0  0  0
   50.6690   53.8485   19.8556 C   0  0  0  0  0  0  0  0  0  0  0  0
   50.4335   51.5076   19.9819 N   0  0  0  0  0  0  0  0  0  0  0  0
   51.0947   50.3244   19.9747 C   0  0  0  0  0  0  0  0  0  0  0  0
   52.2046   50.1090   20.4613 O   0  0  0  0  0  0  0  0  0  0  0  0
   49.5661   51.5346   19.5169 H   0  0  0  0  0  0  0  0  0  0  0  0
   50.2781   49.2460   19.2811 C   0  0  0  0  0  0  0  0  0  0  0  0
   49.5239   49.7976   18.0671 C   0  0  0  0  0  0  0  0  0  0  0  0
   47.5085   49.1400   16.6807 C   0  0  0  0  0  0  0  0  0  0  0  0
   48.1249   49.2270   17.9283 C   0  0  0  0  0  0  0  0  0  0  0  0
   47.4345   48.8280   19.0706 C   0  0  0  0  0  0  0  0  0  0  0  0
   46.1306   48.3651   18.9700 C   0  0  0  0  0  0  0  0  0  0  0  0
   45.5040   48.3074   17.7249 C   0  0  0  0  0  0  0  0  0  0  0  0
   46.1951   48.6892   16.5844 C   0  0  0  0  0  0  0  0  0  0  0  0
   50.4098   56.6825   18.6392 C   0  0  0  0  0  0  0  0  0  0  0  0
   48.8941   56.8665   18.7685 C   0  0  0  0  0  0  0  0  0  0  0  0
   48.3924   58.3083   18.5644 C   0  0  0  0  0  0  0  0  0  0  0  0
   47.9696   57.7629   16.0519 C   0  0  0  0  0  0  0  0  0  0  0  0
   47.6889   58.4817   17.2983 N   0  0  0  0  0  0  0  0  0  0  0  0
   46.6594   59.3268   17.1273 C   0  0  0  0  0  0  0  0  0  0  0  0
   46.2307   59.2391   15.8634 N   0  0  0  0  0  0  0  0  0  0  0  0
   47.0794   58.2683   15.1868 C   0  0  0  0  0  0  0  0  0  0  0  0
   46.9662   57.9019   13.7592 C   0  0  0  0  0  0  0  0  0  0  0  0
   45.8594   57.9154   13.2542 O   0  0  0  0  0  0  0  0  0  0  0  0
   48.0663   57.5583   13.0841 N   0  0  0  0  0  0  0  0  0  0  0  0
   48.9416   57.5620   13.5347 H   0  0  0  0  0  0  0  0  0  0  0  0
   48.0019   57.3013   12.1359 H   0  0  0  0  0  0  0  0  0  0  0  0
   47.5359   58.7966   19.7462 C   0  0  0  0  0  0  0  0  0  0  0  0
   47.9902   58.3148   20.9841 O   0  0  0  0  0  0  0  0  0  0  0  0
   47.9418   57.3460   20.9915 H   0  0  0  0  0  0  0  0  0  0  0  0
 25 26  1  0  0  0
 25 29  2  0  0  0
 26 27  1  0  0  0
 26 24  1  0  0  0
 27 28  2  0  0  0
 28 29  1  0  0  0
 29 30  1  0  0  0
 30 31  2  0  0  0
 30 32  1  0  0  0
 24 35  1  0  0  0
 24 23  1  0  0  0
 35 36  1  0  0  0
 23 22  1  0  0  0
 22  1  1  0  0  0
  1  2  1  0  0  0
  1  5  1  0  0  0
  2  3  2  0  0  0
  3  4  1  0  0  0
  4  5  2  0  0  0
  4  6  1  0  0  0
  5  9  1  0  0  0
  6  7  2  0  0  0
  7  8  1  0  0  0
  8  9  2  0  0  0
  8 10  1  0  0  0
 10 11  1  0  0  0
 11 12  2  0  0  0
 11 14  1  0  0  0
 14 15  1  0  0  0
 15 17  1  0  0  0
 16 17  2  0  0  0
 16 21  1  0  0  0
 17 18  1  0  0  0
 18 19  2  0  0  0
 19 20  1  0  0  0
 20 21  2  0  0  0
 32 33  1  0  0  0
 32 34  1  0  0  0
 36 37  1  0  0  0
 10 13  1  0  0  0
M  END
> <minimizedAffinity>
-8.30382

$$$$
