5C28_4XV_A_803


 14 15  0  0  0  0  0  0  0  0999 V2000
    2.8658   13.7512   43.6224 C   0  0  0  0  0  0  0  0  0  0  0  0
    4.0396   13.1213   41.7327 C   0  0  0  0  0  0  0  0  0  0  0  0
    4.6098   12.0780   42.3438 N   0  0  0  0  0  0  0  0  0  0  0  0
    4.2749   11.9057   43.6185 C   0  0  0  0  0  0  0  0  0  0  0  0
    3.1877   13.9677   42.3366 N   0  0  0  0  0  0  0  0  0  0  0  0
    3.4044   12.6967   44.3324 C   0  0  0  0  0  0  0  0  0  0  0  0
    1.9698   14.6591   44.2208 N   0  0  0  0  0  0  0  0  0  0  0  0
    3.1086   12.3785   45.7660 C   0  0  0  0  0  0  0  0  0  0  0  0
    5.0195   10.5644   44.3601 Cl  0  0  0  0  0  0  0  0  0  0  0  0
    1.5985   15.4035   43.6943 H   0  0  0  0  0  0  0  0  0  0  0  0
    1.7150   14.5490   45.1654 H   0  0  0  0  0  0  0  0  0  0  0  0
    4.3556   13.3825   40.3230 C   0  0  0  0  0  0  0  0  0  0  0  0
    4.6943   14.7674   39.8537 C   0  0  0  0  0  0  0  0  0  0  0  0
    3.3798   14.1455   39.4729 C   0  0  0  0  0  0  0  0  0  0  0  0
 14 13  1  0  0  0
 14 12  1  0  0  0
 13 12  1  0  0  0
 12  2  1  0  0  0
  2  5  2  0  0  0
  2  3  1  0  0  0
  5  1  1  0  0  0
  3  4  2  0  0  0
  1  7  1  0  0  0
  1  6  2  0  0  0
  4  6  1  0  0  0
  4  9  1  0  0  0
  6  8  1  0  0  0
  7 10  1  0  0  0
  7 11  1  0  0  0
M  END
> <minimizedAffinity>
-6.53288

$$$$
5C28_4XV_A_803


 14 15  0  0  0  0  0  0  0  0999 V2000
    3.7794   12.0309   45.5031 C   0  0  0  0  0  0  0  0  0  0  0  0
    5.3080   10.8036   44.2773 C   0  0  0  0  0  0  0  0  0  0  0  0
    5.0516   11.4721   43.1483 N   0  0  0  0  0  0  0  0  0  0  0  0
    4.1337   12.4287   43.2431 C   0  0  0  0  0  0  0  0  0  0  0  0
    4.6921   11.0472   45.4468 N   0  0  0  0  0  0  0  0  0  0  0  0
    3.4524   12.7752   44.3872 C   0  0  0  0  0  0  0  0  0  0  0  0
    3.1556   12.2566   46.7461 N   0  0  0  0  0  0  0  0  0  0  0  0
    2.4481   13.8861   44.3524 C   0  0  0  0  0  0  0  0  0  0  0  0
    3.8382   13.2589   41.7846 Cl  0  0  0  0  0  0  0  0  0  0  0  0
    3.4052   11.7130   47.5280 H   0  0  0  0  0  0  0  0  0  0  0  0
    2.4700   12.9578   46.8327 H   0  0  0  0  0  0  0  0  0  0  0  0
    6.3098    9.7305   44.2592 C   0  0  0  0  0  0  0  0  0  0  0  0
    5.8937    8.2902   44.1888 C   0  0  0  0  0  0  0  0  0  0  0  0
    6.4697    8.8446   45.4618 C   0  0  0  0  0  0  0  0  0  0  0  0
 14 13  1  0  0  0
 14 12  1  0  0  0
 13 12  1  0  0  0
 12  2  1  0  0  0
  2  5  2  0  0  0
  2  3  1  0  0  0
  5  1  1  0  0  0
  3  4  2  0  0  0
  1  7  1  0  0  0
  1  6  2  0  0  0
  4  6  1  0  0  0
  4  9  1  0  0  0
  6  8  1  0  0  0
  7 10  1  0  0  0
  7 11  1  0  0  0
M  END
> <minimizedAffinity>
-6.28064

$$$$
5C28_4XV_A_803


 14 15  0  0  0  0  0  0  0  0999 V2000
    4.4212   11.5455   43.3868 C   0  0  0  0  0  0  0  0  0  0  0  0
    4.0871   13.0089   41.6283 C   0  0  0  0  0  0  0  0  0  0  0  0
    3.3245   13.8292   42.3583 N   0  0  0  0  0  0  0  0  0  0  0  0
    3.1311   13.4618   43.6209 C   0  0  0  0  0  0  0  0  0  0  0  0
    4.6308   11.8745   42.1017 N   0  0  0  0  0  0  0  0  0  0  0  0
    3.6488   12.3343   44.2159 C   0  0  0  0  0  0  0  0  0  0  0  0
    5.0076   10.3497   43.8465 N   0  0  0  0  0  0  0  0  0  0  0  0
    3.3573   12.0480   45.6570 C   0  0  0  0  0  0  0  0  0  0  0  0
    2.1574   14.5345   44.5182 Cl  0  0  0  0  0  0  0  0  0  0  0  0
    5.5546    9.8036   43.2368 H   0  0  0  0  0  0  0  0  0  0  0  0
    4.8703   10.0603   44.7775 H   0  0  0  0  0  0  0  0  0  0  0  0
    4.3507   13.3419   40.2230 C   0  0  0  0  0  0  0  0  0  0  0  0
    4.6816   14.7475   39.8139 C   0  0  0  0  0  0  0  0  0  0  0  0
    3.3488   14.1538   39.4524 C   0  0  0  0  0  0  0  0  0  0  0  0
 14 13  1  0  0  0
 14 12  1  0  0  0
 13 12  1  0  0  0
 12  2  1  0  0  0
  2  5  2  0  0  0
  2  3  1  0  0  0
  5  1  1  0  0  0
  3  4  2  0  0  0
  1  7  1  0  0  0
  1  6  2  0  0  0
  4  6  1  0  0  0
  4  9  1  0  0  0
  6  8  1  0  0  0
  7 10  1  0  0  0
  7 11  1  0  0  0
M  END
> <minimizedAffinity>
-6.12151

$$$$
5C28_4XV_A_803


 14 15  0  0  0  0  0  0  0  0999 V2000
    4.4382   11.7590   45.4230 C   0  0  0  0  0  0  0  0  0  0  0  0
    5.8298   11.0278   43.7276 C   0  0  0  0  0  0  0  0  0  0  0  0
    5.1907   11.7406   42.7945 N   0  0  0  0  0  0  0  0  0  0  0  0
    4.1608   12.4607   43.2272 C   0  0  0  0  0  0  0  0  0  0  0  0
    5.4776   11.0074   45.0246 N   0  0  0  0  0  0  0  0  0  0  0  0
    3.7210   12.5288   44.5292 C   0  0  0  0  0  0  0  0  0  0  0  0
    4.0994   11.7117   46.7898 N   0  0  0  0  0  0  0  0  0  0  0  0
    2.5490   13.3936   44.8786 C   0  0  0  0  0  0  0  0  0  0  0  0
    3.3755   13.3569   42.0090 Cl  0  0  0  0  0  0  0  0  0  0  0  0
    4.6257   11.1554   47.4085 H   0  0  0  0  0  0  0  0  0  0  0  0
    3.3364   12.2351   47.1262 H   0  0  0  0  0  0  0  0  0  0  0  0
    6.9797   10.2046   43.3334 C   0  0  0  0  0  0  0  0  0  0  0  0
    8.0883   10.7791   42.5005 C   0  0  0  0  0  0  0  0  0  0  0  0
    7.1347    9.7848   41.8993 C   0  0  0  0  0  0  0  0  0  0  0  0
 14 13  1  0  0  0
 14 12  1  0  0  0
 13 12  1  0  0  0
 12  2  1  0  0  0
  2  5  2  0  0  0
  2  3  1  0  0  0
  5  1  1  0  0  0
  3  4  2  0  0  0
  1  7  1  0  0  0
  1  6  2  0  0  0
  4  6  1  0  0  0
  4  9  1  0  0  0
  6  8  1  0  0  0
  7 10  1  0  0  0
  7 11  1  0  0  0
M  END
> <minimizedAffinity>
-6.11631

$$$$
5C28_4XV_A_803


 14 15  0  0  0  0  0  0  0  0999 V2000
    4.0379   12.9002   42.2416 C   0  0  0  0  0  0  0  0  0  0  0  0
    5.1335   10.9947   42.9585 C   0  0  0  0  0  0  0  0  0  0  0  0
    4.6050   11.0621   44.1846 N   0  0  0  0  0  0  0  0  0  0  0  0
    3.7839   12.0847   44.4007 C   0  0  0  0  0  0  0  0  0  0  0  0
    4.8831   11.8882   41.9862 N   0  0  0  0  0  0  0  0  0  0  0  0
    3.4434   13.0478   43.4789 C   0  0  0  0  0  0  0  0  0  0  0  0
    3.8001   13.8161   41.1977 N   0  0  0  0  0  0  0  0  0  0  0  0
    2.4934   14.1425   43.8570 C   0  0  0  0  0  0  0  0  0  0  0  0
    3.1289   12.1333   45.9731 Cl  0  0  0  0  0  0  0  0  0  0  0  0
    4.2354   13.6903   40.3237 H   0  0  0  0  0  0  0  0  0  0  0  0
    3.1986   14.5820   41.3423 H   0  0  0  0  0  0  0  0  0  0  0  0
    6.0510    9.8947   42.6366 C   0  0  0  0  0  0  0  0  0  0  0  0
    6.8889    9.2538   43.7042 C   0  0  0  0  0  0  0  0  0  0  0  0
    7.5341   10.1322   42.6690 C   0  0  0  0  0  0  0  0  0  0  0  0
 14 13  1  0  0  0
 14 12  1  0  0  0
 13 12  1  0  0  0
 12  2  1  0  0  0
  2  5  2  0  0  0
  2  3  1  0  0  0
  5  1  1  0  0  0
  3  4  2  0  0  0
  1  7  1  0  0  0
  1  6  2  0  0  0
  4  6  1  0  0  0
  4  9  1  0  0  0
  6  8  1  0  0  0
  7 10  1  0  0  0
  7 11  1  0  0  0
M  END
> <minimizedAffinity>
-5.73934

$$$$
5C28_4XV_A_803


 14 15  0  0  0  0  0  0  0  0999 V2000
    6.3998    9.1617   44.7490 C   0  0  0  0  0  0  0  0  0  0  0  0
    4.8899   10.9126   44.7669 C   0  0  0  0  0  0  0  0  0  0  0  0
    4.6903   10.8519   43.4465 N   0  0  0  0  0  0  0  0  0  0  0  0
    5.3798    9.9147   42.8038 C   0  0  0  0  0  0  0  0  0  0  0  0
    5.7312   10.1039   45.4339 N   0  0  0  0  0  0  0  0  0  0  0  0
    6.2542    9.0241   43.3830 C   0  0  0  0  0  0  0  0  0  0  0  0
    7.2718    8.3331   45.4826 N   0  0  0  0  0  0  0  0  0  0  0  0
    6.9582    8.0088   42.5361 C   0  0  0  0  0  0  0  0  0  0  0  0
    5.0951    9.8676   41.1244 Cl  0  0  0  0  0  0  0  0  0  0  0  0
    7.3591    8.4499   46.4562 H   0  0  0  0  0  0  0  0  0  0  0  0
    7.7937    7.6372   45.0215 H   0  0  0  0  0  0  0  0  0  0  0  0
    4.1663   11.9200   45.5523 C   0  0  0  0  0  0  0  0  0  0  0  0
    2.6970   11.7760   45.8223 C   0  0  0  0  0  0  0  0  0  0  0  0
    3.1859   12.8300   44.8686 C   0  0  0  0  0  0  0  0  0  0  0  0
 14 13  1  0  0  0
 14 12  1  0  0  0
 13 12  1  0  0  0
 12  2  1  0  0  0
  2  5  2  0  0  0
  2  3  1  0  0  0
  5  1  1  0  0  0
  3  4  2  0  0  0
  1  7  1  0  0  0
  1  6  2  0  0  0
  4  6  1  0  0  0
  4  9  1  0  0  0
  6  8  1  0  0  0
  7 10  1  0  0  0
  7 11  1  0  0  0
M  END
> <minimizedAffinity>
-5.71154

$$$$
5C28_4XV_A_803


 14 15  0  0  0  0  0  0  0  0999 V2000
    4.9835   10.8895   44.9223 C   0  0  0  0  0  0  0  0  0  0  0  0
    4.2666   12.2508   43.1964 C   0  0  0  0  0  0  0  0  0  0  0  0
    5.0467   11.6452   42.2954 N   0  0  0  0  0  0  0  0  0  0  0  0
    5.7941   10.6490   42.7598 C   0  0  0  0  0  0  0  0  0  0  0  0
    4.2216   11.9100   44.4958 N   0  0  0  0  0  0  0  0  0  0  0  0
    5.8181   10.2046   44.0618 C   0  0  0  0  0  0  0  0  0  0  0  0
    4.9089   10.5616   46.2905 N   0  0  0  0  0  0  0  0  0  0  0  0
    6.7043    9.0594   44.4451 C   0  0  0  0  0  0  0  0  0  0  0  0
    6.7708    9.9013   41.5805 Cl  0  0  0  0  0  0  0  0  0  0  0  0
    4.3063   11.0642   46.8850 H   0  0  0  0  0  0  0  0  0  0  0  0
    5.4594    9.8298   46.6520 H   0  0  0  0  0  0  0  0  0  0  0  0
    3.4087   13.3616   42.7657 C   0  0  0  0  0  0  0  0  0  0  0  0
    3.7841   14.7841   43.0625 C   0  0  0  0  0  0  0  0  0  0  0  0
    2.6359   14.1425   43.7903 C   0  0  0  0  0  0  0  0  0  0  0  0
 14 13  1  0  0  0
 14 12  1  0  0  0
 13 12  1  0  0  0
 12  2  1  0  0  0
  2  5  2  0  0  0
  2  3  1  0  0  0
  5  1  1  0  0  0
  3  4  2  0  0  0
  1  7  1  0  0  0
  1  6  2  0  0  0
  4  6  1  0  0  0
  4  9  1  0  0  0
  6  8  1  0  0  0
  7 10  1  0  0  0
  7 11  1  0  0  0
M  END
> <minimizedAffinity>
-5.68692

$$$$
5C28_4XV_A_803


 14 15  0  0  0  0  0  0  0  0999 V2000
    5.2097   10.5160   44.7494 C   0  0  0  0  0  0  0  0  0  0  0  0
    5.2248   11.0452   42.4988 C   0  0  0  0  0  0  0  0  0  0  0  0
    4.3660   12.0577   42.6549 N   0  0  0  0  0  0  0  0  0  0  0  0
    3.9452   12.2675   43.8981 C   0  0  0  0  0  0  0  0  0  0  0  0
    5.6495   10.2629   43.5059 N   0  0  0  0  0  0  0  0  0  0  0  0
    4.3231   11.5429   45.0051 C   0  0  0  0  0  0  0  0  0  0  0  0
    5.6773    9.6750   45.7786 N   0  0  0  0  0  0  0  0  0  0  0  0
    3.7763   11.8978   46.3538 C   0  0  0  0  0  0  0  0  0  0  0  0
    2.8553   13.5679   44.0556 Cl  0  0  0  0  0  0  0  0  0  0  0  0
    6.3094    8.9491   45.5721 H   0  0  0  0  0  0  0  0  0  0  0  0
    5.3719    9.8133   46.7042 H   0  0  0  0  0  0  0  0  0  0  0  0
    5.7389   10.7462   41.1565 C   0  0  0  0  0  0  0  0  0  0  0  0
    4.9176    9.9630   40.1744 C   0  0  0  0  0  0  0  0  0  0  0  0
    6.1289    9.3379   40.8081 C   0  0  0  0  0  0  0  0  0  0  0  0
 14 13  1  0  0  0
 14 12  1  0  0  0
 13 12  1  0  0  0
 12  2  1  0  0  0
  2  5  2  0  0  0
  2  3  1  0  0  0
  5  1  1  0  0  0
  3  4  2  0  0  0
  1  7  1  0  0  0
  1  6  2  0  0  0
  4  6  1  0  0  0
  4  9  1  0  0  0
  6  8  1  0  0  0
  7 10  1  0  0  0
  7 11  1  0  0  0
M  END
> <minimizedAffinity>
-5.57195

$$$$
5C28_4XV_A_803


 14 15  0  0  0  0  0  0  0  0999 V2000
    3.8738   12.9200   41.4201 C   0  0  0  0  0  0  0  0  0  0  0  0
    3.9227   12.3231   43.6532 C   0  0  0  0  0  0  0  0  0  0  0  0
    4.5600   11.1737   43.4089 N   0  0  0  0  0  0  0  0  0  0  0  0
    4.8389   10.9318   42.1320 C   0  0  0  0  0  0  0  0  0  0  0  0
    3.5623   13.1963   42.6970 N   0  0  0  0  0  0  0  0  0  0  0  0
    4.5335   11.7575   41.0746 C   0  0  0  0  0  0  0  0  0  0  0  0
    3.4800   13.8591   40.4464 N   0  0  0  0  0  0  0  0  0  0  0  0
    4.9188   11.3630   39.6819 C   0  0  0  0  0  0  0  0  0  0  0  0
    5.6540    9.4597   41.8627 Cl  0  0  0  0  0  0  0  0  0  0  0  0
    3.0107   14.6812   40.7168 H   0  0  0  0  0  0  0  0  0  0  0  0
    3.6743   13.6933   39.4956 H   0  0  0  0  0  0  0  0  0  0  0  0
    3.5775   12.6670   45.0381 C   0  0  0  0  0  0  0  0  0  0  0  0
    3.9104   11.7370   46.1681 C   0  0  0  0  0  0  0  0  0  0  0  0
    2.4811   11.9153   45.7380 C   0  0  0  0  0  0  0  0  0  0  0  0
 14 13  1  0  0  0
 14 12  1  0  0  0
 13 12  1  0  0  0
 12  2  1  0  0  0
  2  5  2  0  0  0
  2  3  1  0  0  0
  5  1  1  0  0  0
  3  4  2  0  0  0
  1  7  1  0  0  0
  1  6  2  0  0  0
  4  6  1  0  0  0
  4  9  1  0  0  0
  6  8  1  0  0  0
  7 10  1  0  0  0
  7 11  1  0  0  0
M  END
> <minimizedAffinity>
-5.34738

$$$$
5C28_4XV_A_803


 14 15  0  0  0  0  0  0  0  0999 V2000
    4.2114   11.8550   44.0574 C   0  0  0  0  0  0  0  0  0  0  0  0
    5.8233   10.6468   42.9227 C   0  0  0  0  0  0  0  0  0  0  0  0
    5.6944   11.3773   41.8106 N   0  0  0  0  0  0  0  0  0  0  0  0
    4.7945   12.3540   41.8661 C   0  0  0  0  0  0  0  0  0  0  0  0
    5.1018   10.8496   44.0384 N   0  0  0  0  0  0  0  0  0  0  0  0
    4.0129   12.6627   42.9555 C   0  0  0  0  0  0  0  0  0  0  0  0
    3.4745   12.0366   45.2445 N   0  0  0  0  0  0  0  0  0  0  0  0
    3.0434   13.8022   42.8818 C   0  0  0  0  0  0  0  0  0  0  0  0
    4.6628   13.2635   40.4310 Cl  0  0  0  0  0  0  0  0  0  0  0  0
    3.6335   11.4480   46.0175 H   0  0  0  0  0  0  0  0  0  0  0  0
    2.8006   12.7520   45.3009 H   0  0  0  0  0  0  0  0  0  0  0  0
    6.7963    9.5477   42.9455 C   0  0  0  0  0  0  0  0  0  0  0  0
    7.8089    9.3931   41.8485 C   0  0  0  0  0  0  0  0  0  0  0  0
    6.6670    8.4218   41.9593 C   0  0  0  0  0  0  0  0  0  0  0  0
 14 13  1  0  0  0
 14 12  1  0  0  0
 13 12  1  0  0  0
 12  2  1  0  0  0
  2  5  2  0  0  0
  2  3  1  0  0  0
  5  1  1  0  0  0
  3  4  2  0  0  0
  1  7  1  0  0  0
  1  6  2  0  0  0
  4  6  1  0  0  0
  4  9  1  0  0  0
  6  8  1  0  0  0
  7 10  1  0  0  0
  7 11  1  0  0  0
M  END
> <minimizedAffinity>
-5.28975

$$$$
