4CWT_IK9_A_1225


 33 37  0  0  0  0  0  0  0  0999 V2000
    4.3254   16.7478   26.1719 F   0  0  0  0  0  0  0  0  0  0  0  0
    4.8691   15.6295   25.6433 C   0  0  0  0  0  0  0  0  0  0  0  0
    4.0676   14.6000   25.1606 C   0  0  0  0  0  0  0  0  0  0  0  0
    4.6769   13.4544   24.6410 C   0  0  0  0  0  0  0  0  0  0  0  0
    6.0700   13.3283   24.5956 C   0  0  0  0  0  0  0  0  0  0  0  0
    6.8776   14.3678   25.0784 C   0  0  0  0  0  0  0  0  0  0  0  0
    6.2557   15.5093   25.5866 C   0  0  0  0  0  0  0  0  0  0  0  0
    6.5749   12.1410   24.0525 C   0  0  0  0  0  0  0  0  0  0  0  0
    7.8556   11.7226   23.8701 N   0  0  0  0  0  0  0  0  0  0  0  0
    7.7251   10.4866   23.2932 C   0  0  0  0  0  0  0  0  0  0  0  0
    8.8022    9.7118   22.9432 N   0  0  0  0  0  0  0  0  0  0  0  0
    6.4604   10.0612   23.0978 N   0  0  0  0  0  0  0  0  0  0  0  0
    5.7779   11.1692   23.6161 N   0  0  0  0  0  0  0  0  0  0  0  0
    4.4425   11.3167   23.6465 C   0  0  0  0  0  0  0  0  0  0  0  0
    3.8995   12.4421   24.1810 N   0  0  0  0  0  0  0  0  0  0  0  0
    9.7169   10.0428   23.0952 H   0  0  0  0  0  0  0  0  0  0  0  0
    6.1194    9.2239   22.7080 H   0  0  0  0  0  0  0  0  0  0  0  0
    8.2423   14.2821   25.0483 N   0  0  0  0  0  0  0  0  0  0  0  0
    8.6720   13.7851   24.3150 H   0  0  0  0  0  0  0  0  0  0  0  0
    9.0884   14.9074   26.0739 C   0  0  0  0  0  0  0  0  0  0  0  0
   10.1413   13.8420   26.4173 C   0  0  0  0  0  0  0  0  0  0  0  0
   10.3670   12.9480   25.3193 O   0  0  0  0  0  0  0  0  0  0  0  0
    9.5421   12.4851   25.1044 H   0  0  0  0  0  0  0  0  0  0  0  0
    3.5282   10.2063   23.1936 C   0  0  0  0  0  0  0  0  0  0  0  0
    2.2698   10.4547   24.0307 C   0  0  0  0  0  0  0  0  0  0  0  0
    1.3130   11.3788   23.5767 C   0  0  0  0  0  0  0  0  0  0  0  0
    0.1242   11.6646   24.2665 C   0  0  0  0  0  0  0  0  0  0  0  0
   -0.0974   10.9781   25.4548 C   0  0  0  0  0  0  0  0  0  0  0  0
    0.8752   10.0141   25.9402 C   0  0  0  0  0  0  0  0  0  0  0  0
    2.0491    9.7505   25.2337 C   0  0  0  0  0  0  0  0  0  0  0  0
   -1.1358   11.0395   26.3426 O   0  0  0  0  0  0  0  0  0  0  0  0
   -0.8214   10.1879   27.4705 C   0  0  0  0  0  0  0  0  0  0  0  0
    0.4010    9.4966   27.1215 O   0  0  0  0  0  0  0  0  0  0  0  0
  1  2  1  0  0  0
  2  3  2  0  0  0
  2  7  1  0  0  0
  3  4  1  0  0  0
  4  5  2  0  0  0
  4 15  1  0  0  0
  5  6  1  0  0  0
  5  8  1  0  0  0
  6 18  1  0  0  0
  6  7  2  0  0  0
 18 20  1  0  0  0
 20 21  1  0  0  0
 21 22  1  0  0  0
  8  9  2  0  0  0
  8 13  1  0  0  0
  9 10  1  0  0  0
 10 11  2  0  0  0
 10 12  1  0  0  0
 12 13  1  0  0  0
 13 14  1  0  0  0
 14 15  2  0  0  0
 14 24  1  0  0  0
 24 25  1  0  0  0
 25 26  1  0  0  0
 25 30  2  0  0  0
 26 27  2  0  0  0
 27 28  1  0  0  0
 28 29  2  0  0  0
 28 31  1  0  0  0
 29 30  1  0  0  0
 29 33  1  0  0  0
 31 32  1  0  0  0
 32 33  1  0  0  0
 18 19  1  0  0  0
 22 23  1  0  0  0
 11 16  1  0  0  0
 12 17  1  0  0  0
M  END
> <minimizedAffinity>
-11.75246

$$$$
4CWT_IK9_A_1225


 33 37  0  0  0  0  0  0  0  0999 V2000
    4.3566   16.4941   26.0724 F   0  0  0  0  0  0  0  0  0  0  0  0
    4.9193   15.3825   25.5494 C   0  0  0  0  0  0  0  0  0  0  0  0
    4.1354   14.3534   25.0376 C   0  0  0  0  0  0  0  0  0  0  0  0
    4.7635   13.2148   24.5250 C   0  0  0  0  0  0  0  0  0  0  0  0
    6.1579   13.0953   24.5152 C   0  0  0  0  0  0  0  0  0  0  0  0
    6.9477   14.1344   25.0274 C   0  0  0  0  0  0  0  0  0  0  0  0
    6.3074   15.2689   25.5281 C   0  0  0  0  0  0  0  0  0  0  0  0
    6.6824   11.9147   23.9761 C   0  0  0  0  0  0  0  0  0  0  0  0
    7.9694   11.5034   23.8241 N   0  0  0  0  0  0  0  0  0  0  0  0
    7.8598   10.2716   23.2342 C   0  0  0  0  0  0  0  0  0  0  0  0
    8.9494    9.5044   22.9063 N   0  0  0  0  0  0  0  0  0  0  0  0
    6.6027    9.8422   23.0021 N   0  0  0  0  0  0  0  0  0  0  0  0
    5.9016   10.9429   23.5112 N   0  0  0  0  0  0  0  0  0  0  0  0
    4.5652   11.0842   23.5076 C   0  0  0  0  0  0  0  0  0  0  0  0
    4.0032   12.2028   24.0366 N   0  0  0  0  0  0  0  0  0  0  0  0
    9.8581    9.8382   23.0850 H   0  0  0  0  0  0  0  0  0  0  0  0
    6.2759    9.0066   22.5969 H   0  0  0  0  0  0  0  0  0  0  0  0
    8.3132   14.0550   25.0324 N   0  0  0  0  0  0  0  0  0  0  0  0
    8.7631   13.5479   24.3185 H   0  0  0  0  0  0  0  0  0  0  0  0
    9.1307   14.7015   26.0680 C   0  0  0  0  0  0  0  0  0  0  0  0
   10.3396   13.7707   26.2519 C   0  0  0  0  0  0  0  0  0  0  0  0
   10.4688   12.8496   25.1607 O   0  0  0  0  0  0  0  0  0  0  0  0
    9.6760   12.2928   25.1121 H   0  0  0  0  0  0  0  0  0  0  0  0
    3.6684    9.9735   23.0220 C   0  0  0  0  0  0  0  0  0  0  0  0
    3.4721    9.1327   24.2872 C   0  0  0  0  0  0  0  0  0  0  0  0
    4.0295    7.8439   24.3499 C   0  0  0  0  0  0  0  0  0  0  0  0
    3.9144    7.0041   25.4689 C   0  0  0  0  0  0  0  0  0  0  0  0
    3.2135    7.5006   26.5620 C   0  0  0  0  0  0  0  0  0  0  0  0
    2.6339    8.8322   26.5215 C   0  0  0  0  0  0  0  0  0  0  0  0
    2.7636    9.6450   25.3950 C   0  0  0  0  0  0  0  0  0  0  0  0
    2.9269    6.9334   27.7730 O   0  0  0  0  0  0  0  0  0  0  0  0
    2.0777    7.8434   28.5123 C   0  0  0  0  0  0  0  0  0  0  0  0
    2.0068    9.0546   27.7238 O   0  0  0  0  0  0  0  0  0  0  0  0
  1  2  1  0  0  0
  2  3  2  0  0  0
  2  7  1  0  0  0
  3  4  1  0  0  0
  4  5  2  0  0  0
  4 15  1  0  0  0
  5  6  1  0  0  0
  5  8  1  0  0  0
  6 18  1  0  0  0
  6  7  2  0  0  0
 18 20  1  0  0  0
 20 21  1  0  0  0
 21 22  1  0  0  0
  8  9  2  0  0  0
  8 13  1  0  0  0
  9 10  1  0  0  0
 10 11  2  0  0  0
 10 12  1  0  0  0
 12 13  1  0  0  0
 13 14  1  0  0  0
 14 15  2  0  0  0
 14 24  1  0  0  0
 24 25  1  0  0  0
 25 26  1  0  0  0
 25 30  2  0  0  0
 26 27  2  0  0  0
 27 28  1  0  0  0
 28 29  2  0  0  0
 28 31  1  0  0  0
 29 30  1  0  0  0
 29 33  1  0  0  0
 31 32  1  0  0  0
 32 33  1  0  0  0
 18 19  1  0  0  0
 22 23  1  0  0  0
 11 16  1  0  0  0
 12 17  1  0  0  0
M  END
> <minimizedAffinity>
-11.16705

$$$$
4CWT_IK9_A_1225


 33 37  0  0  0  0  0  0  0  0999 V2000
    9.0579    9.4792   22.7564 F   0  0  0  0  0  0  0  0  0  0  0  0
    8.1693   10.3974   23.1957 C   0  0  0  0  0  0  0  0  0  0  0  0
    6.7997   10.1916   23.0649 C   0  0  0  0  0  0  0  0  0  0  0  0
    5.9204   11.1797   23.5169 C   0  0  0  0  0  0  0  0  0  0  0  0
    6.3918   12.3626   24.0978 C   0  0  0  0  0  0  0  0  0  0  0  0
    7.7721   12.5679   24.2331 C   0  0  0  0  0  0  0  0  0  0  0  0
    8.6381   11.5692   23.7852 C   0  0  0  0  0  0  0  0  0  0  0  0
    5.4249   13.2832   24.5185 C   0  0  0  0  0  0  0  0  0  0  0  0
    5.5563   14.5009   25.1092 N   0  0  0  0  0  0  0  0  0  0  0  0
    4.2664   14.9265   25.2894 C   0  0  0  0  0  0  0  0  0  0  0  0
    3.9548   16.1323   25.8655 N   0  0  0  0  0  0  0  0  0  0  0  0
    3.3055   14.0881   24.8507 N   0  0  0  0  0  0  0  0  0  0  0  0
    4.1226   13.0609   24.3615 N   0  0  0  0  0  0  0  0  0  0  0  0
    3.6871   11.9095   23.8224 C   0  0  0  0  0  0  0  0  0  0  0  0
    4.5841   10.9895   23.3799 N   0  0  0  0  0  0  0  0  0  0  0  0
    4.6730   16.7285   26.1786 H   0  0  0  0  0  0  0  0  0  0  0  0
    2.3248   14.1726   24.8688 H   0  0  0  0  0  0  0  0  0  0  0  0
    8.2703   13.7097   24.7979 N   0  0  0  0  0  0  0  0  0  0  0  0
    7.9640   14.5815   24.4582 H   0  0  0  0  0  0  0  0  0  0  0  0
    9.2475   13.6781   25.8946 C   0  0  0  0  0  0  0  0  0  0  0  0
    9.1214   15.0515   26.5724 C   0  0  0  0  0  0  0  0  0  0  0  0
    7.7912   15.2836   27.0543 O   0  0  0  0  0  0  0  0  0  0  0  0
    7.1700   15.2672   26.3094 H   0  0  0  0  0  0  0  0  0  0  0  0
    2.2160   11.6634   23.6011 C   0  0  0  0  0  0  0  0  0  0  0  0
    1.9183   10.5358   24.5941 C   0  0  0  0  0  0  0  0  0  0  0  0
    0.8610    9.6481   24.3301 C   0  0  0  0  0  0  0  0  0  0  0  0
    0.5197    8.5781   25.1724 C   0  0  0  0  0  0  0  0  0  0  0  0
    1.2887    8.4053   26.3174 C   0  0  0  0  0  0  0  0  0  0  0  0
    2.3901    9.3073   26.6073 C   0  0  0  0  0  0  0  0  0  0  0  0
    2.7063   10.3633   25.7521 C   0  0  0  0  0  0  0  0  0  0  0  0
    1.2039    7.4791   27.3200 O   0  0  0  0  0  0  0  0  0  0  0  0
    2.1864    7.8107   28.3304 C   0  0  0  0  0  0  0  0  0  0  0  0
    2.9649    8.9033   27.7883 O   0  0  0  0  0  0  0  0  0  0  0  0
  1  2  1  0  0  0
  2  3  2  0  0  0
  2  7  1  0  0  0
  3  4  1  0  0  0
  4  5  2  0  0  0
  4 15  1  0  0  0
  5  6  1  0  0  0
  5  8  1  0  0  0
  6 18  1  0  0  0
  6  7  2  0  0  0
 18 20  1  0  0  0
 20 21  1  0  0  0
 21 22  1  0  0  0
  8  9  2  0  0  0
  8 13  1  0  0  0
  9 10  1  0  0  0
 10 11  2  0  0  0
 10 12  1  0  0  0
 12 13  1  0  0  0
 13 14  1  0  0  0
 14 15  2  0  0  0
 14 24  1  0  0  0
 24 25  1  0  0  0
 25 26  1  0  0  0
 25 30  2  0  0  0
 26 27  2  0  0  0
 27 28  1  0  0  0
 28 29  2  0  0  0
 28 31  1  0  0  0
 29 30  1  0  0  0
 29 33  1  0  0  0
 31 32  1  0  0  0
 32 33  1  0  0  0
 18 19  1  0  0  0
 22 23  1  0  0  0
 11 16  1  0  0  0
 12 17  1  0  0  0
M  END
> <minimizedAffinity>
-10.10122

$$$$
4CWT_IK9_A_1225


 33 37  0  0  0  0  0  0  0  0999 V2000
    9.1955    8.8042   22.7931 F   0  0  0  0  0  0  0  0  0  0  0  0
    8.2847    9.7447   23.1268 C   0  0  0  0  0  0  0  0  0  0  0  0
    8.6802   10.9925   23.5981 C   0  0  0  0  0  0  0  0  0  0  0  0
    7.7003   11.9254   23.9489 C   0  0  0  0  0  0  0  0  0  0  0  0
    6.3377   11.6282   23.8316 C   0  0  0  0  0  0  0  0  0  0  0  0
    5.9394   10.3721   23.3527 C   0  0  0  0  0  0  0  0  0  0  0  0
    6.9286    9.4536   22.9981 C   0  0  0  0  0  0  0  0  0  0  0  0
    5.4414   12.6356   24.2078 C   0  0  0  0  0  0  0  0  0  0  0  0
    4.0820   12.6588   24.2101 N   0  0  0  0  0  0  0  0  0  0  0  0
    3.7692   13.9092   24.6748 C   0  0  0  0  0  0  0  0  0  0  0  0
    2.4766   14.3428   24.8307 N   0  0  0  0  0  0  0  0  0  0  0  0
    4.8174   14.6977   24.9879 N   0  0  0  0  0  0  0  0  0  0  0  0
    5.8554   13.8120   24.6713 N   0  0  0  0  0  0  0  0  0  0  0  0
    7.1678   14.0885   24.7559 C   0  0  0  0  0  0  0  0  0  0  0  0
    8.0807   13.1389   24.4214 N   0  0  0  0  0  0  0  0  0  0  0  0
    1.7267   13.7499   24.5955 H   0  0  0  0  0  0  0  0  0  0  0  0
    4.8449   15.6187   25.3347 H   0  0  0  0  0  0  0  0  0  0  0  0
    4.6175   10.0462   23.2217 N   0  0  0  0  0  0  0  0  0  0  0  0
    4.0963   10.4554   22.4937 H   0  0  0  0  0  0  0  0  0  0  0  0
    3.9496    9.1056   24.1317 C   0  0  0  0  0  0  0  0  0  0  0  0
    2.4480    9.3595   23.9259 C   0  0  0  0  0  0  0  0  0  0  0  0
    2.2123   10.5537   23.1684 O   0  0  0  0  0  0  0  0  0  0  0  0
    2.5748   11.3163   23.6459 H   0  0  0  0  0  0  0  0  0  0  0  0
    7.6499   15.4019   25.3185 C   0  0  0  0  0  0  0  0  0  0  0  0
    8.8666   14.9779   26.1467 C   0  0  0  0  0  0  0  0  0  0  0  0
    8.6966   14.0625   27.1997 C   0  0  0  0  0  0  0  0  0  0  0  0
    9.7511   13.6051   28.0058 C   0  0  0  0  0  0  0  0  0  0  0  0
   11.0213   14.0931   27.7214 C   0  0  0  0  0  0  0  0  0  0  0  0
   11.2212   15.0355   26.6339 C   0  0  0  0  0  0  0  0  0  0  0  0
   10.1540   15.4736   25.8492 C   0  0  0  0  0  0  0  0  0  0  0  0
   12.2272   13.8492   28.3185 O   0  0  0  0  0  0  0  0  0  0  0  0
   13.2232   14.6951   27.6953 C   0  0  0  0  0  0  0  0  0  0  0  0
   12.5595   15.3433   26.5848 O   0  0  0  0  0  0  0  0  0  0  0  0
  1  2  1  0  0  0
  2  3  2  0  0  0
  2  7  1  0  0  0
  3  4  1  0  0  0
  4  5  2  0  0  0
  4 15  1  0  0  0
  5  6  1  0  0  0
  5  8  1  0  0  0
  6 18  1  0  0  0
  6  7  2  0  0  0
 18 20  1  0  0  0
 20 21  1  0  0  0
 21 22  1  0  0  0
  8  9  2  0  0  0
  8 13  1  0  0  0
  9 10  1  0  0  0
 10 11  2  0  0  0
 10 12  1  0  0  0
 12 13  1  0  0  0
 13 14  1  0  0  0
 14 15  2  0  0  0
 14 24  1  0  0  0
 24 25  1  0  0  0
 25 26  1  0  0  0
 25 30  2  0  0  0
 26 27  2  0  0  0
 27 28  1  0  0  0
 28 29  2  0  0  0
 28 31  1  0  0  0
 29 30  1  0  0  0
 29 33  1  0  0  0
 31 32  1  0  0  0
 32 33  1  0  0  0
 18 19  1  0  0  0
 22 23  1  0  0  0
 11 16  1  0  0  0
 12 17  1  0  0  0
M  END
> <minimizedAffinity>
-9.84192

$$$$
4CWT_IK9_A_1225


 33 37  0  0  0  0  0  0  0  0999 V2000
    4.1382   16.9312   26.1077 F   0  0  0  0  0  0  0  0  0  0  0  0
    4.5562   15.7655   25.5673 C   0  0  0  0  0  0  0  0  0  0  0  0
    3.6473   14.7831   25.1875 C   0  0  0  0  0  0  0  0  0  0  0  0
    4.1293   13.5858   24.6511 C   0  0  0  0  0  0  0  0  0  0  0  0
    5.5012   13.3619   24.4878 C   0  0  0  0  0  0  0  0  0  0  0  0
    6.4167   14.3538   24.8669 C   0  0  0  0  0  0  0  0  0  0  0  0
    5.9209   15.5476   25.3931 C   0  0  0  0  0  0  0  0  0  0  0  0
    5.8745   12.1298   23.9385 C   0  0  0  0  0  0  0  0  0  0  0  0
    7.1028   11.6188   23.6574 N   0  0  0  0  0  0  0  0  0  0  0  0
    6.8385   10.3816   23.1314 C   0  0  0  0  0  0  0  0  0  0  0  0
    7.8255    9.5255   22.7118 N   0  0  0  0  0  0  0  0  0  0  0  0
    5.5356   10.0408   23.0600 N   0  0  0  0  0  0  0  0  0  0  0  0
    4.9782   11.2057   23.6027 N   0  0  0  0  0  0  0  0  0  0  0  0
    3.6638   11.4465   23.7452 C   0  0  0  0  0  0  0  0  0  0  0  0
    3.2477   12.6194   24.2912 N   0  0  0  0  0  0  0  0  0  0  0  0
    8.7702    9.7955   22.7733 H   0  0  0  0  0  0  0  0  0  0  0  0
    5.1056    9.2202   22.7268 H   0  0  0  0  0  0  0  0  0  0  0  0
    7.7645   14.1726   24.7201 N   0  0  0  0  0  0  0  0  0  0  0  0
    8.0985   13.7182   23.9132 H   0  0  0  0  0  0  0  0  0  0  0  0
    8.7302   14.6337   25.7269 C   0  0  0  0  0  0  0  0  0  0  0  0
    7.9806   14.5336   27.0647 C   0  0  0  0  0  0  0  0  0  0  0  0
    8.2586   15.6561   27.9122 O   0  0  0  0  0  0  0  0  0  0  0  0
    9.2077   15.6843   28.1105 H   0  0  0  0  0  0  0  0  0  0  0  0
    2.6401   10.3920   23.4075 C   0  0  0  0  0  0  0  0  0  0  0  0
    2.2248    9.8821   24.7908 C   0  0  0  0  0  0  0  0  0  0  0  0
    1.0009   10.3018   25.3396 C   0  0  0  0  0  0  0  0  0  0  0  0
    0.5290    9.8802   26.5928 C   0  0  0  0  0  0  0  0  0  0  0  0
    1.3305    8.9949   27.3044 C   0  0  0  0  0  0  0  0  0  0  0  0
    2.5968    8.5432   26.7539 C   0  0  0  0  0  0  0  0  0  0  0  0
    3.0412    8.9796   25.5055 C   0  0  0  0  0  0  0  0  0  0  0  0
    1.1548    8.4190   28.5323 O   0  0  0  0  0  0  0  0  0  0  0  0
    2.3419    7.6534   28.8500 C   0  0  0  0  0  0  0  0  0  0  0  0
    3.1688    7.6861   27.6630 O   0  0  0  0  0  0  0  0  0  0  0  0
  1  2  1  0  0  0
  2  3  2  0  0  0
  2  7  1  0  0  0
  3  4  1  0  0  0
  4  5  2  0  0  0
  4 15  1  0  0  0
  5  6  1  0  0  0
  5  8  1  0  0  0
  6 18  1  0  0  0
  6  7  2  0  0  0
 18 20  1  0  0  0
 20 21  1  0  0  0
 21 22  1  0  0  0
  8  9  2  0  0  0
  8 13  1  0  0  0
  9 10  1  0  0  0
 10 11  2  0  0  0
 10 12  1  0  0  0
 12 13  1  0  0  0
 13 14  1  0  0  0
 14 15  2  0  0  0
 14 24  1  0  0  0
 24 25  1  0  0  0
 25 26  1  0  0  0
 25 30  2  0  0  0
 26 27  2  0  0  0
 27 28  1  0  0  0
 28 29  2  0  0  0
 28 31  1  0  0  0
 29 30  1  0  0  0
 29 33  1  0  0  0
 31 32  1  0  0  0
 32 33  1  0  0  0
 18 19  1  0  0  0
 22 23  1  0  0  0
 11 16  1  0  0  0
 12 17  1  0  0  0
M  END
> <minimizedAffinity>
-9.77777

$$$$
4CWT_IK9_A_1225


 33 37  0  0  0  0  0  0  0  0999 V2000
   -0.9687   13.4119   23.2802 F   0  0  0  0  0  0  0  0  0  0  0  0
   -0.1604   12.3848   23.6227 C   0  0  0  0  0  0  0  0  0  0  0  0
    1.1025   12.2448   23.0562 C   0  0  0  0  0  0  0  0  0  0  0  0
    1.8941   11.1545   23.4280 C   0  0  0  0  0  0  0  0  0  0  0  0
    1.4418   10.2101   24.3566 C   0  0  0  0  0  0  0  0  0  0  0  0
    0.1706   10.3537   24.9304 C   0  0  0  0  0  0  0  0  0  0  0  0
   -0.6055   11.4517   24.5563 C   0  0  0  0  0  0  0  0  0  0  0  0
    2.3162    9.1597   24.6594 C   0  0  0  0  0  0  0  0  0  0  0  0
    2.1764    8.1041   25.5049 N   0  0  0  0  0  0  0  0  0  0  0  0
    3.3575    7.4201   25.3847 C   0  0  0  0  0  0  0  0  0  0  0  0
    3.6256    6.2704   26.0843 N   0  0  0  0  0  0  0  0  0  0  0  0
    4.2504    7.9394   24.5177 N   0  0  0  0  0  0  0  0  0  0  0  0
    3.5109    9.0475   24.0847 N   0  0  0  0  0  0  0  0  0  0  0  0
    3.9382    9.9760   23.2122 C   0  0  0  0  0  0  0  0  0  0  0  0
    3.1212   11.0063   22.8687 N   0  0  0  0  0  0  0  0  0  0  0  0
    2.9587    5.9094   26.7121 H   0  0  0  0  0  0  0  0  0  0  0  0
    5.1509    7.6322   24.2650 H   0  0  0  0  0  0  0  0  0  0  0  0
   -0.3047    9.4528   25.8432 N   0  0  0  0  0  0  0  0  0  0  0  0
   -0.5407    8.5467   25.5392 H   0  0  0  0  0  0  0  0  0  0  0  0
   -0.4746    9.7926   27.2626 C   0  0  0  0  0  0  0  0  0  0  0  0
    0.0161    8.5519   28.0248 C   0  0  0  0  0  0  0  0  0  0  0  0
   -0.1196    7.3603   27.2392 O   0  0  0  0  0  0  0  0  0  0  0  0
   -1.0548    7.2198   27.0237 H   0  0  0  0  0  0  0  0  0  0  0  0
    5.2723    9.8380   22.5230 C   0  0  0  0  0  0  0  0  0  0  0  0
    6.1102   10.9212   23.2091 C   0  0  0  0  0  0  0  0  0  0  0  0
    7.5116   10.8137   23.2028 C   0  0  0  0  0  0  0  0  0  0  0  0
    8.3635   11.7606   23.7932 C   0  0  0  0  0  0  0  0  0  0  0  0
    7.7639   12.8566   24.4028 C   0  0  0  0  0  0  0  0  0  0  0  0
    6.3174   12.9912   24.4162 C   0  0  0  0  0  0  0  0  0  0  0  0
    5.4949   12.0337   23.8219 C   0  0  0  0  0  0  0  0  0  0  0  0
    8.3106   13.9248   25.0587 O   0  0  0  0  0  0  0  0  0  0  0  0
    7.2332   14.7305   25.5937 C   0  0  0  0  0  0  0  0  0  0  0  0
    6.0094   14.1546   25.0795 O   0  0  0  0  0  0  0  0  0  0  0  0
  1  2  1  0  0  0
  2  3  2  0  0  0
  2  7  1  0  0  0
  3  4  1  0  0  0
  4  5  2  0  0  0
  4 15  1  0  0  0
  5  6  1  0  0  0
  5  8  1  0  0  0
  6 18  1  0  0  0
  6  7  2  0  0  0
 18 20  1  0  0  0
 20 21  1  0  0  0
 21 22  1  0  0  0
  8  9  2  0  0  0
  8 13  1  0  0  0
  9 10  1  0  0  0
 10 11  2  0  0  0
 10 12  1  0  0  0
 12 13  1  0  0  0
 13 14  1  0  0  0
 14 15  2  0  0  0
 14 24  1  0  0  0
 24 25  1  0  0  0
 25 26  1  0  0  0
 25 30  2  0  0  0
 26 27  2  0  0  0
 27 28  1  0  0  0
 28 29  2  0  0  0
 28 31  1  0  0  0
 29 30  1  0  0  0
 29 33  1  0  0  0
 31 32  1  0  0  0
 32 33  1  0  0  0
 18 19  1  0  0  0
 22 23  1  0  0  0
 11 16  1  0  0  0
 12 17  1  0  0  0
M  END
> <minimizedAffinity>
-9.59328

$$$$
4CWT_IK9_A_1225


 33 37  0  0  0  0  0  0  0  0999 V2000
    8.0457    8.7697   23.2948 F   0  0  0  0  0  0  0  0  0  0  0  0
    6.8972    9.4736   23.3998 C   0  0  0  0  0  0  0  0  0  0  0  0
    6.8995   10.7885   23.8540 C   0  0  0  0  0  0  0  0  0  0  0  0
    5.6836   11.4689   23.9640 C   0  0  0  0  0  0  0  0  0  0  0  0
    4.4728   10.8547   23.6239 C   0  0  0  0  0  0  0  0  0  0  0  0
    4.4712    9.5308   23.1623 C   0  0  0  0  0  0  0  0  0  0  0  0
    5.6935    8.8665   23.0494 C   0  0  0  0  0  0  0  0  0  0  0  0
    3.3149   11.6278   23.7689 C   0  0  0  0  0  0  0  0  0  0  0  0
    2.0111   11.3277   23.5265 N   0  0  0  0  0  0  0  0  0  0  0  0
    1.3377   12.4771   23.8474 C   0  0  0  0  0  0  0  0  0  0  0  0
   -0.0254   12.5945   23.7417 N   0  0  0  0  0  0  0  0  0  0  0  0
    2.0986   13.4978   24.2923 N   0  0  0  0  0  0  0  0  0  0  0  0
    3.3527   12.8777   24.2234 N   0  0  0  0  0  0  0  0  0  0  0  0
    4.5264   13.4593   24.5236 C   0  0  0  0  0  0  0  0  0  0  0  0
    5.6791   12.7471   24.4188 N   0  0  0  0  0  0  0  0  0  0  0  0
   -0.5609   11.8361   23.4144 H   0  0  0  0  0  0  0  0  0  0  0  0
    1.8480   14.4056   24.5792 H   0  0  0  0  0  0  0  0  0  0  0  0
    3.3085    8.8980   22.8179 N   0  0  0  0  0  0  0  0  0  0  0  0
    2.7742    9.2565   22.0728 H   0  0  0  0  0  0  0  0  0  0  0  0
    2.8306    7.7010   23.5233 C   0  0  0  0  0  0  0  0  0  0  0  0
    1.4591    7.3991   22.8994 C   0  0  0  0  0  0  0  0  0  0  0  0
    0.4004    8.0626   23.6027 O   0  0  0  0  0  0  0  0  0  0  0  0
    0.3782    7.7522   24.5214 H   0  0  0  0  0  0  0  0  0  0  0  0
    4.5790   14.8603   25.0788 C   0  0  0  0  0  0  0  0  0  0  0  0
    5.9759   14.9134   25.7050 C   0  0  0  0  0  0  0  0  0  0  0  0
    6.1433   14.5294   27.0466 C   0  0  0  0  0  0  0  0  0  0  0  0
    7.3838   14.5323   27.7039 C   0  0  0  0  0  0  0  0  0  0  0  0
    8.4900   14.9332   26.9636 C   0  0  0  0  0  0  0  0  0  0  0  0
    8.3413   15.3287   25.5736 C   0  0  0  0  0  0  0  0  0  0  0  0
    7.0953   15.3168   24.9460 C   0  0  0  0  0  0  0  0  0  0  0  0
    9.8067   15.0487   27.3147 O   0  0  0  0  0  0  0  0  0  0  0  0
   10.5297   15.6086   26.1924 C   0  0  0  0  0  0  0  0  0  0  0  0
    9.5842   15.6727   25.0989 O   0  0  0  0  0  0  0  0  0  0  0  0
  1  2  1  0  0  0
  2  3  2  0  0  0
  2  7  1  0  0  0
  3  4  1  0  0  0
  4  5  2  0  0  0
  4 15  1  0  0  0
  5  6  1  0  0  0
  5  8  1  0  0  0
  6 18  1  0  0  0
  6  7  2  0  0  0
 18 20  1  0  0  0
 20 21  1  0  0  0
 21 22  1  0  0  0
  8  9  2  0  0  0
  8 13  1  0  0  0
  9 10  1  0  0  0
 10 11  2  0  0  0
 10 12  1  0  0  0
 12 13  1  0  0  0
 13 14  1  0  0  0
 14 15  2  0  0  0
 14 24  1  0  0  0
 24 25  1  0  0  0
 25 26  1  0  0  0
 25 30  2  0  0  0
 26 27  2  0  0  0
 27 28  1  0  0  0
 28 29  2  0  0  0
 28 31  1  0  0  0
 29 30  1  0  0  0
 29 33  1  0  0  0
 31 32  1  0  0  0
 32 33  1  0  0  0
 18 19  1  0  0  0
 22 23  1  0  0  0
 11 16  1  0  0  0
 12 17  1  0  0  0
M  END
> <minimizedAffinity>
-9.08042

$$$$
4CWT_IK9_A_1225


 33 37  0  0  0  0  0  0  0  0999 V2000
    2.5826    7.4092   28.8595 F   0  0  0  0  0  0  0  0  0  0  0  0
    2.9007    7.7785   27.5993 C   0  0  0  0  0  0  0  0  0  0  0  0
    2.6853    9.0795   27.1560 C   0  0  0  0  0  0  0  0  0  0  0  0
    3.0125    9.4083   25.8375 C   0  0  0  0  0  0  0  0  0  0  0  0
    3.5524    8.4581   24.9633 C   0  0  0  0  0  0  0  0  0  0  0  0
    3.7732    7.1481   25.4115 C   0  0  0  0  0  0  0  0  0  0  0  0
    3.4498    6.8361   26.7329 C   0  0  0  0  0  0  0  0  0  0  0  0
    3.8463    8.8948   23.6662 C   0  0  0  0  0  0  0  0  0  0  0  0
    4.3697    8.2288   22.6026 N   0  0  0  0  0  0  0  0  0  0  0  0
    4.4312    9.1743   21.6128 C   0  0  0  0  0  0  0  0  0  0  0  0
    4.9091    8.9043   20.3551 N   0  0  0  0  0  0  0  0  0  0  0  0
    3.9768   10.4002   21.9436 N   0  0  0  0  0  0  0  0  0  0  0  0
    3.6106   10.1432   23.2710 N   0  0  0  0  0  0  0  0  0  0  0  0
    3.1128   11.0484   24.1305 C   0  0  0  0  0  0  0  0  0  0  0  0
    2.7922   10.6723   25.3965 N   0  0  0  0  0  0  0  0  0  0  0  0
    5.2359    8.0018   20.1359 H   0  0  0  0  0  0  0  0  0  0  0  0
    3.9197   11.2269   21.4122 H   0  0  0  0  0  0  0  0  0  0  0  0
    4.3016    6.1929   24.5874 N   0  0  0  0  0  0  0  0  0  0  0  0
    3.9547    6.1113   23.6697 H   0  0  0  0  0  0  0  0  0  0  0  0
    5.3698    5.2846   25.0264 C   0  0  0  0  0  0  0  0  0  0  0  0
    6.0808    4.8600   23.7319 C   0  0  0  0  0  0  0  0  0  0  0  0
    6.0893    5.9160   22.7622 O   0  0  0  0  0  0  0  0  0  0  0  0
    5.1768    6.1501   22.5311 H   0  0  0  0  0  0  0  0  0  0  0  0
    2.8024   12.4547   23.6835 C   0  0  0  0  0  0  0  0  0  0  0  0
    3.9317   13.2621   24.3308 C   0  0  0  0  0  0  0  0  0  0  0  0
    3.6222   14.4475   25.0198 C   0  0  0  0  0  0  0  0  0  0  0  0
    4.5849   15.2477   25.6551 C   0  0  0  0  0  0  0  0  0  0  0  0
    5.9055   14.8184   25.5908 C   0  0  0  0  0  0  0  0  0  0  0  0
    6.2477   13.5932   24.8890 C   0  0  0  0  0  0  0  0  0  0  0  0
    5.2696   12.8177   24.2657 C   0  0  0  0  0  0  0  0  0  0  0  0
    7.0510   15.3716   26.0928 O   0  0  0  0  0  0  0  0  0  0  0  0
    8.1741   14.5712   25.6525 C   0  0  0  0  0  0  0  0  0  0  0  0
    7.6072   13.4187   24.9858 O   0  0  0  0  0  0  0  0  0  0  0  0
  1  2  1  0  0  0
  2  3  2  0  0  0
  2  7  1  0  0  0
  3  4  1  0  0  0
  4  5  2  0  0  0
  4 15  1  0  0  0
  5  6  1  0  0  0
  5  8  1  0  0  0
  6 18  1  0  0  0
  6  7  2  0  0  0
 18 20  1  0  0  0
 20 21  1  0  0  0
 21 22  1  0  0  0
  8  9  2  0  0  0
  8 13  1  0  0  0
  9 10  1  0  0  0
 10 11  2  0  0  0
 10 12  1  0  0  0
 12 13  1  0  0  0
 13 14  1  0  0  0
 14 15  2  0  0  0
 14 24  1  0  0  0
 24 25  1  0  0  0
 25 26  1  0  0  0
 25 30  2  0  0  0
 26 27  2  0  0  0
 27 28  1  0  0  0
 28 29  2  0  0  0
 28 31  1  0  0  0
 29 30  1  0  0  0
 29 33  1  0  0  0
 31 32  1  0  0  0
 32 33  1  0  0  0
 18 19  1  0  0  0
 22 23  1  0  0  0
 11 16  1  0  0  0
 12 17  1  0  0  0
M  END
> <minimizedAffinity>
-8.99876

$$$$
4CWT_IK9_A_1225


 33 37  0  0  0  0  0  0  0  0999 V2000
    9.3865   11.9053   23.8569 F   0  0  0  0  0  0  0  0  0  0  0  0
    8.0369   11.8441   23.8789 C   0  0  0  0  0  0  0  0  0  0  0  0
    7.3637   10.6900   23.4912 C   0  0  0  0  0  0  0  0  0  0  0  0
    5.9662   10.6820   23.5124 C   0  0  0  0  0  0  0  0  0  0  0  0
    5.2382   11.8066   23.9177 C   0  0  0  0  0  0  0  0  0  0  0  0
    5.9170   12.9682   24.3123 C   0  0  0  0  0  0  0  0  0  0  0  0
    7.3126   12.9591   24.2942 C   0  0  0  0  0  0  0  0  0  0  0  0
    3.8434   11.6892   23.9039 C   0  0  0  0  0  0  0  0  0  0  0  0
    2.8740   12.5833   24.2348 N   0  0  0  0  0  0  0  0  0  0  0  0
    1.7041   11.9015   24.0258 C   0  0  0  0  0  0  0  0  0  0  0  0
    0.4693   12.4583   24.2458 N   0  0  0  0  0  0  0  0  0  0  0  0
    1.8345   10.6383   23.5721 N   0  0  0  0  0  0  0  0  0  0  0  0
    3.2324   10.5749   23.5099 N   0  0  0  0  0  0  0  0  0  0  0  0
    3.9475    9.4970   23.1457 C   0  0  0  0  0  0  0  0  0  0  0  0
    5.3047    9.5634   23.1228 N   0  0  0  0  0  0  0  0  0  0  0  0
    0.3981   13.3826   24.5773 H   0  0  0  0  0  0  0  0  0  0  0  0
    1.1524    9.9636   23.3511 H   0  0  0  0  0  0  0  0  0  0  0  0
    5.2403   14.0858   24.7171 N   0  0  0  0  0  0  0  0  0  0  0  0
    4.3677   14.2879   24.3085 H   0  0  0  0  0  0  0  0  0  0  0  0
    5.7726   14.9946   25.7415 C   0  0  0  0  0  0  0  0  0  0  0  0
    4.6606   16.0322   25.9618 C   0  0  0  0  0  0  0  0  0  0  0  0
    3.4252   15.6189   25.3631 O   0  0  0  0  0  0  0  0  0  0  0  0
    3.5470   15.5199   24.4058 H   0  0  0  0  0  0  0  0  0  0  0  0
    3.2673    8.2428   22.6576 C   0  0  0  0  0  0  0  0  0  0  0  0
    3.7999    7.1820   23.6257 C   0  0  0  0  0  0  0  0  0  0  0  0
    4.5623    6.1133   23.1235 C   0  0  0  0  0  0  0  0  0  0  0  0
    5.1032    5.1009   23.9319 C   0  0  0  0  0  0  0  0  0  0  0  0
    4.8635    5.1880   25.2984 C   0  0  0  0  0  0  0  0  0  0  0  0
    4.0831    6.2871   25.8402 C   0  0  0  0  0  0  0  0  0  0  0  0
    3.5569    7.2794   25.0126 C   0  0  0  0  0  0  0  0  0  0  0  0
    5.2413    4.3689   26.3264 O   0  0  0  0  0  0  0  0  0  0  0  0
    4.6398    4.8632   27.5470 C   0  0  0  0  0  0  0  0  0  0  0  0
    4.0075    6.1182   27.2018 O   0  0  0  0  0  0  0  0  0  0  0  0
  1  2  1  0  0  0
  2  3  2  0  0  0
  2  7  1  0  0  0
  3  4  1  0  0  0
  4  5  2  0  0  0
  4 15  1  0  0  0
  5  6  1  0  0  0
  5  8  1  0  0  0
  6 18  1  0  0  0
  6  7  2  0  0  0
 18 20  1  0  0  0
 20 21  1  0  0  0
 21 22  1  0  0  0
  8  9  2  0  0  0
  8 13  1  0  0  0
  9 10  1  0  0  0
 10 11  2  0  0  0
 10 12  1  0  0  0
 12 13  1  0  0  0
 13 14  1  0  0  0
 14 15  2  0  0  0
 14 24  1  0  0  0
 24 25  1  0  0  0
 25 26  1  0  0  0
 25 30  2  0  0  0
 26 27  2  0  0  0
 27 28  1  0  0  0
 28 29  2  0  0  0
 28 31  1  0  0  0
 29 30  1  0  0  0
 29 33  1  0  0  0
 31 32  1  0  0  0
 32 33  1  0  0  0
 18 19  1  0  0  0
 22 23  1  0  0  0
 11 16  1  0  0  0
 12 17  1  0  0  0
M  END
> <minimizedAffinity>
-8.90294

$$$$
