2QG2_A91_A_300


 27 29  0  0  0  0  0  0  0  0999 V2000
    5.1303   32.2133   24.6576 C   0  0  0  0  0  0  0  0  0  0  0  0
    3.8719   31.4814   24.4755 C   0  0  0  0  0  0  0  0  0  0  0  0
    3.8682   30.1476   23.9401 C   0  0  0  0  0  0  0  0  0  0  0  0
    5.1092   29.5291   23.5814 C   0  0  0  0  0  0  0  0  0  0  0  0
    6.3566   30.2349   23.7517 C   0  0  0  0  0  0  0  0  0  0  0  0
    6.3670   31.5696   24.2875 C   0  0  0  0  0  0  0  0  0  0  0  0
    2.5984   32.0600   24.8216 C   0  0  0  0  0  0  0  0  0  0  0  0
    1.5472   32.4963   25.1210 C   0  0  0  0  0  0  0  0  0  0  0  0
    0.2518   32.9741   25.4161 C   0  0  0  0  0  0  0  0  0  0  0  0
   -0.3392   33.7542   24.4092 C   0  0  0  0  0  0  0  0  0  0  0  0
   -1.6273   34.2376   24.7032 C   0  0  0  0  0  0  0  0  0  0  0  0
   -2.2879   33.9833   25.8836 N   0  0  0  0  0  0  0  0  0  0  0  0
   -1.6165   33.2116   26.7954 C   0  0  0  0  0  0  0  0  0  0  0  0
   -0.3732   32.6920   26.6140 N   0  0  0  0  0  0  0  0  0  0  0  0
   -2.3348   35.0783   23.6905 C   0  0  0  0  0  0  0  0  0  0  0  0
   -2.2134   32.9509   27.9344 N   0  0  0  0  0  0  0  0  0  0  0  0
   -3.1146   33.3060   28.1105 H   0  0  0  0  0  0  0  0  0  0  0  0
   -1.7600   32.4003   28.6130 H   0  0  0  0  0  0  0  0  0  0  0  0
    5.1649   33.5708   25.2111 C   0  0  0  0  0  0  0  0  0  0  0  0
    6.2585   34.1343   25.6199 N   0  0  0  0  0  0  0  0  0  0  0  0
    7.0113   33.5965   25.9565 H   0  0  0  0  0  0  0  0  0  0  0  0
    6.0325   37.7931   25.4992 C   0  0  0  0  0  0  0  0  0  0  0  0
    5.3065   36.4733   25.2282 C   0  0  0  0  0  0  0  0  0  0  0  0
    6.3345   35.5019   25.5692 N   0  0  0  0  0  0  0  0  0  0  0  0
    7.5209   36.0764   25.9075 C   0  0  0  0  0  0  0  0  0  0  0  0
    7.3571   37.4005   25.9991 O   0  0  0  0  0  0  0  0  0  0  0  0
    8.5700   35.5171   26.1106 O   0  0  0  0  0  0  0  0  0  0  0  0
 22 26  1  0  0  0
 22 23  2  0  0  0
 23 24  1  0  0  0
 24 25  1  0  0  0
 24 20  1  0  0  0
 25 26  1  0  0  0
 25 27  2  0  0  0
 20 19  1  0  0  0
 19  1  1  0  0  0
  1  2  2  0  0  0
  1  6  1  0  0  0
  2  7  1  0  0  0
  2  3  1  0  0  0
  3  4  2  0  0  0
  4  5  1  0  0  0
  5  6  2  0  0  0
  7  8  3  0  0  0
  8  9  1  0  0  0
  9 10  1  0  0  0
  9 14  2  0  0  0
 10 11  2  0  0  0
 11 15  1  0  0  0
 11 12  1  0  0  0
 12 13  2  0  0  0
 13 14  1  0  0  0
 13 16  1  0  0  0
 20 21  1  0  0  0
 16 17  1  0  0  0
 16 18  1  0  0  0
M  END
> <minimizedAffinity>
-10.60599

$$$$
2QG2_A91_A_300


 27 29  0  0  0  0  0  0  0  0999 V2000
    5.4998   33.7773   25.3462 C   0  0  0  0  0  0  0  0  0  0  0  0
    4.5768   32.7132   24.9364 C   0  0  0  0  0  0  0  0  0  0  0  0
    5.0742   31.4626   24.4320 C   0  0  0  0  0  0  0  0  0  0  0  0
    6.4879   31.2566   24.3299 C   0  0  0  0  0  0  0  0  0  0  0  0
    7.4106   32.2931   24.7265 C   0  0  0  0  0  0  0  0  0  0  0  0
    6.9191   33.5465   25.2325 C   0  0  0  0  0  0  0  0  0  0  0  0
    3.1471   32.8720   25.0206 C   0  0  0  0  0  0  0  0  0  0  0  0
    1.9847   33.0429   25.0901 C   0  0  0  0  0  0  0  0  0  0  0  0
    0.6009   33.2683   25.2559 C   0  0  0  0  0  0  0  0  0  0  0  0
    0.0681   32.8293   26.4786 C   0  0  0  0  0  0  0  0  0  0  0  0
   -1.3121   33.0463   26.6441 C   0  0  0  0  0  0  0  0  0  0  0  0
   -2.1110   33.6424   25.6950 N   0  0  0  0  0  0  0  0  0  0  0  0
   -1.4859   34.0308   24.5393 C   0  0  0  0  0  0  0  0  0  0  0  0
   -0.1613   33.8721   24.2764 N   0  0  0  0  0  0  0  0  0  0  0  0
   -1.9674   32.6106   27.9144 C   0  0  0  0  0  0  0  0  0  0  0  0
   -2.2163   34.5996   23.6094 N   0  0  0  0  0  0  0  0  0  0  0  0
   -3.1804   34.7354   23.7552 H   0  0  0  0  0  0  0  0  0  0  0  0
   -1.8002   34.8904   22.7659 H   0  0  0  0  0  0  0  0  0  0  0  0
    5.0207   35.0589   25.8739 C   0  0  0  0  0  0  0  0  0  0  0  0
    5.7139   35.7823   26.6966 N   0  0  0  0  0  0  0  0  0  0  0  0
    6.5266   35.4270   27.1238 H   0  0  0  0  0  0  0  0  0  0  0  0
    4.5303   39.2440   26.9578 C   0  0  0  0  0  0  0  0  0  0  0  0
    5.2321   38.2127   26.0710 C   0  0  0  0  0  0  0  0  0  0  0  0
    5.2805   37.0570   26.9533 N   0  0  0  0  0  0  0  0  0  0  0  0
    4.7898   37.3134   28.1965 C   0  0  0  0  0  0  0  0  0  0  0  0
    4.2330   38.5293   28.2065 O   0  0  0  0  0  0  0  0  0  0  0  0
    4.8223   36.5853   29.1575 O   0  0  0  0  0  0  0  0  0  0  0  0
 22 26  1  0  0  0
 22 23  2  0  0  0
 23 24  1  0  0  0
 24 25  1  0  0  0
 24 20  1  0  0  0
 25 26  1  0  0  0
 25 27  2  0  0  0
 20 19  1  0  0  0
 19  1  1  0  0  0
  1  2  2  0  0  0
  1  6  1  0  0  0
  2  7  1  0  0  0
  2  3  1  0  0  0
  3  4  2  0  0  0
  4  5  1  0  0  0
  5  6  2  0  0  0
  7  8  3  0  0  0
  8  9  1  0  0  0
  9 10  1  0  0  0
  9 14  2  0  0  0
 10 11  2  0  0  0
 11 15  1  0  0  0
 11 12  1  0  0  0
 12 13  2  0  0  0
 13 14  1  0  0  0
 13 16  1  0  0  0
 20 21  1  0  0  0
 16 17  1  0  0  0
 16 18  1  0  0  0
M  END
> <minimizedAffinity>
-10.48029

$$$$
2QG2_A91_A_300


 27 29  0  0  0  0  0  0  0  0999 V2000
    5.2518   32.4317   24.8167 C   0  0  0  0  0  0  0  0  0  0  0  0
    4.0579   31.6267   24.5362 C   0  0  0  0  0  0  0  0  0  0  0  0
    4.1717   30.3323   23.9220 C   0  0  0  0  0  0  0  0  0  0  0  0
    5.4674   29.8257   23.5815 C   0  0  0  0  0  0  0  0  0  0  0  0
    6.6528   30.6048   23.8483 C   0  0  0  0  0  0  0  0  0  0  0  0
    6.5454   31.9006   24.4631 C   0  0  0  0  0  0  0  0  0  0  0  0
    2.7332   32.0921   24.8604 C   0  0  0  0  0  0  0  0  0  0  0  0
    1.6386   32.4598   25.0876 C   0  0  0  0  0  0  0  0  0  0  0  0
    0.3397   32.9674   25.3080 C   0  0  0  0  0  0  0  0  0  0  0  0
   -0.2005   33.7048   24.2422 C   0  0  0  0  0  0  0  0  0  0  0  0
   -1.4922   34.2178   24.4614 C   0  0  0  0  0  0  0  0  0  0  0  0
   -2.2018   34.0292   25.6256 N   0  0  0  0  0  0  0  0  0  0  0  0
   -1.5774   33.2945   26.5992 C   0  0  0  0  0  0  0  0  0  0  0  0
   -0.3355   32.7515   26.4923 N   0  0  0  0  0  0  0  0  0  0  0  0
   -2.1476   35.0170   23.3823 C   0  0  0  0  0  0  0  0  0  0  0  0
   -2.2218   33.0969   27.7249 N   0  0  0  0  0  0  0  0  0  0  0  0
   -3.1241   33.4711   27.8479 H   0  0  0  0  0  0  0  0  0  0  0  0
   -1.8031   32.5743   28.4466 H   0  0  0  0  0  0  0  0  0  0  0  0
    5.1663   33.7508   25.4517 C   0  0  0  0  0  0  0  0  0  0  0  0
    4.6785   34.7896   24.8487 N   0  0  0  0  0  0  0  0  0  0  0  0
    4.3576   34.7329   23.9197 H   0  0  0  0  0  0  0  0  0  0  0  0
    4.9307   38.0177   26.5717 C   0  0  0  0  0  0  0  0  0  0  0  0
    5.7058   36.8395   25.9770 C   0  0  0  0  0  0  0  0  0  0  0  0
    4.6232   35.9693   25.5444 N   0  0  0  0  0  0  0  0  0  0  0  0
    3.3914   36.4453   25.8737 C   0  0  0  0  0  0  0  0  0  0  0  0
    3.5154   37.6848   26.3600 O   0  0  0  0  0  0  0  0  0  0  0  0
    2.3343   35.8774   25.7528 O   0  0  0  0  0  0  0  0  0  0  0  0
 22 26  1  0  0  0
 22 23  2  0  0  0
 23 24  1  0  0  0
 24 25  1  0  0  0
 24 20  1  0  0  0
 25 26  1  0  0  0
 25 27  2  0  0  0
 20 19  1  0  0  0
 19  1  1  0  0  0
  1  2  2  0  0  0
  1  6  1  0  0  0
  2  7  1  0  0  0
  2  3  1  0  0  0
  3  4  2  0  0  0
  4  5  1  0  0  0
  5  6  2  0  0  0
  7  8  3  0  0  0
  8  9  1  0  0  0
  9 10  1  0  0  0
  9 14  2  0  0  0
 10 11  2  0  0  0
 11 15  1  0  0  0
 11 12  1  0  0  0
 12 13  2  0  0  0
 13 14  1  0  0  0
 13 16  1  0  0  0
 20 21  1  0  0  0
 16 17  1  0  0  0
 16 18  1  0  0  0
M  END
> <minimizedAffinity>
-10.45585

$$$$
2QG2_A91_A_300


 27 29  0  0  0  0  0  0  0  0999 V2000
    3.3224   31.5465   24.6602 C   0  0  0  0  0  0  0  0  0  0  0  0
    4.5582   32.3359   24.7046 C   0  0  0  0  0  0  0  0  0  0  0  0
    5.7945   31.7942   24.2111 C   0  0  0  0  0  0  0  0  0  0  0  0
    5.8165   30.4682   23.6702 C   0  0  0  0  0  0  0  0  0  0  0  0
    4.6108   29.6764   23.6205 C   0  0  0  0  0  0  0  0  0  0  0  0
    3.3703   30.2131   24.1123 C   0  0  0  0  0  0  0  0  0  0  0  0
    4.5874   33.6741   25.2384 C   0  0  0  0  0  0  0  0  0  0  0  0
    4.5988   34.7812   25.6374 C   0  0  0  0  0  0  0  0  0  0  0  0
    4.6843   36.1221   26.0710 C   0  0  0  0  0  0  0  0  0  0  0  0
    5.0423   37.0477   25.0777 C   0  0  0  0  0  0  0  0  0  0  0  0
    5.1350   38.3839   25.5082 C   0  0  0  0  0  0  0  0  0  0  0  0
    4.8992   38.7878   26.8027 N   0  0  0  0  0  0  0  0  0  0  0  0
    4.5576   37.8001   27.6889 C   0  0  0  0  0  0  0  0  0  0  0  0
    4.4371   36.4814   27.3805 N   0  0  0  0  0  0  0  0  0  0  0  0
    5.5114   39.4396   24.5199 C   0  0  0  0  0  0  0  0  0  0  0  0
    4.3288   38.1467   28.9336 N   0  0  0  0  0  0  0  0  0  0  0  0
    4.4041   39.0904   29.2035 H   0  0  0  0  0  0  0  0  0  0  0  0
    4.0819   37.4629   29.5975 H   0  0  0  0  0  0  0  0  0  0  0  0
    2.0451   32.0774   25.1470 C   0  0  0  0  0  0  0  0  0  0  0  0
    1.3765   32.9891   24.5126 N   0  0  0  0  0  0  0  0  0  0  0  0
    1.7680   33.4623   23.7432 H   0  0  0  0  0  0  0  0  0  0  0  0
   -1.8657   33.7047   26.0709 C   0  0  0  0  0  0  0  0  0  0  0  0
   -0.5029   33.0300   26.2437 C   0  0  0  0  0  0  0  0  0  0  0  0
    0.1077   33.2739   24.9460 N   0  0  0  0  0  0  0  0  0  0  0  0
   -0.7260   33.9026   24.0732 C   0  0  0  0  0  0  0  0  0  0  0  0
   -1.8344   34.2800   24.7194 O   0  0  0  0  0  0  0  0  0  0  0  0
   -0.5303   34.1143   22.9021 O   0  0  0  0  0  0  0  0  0  0  0  0
 22 26  1  0  0  0
 22 23  2  0  0  0
 23 24  1  0  0  0
 24 25  1  0  0  0
 24 20  1  0  0  0
 25 26  1  0  0  0
 25 27  2  0  0  0
 20 19  1  0  0  0
 19  1  1  0  0  0
  1  2  2  0  0  0
  1  6  1  0  0  0
  2  7  1  0  0  0
  2  3  1  0  0  0
  3  4  2  0  0  0
  4  5  1  0  0  0
  5  6  2  0  0  0
  7  8  3  0  0  0
  8  9  1  0  0  0
  9 10  1  0  0  0
  9 14  2  0  0  0
 10 11  2  0  0  0
 11 15  1  0  0  0
 11 12  1  0  0  0
 12 13  2  0  0  0
 13 14  1  0  0  0
 13 16  1  0  0  0
 20 21  1  0  0  0
 16 17  1  0  0  0
 16 18  1  0  0  0
M  END
> <minimizedAffinity>
-9.82163

$$$$
2QG2_A91_A_300


 27 29  0  0  0  0  0  0  0  0999 V2000
    0.2099   34.5518   24.4510 C   0  0  0  0  0  0  0  0  0  0  0  0
    0.9652   33.6333   25.3102 C   0  0  0  0  0  0  0  0  0  0  0  0
    0.3029   32.8719   26.3335 C   0  0  0  0  0  0  0  0  0  0  0  0
   -1.1109   33.0139   26.5135 C   0  0  0  0  0  0  0  0  0  0  0  0
   -1.8696   33.9143   25.6788 C   0  0  0  0  0  0  0  0  0  0  0  0
   -1.2127   34.6786   24.6526 C   0  0  0  0  0  0  0  0  0  0  0  0
    2.3881   33.4553   25.1680 C   0  0  0  0  0  0  0  0  0  0  0  0
    3.5498   33.2857   25.0857 C   0  0  0  0  0  0  0  0  0  0  0  0
    4.9532   33.1353   25.0535 C   0  0  0  0  0  0  0  0  0  0  0  0
    5.4087   31.8966   24.5741 C   0  0  0  0  0  0  0  0  0  0  0  0
    6.8068   31.7410   24.5473 C   0  0  0  0  0  0  0  0  0  0  0  0
    7.6917   32.7130   24.9553 N   0  0  0  0  0  0  0  0  0  0  0  0
    7.1367   33.8821   25.4055 C   0  0  0  0  0  0  0  0  0  0  0  0
    5.8032   34.1391   25.4716 N   0  0  0  0  0  0  0  0  0  0  0  0
    7.3838   30.4543   24.0530 C   0  0  0  0  0  0  0  0  0  0  0  0
    7.9493   34.8311   25.8066 N   0  0  0  0  0  0  0  0  0  0  0  0
    8.9232   34.6902   25.7771 H   0  0  0  0  0  0  0  0  0  0  0  0
    7.5851   35.6839   26.1371 H   0  0  0  0  0  0  0  0  0  0  0  0
    0.8576   35.3331   23.3925 C   0  0  0  0  0  0  0  0  0  0  0  0
    1.4688   36.4533   23.6211 N   0  0  0  0  0  0  0  0  0  0  0  0
    2.3694   36.4680   24.0185 H   0  0  0  0  0  0  0  0  0  0  0  0
   -0.3332   39.3876   22.3581 C   0  0  0  0  0  0  0  0  0  0  0  0
    0.4694   38.1398   21.9819 C   0  0  0  0  0  0  0  0  0  0  0  0
    0.8226   37.6166   23.2926 N   0  0  0  0  0  0  0  0  0  0  0  0
    0.4094   38.4140   24.3150 C   0  0  0  0  0  0  0  0  0  0  0  0
   -0.3689   39.3858   23.8268 O   0  0  0  0  0  0  0  0  0  0  0  0
    0.6716   38.2925   25.4860 O   0  0  0  0  0  0  0  0  0  0  0  0
 22 26  1  0  0  0
 22 23  2  0  0  0
 23 24  1  0  0  0
 24 25  1  0  0  0
 24 20  1  0  0  0
 25 26  1  0  0  0
 25 27  2  0  0  0
 20 19  1  0  0  0
 19  1  1  0  0  0
  1  2  2  0  0  0
  1  6  1  0  0  0
  2  7  1  0  0  0
  2  3  1  0  0  0
  3  4  2  0  0  0
  4  5  1  0  0  0
  5  6  2  0  0  0
  7  8  3  0  0  0
  8  9  1  0  0  0
  9 10  1  0  0  0
  9 14  2  0  0  0
 10 11  2  0  0  0
 11 15  1  0  0  0
 11 12  1  0  0  0
 12 13  2  0  0  0
 13 14  1  0  0  0
 13 16  1  0  0  0
 20 21  1  0  0  0
 16 17  1  0  0  0
 16 18  1  0  0  0
M  END
> <minimizedAffinity>
-9.43681

$$$$
2QG2_A91_A_300


 27 29  0  0  0  0  0  0  0  0999 V2000
    2.1837   36.3282   25.1704 C   0  0  0  0  0  0  0  0  0  0  0  0
    3.5797   36.1681   25.5922 C   0  0  0  0  0  0  0  0  0  0  0  0
    4.2700   37.2323   26.2679 C   0  0  0  0  0  0  0  0  0  0  0  0
    3.5838   38.4616   26.5311 C   0  0  0  0  0  0  0  0  0  0  0  0
    2.2111   38.6375   26.1216 C   0  0  0  0  0  0  0  0  0  0  0  0
    1.5146   37.5761   25.4454 C   0  0  0  0  0  0  0  0  0  0  0  0
    4.3125   34.9511   25.3509 C   0  0  0  0  0  0  0  0  0  0  0  0
    4.9068   33.9635   25.1132 C   0  0  0  0  0  0  0  0  0  0  0  0
    5.5453   32.7422   24.8062 C   0  0  0  0  0  0  0  0  0  0  0  0
    4.6993   31.7344   24.3161 C   0  0  0  0  0  0  0  0  0  0  0  0
    5.3316   30.5139   24.0158 C   0  0  0  0  0  0  0  0  0  0  0  0
    6.6798   30.2910   24.1803 N   0  0  0  0  0  0  0  0  0  0  0  0
    7.4095   31.3442   24.6660 C   0  0  0  0  0  0  0  0  0  0  0  0
    6.9022   32.5645   24.9858 N   0  0  0  0  0  0  0  0  0  0  0  0
    4.5102   29.3822   23.4892 C   0  0  0  0  0  0  0  0  0  0  0  0
    8.6981   31.1679   24.8396 N   0  0  0  0  0  0  0  0  0  0  0  0
    9.1100   30.3007   24.6217 H   0  0  0  0  0  0  0  0  0  0  0  0
    9.2529   31.9029   25.1878 H   0  0  0  0  0  0  0  0  0  0  0  0
    1.4516   35.2560   24.4887 C   0  0  0  0  0  0  0  0  0  0  0  0
    0.1574   35.2227   24.4211 N   0  0  0  0  0  0  0  0  0  0  0  0
   -0.3309   35.7747   23.7683 H   0  0  0  0  0  0  0  0  0  0  0  0
   -1.2562   32.9688   26.9458 C   0  0  0  0  0  0  0  0  0  0  0  0
    0.0195   33.4299   26.2369 C   0  0  0  0  0  0  0  0  0  0  0  0
   -0.5102   34.3955   25.2863 N   0  0  0  0  0  0  0  0  0  0  0  0
   -1.8683   34.4788   25.3104 C   0  0  0  0  0  0  0  0  0  0  0  0
   -2.3339   33.7617   26.3388 O   0  0  0  0  0  0  0  0  0  0  0  0
   -2.5744   35.0963   24.5523 O   0  0  0  0  0  0  0  0  0  0  0  0
 22 26  1  0  0  0
 22 23  2  0  0  0
 23 24  1  0  0  0
 24 25  1  0  0  0
 24 20  1  0  0  0
 25 26  1  0  0  0
 25 27  2  0  0  0
 20 19  1  0  0  0
 19  1  1  0  0  0
  1  2  2  0  0  0
  1  6  1  0  0  0
  2  7  1  0  0  0
  2  3  1  0  0  0
  3  4  2  0  0  0
  4  5  1  0  0  0
  5  6  2  0  0  0
  7  8  3  0  0  0
  8  9  1  0  0  0
  9 10  1  0  0  0
  9 14  2  0  0  0
 10 11  2  0  0  0
 11 15  1  0  0  0
 11 12  1  0  0  0
 12 13  2  0  0  0
 13 14  1  0  0  0
 13 16  1  0  0  0
 20 21  1  0  0  0
 16 17  1  0  0  0
 16 18  1  0  0  0
M  END
> <minimizedAffinity>
-9.40046

$$$$
2QG2_A91_A_300


 27 29  0  0  0  0  0  0  0  0999 V2000
    0.4903   35.0484   24.7825 C   0  0  0  0  0  0  0  0  0  0  0  0
    1.1517   33.8553   25.3223 C   0  0  0  0  0  0  0  0  0  0  0  0
    0.3831   32.7860   25.8981 C   0  0  0  0  0  0  0  0  0  0  0  0
   -1.0446   32.8898   25.9434 C   0  0  0  0  0  0  0  0  0  0  0  0
   -1.7121   34.0571   25.4190 C   0  0  0  0  0  0  0  0  0  0  0  0
   -0.9486   35.1303   24.8411 C   0  0  0  0  0  0  0  0  0  0  0  0
    2.5845   33.7038   25.2994 C   0  0  0  0  0  0  0  0  0  0  0  0
    3.7539   33.5860   25.2397 C   0  0  0  0  0  0  0  0  0  0  0  0
    5.1447   33.3671   25.1335 C   0  0  0  0  0  0  0  0  0  0  0  0
    5.5155   32.0717   24.7385 C   0  0  0  0  0  0  0  0  0  0  0  0
    6.9010   31.8486   24.6385 C   0  0  0  0  0  0  0  0  0  0  0  0
    7.8507   32.8091   24.9027 N   0  0  0  0  0  0  0  0  0  0  0  0
    7.3759   34.0374   25.2811 C   0  0  0  0  0  0  0  0  0  0  0  0
    6.0615   34.3619   25.4071 N   0  0  0  0  0  0  0  0  0  0  0  0
    7.3899   30.4983   24.2253 C   0  0  0  0  0  0  0  0  0  0  0  0
    8.2521   34.9778   25.5450 N   0  0  0  0  0  0  0  0  0  0  0  0
    9.2152   34.7891   25.4674 H   0  0  0  0  0  0  0  0  0  0  0  0
    7.9464   35.8722   25.8206 H   0  0  0  0  0  0  0  0  0  0  0  0
    1.2483   36.1498   24.1802 C   0  0  0  0  0  0  0  0  0  0  0  0
    1.8131   37.0805   24.8840 N   0  0  0  0  0  0  0  0  0  0  0  0
    1.3076   37.5770   25.5675 H   0  0  0  0  0  0  0  0  0  0  0  0
    5.2204   38.0123   23.8972 C   0  0  0  0  0  0  0  0  0  0  0  0
    3.7881   37.7691   23.4158 C   0  0  0  0  0  0  0  0  0  0  0  0
    3.1355   37.3520   24.6474 N   0  0  0  0  0  0  0  0  0  0  0  0
    3.9928   37.2561   25.7000 C   0  0  0  0  0  0  0  0  0  0  0  0
    5.1845   37.7459   25.3416 O   0  0  0  0  0  0  0  0  0  0  0  0
    3.7535   36.8167   26.7974 O   0  0  0  0  0  0  0  0  0  0  0  0
 22 26  1  0  0  0
 22 23  2  0  0  0
 23 24  1  0  0  0
 24 25  1  0  0  0
 24 20  1  0  0  0
 25 26  1  0  0  0
 25 27  2  0  0  0
 20 19  1  0  0  0
 19  1  1  0  0  0
  1  2  2  0  0  0
  1  6  1  0  0  0
  2  7  1  0  0  0
  2  3  1  0  0  0
  3  4  2  0  0  0
  4  5  1  0  0  0
  5  6  2  0  0  0
  7  8  3  0  0  0
  8  9  1  0  0  0
  9 10  1  0  0  0
  9 14  2  0  0  0
 10 11  2  0  0  0
 11 15  1  0  0  0
 11 12  1  0  0  0
 12 13  2  0  0  0
 13 14  1  0  0  0
 13 16  1  0  0  0
 20 21  1  0  0  0
 16 17  1  0  0  0
 16 18  1  0  0  0
M  END
> <minimizedAffinity>
-9.17548

$$$$
2QG2_A91_A_300


 27 29  0  0  0  0  0  0  0  0999 V2000
    2.9428   36.8106   25.4278 C   0  0  0  0  0  0  0  0  0  0  0  0
    4.2350   36.3236   25.9229 C   0  0  0  0  0  0  0  0  0  0  0  0
    5.0392   37.1324   26.7974 C   0  0  0  0  0  0  0  0  0  0  0  0
    4.5702   38.4281   27.1881 C   0  0  0  0  0  0  0  0  0  0  0  0
    3.3024   38.9243   26.7091 C   0  0  0  0  0  0  0  0  0  0  0  0
    2.4928   38.1194   25.8341 C   0  0  0  0  0  0  0  0  0  0  0  0
    4.7497   35.0278   25.5592 C   0  0  0  0  0  0  0  0  0  0  0  0
    5.2044   33.9778   25.2837 C   0  0  0  0  0  0  0  0  0  0  0  0
    5.8024   32.7582   24.8984 C   0  0  0  0  0  0  0  0  0  0  0  0
    4.9087   31.7713   24.4525 C   0  0  0  0  0  0  0  0  0  0  0  0
    5.5010   30.5524   24.0744 C   0  0  0  0  0  0  0  0  0  0  0  0
    6.8552   30.3121   24.1268 N   0  0  0  0  0  0  0  0  0  0  0  0
    7.6332   31.3456   24.5786 C   0  0  0  0  0  0  0  0  0  0  0  0
    7.1670   32.5627   24.9663 N   0  0  0  0  0  0  0  0  0  0  0  0
    4.6274   29.4422   23.5872 C   0  0  0  0  0  0  0  0  0  0  0  0
    8.9292   31.1524   24.6460 N   0  0  0  0  0  0  0  0  0  0  0  0
    9.3125   30.2868   24.3757 H   0  0  0  0  0  0  0  0  0  0  0  0
    9.5183   31.8729   24.9668 H   0  0  0  0  0  0  0  0  0  0  0  0
    2.0969   36.0031   24.5431 C   0  0  0  0  0  0  0  0  0  0  0  0
    0.8078   35.9432   24.6670 N   0  0  0  0  0  0  0  0  0  0  0  0
    0.3800   35.9982   25.5520 H   0  0  0  0  0  0  0  0  0  0  0  0
   -0.9768   35.8968   21.4630 C   0  0  0  0  0  0  0  0  0  0  0  0
   -0.1672   36.7463   22.4455 C   0  0  0  0  0  0  0  0  0  0  0  0
    0.0587   35.8009   23.5280 N   0  0  0  0  0  0  0  0  0  0  0  0
   -0.5580   34.6041   23.3292 C   0  0  0  0  0  0  0  0  0  0  0  0
   -1.0665   34.5724   22.0927 O   0  0  0  0  0  0  0  0  0  0  0  0
   -0.6453   33.6903   24.1114 O   0  0  0  0  0  0  0  0  0  0  0  0
 22 26  1  0  0  0
 22 23  2  0  0  0
 23 24  1  0  0  0
 24 25  1  0  0  0
 24 20  1  0  0  0
 25 26  1  0  0  0
 25 27  2  0  0  0
 20 19  1  0  0  0
 19  1  1  0  0  0
  1  2  2  0  0  0
  1  6  1  0  0  0
  2  7  1  0  0  0
  2  3  1  0  0  0
  3  4  2  0  0  0
  4  5  1  0  0  0
  5  6  2  0  0  0
  7  8  3  0  0  0
  8  9  1  0  0  0
  9 10  1  0  0  0
  9 14  2  0  0  0
 10 11  2  0  0  0
 11 15  1  0  0  0
 11 12  1  0  0  0
 12 13  2  0  0  0
 13 14  1  0  0  0
 13 16  1  0  0  0
 20 21  1  0  0  0
 16 17  1  0  0  0
 16 18  1  0  0  0
M  END
> <minimizedAffinity>
-9.02637

$$$$
2QG2_A91_A_300


 27 29  0  0  0  0  0  0  0  0999 V2000
    0.4027   34.8272   24.5301 C   0  0  0  0  0  0  0  0  0  0  0  0
    1.1343   33.9304   25.4315 C   0  0  0  0  0  0  0  0  0  0  0  0
    0.4304   33.0538   26.3270 C   0  0  0  0  0  0  0  0  0  0  0  0
   -1.0018   33.0585   26.3363 C   0  0  0  0  0  0  0  0  0  0  0  0
   -1.7380   33.9357   25.4579 C   0  0  0  0  0  0  0  0  0  0  0  0
   -1.0394   34.8148   24.5592 C   0  0  0  0  0  0  0  0  0  0  0  0
    2.5744   33.8884   25.4590 C   0  0  0  0  0  0  0  0  0  0  0  0
    3.7511   33.8955   25.4786 C   0  0  0  0  0  0  0  0  0  0  0  0
    5.1615   33.9214   25.4181 C   0  0  0  0  0  0  0  0  0  0  0  0
    5.7472   35.1652   25.7032 C   0  0  0  0  0  0  0  0  0  0  0  0
    7.1523   35.1960   25.6371 C   0  0  0  0  0  0  0  0  0  0  0  0
    7.9263   34.1035   25.3179 N   0  0  0  0  0  0  0  0  0  0  0  0
    7.2492   32.9411   25.0575 C   0  0  0  0  0  0  0  0  0  0  0  0
    5.8974   32.7993   25.0951 N   0  0  0  0  0  0  0  0  0  0  0  0
    7.8637   36.4783   25.9242 C   0  0  0  0  0  0  0  0  0  0  0  0
    7.9536   31.8789   24.7458 N   0  0  0  0  0  0  0  0  0  0  0  0
    8.9357   31.9338   24.7061 H   0  0  0  0  0  0  0  0  0  0  0  0
    7.4999   31.0270   24.5517 H   0  0  0  0  0  0  0  0  0  0  0  0
    1.0944   35.7245   23.5991 C   0  0  0  0  0  0  0  0  0  0  0  0
    1.2699   36.9861   23.8400 N   0  0  0  0  0  0  0  0  0  0  0  0
    1.5828   37.2959   24.7205 H   0  0  0  0  0  0  0  0  0  0  0  0
    0.7489   39.0822   20.8756 C   0  0  0  0  0  0  0  0  0  0  0  0
    1.5794   37.9563   21.4961 C   0  0  0  0  0  0  0  0  0  0  0  0
    1.0065   37.8757   22.8310 N   0  0  0  0  0  0  0  0  0  0  0  0
    0.0552   38.8211   23.0618 C   0  0  0  0  0  0  0  0  0  0  0  0
   -0.2128   39.4622   21.9192 O   0  0  0  0  0  0  0  0  0  0  0  0
   -0.4900   39.0660   24.1094 O   0  0  0  0  0  0  0  0  0  0  0  0
 22 26  1  0  0  0
 22 23  2  0  0  0
 23 24  1  0  0  0
 24 25  1  0  0  0
 24 20  1  0  0  0
 25 26  1  0  0  0
 25 27  2  0  0  0
 20 19  1  0  0  0
 19  1  1  0  0  0
  1  2  2  0  0  0
  1  6  1  0  0  0
  2  7  1  0  0  0
  2  3  1  0  0  0
  3  4  2  0  0  0
  4  5  1  0  0  0
  5  6  2  0  0  0
  7  8  3  0  0  0
  8  9  1  0  0  0
  9 10  1  0  0  0
  9 14  2  0  0  0
 10 11  2  0  0  0
 11 15  1  0  0  0
 11 12  1  0  0  0
 12 13  2  0  0  0
 13 14  1  0  0  0
 13 16  1  0  0  0
 20 21  1  0  0  0
 16 17  1  0  0  0
 16 18  1  0  0  0
M  END
> <minimizedAffinity>
-8.91194

$$$$
2QG2_A91_A_300


 27 29  0  0  0  0  0  0  0  0999 V2000
    0.9691   36.4863   23.3413 C   0  0  0  0  0  0  0  0  0  0  0  0
    2.1603   37.3405   23.4029 C   0  0  0  0  0  0  0  0  0  0  0  0
    2.1607   38.6457   22.8011 C   0  0  0  0  0  0  0  0  0  0  0  0
    0.9828   39.1144   22.1347 C   0  0  0  0  0  0  0  0  0  0  0  0
   -0.1975   38.2868   22.0625 C   0  0  0  0  0  0  0  0  0  0  0  0
   -0.2043   36.9800   22.6632 C   0  0  0  0  0  0  0  0  0  0  0  0
    3.3687   36.9144   24.0620 C   0  0  0  0  0  0  0  0  0  0  0  0
    4.3585   36.5349   24.5734 C   0  0  0  0  0  0  0  0  0  0  0  0
    5.5005   36.0157   25.2211 C   0  0  0  0  0  0  0  0  0  0  0  0
    5.7045   34.6365   25.0544 C   0  0  0  0  0  0  0  0  0  0  0  0
    6.8380   34.1148   25.7045 C   0  0  0  0  0  0  0  0  0  0  0  0
    7.7039   34.8743   26.4579 N   0  0  0  0  0  0  0  0  0  0  0  0
    7.4076   36.2087   26.5535 C   0  0  0  0  0  0  0  0  0  0  0  0
    6.3427   36.8165   25.9658 N   0  0  0  0  0  0  0  0  0  0  0  0
    7.1352   32.6553   25.5841 C   0  0  0  0  0  0  0  0  0  0  0  0
    8.2088   36.9642   27.2669 N   0  0  0  0  0  0  0  0  0  0  0  0
    8.9929   36.5681   27.7112 H   0  0  0  0  0  0  0  0  0  0  0  0
    8.0257   37.9273   27.3579 H   0  0  0  0  0  0  0  0  0  0  0  0
    0.9369   35.1549   23.9551 C   0  0  0  0  0  0  0  0  0  0  0  0
   -0.0511   34.3312   23.7934 N   0  0  0  0  0  0  0  0  0  0  0  0
   -0.3289   34.0425   22.8941 H   0  0  0  0  0  0  0  0  0  0  0  0
   -1.3930   32.9860   26.9306 C   0  0  0  0  0  0  0  0  0  0  0  0
   -0.2416   32.9326   25.9236 C   0  0  0  0  0  0  0  0  0  0  0  0
   -0.6969   33.8747   24.9128 N   0  0  0  0  0  0  0  0  0  0  0  0
   -1.9376   34.3727   25.1672 C   0  0  0  0  0  0  0  0  0  0  0  0
   -2.3269   33.9803   26.3849 O   0  0  0  0  0  0  0  0  0  0  0  0
   -2.6069   35.0672   24.4430 O   0  0  0  0  0  0  0  0  0  0  0  0
 22 26  1  0  0  0
 22 23  2  0  0  0
 23 24  1  0  0  0
 24 25  1  0  0  0
 24 20  1  0  0  0
 25 26  1  0  0  0
 25 27  2  0  0  0
 20 19  1  0  0  0
 19  1  1  0  0  0
  1  2  2  0  0  0
  1  6  1  0  0  0
  2  7  1  0  0  0
  2  3  1  0  0  0
  3  4  2  0  0  0
  4  5  1  0  0  0
  5  6  2  0  0  0
  7  8  3  0  0  0
  8  9  1  0  0  0
  9 10  1  0  0  0
  9 14  2  0  0  0
 10 11  2  0  0  0
 11 15  1  0  0  0
 11 12  1  0  0  0
 12 13  2  0  0  0
 13 14  1  0  0  0
 13 16  1  0  0  0
 20 21  1  0  0  0
 16 17  1  0  0  0
 16 18  1  0  0  0
M  END
> <minimizedAffinity>
-8.48547

$$$$
