1A9Q_HPA_A_290


 12 13  0  0  0  0  0  0  0  0999 V2000
   26.2076   90.5597   73.3062 N   0  0  0  0  0  0  0  0  0  0  0  0
   25.2770   89.5939   73.0990 C   0  0  0  0  0  0  0  0  0  0  0  0
   23.9871   89.7959   73.2387 N   0  0  0  0  0  0  0  0  0  0  0  0
   23.7075   91.0532   73.6025 C   0  0  0  0  0  0  0  0  0  0  0  0
   24.5943   92.0725   73.8316 C   0  0  0  0  0  0  0  0  0  0  0  0
   25.9746   91.8523   73.6846 C   0  0  0  0  0  0  0  0  0  0  0  0
   26.9365   92.6179   73.8245 O   0  0  0  0  0  0  0  0  0  0  0  0
   23.8866   93.1939   74.1791 N   0  0  0  0  0  0  0  0  0  0  0  0
   22.5782   92.8514   74.1500 C   0  0  0  0  0  0  0  0  0  0  0  0
   22.4307   91.5341   73.7958 N   0  0  0  0  0  0  0  0  0  0  0  0
   27.1481   90.3027   73.1698 H   0  0  0  0  0  0  0  0  0  0  0  0
   24.2584   94.0769   74.4057 H   0  0  0  0  0  0  0  0  0  0  0  0
  1  2  1  0  0  0
  1  6  1  0  0  0
  2  3  2  0  0  0
  3  4  1  0  0  0
  4  5  2  0  0  0
  4 10  1  0  0  0
  5  6  1  0  0  0
  5  8  1  0  0  0
  6  7  2  0  0  0
  8  9  1  0  0  0
  9 10  2  0  0  0
  1 11  1  0  0  0
  8 12  1  0  0  0
M  END
> <minimizedAffinity>
-5.82882

$$$$
1A9Q_HPA_A_290


 12 13  0  0  0  0  0  0  0  0999 V2000
   26.1450   90.0355   72.9662 N   0  0  0  0  0  0  0  0  0  0  0  0
   26.3307   91.3489   73.2532 C   0  0  0  0  0  0  0  0  0  0  0  0
   25.3543   92.1535   73.6043 N   0  0  0  0  0  0  0  0  0  0  0  0
   24.1721   91.5277   73.6462 C   0  0  0  0  0  0  0  0  0  0  0  0
   23.9143   90.2113   73.3659 C   0  0  0  0  0  0  0  0  0  0  0  0
   24.9609   89.3532   72.9869 C   0  0  0  0  0  0  0  0  0  0  0  0
   24.9592   88.1482   72.7062 O   0  0  0  0  0  0  0  0  0  0  0  0
   22.5729   89.9856   73.5363 N   0  0  0  0  0  0  0  0  0  0  0  0
   22.0283   91.1609   73.9266 C   0  0  0  0  0  0  0  0  0  0  0  0
   22.9895   92.1367   74.0062 N   0  0  0  0  0  0  0  0  0  0  0  0
   26.9465   89.5208   72.7173 H   0  0  0  0  0  0  0  0  0  0  0  0
   22.0982   89.1338   73.4010 H   0  0  0  0  0  0  0  0  0  0  0  0
  1  2  1  0  0  0
  1  6  1  0  0  0
  2  3  2  0  0  0
  3  4  1  0  0  0
  4  5  2  0  0  0
  4 10  1  0  0  0
  5  6  1  0  0  0
  5  8  1  0  0  0
  6  7  2  0  0  0
  8  9  1  0  0  0
  9 10  2  0  0  0
  1 11  1  0  0  0
  8 12  1  0  0  0
M  END
> <minimizedAffinity>
-5.64023

$$$$
1A9Q_HPA_A_290


 12 13  0  0  0  0  0  0  0  0999 V2000
   21.2218   91.5262   74.1558 N   0  0  0  0  0  0  0  0  0  0  0  0
   21.0254   90.1843   74.1075 C   0  0  0  0  0  0  0  0  0  0  0  0
   21.9820   89.3266   73.8366 N   0  0  0  0  0  0  0  0  0  0  0  0
   23.1570   89.9296   73.6200 C   0  0  0  0  0  0  0  0  0  0  0  0
   23.4231   91.2735   73.6489 C   0  0  0  0  0  0  0  0  0  0  0  0
   22.3964   92.1895   73.9356 C   0  0  0  0  0  0  0  0  0  0  0  0
   22.4134   93.4233   74.0260 O   0  0  0  0  0  0  0  0  0  0  0  0
   24.7536   91.4588   73.3755 N   0  0  0  0  0  0  0  0  0  0  0  0
   25.2868   90.2291   73.1920 C   0  0  0  0  0  0  0  0  0  0  0  0
   24.3273   89.2592   73.3372 N   0  0  0  0  0  0  0  0  0  0  0  0
   20.4366   92.0794   74.3719 H   0  0  0  0  0  0  0  0  0  0  0  0
   25.2287   92.3195   73.3230 H   0  0  0  0  0  0  0  0  0  0  0  0
  1  2  1  0  0  0
  1  6  1  0  0  0
  2  3  2  0  0  0
  3  4  1  0  0  0
  4  5  2  0  0  0
  4 10  1  0  0  0
  5  6  1  0  0  0
  5  8  1  0  0  0
  6  7  2  0  0  0
  8  9  1  0  0  0
  9 10  2  0  0  0
  1 11  1  0  0  0
  8 12  1  0  0  0
M  END
> <minimizedAffinity>
-5.58689

$$$$
1A9Q_HPA_A_290


 12 13  0  0  0  0  0  0  0  0999 V2000
   21.3651   91.5935   74.2079 N   0  0  0  0  0  0  0  0  0  0  0  0
   21.9098   92.8020   74.4984 C   0  0  0  0  0  0  0  0  0  0  0  0
   23.1790   93.0825   74.3123 N   0  0  0  0  0  0  0  0  0  0  0  0
   23.8581   92.0463   73.8061 C   0  0  0  0  0  0  0  0  0  0  0  0
   23.3735   90.8029   73.4948 C   0  0  0  0  0  0  0  0  0  0  0  0
   22.0152   90.5045   73.6983 C   0  0  0  0  0  0  0  0  0  0  0  0
   21.3712   89.4710   73.4793 O   0  0  0  0  0  0  0  0  0  0  0  0
   24.4039   90.0467   72.9993 N   0  0  0  0  0  0  0  0  0  0  0  0
   25.5022   90.8365   73.0046 C   0  0  0  0  0  0  0  0  0  0  0  0
   25.2004   92.0813   73.4965 N   0  0  0  0  0  0  0  0  0  0  0  0
   20.4017   91.4904   74.3823 H   0  0  0  0  0  0  0  0  0  0  0  0
   24.3543   89.1107   72.6981 H   0  0  0  0  0  0  0  0  0  0  0  0
  1  2  1  0  0  0
  1  6  1  0  0  0
  2  3  2  0  0  0
  3  4  1  0  0  0
  4  5  2  0  0  0
  4 10  1  0  0  0
  5  6  1  0  0  0
  5  8  1  0  0  0
  6  7  2  0  0  0
  8  9  1  0  0  0
  9 10  2  0  0  0
  1 11  1  0  0  0
  8 12  1  0  0  0
M  END
> <minimizedAffinity>
-5.56852

$$$$
1A9Q_HPA_A_290


 12 13  0  0  0  0  0  0  0  0999 V2000
   23.8070   91.8277   73.7096 N   0  0  0  0  0  0  0  0  0  0  0  0
   24.1844   90.5305   73.5809 C   0  0  0  0  0  0  0  0  0  0  0  0
   23.3475   89.5241   73.6848 N   0  0  0  0  0  0  0  0  0  0  0  0
   22.0951   89.9293   73.9270 C   0  0  0  0  0  0  0  0  0  0  0  0
   21.6478   91.2164   74.0719 C   0  0  0  0  0  0  0  0  0  0  0  0
   22.5467   92.2915   73.9637 C   0  0  0  0  0  0  0  0  0  0  0  0
   22.3629   93.5124   74.0444 O   0  0  0  0  0  0  0  0  0  0  0  0
   20.2974   91.1832   74.3050 N   0  0  0  0  0  0  0  0  0  0  0  0
   19.9332   89.8804   74.2911 C   0  0  0  0  0  0  0  0  0  0  0  0
   21.0206   89.0767   74.0586 N   0  0  0  0  0  0  0  0  0  0  0  0
   24.5145   92.5050   73.6096 H   0  0  0  0  0  0  0  0  0  0  0  0
   19.7072   91.9571   74.4537 H   0  0  0  0  0  0  0  0  0  0  0  0
  1  2  1  0  0  0
  1  6  1  0  0  0
  2  3  2  0  0  0
  3  4  1  0  0  0
  4  5  2  0  0  0
  4 10  1  0  0  0
  5  6  1  0  0  0
  5  8  1  0  0  0
  6  7  2  0  0  0
  8  9  1  0  0  0
  9 10  2  0  0  0
  1 11  1  0  0  0
  8 12  1  0  0  0
M  END
> <minimizedAffinity>
-5.53340

$$$$
1A9Q_HPA_A_290


 12 13  0  0  0  0  0  0  0  0999 V2000
   23.4356   89.8914   73.0283 N   0  0  0  0  0  0  0  0  0  0  0  0
   22.9577   91.1210   73.3465 C   0  0  0  0  0  0  0  0  0  0  0  0
   23.7310   92.1321   73.6689 N   0  0  0  0  0  0  0  0  0  0  0  0
   25.0288   91.8060   73.6426 C   0  0  0  0  0  0  0  0  0  0  0  0
   25.5773   90.5884   73.3356 C   0  0  0  0  0  0  0  0  0  0  0  0
   24.7468   89.5070   72.9944 C   0  0  0  0  0  0  0  0  0  0  0  0
   25.0218   88.3439   72.6744 O   0  0  0  0  0  0  0  0  0  0  0  0
   26.9412   90.6912   73.4260 N   0  0  0  0  0  0  0  0  0  0  0  0
   27.2114   91.9693   73.7776 C   0  0  0  0  0  0  0  0  0  0  0  0
   26.0511   92.6878   73.9189 N   0  0  0  0  0  0  0  0  0  0  0  0
   22.7686   89.2049   72.7979 H   0  0  0  0  0  0  0  0  0  0  0  0
   27.5968   89.9743   73.2662 H   0  0  0  0  0  0  0  0  0  0  0  0
  1  2  1  0  0  0
  1  6  1  0  0  0
  2  3  2  0  0  0
  3  4  1  0  0  0
  4  5  2  0  0  0
  4 10  1  0  0  0
  5  6  1  0  0  0
  5  8  1  0  0  0
  6  7  2  0  0  0
  8  9  1  0  0  0
  9 10  2  0  0  0
  1 11  1  0  0  0
  8 12  1  0  0  0
M  END
> <minimizedAffinity>
-5.51557

$$$$
1A9Q_HPA_A_290


 12 13  0  0  0  0  0  0  0  0999 V2000
   21.7976   91.5123   73.7556 N   0  0  0  0  0  0  0  0  0  0  0  0
   21.6268   90.1679   73.6849 C   0  0  0  0  0  0  0  0  0  0  0  0
   21.6133   89.3878   74.7411 N   0  0  0  0  0  0  0  0  0  0  0  0
   21.7836   90.0720   75.8786 C   0  0  0  0  0  0  0  0  0  0  0  0
   21.9648   91.4229   76.0208 C   0  0  0  0  0  0  0  0  0  0  0  0
   21.9822   92.2549   74.8882 C   0  0  0  0  0  0  0  0  0  0  0  0
   22.1154   93.4807   74.7854 O   0  0  0  0  0  0  0  0  0  0  0  0
   22.0948   91.7055   77.3559 N   0  0  0  0  0  0  0  0  0  0  0  0
   21.9830   90.5289   78.0141 C   0  0  0  0  0  0  0  0  0  0  0  0
   21.7884   89.4971   77.1309 N   0  0  0  0  0  0  0  0  0  0  0  0
   21.7874   92.0038   72.9027 H   0  0  0  0  0  0  0  0  0  0  0  0
   22.2411   92.5923   77.7576 H   0  0  0  0  0  0  0  0  0  0  0  0
  1  2  1  0  0  0
  1  6  1  0  0  0
  2  3  2  0  0  0
  3  4  1  0  0  0
  4  5  2  0  0  0
  4 10  1  0  0  0
  5  6  1  0  0  0
  5  8  1  0  0  0
  6  7  2  0  0  0
  8  9  1  0  0  0
  9 10  2  0  0  0
  1 11  1  0  0  0
  8 12  1  0  0  0
M  END
> <minimizedAffinity>
-5.13720

$$$$
1A9Q_HPA_A_290


 12 13  0  0  0  0  0  0  0  0999 V2000
   21.8298   91.2784   73.6877 N   0  0  0  0  0  0  0  0  0  0  0  0
   22.1322   92.5033   74.1877 C   0  0  0  0  0  0  0  0  0  0  0  0
   22.2698   92.7423   75.4715 N   0  0  0  0  0  0  0  0  0  0  0  0
   22.0805   91.6453   76.2144 C   0  0  0  0  0  0  0  0  0  0  0  0
   21.7701   90.3844   75.7768 C   0  0  0  0  0  0  0  0  0  0  0  0
   21.6200   90.1323   74.4022 C   0  0  0  0  0  0  0  0  0  0  0  0
   21.3595   89.0868   73.7941 O   0  0  0  0  0  0  0  0  0  0  0  0
   21.6698   89.5589   76.8665 N   0  0  0  0  0  0  0  0  0  0  0  0
   21.9281   90.3199   77.9548 C   0  0  0  0  0  0  0  0  0  0  0  0
   22.1877   91.6163   77.5879 N   0  0  0  0  0  0  0  0  0  0  0  0
   21.7536   91.2081   72.7087 H   0  0  0  0  0  0  0  0  0  0  0  0
   21.4521   88.5988   76.8588 H   0  0  0  0  0  0  0  0  0  0  0  0
  1  2  1  0  0  0
  1  6  1  0  0  0
  2  3  2  0  0  0
  3  4  1  0  0  0
  4  5  2  0  0  0
  4 10  1  0  0  0
  5  6  1  0  0  0
  5  8  1  0  0  0
  6  7  2  0  0  0
  8  9  1  0  0  0
  9 10  2  0  0  0
  1 11  1  0  0  0
  8 12  1  0  0  0
M  END
> <minimizedAffinity>
-5.10389

$$$$
1A9Q_HPA_A_290


 12 13  0  0  0  0  0  0  0  0999 V2000
   22.7148   89.9861   75.8243 N   0  0  0  0  0  0  0  0  0  0  0  0
   22.5181   89.8006   74.4944 C   0  0  0  0  0  0  0  0  0  0  0  0
   21.4141   89.2958   73.9940 N   0  0  0  0  0  0  0  0  0  0  0  0
   20.5195   88.9939   74.9425 C   0  0  0  0  0  0  0  0  0  0  0  0
   20.6543   89.1507   76.2971 C   0  0  0  0  0  0  0  0  0  0  0  0
   21.8386   89.6881   76.8301 C   0  0  0  0  0  0  0  0  0  0  0  0
   22.1656   89.9264   77.9993 O   0  0  0  0  0  0  0  0  0  0  0  0
   19.5015   88.7199   76.9011 N   0  0  0  0  0  0  0  0  0  0  0  0
   18.6734   88.3140   75.9113 C   0  0  0  0  0  0  0  0  0  0  0  0
   19.2707   88.4706   74.6861 N   0  0  0  0  0  0  0  0  0  0  0  0
   23.5782   90.3757   76.0925 H   0  0  0  0  0  0  0  0  0  0  0  0
   19.3130   88.7083   77.8673 H   0  0  0  0  0  0  0  0  0  0  0  0
  1  2  1  0  0  0
  1  6  1  0  0  0
  2  3  2  0  0  0
  3  4  1  0  0  0
  4  5  2  0  0  0
  4 10  1  0  0  0
  5  6  1  0  0  0
  5  8  1  0  0  0
  6  7  2  0  0  0
  8  9  1  0  0  0
  9 10  2  0  0  0
  1 11  1  0  0  0
  8 12  1  0  0  0
M  END
> <minimizedAffinity>
-4.98902

$$$$
1A9Q_HPA_A_290


 12 13  0  0  0  0  0  0  0  0999 V2000
   25.0468   92.7825   73.9632 N   0  0  0  0  0  0  0  0  0  0  0  0
   25.9016   91.7796   73.6391 C   0  0  0  0  0  0  0  0  0  0  0  0
   25.5255   90.5286   73.5061 N   0  0  0  0  0  0  0  0  0  0  0  0
   24.2148   90.3676   73.7237 C   0  0  0  0  0  0  0  0  0  0  0  0
   23.2996   91.3315   74.0569 C   0  0  0  0  0  0  0  0  0  0  0  0
   23.7058   92.6692   74.2020 C   0  0  0  0  0  0  0  0  0  0  0  0
   23.0590   93.6867   74.4798 O   0  0  0  0  0  0  0  0  0  0  0  0
   22.0702   90.7383   74.1825 N   0  0  0  0  0  0  0  0  0  0  0  0
   22.2450   89.4234   73.9165 C   0  0  0  0  0  0  0  0  0  0  0  0
   23.5599   89.1590   73.6273 N   0  0  0  0  0  0  0  0  0  0  0  0
   25.4326   93.6855   74.0336 H   0  0  0  0  0  0  0  0  0  0  0  0
   21.2244   91.1827   74.4200 H   0  0  0  0  0  0  0  0  0  0  0  0
  1  2  1  0  0  0
  1  6  1  0  0  0
  2  3  2  0  0  0
  3  4  1  0  0  0
  4  5  2  0  0  0
  4 10  1  0  0  0
  5  6  1  0  0  0
  5  8  1  0  0  0
  6  7  2  0  0  0
  8  9  1  0  0  0
  9 10  2  0  0  0
  1 11  1  0  0  0
  8 12  1  0  0  0
M  END
> <minimizedAffinity>
-4.93142

$$$$
