1ERB_ETR_A_184


 25 25  0  0  0  0  0  0  0  0999 V2000
   30.7297   18.8949   49.4631 C   0  0  0  0  0  0  0  0  0  0  0  0
   32.0440   18.7169   49.2021 C   0  0  0  0  0  0  0  0  0  0  0  0
   29.7367   18.6303   50.5890 C   0  0  0  0  0  0  0  0  0  0  0  0
   30.8916   20.3666   47.6414 C   0  0  0  0  0  0  0  0  0  0  0  0
   30.1135   19.4343   48.2534 C   0  0  0  0  0  0  0  0  0  0  0  0
   29.8401   21.9776   45.6486 C   0  0  0  0  0  0  0  0  0  0  0  0
   28.9917   21.7435   44.3906 C   0  0  0  0  0  0  0  0  0  0  0  0
   29.3838   20.5070   43.5907 C   0  0  0  0  0  0  0  0  0  0  0  0
   30.8260   20.1403   43.8743 C   0  0  0  0  0  0  0  0  0  0  0  0
   30.9622   19.8811   45.3723 C   0  0  0  0  0  0  0  0  0  0  0  0
   30.3958   20.7095   46.3040 C   0  0  0  0  0  0  0  0  0  0  0  0
   28.5639   22.0134   46.4578 C   0  0  0  0  0  0  0  0  0  0  0  0
   30.4557   23.3736   45.5897 C   0  0  0  0  0  0  0  0  0  0  0  0
   31.7701   18.6149   45.5758 C   0  0  0  0  0  0  0  0  0  0  0  0
   32.7112   18.3208   50.4003 C   0  0  0  0  0  0  0  0  0  0  0  0
   33.7791   19.2830   50.5687 C   0  0  0  0  0  0  0  0  0  0  0  0
   34.6847   19.2637   51.6434 C   0  0  0  0  0  0  0  0  0  0  0  0
   34.5439   18.5480   52.5304 C   0  0  0  0  0  0  0  0  0  0  0  0
   35.8052   20.1429   51.4700 C   0  0  0  0  0  0  0  0  0  0  0  0
   35.5483   18.6702   53.5708 C   0  0  0  0  0  0  0  0  0  0  0  0
   35.2386   19.3874   54.7115 O   0  0  0  0  0  0  0  0  0  0  0  0
   36.4634   18.0791   53.3968 N   0  0  0  0  0  0  0  0  0  0  0  0
   36.9323   18.1399   52.5333 H   0  0  0  0  0  0  0  0  0  0  0  0
   37.0204   17.1361   54.5334 C   0  0  0  0  0  0  0  0  0  0  0  0
   38.3438   17.8054   54.7134 C   0  0  0  0  0  0  0  0  0  0  0  0
  6  7  1  0  0  0
  6 11  1  0  0  0
  6 12  1  0  0  0
  6 13  1  0  0  0
  7  8  1  0  0  0
  8  9  1  0  0  0
  9 10  1  0  0  0
 10 11  2  0  0  0
 10 14  1  0  0  0
 11  4  1  0  0  0
  4  5  2  0  0  0
  5  1  1  0  0  0
  1  2  2  0  0  0
  1  3  1  0  0  0
  2 15  1  0  0  0
 15 16  2  0  0  0
 16 17  1  0  0  0
 17 18  2  0  0  0
 17 19  1  0  0  0
 18 20  1  0  0  0
 20 21  2  0  0  0
 20 22  1  0  0  0
 22 24  1  0  0  0
 24 25  1  0  0  0
 22 23  1  0  0  0
M  END
> <minimizedAffinity>
-9.37322

$$$$
1ERB_ETR_A_184


 25 25  0  0  0  0  0  0  0  0999 V2000
   32.2183   19.4956   50.3286 C   0  0  0  0  0  0  0  0  0  0  0  0
   33.3347   20.0741   50.8249 C   0  0  0  0  0  0  0  0  0  0  0  0
   31.1837   18.4551   50.7419 C   0  0  0  0  0  0  0  0  0  0  0  0
   31.1747   19.2320   48.2425 C   0  0  0  0  0  0  0  0  0  0  0  0
   32.0360   19.9944   48.9678 C   0  0  0  0  0  0  0  0  0  0  0  0
   30.4131   21.2988   46.5630 C   0  0  0  0  0  0  0  0  0  0  0  0
   29.6187   21.4039   45.2534 C   0  0  0  0  0  0  0  0  0  0  0  0
   29.9252   20.3044   44.2437 C   0  0  0  0  0  0  0  0  0  0  0  0
   31.3027   19.7298   44.5032 C   0  0  0  0  0  0  0  0  0  0  0  0
   31.3247   19.1787   45.9265 C   0  0  0  0  0  0  0  0  0  0  0  0
   30.7951   19.8751   46.9799 C   0  0  0  0  0  0  0  0  0  0  0  0
   29.1031   21.3255   47.3168 C   0  0  0  0  0  0  0  0  0  0  0  0
   31.1731   22.6019   46.7984 C   0  0  0  0  0  0  0  0  0  0  0  0
   31.9833   17.8137   45.9098 C   0  0  0  0  0  0  0  0  0  0  0  0
   33.4745   19.7210   52.2009 C   0  0  0  0  0  0  0  0  0  0  0  0
   34.7078   18.9668   52.2695 C   0  0  0  0  0  0  0  0  0  0  0  0
   35.2296   18.4309   53.4594 C   0  0  0  0  0  0  0  0  0  0  0  0
   36.3302   18.1125   53.5390 C   0  0  0  0  0  0  0  0  0  0  0  0
   34.2901   18.4093   54.5437 C   0  0  0  0  0  0  0  0  0  0  0  0
   36.7060   17.5532   54.8243 C   0  0  0  0  0  0  0  0  0  0  0  0
   36.9503   16.1951   54.9113 O   0  0  0  0  0  0  0  0  0  0  0  0
   36.8642   18.2997   55.6211 N   0  0  0  0  0  0  0  0  0  0  0  0
   36.1820   18.9882   55.7935 H   0  0  0  0  0  0  0  0  0  0  0  0
   38.1850   18.2630   56.4844 C   0  0  0  0  0  0  0  0  0  0  0  0
   38.0228   19.5912   57.1487 C   0  0  0  0  0  0  0  0  0  0  0  0
  6  7  1  0  0  0
  6 11  1  0  0  0
  6 12  1  0  0  0
  6 13  1  0  0  0
  7  8  1  0  0  0
  8  9  1  0  0  0
  9 10  1  0  0  0
 10 11  2  0  0  0
 10 14  1  0  0  0
 11  4  1  0  0  0
  4  5  2  0  0  0
  5  1  1  0  0  0
  1  2  2  0  0  0
  1  3  1  0  0  0
  2 15  1  0  0  0
 15 16  2  0  0  0
 16 17  1  0  0  0
 17 18  2  0  0  0
 17 19  1  0  0  0
 18 20  1  0  0  0
 20 21  2  0  0  0
 20 22  1  0  0  0
 22 24  1  0  0  0
 24 25  1  0  0  0
 22 23  1  0  0  0
M  END
> <minimizedAffinity>
-8.93966

$$$$
1ERB_ETR_A_184


 25 25  0  0  0  0  0  0  0  0999 V2000
   36.0426   18.1305   54.1386 C   0  0  0  0  0  0  0  0  0  0  0  0
   34.7460   18.4788   54.2965 C   0  0  0  0  0  0  0  0  0  0  0  0
   37.1253   18.1913   53.0672 C   0  0  0  0  0  0  0  0  0  0  0  0
   37.8003   17.4887   55.5560 C   0  0  0  0  0  0  0  0  0  0  0  0
   36.4573   17.4295   55.3513 C   0  0  0  0  0  0  0  0  0  0  0  0
   38.8878   15.7757   57.4415 C   0  0  0  0  0  0  0  0  0  0  0  0
   38.6216   15.4735   58.9230 C   0  0  0  0  0  0  0  0  0  0  0  0
   38.3421   16.7061   59.7745 C   0  0  0  0  0  0  0  0  0  0  0  0
   38.9457   17.9343   59.1248 C   0  0  0  0  0  0  0  0  0  0  0  0
   38.3306   18.0852   57.7360 C   0  0  0  0  0  0  0  0  0  0  0  0
   38.1776   17.0171   56.8929 C   0  0  0  0  0  0  0  0  0  0  0  0
   37.7850   14.8059   57.0835 C   0  0  0  0  0  0  0  0  0  0  0  0
   40.2411   15.1920   57.0425 C   0  0  0  0  0  0  0  0  0  0  0  0
   37.9480   19.5370   57.5282 C   0  0  0  0  0  0  0  0  0  0  0  0
   34.3390   19.2867   53.1923 C   0  0  0  0  0  0  0  0  0  0  0  0
   33.6700   18.3749   52.2891 C   0  0  0  0  0  0  0  0  0  0  0  0
   33.1009   18.7664   51.0650 C   0  0  0  0  0  0  0  0  0  0  0  0
   32.0059   18.5301   50.8125 C   0  0  0  0  0  0  0  0  0  0  0  0
   33.9839   19.5386   50.2387 C   0  0  0  0  0  0  0  0  0  0  0  0
   31.5783   18.9770   49.4997 C   0  0  0  0  0  0  0  0  0  0  0  0
   31.7660   18.1360   48.4185 O   0  0  0  0  0  0  0  0  0  0  0  0
   31.0353   19.9374   49.4962 N   0  0  0  0  0  0  0  0  0  0  0  0
   31.4145   20.7193   49.9589 H   0  0  0  0  0  0  0  0  0  0  0  0
   29.6502   20.0568   48.7489 C   0  0  0  0  0  0  0  0  0  0  0  0
   29.9620   21.2807   47.9512 C   0  0  0  0  0  0  0  0  0  0  0  0
  6  7  1  0  0  0
  6 11  1  0  0  0
  6 12  1  0  0  0
  6 13  1  0  0  0
  7  8  1  0  0  0
  8  9  1  0  0  0
  9 10  1  0  0  0
 10 11  2  0  0  0
 10 14  1  0  0  0
 11  4  1  0  0  0
  4  5  2  0  0  0
  5  1  1  0  0  0
  1  2  2  0  0  0
  1  3  1  0  0  0
  2 15  1  0  0  0
 15 16  2  0  0  0
 16 17  1  0  0  0
 17 18  2  0  0  0
 17 19  1  0  0  0
 18 20  1  0  0  0
 20 21  2  0  0  0
 20 22  1  0  0  0
 22 24  1  0  0  0
 24 25  1  0  0  0
 22 23  1  0  0  0
M  END
> <minimizedAffinity>
-8.75170

$$$$
1ERB_ETR_A_184


 25 25  0  0  0  0  0  0  0  0999 V2000
   30.1673   19.5982   48.5205 C   0  0  0  0  0  0  0  0  0  0  0  0
   30.4938   18.3716   48.9853 C   0  0  0  0  0  0  0  0  0  0  0  0
   29.9309   21.0045   49.0592 C   0  0  0  0  0  0  0  0  0  0  0  0
   30.8322   20.1028   46.3265 C   0  0  0  0  0  0  0  0  0  0  0  0
   29.9035   19.4671   47.0897 C   0  0  0  0  0  0  0  0  0  0  0  0
   30.3214   20.5107   43.6348 C   0  0  0  0  0  0  0  0  0  0  0  0
   29.8623   19.6280   42.4655 C   0  0  0  0  0  0  0  0  0  0  0  0
   30.5003   18.2443   42.4358 C   0  0  0  0  0  0  0  0  0  0  0  0
   31.8189   18.2638   43.1814 C   0  0  0  0  0  0  0  0  0  0  0  0
   31.5436   18.7019   44.6174 C   0  0  0  0  0  0  0  0  0  0  0  0
   30.7150   19.7530   44.9066 C   0  0  0  0  0  0  0  0  0  0  0  0
   28.8707   20.6950   44.0171 C   0  0  0  0  0  0  0  0  0  0  0  0
   30.8837   21.8206   43.0879 C   0  0  0  0  0  0  0  0  0  0  0  0
   32.3042   17.7896   45.5589 C   0  0  0  0  0  0  0  0  0  0  0  0
   30.8936   18.4782   50.3515 C   0  0  0  0  0  0  0  0  0  0  0  0
   32.3099   18.7722   50.3043 C   0  0  0  0  0  0  0  0  0  0  0  0
   33.1051   18.9663   51.4468 C   0  0  0  0  0  0  0  0  0  0  0  0
   33.5900   18.0810   51.9945 C   0  0  0  0  0  0  0  0  0  0  0  0
   33.3038   20.3466   51.7843 C   0  0  0  0  0  0  0  0  0  0  0  0
   34.3572   18.4453   53.1713 C   0  0  0  0  0  0  0  0  0  0  0  0
   33.7062   18.5305   54.3880 O   0  0  0  0  0  0  0  0  0  0  0  0
   35.4443   18.5286   53.0027 N   0  0  0  0  0  0  0  0  0  0  0  0
   35.7868   19.0698   52.2549 H   0  0  0  0  0  0  0  0  0  0  0  0
   36.4501   17.7796   53.9611 C   0  0  0  0  0  0  0  0  0  0  0  0
   37.7011   18.0672   53.1970 C   0  0  0  0  0  0  0  0  0  0  0  0
  6  7  1  0  0  0
  6 11  1  0  0  0
  6 12  1  0  0  0
  6 13  1  0  0  0
  7  8  1  0  0  0
  8  9  1  0  0  0
  9 10  1  0  0  0
 10 11  2  0  0  0
 10 14  1  0  0  0
 11  4  1  0  0  0
  4  5  2  0  0  0
  5  1  1  0  0  0
  1  2  2  0  0  0
  1  3  1  0  0  0
  2 15  1  0  0  0
 15 16  2  0  0  0
 16 17  1  0  0  0
 17 18  2  0  0  0
 17 19  1  0  0  0
 18 20  1  0  0  0
 20 21  2  0  0  0
 20 22  1  0  0  0
 22 24  1  0  0  0
 24 25  1  0  0  0
 22 23  1  0  0  0
M  END
> <minimizedAffinity>
-8.59684

$$$$
1ERB_ETR_A_184


 25 25  0  0  0  0  0  0  0  0999 V2000
   31.1939   19.1342   49.0922 C   0  0  0  0  0  0  0  0  0  0  0  0
   32.3733   19.7945   49.1069 C   0  0  0  0  0  0  0  0  0  0  0  0
   30.2874   18.3817   50.0596 C   0  0  0  0  0  0  0  0  0  0  0  0
   31.1707   20.1597   46.9807 C   0  0  0  0  0  0  0  0  0  0  0  0
   30.7313   19.0974   47.7071 C   0  0  0  0  0  0  0  0  0  0  0  0
   31.2857   18.9169   44.5080 C   0  0  0  0  0  0  0  0  0  0  0  0
   31.2582   19.3892   43.0473 C   0  0  0  0  0  0  0  0  0  0  0  0
   30.2591   20.5053   42.7675 C   0  0  0  0  0  0  0  0  0  0  0  0
   29.1560   20.4878   43.8057 C   0  0  0  0  0  0  0  0  0  0  0  0
   29.7968   20.6671   45.1795 C   0  0  0  0  0  0  0  0  0  0  0  0
   30.9276   19.9865   45.5445 C   0  0  0  0  0  0  0  0  0  0  0  0
   32.7731   19.1856   44.5283 C   0  0  0  0  0  0  0  0  0  0  0  0
   31.0301   17.4125   44.5569 C   0  0  0  0  0  0  0  0  0  0  0  0
   28.9898   21.6820   45.9643 C   0  0  0  0  0  0  0  0  0  0  0  0
   32.7940   19.9743   50.4590 C   0  0  0  0  0  0  0  0  0  0  0  0
   34.0983   19.3510   50.5303 C   0  0  0  0  0  0  0  0  0  0  0  0
   34.8805   19.3093   51.6973 C   0  0  0  0  0  0  0  0  0  0  0  0
   34.7152   18.5037   52.4989 C   0  0  0  0  0  0  0  0  0  0  0  0
   35.9226   20.2951   51.7293 C   0  0  0  0  0  0  0  0  0  0  0  0
   35.5851   18.6142   53.6552 C   0  0  0  0  0  0  0  0  0  0  0  0
   35.1606   19.3646   54.7360 O   0  0  0  0  0  0  0  0  0  0  0  0
   36.4934   17.9899   53.6074 N   0  0  0  0  0  0  0  0  0  0  0  0
   37.0686   18.0173   52.8089 H   0  0  0  0  0  0  0  0  0  0  0  0
   36.8702   17.0526   54.8203 C   0  0  0  0  0  0  0  0  0  0  0  0
   38.2548   17.5671   55.0437 C   0  0  0  0  0  0  0  0  0  0  0  0
  6  7  1  0  0  0
  6 11  1  0  0  0
  6 12  1  0  0  0
  6 13  1  0  0  0
  7  8  1  0  0  0
  8  9  1  0  0  0
  9 10  1  0  0  0
 10 11  2  0  0  0
 10 14  1  0  0  0
 11  4  1  0  0  0
  4  5  2  0  0  0
  5  1  1  0  0  0
  1  2  2  0  0  0
  1  3  1  0  0  0
  2 15  1  0  0  0
 15 16  2  0  0  0
 16 17  1  0  0  0
 17 18  2  0  0  0
 17 19  1  0  0  0
 18 20  1  0  0  0
 20 21  2  0  0  0
 20 22  1  0  0  0
 22 24  1  0  0  0
 24 25  1  0  0  0
 22 23  1  0  0  0
M  END
> <minimizedAffinity>
-8.52389

$$$$
1ERB_ETR_A_184


 25 25  0  0  0  0  0  0  0  0999 V2000
   35.2220   19.1867   50.9649 C   0  0  0  0  0  0  0  0  0  0  0  0
   34.8008   18.1532   51.7276 C   0  0  0  0  0  0  0  0  0  0  0  0
   36.4886   20.0038   50.7370 C   0  0  0  0  0  0  0  0  0  0  0  0
   33.4276   18.6782   49.5395 C   0  0  0  0  0  0  0  0  0  0  0  0
   34.0685   19.6717   50.2112 C   0  0  0  0  0  0  0  0  0  0  0  0
   31.5277   19.2361   47.6026 C   0  0  0  0  0  0  0  0  0  0  0  0
   30.3398   20.2017   47.4858 C   0  0  0  0  0  0  0  0  0  0  0  0
   29.5084   20.3302   48.7566 C   0  0  0  0  0  0  0  0  0  0  0  0
   29.6767   19.0933   49.6150 C   0  0  0  0  0  0  0  0  0  0  0  0
   31.1588   18.9486   49.9504 C   0  0  0  0  0  0  0  0  0  0  0  0
   32.1342   19.1171   49.0042 C   0  0  0  0  0  0  0  0  0  0  0  0
   32.4349   20.3552   47.1450 C   0  0  0  0  0  0  0  0  0  0  0  0
   31.4239   18.1738   46.5108 C   0  0  0  0  0  0  0  0  0  0  0  0
   31.2949   18.6267   51.4252 C   0  0  0  0  0  0  0  0  0  0  0  0
   35.9250   17.5604   52.3774 C   0  0  0  0  0  0  0  0  0  0  0  0
   35.9194   18.1156   53.7140 C   0  0  0  0  0  0  0  0  0  0  0  0
   36.8655   17.7861   54.6999 C   0  0  0  0  0  0  0  0  0  0  0  0
   36.5641   17.2166   55.6505 C   0  0  0  0  0  0  0  0  0  0  0  0
   38.2095   18.1516   54.3553 C   0  0  0  0  0  0  0  0  0  0  0  0
   37.6509   16.9775   56.5819 C   0  0  0  0  0  0  0  0  0  0  0  0
   37.9161   17.9277   57.5506 O   0  0  0  0  0  0  0  0  0  0  0  0
   38.1205   15.9831   56.4937 N   0  0  0  0  0  0  0  0  0  0  0  0
   38.4155   15.6539   55.6140 H   0  0  0  0  0  0  0  0  0  0  0  0
   38.3190   15.0885   57.7789 C   0  0  0  0  0  0  0  0  0  0  0  0
   37.1595   14.1720   57.5616 C   0  0  0  0  0  0  0  0  0  0  0  0
  6  7  1  0  0  0
  6 11  1  0  0  0
  6 12  1  0  0  0
  6 13  1  0  0  0
  7  8  1  0  0  0
  8  9  1  0  0  0
  9 10  1  0  0  0
 10 11  2  0  0  0
 10 14  1  0  0  0
 11  4  1  0  0  0
  4  5  2  0  0  0
  5  1  1  0  0  0
  1  2  2  0  0  0
  1  3  1  0  0  0
  2 15  1  0  0  0
 15 16  2  0  0  0
 16 17  1  0  0  0
 17 18  2  0  0  0
 17 19  1  0  0  0
 18 20  1  0  0  0
 20 21  2  0  0  0
 20 22  1  0  0  0
 22 24  1  0  0  0
 24 25  1  0  0  0
 22 23  1  0  0  0
M  END
> <minimizedAffinity>
-8.27049

$$$$
1ERB_ETR_A_184


 25 25  0  0  0  0  0  0  0  0999 V2000
   31.6917   19.7835   49.3441 C   0  0  0  0  0  0  0  0  0  0  0  0
   32.1917   20.5651   50.3272 C   0  0  0  0  0  0  0  0  0  0  0  0
   31.7041   18.3181   48.9242 C   0  0  0  0  0  0  0  0  0  0  0  0
   31.6705   20.7590   47.2090 C   0  0  0  0  0  0  0  0  0  0  0  0
   31.0107   20.6593   48.3938 C   0  0  0  0  0  0  0  0  0  0  0  0
   29.5131   21.1290   45.5117 C   0  0  0  0  0  0  0  0  0  0  0  0
   29.2991   21.8079   44.1514 C   0  0  0  0  0  0  0  0  0  0  0  0
   30.0281   23.1366   43.9916 C   0  0  0  0  0  0  0  0  0  0  0  0
   30.3016   23.7460   45.3514 C   0  0  0  0  0  0  0  0  0  0  0  0
   31.1467   22.7579   46.1510 C   0  0  0  0  0  0  0  0  0  0  0  0
   30.8612   21.4190   46.1787 C   0  0  0  0  0  0  0  0  0  0  0  0
   29.9755   19.8902   44.7793 C   0  0  0  0  0  0  0  0  0  0  0  0
   28.1577   20.8693   46.1649 C   0  0  0  0  0  0  0  0  0  0  0  0
   32.2729   23.5153   46.8259 C   0  0  0  0  0  0  0  0  0  0  0  0
   32.7468   19.7370   51.3488 C   0  0  0  0  0  0  0  0  0  0  0  0
   34.1769   19.7840   51.1318 C   0  0  0  0  0  0  0  0  0  0  0  0
   35.1106   19.1043   51.9329 C   0  0  0  0  0  0  0  0  0  0  0  0
   34.7744   18.4064   52.7807 C   0  0  0  0  0  0  0  0  0  0  0  0
   36.4727   19.3068   51.5301 C   0  0  0  0  0  0  0  0  0  0  0  0
   35.8590   17.8019   53.5318 C   0  0  0  0  0  0  0  0  0  0  0  0
   36.7978   17.0481   52.8520 O   0  0  0  0  0  0  0  0  0  0  0  0
   35.8946   18.0873   54.5968 N   0  0  0  0  0  0  0  0  0  0  0  0
   35.0847   18.0193   55.1524 H   0  0  0  0  0  0  0  0  0  0  0  0
   37.2450   18.6050   55.2292 C   0  0  0  0  0  0  0  0  0  0  0  0
   37.4247   17.5118   56.2313 C   0  0  0  0  0  0  0  0  0  0  0  0
  6  7  1  0  0  0
  6 11  1  0  0  0
  6 12  1  0  0  0
  6 13  1  0  0  0
  7  8  1  0  0  0
  8  9  1  0  0  0
  9 10  1  0  0  0
 10 11  2  0  0  0
 10 14  1  0  0  0
 11  4  1  0  0  0
  4  5  2  0  0  0
  5  1  1  0  0  0
  1  2  2  0  0  0
  1  3  1  0  0  0
  2 15  1  0  0  0
 15 16  2  0  0  0
 16 17  1  0  0  0
 17 18  2  0  0  0
 17 19  1  0  0  0
 18 20  1  0  0  0
 20 21  2  0  0  0
 20 22  1  0  0  0
 22 24  1  0  0  0
 24 25  1  0  0  0
 22 23  1  0  0  0
M  END
> <minimizedAffinity>
-8.24534

$$$$
1ERB_ETR_A_184


 25 25  0  0  0  0  0  0  0  0999 V2000
   32.9505   19.4812   50.0214 C   0  0  0  0  0  0  0  0  0  0  0  0
   34.2569   19.7359   50.2572 C   0  0  0  0  0  0  0  0  0  0  0  0
   31.7086   19.0458   50.7909 C   0  0  0  0  0  0  0  0  0  0  0  0
   31.5385   19.0900   48.1873 C   0  0  0  0  0  0  0  0  0  0  0  0
   32.7349   19.6021   48.5817 C   0  0  0  0  0  0  0  0  0  0  0  0
   31.4964   18.8216   45.4308 C   0  0  0  0  0  0  0  0  0  0  0  0
   31.3979   19.7881   44.2419 C   0  0  0  0  0  0  0  0  0  0  0  0
   30.4051   20.9272   44.4400 C   0  0  0  0  0  0  0  0  0  0  0  0
   29.3601   20.5337   45.4638 C   0  0  0  0  0  0  0  0  0  0  0  0
   30.0779   20.2081   46.7710 C   0  0  0  0  0  0  0  0  0  0  0  0
   31.2145   19.4450   46.8013 C   0  0  0  0  0  0  0  0  0  0  0  0
   32.9873   19.0692   45.4612 C   0  0  0  0  0  0  0  0  0  0  0  0
   31.2170   17.3997   44.9498 C   0  0  0  0  0  0  0  0  0  0  0  0
   29.3331   20.8700   47.9132 C   0  0  0  0  0  0  0  0  0  0  0  0
   34.4829   19.7640   51.6663 C   0  0  0  0  0  0  0  0  0  0  0  0
   35.1456   18.5121   51.9633 C   0  0  0  0  0  0  0  0  0  0  0  0
   35.5593   18.1347   53.2525 C   0  0  0  0  0  0  0  0  0  0  0  0
   36.6394   17.8047   53.4606 C   0  0  0  0  0  0  0  0  0  0  0  0
   34.5419   18.2863   54.2528 C   0  0  0  0  0  0  0  0  0  0  0  0
   36.8997   17.4209   54.8357 C   0  0  0  0  0  0  0  0  0  0  0  0
   37.0353   16.0780   55.1357 O   0  0  0  0  0  0  0  0  0  0  0  0
   37.0692   18.2663   55.5239 N   0  0  0  0  0  0  0  0  0  0  0  0
   36.4325   19.0168   55.5486 H   0  0  0  0  0  0  0  0  0  0  0  0
   38.3334   18.2717   56.4691 C   0  0  0  0  0  0  0  0  0  0  0  0
   37.9876   19.4955   57.2529 C   0  0  0  0  0  0  0  0  0  0  0  0
  6  7  1  0  0  0
  6 11  1  0  0  0
  6 12  1  0  0  0
  6 13  1  0  0  0
  7  8  1  0  0  0
  8  9  1  0  0  0
  9 10  1  0  0  0
 10 11  2  0  0  0
 10 14  1  0  0  0
 11  4  1  0  0  0
  4  5  2  0  0  0
  5  1  1  0  0  0
  1  2  2  0  0  0
  1  3  1  0  0  0
  2 15  1  0  0  0
 15 16  2  0  0  0
 16 17  1  0  0  0
 17 18  2  0  0  0
 17 19  1  0  0  0
 18 20  1  0  0  0
 20 21  2  0  0  0
 20 22  1  0  0  0
 22 24  1  0  0  0
 24 25  1  0  0  0
 22 23  1  0  0  0
M  END
> <minimizedAffinity>
-8.11588

$$$$
1ERB_ETR_A_184


 25 25  0  0  0  0  0  0  0  0999 V2000
   31.3380   19.2222   48.1000 C   0  0  0  0  0  0  0  0  0  0  0  0
   31.1496   19.8554   49.2793 C   0  0  0  0  0  0  0  0  0  0  0  0
   32.0338   17.9760   47.5644 C   0  0  0  0  0  0  0  0  0  0  0  0
   31.6651   20.5206   46.1719 C   0  0  0  0  0  0  0  0  0  0  0  0
   30.7440   20.0551   47.0573 C   0  0  0  0  0  0  0  0  0  0  0  0
   30.1222   20.6286   43.8741 C   0  0  0  0  0  0  0  0  0  0  0  0
   30.1268   21.4792   42.5959 C   0  0  0  0  0  0  0  0  0  0  0  0
   30.4100   22.9585   42.8278 C   0  0  0  0  0  0  0  0  0  0  0  0
   30.0515   23.3397   44.2494 C   0  0  0  0  0  0  0  0  0  0  0  0
   30.8819   22.4753   45.1945 C   0  0  0  0  0  0  0  0  0  0  0  0
   31.0406   21.1302   44.9928 C   0  0  0  0  0  0  0  0  0  0  0  0
   31.1516   19.7262   43.2331 C   0  0  0  0  0  0  0  0  0  0  0  0
   28.7882   19.8945   43.9871 C   0  0  0  0  0  0  0  0  0  0  0  0
   31.4504   23.3574   46.2881 C   0  0  0  0  0  0  0  0  0  0  0  0
   31.5928   19.0112   50.3416 C   0  0  0  0  0  0  0  0  0  0  0  0
   32.8682   19.5612   50.7483 C   0  0  0  0  0  0  0  0  0  0  0  0
   33.6524   19.0287   51.7861 C   0  0  0  0  0  0  0  0  0  0  0  0
   34.1250   19.7049   52.5850 C   0  0  0  0  0  0  0  0  0  0  0  0
   33.7195   17.5955   51.7819 C   0  0  0  0  0  0  0  0  0  0  0  0
   34.9276   19.0053   53.5711 C   0  0  0  0  0  0  0  0  0  0  0  0
   34.2857   18.3494   54.6052 O   0  0  0  0  0  0  0  0  0  0  0  0
   36.0073   18.9752   53.3463 N   0  0  0  0  0  0  0  0  0  0  0  0
   36.4864   19.8047   53.1189 H   0  0  0  0  0  0  0  0  0  0  0  0
   36.7833   17.6014   53.3896 C   0  0  0  0  0  0  0  0  0  0  0  0
   37.8922   18.0303   54.2941 C   0  0  0  0  0  0  0  0  0  0  0  0
  6  7  1  0  0  0
  6 11  1  0  0  0
  6 12  1  0  0  0
  6 13  1  0  0  0
  7  8  1  0  0  0
  8  9  1  0  0  0
  9 10  1  0  0  0
 10 11  2  0  0  0
 10 14  1  0  0  0
 11  4  1  0  0  0
  4  5  2  0  0  0
  5  1  1  0  0  0
  1  2  2  0  0  0
  1  3  1  0  0  0
  2 15  1  0  0  0
 15 16  2  0  0  0
 16 17  1  0  0  0
 17 18  2  0  0  0
 17 19  1  0  0  0
 18 20  1  0  0  0
 20 21  2  0  0  0
 20 22  1  0  0  0
 22 24  1  0  0  0
 24 25  1  0  0  0
 22 23  1  0  0  0
M  END
> <minimizedAffinity>
-8.01753

$$$$
1ERB_ETR_A_184


 25 25  0  0  0  0  0  0  0  0999 V2000
   36.6573   17.8926   54.7251 C   0  0  0  0  0  0  0  0  0  0  0  0
   35.3436   18.2112   54.7235 C   0  0  0  0  0  0  0  0  0  0  0  0
   37.8667   18.0039   53.8038 C   0  0  0  0  0  0  0  0  0  0  0  0
   37.4675   15.9378   55.7413 C   0  0  0  0  0  0  0  0  0  0  0  0
   36.9290   17.1666   55.9632 C   0  0  0  0  0  0  0  0  0  0  0  0
   38.9572   15.7552   58.0693 C   0  0  0  0  0  0  0  0  0  0  0  0
   39.5588   14.6071   58.8923 C   0  0  0  0  0  0  0  0  0  0  0  0
   38.6508   13.3909   59.0300 C   0  0  0  0  0  0  0  0  0  0  0  0
   37.2041   13.7983   58.8398 C   0  0  0  0  0  0  0  0  0  0  0  0
   37.0669   14.4218   57.4533 C   0  0  0  0  0  0  0  0  0  0  0  0
   37.9765   15.3260   56.9737 C   0  0  0  0  0  0  0  0  0  0  0  0
   40.1855   15.7186   57.1890 C   0  0  0  0  0  0  0  0  0  0  0  0
   38.9581   17.0314   58.9074 C   0  0  0  0  0  0  0  0  0  0  0  0
   35.8292   13.8564   56.7856 C   0  0  0  0  0  0  0  0  0  0  0  0
   35.0632   19.0413   53.5965 C   0  0  0  0  0  0  0  0  0  0  0  0
   34.1885   18.2498   52.7581 C   0  0  0  0  0  0  0  0  0  0  0  0
   33.6609   18.7006   51.5358 C   0  0  0  0  0  0  0  0  0  0  0  0
   32.5630   18.5153   51.2544 C   0  0  0  0  0  0  0  0  0  0  0  0
   34.5903   19.4623   50.7518 C   0  0  0  0  0  0  0  0  0  0  0  0
   32.1808   19.0187   49.9481 C   0  0  0  0  0  0  0  0  0  0  0  0
   32.3559   18.2033   48.8453 O   0  0  0  0  0  0  0  0  0  0  0  0
   31.6776   20.0003   49.9638 N   0  0  0  0  0  0  0  0  0  0  0  0
   32.0789   20.7517   50.4574 H   0  0  0  0  0  0  0  0  0  0  0  0
   30.3139   20.1993   49.1943 C   0  0  0  0  0  0  0  0  0  0  0  0
   30.6703   21.4659   48.4868 C   0  0  0  0  0  0  0  0  0  0  0  0
  6  7  1  0  0  0
  6 11  1  0  0  0
  6 12  1  0  0  0
  6 13  1  0  0  0
  7  8  1  0  0  0
  8  9  1  0  0  0
  9 10  1  0  0  0
 10 11  2  0  0  0
 10 14  1  0  0  0
 11  4  1  0  0  0
  4  5  2  0  0  0
  5  1  1  0  0  0
  1  2  2  0  0  0
  1  3  1  0  0  0
  2 15  1  0  0  0
 15 16  2  0  0  0
 16 17  1  0  0  0
 17 18  2  0  0  0
 17 19  1  0  0  0
 18 20  1  0  0  0
 20 21  2  0  0  0
 20 22  1  0  0  0
 22 24  1  0  0  0
 24 25  1  0  0  0
 22 23  1  0  0  0
M  END
> <minimizedAffinity>
-7.88310

$$$$
