2XPK_Z0M_A_1625


 32 34  0  0  0  0  0  0  0  0999 V2000
    1.5871    1.8512   15.1547 C   0  0  0  0  0  0  0  0  0  0  0  0
    0.2914    1.4023   14.8329 O   0  0  0  0  0  0  0  0  0  0  0  0
    1.6312    3.3780   14.9344 C   0  0  0  0  0  0  0  0  0  0  0  0
    1.3084    3.6547   13.5898 O   0  0  0  0  0  0  0  0  0  0  0  0
    3.0285    3.8753   15.2491 C   0  0  0  0  0  0  0  0  0  0  0  0
    3.2249    3.6784   16.7115 N   0  0  0  0  0  0  0  0  0  0  0  0
    3.8445    4.3926   17.6448 C   0  0  0  0  0  0  0  0  0  0  0  0
    2.7131    2.5451   17.3580 C   0  0  0  0  0  0  0  0  0  0  0  0
    3.0323    2.6634   18.6355 N   0  0  0  0  0  0  0  0  0  0  0  0
    3.7185    3.7819   18.8314 C   0  0  0  0  0  0  0  0  0  0  0  0
    1.8784    1.4637   16.6141 C   0  0  0  0  0  0  0  0  0  0  0  0
   -0.3538    1.8325   15.4156 H   0  0  0  0  0  0  0  0  0  0  0  0
    1.9434    3.2101   13.0068 H   0  0  0  0  0  0  0  0  0  0  0  0
    3.5956   -0.2040   15.9175 C   0  0  0  0  0  0  0  0  0  0  0  0
    4.2111    0.5603   15.1682 O   0  0  0  0  0  0  0  0  0  0  0  0
    2.5041    0.1446   16.6288 N   0  0  0  0  0  0  0  0  0  0  0  0
    2.0975   -0.5442   17.2028 H   0  0  0  0  0  0  0  0  0  0  0  0
    4.0044   -1.6867   16.0958 C   0  0  0  0  0  0  0  0  0  0  0  0
    5.3719   -2.0039   15.4869 C   0  0  0  0  0  0  0  0  0  0  0  0
    5.7314   -3.8010   15.4183 S   0  0  0  0  0  0  0  0  0  0  0  0
    5.7520   -4.3077   16.6802 H   0  0  0  0  0  0  0  0  0  0  0  0
    3.2436    5.3235   14.8271 C   0  0  0  0  0  0  0  0  0  0  0  0
    4.5986    5.5267   14.3518 O   0  0  0  0  0  0  0  0  0  0  0  0
    5.2251    5.3212   15.0633 H   0  0  0  0  0  0  0  0  0  0  0  0
    4.3225    4.2944   20.1881 C   0  0  0  0  0  0  0  0  0  0  0  0
    3.3306    4.2628   21.3691 C   0  0  0  0  0  0  0  0  0  0  0  0
    2.1005    5.1309   21.0811 C   0  0  0  0  0  0  0  0  0  0  0  0
    0.8503    4.5127   20.8687 C   0  0  0  0  0  0  0  0  0  0  0  0
   -0.2757    5.2849   20.5887 C   0  0  0  0  0  0  0  0  0  0  0  0
   -0.1455    6.6759   20.5161 C   0  0  0  0  0  0  0  0  0  0  0  0
    1.0984    7.2949   20.7236 C   0  0  0  0  0  0  0  0  0  0  0  0
    2.2352    6.5249   21.0105 C   0  0  0  0  0  0  0  0  0  0  0  0
 19 18  1  0  0  0
 19 20  1  0  0  0
 18 14  1  0  0  0
 14 15  2  0  0  0
 14 16  1  0  0  0
 16 11  1  0  0  0
  1  2  1  0  0  0
  1  3  1  0  0  0
  1 11  1  0  0  0
  3  4  1  0  0  0
  3  5  1  0  0  0
  5 22  1  0  0  0
  5  6  1  0  0  0
 22 23  1  0  0  0
  6  7  1  0  0  0
  6  8  1  0  0  0
  7 10  2  0  0  0
  8  9  2  0  0  0
  8 11  1  0  0  0
  9 10  1  0  0  0
 10 25  1  0  0  0
 25 26  1  0  0  0
 26 27  1  0  0  0
 27 28  1  0  0  0
 27 32  2  0  0  0
 28 29  2  0  0  0
 29 30  1  0  0  0
 30 31  2  0  0  0
 31 32  1  0  0  0
 16 17  1  0  0  0
  2 12  1  0  0  0
  4 13  1  0  0  0
 23 24  1  0  0  0
 20 21  1  0  0  0
M  END
> <minimizedAffinity>
-10.69299

$$$$
2XPK_Z0M_A_1625


 32 34  0  0  0  0  0  0  0  0999 V2000
    1.7500    2.0107   15.2500 C   0  0  0  0  0  0  0  0  0  0  0  0
    0.4700    1.5883   14.8411 O   0  0  0  0  0  0  0  0  0  0  0  0
    1.8258    3.5420   15.0731 C   0  0  0  0  0  0  0  0  0  0  0  0
    1.5862    3.8575   13.7198 O   0  0  0  0  0  0  0  0  0  0  0  0
    3.2081    4.0115   15.4822 C   0  0  0  0  0  0  0  0  0  0  0  0
    3.3155    3.7744   16.9479 N   0  0  0  0  0  0  0  0  0  0  0  0
    3.8879    4.4557   17.9345 C   0  0  0  0  0  0  0  0  0  0  0  0
    2.7526    2.6321   17.5331 C   0  0  0  0  0  0  0  0  0  0  0  0
    2.9974    2.7131   18.8298 N   0  0  0  0  0  0  0  0  0  0  0  0
    3.6845    3.8165   19.0951 C   0  0  0  0  0  0  0  0  0  0  0  0
    1.9499    1.5818   16.7132 C   0  0  0  0  0  0  0  0  0  0  0  0
   -0.2031    2.0123   15.3962 H   0  0  0  0  0  0  0  0  0  0  0  0
    2.2489    3.4193   13.1633 H   0  0  0  0  0  0  0  0  0  0  0  0
    3.6280   -0.1178   15.9989 C   0  0  0  0  0  0  0  0  0  0  0  0
    4.2377    0.6292   15.2276 O   0  0  0  0  0  0  0  0  0  0  0  0
    2.5573    0.2543   16.7296 N   0  0  0  0  0  0  0  0  0  0  0  0
    2.1538   -0.4222   17.3202 H   0  0  0  0  0  0  0  0  0  0  0  0
    4.0199   -1.6040   16.1855 C   0  0  0  0  0  0  0  0  0  0  0  0
    5.3148   -1.9734   15.4585 C   0  0  0  0  0  0  0  0  0  0  0  0
    5.6392   -3.7783   15.4357 S   0  0  0  0  0  0  0  0  0  0  0  0
    5.7788   -4.2299   16.7109 H   0  0  0  0  0  0  0  0  0  0  0  0
    3.4656    5.4670   15.1120 C   0  0  0  0  0  0  0  0  0  0  0  0
    3.7220    5.6005   13.6909 O   0  0  0  0  0  0  0  0  0  0  0  0
    4.5076    5.0831   13.4541 H   0  0  0  0  0  0  0  0  0  0  0  0
    4.2139    4.2856   20.4979 C   0  0  0  0  0  0  0  0  0  0  0  0
    3.3678    3.7867   21.6874 C   0  0  0  0  0  0  0  0  0  0  0  0
    4.0952    2.6781   22.4566 C   0  0  0  0  0  0  0  0  0  0  0  0
    3.3906    1.9260   23.4201 C   0  0  0  0  0  0  0  0  0  0  0  0
    4.0399    0.9255   24.1412 C   0  0  0  0  0  0  0  0  0  0  0  0
    5.3965    0.6844   23.8997 C   0  0  0  0  0  0  0  0  0  0  0  0
    6.1024    1.4335   22.9437 C   0  0  0  0  0  0  0  0  0  0  0  0
    5.4548    2.4389   22.2105 C   0  0  0  0  0  0  0  0  0  0  0  0
 19 18  1  0  0  0
 19 20  1  0  0  0
 18 14  1  0  0  0
 14 15  2  0  0  0
 14 16  1  0  0  0
 16 11  1  0  0  0
  1  2  1  0  0  0
  1  3  1  0  0  0
  1 11  1  0  0  0
  3  4  1  0  0  0
  3  5  1  0  0  0
  5 22  1  0  0  0
  5  6  1  0  0  0
 22 23  1  0  0  0
  6  7  1  0  0  0
  6  8  1  0  0  0
  7 10  2  0  0  0
  8  9  2  0  0  0
  8 11  1  0  0  0
  9 10  1  0  0  0
 10 25  1  0  0  0
 25 26  1  0  0  0
 26 27  1  0  0  0
 27 28  1  0  0  0
 27 32  2  0  0  0
 28 29  2  0  0  0
 29 30  1  0  0  0
 30 31  2  0  0  0
 31 32  1  0  0  0
 16 17  1  0  0  0
  2 12  1  0  0  0
  4 13  1  0  0  0
 23 24  1  0  0  0
 20 21  1  0  0  0
M  END
> <minimizedAffinity>
-9.93931

$$$$
2XPK_Z0M_A_1625


 32 34  0  0  0  0  0  0  0  0999 V2000
    3.4796    5.3115   21.6998 C   0  0  0  0  0  0  0  0  0  0  0  0
    4.3252    6.2851   22.2665 O   0  0  0  0  0  0  0  0  0  0  0  0
    2.3873    6.0416   20.8902 C   0  0  0  0  0  0  0  0  0  0  0  0
    1.6777    6.9019   21.7533 O   0  0  0  0  0  0  0  0  0  0  0  0
    1.4500    5.0090   20.2954 C   0  0  0  0  0  0  0  0  0  0  0  0
    2.2454    4.2473   19.2938 N   0  0  0  0  0  0  0  0  0  0  0  0
    1.9490    3.7345   18.1046 C   0  0  0  0  0  0  0  0  0  0  0  0
    3.5888    3.9296   19.5358 C   0  0  0  0  0  0  0  0  0  0  0  0
    4.0190    3.2741   18.4714 N   0  0  0  0  0  0  0  0  0  0  0  0
    3.0375    3.1472   17.5877 C   0  0  0  0  0  0  0  0  0  0  0  0
    4.3378    4.3869   20.8202 C   0  0  0  0  0  0  0  0  0  0  0  0
    4.7388    6.8050   21.5597 H   0  0  0  0  0  0  0  0  0  0  0  0
    1.2787    6.3839   22.4698 H   0  0  0  0  0  0  0  0  0  0  0  0
    4.0180    2.4518   22.3591 C   0  0  0  0  0  0  0  0  0  0  0  0
    2.7872    2.5366   22.4078 O   0  0  0  0  0  0  0  0  0  0  0  0
    4.8085    3.2727   21.6379 N   0  0  0  0  0  0  0  0  0  0  0  0
    5.7787    3.1077   21.6649 H   0  0  0  0  0  0  0  0  0  0  0  0
    4.8015    1.3889   23.1676 C   0  0  0  0  0  0  0  0  0  0  0  0
    3.9876    0.1191   23.4258 C   0  0  0  0  0  0  0  0  0  0  0  0
    3.6063   -0.1446   25.2002 S   0  0  0  0  0  0  0  0  0  0  0  0
    4.7656   -0.2897   25.8964 H   0  0  0  0  0  0  0  0  0  0  0  0
    0.2006    5.6338   19.6867 C   0  0  0  0  0  0  0  0  0  0  0  0
   -0.8020    5.8797   20.7052 O   0  0  0  0  0  0  0  0  0  0  0  0
   -1.0537    5.0401   21.1206 H   0  0  0  0  0  0  0  0  0  0  0  0
    3.1027    2.4080   16.2030 C   0  0  0  0  0  0  0  0  0  0  0  0
    2.3577    1.0575   16.1761 C   0  0  0  0  0  0  0  0  0  0  0  0
    3.3319   -0.1069   15.9646 C   0  0  0  0  0  0  0  0  0  0  0  0
    4.7004    0.1639   15.7543 C   0  0  0  0  0  0  0  0  0  0  0  0
    5.5980   -0.8813   15.5433 C   0  0  0  0  0  0  0  0  0  0  0  0
    5.1213   -2.1964   15.5373 C   0  0  0  0  0  0  0  0  0  0  0  0
    3.7588   -2.4698   15.7427 C   0  0  0  0  0  0  0  0  0  0  0  0
    2.8500   -1.4237   15.9606 C   0  0  0  0  0  0  0  0  0  0  0  0
 19 18  1  0  0  0
 19 20  1  0  0  0
 18 14  1  0  0  0
 14 15  2  0  0  0
 14 16  1  0  0  0
 16 11  1  0  0  0
  1  2  1  0  0  0
  1  3  1  0  0  0
  1 11  1  0  0  0
  3  4  1  0  0  0
  3  5  1  0  0  0
  5 22  1  0  0  0
  5  6  1  0  0  0
 22 23  1  0  0  0
  6  7  1  0  0  0
  6  8  1  0  0  0
  7 10  2  0  0  0
  8  9  2  0  0  0
  8 11  1  0  0  0
  9 10  1  0  0  0
 10 25  1  0  0  0
 25 26  1  0  0  0
 26 27  1  0  0  0
 27 28  1  0  0  0
 27 32  2  0  0  0
 28 29  2  0  0  0
 29 30  1  0  0  0
 30 31  2  0  0  0
 31 32  1  0  0  0
 16 17  1  0  0  0
  2 12  1  0  0  0
  4 13  1  0  0  0
 23 24  1  0  0  0
 20 21  1  0  0  0
M  END
> <minimizedAffinity>
-8.50345

$$$$
2XPK_Z0M_A_1625


 32 34  0  0  0  0  0  0  0  0999 V2000
    1.7809    6.6362   19.6650 C   0  0  0  0  0  0  0  0  0  0  0  0
    0.5685    6.9021   18.9993 O   0  0  0  0  0  0  0  0  0  0  0  0
    1.5680    6.9063   21.1695 C   0  0  0  0  0  0  0  0  0  0  0  0
    1.1691    8.2480   21.3403 O   0  0  0  0  0  0  0  0  0  0  0  0
    2.8725    6.6521   21.8992 C   0  0  0  0  0  0  0  0  0  0  0  0
    3.1366    5.1912   21.7907 N   0  0  0  0  0  0  0  0  0  0  0  0
    3.6548    4.3013   22.6301 C   0  0  0  0  0  0  0  0  0  0  0  0
    2.8349    4.4929   20.6135 C   0  0  0  0  0  0  0  0  0  0  0  0
    3.1636    3.2307   20.8290 N   0  0  0  0  0  0  0  0  0  0  0  0
    3.6618    3.0924   22.0509 C   0  0  0  0  0  0  0  0  0  0  0  0
    2.1698    5.1751   19.3839 C   0  0  0  0  0  0  0  0  0  0  0  0
   -0.1231    6.3132   19.3395 H   0  0  0  0  0  0  0  0  0  0  0  0
    1.8530    8.8365   20.9842 H   0  0  0  0  0  0  0  0  0  0  0  0
    2.5772    5.4084   16.9355 C   0  0  0  0  0  0  0  0  0  0  0  0
    1.4208    5.7334   16.6498 O   0  0  0  0  0  0  0  0  0  0  0  0
    3.0038    5.1383   18.1860 N   0  0  0  0  0  0  0  0  0  0  0  0
    3.9515    4.8975   18.3001 H   0  0  0  0  0  0  0  0  0  0  0  0
    3.6748    5.2412   15.8563 C   0  0  0  0  0  0  0  0  0  0  0  0
    3.1929    4.4559   14.6346 C   0  0  0  0  0  0  0  0  0  0  0  0
    2.6531    2.7508   15.0405 S   0  0  0  0  0  0  0  0  0  0  0  0
    3.7029    2.0521   15.5499 H   0  0  0  0  0  0  0  0  0  0  0  0
    2.8359    7.1267   23.3467 C   0  0  0  0  0  0  0  0  0  0  0  0
    1.5374    6.8725   23.9405 O   0  0  0  0  0  0  0  0  0  0  0  0
    0.8558    7.3536   23.4456 H   0  0  0  0  0  0  0  0  0  0  0  0
    4.2087    1.7726   22.7044 C   0  0  0  0  0  0  0  0  0  0  0  0
    3.8981    1.6415   24.2097 C   0  0  0  0  0  0  0  0  0  0  0  0
    4.5543    0.3894   24.8025 C   0  0  0  0  0  0  0  0  0  0  0  0
    5.9486    0.2131   24.6788 C   0  0  0  0  0  0  0  0  0  0  0  0
    6.5602   -0.9272   25.1966 C   0  0  0  0  0  0  0  0  0  0  0  0
    5.7722   -1.8923   25.8325 C   0  0  0  0  0  0  0  0  0  0  0  0
    4.3831   -1.7221   25.9545 C   0  0  0  0  0  0  0  0  0  0  0  0
    3.7609   -0.5749   25.4402 C   0  0  0  0  0  0  0  0  0  0  0  0
 19 18  1  0  0  0
 19 20  1  0  0  0
 18 14  1  0  0  0
 14 15  2  0  0  0
 14 16  1  0  0  0
 16 11  1  0  0  0
  1  2  1  0  0  0
  1  3  1  0  0  0
  1 11  1  0  0  0
  3  4  1  0  0  0
  3  5  1  0  0  0
  5 22  1  0  0  0
  5  6  1  0  0  0
 22 23  1  0  0  0
  6  7  1  0  0  0
  6  8  1  0  0  0
  7 10  2  0  0  0
  8  9  2  0  0  0
  8 11  1  0  0  0
  9 10  1  0  0  0
 10 25  1  0  0  0
 25 26  1  0  0  0
 26 27  1  0  0  0
 27 28  1  0  0  0
 27 32  2  0  0  0
 28 29  2  0  0  0
 29 30  1  0  0  0
 30 31  2  0  0  0
 31 32  1  0  0  0
 16 17  1  0  0  0
  2 12  1  0  0  0
  4 13  1  0  0  0
 23 24  1  0  0  0
 20 21  1  0  0  0
M  END
> <minimizedAffinity>
-8.22164

$$$$
2XPK_Z0M_A_1625


 32 34  0  0  0  0  0  0  0  0999 V2000
    1.3446    7.4736   19.5752 C   0  0  0  0  0  0  0  0  0  0  0  0
    1.7056    8.8094   19.3120 O   0  0  0  0  0  0  0  0  0  0  0  0
    2.0976    6.5703   18.5759 C   0  0  0  0  0  0  0  0  0  0  0  0
    1.7476    6.9504   17.2638 O   0  0  0  0  0  0  0  0  0  0  0  0
    1.6991    5.1291   18.8262 C   0  0  0  0  0  0  0  0  0  0  0  0
    2.2359    4.7720   20.1680 N   0  0  0  0  0  0  0  0  0  0  0  0
    2.7684    3.6596   20.6619 C   0  0  0  0  0  0  0  0  0  0  0  0
    2.2259    5.7027   21.2158 C   0  0  0  0  0  0  0  0  0  0  0  0
    2.7747    5.1029   22.2583 N   0  0  0  0  0  0  0  0  0  0  0  0
    3.1142    3.8601   21.9415 C   0  0  0  0  0  0  0  0  0  0  0  0
    1.7097    7.1590   21.0356 C   0  0  0  0  0  0  0  0  0  0  0  0
    2.6617    8.9163   19.4354 H   0  0  0  0  0  0  0  0  0  0  0  0
    0.7890    6.8601   17.1459 H   0  0  0  0  0  0  0  0  0  0  0  0
   -0.6149    6.8057   21.8642 C   0  0  0  0  0  0  0  0  0  0  0  0
   -0.8588    5.8394   21.1354 O   0  0  0  0  0  0  0  0  0  0  0  0
    0.5592    7.4690   21.8795 N   0  0  0  0  0  0  0  0  0  0  0  0
    0.6475    8.2209   22.5088 H   0  0  0  0  0  0  0  0  0  0  0  0
   -1.6698    7.3900   22.8353 C   0  0  0  0  0  0  0  0  0  0  0  0
   -2.3706    6.3152   23.6691 C   0  0  0  0  0  0  0  0  0  0  0  0
   -2.8186    6.8870   25.3530 S   0  0  0  0  0  0  0  0  0  0  0  0
   -1.6894    7.2186   26.0346 H   0  0  0  0  0  0  0  0  0  0  0  0
    2.1946    4.1867   17.7362 C   0  0  0  0  0  0  0  0  0  0  0  0
    3.5012    4.5939   17.2566 O   0  0  0  0  0  0  0  0  0  0  0  0
    3.4445    5.4873   16.8832 H   0  0  0  0  0  0  0  0  0  0  0  0
    3.7616    2.7869   22.8887 C   0  0  0  0  0  0  0  0  0  0  0  0
    2.8194    1.6214   23.2541 C   0  0  0  0  0  0  0  0  0  0  0  0
    3.5086    0.6282   24.1966 C   0  0  0  0  0  0  0  0  0  0  0  0
    4.9032    0.7121   24.3924 C   0  0  0  0  0  0  0  0  0  0  0  0
    5.5495   -0.1930   25.2324 C   0  0  0  0  0  0  0  0  0  0  0  0
    4.7974   -1.1851   25.8704 C   0  0  0  0  0  0  0  0  0  0  0  0
    3.4091   -1.2741   25.6752 C   0  0  0  0  0  0  0  0  0  0  0  0
    2.7508   -0.3639   24.8351 C   0  0  0  0  0  0  0  0  0  0  0  0
 19 18  1  0  0  0
 19 20  1  0  0  0
 18 14  1  0  0  0
 14 15  2  0  0  0
 14 16  1  0  0  0
 16 11  1  0  0  0
  1  2  1  0  0  0
  1  3  1  0  0  0
  1 11  1  0  0  0
  3  4  1  0  0  0
  3  5  1  0  0  0
  5 22  1  0  0  0
  5  6  1  0  0  0
 22 23  1  0  0  0
  6  7  1  0  0  0
  6  8  1  0  0  0
  7 10  2  0  0  0
  8  9  2  0  0  0
  8 11  1  0  0  0
  9 10  1  0  0  0
 10 25  1  0  0  0
 25 26  1  0  0  0
 26 27  1  0  0  0
 27 28  1  0  0  0
 27 32  2  0  0  0
 28 29  2  0  0  0
 29 30  1  0  0  0
 30 31  2  0  0  0
 31 32  1  0  0  0
 16 17  1  0  0  0
  2 12  1  0  0  0
  4 13  1  0  0  0
 23 24  1  0  0  0
 20 21  1  0  0  0
M  END
> <minimizedAffinity>
-7.80412

$$$$
2XPK_Z0M_A_1625


 32 34  0  0  0  0  0  0  0  0999 V2000
    1.4420    5.9305   17.3658 C   0  0  0  0  0  0  0  0  0  0  0  0
    1.4740    7.1659   16.6900 O   0  0  0  0  0  0  0  0  0  0  0  0
    2.3984    4.9632   16.6368 C   0  0  0  0  0  0  0  0  0  0  0  0
    1.9786    4.8295   15.2973 O   0  0  0  0  0  0  0  0  0  0  0  0
    2.3554    3.6179   17.3346 C   0  0  0  0  0  0  0  0  0  0  0  0
    2.9507    3.8250   18.6832 N   0  0  0  0  0  0  0  0  0  0  0  0
    3.7304    3.0732   19.4525 C   0  0  0  0  0  0  0  0  0  0  0  0
    2.7086    5.0042   19.4010 C   0  0  0  0  0  0  0  0  0  0  0  0
    3.3763    4.8979   20.5370 N   0  0  0  0  0  0  0  0  0  0  0  0
    4.0070    3.7317   20.5868 C   0  0  0  0  0  0  0  0  0  0  0  0
    1.8594    6.1737   18.8258 C   0  0  0  0  0  0  0  0  0  0  0  0
    2.3755    7.5234   16.7123 H   0  0  0  0  0  0  0  0  0  0  0  0
    1.0708    4.4885   15.2754 H   0  0  0  0  0  0  0  0  0  0  0  0
    0.6235    7.2142   20.7245 C   0  0  0  0  0  0  0  0  0  0  0  0
    1.6056    7.7807   21.2136 O   0  0  0  0  0  0  0  0  0  0  0  0
    0.6610    6.4537   19.6114 N   0  0  0  0  0  0  0  0  0  0  0  0
   -0.1858    6.0563   19.3046 H   0  0  0  0  0  0  0  0  0  0  0  0
   -0.7797    7.2939   21.3741 C   0  0  0  0  0  0  0  0  0  0  0  0
   -0.7358    7.1847   22.8997 C   0  0  0  0  0  0  0  0  0  0  0  0
   -2.3887    6.9293   23.6521 S   0  0  0  0  0  0  0  0  0  0  0  0
   -3.1842    7.9961   23.3716 H   0  0  0  0  0  0  0  0  0  0  0  0
    3.0719    2.5271   16.5481 C   0  0  0  0  0  0  0  0  0  0  0  0
    4.0868    3.0967   15.6828 O   0  0  0  0  0  0  0  0  0  0  0  0
    3.6697    3.7029   15.0508 H   0  0  0  0  0  0  0  0  0  0  0  0
    4.8849    3.1821   21.7680 C   0  0  0  0  0  0  0  0  0  0  0  0
    4.0815    2.4378   22.8544 C   0  0  0  0  0  0  0  0  0  0  0  0
    4.8701    1.2440   23.4045 C   0  0  0  0  0  0  0  0  0  0  0  0
    6.1455    0.9531   22.8761 C   0  0  0  0  0  0  0  0  0  0  0  0
    6.8697   -0.1384   23.3520 C   0  0  0  0  0  0  0  0  0  0  0  0
    6.3117   -0.9407   24.3530 C   0  0  0  0  0  0  0  0  0  0  0  0
    5.0406   -0.6564   24.8791 C   0  0  0  0  0  0  0  0  0  0  0  0
    4.3075    0.4432   24.4087 C   0  0  0  0  0  0  0  0  0  0  0  0
 19 18  1  0  0  0
 19 20  1  0  0  0
 18 14  1  0  0  0
 14 15  2  0  0  0
 14 16  1  0  0  0
 16 11  1  0  0  0
  1  2  1  0  0  0
  1  3  1  0  0  0
  1 11  1  0  0  0
  3  4  1  0  0  0
  3  5  1  0  0  0
  5 22  1  0  0  0
  5  6  1  0  0  0
 22 23  1  0  0  0
  6  7  1  0  0  0
  6  8  1  0  0  0
  7 10  2  0  0  0
  8  9  2  0  0  0
  8 11  1  0  0  0
  9 10  1  0  0  0
 10 25  1  0  0  0
 25 26  1  0  0  0
 26 27  1  0  0  0
 27 28  1  0  0  0
 27 32  2  0  0  0
 28 29  2  0  0  0
 29 30  1  0  0  0
 30 31  2  0  0  0
 31 32  1  0  0  0
 16 17  1  0  0  0
  2 12  1  0  0  0
  4 13  1  0  0  0
 23 24  1  0  0  0
 20 21  1  0  0  0
M  END
> <minimizedAffinity>
-7.71833

$$$$
