6CSR_BHO_A_804


 12 12  0  0  0  0  0  0  0  0999 V2000
   -7.8846   -3.7726   16.5968 C   0  0  0  0  0  0  0  0  0  0  0  0
   -8.0244   -5.0437   16.0186 C   0  0  0  0  0  0  0  0  0  0  0  0
   -7.2594   -5.4182   14.9022 C   0  0  0  0  0  0  0  0  0  0  0  0
   -6.3478   -4.5411   14.3221 C   0  0  0  0  0  0  0  0  0  0  0  0
   -6.1920   -3.2759   14.8886 C   0  0  0  0  0  0  0  0  0  0  0  0
   -6.9502   -2.9100   16.0133 C   0  0  0  0  0  0  0  0  0  0  0  0
   -8.6965   -3.3467   17.7984 C   0  0  0  0  0  0  0  0  0  0  0  0
   -8.1497   -3.0383   18.8509 O   0  0  0  0  0  0  0  0  0  0  0  0
  -10.0947   -3.2895   17.7328 N   0  0  0  0  0  0  0  0  0  0  0  0
  -10.7465   -2.8919   18.8771 O   0  0  0  0  0  0  0  0  0  0  0  0
  -10.5849   -3.5216   16.9111 H   0  0  0  0  0  0  0  0  0  0  0  0
  -10.0959   -2.7085   19.5728 H   0  0  0  0  0  0  0  0  0  0  0  0
  1  2  2  0  0  0
  1  6  1  0  0  0
  1  7  1  0  0  0
  2  3  1  0  0  0
  3  4  2  0  0  0
  4  5  1  0  0  0
  5  6  2  0  0  0
  7  8  2  0  0  0
  7  9  1  0  0  0
  9 10  1  0  0  0
  9 11  1  0  0  0
 10 12  1  0  0  0
M  END
> <minimizedAffinity>
-6.73199

$$$$
6CSR_BHO_A_804


 12 12  0  0  0  0  0  0  0  0999 V2000
   -7.8825   -3.7511   16.6188 C   0  0  0  0  0  0  0  0  0  0  0  0
   -6.9435   -2.8897   16.0306 C   0  0  0  0  0  0  0  0  0  0  0  0
   -6.1935   -3.2922   14.9137 C   0  0  0  0  0  0  0  0  0  0  0  0
   -6.3438   -4.5599   14.3594 C   0  0  0  0  0  0  0  0  0  0  0  0
   -7.2778   -5.4260   14.9281 C   0  0  0  0  0  0  0  0  0  0  0  0
   -8.0350   -5.0146   16.0377 C   0  0  0  0  0  0  0  0  0  0  0  0
   -8.7014   -3.3407   17.8210 C   0  0  0  0  0  0  0  0  0  0  0  0
   -8.1607   -3.0461   18.8806 O   0  0  0  0  0  0  0  0  0  0  0  0
  -10.0991   -3.2823   17.7480 N   0  0  0  0  0  0  0  0  0  0  0  0
  -10.7577   -2.8994   18.8936 O   0  0  0  0  0  0  0  0  0  0  0  0
  -10.5845   -3.5037   16.9206 H   0  0  0  0  0  0  0  0  0  0  0  0
  -10.1110   -2.7252   19.5953 H   0  0  0  0  0  0  0  0  0  0  0  0
  1  2  2  0  0  0
  1  6  1  0  0  0
  1  7  1  0  0  0
  2  3  1  0  0  0
  3  4  2  0  0  0
  4  5  1  0  0  0
  5  6  2  0  0  0
  7  8  2  0  0  0
  7  9  1  0  0  0
  9 10  1  0  0  0
  9 11  1  0  0  0
 10 12  1  0  0  0
M  END
> <minimizedAffinity>
-6.72231

$$$$
6CSR_BHO_A_804


 12 12  0  0  0  0  0  0  0  0999 V2000
   -8.9096   -3.9796   17.6557 C   0  0  0  0  0  0  0  0  0  0  0  0
   -7.8273   -3.1503   17.3231 C   0  0  0  0  0  0  0  0  0  0  0  0
   -7.0104   -3.4365   16.2174 C   0  0  0  0  0  0  0  0  0  0  0  0
   -7.2351   -4.5561   15.4218 C   0  0  0  0  0  0  0  0  0  0  0  0
   -8.3107   -5.3872   15.7349 C   0  0  0  0  0  0  0  0  0  0  0  0
   -9.1331   -5.0900   16.8345 C   0  0  0  0  0  0  0  0  0  0  0  0
   -9.8029   -3.6923   18.8406 C   0  0  0  0  0  0  0  0  0  0  0  0
   -9.8110   -2.5871   19.3700 O   0  0  0  0  0  0  0  0  0  0  0  0
  -10.6471   -4.6840   19.3566 N   0  0  0  0  0  0  0  0  0  0  0  0
  -11.4218   -4.3288   20.4366 O   0  0  0  0  0  0  0  0  0  0  0  0
  -10.6842   -5.5873   18.9669 H   0  0  0  0  0  0  0  0  0  0  0  0
  -11.2445   -3.4045   20.6716 H   0  0  0  0  0  0  0  0  0  0  0  0
  1  2  2  0  0  0
  1  6  1  0  0  0
  1  7  1  0  0  0
  2  3  1  0  0  0
  3  4  2  0  0  0
  4  5  1  0  0  0
  5  6  2  0  0  0
  7  8  2  0  0  0
  7  9  1  0  0  0
  9 10  1  0  0  0
  9 11  1  0  0  0
 10 12  1  0  0  0
M  END
> <minimizedAffinity>
-6.71800

$$$$
6CSR_BHO_A_804


 12 12  0  0  0  0  0  0  0  0999 V2000
   -7.6793   -3.9723   16.0547 C   0  0  0  0  0  0  0  0  0  0  0  0
   -7.4062   -5.1232   15.2993 C   0  0  0  0  0  0  0  0  0  0  0  0
   -6.4380   -5.1073   14.2823 C   0  0  0  0  0  0  0  0  0  0  0  0
   -5.7261   -3.9507   13.9784 C   0  0  0  0  0  0  0  0  0  0  0  0
   -5.9810   -2.7998   14.7242 C   0  0  0  0  0  0  0  0  0  0  0  0
   -6.9414   -2.8236   15.7492 C   0  0  0  0  0  0  0  0  0  0  0  0
   -8.7164   -3.9648   17.1542 C   0  0  0  0  0  0  0  0  0  0  0  0
   -9.6492   -4.7595   17.1457 O   0  0  0  0  0  0  0  0  0  0  0  0
   -8.6300   -3.0508   18.2123 N   0  0  0  0  0  0  0  0  0  0  0  0
   -9.6204   -3.1196   19.1646 O   0  0  0  0  0  0  0  0  0  0  0  0
   -7.8991   -2.3938   18.2713 H   0  0  0  0  0  0  0  0  0  0  0  0
  -10.2441   -3.8252   18.9320 H   0  0  0  0  0  0  0  0  0  0  0  0
  1  2  2  0  0  0
  1  6  1  0  0  0
  1  7  1  0  0  0
  2  3  1  0  0  0
  3  4  2  0  0  0
  4  5  1  0  0  0
  5  6  2  0  0  0
  7  8  2  0  0  0
  7  9  1  0  0  0
  9 10  1  0  0  0
  9 11  1  0  0  0
 10 12  1  0  0  0
M  END
> <minimizedAffinity>
-6.11795

$$$$
6CSR_BHO_A_804


 12 12  0  0  0  0  0  0  0  0999 V2000
   -6.2630   -3.0078   15.7094 C   0  0  0  0  0  0  0  0  0  0  0  0
   -6.1380   -4.1304   14.8765 C   0  0  0  0  0  0  0  0  0  0  0  0
   -7.0572   -5.1897   14.9483 C   0  0  0  0  0  0  0  0  0  0  0  0
   -8.1138   -5.1711   15.8539 C   0  0  0  0  0  0  0  0  0  0  0  0
   -8.2560   -4.0596   16.6846 C   0  0  0  0  0  0  0  0  0  0  0  0
   -7.3415   -2.9964   16.6005 C   0  0  0  0  0  0  0  0  0  0  0  0
   -5.2866   -1.8555   15.6505 C   0  0  0  0  0  0  0  0  0  0  0  0
   -4.0922   -2.0512   15.4584 O   0  0  0  0  0  0  0  0  0  0  0  0
   -5.7280   -0.5355   15.8089 N   0  0  0  0  0  0  0  0  0  0  0  0
   -4.7657    0.4453   15.7409 O   0  0  0  0  0  0  0  0  0  0  0  0
   -6.6768   -0.3210   15.9608 H   0  0  0  0  0  0  0  0  0  0  0  0
   -3.8990    0.0377   15.5869 H   0  0  0  0  0  0  0  0  0  0  0  0
  1  2  2  0  0  0
  1  6  1  0  0  0
  1  7  1  0  0  0
  2  3  1  0  0  0
  3  4  2  0  0  0
  4  5  1  0  0  0
  5  6  2  0  0  0
  7  8  2  0  0  0
  7  9  1  0  0  0
  9 10  1  0  0  0
  9 11  1  0  0  0
 10 12  1  0  0  0
M  END
> <minimizedAffinity>
-5.78710

$$$$
6CSR_BHO_A_804


 12 12  0  0  0  0  0  0  0  0999 V2000
   -6.1548   -2.9656   15.6258 C   0  0  0  0  0  0  0  0  0  0  0  0
   -7.2445   -2.9990   16.5096 C   0  0  0  0  0  0  0  0  0  0  0  0
   -8.1212   -4.0957   16.5350 C   0  0  0  0  0  0  0  0  0  0  0  0
   -7.9500   -5.1793   15.6787 C   0  0  0  0  0  0  0  0  0  0  0  0
   -6.8679   -5.1648   14.7985 C   0  0  0  0  0  0  0  0  0  0  0  0
   -5.9860   -4.0713   14.7854 C   0  0  0  0  0  0  0  0  0  0  0  0
   -5.1976   -1.7967   15.5801 C   0  0  0  0  0  0  0  0  0  0  0  0
   -4.0093   -1.9650   15.3326 O   0  0  0  0  0  0  0  0  0  0  0  0
   -5.6507   -0.4920   15.8144 N   0  0  0  0  0  0  0  0  0  0  0  0
   -4.7056    0.5058   15.7524 O   0  0  0  0  0  0  0  0  0  0  0  0
   -6.5956   -0.2993   16.0128 H   0  0  0  0  0  0  0  0  0  0  0  0
   -3.8402    0.1190   15.5465 H   0  0  0  0  0  0  0  0  0  0  0  0
  1  2  2  0  0  0
  1  6  1  0  0  0
  1  7  1  0  0  0
  2  3  1  0  0  0
  3  4  2  0  0  0
  4  5  1  0  0  0
  5  6  2  0  0  0
  7  8  2  0  0  0
  7  9  1  0  0  0
  9 10  1  0  0  0
  9 11  1  0  0  0
 10 12  1  0  0  0
M  END
> <minimizedAffinity>
-5.76775

$$$$
6CSR_BHO_A_804


 12 12  0  0  0  0  0  0  0  0999 V2000
   -7.0359   -4.8798   15.3228 C   0  0  0  0  0  0  0  0  0  0  0  0
   -8.2016   -5.5224   15.7676 C   0  0  0  0  0  0  0  0  0  0  0  0
   -9.0562   -4.9076   16.6969 C   0  0  0  0  0  0  0  0  0  0  0  0
   -8.7727   -3.6490   17.2190 C   0  0  0  0  0  0  0  0  0  0  0  0
   -7.6212   -2.9938   16.7823 C   0  0  0  0  0  0  0  0  0  0  0  0
   -6.7757   -3.6073   15.8429 C   0  0  0  0  0  0  0  0  0  0  0  0
   -6.1008   -5.5210   14.3234 C   0  0  0  0  0  0  0  0  0  0  0  0
   -6.0913   -5.1645   13.1509 O   0  0  0  0  0  0  0  0  0  0  0  0
   -5.2186   -6.5351   14.7181 N   0  0  0  0  0  0  0  0  0  0  0  0
   -4.4075   -7.0582   13.7378 O   0  0  0  0  0  0  0  0  0  0  0  0
   -5.1811   -6.8564   15.6479 H   0  0  0  0  0  0  0  0  0  0  0  0
   -4.5918   -6.6147   12.8950 H   0  0  0  0  0  0  0  0  0  0  0  0
  1  2  2  0  0  0
  1  6  1  0  0  0
  1  7  1  0  0  0
  2  3  1  0  0  0
  3  4  2  0  0  0
  4  5  1  0  0  0
  5  6  2  0  0  0
  7  8  2  0  0  0
  7  9  1  0  0  0
  9 10  1  0  0  0
  9 11  1  0  0  0
 10 12  1  0  0  0
M  END
> <minimizedAffinity>
-5.74766

$$$$
6CSR_BHO_A_804


 12 12  0  0  0  0  0  0  0  0999 V2000
   -7.2904   -4.4069   15.8718 C   0  0  0  0  0  0  0  0  0  0  0  0
   -7.0218   -3.3541   16.7600 C   0  0  0  0  0  0  0  0  0  0  0  0
   -7.9209   -3.0288   17.7885 C   0  0  0  0  0  0  0  0  0  0  0  0
   -9.1130   -3.7272   17.9557 C   0  0  0  0  0  0  0  0  0  0  0  0
   -9.3921   -4.7809   17.0853 C   0  0  0  0  0  0  0  0  0  0  0  0
   -8.4838   -5.1110   16.0656 C   0  0  0  0  0  0  0  0  0  0  0  0
   -6.3384   -4.7759   14.7574 C   0  0  0  0  0  0  0  0  0  0  0  0
   -6.0516   -3.9689   13.8808 O   0  0  0  0  0  0  0  0  0  0  0  0
   -5.7572   -6.0495   14.7057 N   0  0  0  0  0  0  0  0  0  0  0  0
   -4.9049   -6.2924   13.6536 O   0  0  0  0  0  0  0  0  0  0  0  0
   -5.9487   -6.7345   15.3864 H   0  0  0  0  0  0  0  0  0  0  0  0
   -4.8462   -5.5011   13.0957 H   0  0  0  0  0  0  0  0  0  0  0  0
  1  2  2  0  0  0
  1  6  1  0  0  0
  1  7  1  0  0  0
  2  3  1  0  0  0
  3  4  2  0  0  0
  4  5  1  0  0  0
  5  6  2  0  0  0
  7  8  2  0  0  0
  7  9  1  0  0  0
  9 10  1  0  0  0
  9 11  1  0  0  0
 10 12  1  0  0  0
M  END
> <minimizedAffinity>
-5.70563

$$$$
6CSR_BHO_A_804


 12 12  0  0  0  0  0  0  0  0999 V2000
   -7.3339   -4.4178   15.8729 C   0  0  0  0  0  0  0  0  0  0  0  0
   -8.5272   -5.1268   16.0802 C   0  0  0  0  0  0  0  0  0  0  0  0
   -9.4014   -4.7814   17.1234 C   0  0  0  0  0  0  0  0  0  0  0  0
   -9.1112   -3.7358   17.9949 C   0  0  0  0  0  0  0  0  0  0  0  0
   -7.9322   -3.0167   17.7986 C   0  0  0  0  0  0  0  0  0  0  0  0
   -7.0666   -3.3576   16.7458 C   0  0  0  0  0  0  0  0  0  0  0  0
   -6.3774   -4.7706   14.7571 C   0  0  0  0  0  0  0  0  0  0  0  0
   -5.9937   -5.9235   14.5973 O   0  0  0  0  0  0  0  0  0  0  0  0
   -5.9123   -3.7859   13.8759 N   0  0  0  0  0  0  0  0  0  0  0  0
   -5.0441   -4.2028   12.8935 O   0  0  0  0  0  0  0  0  0  0  0  0
   -6.1919   -2.8453   13.9555 H   0  0  0  0  0  0  0  0  0  0  0  0
   -4.8919   -5.1568   12.9800 H   0  0  0  0  0  0  0  0  0  0  0  0
  1  2  2  0  0  0
  1  6  1  0  0  0
  1  7  1  0  0  0
  2  3  1  0  0  0
  3  4  2  0  0  0
  4  5  1  0  0  0
  5  6  2  0  0  0
  7  8  2  0  0  0
  7  9  1  0  0  0
  9 10  1  0  0  0
  9 11  1  0  0  0
 10 12  1  0  0  0
M  END
> <minimizedAffinity>
-5.47881

$$$$
6CSR_BHO_A_804


 12 12  0  0  0  0  0  0  0  0999 V2000
   -6.6507   -3.9997   15.1926 C   0  0  0  0  0  0  0  0  0  0  0  0
   -7.1833   -3.0796   16.1088 C   0  0  0  0  0  0  0  0  0  0  0  0
   -8.2978   -3.4077   16.8977 C   0  0  0  0  0  0  0  0  0  0  0  0
   -8.9207   -4.6476   16.7906 C   0  0  0  0  0  0  0  0  0  0  0  0
   -8.3998   -5.5760   15.8892 C   0  0  0  0  0  0  0  0  0  0  0  0
   -7.2769   -5.2481   15.1112 C   0  0  0  0  0  0  0  0  0  0  0  0
   -5.4521   -3.6698   14.3329 C   0  0  0  0  0  0  0  0  0  0  0  0
   -4.4025   -4.2914   14.4502 O   0  0  0  0  0  0  0  0  0  0  0  0
   -5.5174   -2.6477   13.3771 N   0  0  0  0  0  0  0  0  0  0  0  0
   -4.3759   -2.4203   12.6436 O   0  0  0  0  0  0  0  0  0  0  0  0
   -6.3367   -2.1201   13.2377 H   0  0  0  0  0  0  0  0  0  0  0  0
   -3.6822   -3.0369   12.9255 H   0  0  0  0  0  0  0  0  0  0  0  0
  1  2  2  0  0  0
  1  6  1  0  0  0
  1  7  1  0  0  0
  2  3  1  0  0  0
  3  4  2  0  0  0
  4  5  1  0  0  0
  5  6  2  0  0  0
  7  8  2  0  0  0
  7  9  1  0  0  0
  9 10  1  0  0  0
  9 11  1  0  0  0
 10 12  1  0  0  0
M  END
> <minimizedAffinity>
-5.40429

$$$$
