4EOH_TEP_A_402


 14 15  0  0  0  0  0  0  0  0999 V2000
   29.3564    8.7051   37.5686 C   0  0  0  0  0  0  0  0  0  0  0  0
   29.3411    7.3869   38.2389 N   0  0  0  0  0  0  0  0  0  0  0  0
   30.3322    6.4414   37.9440 C   0  0  0  0  0  0  0  0  0  0  0  0
   31.2441    6.7255   37.1662 O   0  0  0  0  0  0  0  0  0  0  0  0
   30.3017    5.1875   38.5633 N   0  0  0  0  0  0  0  0  0  0  0  0
   31.3392    4.1799   38.2445 C   0  0  0  0  0  0  0  0  0  0  0  0
   29.2814    4.8823   39.4735 C   0  0  0  0  0  0  0  0  0  0  0  0
   28.3051    5.8283   39.7671 C   0  0  0  0  0  0  0  0  0  0  0  0
   28.3278    7.0732   39.1526 C   0  0  0  0  0  0  0  0  0  0  0  0
   27.4670    7.9093   39.4246 O   0  0  0  0  0  0  0  0  0  0  0  0
   27.4834    5.2754   40.6555 N   0  0  0  0  0  0  0  0  0  0  0  0
   27.9196    4.0446   40.9178 C   0  0  0  0  0  0  0  0  0  0  0  0
   29.0141    3.8048   40.1995 N   0  0  0  0  0  0  0  0  0  0  0  0
   26.6895    5.7026   41.0510 H   0  0  0  0  0  0  0  0  0  0  0  0
  1  2  1  0  0  0
  2  3  1  0  0  0
  2  9  1  0  0  0
  3  4  2  0  0  0
  3  5  1  0  0  0
  5  6  1  0  0  0
  5  7  1  0  0  0
  7  8  2  0  0  0
  7 13  1  0  0  0
  8  9  1  0  0  0
  8 11  1  0  0  0
  9 10  2  0  0  0
 11 12  1  0  0  0
 12 13  2  0  0  0
 11 14  1  0  0  0
M  END
> <minimizedAffinity>
-5.51080

$$$$
4EOH_TEP_A_402


 14 15  0  0  0  0  0  0  0  0999 V2000
   32.5448    5.2286   40.6400 C   0  0  0  0  0  0  0  0  0  0  0  0
   31.8482    6.4371   40.1487 N   0  0  0  0  0  0  0  0  0  0  0  0
   30.4664    6.5725   40.3373 C   0  0  0  0  0  0  0  0  0  0  0  0
   29.8408    5.7105   40.9561 O   0  0  0  0  0  0  0  0  0  0  0  0
   29.8073    7.7066   39.8514 N   0  0  0  0  0  0  0  0  0  0  0  0
   28.3447    7.8477   40.0362 C   0  0  0  0  0  0  0  0  0  0  0  0
   30.5301    8.7003   39.1786 C   0  0  0  0  0  0  0  0  0  0  0  0
   31.9027    8.5629   39.0015 C   0  0  0  0  0  0  0  0  0  0  0  0
   32.5618    7.4375   39.4780 C   0  0  0  0  0  0  0  0  0  0  0  0
   33.7780    7.3270   39.3271 O   0  0  0  0  0  0  0  0  0  0  0  0
   32.3199    9.6439   38.3478 N   0  0  0  0  0  0  0  0  0  0  0  0
   31.2678   10.4303   38.1274 C   0  0  0  0  0  0  0  0  0  0  0  0
   30.1783    9.8573   38.6333 N   0  0  0  0  0  0  0  0  0  0  0  0
   33.2470    9.8304   38.0739 H   0  0  0  0  0  0  0  0  0  0  0  0
  1  2  1  0  0  0
  2  3  1  0  0  0
  2  9  1  0  0  0
  3  4  2  0  0  0
  3  5  1  0  0  0
  5  6  1  0  0  0
  5  7  1  0  0  0
  7  8  2  0  0  0
  7 13  1  0  0  0
  8  9  1  0  0  0
  8 11  1  0  0  0
  9 10  2  0  0  0
 11 12  1  0  0  0
 12 13  2  0  0  0
 11 14  1  0  0  0
M  END
> <minimizedAffinity>
-5.47817

$$$$
4EOH_TEP_A_402


 14 15  0  0  0  0  0  0  0  0999 V2000
   31.2036    4.2650   38.0830 C   0  0  0  0  0  0  0  0  0  0  0  0
   30.3124    5.3604   38.5221 N   0  0  0  0  0  0  0  0  0  0  0  0
   30.4455    6.6373   37.9608 C   0  0  0  0  0  0  0  0  0  0  0  0
   31.2692    6.8353   37.0665 O   0  0  0  0  0  0  0  0  0  0  0  0
   29.6156    7.6764   38.3948 N   0  0  0  0  0  0  0  0  0  0  0  0
   29.7618    9.0310   37.8143 C   0  0  0  0  0  0  0  0  0  0  0  0
   28.6570    7.4367   39.3878 C   0  0  0  0  0  0  0  0  0  0  0  0
   28.5253    6.1650   39.9353 C   0  0  0  0  0  0  0  0  0  0  0  0
   29.3489    5.1306   39.5115 C   0  0  0  0  0  0  0  0  0  0  0  0
   29.2202    4.0054   39.9926 O   0  0  0  0  0  0  0  0  0  0  0  0
   27.5464    6.2287   40.8341 N   0  0  0  0  0  0  0  0  0  0  0  0
   27.0761    7.4747   40.8513 C   0  0  0  0  0  0  0  0  0  0  0  0
   27.7508    8.2103   39.9710 N   0  0  0  0  0  0  0  0  0  0  0  0
   27.2250    5.4830   41.3908 H   0  0  0  0  0  0  0  0  0  0  0  0
  1  2  1  0  0  0
  2  3  1  0  0  0
  2  9  1  0  0  0
  3  4  2  0  0  0
  3  5  1  0  0  0
  5  6  1  0  0  0
  5  7  1  0  0  0
  7  8  2  0  0  0
  7 13  1  0  0  0
  8  9  1  0  0  0
  8 11  1  0  0  0
  9 10  2  0  0  0
 11 12  1  0  0  0
 12 13  2  0  0  0
 11 14  1  0  0  0
M  END
> <minimizedAffinity>
-5.45936

$$$$
4EOH_TEP_A_402


 14 15  0  0  0  0  0  0  0  0999 V2000
   33.2832   10.1597   38.4961 C   0  0  0  0  0  0  0  0  0  0  0  0
   32.3596    9.1234   39.0061 N   0  0  0  0  0  0  0  0  0  0  0  0
   32.8619    7.8836   39.4229 C   0  0  0  0  0  0  0  0  0  0  0  0
   34.0758    7.6747   39.4127 O   0  0  0  0  0  0  0  0  0  0  0  0
   31.9828    6.8979   39.8838 N   0  0  0  0  0  0  0  0  0  0  0  0
   32.5076    5.5810   40.3124 C   0  0  0  0  0  0  0  0  0  0  0  0
   30.6061    7.1536   39.9257 C   0  0  0  0  0  0  0  0  0  0  0  0
   30.1152    8.3892   39.5175 C   0  0  0  0  0  0  0  0  0  0  0  0
   30.9824    9.3702   39.0553 C   0  0  0  0  0  0  0  0  0  0  0  0
   30.5426   10.4648   38.7054 O   0  0  0  0  0  0  0  0  0  0  0  0
   28.7942    8.3524   39.6718 N   0  0  0  0  0  0  0  0  0  0  0  0
   28.4643    7.1577   40.1596 C   0  0  0  0  0  0  0  0  0  0  0  0
   29.5662    6.4279   40.3151 N   0  0  0  0  0  0  0  0  0  0  0  0
   28.1683    9.0826   39.4617 H   0  0  0  0  0  0  0  0  0  0  0  0
  1  2  1  0  0  0
  2  3  1  0  0  0
  2  9  1  0  0  0
  3  4  2  0  0  0
  3  5  1  0  0  0
  5  6  1  0  0  0
  5  7  1  0  0  0
  7  8  2  0  0  0
  7 13  1  0  0  0
  8  9  1  0  0  0
  8 11  1  0  0  0
  9 10  2  0  0  0
 11 12  1  0  0  0
 12 13  2  0  0  0
 11 14  1  0  0  0
M  END
> <minimizedAffinity>
-5.37924

$$$$
4EOH_TEP_A_402


 14 15  0  0  0  0  0  0  0  0999 V2000
   27.0968    1.0113   44.0161 C   0  0  0  0  0  0  0  0  0  0  0  0
   27.7060    1.9993   43.0998 N   0  0  0  0  0  0  0  0  0  0  0  0
   29.0345    2.4023   43.2897 C   0  0  0  0  0  0  0  0  0  0  0  0
   29.7102    1.8971   44.1871 O   0  0  0  0  0  0  0  0  0  0  0  0
   29.6003    3.3537   42.4344 N   0  0  0  0  0  0  0  0  0  0  0  0
   30.9996    3.7931   42.6396 C   0  0  0  0  0  0  0  0  0  0  0  0
   28.8374    3.8995   41.3940 C   0  0  0  0  0  0  0  0  0  0  0  0
   27.5217    3.4894   41.2067 C   0  0  0  0  0  0  0  0  0  0  0  0
   26.9533    2.5483   42.0548 C   0  0  0  0  0  0  0  0  0  0  0  0
   25.7921    2.1821   41.8772 O   0  0  0  0  0  0  0  0  0  0  0  0
   27.0525    4.1576   40.1562 N   0  0  0  0  0  0  0  0  0  0  0  0
   28.0224    4.9459   39.6960 C   0  0  0  0  0  0  0  0  0  0  0  0
   29.1091    4.7890   40.4481 N   0  0  0  0  0  0  0  0  0  0  0  0
   26.1445    4.0823   39.7833 H   0  0  0  0  0  0  0  0  0  0  0  0
  1  2  1  0  0  0
  2  3  1  0  0  0
  2  9  1  0  0  0
  3  4  2  0  0  0
  3  5  1  0  0  0
  5  6  1  0  0  0
  5  7  1  0  0  0
  7  8  2  0  0  0
  7 13  1  0  0  0
  8  9  1  0  0  0
  8 11  1  0  0  0
  9 10  2  0  0  0
 11 12  1  0  0  0
 12 13  2  0  0  0
 11 14  1  0  0  0
M  END
> <minimizedAffinity>
-5.31588

$$$$
4EOH_TEP_A_402


 14 15  0  0  0  0  0  0  0  0999 V2000
   30.4068    3.8837   39.3215 C   0  0  0  0  0  0  0  0  0  0  0  0
   29.9679    5.2621   39.0140 N   0  0  0  0  0  0  0  0  0  0  0  0
   28.9463    5.8548   39.7679 C   0  0  0  0  0  0  0  0  0  0  0  0
   28.4492    5.2483   40.7178 O   0  0  0  0  0  0  0  0  0  0  0  0
   28.5186    7.1505   39.4598 N   0  0  0  0  0  0  0  0  0  0  0  0
   27.4297    7.7760   40.2449 C   0  0  0  0  0  0  0  0  0  0  0  0
   29.1117    7.8487   38.4000 C   0  0  0  0  0  0  0  0  0  0  0  0
   30.1304    7.2571   37.6606 C   0  0  0  0  0  0  0  0  0  0  0  0
   30.5565    5.9697   37.9591 C   0  0  0  0  0  0  0  0  0  0  0  0
   31.4653    5.4561   37.3078 O   0  0  0  0  0  0  0  0  0  0  0  0
   30.5047    8.1406   36.7390 N   0  0  0  0  0  0  0  0  0  0  0  0
   29.7667    9.2390   36.8899 C   0  0  0  0  0  0  0  0  0  0  0  0
   28.9193    9.0626   37.9008 N   0  0  0  0  0  0  0  0  0  0  0  0
   31.2065    8.0056   36.0618 H   0  0  0  0  0  0  0  0  0  0  0  0
  1  2  1  0  0  0
  2  3  1  0  0  0
  2  9  1  0  0  0
  3  4  2  0  0  0
  3  5  1  0  0  0
  5  6  1  0  0  0
  5  7  1  0  0  0
  7  8  2  0  0  0
  7 13  1  0  0  0
  8  9  1  0  0  0
  8 11  1  0  0  0
  9 10  2  0  0  0
 11 12  1  0  0  0
 12 13  2  0  0  0
 11 14  1  0  0  0
M  END
> <minimizedAffinity>
-5.23203

$$$$
4EOH_TEP_A_402


 14 15  0  0  0  0  0  0  0  0999 V2000
   29.1375    8.5824   37.8083 C   0  0  0  0  0  0  0  0  0  0  0  0
   29.4384    7.2129   38.2781 N   0  0  0  0  0  0  0  0  0  0  0  0
   28.5839    6.5847   39.1939 C   0  0  0  0  0  0  0  0  0  0  0  0
   27.5565    7.1518   39.5683 O   0  0  0  0  0  0  0  0  0  0  0  0
   28.8837    5.2978   39.6530 N   0  0  0  0  0  0  0  0  0  0  0  0
   27.9910    4.6352   40.6314 C   0  0  0  0  0  0  0  0  0  0  0  0
   30.0356    4.6439   39.1971 C   0  0  0  0  0  0  0  0  0  0  0  0
   30.8754    5.2705   38.2824 C   0  0  0  0  0  0  0  0  0  0  0  0
   30.5852    6.5493   37.8260 C   0  0  0  0  0  0  0  0  0  0  0  0
   31.3268    7.0938   37.0089 O   0  0  0  0  0  0  0  0  0  0  0  0
   31.8696    4.4245   38.0253 N   0  0  0  0  0  0  0  0  0  0  0  0
   31.6677    3.3154   38.7346 C   0  0  0  0  0  0  0  0  0  0  0  0
   30.5516    3.4477   39.4474 N   0  0  0  0  0  0  0  0  0  0  0  0
   32.6247    4.5899   37.4156 H   0  0  0  0  0  0  0  0  0  0  0  0
  1  2  1  0  0  0
  2  3  1  0  0  0
  2  9  1  0  0  0
  3  4  2  0  0  0
  3  5  1  0  0  0
  5  6  1  0  0  0
  5  7  1  0  0  0
  7  8  2  0  0  0
  7 13  1  0  0  0
  8  9  1  0  0  0
  8 11  1  0  0  0
  9 10  2  0  0  0
 11 12  1  0  0  0
 12 13  2  0  0  0
 11 14  1  0  0  0
M  END
> <minimizedAffinity>
-5.22586

$$$$
4EOH_TEP_A_402


 14 15  0  0  0  0  0  0  0  0999 V2000
   33.2769    5.5406   40.5248 C   0  0  0  0  0  0  0  0  0  0  0  0
   32.0867    6.3476   40.1797 N   0  0  0  0  0  0  0  0  0  0  0  0
   32.2353    7.5371   39.4542 C   0  0  0  0  0  0  0  0  0  0  0  0
   33.3495    7.8844   39.0601 O   0  0  0  0  0  0  0  0  0  0  0  0
   31.1095    8.3092   39.1489 N   0  0  0  0  0  0  0  0  0  0  0  0
   31.2631    9.5742   38.3943 C   0  0  0  0  0  0  0  0  0  0  0  0
   29.8405    7.8914   39.5700 C   0  0  0  0  0  0  0  0  0  0  0  0
   29.6995    6.7058   40.2833 C   0  0  0  0  0  0  0  0  0  0  0  0
   30.8136    5.9371   40.5928 C   0  0  0  0  0  0  0  0  0  0  0  0
   30.6808    4.8840   41.2152 O   0  0  0  0  0  0  0  0  0  0  0  0
   28.4022    6.5586   40.5392 N   0  0  0  0  0  0  0  0  0  0  0  0
   27.7523    7.5935   40.0096 C   0  0  0  0  0  0  0  0  0  0  0  0
   28.6266    8.4047   39.4190 N   0  0  0  0  0  0  0  0  0  0  0  0
   27.9930    5.8128   41.0349 H   0  0  0  0  0  0  0  0  0  0  0  0
  1  2  1  0  0  0
  2  3  1  0  0  0
  2  9  1  0  0  0
  3  4  2  0  0  0
  3  5  1  0  0  0
  5  6  1  0  0  0
  5  7  1  0  0  0
  7  8  2  0  0  0
  7 13  1  0  0  0
  8  9  1  0  0  0
  8 11  1  0  0  0
  9 10  2  0  0  0
 11 12  1  0  0  0
 12 13  2  0  0  0
 11 14  1  0  0  0
M  END
> <minimizedAffinity>
-5.20409

$$$$
4EOH_TEP_A_402


 14 15  0  0  0  0  0  0  0  0999 V2000
   32.5340    9.6231   38.2977 C   0  0  0  0  0  0  0  0  0  0  0  0
   31.8139    8.5378   38.9980 N   0  0  0  0  0  0  0  0  0  0  0  0
   30.4290    8.6287   39.1906 C   0  0  0  0  0  0  0  0  0  0  0  0
   29.8040    9.5864   38.7329 O   0  0  0  0  0  0  0  0  0  0  0  0
   29.7547    7.6107   39.8730 N   0  0  0  0  0  0  0  0  0  0  0  0
   28.2932    7.7089   40.0911 C   0  0  0  0  0  0  0  0  0  0  0  0
   30.4658    6.5068   40.3612 C   0  0  0  0  0  0  0  0  0  0  0  0
   31.8391    6.4194   40.1599 C   0  0  0  0  0  0  0  0  0  0  0  0
   32.5146    7.4287   39.4868 C   0  0  0  0  0  0  0  0  0  0  0  0
   33.7281    7.3403   39.3030 O   0  0  0  0  0  0  0  0  0  0  0  0
   32.2410    5.2788   40.7144 N   0  0  0  0  0  0  0  0  0  0  0  0
   31.1767    4.6699   41.2345 C   0  0  0  0  0  0  0  0  0  0  0  0
   30.0959    5.4161   41.0194 N   0  0  0  0  0  0  0  0  0  0  0  0
   33.1661    4.9425   40.7364 H   0  0  0  0  0  0  0  0  0  0  0  0
  1  2  1  0  0  0
  2  3  1  0  0  0
  2  9  1  0  0  0
  3  4  2  0  0  0
  3  5  1  0  0  0
  5  6  1  0  0  0
  5  7  1  0  0  0
  7  8  2  0  0  0
  7 13  1  0  0  0
  8  9  1  0  0  0
  8 11  1  0  0  0
  9 10  2  0  0  0
 11 12  1  0  0  0
 12 13  2  0  0  0
 11 14  1  0  0  0
M  END
> <minimizedAffinity>
-5.18372

$$$$
4EOH_TEP_A_402


 14 15  0  0  0  0  0  0  0  0999 V2000
   29.0454    2.6559   42.6799 C   0  0  0  0  0  0  0  0  0  0  0  0
   28.8442    3.7945   41.7579 N   0  0  0  0  0  0  0  0  0  0  0  0
   29.5954    3.8798   40.5783 C   0  0  0  0  0  0  0  0  0  0  0  0
   30.3858    2.9821   40.2839 O   0  0  0  0  0  0  0  0  0  0  0  0
   29.4182    4.9699   39.7197 N   0  0  0  0  0  0  0  0  0  0  0  0
   30.2198    5.0715   38.4786 C   0  0  0  0  0  0  0  0  0  0  0  0
   28.4927    5.9706   40.0428 C   0  0  0  0  0  0  0  0  0  0  0  0
   27.7450    5.8757   41.2116 C   0  0  0  0  0  0  0  0  0  0  0  0
   27.9193    4.7982   42.0698 C   0  0  0  0  0  0  0  0  0  0  0  0
   27.2471    4.7150   43.0971 O   0  0  0  0  0  0  0  0  0  0  0  0
   26.9540    6.9447   41.2544 N   0  0  0  0  0  0  0  0  0  0  0  0
   27.1826    7.6767   40.1655 C   0  0  0  0  0  0  0  0  0  0  0  0
   28.1182    7.0844   39.4272 N   0  0  0  0  0  0  0  0  0  0  0  0
   26.3104    7.1579   41.9683 H   0  0  0  0  0  0  0  0  0  0  0  0
  1  2  1  0  0  0
  2  3  1  0  0  0
  2  9  1  0  0  0
  3  4  2  0  0  0
  3  5  1  0  0  0
  5  6  1  0  0  0
  5  7  1  0  0  0
  7  8  2  0  0  0
  7 13  1  0  0  0
  8  9  1  0  0  0
  8 11  1  0  0  0
  9 10  2  0  0  0
 11 12  1  0  0  0
 12 13  2  0  0  0
 11 14  1  0  0  0
M  END
> <minimizedAffinity>
-5.18126

$$$$
