1N1M_A3M_A_954


 14 14  0  0  0  0  0  0  0  0999 V2000
   77.8835   75.3514   98.7071 C   0  0  0  0  0  0  0  0  0  0  0  0
   79.4524   75.3670   99.0427 C   0  0  0  0  0  0  0  0  0  0  0  0
   80.0868   74.6719   97.9092 N   0  0  0  0  0  0  0  0  0  0  0  0
   79.0763   73.6832   97.4657 C   0  0  0  0  0  0  0  0  0  0  0  0
   77.8171   74.5724   97.3179 C   0  0  0  0  0  0  0  0  0  0  0  0
   81.4241   74.1627   98.2098 C   0  0  0  0  0  0  0  0  0  0  0  0
   81.6423   72.8159   98.0364 O   0  0  0  0  0  0  0  0  0  0  0  0
   82.5782   74.9363   98.6888 C   0  0  0  0  0  0  0  0  0  0  0  0
   83.8107   74.0848   98.7646 N   0  0  0  0  0  0  0  0  0  0  0  0
   84.0949   73.8134   97.8233 H   0  0  0  0  0  0  0  0  0  0  0  0
   83.6130   73.2487   99.3144 H   0  0  0  0  0  0  0  0  0  0  0  0
   82.9533   76.1906   97.9528 C   0  0  0  0  0  0  0  0  0  0  0  0
   82.4225   77.4332   98.5352 C   0  0  0  0  0  0  0  0  0  0  0  0
   84.6337   76.3888   97.9487 C   0  0  0  0  0  0  0  0  0  0  0  0
  1  2  1  0  0  0
  1  5  1  0  0  0
  2  3  1  0  0  0
  3  4  1  0  0  0
  3  6  1  0  0  0
  4  5  1  0  0  0
  6  8  1  0  0  0
  6  7  2  0  0  0
  8 12  1  0  0  0
  8  9  1  0  0  0
 12 13  1  0  0  0
 12 14  1  0  0  0
  9 10  1  0  0  0
  9 11  1  0  0  0
M  END
> <minimizedAffinity>
-6.80359

$$$$
1N1M_A3M_A_954


 14 14  0  0  0  0  0  0  0  0999 V2000
   83.5944   77.7778   96.8617 C   0  0  0  0  0  0  0  0  0  0  0  0
   82.7413   76.4846   97.2792 C   0  0  0  0  0  0  0  0  0  0  0  0
   83.2575   76.1053   98.6059 N   0  0  0  0  0  0  0  0  0  0  0  0
   84.6825   76.5101   98.5810 C   0  0  0  0  0  0  0  0  0  0  0  0
   84.5790   77.9783   98.0993 C   0  0  0  0  0  0  0  0  0  0  0  0
   82.9692   74.7191   98.9711 C   0  0  0  0  0  0  0  0  0  0  0  0
   84.0377   73.9112   99.2825 O   0  0  0  0  0  0  0  0  0  0  0  0
   81.6481   74.0787   99.0394 C   0  0  0  0  0  0  0  0  0  0  0  0
   81.6110   72.8193   98.2256 N   0  0  0  0  0  0  0  0  0  0  0  0
   82.2227   72.1221   98.6500 H   0  0  0  0  0  0  0  0  0  0  0  0
   81.9287   73.0180   97.2769 H   0  0  0  0  0  0  0  0  0  0  0  0
   81.0831   73.7474  100.3909 C   0  0  0  0  0  0  0  0  0  0  0  0
   81.2941   74.7773  101.4203 C   0  0  0  0  0  0  0  0  0  0  0  0
   79.4045   73.5577  100.2952 C   0  0  0  0  0  0  0  0  0  0  0  0
  1  2  1  0  0  0
  1  5  1  0  0  0
  2  3  1  0  0  0
  3  4  1  0  0  0
  3  6  1  0  0  0
  4  5  1  0  0  0
  6  8  1  0  0  0
  6  7  2  0  0  0
  8 12  1  0  0  0
  8  9  1  0  0  0
 12 13  1  0  0  0
 12 14  1  0  0  0
  9 10  1  0  0  0
  9 11  1  0  0  0
M  END
> <minimizedAffinity>
-6.03263

$$$$
1N1M_A3M_A_954


 14 14  0  0  0  0  0  0  0  0999 V2000
   83.9154   77.2775   97.2834 C   0  0  0  0  0  0  0  0  0  0  0  0
   82.5238   76.4997   97.1023 C   0  0  0  0  0  0  0  0  0  0  0  0
   82.4756   75.5479   98.2257 N   0  0  0  0  0  0  0  0  0  0  0  0
   83.8932   75.2014   98.4817 C   0  0  0  0  0  0  0  0  0  0  0  0
   84.5409   76.6042   98.5859 C   0  0  0  0  0  0  0  0  0  0  0  0
   81.5506   74.4361   98.0108 C   0  0  0  0  0  0  0  0  0  0  0  0
   82.0638   73.1623   98.0851 O   0  0  0  0  0  0  0  0  0  0  0  0
   80.1138   74.5253   97.7145 C   0  0  0  0  0  0  0  0  0  0  0  0
   79.6768   73.4194   96.8003 N   0  0  0  0  0  0  0  0  0  0  0  0
   79.7526   72.5261   97.2868 H   0  0  0  0  0  0  0  0  0  0  0  0
   80.2726   73.4073   95.9724 H   0  0  0  0  0  0  0  0  0  0  0  0
   79.1473   74.5553   98.8637 C   0  0  0  0  0  0  0  0  0  0  0  0
   78.0608   75.5390   98.7342 C   0  0  0  0  0  0  0  0  0  0  0  0
   78.3713   73.0596   99.0176 C   0  0  0  0  0  0  0  0  0  0  0  0
  1  2  1  0  0  0
  1  5  1  0  0  0
  2  3  1  0  0  0
  3  4  1  0  0  0
  3  6  1  0  0  0
  4  5  1  0  0  0
  6  8  1  0  0  0
  6  7  2  0  0  0
  8 12  1  0  0  0
  8  9  1  0  0  0
 12 13  1  0  0  0
 12 14  1  0  0  0
  9 10  1  0  0  0
  9 11  1  0  0  0
M  END
> <minimizedAffinity>
-5.97705

$$$$
1N1M_A3M_A_954


 14 14  0  0  0  0  0  0  0  0999 V2000
   82.5222   76.2296   98.0513 C   0  0  0  0  0  0  0  0  0  0  0  0
   81.3538   75.3706   97.3649 C   0  0  0  0  0  0  0  0  0  0  0  0
   80.3880   75.1157   98.4478 N   0  0  0  0  0  0  0  0  0  0  0  0
   81.2144   75.0473   99.6756 C   0  0  0  0  0  0  0  0  0  0  0  0
   82.0406   76.3524   99.5660 C   0  0  0  0  0  0  0  0  0  0  0  0
   79.4987   73.9853   98.1842 C   0  0  0  0  0  0  0  0  0  0  0  0
   79.4842   72.9634   99.1046 O   0  0  0  0  0  0  0  0  0  0  0  0
   78.6088   73.8107   97.0277 C   0  0  0  0  0  0  0  0  0  0  0  0
   78.2289   72.3712   96.8456 N   0  0  0  0  0  0  0  0  0  0  0  0
   77.6457   72.0720   97.6271 H   0  0  0  0  0  0  0  0  0  0  0  0
   79.0723   71.7986   96.8119 H   0  0  0  0  0  0  0  0  0  0  0  0
   77.3396   74.6120   96.9748 C   0  0  0  0  0  0  0  0  0  0  0  0
   76.3278   74.1087   96.0325 C   0  0  0  0  0  0  0  0  0  0  0  0
   76.5771   74.6045   98.4853 C   0  0  0  0  0  0  0  0  0  0  0  0
  1  2  1  0  0  0
  1  5  1  0  0  0
  2  3  1  0  0  0
  3  4  1  0  0  0
  3  6  1  0  0  0
  4  5  1  0  0  0
  6  8  1  0  0  0
  6  7  2  0  0  0
  8 12  1  0  0  0
  8  9  1  0  0  0
 12 13  1  0  0  0
 12 14  1  0  0  0
  9 10  1  0  0  0
  9 11  1  0  0  0
M  END
> <minimizedAffinity>
-5.73279

$$$$
1N1M_A3M_A_954


 14 14  0  0  0  0  0  0  0  0999 V2000
   84.7452   76.0188   98.0387 C   0  0  0  0  0  0  0  0  0  0  0  0
   83.3327   75.4648   98.5605 C   0  0  0  0  0  0  0  0  0  0  0  0
   82.3331   76.3825   97.9867 N   0  0  0  0  0  0  0  0  0  0  0  0
   83.0295   77.6877   97.9044 C   0  0  0  0  0  0  0  0  0  0  0  0
   84.3379   77.2952   97.1749 C   0  0  0  0  0  0  0  0  0  0  0  0
   81.0491   76.3598   98.6859 C   0  0  0  0  0  0  0  0  0  0  0  0
   80.5818   77.5511   99.1898 O   0  0  0  0  0  0  0  0  0  0  0  0
   80.1899   75.1907   98.9202 C   0  0  0  0  0  0  0  0  0  0  0  0
   79.9906   74.9468  100.3866 N   0  0  0  0  0  0  0  0  0  0  0  0
   79.4471   75.7111  100.7877 H   0  0  0  0  0  0  0  0  0  0  0  0
   80.8982   74.8956  100.8493 H   0  0  0  0  0  0  0  0  0  0  0  0
   78.8318   75.1617   98.2796 C   0  0  0  0  0  0  0  0  0  0  0  0
   78.5278   73.9348   97.5265 C   0  0  0  0  0  0  0  0  0  0  0  0
   77.6236   75.2649   99.4598 C   0  0  0  0  0  0  0  0  0  0  0  0
  1  2  1  0  0  0
  1  5  1  0  0  0
  2  3  1  0  0  0
  3  4  1  0  0  0
  3  6  1  0  0  0
  4  5  1  0  0  0
  6  8  1  0  0  0
  6  7  2  0  0  0
  8 12  1  0  0  0
  8  9  1  0  0  0
 12 13  1  0  0  0
 12 14  1  0  0  0
  9 10  1  0  0  0
  9 11  1  0  0  0
M  END
> <minimizedAffinity>
-5.71136

$$$$
1N1M_A3M_A_954


 14 14  0  0  0  0  0  0  0  0999 V2000
   77.7682   74.0351   98.8648 C   0  0  0  0  0  0  0  0  0  0  0  0
   78.8720   75.1880   98.7020 C   0  0  0  0  0  0  0  0  0  0  0  0
   80.1129   74.5992   99.2350 N   0  0  0  0  0  0  0  0  0  0  0  0
   79.6584   73.6662  100.2924 C   0  0  0  0  0  0  0  0  0  0  0  0
   78.5847   72.8432   99.5387 C   0  0  0  0  0  0  0  0  0  0  0  0
   81.1156   75.5932   99.6152 C   0  0  0  0  0  0  0  0  0  0  0  0
   81.5710   75.5686  100.9127 O   0  0  0  0  0  0  0  0  0  0  0  0
   81.6975   76.6354   98.7578 C   0  0  0  0  0  0  0  0  0  0  0  0
   81.2328   78.0009   99.1691 N   0  0  0  0  0  0  0  0  0  0  0  0
   81.6120   78.2265  100.0887 H   0  0  0  0  0  0  0  0  0  0  0  0
   80.2137   78.0156   99.2086 H   0  0  0  0  0  0  0  0  0  0  0  0
   83.1922   76.6997   98.6249 C   0  0  0  0  0  0  0  0  0  0  0  0
   83.8461   75.4102   98.3517 C   0  0  0  0  0  0  0  0  0  0  0  0
   83.6240   77.6961   97.3274 C   0  0  0  0  0  0  0  0  0  0  0  0
  1  2  1  0  0  0
  1  5  1  0  0  0
  2  3  1  0  0  0
  3  4  1  0  0  0
  3  6  1  0  0  0
  4  5  1  0  0  0
  6  8  1  0  0  0
  6  7  2  0  0  0
  8 12  1  0  0  0
  8  9  1  0  0  0
 12 13  1  0  0  0
 12 14  1  0  0  0
  9 10  1  0  0  0
  9 11  1  0  0  0
M  END
> <minimizedAffinity>
-5.40083

$$$$
1N1M_A3M_A_954


 14 14  0  0  0  0  0  0  0  0999 V2000
   84.7019   76.2749   98.0328 C   0  0  0  0  0  0  0  0  0  0  0  0
   83.4402   75.3506   98.3906 C   0  0  0  0  0  0  0  0  0  0  0  0
   82.2703   76.1112   97.9181 N   0  0  0  0  0  0  0  0  0  0  0  0
   82.6610   77.5317   98.0754 C   0  0  0  0  0  0  0  0  0  0  0  0
   84.0340   77.5563   97.3597 C   0  0  0  0  0  0  0  0  0  0  0  0
   81.0135   75.6973   98.5402 C   0  0  0  0  0  0  0  0  0  0  0  0
   80.2865   76.6604   99.2001 O   0  0  0  0  0  0  0  0  0  0  0  0
   80.4316   74.3477   98.5460 C   0  0  0  0  0  0  0  0  0  0  0  0
   81.1718   73.4318   97.6170 N   0  0  0  0  0  0  0  0  0  0  0  0
   82.1139   73.2737   97.9746 H   0  0  0  0  0  0  0  0  0  0  0  0
   81.2264   73.8576   96.6917 H   0  0  0  0  0  0  0  0  0  0  0  0
   80.3001   73.6314   99.8595 C   0  0  0  0  0  0  0  0  0  0  0  0
   81.3913   73.8820  100.8141 C   0  0  0  0  0  0  0  0  0  0  0  0
   78.8931   74.1251  100.6593 C   0  0  0  0  0  0  0  0  0  0  0  0
  1  2  1  0  0  0
  1  5  1  0  0  0
  2  3  1  0  0  0
  3  4  1  0  0  0
  3  6  1  0  0  0
  4  5  1  0  0  0
  6  8  1  0  0  0
  6  7  2  0  0  0
  8 12  1  0  0  0
  8  9  1  0  0  0
 12 13  1  0  0  0
 12 14  1  0  0  0
  9 10  1  0  0  0
  9 11  1  0  0  0
M  END
> <minimizedAffinity>
-5.17175

$$$$
1N1M_A3M_A_954


 14 14  0  0  0  0  0  0  0  0999 V2000
   81.5568   75.9218   99.4297 C   0  0  0  0  0  0  0  0  0  0  0  0
   80.1374   75.8199   98.6887 C   0  0  0  0  0  0  0  0  0  0  0  0
   79.8635   74.3753   98.5965 N   0  0  0  0  0  0  0  0  0  0  0  0
   81.2013   73.7491   98.4811 C   0  0  0  0  0  0  0  0  0  0  0  0
   81.9500   74.3961   99.6723 C   0  0  0  0  0  0  0  0  0  0  0  0
   78.8803   74.0307   97.5706 C   0  0  0  0  0  0  0  0  0  0  0  0
   79.2671   73.1395   96.5971 O   0  0  0  0  0  0  0  0  0  0  0  0
   77.5064   74.5397   97.4556 C   0  0  0  0  0  0  0  0  0  0  0  0
   76.9940   74.4112   96.0518 N   0  0  0  0  0  0  0  0  0  0  0  0
   76.8902   73.4241   95.8168 H   0  0  0  0  0  0  0  0  0  0  0  0
   77.6543   74.8465   95.4077 H   0  0  0  0  0  0  0  0  0  0  0  0
   76.4543   73.9692   98.3631 C   0  0  0  0  0  0  0  0  0  0  0  0
   76.0853   74.8269   99.5002 C   0  0  0  0  0  0  0  0  0  0  0  0
   75.0135   73.7242   97.5105 C   0  0  0  0  0  0  0  0  0  0  0  0
  1  2  1  0  0  0
  1  5  1  0  0  0
  2  3  1  0  0  0
  3  4  1  0  0  0
  3  6  1  0  0  0
  4  5  1  0  0  0
  6  8  1  0  0  0
  6  7  2  0  0  0
  8 12  1  0  0  0
  8  9  1  0  0  0
 12 13  1  0  0  0
 12 14  1  0  0  0
  9 10  1  0  0  0
  9 11  1  0  0  0
M  END
> <minimizedAffinity>
-5.12083

$$$$
1N1M_A3M_A_954


 14 14  0  0  0  0  0  0  0  0999 V2000
   75.8077   73.4021  100.2875 C   0  0  0  0  0  0  0  0  0  0  0  0
   77.2960   73.3330   99.6922 C   0  0  0  0  0  0  0  0  0  0  0  0
   77.2904   74.2696   98.5550 N   0  0  0  0  0  0  0  0  0  0  0  0
   75.9042   74.2158   98.0347 C   0  0  0  0  0  0  0  0  0  0  0  0
   75.0798   74.4442   99.3255 C   0  0  0  0  0  0  0  0  0  0  0  0
   78.3676   74.0309   97.5955 C   0  0  0  0  0  0  0  0  0  0  0  0
   78.0105   73.7983   96.2878 O   0  0  0  0  0  0  0  0  0  0  0  0
   79.8105   74.0052   97.8737 C   0  0  0  0  0  0  0  0  0  0  0  0
   80.5962   73.6624   96.6428 N   0  0  0  0  0  0  0  0  0  0  0  0
   80.5101   74.4180   95.9631 H   0  0  0  0  0  0  0  0  0  0  0  0
   80.2348   72.7985   96.2384 H   0  0  0  0  0  0  0  0  0  0  0  0
   80.4445   75.2264   98.4756 C   0  0  0  0  0  0  0  0  0  0  0  0
   80.9064   75.0648   99.8633 C   0  0  0  0  0  0  0  0  0  0  0  0
   81.8248   75.6637   97.6001 C   0  0  0  0  0  0  0  0  0  0  0  0
  1  2  1  0  0  0
  1  5  1  0  0  0
  2  3  1  0  0  0
  3  4  1  0  0  0
  3  6  1  0  0  0
  4  5  1  0  0  0
  6  8  1  0  0  0
  6  7  2  0  0  0
  8 12  1  0  0  0
  8  9  1  0  0  0
 12 13  1  0  0  0
 12 14  1  0  0  0
  9 10  1  0  0  0
  9 11  1  0  0  0
M  END
> <minimizedAffinity>
-5.11803

$$$$
1N1M_A3M_A_954


 14 14  0  0  0  0  0  0  0  0999 V2000
   81.2217   74.7592  101.2959 C   0  0  0  0  0  0  0  0  0  0  0  0
   80.5953   74.4770   99.8459 C   0  0  0  0  0  0  0  0  0  0  0  0
   79.2587   73.9192  100.1154 N   0  0  0  0  0  0  0  0  0  0  0  0
   79.4094   73.1934  101.3982 C   0  0  0  0  0  0  0  0  0  0  0  0
   80.0732   74.2727  102.2886 C   0  0  0  0  0  0  0  0  0  0  0  0
   78.7008   73.1685   98.9914 C   0  0  0  0  0  0  0  0  0  0  0  0
   78.3416   71.8607   99.2197 O   0  0  0  0  0  0  0  0  0  0  0  0
   78.4817   73.6574   97.6229 C   0  0  0  0  0  0  0  0  0  0  0  0
   78.3244   72.5204   96.6573 N   0  0  0  0  0  0  0  0  0  0  0  0
   77.4594   72.0194   96.8599 H   0  0  0  0  0  0  0  0  0  0  0  0
   79.1159   71.8837   96.7500 H   0  0  0  0  0  0  0  0  0  0  0  0
   77.3438   74.6061   97.3762 C   0  0  0  0  0  0  0  0  0  0  0  0
   76.6547   74.4260   96.0886 C   0  0  0  0  0  0  0  0  0  0  0  0
   76.1431   74.4010   98.5507 C   0  0  0  0  0  0  0  0  0  0  0  0
  1  2  1  0  0  0
  1  5  1  0  0  0
  2  3  1  0  0  0
  3  4  1  0  0  0
  3  6  1  0  0  0
  4  5  1  0  0  0
  6  8  1  0  0  0
  6  7  2  0  0  0
  8 12  1  0  0  0
  8  9  1  0  0  0
 12 13  1  0  0  0
 12 14  1  0  0  0
  9 10  1  0  0  0
  9 11  1  0  0  0
M  END
> <minimizedAffinity>
-5.11729

$$$$
