5CSP_54G_A_401


 13 13  0  0  0  0  0  0  0  0999 V2000
   93.2262   15.9976  130.8410 C   0  0  0  0  0  0  0  0  0  0  0  0
   92.9504   13.7298  130.1615 C   0  0  0  0  0  0  0  0  0  0  0  0
   92.6728   13.3470  131.4802 C   0  0  0  0  0  0  0  0  0  0  0  0
   92.7121   14.3257  132.4893 C   0  0  0  0  0  0  0  0  0  0  0  0
   92.9721   15.6474  132.1562 C   0  0  0  0  0  0  0  0  0  0  0  0
   92.4397   14.0374  133.7943 O   0  0  0  0  0  0  0  0  0  0  0  0
   93.2375   15.0468  129.8272 C   0  0  0  0  0  0  0  0  0  0  0  0
   93.6277   15.4166  128.4229 C   0  0  0  0  0  0  0  0  0  0  0  0
   92.2600   13.1544  134.0513 H   0  0  0  0  0  0  0  0  0  0  0  0
   92.3319   11.9301  131.8196 C   0  0  0  0  0  0  0  0  0  0  0  0
   92.5287   11.4798  132.9359 O   0  0  0  0  0  0  0  0  0  0  0  0
   91.8367   11.2307  130.8452 O   0  0  0  0  0  0  0  0  0  0  0  0
   92.8888   12.0276  133.6053 H   0  0  0  0  0  0  0  0  0  0  0  0
  8  7  1  0  0  0
  7  2  2  0  0  0
  7  1  1  0  0  0
  2  3  1  0  0  0
  1  5  2  0  0  0
 12 10  2  0  0  0
  3 10  1  0  0  0
  3  4  2  0  0  0
 10 11  1  0  0  0
  5  4  1  0  0  0
  4  6  1  0  0  0
 11 13  1  0  0  0
  6  9  1  0  0  0
M  END
> <minimizedAffinity>
-7.08955

$$$$
5CSP_54G_A_401


 13 13  0  0  0  0  0  0  0  0999 V2000
   93.1192   15.5986  130.2714 C   0  0  0  0  0  0  0  0  0  0  0  0
   92.9590   14.8579  132.5311 C   0  0  0  0  0  0  0  0  0  0  0  0
   92.6946   13.5498  132.1050 C   0  0  0  0  0  0  0  0  0  0  0  0
   92.6128   13.2933  130.7247 C   0  0  0  0  0  0  0  0  0  0  0  0
   92.8436   14.3193  129.8195 C   0  0  0  0  0  0  0  0  0  0  0  0
   92.3740   12.0453  130.2289 O   0  0  0  0  0  0  0  0  0  0  0  0
   93.1641   15.8936  131.6289 C   0  0  0  0  0  0  0  0  0  0  0  0
   93.3492   17.3066  132.1088 C   0  0  0  0  0  0  0  0  0  0  0  0
   92.2146   11.3312  130.8143 H   0  0  0  0  0  0  0  0  0  0  0  0
   92.5093   12.4376  133.0888 C   0  0  0  0  0  0  0  0  0  0  0  0
   92.4927   11.2713  132.7328 O   0  0  0  0  0  0  0  0  0  0  0  0
   92.3539   12.8092  134.3224 O   0  0  0  0  0  0  0  0  0  0  0  0
   92.6099   11.0558  131.8285 H   0  0  0  0  0  0  0  0  0  0  0  0
  8  7  1  0  0  0
  7  2  2  0  0  0
  7  1  1  0  0  0
  2  3  1  0  0  0
  1  5  2  0  0  0
 12 10  2  0  0  0
  3 10  1  0  0  0
  3  4  2  0  0  0
 10 11  1  0  0  0
  5  4  1  0  0  0
  4  6  1  0  0  0
 11 13  1  0  0  0
  6  9  1  0  0  0
M  END
> <minimizedAffinity>
-6.97319

$$$$
5CSP_54G_A_401


 13 13  0  0  0  0  0  0  0  0999 V2000
   92.7176   13.0060  130.0824 C   0  0  0  0  0  0  0  0  0  0  0  0
   93.0446   14.8399  131.5691 C   0  0  0  0  0  0  0  0  0  0  0  0
   92.7399   14.0285  132.6697 C   0  0  0  0  0  0  0  0  0  0  0  0
   92.3866   12.6866  132.4414 C   0  0  0  0  0  0  0  0  0  0  0  0
   92.3958   12.1831  131.1484 C   0  0  0  0  0  0  0  0  0  0  0  0
   92.0908   11.8282  133.4593 O   0  0  0  0  0  0  0  0  0  0  0  0
   93.0290   14.3474  130.2707 C   0  0  0  0  0  0  0  0  0  0  0  0
   93.2638   15.2599  129.0988 C   0  0  0  0  0  0  0  0  0  0  0  0
   92.0764   12.1374  134.3436 H   0  0  0  0  0  0  0  0  0  0  0  0
   92.7938   14.5649  134.0656 C   0  0  0  0  0  0  0  0  0  0  0  0
   92.8157   13.8204  135.0314 O   0  0  0  0  0  0  0  0  0  0  0  0
   92.7979   15.8589  134.1621 O   0  0  0  0  0  0  0  0  0  0  0  0
   92.8114   12.8917  134.9072 H   0  0  0  0  0  0  0  0  0  0  0  0
  8  7  1  0  0  0
  7  2  2  0  0  0
  7  1  1  0  0  0
  2  3  1  0  0  0
  1  5  2  0  0  0
 12 10  2  0  0  0
  3 10  1  0  0  0
  3  4  2  0  0  0
 10 11  1  0  0  0
  5  4  1  0  0  0
  4  6  1  0  0  0
 11 13  1  0  0  0
  6  9  1  0  0  0
M  END
> <minimizedAffinity>
-6.95746

$$$$
5CSP_54G_A_401


 13 13  0  0  0  0  0  0  0  0999 V2000
   93.0794   16.1657  131.2092 C   0  0  0  0  0  0  0  0  0  0  0  0
   92.9198   13.7877  131.1941 C   0  0  0  0  0  0  0  0  0  0  0  0
   92.7246   13.7715  132.5812 C   0  0  0  0  0  0  0  0  0  0  0  0
   92.7450   14.9920  133.2797 C   0  0  0  0  0  0  0  0  0  0  0  0
   92.9054   16.1810  132.5827 C   0  0  0  0  0  0  0  0  0  0  0  0
   92.5483   15.0629  134.6275 O   0  0  0  0  0  0  0  0  0  0  0  0
   93.1075   14.9733  130.4956 C   0  0  0  0  0  0  0  0  0  0  0  0
   93.4122   14.9588  129.0232 C   0  0  0  0  0  0  0  0  0  0  0  0
   92.4367   14.2778  135.1266 H   0  0  0  0  0  0  0  0  0  0  0  0
   92.4900   12.4888  133.3152 C   0  0  0  0  0  0  0  0  0  0  0  0
   92.3281   12.4695  134.5239 O   0  0  0  0  0  0  0  0  0  0  0  0
   92.4903   11.4207  132.5782 O   0  0  0  0  0  0  0  0  0  0  0  0
   92.3366   13.2701  135.0106 H   0  0  0  0  0  0  0  0  0  0  0  0
  8  7  1  0  0  0
  7  2  2  0  0  0
  7  1  1  0  0  0
  2  3  1  0  0  0
  1  5  2  0  0  0
 12 10  2  0  0  0
  3 10  1  0  0  0
  3  4  2  0  0  0
 10 11  1  0  0  0
  5  4  1  0  0  0
  4  6  1  0  0  0
 11 13  1  0  0  0
  6  9  1  0  0  0
M  END
> <minimizedAffinity>
-6.79791

$$$$
5CSP_54G_A_401


 13 13  0  0  0  0  0  0  0  0999 V2000
   92.9368   14.1120  129.7371 C   0  0  0  0  0  0  0  0  0  0  0  0
   92.5713   14.2819  132.0862 C   0  0  0  0  0  0  0  0  0  0  0  0
   92.8487   15.6546  132.0507 C   0  0  0  0  0  0  0  0  0  0  0  0
   93.2086   16.2387  130.8231 C   0  0  0  0  0  0  0  0  0  0  0  0
   93.2322   15.4631  129.6729 C   0  0  0  0  0  0  0  0  0  0  0  0
   93.4792   17.5701  130.7019 O   0  0  0  0  0  0  0  0  0  0  0  0
   92.6198   13.4961  130.9421 C   0  0  0  0  0  0  0  0  0  0  0  0
   92.4140   12.0087  131.0211 C   0  0  0  0  0  0  0  0  0  0  0  0
   93.4711   18.1208  131.4599 H   0  0  0  0  0  0  0  0  0  0  0  0
   92.7593   16.4947  133.2858 C   0  0  0  0  0  0  0  0  0  0  0  0
   92.7192   17.7121  133.2239 O   0  0  0  0  0  0  0  0  0  0  0  0
   92.7457   15.8363  134.4039 O   0  0  0  0  0  0  0  0  0  0  0  0
   92.7315   18.1395  132.3902 H   0  0  0  0  0  0  0  0  0  0  0  0
  8  7  1  0  0  0
  7  2  2  0  0  0
  7  1  1  0  0  0
  2  3  1  0  0  0
  1  5  2  0  0  0
 12 10  2  0  0  0
  3 10  1  0  0  0
  3  4  2  0  0  0
 10 11  1  0  0  0
  5  4  1  0  0  0
  4  6  1  0  0  0
 11 13  1  0  0  0
  6  9  1  0  0  0
M  END
> <minimizedAffinity>
-6.53318

$$$$
5CSP_54G_A_401


 13 13  0  0  0  0  0  0  0  0999 V2000
   92.6348   12.7962  131.4089 C   0  0  0  0  0  0  0  0  0  0  0  0
   92.7800   14.8721  132.5708 C   0  0  0  0  0  0  0  0  0  0  0  0
   92.9910   15.5551  131.3660 C   0  0  0  0  0  0  0  0  0  0  0  0
   93.0544   14.8140  130.1725 C   0  0  0  0  0  0  0  0  0  0  0  0
   92.8580   13.4408  130.2041 C   0  0  0  0  0  0  0  0  0  0  0  0
   93.2418   15.4050  128.9576 O   0  0  0  0  0  0  0  0  0  0  0  0
   92.6096   13.4944  132.6105 C   0  0  0  0  0  0  0  0  0  0  0  0
   92.4822   12.7724  133.9233 C   0  0  0  0  0  0  0  0  0  0  0  0
   93.3770   16.3306  128.9027 H   0  0  0  0  0  0  0  0  0  0  0  0
   93.1392   17.0438  131.3356 C   0  0  0  0  0  0  0  0  0  0  0  0
   93.9827   17.6117  132.0090 O   0  0  0  0  0  0  0  0  0  0  0  0
   92.3033   17.6682  130.5640 O   0  0  0  0  0  0  0  0  0  0  0  0
   94.5631   17.1138  132.5504 H   0  0  0  0  0  0  0  0  0  0  0  0
  8  7  1  0  0  0
  7  2  2  0  0  0
  7  1  1  0  0  0
  2  3  1  0  0  0
  1  5  2  0  0  0
 12 10  2  0  0  0
  3 10  1  0  0  0
  3  4  2  0  0  0
 10 11  1  0  0  0
  5  4  1  0  0  0
  4  6  1  0  0  0
 11 13  1  0  0  0
  6  9  1  0  0  0
M  END
> <minimizedAffinity>
-6.40233

$$$$
5CSP_54G_A_401


 13 13  0  0  0  0  0  0  0  0999 V2000
   92.9061   14.5959  131.3900 C   0  0  0  0  0  0  0  0  0  0  0  0
   92.1584   12.9619  132.9558 C   0  0  0  0  0  0  0  0  0  0  0  0
   92.2815   13.8816  134.0054 C   0  0  0  0  0  0  0  0  0  0  0  0
   92.7621   15.1718  133.7189 C   0  0  0  0  0  0  0  0  0  0  0  0
   93.0539   15.5222  132.4084 C   0  0  0  0  0  0  0  0  0  0  0  0
   92.8968   16.1289  134.6814 O   0  0  0  0  0  0  0  0  0  0  0  0
   92.4747   13.2997  131.6464 C   0  0  0  0  0  0  0  0  0  0  0  0
   92.4279   12.2685  130.5530 C   0  0  0  0  0  0  0  0  0  0  0  0
   92.7074   15.9238  135.5758 H   0  0  0  0  0  0  0  0  0  0  0  0
   91.9047   13.5132  135.4058 C   0  0  0  0  0  0  0  0  0  0  0  0
   92.4383   12.5802  135.9823 O   0  0  0  0  0  0  0  0  0  0  0  0
   90.9719   14.2412  135.9384 O   0  0  0  0  0  0  0  0  0  0  0  0
   93.1080   12.0853  135.5526 H   0  0  0  0  0  0  0  0  0  0  0  0
  8  7  1  0  0  0
  7  2  2  0  0  0
  7  1  1  0  0  0
  2  3  1  0  0  0
  1  5  2  0  0  0
 12 10  2  0  0  0
  3 10  1  0  0  0
  3  4  2  0  0  0
 10 11  1  0  0  0
  5  4  1  0  0  0
  4  6  1  0  0  0
 11 13  1  0  0  0
  6  9  1  0  0  0
M  END
> <minimizedAffinity>
-6.39607

$$$$
5CSP_54G_A_401


 13 13  0  0  0  0  0  0  0  0999 V2000
   92.9935   14.2858  130.6896 C   0  0  0  0  0  0  0  0  0  0  0  0
   92.6659   15.0929  132.9082 C   0  0  0  0  0  0  0  0  0  0  0  0
   92.4673   13.7874  133.3757 C   0  0  0  0  0  0  0  0  0  0  0  0
   92.5045   12.7271  132.4525 C   0  0  0  0  0  0  0  0  0  0  0  0
   92.7850   12.9860  131.1185 C   0  0  0  0  0  0  0  0  0  0  0  0
   92.3356   11.4272  132.8294 O   0  0  0  0  0  0  0  0  0  0  0  0
   92.9204   15.3596  131.5692 C   0  0  0  0  0  0  0  0  0  0  0  0
   93.0333   16.7751  131.0745 C   0  0  0  0  0  0  0  0  0  0  0  0
   92.1452   11.2195  133.7230 H   0  0  0  0  0  0  0  0  0  0  0  0
   92.2275   13.5127  134.8270 C   0  0  0  0  0  0  0  0  0  0  0  0
   92.9360   12.7420  135.4527 O   0  0  0  0  0  0  0  0  0  0  0  0
   91.2156   14.1352  135.3489 O   0  0  0  0  0  0  0  0  0  0  0  0
   93.6554   12.3175  135.0284 H   0  0  0  0  0  0  0  0  0  0  0  0
  8  7  1  0  0  0
  7  2  2  0  0  0
  7  1  1  0  0  0
  2  3  1  0  0  0
  1  5  2  0  0  0
 12 10  2  0  0  0
  3 10  1  0  0  0
  3  4  2  0  0  0
 10 11  1  0  0  0
  5  4  1  0  0  0
  4  6  1  0  0  0
 11 13  1  0  0  0
  6  9  1  0  0  0
M  END
> <minimizedAffinity>
-6.36255

$$$$
5CSP_54G_A_401


 13 13  0  0  0  0  0  0  0  0999 V2000
   92.3809   14.2944  134.7384 C   0  0  0  0  0  0  0  0  0  0  0  0
   92.7215   14.9901  132.4843 C   0  0  0  0  0  0  0  0  0  0  0  0
   92.7029   13.6587  132.0490 C   0  0  0  0  0  0  0  0  0  0  0  0
   92.5518   12.6383  133.0049 C   0  0  0  0  0  0  0  0  0  0  0  0
   92.3746   12.9681  134.3410 C   0  0  0  0  0  0  0  0  0  0  0  0
   92.5089   11.3191  132.6612 O   0  0  0  0  0  0  0  0  0  0  0  0
   92.5714   15.3237  133.8240 C   0  0  0  0  0  0  0  0  0  0  0  0
   92.6922   16.7517  134.2795 C   0  0  0  0  0  0  0  0  0  0  0  0
   92.6249   11.0639  131.7671 H   0  0  0  0  0  0  0  0  0  0  0  0
   92.8320   13.3166  130.5980 C   0  0  0  0  0  0  0  0  0  0  0  0
   92.3822   12.2759  130.1486 O   0  0  0  0  0  0  0  0  0  0  0  0
   93.4632   14.1913  129.8766 O   0  0  0  0  0  0  0  0  0  0  0  0
   91.9339   11.6770  130.7128 H   0  0  0  0  0  0  0  0  0  0  0  0
  8  7  1  0  0  0
  7  2  2  0  0  0
  7  1  1  0  0  0
  2  3  1  0  0  0
  1  5  2  0  0  0
 12 10  2  0  0  0
  3 10  1  0  0  0
  3  4  2  0  0  0
 10 11  1  0  0  0
  5  4  1  0  0  0
  4  6  1  0  0  0
 11 13  1  0  0  0
  6  9  1  0  0  0
M  END
> <minimizedAffinity>
-6.31708

$$$$
5CSP_54G_A_401


 13 13  0  0  0  0  0  0  0  0999 V2000
   92.4817   12.3245  132.9404 C   0  0  0  0  0  0  0  0  0  0  0  0
   92.8136   14.6495  133.3463 C   0  0  0  0  0  0  0  0  0  0  0  0
   92.9381   14.8925  131.9722 C   0  0  0  0  0  0  0  0  0  0  0  0
   92.8621   13.8041  131.0850 C   0  0  0  0  0  0  0  0  0  0  0  0
   92.6169   12.5304  131.5780 C   0  0  0  0  0  0  0  0  0  0  0  0
   92.9587   13.9585  129.7332 O   0  0  0  0  0  0  0  0  0  0  0  0
   92.5948   13.3726  133.8464 C   0  0  0  0  0  0  0  0  0  0  0  0
   92.5620   13.1219  135.3287 C   0  0  0  0  0  0  0  0  0  0  0  0
   93.1238   14.8059  129.3691 H   0  0  0  0  0  0  0  0  0  0  0  0
   93.1400   16.2788  131.4463 C   0  0  0  0  0  0  0  0  0  0  0  0
   92.9901   16.5372  130.2638 O   0  0  0  0  0  0  0  0  0  0  0  0
   93.4965   17.1601  132.3295 O   0  0  0  0  0  0  0  0  0  0  0  0
   92.7313   15.8636  129.6662 H   0  0  0  0  0  0  0  0  0  0  0  0
  8  7  1  0  0  0
  7  2  2  0  0  0
  7  1  1  0  0  0
  2  3  1  0  0  0
  1  5  2  0  0  0
 12 10  2  0  0  0
  3 10  1  0  0  0
  3  4  2  0  0  0
 10 11  1  0  0  0
  5  4  1  0  0  0
  4  6  1  0  0  0
 11 13  1  0  0  0
  6  9  1  0  0  0
M  END
> <minimizedAffinity>
-6.20140

$$$$
