1WM1_PTB_A_401


 17 18  0  0  0  0  0  0  0  0999 V2000
   21.5084    1.2975   -8.8027 C   0  0  0  0  0  0  0  0  0  0  0  0
   21.3783    2.6268   -8.6285 N   0  0  0  0  0  0  0  0  0  0  0  0
   22.2809    3.2496   -9.3555 N   0  0  0  0  0  0  0  0  0  0  0  0
   23.0346    2.3436  -10.0308 C   0  0  0  0  0  0  0  0  0  0  0  0
   22.5713    1.0484   -9.7067 O   0  0  0  0  0  0  0  0  0  0  0  0
   24.1844    2.5105  -10.9830 C   0  0  0  0  0  0  0  0  0  0  0  0
   24.8608    3.8531  -10.7091 C   0  0  0  0  0  0  0  0  0  0  0  0
   23.6569    2.4906  -12.4128 C   0  0  0  0  0  0  0  0  0  0  0  0
   25.1828    1.3711  -10.7860 C   0  0  0  0  0  0  0  0  0  0  0  0
   20.7641    0.1953   -8.2189 C   0  0  0  0  0  0  0  0  0  0  0  0
   21.3007   -0.8218   -7.8212 O   0  0  0  0  0  0  0  0  0  0  0  0
   18.5026   -0.4000   -9.1187 N   0  0  0  0  0  0  0  0  0  0  0  0
   19.2641    0.4174   -8.1138 C   0  0  0  0  0  0  0  0  0  0  0  0
   18.6867    0.1034   -6.7325 C   0  0  0  0  0  0  0  0  0  0  0  0
   17.2971   -0.4309   -6.9818 C   0  0  0  0  0  0  0  0  0  0  0  0
   17.2980   -0.9615   -8.4087 C   0  0  0  0  0  0  0  0  0  0  0  0
   19.0879   -1.1584   -9.4689 H   0  0  0  0  0  0  0  0  0  0  0  0
 12 13  1  0  0  0
 12 16  1  0  0  0
 13 10  1  0  0  0
 13 14  1  0  0  0
 10 11  2  0  0  0
 10  1  1  0  0  0
 14 15  1  0  0  0
 15 16  1  0  0  0
  1  2  2  0  0  0
  1  5  1  0  0  0
  2  3  1  0  0  0
  3  4  2  0  0  0
  4  5  1  0  0  0
  4  6  1  0  0  0
  6  7  1  0  0  0
  6  8  1  0  0  0
  6  9  1  0  0  0
 12 17  1  0  0  0
M  END
> <minimizedAffinity>
-7.78586

$$$$
1WM1_PTB_A_401


 17 18  0  0  0  0  0  0  0  0999 V2000
   24.2541    1.9340   -9.4293 C   0  0  0  0  0  0  0  0  0  0  0  0
   24.0273    2.1408   -8.1177 N   0  0  0  0  0  0  0  0  0  0  0  0
   25.1738    2.1274   -7.4723 N   0  0  0  0  0  0  0  0  0  0  0  0
   26.1918    1.9092   -8.3448 C   0  0  0  0  0  0  0  0  0  0  0  0
   25.6465    1.7763   -9.6417 O   0  0  0  0  0  0  0  0  0  0  0  0
   27.6761    1.7986   -8.1421 C   0  0  0  0  0  0  0  0  0  0  0  0
   28.2320    3.1809   -7.8024 C   0  0  0  0  0  0  0  0  0  0  0  0
   28.3206    1.2947   -9.4281 C   0  0  0  0  0  0  0  0  0  0  0  0
   27.9668    0.8228   -7.0032 C   0  0  0  0  0  0  0  0  0  0  0  0
   23.3249    1.8510  -10.5426 C   0  0  0  0  0  0  0  0  0  0  0  0
   22.3955    1.0660  -10.5652 O   0  0  0  0  0  0  0  0  0  0  0  0
   24.4806    3.9632  -11.2363 N   0  0  0  0  0  0  0  0  0  0  0  0
   23.5814    2.8396  -11.6684 C   0  0  0  0  0  0  0  0  0  0  0  0
   24.2000    2.2092  -12.9173 C   0  0  0  0  0  0  0  0  0  0  0  0
   25.1018    3.2671  -13.5057 C   0  0  0  0  0  0  0  0  0  0  0  0
   25.4533    4.2072  -12.3609 C   0  0  0  0  0  0  0  0  0  0  0  0
   24.9839    3.7026  -10.3883 H   0  0  0  0  0  0  0  0  0  0  0  0
 12 13  1  0  0  0
 12 16  1  0  0  0
 13 10  1  0  0  0
 13 14  1  0  0  0
 10 11  2  0  0  0
 10  1  1  0  0  0
 14 15  1  0  0  0
 15 16  1  0  0  0
  1  2  2  0  0  0
  1  5  1  0  0  0
  2  3  1  0  0  0
  3  4  2  0  0  0
  4  5  1  0  0  0
  4  6  1  0  0  0
  6  7  1  0  0  0
  6  8  1  0  0  0
  6  9  1  0  0  0
 12 17  1  0  0  0
M  END
> <minimizedAffinity>
-7.30857

$$$$
1WM1_PTB_A_401


 17 18  0  0  0  0  0  0  0  0999 V2000
   21.7172    0.7074   -8.4411 C   0  0  0  0  0  0  0  0  0  0  0  0
   21.8381   -0.5445   -7.9591 N   0  0  0  0  0  0  0  0  0  0  0  0
   20.6523   -0.9865   -7.5988 N   0  0  0  0  0  0  0  0  0  0  0  0
   19.7137   -0.0331   -7.8335 C   0  0  0  0  0  0  0  0  0  0  0  0
   20.3558    1.0979   -8.3865 O   0  0  0  0  0  0  0  0  0  0  0  0
   18.2288   -0.0146   -7.6073 C   0  0  0  0  0  0  0  0  0  0  0  0
   17.5754   -1.0367   -8.5364 C   0  0  0  0  0  0  0  0  0  0  0  0
   17.6915    1.3759   -7.9250 C   0  0  0  0  0  0  0  0  0  0  0  0
   17.9276   -0.3631   -6.1506 C   0  0  0  0  0  0  0  0  0  0  0  0
   22.7255    1.6200   -8.9513 C   0  0  0  0  0  0  0  0  0  0  0  0
   23.5720    1.2799   -9.7564 O   0  0  0  0  0  0  0  0  0  0  0  0
   23.6886    3.3400   -7.4047 N   0  0  0  0  0  0  0  0  0  0  0  0
   22.6279    3.0433   -8.4267 C   0  0  0  0  0  0  0  0  0  0  0  0
   22.7261    4.1130   -9.5158 C   0  0  0  0  0  0  0  0  0  0  0  0
   23.4249    5.2872   -8.8743 C   0  0  0  0  0  0  0  0  0  0  0  0
   24.2147    4.7202   -7.7027 C   0  0  0  0  0  0  0  0  0  0  0  0
   24.4420    2.6558   -7.4731 H   0  0  0  0  0  0  0  0  0  0  0  0
 12 13  1  0  0  0
 12 16  1  0  0  0
 13 10  1  0  0  0
 13 14  1  0  0  0
 10 11  2  0  0  0
 10  1  1  0  0  0
 14 15  1  0  0  0
 15 16  1  0  0  0
  1  2  2  0  0  0
  1  5  1  0  0  0
  2  3  1  0  0  0
  3  4  2  0  0  0
  4  5  1  0  0  0
  4  6  1  0  0  0
  6  7  1  0  0  0
  6  8  1  0  0  0
  6  9  1  0  0  0
 12 17  1  0  0  0
M  END
> <minimizedAffinity>
-7.18598

$$$$
1WM1_PTB_A_401


 17 18  0  0  0  0  0  0  0  0999 V2000
   21.9993    1.9684   -8.6883 C   0  0  0  0  0  0  0  0  0  0  0  0
   22.4269    0.6914   -8.7141 N   0  0  0  0  0  0  0  0  0  0  0  0
   21.4457   -0.1018   -8.3408 N   0  0  0  0  0  0  0  0  0  0  0  0
   20.3401    0.6344   -8.0565 C   0  0  0  0  0  0  0  0  0  0  0  0
   20.6460    1.9978   -8.2681 O   0  0  0  0  0  0  0  0  0  0  0  0
   18.9678    0.2388   -7.5911 C   0  0  0  0  0  0  0  0  0  0  0  0
   18.2422    1.4830   -7.0807 C   0  0  0  0  0  0  0  0  0  0  0  0
   19.0958   -0.7739   -6.4592 C   0  0  0  0  0  0  0  0  0  0  0  0
   18.1915   -0.3810   -8.7519 C   0  0  0  0  0  0  0  0  0  0  0  0
   22.7007    3.2014   -9.0007 C   0  0  0  0  0  0  0  0  0  0  0  0
   22.4968    4.2421   -8.4042 O   0  0  0  0  0  0  0  0  0  0  0  0
   24.7584    2.0309   -9.8216 N   0  0  0  0  0  0  0  0  0  0  0  0
   23.7324    3.0898  -10.1113 C   0  0  0  0  0  0  0  0  0  0  0  0
   23.1329    2.7861  -11.4854 C   0  0  0  0  0  0  0  0  0  0  0  0
   24.1538    1.9321  -12.1976 C   0  0  0  0  0  0  0  0  0  0  0  0
   24.9956    1.2828  -11.1079 C   0  0  0  0  0  0  0  0  0  0  0  0
   24.4113    1.3937   -9.1048 H   0  0  0  0  0  0  0  0  0  0  0  0
 12 13  1  0  0  0
 12 16  1  0  0  0
 13 10  1  0  0  0
 13 14  1  0  0  0
 10 11  2  0  0  0
 10  1  1  0  0  0
 14 15  1  0  0  0
 15 16  1  0  0  0
  1  2  2  0  0  0
  1  5  1  0  0  0
  2  3  1  0  0  0
  3  4  2  0  0  0
  4  5  1  0  0  0
  4  6  1  0  0  0
  6  7  1  0  0  0
  6  8  1  0  0  0
  6  9  1  0  0  0
 12 17  1  0  0  0
M  END
> <minimizedAffinity>
-7.14332

$$$$
1WM1_PTB_A_401


 17 18  0  0  0  0  0  0  0  0999 V2000
   23.9268    1.6155   -9.8497 C   0  0  0  0  0  0  0  0  0  0  0  0
   24.1002    1.0047  -11.0376 N   0  0  0  0  0  0  0  0  0  0  0  0
   25.3500    1.1512  -11.4219 N   0  0  0  0  0  0  0  0  0  0  0  0
   26.0371    1.8669  -10.4941 C   0  0  0  0  0  0  0  0  0  0  0  0
   25.1535    2.1964   -9.4415 O   0  0  0  0  0  0  0  0  0  0  0  0
   27.4695    2.3158  -10.4369 C   0  0  0  0  0  0  0  0  0  0  0  0
   27.5647    3.5489   -9.5395 C   0  0  0  0  0  0  0  0  0  0  0  0
   27.9382    2.6738  -11.8423 C   0  0  0  0  0  0  0  0  0  0  0  0
   28.3373    1.1909   -9.8751 C   0  0  0  0  0  0  0  0  0  0  0  0
   22.7394    1.7447   -9.0232 C   0  0  0  0  0  0  0  0  0  0  0  0
   21.9580    0.8285   -8.8484 O   0  0  0  0  0  0  0  0  0  0  0  0
   23.6444    3.3959   -7.3701 N   0  0  0  0  0  0  0  0  0  0  0  0
   22.5585    3.1037   -8.3667 C   0  0  0  0  0  0  0  0  0  0  0  0
   22.5164    4.2691   -9.3566 C   0  0  0  0  0  0  0  0  0  0  0  0
   23.1539    5.4361   -8.6422 C   0  0  0  0  0  0  0  0  0  0  0  0
   24.0451    4.8355   -7.5637 C   0  0  0  0  0  0  0  0  0  0  0  0
   24.4443    2.7847   -7.5344 H   0  0  0  0  0  0  0  0  0  0  0  0
 12 13  1  0  0  0
 12 16  1  0  0  0
 13 10  1  0  0  0
 13 14  1  0  0  0
 10 11  2  0  0  0
 10  1  1  0  0  0
 14 15  1  0  0  0
 15 16  1  0  0  0
  1  2  2  0  0  0
  1  5  1  0  0  0
  2  3  1  0  0  0
  3  4  2  0  0  0
  4  5  1  0  0  0
  4  6  1  0  0  0
  6  7  1  0  0  0
  6  8  1  0  0  0
  6  9  1  0  0  0
 12 17  1  0  0  0
M  END
> <minimizedAffinity>
-7.04488

$$$$
1WM1_PTB_A_401


 17 18  0  0  0  0  0  0  0  0999 V2000
   21.8982    1.9846   -8.6796 C   0  0  0  0  0  0  0  0  0  0  0  0
   22.3681    0.7228   -8.7162 N   0  0  0  0  0  0  0  0  0  0  0  0
   21.4204   -0.1040   -8.3297 N   0  0  0  0  0  0  0  0  0  0  0  0
   20.2954    0.5938   -8.0253 C   0  0  0  0  0  0  0  0  0  0  0  0
   20.5517    1.9672   -8.2376 O   0  0  0  0  0  0  0  0  0  0  0  0
   18.9449    0.1510   -7.5390 C   0  0  0  0  0  0  0  0  0  0  0  0
   18.2038    1.3608   -6.9715 C   0  0  0  0  0  0  0  0  0  0  0  0
   19.1251   -0.8932   -6.4434 C   0  0  0  0  0  0  0  0  0  0  0  0
   18.1540   -0.4507   -8.6994 C   0  0  0  0  0  0  0  0  0  0  0  0
   22.5525    3.2413   -8.9995 C   0  0  0  0  0  0  0  0  0  0  0  0
   21.9660    4.1745   -9.5149 O   0  0  0  0  0  0  0  0  0  0  0  0
   24.3200    2.5236   -7.3750 N   0  0  0  0  0  0  0  0  0  0  0  0
   24.0214    3.3166   -8.6158 C   0  0  0  0  0  0  0  0  0  0  0  0
   24.9733    2.8333   -9.7112 C   0  0  0  0  0  0  0  0  0  0  0  0
   26.1380    2.1988   -8.9904 C   0  0  0  0  0  0  0  0  0  0  0  0
   25.6168    1.7958   -7.6179 C   0  0  0  0  0  0  0  0  0  0  0  0
   23.5707    1.8544   -7.1983 H   0  0  0  0  0  0  0  0  0  0  0  0
 12 13  1  0  0  0
 12 16  1  0  0  0
 13 10  1  0  0  0
 13 14  1  0  0  0
 10 11  2  0  0  0
 10  1  1  0  0  0
 14 15  1  0  0  0
 15 16  1  0  0  0
  1  2  2  0  0  0
  1  5  1  0  0  0
  2  3  1  0  0  0
  3  4  2  0  0  0
  4  5  1  0  0  0
  4  6  1  0  0  0
  6  7  1  0  0  0
  6  8  1  0  0  0
  6  9  1  0  0  0
 12 17  1  0  0  0
M  END
> <minimizedAffinity>
-6.92986

$$$$
1WM1_PTB_A_401


 17 18  0  0  0  0  0  0  0  0999 V2000
   25.4068    3.7021   -8.3052 C   0  0  0  0  0  0  0  0  0  0  0  0
   25.5264    4.6185   -7.3253 N   0  0  0  0  0  0  0  0  0  0  0  0
   25.6760    5.8103   -7.8624 N   0  0  0  0  0  0  0  0  0  0  0  0
   25.6603    5.7111   -9.2171 C   0  0  0  0  0  0  0  0  0  0  0  0
   25.4854    4.3519   -9.5624 O   0  0  0  0  0  0  0  0  0  0  0  0
   25.7918    6.7467  -10.2972 C   0  0  0  0  0  0  0  0  0  0  0  0
   24.5475    7.6335  -10.2845 C   0  0  0  0  0  0  0  0  0  0  0  0
   25.9042    6.0496  -11.6479 C   0  0  0  0  0  0  0  0  0  0  0  0
   27.0399    7.5918  -10.0479 C   0  0  0  0  0  0  0  0  0  0  0  0
   25.2342    2.2618   -8.2299 C   0  0  0  0  0  0  0  0  0  0  0  0
   25.7463    1.5837   -7.3590 O   0  0  0  0  0  0  0  0  0  0  0  0
   23.2151    2.5882   -9.6772 N   0  0  0  0  0  0  0  0  0  0  0  0
   24.3405    1.6649   -9.3048 C   0  0  0  0  0  0  0  0  0  0  0  0
   25.0804    1.2983  -10.5924 C   0  0  0  0  0  0  0  0  0  0  0  0
   24.0968    1.5380  -11.7120 C   0  0  0  0  0  0  0  0  0  0  0  0
   23.0848    2.5421  -11.1777 C   0  0  0  0  0  0  0  0  0  0  0  0
   23.4266    3.5386   -9.3731 H   0  0  0  0  0  0  0  0  0  0  0  0
 12 13  1  0  0  0
 12 16  1  0  0  0
 13 10  1  0  0  0
 13 14  1  0  0  0
 10 11  2  0  0  0
 10  1  1  0  0  0
 14 15  1  0  0  0
 15 16  1  0  0  0
  1  2  2  0  0  0
  1  5  1  0  0  0
  2  3  1  0  0  0
  3  4  2  0  0  0
  4  5  1  0  0  0
  4  6  1  0  0  0
  6  7  1  0  0  0
  6  8  1  0  0  0
  6  9  1  0  0  0
 12 17  1  0  0  0
M  END
> <minimizedAffinity>
-6.74819

$$$$
1WM1_PTB_A_401


 17 18  0  0  0  0  0  0  0  0999 V2000
   26.2257    2.1637   -8.5841 C   0  0  0  0  0  0  0  0  0  0  0  0
   25.6010    1.9892   -7.4037 N   0  0  0  0  0  0  0  0  0  0  0  0
   24.5427    2.7694   -7.3539 N   0  0  0  0  0  0  0  0  0  0  0  0
   24.4414    3.4834   -8.5049 C   0  0  0  0  0  0  0  0  0  0  0  0
   25.5179    3.1254   -9.3477 O   0  0  0  0  0  0  0  0  0  0  0  0
   23.4402    4.5052   -8.9631 C   0  0  0  0  0  0  0  0  0  0  0  0
   22.0662    3.8428   -9.0551 C   0  0  0  0  0  0  0  0  0  0  0  0
   23.8467    5.0229  -10.3378 C   0  0  0  0  0  0  0  0  0  0  0  0
   23.3976    5.6636   -7.9679 C   0  0  0  0  0  0  0  0  0  0  0  0
   27.4313    1.5475   -9.1102 C   0  0  0  0  0  0  0  0  0  0  0  0
   28.3106    1.1078   -8.3933 O   0  0  0  0  0  0  0  0  0  0  0  0
   26.1627    1.1591  -11.2358 N   0  0  0  0  0  0  0  0  0  0  0  0
   27.5016    1.4653  -10.6264 C   0  0  0  0  0  0  0  0  0  0  0  0
   28.0301    2.7372  -11.2918 C   0  0  0  0  0  0  0  0  0  0  0  0
   27.3028    2.8417  -12.6104 C   0  0  0  0  0  0  0  0  0  0  0  0
   26.0181    2.0409  -12.4490 C   0  0  0  0  0  0  0  0  0  0  0  0
   25.4193    1.3593  -10.5667 H   0  0  0  0  0  0  0  0  0  0  0  0
 12 13  1  0  0  0
 12 16  1  0  0  0
 13 10  1  0  0  0
 13 14  1  0  0  0
 10 11  2  0  0  0
 10  1  1  0  0  0
 14 15  1  0  0  0
 15 16  1  0  0  0
  1  2  2  0  0  0
  1  5  1  0  0  0
  2  3  1  0  0  0
  3  4  2  0  0  0
  4  5  1  0  0  0
  4  6  1  0  0  0
  6  7  1  0  0  0
  6  8  1  0  0  0
  6  9  1  0  0  0
 12 17  1  0  0  0
M  END
> <minimizedAffinity>
-6.67214

$$$$
1WM1_PTB_A_401


 17 18  0  0  0  0  0  0  0  0999 V2000
   21.8958    1.5897   -8.7911 C   0  0  0  0  0  0  0  0  0  0  0  0
   21.1158    2.6262   -8.4284 N   0  0  0  0  0  0  0  0  0  0  0  0
   19.9685    2.1677   -7.9762 N   0  0  0  0  0  0  0  0  0  0  0  0
   19.9606    0.8105   -8.0299 C   0  0  0  0  0  0  0  0  0  0  0  0
   21.1994    0.3781   -8.5550 O   0  0  0  0  0  0  0  0  0  0  0  0
   18.9169   -0.1995   -7.6466 C   0  0  0  0  0  0  0  0  0  0  0  0
   19.6096   -1.4186   -7.0392 C   0  0  0  0  0  0  0  0  0  0  0  0
   18.1475   -0.6217   -8.8927 C   0  0  0  0  0  0  0  0  0  0  0  0
   17.9557    0.4166   -6.6314 C   0  0  0  0  0  0  0  0  0  0  0  0
   23.2353    1.5722   -9.3526 C   0  0  0  0  0  0  0  0  0  0  0  0
   23.4960    1.0351  -10.4128 O   0  0  0  0  0  0  0  0  0  0  0  0
   25.3894    1.3836   -8.0867 N   0  0  0  0  0  0  0  0  0  0  0  0
   24.2858    2.3014   -8.5308 C   0  0  0  0  0  0  0  0  0  0  0  0
   24.9330    3.4808   -9.2589 C   0  0  0  0  0  0  0  0  0  0  0  0
   26.3593    3.5321   -8.7676 C   0  0  0  0  0  0  0  0  0  0  0  0
   26.6850    2.1312   -8.2684 C   0  0  0  0  0  0  0  0  0  0  0  0
   25.3910    0.5369   -8.6555 H   0  0  0  0  0  0  0  0  0  0  0  0
 12 13  1  0  0  0
 12 16  1  0  0  0
 13 10  1  0  0  0
 13 14  1  0  0  0
 10 11  2  0  0  0
 10  1  1  0  0  0
 14 15  1  0  0  0
 15 16  1  0  0  0
  1  2  2  0  0  0
  1  5  1  0  0  0
  2  3  1  0  0  0
  3  4  2  0  0  0
  4  5  1  0  0  0
  4  6  1  0  0  0
  6  7  1  0  0  0
  6  8  1  0  0  0
  6  9  1  0  0  0
 12 17  1  0  0  0
M  END
> <minimizedAffinity>
-6.66482

$$$$
1WM1_PTB_A_401


 17 18  0  0  0  0  0  0  0  0999 V2000
   20.8039    1.5991   -8.3737 C   0  0  0  0  0  0  0  0  0  0  0  0
   21.5731    0.5158   -8.5953 N   0  0  0  0  0  0  0  0  0  0  0  0
   22.7543    0.9038   -9.0259 N   0  0  0  0  0  0  0  0  0  0  0  0
   22.7954    2.2594   -9.1012 C   0  0  0  0  0  0  0  0  0  0  0  0
   21.5442    2.7671   -8.6843 O   0  0  0  0  0  0  0  0  0  0  0  0
   23.8824    3.2048   -9.5269 C   0  0  0  0  0  0  0  0  0  0  0  0
   25.2235    2.6741   -9.0220 C   0  0  0  0  0  0  0  0  0  0  0  0
   23.6186    4.5772   -8.9188 C   0  0  0  0  0  0  0  0  0  0  0  0
   23.9015    3.3113  -11.0508 C   0  0  0  0  0  0  0  0  0  0  0  0
   19.4315    1.6987   -7.9083 C   0  0  0  0  0  0  0  0  0  0  0  0
   18.8232    2.7520   -7.8779 O   0  0  0  0  0  0  0  0  0  0  0  0
   17.8694    0.5524   -6.3195 N   0  0  0  0  0  0  0  0  0  0  0  0
   18.7987    0.3821   -7.4879 C   0  0  0  0  0  0  0  0  0  0  0  0
   18.0142   -0.3119   -8.6027 C   0  0  0  0  0  0  0  0  0  0  0  0
   16.8670   -1.0153   -7.9189 C   0  0  0  0  0  0  0  0  0  0  0  0
   16.6489   -0.2852   -6.6009 C   0  0  0  0  0  0  0  0  0  0  0  0
   17.6063    1.5330   -6.2214 H   0  0  0  0  0  0  0  0  0  0  0  0
 12 13  1  0  0  0
 12 16  1  0  0  0
 13 10  1  0  0  0
 13 14  1  0  0  0
 10 11  2  0  0  0
 10  1  1  0  0  0
 14 15  1  0  0  0
 15 16  1  0  0  0
  1  2  2  0  0  0
  1  5  1  0  0  0
  2  3  1  0  0  0
  3  4  2  0  0  0
  4  5  1  0  0  0
  4  6  1  0  0  0
  6  7  1  0  0  0
  6  8  1  0  0  0
  6  9  1  0  0  0
 12 17  1  0  0  0
M  END
> <minimizedAffinity>
-6.60128

$$$$
