5TA2_78X_A_300


 51 54  0  0  0  0  0  0  0  0999 V2000
   15.0076   -5.5771   13.6389 N   0  0  0  0  0  0  0  0  0  0  0  0
   15.7090   -5.6961   14.8654 N   0  0  0  0  0  0  0  0  0  0  0  0
   17.6461   -4.6303   13.7552 C   0  0  0  0  0  0  0  0  0  0  0  0
   16.7849   -4.4775   12.4964 C   0  0  0  0  0  0  0  0  0  0  0  0
   15.3131   -4.3649   12.8818 C   0  0  0  0  0  0  0  0  0  0  0  0
   17.1652   -5.7747   14.6556 C   0  0  0  0  0  0  0  0  0  0  0  0
   10.5266  -10.6055   16.4567 C   0  0  0  0  0  0  0  0  0  0  0  0
   10.3413  -11.3397   17.7869 C   0  0  0  0  0  0  0  0  0  0  0  0
    8.8770  -11.7817   17.9048 C   0  0  0  0  0  0  0  0  0  0  0  0
   10.7613  -10.4894   19.0167 C   0  0  0  0  0  0  0  0  0  0  0  0
   12.1393   -9.8191   18.8398 C   0  0  0  0  0  0  0  0  0  0  0  0
   13.3213  -10.6664   19.3273 C   0  0  0  0  0  0  0  0  0  0  0  0
   17.7929   -5.6203   16.0282 C   0  0  0  0  0  0  0  0  0  0  0  0
   19.4021   -6.5793   17.5191 C   0  0  0  0  0  0  0  0  0  0  0  0
   18.4714   -7.0901   18.6122 C   0  0  0  0  0  0  0  0  0  0  0  0
   17.3736   -7.9138   18.2911 C   0  0  0  0  0  0  0  0  0  0  0  0
   16.5019   -8.4040   19.2721 C   0  0  0  0  0  0  0  0  0  0  0  0
   16.7430   -8.0573   20.6026 C   0  0  0  0  0  0  0  0  0  0  0  0
   17.8237   -7.2443   20.9493 C   0  0  0  0  0  0  0  0  0  0  0  0
   18.6883   -6.7664   19.9608 C   0  0  0  0  0  0  0  0  0  0  0  0
   15.3598   -9.2607   18.8984 C   0  0  0  0  0  0  0  0  0  0  0  0
   14.4666   -9.7862   19.7559 C   0  0  0  0  0  0  0  0  0  0  0  0
   20.6978   -7.3748   17.3464 C   0  0  0  0  0  0  0  0  0  0  0  0
   10.9501  -11.1700   15.4522 O   0  0  0  0  0  0  0  0  0  0  0  0
   17.5185   -4.7458   16.8275 O   0  0  0  0  0  0  0  0  0  0  0  0
   18.7095   -6.6049   16.2409 O   0  0  0  0  0  0  0  0  0  0  0  0
   12.6406   -8.2452   14.3016 N   0  0  0  0  0  0  0  0  0  0  0  0
   14.0272   -7.7735   14.2536 C   0  0  0  0  0  0  0  0  0  0  0  0
   14.1383   -6.5930   13.2900 C   0  0  0  0  0  0  0  0  0  0  0  0
   13.5035   -6.5501   12.2329 O   0  0  0  0  0  0  0  0  0  0  0  0
   10.2118   -9.2679   16.3646 N   0  0  0  0  0  0  0  0  0  0  0  0
   10.3561   -8.4189   15.1785 C   0  0  0  0  0  0  0  0  0  0  0  0
   11.7481   -7.7879   15.2455 C   0  0  0  0  0  0  0  0  0  0  0  0
   12.0175   -6.9612   16.1202 O   0  0  0  0  0  0  0  0  0  0  0  0
   15.3979   -6.5418   15.3434 H   0  0  0  0  0  0  0  0  0  0  0  0
   12.3382   -8.9084   13.6398 H   0  0  0  0  0  0  0  0  0  0  0  0
    9.8545   -8.8395   17.1758 H   0  0  0  0  0  0  0  0  0  0  0  0
    9.2350   -7.3695   15.0132 C   0  0  0  0  0  0  0  0  0  0  0  0
    9.3685   -6.7111   13.6378 C   0  0  0  0  0  0  0  0  0  0  0  0
    7.8249   -7.9649   15.1353 C   0  0  0  0  0  0  0  0  0  0  0  0
   10.0590   -8.5966   20.3198 C   0  0  0  0  0  0  0  0  0  0  0  0
    9.7874   -9.4597   19.2215 O   0  0  0  0  0  0  0  0  0  0  0  0
   14.9671   -8.8835   13.7451 C   0  0  0  0  0  0  0  0  0  0  0  0
   15.2681  -10.0027   14.7178 C   0  0  0  0  0  0  0  0  0  0  0  0
   16.5693  -10.1643   15.2234 C   0  0  0  0  0  0  0  0  0  0  0  0
   16.8633  -11.1949   16.1193 C   0  0  0  0  0  0  0  0  0  0  0  0
   14.2660  -10.8922   15.1369 C   0  0  0  0  0  0  0  0  0  0  0  0
   14.5762  -11.9107   16.0404 C   0  0  0  0  0  0  0  0  0  0  0  0
   15.8642  -12.0691   16.5357 C   0  0  0  0  0  0  0  0  0  0  0  0
   13.5868  -12.7597   16.4378 O   0  0  0  0  0  0  0  0  0  0  0  0
   12.7174  -12.6545   16.1048 H   0  0  0  0  0  0  0  0  0  0  0  0
 30 29  2  0  0  0
  4  5  1  0  0  0
  4  3  1  0  0  0
  5  1  1  0  0  0
 29  1  1  0  0  0
 29 28  1  0  0  0
 43 28  1  0  0  0
 43 44  1  0  0  0
  1  2  1  0  0  0
 39 38  1  0  0  0
  3  6  1  0  0  0
 28 27  1  0  0  0
 27 33  1  0  0  0
 44 45  2  0  0  0
 44 47  1  0  0  0
  6  2  1  0  0  0
  6 13  1  0  0  0
 45 46  1  0  0  0
 40 38  1  0  0  0
 38 32  1  0  0  0
 47 48  2  0  0  0
 32 33  1  0  0  0
 32 31  1  0  0  0
 33 34  2  0  0  0
 24  7  2  0  0  0
 46 49  2  0  0  0
 48 49  1  0  0  0
 48 50  1  0  0  0
 13 26  1  0  0  0
 13 25  2  0  0  0
 31  7  1  0  0  0
 26 14  1  0  0  0
  7  8  1  0  0  0
 23 14  1  0  0  0
 14 15  1  0  0  0
  8  9  1  0  0  0
  8 10  1  0  0  0
 16 15  2  0  0  0
 16 17  1  0  0  0
 15 20  1  0  0  0
 11 10  1  0  0  0
 11 12  1  0  0  0
 21 17  1  0  0  0
 21 22  2  0  0  0
 10 42  1  0  0  0
 42 41  1  0  0  0
 12 22  1  0  0  0
 17 18  2  0  0  0
 20 19  2  0  0  0
 18 19  1  0  0  0
  2 35  1  0  0  0
 27 36  1  0  0  0
 50 51  1  0  0  0
 31 37  1  0  0  0
M  END
> <minimizedAffinity>
-9.84389

$$$$
5TA2_78X_A_300


 51 54  0  0  0  0  0  0  0  0999 V2000
   15.0230   -5.5470   13.6512 N   0  0  0  0  0  0  0  0  0  0  0  0
   15.7161   -5.6708   14.8820 N   0  0  0  0  0  0  0  0  0  0  0  0
   17.6586   -4.5950   13.7908 C   0  0  0  0  0  0  0  0  0  0  0  0
   16.8059   -4.4376   12.5268 C   0  0  0  0  0  0  0  0  0  0  0  0
   15.3312   -4.3302   12.9025 C   0  0  0  0  0  0  0  0  0  0  0  0
   17.1739   -5.7451   14.6820 C   0  0  0  0  0  0  0  0  0  0  0  0
   10.5337  -10.5997   16.4116 C   0  0  0  0  0  0  0  0  0  0  0  0
   10.3408  -11.3411   17.7367 C   0  0  0  0  0  0  0  0  0  0  0  0
    8.8766  -11.7869   17.8420 C   0  0  0  0  0  0  0  0  0  0  0  0
   10.7502  -10.4962   18.9738 C   0  0  0  0  0  0  0  0  0  0  0  0
   12.1279   -9.8221   18.8099 C   0  0  0  0  0  0  0  0  0  0  0  0
   13.3084  -10.6693   19.3013 C   0  0  0  0  0  0  0  0  0  0  0  0
   17.7917   -5.5964   16.0597 C   0  0  0  0  0  0  0  0  0  0  0  0
   19.3926   -6.5596   17.5568 C   0  0  0  0  0  0  0  0  0  0  0  0
   18.4553   -7.0780   18.6408 C   0  0  0  0  0  0  0  0  0  0  0  0
   17.3617   -7.9025   18.3077 C   0  0  0  0  0  0  0  0  0  0  0  0
   16.4842   -8.3996   19.2801 C   0  0  0  0  0  0  0  0  0  0  0  0
   16.7152   -8.0593   20.6140 C   0  0  0  0  0  0  0  0  0  0  0  0
   17.7916   -7.2458   20.9724 C   0  0  0  0  0  0  0  0  0  0  0  0
   18.6621   -6.7609   19.9925 C   0  0  0  0  0  0  0  0  0  0  0  0
   15.3467   -9.2569   18.8940 C   0  0  0  0  0  0  0  0  0  0  0  0
   14.4487   -9.7888   19.7425 C   0  0  0  0  0  0  0  0  0  0  0  0
   20.6912   -7.3513   17.3892 C   0  0  0  0  0  0  0  0  0  0  0  0
   10.9655  -11.1581   15.4072 O   0  0  0  0  0  0  0  0  0  0  0  0
   17.5098   -4.7266   16.8616 O   0  0  0  0  0  0  0  0  0  0  0  0
   18.7090   -6.5801   16.2738 O   0  0  0  0  0  0  0  0  0  0  0  0
   12.6574   -8.2236   14.2835 N   0  0  0  0  0  0  0  0  0  0  0  0
   14.0433   -7.7487   14.2477 C   0  0  0  0  0  0  0  0  0  0  0  0
   14.1585   -6.5630   13.2910 C   0  0  0  0  0  0  0  0  0  0  0  0
   13.5310   -6.5160   12.2297 O   0  0  0  0  0  0  0  0  0  0  0  0
   10.2166   -9.2622   16.3241 N   0  0  0  0  0  0  0  0  0  0  0  0
   10.3673   -8.4068   15.1434 C   0  0  0  0  0  0  0  0  0  0  0  0
   11.7574   -7.7732   15.2235 C   0  0  0  0  0  0  0  0  0  0  0  0
   12.0187   -6.9504   16.1043 O   0  0  0  0  0  0  0  0  0  0  0  0
   15.4036   -6.5196   15.3534 H   0  0  0  0  0  0  0  0  0  0  0  0
   12.3612   -8.8840   13.6162 H   0  0  0  0  0  0  0  0  0  0  0  0
    9.8526   -8.8388   17.1350 H   0  0  0  0  0  0  0  0  0  0  0  0
    9.2450   -7.3591   14.9758 C   0  0  0  0  0  0  0  0  0  0  0  0
    9.4043   -6.6724   13.6170 C   0  0  0  0  0  0  0  0  0  0  0  0
    7.8355   -7.9628   15.0560 C   0  0  0  0  0  0  0  0  0  0  0  0
   10.1765   -8.4336   20.0648 C   0  0  0  0  0  0  0  0  0  0  0  0
    9.7726   -9.4698   19.1770 O   0  0  0  0  0  0  0  0  0  0  0  0
   14.9892   -8.8539   13.7401 C   0  0  0  0  0  0  0  0  0  0  0  0
   15.4512   -9.8632   14.7683 C   0  0  0  0  0  0  0  0  0  0  0  0
   14.5443  -10.8015   15.2899 C   0  0  0  0  0  0  0  0  0  0  0  0
   14.9552  -11.7371   16.2422 C   0  0  0  0  0  0  0  0  0  0  0  0
   16.7816   -9.8894   15.2162 C   0  0  0  0  0  0  0  0  0  0  0  0
   17.1765  -10.8380   16.1616 C   0  0  0  0  0  0  0  0  0  0  0  0
   16.2766  -11.7619   16.6771 C   0  0  0  0  0  0  0  0  0  0  0  0
   18.4741  -10.8488   16.5784 O   0  0  0  0  0  0  0  0  0  0  0  0
   19.0827  -10.2263   16.2318 H   0  0  0  0  0  0  0  0  0  0  0  0
 30 29  2  0  0  0
  4  5  1  0  0  0
  4  3  1  0  0  0
  5  1  1  0  0  0
 29  1  1  0  0  0
 29 28  1  0  0  0
 43 28  1  0  0  0
 43 44  1  0  0  0
  1  2  1  0  0  0
 39 38  1  0  0  0
  3  6  1  0  0  0
 28 27  1  0  0  0
 27 33  1  0  0  0
 44 45  2  0  0  0
 44 47  1  0  0  0
  6  2  1  0  0  0
  6 13  1  0  0  0
 45 46  1  0  0  0
 40 38  1  0  0  0
 38 32  1  0  0  0
 47 48  2  0  0  0
 32 33  1  0  0  0
 32 31  1  0  0  0
 33 34  2  0  0  0
 24  7  2  0  0  0
 46 49  2  0  0  0
 48 49  1  0  0  0
 48 50  1  0  0  0
 13 26  1  0  0  0
 13 25  2  0  0  0
 31  7  1  0  0  0
 26 14  1  0  0  0
  7  8  1  0  0  0
 23 14  1  0  0  0
 14 15  1  0  0  0
  8  9  1  0  0  0
  8 10  1  0  0  0
 16 15  2  0  0  0
 16 17  1  0  0  0
 15 20  1  0  0  0
 11 10  1  0  0  0
 11 12  1  0  0  0
 21 17  1  0  0  0
 21 22  2  0  0  0
 10 42  1  0  0  0
 42 41  1  0  0  0
 12 22  1  0  0  0
 17 18  2  0  0  0
 20 19  2  0  0  0
 18 19  1  0  0  0
  2 35  1  0  0  0
 27 36  1  0  0  0
 50 51  1  0  0  0
 31 37  1  0  0  0
M  END
> <minimizedAffinity>
-9.72941

$$$$
5TA2_78X_A_300


 51 54  0  0  0  0  0  0  0  0999 V2000
   15.2133   -5.6561   13.6901 N   0  0  0  0  0  0  0  0  0  0  0  0
   15.8759   -5.7175   14.9421 N   0  0  0  0  0  0  0  0  0  0  0  0
   17.8018   -4.5896   13.8746 C   0  0  0  0  0  0  0  0  0  0  0  0
   16.9793   -4.5022   12.5840 C   0  0  0  0  0  0  0  0  0  0  0  0
   15.4914   -4.4477   12.9166 C   0  0  0  0  0  0  0  0  0  0  0  0
   17.3406   -5.7351   14.7839 C   0  0  0  0  0  0  0  0  0  0  0  0
   10.8625  -10.8198   16.4671 C   0  0  0  0  0  0  0  0  0  0  0  0
   10.6634  -11.5332   17.8065 C   0  0  0  0  0  0  0  0  0  0  0  0
    9.2168  -12.0378   17.8845 C   0  0  0  0  0  0  0  0  0  0  0  0
   11.0021  -10.6391   19.0303 C   0  0  0  0  0  0  0  0  0  0  0  0
   12.3546   -9.9116   18.8852 C   0  0  0  0  0  0  0  0  0  0  0  0
   13.5550  -10.6945   19.4317 C   0  0  0  0  0  0  0  0  0  0  0  0
   17.9125   -5.5238   16.1732 C   0  0  0  0  0  0  0  0  0  0  0  0
   19.5093   -6.3779   17.7393 C   0  0  0  0  0  0  0  0  0  0  0  0
   18.5642   -6.9067   18.8114 C   0  0  0  0  0  0  0  0  0  0  0  0
   17.5158   -7.7854   18.4718 C   0  0  0  0  0  0  0  0  0  0  0  0
   16.6327   -8.2933   19.4335 C   0  0  0  0  0  0  0  0  0  0  0  0
   16.8115   -7.9081   20.7633 C   0  0  0  0  0  0  0  0  0  0  0  0
   17.8425   -7.0404   21.1280 C   0  0  0  0  0  0  0  0  0  0  0  0
   18.7193   -6.5452   20.1589 C   0  0  0  0  0  0  0  0  0  0  0  0
   15.5433   -9.2081   19.0407 C   0  0  0  0  0  0  0  0  0  0  0  0
   14.6447   -9.7550   19.8790 C   0  0  0  0  0  0  0  0  0  0  0  0
   20.8440   -7.1179   17.6289 C   0  0  0  0  0  0  0  0  0  0  0  0
   11.3455  -11.3858   15.4906 O   0  0  0  0  0  0  0  0  0  0  0  0
   17.5720   -4.6457   16.9426 O   0  0  0  0  0  0  0  0  0  0  0  0
   18.8636   -6.4615   16.4392 O   0  0  0  0  0  0  0  0  0  0  0  0
   12.9445   -8.4131   14.3322 N   0  0  0  0  0  0  0  0  0  0  0  0
   14.3098   -7.8808   14.3207 C   0  0  0  0  0  0  0  0  0  0  0  0
   14.4024   -6.7171   13.3349 C   0  0  0  0  0  0  0  0  0  0  0  0
   13.8037   -6.7251   12.2562 O   0  0  0  0  0  0  0  0  0  0  0  0
   10.4925   -9.4998   16.3340 N   0  0  0  0  0  0  0  0  0  0  0  0
   10.6406   -8.6704   15.1345 C   0  0  0  0  0  0  0  0  0  0  0  0
   12.0003   -7.9764   15.2345 C   0  0  0  0  0  0  0  0  0  0  0  0
   12.2021   -7.1202   16.0989 O   0  0  0  0  0  0  0  0  0  0  0  0
   15.5858   -6.5660   15.4283 H   0  0  0  0  0  0  0  0  0  0  0  0
   12.6950   -9.1030   13.6756 H   0  0  0  0  0  0  0  0  0  0  0  0
   10.0885   -9.0708   17.1226 H   0  0  0  0  0  0  0  0  0  0  0  0
    9.4808   -7.6762   14.9074 C   0  0  0  0  0  0  0  0  0  0  0  0
    9.7645   -6.8610   13.6433 C   0  0  0  0  0  0  0  0  0  0  0  0
    8.1163   -8.3625   14.7504 C   0  0  0  0  0  0  0  0  0  0  0  0
   10.1562   -8.7715   20.2834 C   0  0  0  0  0  0  0  0  0  0  0  0
    9.9772   -9.6501   19.1784 O   0  0  0  0  0  0  0  0  0  0  0  0
   15.3150   -8.9579   13.8698 C   0  0  0  0  0  0  0  0  0  0  0  0
   14.7325  -10.1628   13.1639 C   0  0  0  0  0  0  0  0  0  0  0  0
   14.1896  -11.2217   13.9115 C   0  0  0  0  0  0  0  0  0  0  0  0
   13.6514  -12.3421   13.2741 C   0  0  0  0  0  0  0  0  0  0  0  0
   14.7161  -10.2482   11.7626 C   0  0  0  0  0  0  0  0  0  0  0  0
   14.1654  -11.3716   11.1426 C   0  0  0  0  0  0  0  0  0  0  0  0
   13.6323  -12.4176   11.8849 C   0  0  0  0  0  0  0  0  0  0  0  0
   14.1552  -11.4313    9.7810 O   0  0  0  0  0  0  0  0  0  0  0  0
   14.5143  -10.7266    9.2785 H   0  0  0  0  0  0  0  0  0  0  0  0
 30 29  2  0  0  0
  4  5  1  0  0  0
  4  3  1  0  0  0
  5  1  1  0  0  0
 29  1  1  0  0  0
 29 28  1  0  0  0
 43 28  1  0  0  0
 43 44  1  0  0  0
  1  2  1  0  0  0
 39 38  1  0  0  0
  3  6  1  0  0  0
 28 27  1  0  0  0
 27 33  1  0  0  0
 44 45  2  0  0  0
 44 47  1  0  0  0
  6  2  1  0  0  0
  6 13  1  0  0  0
 45 46  1  0  0  0
 40 38  1  0  0  0
 38 32  1  0  0  0
 47 48  2  0  0  0
 32 33  1  0  0  0
 32 31  1  0  0  0
 33 34  2  0  0  0
 24  7  2  0  0  0
 46 49  2  0  0  0
 48 49  1  0  0  0
 48 50  1  0  0  0
 13 26  1  0  0  0
 13 25  2  0  0  0
 31  7  1  0  0  0
 26 14  1  0  0  0
  7  8  1  0  0  0
 23 14  1  0  0  0
 14 15  1  0  0  0
  8  9  1  0  0  0
  8 10  1  0  0  0
 16 15  2  0  0  0
 16 17  1  0  0  0
 15 20  1  0  0  0
 11 10  1  0  0  0
 11 12  1  0  0  0
 21 17  1  0  0  0
 21 22  2  0  0  0
 10 42  1  0  0  0
 42 41  1  0  0  0
 12 22  1  0  0  0
 17 18  2  0  0  0
 20 19  2  0  0  0
 18 19  1  0  0  0
  2 35  1  0  0  0
 27 36  1  0  0  0
 50 51  1  0  0  0
 31 37  1  0  0  0
M  END
> <minimizedAffinity>
-8.73365

$$$$
5TA2_78X_A_300


 51 54  0  0  0  0  0  0  0  0999 V2000
   18.3309   -7.9641   19.1658 N   0  0  0  0  0  0  0  0  0  0  0  0
   19.5665   -8.1341   18.4913 N   0  0  0  0  0  0  0  0  0  0  0  0
   20.6306   -6.8294   20.3041 C   0  0  0  0  0  0  0  0  0  0  0  0
   19.2652   -6.7618   20.9975 C   0  0  0  0  0  0  0  0  0  0  0  0
   18.4296   -7.9822   20.6238 C   0  0  0  0  0  0  0  0  0  0  0  0
   20.5063   -7.0395   18.7901 C   0  0  0  0  0  0  0  0  0  0  0  0
   15.3244   -9.7754   12.7639 C   0  0  0  0  0  0  0  0  0  0  0  0
   15.7931  -10.2504   11.3864 C   0  0  0  0  0  0  0  0  0  0  0  0
   14.6500  -11.0257   10.7186 C   0  0  0  0  0  0  0  0  0  0  0  0
   17.0836  -11.1124   11.4448 C   0  0  0  0  0  0  0  0  0  0  0  0
   18.1883  -10.4796   12.3158 C   0  0  0  0  0  0  0  0  0  0  0  0
   19.1371   -9.5462   11.5534 C   0  0  0  0  0  0  0  0  0  0  0  0
   21.8496   -7.4820   18.2409 C   0  0  0  0  0  0  0  0  0  0  0  0
   23.6957   -6.7744   16.8906 C   0  0  0  0  0  0  0  0  0  0  0  0
   23.5241   -7.7140   15.7033 C   0  0  0  0  0  0  0  0  0  0  0  0
   22.2852   -7.8084   15.0378 C   0  0  0  0  0  0  0  0  0  0  0  0
   22.0953   -8.6583   13.9405 C   0  0  0  0  0  0  0  0  0  0  0  0
   23.1764   -9.4269   13.5056 C   0  0  0  0  0  0  0  0  0  0  0  0
   24.4151   -9.3521   14.1451 C   0  0  0  0  0  0  0  0  0  0  0  0
   24.5919   -8.4961   15.2356 C   0  0  0  0  0  0  0  0  0  0  0  0
   20.7824   -8.7346   13.2707 C   0  0  0  0  0  0  0  0  0  0  0  0
   20.4921   -9.5109   12.2114 C   0  0  0  0  0  0  0  0  0  0  0  0
   24.3433   -5.4272   16.5635 C   0  0  0  0  0  0  0  0  0  0  0  0
   14.8786   -8.6467   12.9491 O   0  0  0  0  0  0  0  0  0  0  0  0
   22.3667   -8.5632   18.4470 O   0  0  0  0  0  0  0  0  0  0  0  0
   22.3961   -6.4940   17.4793 O   0  0  0  0  0  0  0  0  0  0  0  0
   16.2389   -8.4544   16.2429 N   0  0  0  0  0  0  0  0  0  0  0  0
   17.3742   -7.7836   16.8821 C   0  0  0  0  0  0  0  0  0  0  0  0
   17.1937   -7.7951   18.3992 C   0  0  0  0  0  0  0  0  0  0  0  0
   16.0900   -7.6367   18.9273 O   0  0  0  0  0  0  0  0  0  0  0  0
   15.3967  -10.6290   13.8424 N   0  0  0  0  0  0  0  0  0  0  0  0
   15.0160  -10.3210   15.2240 C   0  0  0  0  0  0  0  0  0  0  0  0
   16.2684   -9.7945   15.9272 C   0  0  0  0  0  0  0  0  0  0  0  0
   17.2246  -10.5430   16.1428 O   0  0  0  0  0  0  0  0  0  0  0  0
   19.3940   -8.1565   17.4862 H   0  0  0  0  0  0  0  0  0  0  0  0
   15.4314   -7.9316   16.0329 H   0  0  0  0  0  0  0  0  0  0  0  0
   15.7379  -11.5359   13.6681 H   0  0  0  0  0  0  0  0  0  0  0  0
   14.3630  -11.5009   15.9767 C   0  0  0  0  0  0  0  0  0  0  0  0
   12.8883  -11.1760   16.2274 C   0  0  0  0  0  0  0  0  0  0  0  0
   14.4475  -12.8292   15.2111 C   0  0  0  0  0  0  0  0  0  0  0  0
   17.8155  -13.0099   12.7243 C   0  0  0  0  0  0  0  0  0  0  0  0
   16.7596  -12.3935   11.9963 O   0  0  0  0  0  0  0  0  0  0  0  0
   17.4669   -6.3129   16.4323 C   0  0  0  0  0  0  0  0  0  0  0  0
   17.3499   -6.0595   14.9452 C   0  0  0  0  0  0  0  0  0  0  0  0
   18.4301   -6.3509   14.0948 C   0  0  0  0  0  0  0  0  0  0  0  0
   18.3383   -6.1191   12.7205 C   0  0  0  0  0  0  0  0  0  0  0  0
   16.1722   -5.5386   14.3858 C   0  0  0  0  0  0  0  0  0  0  0  0
   16.0952   -5.3224   13.0085 C   0  0  0  0  0  0  0  0  0  0  0  0
   17.1661   -5.6088   12.1715 C   0  0  0  0  0  0  0  0  0  0  0  0
   14.9406   -4.8209   12.4861 O   0  0  0  0  0  0  0  0  0  0  0  0
   14.2171   -4.6270   13.0491 H   0  0  0  0  0  0  0  0  0  0  0  0
 30 29  2  0  0  0
  4  5  1  0  0  0
  4  3  1  0  0  0
  5  1  1  0  0  0
 29  1  1  0  0  0
 29 28  1  0  0  0
 43 28  1  0  0  0
 43 44  1  0  0  0
  1  2  1  0  0  0
 39 38  1  0  0  0
  3  6  1  0  0  0
 28 27  1  0  0  0
 27 33  1  0  0  0
 44 45  2  0  0  0
 44 47  1  0  0  0
  6  2  1  0  0  0
  6 13  1  0  0  0
 45 46  1  0  0  0
 40 38  1  0  0  0
 38 32  1  0  0  0
 47 48  2  0  0  0
 32 33  1  0  0  0
 32 31  1  0  0  0
 33 34  2  0  0  0
 24  7  2  0  0  0
 46 49  2  0  0  0
 48 49  1  0  0  0
 48 50  1  0  0  0
 13 26  1  0  0  0
 13 25  2  0  0  0
 31  7  1  0  0  0
 26 14  1  0  0  0
  7  8  1  0  0  0
 23 14  1  0  0  0
 14 15  1  0  0  0
  8  9  1  0  0  0
  8 10  1  0  0  0
 16 15  2  0  0  0
 16 17  1  0  0  0
 15 20  1  0  0  0
 11 10  1  0  0  0
 11 12  1  0  0  0
 21 17  1  0  0  0
 21 22  2  0  0  0
 10 42  1  0  0  0
 42 41  1  0  0  0
 12 22  1  0  0  0
 17 18  2  0  0  0
 20 19  2  0  0  0
 18 19  1  0  0  0
  2 35  1  0  0  0
 27 36  1  0  0  0
 50 51  1  0  0  0
 31 37  1  0  0  0
M  END
> <minimizedAffinity>
-7.30811

$$$$
5TA2_78X_A_300


 51 54  0  0  0  0  0  0  0  0999 V2000
   15.1368   -5.6884   13.7528 N   0  0  0  0  0  0  0  0  0  0  0  0
   15.9728   -5.9754   14.8615 N   0  0  0  0  0  0  0  0  0  0  0  0
   17.6488   -4.4450   13.8767 C   0  0  0  0  0  0  0  0  0  0  0  0
   16.6477   -4.1398   12.7567 C   0  0  0  0  0  0  0  0  0  0  0  0
   15.2217   -4.3113   13.2709 C   0  0  0  0  0  0  0  0  0  0  0  0
   17.3982   -5.8111   14.5268 C   0  0  0  0  0  0  0  0  0  0  0  0
   11.5757  -11.7610   15.6883 C   0  0  0  0  0  0  0  0  0  0  0  0
   11.6162  -12.7839   16.8262 C   0  0  0  0  0  0  0  0  0  0  0  0
   10.2318  -13.4327   16.9535 C   0  0  0  0  0  0  0  0  0  0  0  0
   12.0649  -12.1719   18.1812 C   0  0  0  0  0  0  0  0  0  0  0  0
   13.3319  -11.3010   18.0553 C   0  0  0  0  0  0  0  0  0  0  0  0
   14.6469  -12.0678   18.2433 C   0  0  0  0  0  0  0  0  0  0  0  0
   18.1459   -5.8752   15.8454 C   0  0  0  0  0  0  0  0  0  0  0  0
   20.0017   -6.9103   16.9484 C   0  0  0  0  0  0  0  0  0  0  0  0
   19.2553   -7.7656   17.9651 C   0  0  0  0  0  0  0  0  0  0  0  0
   18.2299   -8.6394   17.5508 C   0  0  0  0  0  0  0  0  0  0  0  0
   17.5277   -9.4425   18.4588 C   0  0  0  0  0  0  0  0  0  0  0  0
   17.8673   -9.3633   19.8105 C   0  0  0  0  0  0  0  0  0  0  0  0
   18.8797   -8.5077   20.2484 C   0  0  0  0  0  0  0  0  0  0  0  0
   19.5756   -7.7157   19.3310 C   0  0  0  0  0  0  0  0  0  0  0  0
   16.4567  -10.3429   17.9894 C   0  0  0  0  0  0  0  0  0  0  0  0
   15.7243  -11.1563   18.7711 C   0  0  0  0  0  0  0  0  0  0  0  0
   21.3534   -7.4688   16.4987 C   0  0  0  0  0  0  0  0  0  0  0  0
   11.9518  -12.0326   14.5518 O   0  0  0  0  0  0  0  0  0  0  0  0
   17.8605   -5.2393   16.8420 O   0  0  0  0  0  0  0  0  0  0  0  0
   19.1852   -6.7508   15.7560 O   0  0  0  0  0  0  0  0  0  0  0  0
   13.1698   -8.7288   13.9711 N   0  0  0  0  0  0  0  0  0  0  0  0
   14.4814   -8.0767   13.9244 C   0  0  0  0  0  0  0  0  0  0  0  0
   14.3559   -6.7115   13.2499 C   0  0  0  0  0  0  0  0  0  0  0  0
   13.6122   -6.5260   12.2831 O   0  0  0  0  0  0  0  0  0  0  0  0
   11.1038  -10.4896   15.9286 N   0  0  0  0  0  0  0  0  0  0  0  0
   11.0251   -9.3923   14.9599 C   0  0  0  0  0  0  0  0  0  0  0  0
   12.3361   -8.6104   15.0608 C   0  0  0  0  0  0  0  0  0  0  0  0
   12.6012   -7.9645   16.0774 O   0  0  0  0  0  0  0  0  0  0  0  0
   15.8115   -6.9383   15.1566 H   0  0  0  0  0  0  0  0  0  0  0  0
   12.8761   -9.2672   13.2009 H   0  0  0  0  0  0  0  0  0  0  0  0
   10.7881  -10.2988   16.8414 H   0  0  0  0  0  0  0  0  0  0  0  0
    9.7815   -8.4917   15.1261 C   0  0  0  0  0  0  0  0  0  0  0  0
    9.2963   -8.5759   16.5754 C   0  0  0  0  0  0  0  0  0  0  0  0
   10.0500   -7.0188   14.7854 C   0  0  0  0  0  0  0  0  0  0  0  0
   11.4379  -10.2789   19.5219 C   0  0  0  0  0  0  0  0  0  0  0  0
   11.0080  -11.3508   18.6905 O   0  0  0  0  0  0  0  0  0  0  0  0
   15.4816   -8.9142   13.1046 C   0  0  0  0  0  0  0  0  0  0  0  0
   15.2606  -10.4111   13.1069 C   0  0  0  0  0  0  0  0  0  0  0  0
   15.6270  -11.1745   14.2285 C   0  0  0  0  0  0  0  0  0  0  0  0
   15.4323  -12.5576   14.2439 C   0  0  0  0  0  0  0  0  0  0  0  0
   14.6868  -11.0640   12.0044 C   0  0  0  0  0  0  0  0  0  0  0  0
   14.4911  -12.4460   12.0415 C   0  0  0  0  0  0  0  0  0  0  0  0
   14.8572  -13.1977   13.1506 C   0  0  0  0  0  0  0  0  0  0  0  0
   13.9276  -13.0586   10.9622 O   0  0  0  0  0  0  0  0  0  0  0  0
   13.6800  -12.5532   10.2130 H   0  0  0  0  0  0  0  0  0  0  0  0
 30 29  2  0  0  0
  4  5  1  0  0  0
  4  3  1  0  0  0
  5  1  1  0  0  0
 29  1  1  0  0  0
 29 28  1  0  0  0
 43 28  1  0  0  0
 43 44  1  0  0  0
  1  2  1  0  0  0
 39 38  1  0  0  0
  3  6  1  0  0  0
 28 27  1  0  0  0
 27 33  1  0  0  0
 44 45  2  0  0  0
 44 47  1  0  0  0
  6  2  1  0  0  0
  6 13  1  0  0  0
 45 46  1  0  0  0
 40 38  1  0  0  0
 38 32  1  0  0  0
 47 48  2  0  0  0
 32 33  1  0  0  0
 32 31  1  0  0  0
 33 34  2  0  0  0
 24  7  2  0  0  0
 46 49  2  0  0  0
 48 49  1  0  0  0
 48 50  1  0  0  0
 13 26  1  0  0  0
 13 25  2  0  0  0
 31  7  1  0  0  0
 26 14  1  0  0  0
  7  8  1  0  0  0
 23 14  1  0  0  0
 14 15  1  0  0  0
  8  9  1  0  0  0
  8 10  1  0  0  0
 16 15  2  0  0  0
 16 17  1  0  0  0
 15 20  1  0  0  0
 11 10  1  0  0  0
 11 12  1  0  0  0
 21 17  1  0  0  0
 21 22  2  0  0  0
 10 42  1  0  0  0
 42 41  1  0  0  0
 12 22  1  0  0  0
 17 18  2  0  0  0
 20 19  2  0  0  0
 18 19  1  0  0  0
  2 35  1  0  0  0
 27 36  1  0  0  0
 50 51  1  0  0  0
 31 37  1  0  0  0
M  END
> <minimizedAffinity>
-7.08118

$$$$
5TA2_78X_A_300


 51 54  0  0  0  0  0  0  0  0999 V2000
   16.7478  -11.4904   11.7720 N   0  0  0  0  0  0  0  0  0  0  0  0
   16.1219  -11.2495   13.0212 N   0  0  0  0  0  0  0  0  0  0  0  0
   13.9586  -11.7497   11.9298 C   0  0  0  0  0  0  0  0  0  0  0  0
   14.7301  -12.0621   10.6426 C   0  0  0  0  0  0  0  0  0  0  0  0
   16.1331  -12.5555   10.9822 C   0  0  0  0  0  0  0  0  0  0  0  0
   14.7286  -10.8000   12.8555 C   0  0  0  0  0  0  0  0  0  0  0  0
   22.4012   -7.8647   14.6351 C   0  0  0  0  0  0  0  0  0  0  0  0
   22.7899   -7.2552   15.9842 C   0  0  0  0  0  0  0  0  0  0  0  0
   24.3203   -7.1996   16.0759 C   0  0  0  0  0  0  0  0  0  0  0  0
   22.1926   -8.0225   17.1951 C   0  0  0  0  0  0  0  0  0  0  0  0
   20.6872   -8.3182   17.0340 C   0  0  0  0  0  0  0  0  0  0  0  0
   19.7656   -7.2223   17.5838 C   0  0  0  0  0  0  0  0  0  0  0  0
   14.1079  -10.8479   14.2391 C   0  0  0  0  0  0  0  0  0  0  0  0
   12.8197   -9.5776   15.8072 C   0  0  0  0  0  0  0  0  0  0  0  0
   13.8692   -9.3614   16.8907 C   0  0  0  0  0  0  0  0  0  0  0  0
   15.1327   -8.8268   16.5675 C   0  0  0  0  0  0  0  0  0  0  0  0
   16.1178   -8.6111   17.5399 C   0  0  0  0  0  0  0  0  0  0  0  0
   15.8220   -8.9402   18.8639 C   0  0  0  0  0  0  0  0  0  0  0  0
   14.5783   -9.4698   19.2125 C   0  0  0  0  0  0  0  0  0  0  0  0
   13.6029   -9.6750   18.2329 C   0  0  0  0  0  0  0  0  0  0  0  0
   17.4315   -8.0535   17.1642 C   0  0  0  0  0  0  0  0  0  0  0  0
   18.4439   -7.8040   18.0138 C   0  0  0  0  0  0  0  0  0  0  0  0
   11.7627   -8.4765   15.6990 C   0  0  0  0  0  0  0  0  0  0  0  0
   22.1147   -7.1717   13.6631 O   0  0  0  0  0  0  0  0  0  0  0  0
   14.1683  -11.7951   14.9995 O   0  0  0  0  0  0  0  0  0  0  0  0
   13.4725   -9.6745   14.5117 O   0  0  0  0  0  0  0  0  0  0  0  0
   19.7218   -9.5301   12.4598 N   0  0  0  0  0  0  0  0  0  0  0  0
   18.2604   -9.6368   12.4347 C   0  0  0  0  0  0  0  0  0  0  0  0
   17.8380  -10.7115   11.4342 C   0  0  0  0  0  0  0  0  0  0  0  0
   18.4219  -10.8691   10.3588 O   0  0  0  0  0  0  0  0  0  0  0  0
   22.3676   -9.2337   14.4877 N   0  0  0  0  0  0  0  0  0  0  0  0
   21.9924   -9.9704   13.2773 C   0  0  0  0  0  0  0  0  0  0  0  0
   20.4879  -10.2345   13.3617 C   0  0  0  0  0  0  0  0  0  0  0  0
   20.0356  -11.0022   14.2144 O   0  0  0  0  0  0  0  0  0  0  0  0
   16.6445  -10.5290   13.5193 H   0  0  0  0  0  0  0  0  0  0  0  0
   20.1689   -8.9375   11.8132 H   0  0  0  0  0  0  0  0  0  0  0  0
   22.6207   -9.7707   15.2731 H   0  0  0  0  0  0  0  0  0  0  0  0
   22.8102  -11.2596   13.0441 C   0  0  0  0  0  0  0  0  0  0  0  0
   23.7569  -11.0412   11.8613 C   0  0  0  0  0  0  0  0  0  0  0  0
   23.6419  -11.6788   14.2649 C   0  0  0  0  0  0  0  0  0  0  0  0
   22.1281  -10.2917   17.9827 C   0  0  0  0  0  0  0  0  0  0  0  0
   22.8798   -9.2708   17.3364 O   0  0  0  0  0  0  0  0  0  0  0  0
   17.6207   -8.3069   11.9918 C   0  0  0  0  0  0  0  0  0  0  0  0
   17.3110   -7.3147   13.0914 C   0  0  0  0  0  0  0  0  0  0  0  0
   18.3523   -6.6001   13.7077 C   0  0  0  0  0  0  0  0  0  0  0  0
   18.0824   -5.6834   14.7264 C   0  0  0  0  0  0  0  0  0  0  0  0
   15.9920   -7.0835   13.5131 C   0  0  0  0  0  0  0  0  0  0  0  0
   15.7403   -6.1564   14.5265 C   0  0  0  0  0  0  0  0  0  0  0  0
   16.7724   -5.4541   15.1354 C   0  0  0  0  0  0  0  0  0  0  0  0
   14.4518   -5.9439   14.9167 O   0  0  0  0  0  0  0  0  0  0  0  0
   13.7542   -6.4167   14.5072 H   0  0  0  0  0  0  0  0  0  0  0  0
 30 29  2  0  0  0
  4  5  1  0  0  0
  4  3  1  0  0  0
  5  1  1  0  0  0
 29  1  1  0  0  0
 29 28  1  0  0  0
 43 28  1  0  0  0
 43 44  1  0  0  0
  1  2  1  0  0  0
 39 38  1  0  0  0
  3  6  1  0  0  0
 28 27  1  0  0  0
 27 33  1  0  0  0
 44 45  2  0  0  0
 44 47  1  0  0  0
  6  2  1  0  0  0
  6 13  1  0  0  0
 45 46  1  0  0  0
 40 38  1  0  0  0
 38 32  1  0  0  0
 47 48  2  0  0  0
 32 33  1  0  0  0
 32 31  1  0  0  0
 33 34  2  0  0  0
 24  7  2  0  0  0
 46 49  2  0  0  0
 48 49  1  0  0  0
 48 50  1  0  0  0
 13 26  1  0  0  0
 13 25  2  0  0  0
 31  7  1  0  0  0
 26 14  1  0  0  0
  7  8  1  0  0  0
 23 14  1  0  0  0
 14 15  1  0  0  0
  8  9  1  0  0  0
  8 10  1  0  0  0
 16 15  2  0  0  0
 16 17  1  0  0  0
 15 20  1  0  0  0
 11 10  1  0  0  0
 11 12  1  0  0  0
 21 17  1  0  0  0
 21 22  2  0  0  0
 10 42  1  0  0  0
 42 41  1  0  0  0
 12 22  1  0  0  0
 17 18  2  0  0  0
 20 19  2  0  0  0
 18 19  1  0  0  0
  2 35  1  0  0  0
 27 36  1  0  0  0
 50 51  1  0  0  0
 31 37  1  0  0  0
M  END
> <minimizedAffinity>
-6.85200

$$$$
