2UZ9_XAN_A_1453


 14 15  0  0  0  0  0  0  0  0999 V2000
   -2.4748    8.4864  -29.7344 N   0  0  0  0  0  0  0  0  0  0  0  0
   -1.6159    7.5721  -30.1694 C   0  0  0  0  0  0  0  0  0  0  0  0
   -0.2925    7.5268  -30.3231 N   0  0  0  0  0  0  0  0  0  0  0  0
    0.3209    6.4223  -30.8003 C   0  0  0  0  0  0  0  0  0  0  0  0
    1.5629    6.4572  -30.9155 O   0  0  0  0  0  0  0  0  0  0  0  0
   -0.3548    5.2975  -31.1673 N   0  0  0  0  0  0  0  0  0  0  0  0
   -1.6920    5.2066  -31.0564 C   0  0  0  0  0  0  0  0  0  0  0  0
   -2.3098    4.1742  -31.3794 O   0  0  0  0  0  0  0  0  0  0  0  0
   -2.4108    6.3873  -30.5240 C   0  0  0  0  0  0  0  0  0  0  0  0
   -3.6820    6.6946  -30.2709 N   0  0  0  0  0  0  0  0  0  0  0  0
   -3.7143    7.9587  -29.7964 C   0  0  0  0  0  0  0  0  0  0  0  0
   -2.2466    9.3915  -29.4214 H   0  0  0  0  0  0  0  0  0  0  0  0
    0.2484    8.3139  -30.0840 H   0  0  0  0  0  0  0  0  0  0  0  0
    0.1494    4.5306  -31.5233 H   0  0  0  0  0  0  0  0  0  0  0  0
  1  2  1  0  0  0
  1 11  1  0  0  0
  2  3  1  0  0  0
  2  9  2  0  0  0
  3  4  1  0  0  0
  4  5  2  0  0  0
  4  6  1  0  0  0
  6  7  1  0  0  0
  7  8  2  0  0  0
  7  9  1  0  0  0
  9 10  1  0  0  0
 10 11  2  0  0  0
  1 12  1  0  0  0
  3 13  1  0  0  0
  6 14  1  0  0  0
M  END
> <minimizedAffinity>
-7.37464

$$$$
2UZ9_XAN_A_1453


 14 15  0  0  0  0  0  0  0  0999 V2000
    1.0665    6.7845  -30.9845 N   0  0  0  0  0  0  0  0  0  0  0  0
   -0.2382    6.7950  -30.7386 C   0  0  0  0  0  0  0  0  0  0  0  0
   -1.1010    7.7082  -30.2927 N   0  0  0  0  0  0  0  0  0  0  0  0
   -2.4121    7.4206  -30.1433 C   0  0  0  0  0  0  0  0  0  0  0  0
   -3.1566    8.3284  -29.7207 O   0  0  0  0  0  0  0  0  0  0  0  0
   -2.9394    6.1947  -30.4179 N   0  0  0  0  0  0  0  0  0  0  0  0
   -2.1814    5.1852  -30.8817 C   0  0  0  0  0  0  0  0  0  0  0  0
   -2.6647    4.0677  -31.1455 O   0  0  0  0  0  0  0  0  0  0  0  0
   -0.7380    5.4544  -31.0768 C   0  0  0  0  0  0  0  0  0  0  0  0
    0.3137    4.7531  -31.4970 N   0  0  0  0  0  0  0  0  0  0  0  0
    1.3965    5.5584  -31.4391 C   0  0  0  0  0  0  0  0  0  0  0  0
    1.6850    7.5398  -30.8572 H   0  0  0  0  0  0  0  0  0  0  0  0
   -0.7761    8.6100  -30.0680 H   0  0  0  0  0  0  0  0  0  0  0  0
   -3.9014    6.0437  -30.2729 H   0  0  0  0  0  0  0  0  0  0  0  0
  1  2  1  0  0  0
  1 11  1  0  0  0
  2  3  1  0  0  0
  2  9  2  0  0  0
  3  4  1  0  0  0
  4  5  2  0  0  0
  4  6  1  0  0  0
  6  7  1  0  0  0
  7  8  2  0  0  0
  7  9  1  0  0  0
  9 10  1  0  0  0
 10 11  2  0  0  0
  1 12  1  0  0  0
  3 13  1  0  0  0
  6 14  1  0  0  0
M  END
> <minimizedAffinity>
-6.26042

$$$$
2UZ9_XAN_A_1453


 14 15  0  0  0  0  0  0  0  0999 V2000
   -3.2295    8.1302  -30.0449 N   0  0  0  0  0  0  0  0  0  0  0  0
   -2.5305    7.0620  -30.4098 C   0  0  0  0  0  0  0  0  0  0  0  0
   -2.8409    5.8184  -30.7760 N   0  0  0  0  0  0  0  0  0  0  0  0
   -1.8837    4.9244  -31.1052 C   0  0  0  0  0  0  0  0  0  0  0  0
   -2.2538    3.7799  -31.4374 O   0  0  0  0  0  0  0  0  0  0  0  0
   -0.5531    5.2159  -31.0745 N   0  0  0  0  0  0  0  0  0  0  0  0
   -0.1029    6.4355  -30.7302 C   0  0  0  0  0  0  0  0  0  0  0  0
    1.1127    6.7072  -30.7143 O   0  0  0  0  0  0  0  0  0  0  0  0
   -1.1148    7.4569  -30.3741 C   0  0  0  0  0  0  0  0  0  0  0  0
   -1.0870    8.7319  -29.9889 N   0  0  0  0  0  0  0  0  0  0  0  0
   -2.3621    9.1314  -29.7921 C   0  0  0  0  0  0  0  0  0  0  0  0
   -4.2099    8.1822  -29.9717 H   0  0  0  0  0  0  0  0  0  0  0  0
   -3.7866    5.5463  -30.8072 H   0  0  0  0  0  0  0  0  0  0  0  0
    0.0963    4.5148  -31.3109 H   0  0  0  0  0  0  0  0  0  0  0  0
  1  2  1  0  0  0
  1 11  1  0  0  0
  2  3  1  0  0  0
  2  9  2  0  0  0
  3  4  1  0  0  0
  4  5  2  0  0  0
  4  6  1  0  0  0
  6  7  1  0  0  0
  7  8  2  0  0  0
  7  9  1  0  0  0
  9 10  1  0  0  0
 10 11  2  0  0  0
  1 12  1  0  0  0
  3 13  1  0  0  0
  6 14  1  0  0  0
M  END
> <minimizedAffinity>
-6.22348

$$$$
2UZ9_XAN_A_1453


 14 15  0  0  0  0  0  0  0  0999 V2000
   -0.4312    5.5337  -30.8777 N   0  0  0  0  0  0  0  0  0  0  0  0
   -1.0253    6.6696  -30.5320 C   0  0  0  0  0  0  0  0  0  0  0  0
   -0.5977    7.8705  -30.1419 N   0  0  0  0  0  0  0  0  0  0  0  0
   -1.4654    8.8641  -29.8522 C   0  0  0  0  0  0  0  0  0  0  0  0
   -0.9879    9.9598  -29.4937 O   0  0  0  0  0  0  0  0  0  0  0  0
   -2.8177    8.7128  -29.9216 N   0  0  0  0  0  0  0  0  0  0  0  0
   -3.3820    7.5550  -30.3086 C   0  0  0  0  0  0  0  0  0  0  0  0
   -4.6180    7.4194  -30.3849 O   0  0  0  0  0  0  0  0  0  0  0  0
   -2.4721    6.4377  -30.6515 C   0  0  0  0  0  0  0  0  0  0  0  0
   -2.6212    5.1783  -31.0592 N   0  0  0  0  0  0  0  0  0  0  0  0
   -1.3900    4.6394  -31.1932 C   0  0  0  0  0  0  0  0  0  0  0  0
    0.5398    5.3724  -30.8997 H   0  0  0  0  0  0  0  0  0  0  0  0
    0.3695    8.0364  -30.0633 H   0  0  0  0  0  0  0  0  0  0  0  0
   -3.3974    9.4715  -29.6819 H   0  0  0  0  0  0  0  0  0  0  0  0
  1  2  1  0  0  0
  1 11  1  0  0  0
  2  3  1  0  0  0
  2  9  2  0  0  0
  3  4  1  0  0  0
  4  5  2  0  0  0
  4  6  1  0  0  0
  6  7  1  0  0  0
  7  8  2  0  0  0
  7  9  1  0  0  0
  9 10  1  0  0  0
 10 11  2  0  0  0
  1 12  1  0  0  0
  3 13  1  0  0  0
  6 14  1  0  0  0
M  END
> <minimizedAffinity>
-5.26354

$$$$
2UZ9_XAN_A_1453


 14 15  0  0  0  0  0  0  0  0999 V2000
   -2.9847    5.4438  -30.8313 N   0  0  0  0  0  0  0  0  0  0  0  0
   -1.7071    5.1317  -31.0130 C   0  0  0  0  0  0  0  0  0  0  0  0
   -1.0555    4.0343  -31.3981 N   0  0  0  0  0  0  0  0  0  0  0  0
    0.2913    4.0165  -31.4971 C   0  0  0  0  0  0  0  0  0  0  0  0
    0.8280    2.9515  -31.8642 O   0  0  0  0  0  0  0  0  0  0  0  0
    1.0718    5.0937  -31.2027 N   0  0  0  0  0  0  0  0  0  0  0  0
    0.5425    6.2659  -30.8097 C   0  0  0  0  0  0  0  0  0  0  0  0
    1.2543    7.2554  -30.5527 O   0  0  0  0  0  0  0  0  0  0  0  0
   -0.9327    6.3414  -30.6992 C   0  0  0  0  0  0  0  0  0  0  0  0
   -1.8157    7.2774  -30.3546 N   0  0  0  0  0  0  0  0  0  0  0  0
   -3.0484    6.7316  -30.4356 C   0  0  0  0  0  0  0  0  0  0  0  0
   -3.7516    4.8406  -30.9624 H   0  0  0  0  0  0  0  0  0  0  0  0
   -1.5661    3.2209  -31.6146 H   0  0  0  0  0  0  0  0  0  0  0  0
    2.0499    5.0118  -31.2798 H   0  0  0  0  0  0  0  0  0  0  0  0
  1  2  1  0  0  0
  1 11  1  0  0  0
  2  3  1  0  0  0
  2  9  2  0  0  0
  3  4  1  0  0  0
  4  5  2  0  0  0
  4  6  1  0  0  0
  6  7  1  0  0  0
  7  8  2  0  0  0
  7  9  1  0  0  0
  9 10  1  0  0  0
 10 11  2  0  0  0
  1 12  1  0  0  0
  3 13  1  0  0  0
  6 14  1  0  0  0
M  END
> <minimizedAffinity>
-4.73279

$$$$
2UZ9_XAN_A_1453


 14 15  0  0  0  0  0  0  0  0999 V2000
   -0.8196    5.2192  -31.1425 N   0  0  0  0  0  0  0  0  0  0  0  0
   -1.6212    6.2162  -30.7870 C   0  0  0  0  0  0  0  0  0  0  0  0
   -2.9426    6.3757  -30.7118 N   0  0  0  0  0  0  0  0  0  0  0  0
   -3.4861    7.5407  -30.2979 C   0  0  0  0  0  0  0  0  0  0  0  0
   -4.7311    7.6124  -30.2545 O   0  0  0  0  0  0  0  0  0  0  0  0
   -2.7396    8.6250  -29.9466 N   0  0  0  0  0  0  0  0  0  0  0  0
   -1.3952    8.5971  -29.9695 C   0  0  0  0  0  0  0  0  0  0  0  0
   -0.7114    9.5835  -29.6361 O   0  0  0  0  0  0  0  0  0  0  0  0
   -0.7498    7.3363  -30.4028 C   0  0  0  0  0  0  0  0  0  0  0  0
    0.5032    6.9131  -30.5622 N   0  0  0  0  0  0  0  0  0  0  0  0
    0.4549    5.6389  -31.0077 C   0  0  0  0  0  0  0  0  0  0  0  0
   -1.1057    4.3291  -31.4508 H   0  0  0  0  0  0  0  0  0  0  0  0
   -3.5338    5.6296  -30.9628 H   0  0  0  0  0  0  0  0  0  0  0  0
   -3.1967    9.4514  -29.6683 H   0  0  0  0  0  0  0  0  0  0  0  0
  1  2  1  0  0  0
  1 11  1  0  0  0
  2  3  1  0  0  0
  2  9  2  0  0  0
  3  4  1  0  0  0
  4  5  2  0  0  0
  4  6  1  0  0  0
  6  7  1  0  0  0
  7  8  2  0  0  0
  7  9  1  0  0  0
  9 10  1  0  0  0
 10 11  2  0  0  0
  1 12  1  0  0  0
  3 13  1  0  0  0
  6 14  1  0  0  0
M  END
> <minimizedAffinity>
-4.73224

$$$$
