2ZDA_32U_H_1000


 36 38  0  0  0  0  0  0  0  0999 V2000
   17.7945  -13.7298   22.3549 C   0  0  0  0  0  0  0  0  0  0  0  0
   16.8905  -12.9730   22.6983 O   0  0  0  0  0  0  0  0  0  0  0  0
   18.6599  -13.3432   21.3732 N   0  0  0  0  0  0  0  0  0  0  0  0
   18.4895  -12.0627   20.7311 C   0  0  0  0  0  0  0  0  0  0  0  0
   19.5608  -12.1528   19.6035 C   0  0  0  0  0  0  0  0  0  0  0  0
   20.6529  -12.9975   20.3038 C   0  0  0  0  0  0  0  0  0  0  0  0
   19.8501  -14.1164   21.0180 C   0  0  0  0  0  0  0  0  0  0  0  0
   16.6413  -15.8398   22.9405 N   0  0  0  0  0  0  0  0  0  0  0  0
   17.8999  -15.0658   23.0453 C   0  0  0  0  0  0  0  0  0  0  0  0
   16.3800  -15.9328   21.9589 H   0  0  0  0  0  0  0  0  0  0  0  0
   15.9001  -15.3535   23.4450 H   0  0  0  0  0  0  0  0  0  0  0  0
   18.3243  -14.9073   24.5335 C   0  0  0  0  0  0  0  0  0  0  0  0
   19.7246  -14.3281   24.6411 C   0  0  0  0  0  0  0  0  0  0  0  0
   20.8391  -15.0378   24.1847 C   0  0  0  0  0  0  0  0  0  0  0  0
   19.9140  -13.0691   25.2040 C   0  0  0  0  0  0  0  0  0  0  0  0
   22.1137  -14.4834   24.2937 C   0  0  0  0  0  0  0  0  0  0  0  0
   21.1805  -12.5144   25.3151 C   0  0  0  0  0  0  0  0  0  0  0  0
   22.2990  -13.2236   24.8557 C   0  0  0  0  0  0  0  0  0  0  0  0
   17.1282  -12.0274   20.0596 C   0  0  0  0  0  0  0  0  0  0  0  0
   16.7741  -12.9390   19.3236 O   0  0  0  0  0  0  0  0  0  0  0  0
   16.3895  -10.9175   20.3018 N   0  0  0  0  0  0  0  0  0  0  0  0
   16.6863  -10.1953   20.9015 H   0  0  0  0  0  0  0  0  0  0  0  0
   15.0972  -10.8896   19.5836 C   0  0  0  0  0  0  0  0  0  0  0  0
   14.0105  -10.8693   20.6740 C   0  0  0  0  0  0  0  0  0  0  0  0
   13.4145  -12.0593   21.0721 C   0  0  0  0  0  0  0  0  0  0  0  0
   12.4298  -12.0690   22.0566 C   0  0  0  0  0  0  0  0  0  0  0  0
   12.0188  -10.8779   22.6629 C   0  0  0  0  0  0  0  0  0  0  0  0
   12.6246   -9.6950   22.2546 C   0  0  0  0  0  0  0  0  0  0  0  0
   13.6135   -9.6776   21.2681 C   0  0  0  0  0  0  0  0  0  0  0  0
   10.8843  -10.8604   23.8015 C   0  0  0  0  0  0  0  0  0  0  0  0
   10.6013   -9.7227   24.4194 N   0  0  0  0  0  0  0  0  0  0  0  0
   10.2424  -11.9641   24.1156 N   0  0  0  0  0  0  0  0  0  0  0  0
   11.0849   -8.8992   24.1804 H   0  0  0  0  0  0  0  0  0  0  0  0
    9.9074   -9.7011   25.1174 H   0  0  0  0  0  0  0  0  0  0  0  0
   10.4566  -12.8066   23.6534 H   0  0  0  0  0  0  0  0  0  0  0  0
    9.5476  -11.9480   24.8129 H   0  0  0  0  0  0  0  0  0  0  0  0
 23 21  1  0  0  0
 23 24  1  0  0  0
 20 19  2  0  0  0
  5  6  1  0  0  0
  5  4  1  0  0  0
 19 21  1  0  0  0
 19  4  1  0  0  0
  6  7  1  0  0  0
 24 29  2  0  0  0
 24 25  1  0  0  0
  4  3  1  0  0  0
 29 28  1  0  0  0
  7  3  1  0  0  0
 25 26  2  0  0  0
  3  1  1  0  0  0
 28 27  2  0  0  0
 26 27  1  0  0  0
  1  2  2  0  0  0
  1  9  1  0  0  0
 27 30  1  0  0  0
  8  9  1  0  0  0
  9 12  1  0  0  0
 30 32  1  0  0  0
 30 31  2  0  0  0
 14 16  2  0  0  0
 14 13  1  0  0  0
 16 18  1  0  0  0
 12 13  1  0  0  0
 13 15  2  0  0  0
 18 17  2  0  0  0
 15 17  1  0  0  0
  8 10  1  0  0  0
  8 11  1  0  0  0
 21 22  1  0  0  0
 31 33  1  0  0  0
 31 34  1  0  0  0
 32 35  1  0  0  0
 32 36  1  0  0  0
M  CHG 1  31   1
M  END
> <minimizedAffinity>
-10.33865

$$$$
2ZDA_32U_H_1000


 36 38  0  0  0  0  0  0  0  0999 V2000
   17.9484  -13.6554   22.0937 C   0  0  0  0  0  0  0  0  0  0  0  0
   17.0069  -12.9691   22.4814 O   0  0  0  0  0  0  0  0  0  0  0  0
   18.7589  -13.1875   21.1006 N   0  0  0  0  0  0  0  0  0  0  0  0
   18.4872  -11.9051   20.4985 C   0  0  0  0  0  0  0  0  0  0  0  0
   19.5302  -11.8953   19.3412 C   0  0  0  0  0  0  0  0  0  0  0  0
   20.6943  -12.6835   19.9892 C   0  0  0  0  0  0  0  0  0  0  0  0
   19.9867  -13.8710   20.6933 C   0  0  0  0  0  0  0  0  0  0  0  0
   17.2360  -16.0230   22.2049 N   0  0  0  0  0  0  0  0  0  0  0  0
   18.1603  -14.9988   22.7443 C   0  0  0  0  0  0  0  0  0  0  0  0
   17.3317  -16.0667   21.1903 H   0  0  0  0  0  0  0  0  0  0  0  0
   16.2762  -15.7753   22.4455 H   0  0  0  0  0  0  0  0  0  0  0  0
   18.0367  -14.9090   24.2924 C   0  0  0  0  0  0  0  0  0  0  0  0
   18.7335  -16.0808   24.9626 C   0  0  0  0  0  0  0  0  0  0  0  0
   18.0044  -17.0902   25.5980 C   0  0  0  0  0  0  0  0  0  0  0  0
   20.1232  -16.1610   24.9517 C   0  0  0  0  0  0  0  0  0  0  0  0
   18.6677  -18.1558   26.2047 C   0  0  0  0  0  0  0  0  0  0  0  0
   20.7871  -17.2191   25.5549 C   0  0  0  0  0  0  0  0  0  0  0  0
   20.0574  -18.2334   26.1904 C   0  0  0  0  0  0  0  0  0  0  0  0
   17.1083  -11.9427   19.8642 C   0  0  0  0  0  0  0  0  0  0  0  0
   16.7743  -12.8848   19.1579 O   0  0  0  0  0  0  0  0  0  0  0  0
   16.3293  -10.8599   20.1027 N   0  0  0  0  0  0  0  0  0  0  0  0
   16.6106  -10.1124   20.6784 H   0  0  0  0  0  0  0  0  0  0  0  0
   15.0183  -10.9030   19.4200 C   0  0  0  0  0  0  0  0  0  0  0  0
   13.9607  -10.8810   20.5385 C   0  0  0  0  0  0  0  0  0  0  0  0
   13.2570  -12.0399   20.8416 C   0  0  0  0  0  0  0  0  0  0  0  0
   12.2958  -12.0473   21.8491 C   0  0  0  0  0  0  0  0  0  0  0  0
   12.0176  -10.8850   22.5749 C   0  0  0  0  0  0  0  0  0  0  0  0
   12.7301   -9.7333   22.2608 C   0  0  0  0  0  0  0  0  0  0  0  0
   13.6962   -9.7183   21.2520 C   0  0  0  0  0  0  0  0  0  0  0  0
   10.9131  -10.8657   23.7427 C   0  0  0  0  0  0  0  0  0  0  0  0
   10.6470   -9.7273   24.3667 N   0  0  0  0  0  0  0  0  0  0  0  0
   10.2789  -11.9687   24.0744 N   0  0  0  0  0  0  0  0  0  0  0  0
   11.1248   -8.9043   24.1144 H   0  0  0  0  0  0  0  0  0  0  0  0
    9.9715   -9.7046   25.0825 H   0  0  0  0  0  0  0  0  0  0  0  0
   10.4805  -12.8118   23.6076 H   0  0  0  0  0  0  0  0  0  0  0  0
    9.6025  -11.9515   24.7895 H   0  0  0  0  0  0  0  0  0  0  0  0
 23 21  1  0  0  0
 23 24  1  0  0  0
 20 19  2  0  0  0
  5  6  1  0  0  0
  5  4  1  0  0  0
 19 21  1  0  0  0
 19  4  1  0  0  0
  6  7  1  0  0  0
 24 29  2  0  0  0
 24 25  1  0  0  0
  4  3  1  0  0  0
 29 28  1  0  0  0
  7  3  1  0  0  0
 25 26  2  0  0  0
  3  1  1  0  0  0
 28 27  2  0  0  0
 26 27  1  0  0  0
  1  2  2  0  0  0
  1  9  1  0  0  0
 27 30  1  0  0  0
  8  9  1  0  0  0
  9 12  1  0  0  0
 30 32  1  0  0  0
 30 31  2  0  0  0
 14 16  2  0  0  0
 14 13  1  0  0  0
 16 18  1  0  0  0
 12 13  1  0  0  0
 13 15  2  0  0  0
 18 17  2  0  0  0
 15 17  1  0  0  0
  8 10  1  0  0  0
  8 11  1  0  0  0
 21 22  1  0  0  0
 31 33  1  0  0  0
 31 34  1  0  0  0
 32 35  1  0  0  0
 32 36  1  0  0  0
M  CHG 1  31   1
M  END
> <minimizedAffinity>
-8.88871

$$$$
2ZDA_32U_H_1000


 36 38  0  0  0  0  0  0  0  0999 V2000
   17.6440  -13.7856   20.8026 C   0  0  0  0  0  0  0  0  0  0  0  0
   17.6144  -13.5485   19.5982 O   0  0  0  0  0  0  0  0  0  0  0  0
   16.9463  -14.8492   21.2970 N   0  0  0  0  0  0  0  0  0  0  0  0
   16.1613  -15.6679   20.4058 C   0  0  0  0  0  0  0  0  0  0  0  0
   15.4362  -16.5996   21.4223 C   0  0  0  0  0  0  0  0  0  0  0  0
   16.5197  -16.7355   22.5196 C   0  0  0  0  0  0  0  0  0  0  0  0
   17.0552  -15.2893   22.6880 C   0  0  0  0  0  0  0  0  0  0  0  0
   18.3039  -11.4525   21.2987 N   0  0  0  0  0  0  0  0  0  0  0  0
   18.4600  -12.8743   21.6837 C   0  0  0  0  0  0  0  0  0  0  0  0
   17.3140  -11.2062   21.3013 H   0  0  0  0  0  0  0  0  0  0  0  0
   18.6874  -11.3091   20.3644 H   0  0  0  0  0  0  0  0  0  0  0  0
   19.9619  -13.2797   21.6886 C   0  0  0  0  0  0  0  0  0  0  0  0
   20.5281  -13.2526   23.0981 C   0  0  0  0  0  0  0  0  0  0  0  0
   21.9066  -13.2958   23.3259 C   0  0  0  0  0  0  0  0  0  0  0  0
   19.6682  -13.1850   24.1907 C   0  0  0  0  0  0  0  0  0  0  0  0
   22.4010  -13.2684   24.6292 C   0  0  0  0  0  0  0  0  0  0  0  0
   20.1560  -13.1584   25.4889 C   0  0  0  0  0  0  0  0  0  0  0  0
   21.5382  -13.1992   25.7192 C   0  0  0  0  0  0  0  0  0  0  0  0
   15.1005  -14.8019   19.7499 C   0  0  0  0  0  0  0  0  0  0  0  0
   14.7222  -15.0384   18.6101 O   0  0  0  0  0  0  0  0  0  0  0  0
   14.6622  -13.7572   20.4932 N   0  0  0  0  0  0  0  0  0  0  0  0
   14.9724  -13.5839   21.4113 H   0  0  0  0  0  0  0  0  0  0  0  0
   13.6757  -12.9010   19.8001 C   0  0  0  0  0  0  0  0  0  0  0  0
   13.1655  -11.9058   20.8582 C   0  0  0  0  0  0  0  0  0  0  0  0
   13.6909  -10.6206   20.9023 C   0  0  0  0  0  0  0  0  0  0  0  0
   13.2464   -9.7009   21.8486 C   0  0  0  0  0  0  0  0  0  0  0  0
   12.2624  -10.0550   22.7768 C   0  0  0  0  0  0  0  0  0  0  0  0
   11.7457  -11.3444   22.7201 C   0  0  0  0  0  0  0  0  0  0  0  0
   12.1861  -12.2722   21.7733 C   0  0  0  0  0  0  0  0  0  0  0  0
   11.7315   -9.0132   23.8798 C   0  0  0  0  0  0  0  0  0  0  0  0
   10.5129   -9.1604   24.3793 N   0  0  0  0  0  0  0  0  0  0  0  0
   12.4996   -8.0254   24.2835 N   0  0  0  0  0  0  0  0  0  0  0  0
    9.9418   -9.9018   24.0735 H   0  0  0  0  0  0  0  0  0  0  0  0
   10.1786   -8.5284   25.0561 H   0  0  0  0  0  0  0  0  0  0  0  0
   13.4042   -7.9206   23.9092 H   0  0  0  0  0  0  0  0  0  0  0  0
   12.1703   -7.3906   24.9601 H   0  0  0  0  0  0  0  0  0  0  0  0
 23 21  1  0  0  0
 23 24  1  0  0  0
 20 19  2  0  0  0
  5  6  1  0  0  0
  5  4  1  0  0  0
 19 21  1  0  0  0
 19  4  1  0  0  0
  6  7  1  0  0  0
 24 29  2  0  0  0
 24 25  1  0  0  0
  4  3  1  0  0  0
 29 28  1  0  0  0
  7  3  1  0  0  0
 25 26  2  0  0  0
  3  1  1  0  0  0
 28 27  2  0  0  0
 26 27  1  0  0  0
  1  2  2  0  0  0
  1  9  1  0  0  0
 27 30  1  0  0  0
  8  9  1  0  0  0
  9 12  1  0  0  0
 30 32  1  0  0  0
 30 31  2  0  0  0
 14 16  2  0  0  0
 14 13  1  0  0  0
 16 18  1  0  0  0
 12 13  1  0  0  0
 13 15  2  0  0  0
 18 17  2  0  0  0
 15 17  1  0  0  0
  8 10  1  0  0  0
  8 11  1  0  0  0
 21 22  1  0  0  0
 31 33  1  0  0  0
 31 34  1  0  0  0
 32 35  1  0  0  0
 32 36  1  0  0  0
M  CHG 1  31   1
M  END
> <minimizedAffinity>
-8.67181

$$$$
2ZDA_32U_H_1000


 36 38  0  0  0  0  0  0  0  0999 V2000
   17.7969  -13.7653   22.1330 C   0  0  0  0  0  0  0  0  0  0  0  0
   16.9143  -13.0026   22.5165 O   0  0  0  0  0  0  0  0  0  0  0  0
   18.7121  -13.3307   21.2187 N   0  0  0  0  0  0  0  0  0  0  0  0
   18.6189  -11.9907   20.6928 C   0  0  0  0  0  0  0  0  0  0  0  0
   19.7245  -12.0264   19.5958 C   0  0  0  0  0  0  0  0  0  0  0  0
   20.7544  -12.9800   20.2487 C   0  0  0  0  0  0  0  0  0  0  0  0
   19.8802  -14.1217   20.8309 C   0  0  0  0  0  0  0  0  0  0  0  0
   19.1114  -15.4646   23.3617 N   0  0  0  0  0  0  0  0  0  0  0  0
   17.8212  -15.1620   22.6998 C   0  0  0  0  0  0  0  0  0  0  0  0
   19.3037  -14.7573   24.0711 H   0  0  0  0  0  0  0  0  0  0  0  0
   19.8586  -15.4616   22.6674 H   0  0  0  0  0  0  0  0  0  0  0  0
   17.5004  -16.2255   21.6108 C   0  0  0  0  0  0  0  0  0  0  0  0
   16.0979  -16.0337   21.0595 C   0  0  0  0  0  0  0  0  0  0  0  0
   14.9710  -16.2204   21.8653 C   0  0  0  0  0  0  0  0  0  0  0  0
   15.9190  -15.6668   19.7286 C   0  0  0  0  0  0  0  0  0  0  0  0
   13.6945  -16.0368   21.3356 C   0  0  0  0  0  0  0  0  0  0  0  0
   14.6507  -15.4841   19.1975 C   0  0  0  0  0  0  0  0  0  0  0  0
   13.5196  -15.6685   20.0048 C   0  0  0  0  0  0  0  0  0  0  0  0
   17.2848  -11.8326   19.9853 C   0  0  0  0  0  0  0  0  0  0  0  0
   16.9922  -12.5546   19.0413 O   0  0  0  0  0  0  0  0  0  0  0  0
   16.4988  -10.8289   20.4447 N   0  0  0  0  0  0  0  0  0  0  0  0
   16.7462  -10.2603   21.2094 H   0  0  0  0  0  0  0  0  0  0  0  0
   15.2358  -10.6653   19.6933 C   0  0  0  0  0  0  0  0  0  0  0  0
   14.1116  -10.7182   20.7438 C   0  0  0  0  0  0  0  0  0  0  0  0
   13.5661  -11.9437   21.1051 C   0  0  0  0  0  0  0  0  0  0  0  0
   12.5490  -12.0195   22.0532 C   0  0  0  0  0  0  0  0  0  0  0  0
   12.0540  -10.8607   22.6592 C   0  0  0  0  0  0  0  0  0  0  0  0
   12.6100   -9.6417   22.2879 C   0  0  0  0  0  0  0  0  0  0  0  0
   13.6309   -9.5578   21.3382 C   0  0  0  0  0  0  0  0  0  0  0  0
   10.8806  -10.9196   23.7562 C   0  0  0  0  0  0  0  0  0  0  0  0
   10.5816   -9.8290   24.4471 N   0  0  0  0  0  0  0  0  0  0  0  0
   10.2228  -12.0388   23.9647 N   0  0  0  0  0  0  0  0  0  0  0  0
   11.0772   -8.9935   24.2870 H   0  0  0  0  0  0  0  0  0  0  0  0
    9.8639   -9.8542   25.1205 H   0  0  0  0  0  0  0  0  0  0  0  0
   10.4489  -12.8461   23.4486 H   0  0  0  0  0  0  0  0  0  0  0  0
    9.5042  -12.0695   24.6369 H   0  0  0  0  0  0  0  0  0  0  0  0
 23 21  1  0  0  0
 23 24  1  0  0  0
 20 19  2  0  0  0
  5  6  1  0  0  0
  5  4  1  0  0  0
 19 21  1  0  0  0
 19  4  1  0  0  0
  6  7  1  0  0  0
 24 29  2  0  0  0
 24 25  1  0  0  0
  4  3  1  0  0  0
 29 28  1  0  0  0
  7  3  1  0  0  0
 25 26  2  0  0  0
  3  1  1  0  0  0
 28 27  2  0  0  0
 26 27  1  0  0  0
  1  2  2  0  0  0
  1  9  1  0  0  0
 27 30  1  0  0  0
  8  9  1  0  0  0
  9 12  1  0  0  0
 30 32  1  0  0  0
 30 31  2  0  0  0
 14 16  2  0  0  0
 14 13  1  0  0  0
 16 18  1  0  0  0
 12 13  1  0  0  0
 13 15  2  0  0  0
 18 17  2  0  0  0
 15 17  1  0  0  0
  8 10  1  0  0  0
  8 11  1  0  0  0
 21 22  1  0  0  0
 31 33  1  0  0  0
 31 34  1  0  0  0
 32 35  1  0  0  0
 32 36  1  0  0  0
M  CHG 1  31   1
M  END
> <minimizedAffinity>
-8.63817

$$$$
2ZDA_32U_H_1000


 36 38  0  0  0  0  0  0  0  0999 V2000
   16.9800  -15.7247   22.2531 C   0  0  0  0  0  0  0  0  0  0  0  0
   16.9174  -15.7188   21.0269 O   0  0  0  0  0  0  0  0  0  0  0  0
   16.4981  -16.7964   22.9470 N   0  0  0  0  0  0  0  0  0  0  0  0
   15.8972  -17.8986   22.2364 C   0  0  0  0  0  0  0  0  0  0  0  0
   15.3570  -18.7544   23.4209 C   0  0  0  0  0  0  0  0  0  0  0  0
   16.4347  -18.4779   24.4973 C   0  0  0  0  0  0  0  0  0  0  0  0
   16.6761  -16.9491   24.3911 C   0  0  0  0  0  0  0  0  0  0  0  0
   16.6600  -13.3794   22.9759 N   0  0  0  0  0  0  0  0  0  0  0  0
   17.5934  -14.5289   22.9364 C   0  0  0  0  0  0  0  0  0  0  0  0
   15.7849  -13.6668   23.4141 H   0  0  0  0  0  0  0  0  0  0  0  0
   16.4751  -13.0588   22.0254 H   0  0  0  0  0  0  0  0  0  0  0  0
   18.9394  -14.1203   22.2723 C   0  0  0  0  0  0  0  0  0  0  0  0
   19.9591  -13.7064   23.3195 C   0  0  0  0  0  0  0  0  0  0  0  0
   19.5690  -13.3819   24.6220 C   0  0  0  0  0  0  0  0  0  0  0  0
   21.3095  -13.6439   22.9873 C   0  0  0  0  0  0  0  0  0  0  0  0
   20.5246  -13.0062   25.5650 C   0  0  0  0  0  0  0  0  0  0  0  0
   22.2633  -13.2697   23.9223 C   0  0  0  0  0  0  0  0  0  0  0  0
   21.8741  -12.9464   25.2296 C   0  0  0  0  0  0  0  0  0  0  0  0
   14.6948  -17.3871   21.4630 C   0  0  0  0  0  0  0  0  0  0  0  0
   14.5029  -17.7406   20.3070 O   0  0  0  0  0  0  0  0  0  0  0  0
   13.9108  -16.5028   22.1260 N   0  0  0  0  0  0  0  0  0  0  0  0
   14.0756  -16.2330   23.0584 H   0  0  0  0  0  0  0  0  0  0  0  0
   12.7855  -15.9799   21.3219 C   0  0  0  0  0  0  0  0  0  0  0  0
   13.1459  -14.5195   20.9938 C   0  0  0  0  0  0  0  0  0  0  0  0
   12.8671  -13.5191   21.9166 C   0  0  0  0  0  0  0  0  0  0  0  0
   13.1836  -12.1905   21.6451 C   0  0  0  0  0  0  0  0  0  0  0  0
   13.7870  -11.8365   20.4344 C   0  0  0  0  0  0  0  0  0  0  0  0
   14.0604  -12.8483   19.5211 C   0  0  0  0  0  0  0  0  0  0  0  0
   13.7465  -14.1833   19.7867 C   0  0  0  0  0  0  0  0  0  0  0  0
   14.1626  -10.3107   20.0954 C   0  0  0  0  0  0  0  0  0  0  0  0
   15.4104   -9.8964   20.2616 N   0  0  0  0  0  0  0  0  0  0  0  0
   13.2409   -9.4824   19.6561 N   0  0  0  0  0  0  0  0  0  0  0  0
   16.0967  -10.5207   20.5909 H   0  0  0  0  0  0  0  0  0  0  0  0
   15.6510   -8.9642   20.0558 H   0  0  0  0  0  0  0  0  0  0  0  0
   12.3154   -9.7954   19.5344 H   0  0  0  0  0  0  0  0  0  0  0  0
   13.4762   -8.5491   19.4488 H   0  0  0  0  0  0  0  0  0  0  0  0
 23 21  1  0  0  0
 23 24  1  0  0  0
 20 19  2  0  0  0
  5  6  1  0  0  0
  5  4  1  0  0  0
 19 21  1  0  0  0
 19  4  1  0  0  0
  6  7  1  0  0  0
 24 29  2  0  0  0
 24 25  1  0  0  0
  4  3  1  0  0  0
 29 28  1  0  0  0
  7  3  1  0  0  0
 25 26  2  0  0  0
  3  1  1  0  0  0
 28 27  2  0  0  0
 26 27  1  0  0  0
  1  2  2  0  0  0
  1  9  1  0  0  0
 27 30  1  0  0  0
  8  9  1  0  0  0
  9 12  1  0  0  0
 30 32  1  0  0  0
 30 31  2  0  0  0
 14 16  2  0  0  0
 14 13  1  0  0  0
 16 18  1  0  0  0
 12 13  1  0  0  0
 13 15  2  0  0  0
 18 17  2  0  0  0
 15 17  1  0  0  0
  8 10  1  0  0  0
  8 11  1  0  0  0
 21 22  1  0  0  0
 31 33  1  0  0  0
 31 34  1  0  0  0
 32 35  1  0  0  0
 32 36  1  0  0  0
M  CHG 1  31   1
M  END
> <minimizedAffinity>
-8.21888

$$$$
2ZDA_32U_H_1000


 36 38  0  0  0  0  0  0  0  0999 V2000
   17.7002  -13.6933   22.3132 C   0  0  0  0  0  0  0  0  0  0  0  0
   16.7025  -13.0395   22.6042 O   0  0  0  0  0  0  0  0  0  0  0  0
   18.5974  -13.1898   21.4166 N   0  0  0  0  0  0  0  0  0  0  0  0
   18.3527  -11.9085   20.8007 C   0  0  0  0  0  0  0  0  0  0  0  0
   19.5122  -11.8541   19.7615 C   0  0  0  0  0  0  0  0  0  0  0  0
   20.6240  -12.6160   20.5230 C   0  0  0  0  0  0  0  0  0  0  0  0
   19.8817  -13.8322   21.1366 C   0  0  0  0  0  0  0  0  0  0  0  0
   16.6841  -15.8944   22.8111 N   0  0  0  0  0  0  0  0  0  0  0  0
   17.8821  -15.0379   22.9704 C   0  0  0  0  0  0  0  0  0  0  0  0
   16.4547  -15.9774   21.8208 H   0  0  0  0  0  0  0  0  0  0  0  0
   15.8981  -15.4754   23.3083 H   0  0  0  0  0  0  0  0  0  0  0  0
   18.2570  -14.8925   24.4732 C   0  0  0  0  0  0  0  0  0  0  0  0
   19.6702  -14.3583   24.6320 C   0  0  0  0  0  0  0  0  0  0  0  0
   20.7806  -15.1299   24.2774 C   0  0  0  0  0  0  0  0  0  0  0  0
   19.8759  -13.0788   25.1405 C   0  0  0  0  0  0  0  0  0  0  0  0
   22.0673  -14.6160   24.4318 C   0  0  0  0  0  0  0  0  0  0  0  0
   21.1545  -12.5641   25.2965 C   0  0  0  0  0  0  0  0  0  0  0  0
   22.2690  -13.3356   24.9390 C   0  0  0  0  0  0  0  0  0  0  0  0
   17.0509  -11.9784   20.0224 C   0  0  0  0  0  0  0  0  0  0  0  0
   16.9942  -12.5810   18.9585 O   0  0  0  0  0  0  0  0  0  0  0  0
   16.0114  -11.3009   20.5668 N   0  0  0  0  0  0  0  0  0  0  0  0
   16.0717  -10.8257   21.4269 H   0  0  0  0  0  0  0  0  0  0  0  0
   14.7782  -11.3400   19.7517 C   0  0  0  0  0  0  0  0  0  0  0  0
   14.1203  -12.6998   20.0494 C   0  0  0  0  0  0  0  0  0  0  0  0
   14.0557  -13.6647   19.0522 C   0  0  0  0  0  0  0  0  0  0  0  0
   13.4669  -14.9029   19.2954 C   0  0  0  0  0  0  0  0  0  0  0  0
   12.9254  -15.1985   20.5502 C   0  0  0  0  0  0  0  0  0  0  0  0
   12.9979  -14.2233   21.5384 C   0  0  0  0  0  0  0  0  0  0  0  0
   13.5876  -12.9793   21.3020 C   0  0  0  0  0  0  0  0  0  0  0  0
   12.2398  -16.6195   20.8579 C   0  0  0  0  0  0  0  0  0  0  0  0
   12.9423  -17.5606   21.4720 N   0  0  0  0  0  0  0  0  0  0  0  0
   10.9936  -16.8453   20.5048 N   0  0  0  0  0  0  0  0  0  0  0  0
   13.8751  -17.3863   21.7342 H   0  0  0  0  0  0  0  0  0  0  0  0
   12.5313  -18.4339   21.6660 H   0  0  0  0  0  0  0  0  0  0  0  0
   10.4762  -16.1427   20.0487 H   0  0  0  0  0  0  0  0  0  0  0  0
   10.5778  -17.7168   20.6964 H   0  0  0  0  0  0  0  0  0  0  0  0
 23 21  1  0  0  0
 23 24  1  0  0  0
 20 19  2  0  0  0
  5  6  1  0  0  0
  5  4  1  0  0  0
 19 21  1  0  0  0
 19  4  1  0  0  0
  6  7  1  0  0  0
 24 29  2  0  0  0
 24 25  1  0  0  0
  4  3  1  0  0  0
 29 28  1  0  0  0
  7  3  1  0  0  0
 25 26  2  0  0  0
  3  1  1  0  0  0
 28 27  2  0  0  0
 26 27  1  0  0  0
  1  2  2  0  0  0
  1  9  1  0  0  0
 27 30  1  0  0  0
  8  9  1  0  0  0
  9 12  1  0  0  0
 30 32  1  0  0  0
 30 31  2  0  0  0
 14 16  2  0  0  0
 14 13  1  0  0  0
 16 18  1  0  0  0
 12 13  1  0  0  0
 13 15  2  0  0  0
 18 17  2  0  0  0
 15 17  1  0  0  0
  8 10  1  0  0  0
  8 11  1  0  0  0
 21 22  1  0  0  0
 31 33  1  0  0  0
 31 34  1  0  0  0
 32 35  1  0  0  0
 32 36  1  0  0  0
M  CHG 1  31   1
M  END
> <minimizedAffinity>
-8.10587

$$$$
2ZDA_32U_H_1000


 36 38  0  0  0  0  0  0  0  0999 V2000
   14.2174  -12.8833   20.9442 C   0  0  0  0  0  0  0  0  0  0  0  0
   15.1990  -12.8219   21.6793 O   0  0  0  0  0  0  0  0  0  0  0  0
   13.6189  -14.0888   20.7190 N   0  0  0  0  0  0  0  0  0  0  0  0
   14.1594  -15.2813   21.3244 C   0  0  0  0  0  0  0  0  0  0  0  0
   13.2822  -16.3784   20.6505 C   0  0  0  0  0  0  0  0  0  0  0  0
   11.9383  -15.6255   20.4970 C   0  0  0  0  0  0  0  0  0  0  0  0
   12.3596  -14.2225   19.9863 C   0  0  0  0  0  0  0  0  0  0  0  0
   14.3086  -11.3827   18.9781 N   0  0  0  0  0  0  0  0  0  0  0  0
   13.7199  -11.6046   20.3192 C   0  0  0  0  0  0  0  0  0  0  0  0
   14.1280  -12.1954   18.3888 H   0  0  0  0  0  0  0  0  0  0  0  0
   15.3152  -11.2443   19.0674 H   0  0  0  0  0  0  0  0  0  0  0  0
   13.9797  -10.3796   21.2421 C   0  0  0  0  0  0  0  0  0  0  0  0
   12.8809  -10.2390   22.2817 C   0  0  0  0  0  0  0  0  0  0  0  0
   12.0798  -11.3269   22.6406 C   0  0  0  0  0  0  0  0  0  0  0  0
   12.6573   -9.0089   22.8938 C   0  0  0  0  0  0  0  0  0  0  0  0
   11.0787  -11.1720   23.5985 C   0  0  0  0  0  0  0  0  0  0  0  0
   11.6617   -8.8505   23.8466 C   0  0  0  0  0  0  0  0  0  0  0  0
   10.8590   -9.9409   24.2096 C   0  0  0  0  0  0  0  0  0  0  0  0
   15.5835  -15.4779   20.8358 C   0  0  0  0  0  0  0  0  0  0  0  0
   15.8187  -15.6088   19.6418 O   0  0  0  0  0  0  0  0  0  0  0  0
   16.5273  -15.5400   21.8062 N   0  0  0  0  0  0  0  0  0  0  0  0
   16.3225  -15.4269   22.7625 H   0  0  0  0  0  0  0  0  0  0  0  0
   17.8928  -15.7931   21.2982 C   0  0  0  0  0  0  0  0  0  0  0  0
   18.8396  -15.0189   22.2334 C   0  0  0  0  0  0  0  0  0  0  0  0
   20.0055  -14.4622   21.7230 C   0  0  0  0  0  0  0  0  0  0  0  0
   20.8786  -13.7565   22.5470 C   0  0  0  0  0  0  0  0  0  0  0  0
   20.5992  -13.5967   23.9077 C   0  0  0  0  0  0  0  0  0  0  0  0
   19.4285  -14.1588   24.4040 C   0  0  0  0  0  0  0  0  0  0  0  0
   18.5477  -14.8675   23.5835 C   0  0  0  0  0  0  0  0  0  0  0  0
   21.5896  -12.7871   24.8811 C   0  0  0  0  0  0  0  0  0  0  0  0
   21.0825  -11.9437   25.7687 N   0  0  0  0  0  0  0  0  0  0  0  0
   22.8902  -12.9613   24.7984 N   0  0  0  0  0  0  0  0  0  0  0  0
   20.1079  -11.8170   25.8264 H   0  0  0  0  0  0  0  0  0  0  0  0
   21.6805  -11.4438   26.3702 H   0  0  0  0  0  0  0  0  0  0  0  0
   23.2617  -13.5892   24.1373 H   0  0  0  0  0  0  0  0  0  0  0  0
   23.4926  -12.4640   25.3976 H   0  0  0  0  0  0  0  0  0  0  0  0
 23 21  1  0  0  0
 23 24  1  0  0  0
 20 19  2  0  0  0
  5  6  1  0  0  0
  5  4  1  0  0  0
 19 21  1  0  0  0
 19  4  1  0  0  0
  6  7  1  0  0  0
 24 29  2  0  0  0
 24 25  1  0  0  0
  4  3  1  0  0  0
 29 28  1  0  0  0
  7  3  1  0  0  0
 25 26  2  0  0  0
  3  1  1  0  0  0
 28 27  2  0  0  0
 26 27  1  0  0  0
  1  2  2  0  0  0
  1  9  1  0  0  0
 27 30  1  0  0  0
  8  9  1  0  0  0
  9 12  1  0  0  0
 30 32  1  0  0  0
 30 31  2  0  0  0
 14 16  2  0  0  0
 14 13  1  0  0  0
 16 18  1  0  0  0
 12 13  1  0  0  0
 13 15  2  0  0  0
 18 17  2  0  0  0
 15 17  1  0  0  0
  8 10  1  0  0  0
  8 11  1  0  0  0
 21 22  1  0  0  0
 31 33  1  0  0  0
 31 34  1  0  0  0
 32 35  1  0  0  0
 32 36  1  0  0  0
M  CHG 1  31   1
M  END
> <minimizedAffinity>
-8.04855

$$$$
2ZDA_32U_H_1000


 36 38  0  0  0  0  0  0  0  0999 V2000
   13.7568  -13.8234   20.0801 C   0  0  0  0  0  0  0  0  0  0  0  0
   13.9098  -13.9971   18.8743 O   0  0  0  0  0  0  0  0  0  0  0  0
   13.7165  -12.5534   20.5779 N   0  0  0  0  0  0  0  0  0  0  0  0
   13.8799  -11.4296   19.6883 C   0  0  0  0  0  0  0  0  0  0  0  0
   13.9416  -10.2528   20.7073 C   0  0  0  0  0  0  0  0  0  0  0  0
   12.9852  -10.7693   21.8096 C   0  0  0  0  0  0  0  0  0  0  0  0
   13.3828  -12.2600   21.9718 C   0  0  0  0  0  0  0  0  0  0  0  0
   14.4268  -16.1764   20.4535 N   0  0  0  0  0  0  0  0  0  0  0  0
   13.6214  -15.0407   20.9591 C   0  0  0  0  0  0  0  0  0  0  0  0
   15.3982  -15.8837   20.3474 H   0  0  0  0  0  0  0  0  0  0  0  0
   14.0615  -16.4766   19.5498 H   0  0  0  0  0  0  0  0  0  0  0  0
   12.1326  -15.4575   21.1314 C   0  0  0  0  0  0  0  0  0  0  0  0
   11.7832  -16.6182   20.2156 C   0  0  0  0  0  0  0  0  0  0  0  0
   11.4966  -16.4128   18.8629 C   0  0  0  0  0  0  0  0  0  0  0  0
   11.7431  -17.9144   20.7217 C   0  0  0  0  0  0  0  0  0  0  0  0
   11.1799  -17.4951   18.0431 C   0  0  0  0  0  0  0  0  0  0  0  0
   11.4277  -18.9938   19.9096 C   0  0  0  0  0  0  0  0  0  0  0  0
   11.1424  -18.7900   18.5524 C   0  0  0  0  0  0  0  0  0  0  0  0
   15.2417  -11.5237   19.0233 C   0  0  0  0  0  0  0  0  0  0  0  0
   15.3567  -11.3590   17.8159 O   0  0  0  0  0  0  0  0  0  0  0  0
   16.2699  -11.8403   19.8471 N   0  0  0  0  0  0  0  0  0  0  0  0
   16.1617  -11.9639   20.8178 H   0  0  0  0  0  0  0  0  0  0  0  0
   17.5692  -11.9834   19.1557 C   0  0  0  0  0  0  0  0  0  0  0  0
   18.5663  -12.4584   20.2283 C   0  0  0  0  0  0  0  0  0  0  0  0
   18.1069  -12.7792   21.4994 C   0  0  0  0  0  0  0  0  0  0  0  0
   18.9874  -13.2121   22.4875 C   0  0  0  0  0  0  0  0  0  0  0  0
   20.3547  -13.3298   22.2194 C   0  0  0  0  0  0  0  0  0  0  0  0
   20.7996  -13.0058   20.9428 C   0  0  0  0  0  0  0  0  0  0  0  0
   19.9223  -12.5715   19.9463 C   0  0  0  0  0  0  0  0  0  0  0  0
   21.3930  -13.8267   23.3414 C   0  0  0  0  0  0  0  0  0  0  0  0
   21.7831  -12.9824   24.2853 N   0  0  0  0  0  0  0  0  0  0  0  0
   21.8495  -15.0596   23.3234 N   0  0  0  0  0  0  0  0  0  0  0  0
   21.4382  -12.0603   24.2942 H   0  0  0  0  0  0  0  0  0  0  0  0
   22.4179  -13.2771   24.9778 H   0  0  0  0  0  0  0  0  0  0  0  0
   21.5564  -15.6829   22.6199 H   0  0  0  0  0  0  0  0  0  0  0  0
   22.4845  -15.3595   24.0135 H   0  0  0  0  0  0  0  0  0  0  0  0
 23 21  1  0  0  0
 23 24  1  0  0  0
 20 19  2  0  0  0
  5  6  1  0  0  0
  5  4  1  0  0  0
 19 21  1  0  0  0
 19  4  1  0  0  0
  6  7  1  0  0  0
 24 29  2  0  0  0
 24 25  1  0  0  0
  4  3  1  0  0  0
 29 28  1  0  0  0
  7  3  1  0  0  0
 25 26  2  0  0  0
  3  1  1  0  0  0
 28 27  2  0  0  0
 26 27  1  0  0  0
  1  2  2  0  0  0
  1  9  1  0  0  0
 27 30  1  0  0  0
  8  9  1  0  0  0
  9 12  1  0  0  0
 30 32  1  0  0  0
 30 31  2  0  0  0
 14 16  2  0  0  0
 14 13  1  0  0  0
 16 18  1  0  0  0
 12 13  1  0  0  0
 13 15  2  0  0  0
 18 17  2  0  0  0
 15 17  1  0  0  0
  8 10  1  0  0  0
  8 11  1  0  0  0
 21 22  1  0  0  0
 31 33  1  0  0  0
 31 34  1  0  0  0
 32 35  1  0  0  0
 32 36  1  0  0  0
M  CHG 1  31   1
M  END
> <minimizedAffinity>
-7.64725

$$$$
2ZDA_32U_H_1000


 36 38  0  0  0  0  0  0  0  0999 V2000
   16.8665  -15.9156   22.4799 C   0  0  0  0  0  0  0  0  0  0  0  0
   16.6456  -15.6440   21.3030 O   0  0  0  0  0  0  0  0  0  0  0  0
   16.3714  -17.0722   23.0086 N   0  0  0  0  0  0  0  0  0  0  0  0
   15.5731  -17.9505   22.1888 C   0  0  0  0  0  0  0  0  0  0  0  0
   15.1068  -18.9971   23.2446 C   0  0  0  0  0  0  0  0  0  0  0  0
   16.3381  -19.0361   24.1821 C   0  0  0  0  0  0  0  0  0  0  0  0
   16.7194  -17.5417   24.3498 C   0  0  0  0  0  0  0  0  0  0  0  0
   17.4055  -15.0632   24.7400 N   0  0  0  0  0  0  0  0  0  0  0  0
   17.6831  -14.9412   23.2901 C   0  0  0  0  0  0  0  0  0  0  0  0
   17.5536  -16.0285   25.0345 H   0  0  0  0  0  0  0  0  0  0  0  0
   16.4386  -14.7959   24.9248 H   0  0  0  0  0  0  0  0  0  0  0  0
   17.4653  -13.4773   22.8110 C   0  0  0  0  0  0  0  0  0  0  0  0
   18.4521  -13.1110   21.7156 C   0  0  0  0  0  0  0  0  0  0  0  0
   18.0256  -12.5090   20.5281 C   0  0  0  0  0  0  0  0  0  0  0  0
   19.8081  -13.3761   21.8852 C   0  0  0  0  0  0  0  0  0  0  0  0
   18.9515  -12.1815   19.5386 C   0  0  0  0  0  0  0  0  0  0  0  0
   20.7323  -13.0526   20.9028 C   0  0  0  0  0  0  0  0  0  0  0  0
   20.3068  -12.4467   19.7125 C   0  0  0  0  0  0  0  0  0  0  0  0
   14.3392  -17.1993   21.7214 C   0  0  0  0  0  0  0  0  0  0  0  0
   13.4536  -16.9045   22.5131 O   0  0  0  0  0  0  0  0  0  0  0  0
   14.2874  -16.9366   20.3930 N   0  0  0  0  0  0  0  0  0  0  0  0
   15.0113  -17.1753   19.7699 H   0  0  0  0  0  0  0  0  0  0  0  0
   13.0450  -16.2589   19.9644 C   0  0  0  0  0  0  0  0  0  0  0  0
   13.3666  -14.7533   19.9617 C   0  0  0  0  0  0  0  0  0  0  0  0
   12.6437  -13.8949   20.7804 C   0  0  0  0  0  0  0  0  0  0  0  0
   12.9150  -12.5292   20.7976 C   0  0  0  0  0  0  0  0  0  0  0  0
   13.9207  -11.9939   19.9871 C   0  0  0  0  0  0  0  0  0  0  0  0
   14.6361  -12.8652   19.1735 C   0  0  0  0  0  0  0  0  0  0  0  0
   14.3701  -14.2363   19.1514 C   0  0  0  0  0  0  0  0  0  0  0  0
   14.2544  -10.4214   19.9872 C   0  0  0  0  0  0  0  0  0  0  0  0
   15.4920  -10.0198   20.2386 N   0  0  0  0  0  0  0  0  0  0  0  0
   13.3087   -9.5424   19.7387 N   0  0  0  0  0  0  0  0  0  0  0  0
   16.1964  -10.6821   20.4240 H   0  0  0  0  0  0  0  0  0  0  0  0
   15.7070   -9.0590   20.2400 H   0  0  0  0  0  0  0  0  0  0  0  0
   12.3909   -9.8462   19.5526 H   0  0  0  0  0  0  0  0  0  0  0  0
   13.5183   -8.5805   19.7389 H   0  0  0  0  0  0  0  0  0  0  0  0
 23 21  1  0  0  0
 23 24  1  0  0  0
 20 19  2  0  0  0
  5  6  1  0  0  0
  5  4  1  0  0  0
 19 21  1  0  0  0
 19  4  1  0  0  0
  6  7  1  0  0  0
 24 29  2  0  0  0
 24 25  1  0  0  0
  4  3  1  0  0  0
 29 28  1  0  0  0
  7  3  1  0  0  0
 25 26  2  0  0  0
  3  1  1  0  0  0
 28 27  2  0  0  0
 26 27  1  0  0  0
  1  2  2  0  0  0
  1  9  1  0  0  0
 27 30  1  0  0  0
  8  9  1  0  0  0
  9 12  1  0  0  0
 30 32  1  0  0  0
 30 31  2  0  0  0
 14 16  2  0  0  0
 14 13  1  0  0  0
 16 18  1  0  0  0
 12 13  1  0  0  0
 13 15  2  0  0  0
 18 17  2  0  0  0
 15 17  1  0  0  0
  8 10  1  0  0  0
  8 11  1  0  0  0
 21 22  1  0  0  0
 31 33  1  0  0  0
 31 34  1  0  0  0
 32 35  1  0  0  0
 32 36  1  0  0  0
M  CHG 1  31   1
M  END
> <minimizedAffinity>
-7.60427

$$$$
2ZDA_32U_H_1000


 36 38  0  0  0  0  0  0  0  0999 V2000
   19.3667  -16.0494   22.5605 C   0  0  0  0  0  0  0  0  0  0  0  0
   19.6690  -16.5845   21.4976 O   0  0  0  0  0  0  0  0  0  0  0  0
   18.2663  -16.4807   23.2427 N   0  0  0  0  0  0  0  0  0  0  0  0
   17.4553  -17.5416   22.6972 C   0  0  0  0  0  0  0  0  0  0  0  0
   16.2655  -17.5509   23.7030 C   0  0  0  0  0  0  0  0  0  0  0  0
   16.9880  -17.1592   25.0149 C   0  0  0  0  0  0  0  0  0  0  0  0
   17.9301  -16.0043   24.5845 C   0  0  0  0  0  0  0  0  0  0  0  0
   20.8243  -15.2340   24.3869 N   0  0  0  0  0  0  0  0  0  0  0  0
   20.2394  -14.9266   23.0612 C   0  0  0  0  0  0  0  0  0  0  0  0
   21.3263  -16.1207   24.3397 H   0  0  0  0  0  0  0  0  0  0  0  0
   20.0790  -15.3018   25.0800 H   0  0  0  0  0  0  0  0  0  0  0  0
   19.4660  -13.5775   23.1021 C   0  0  0  0  0  0  0  0  0  0  0  0
   19.3568  -12.9708   21.7136 C   0  0  0  0  0  0  0  0  0  0  0  0
   18.1737  -12.3670   21.2780 C   0  0  0  0  0  0  0  0  0  0  0  0
   20.4476  -13.0123   20.8499 C   0  0  0  0  0  0  0  0  0  0  0  0
   18.0995  -11.8163   19.9993 C   0  0  0  0  0  0  0  0  0  0  0  0
   20.3776  -12.4664   19.5766 C   0  0  0  0  0  0  0  0  0  0  0  0
   19.1928  -11.8583   19.1389 C   0  0  0  0  0  0  0  0  0  0  0  0
   16.9070  -17.0986   21.3524 C   0  0  0  0  0  0  0  0  0  0  0  0
   17.0237  -17.8149   20.3668 O   0  0  0  0  0  0  0  0  0  0  0  0
   16.3414  -15.8674   21.3327 N   0  0  0  0  0  0  0  0  0  0  0  0
   16.2499  -15.3056   22.1359 H   0  0  0  0  0  0  0  0  0  0  0  0
   15.8740  -15.4444   19.9950 C   0  0  0  0  0  0  0  0  0  0  0  0
   15.1979  -14.0763   20.1990 C   0  0  0  0  0  0  0  0  0  0  0  0
   14.9504  -13.2618   19.1012 C   0  0  0  0  0  0  0  0  0  0  0  0
   14.3394  -12.0203   19.2580 C   0  0  0  0  0  0  0  0  0  0  0  0
   13.9650  -11.5673   20.5267 C   0  0  0  0  0  0  0  0  0  0  0  0
   14.2185  -12.3935   21.6157 C   0  0  0  0  0  0  0  0  0  0  0  0
   14.8303  -13.6403   21.4662 C   0  0  0  0  0  0  0  0  0  0  0  0
   13.2586  -10.1387   20.7361 C   0  0  0  0  0  0  0  0  0  0  0  0
   12.6519   -9.8758   21.8846 N   0  0  0  0  0  0  0  0  0  0  0  0
   13.2838   -9.2392   19.7774 N   0  0  0  0  0  0  0  0  0  0  0  0
   12.6359  -10.5529   22.5991 H   0  0  0  0  0  0  0  0  0  0  0  0
   12.2171   -9.0034   22.0232 H   0  0  0  0  0  0  0  0  0  0  0  0
   13.7359   -9.4396   18.9262 H   0  0  0  0  0  0  0  0  0  0  0  0
   12.8507   -8.3652   19.9109 H   0  0  0  0  0  0  0  0  0  0  0  0
 23 21  1  0  0  0
 23 24  1  0  0  0
 20 19  2  0  0  0
  5  6  1  0  0  0
  5  4  1  0  0  0
 19 21  1  0  0  0
 19  4  1  0  0  0
  6  7  1  0  0  0
 24 29  2  0  0  0
 24 25  1  0  0  0
  4  3  1  0  0  0
 29 28  1  0  0  0
  7  3  1  0  0  0
 25 26  2  0  0  0
  3  1  1  0  0  0
 28 27  2  0  0  0
 26 27  1  0  0  0
  1  2  2  0  0  0
  1  9  1  0  0  0
 27 30  1  0  0  0
  8  9  1  0  0  0
  9 12  1  0  0  0
 30 32  1  0  0  0
 30 31  2  0  0  0
 14 16  2  0  0  0
 14 13  1  0  0  0
 16 18  1  0  0  0
 12 13  1  0  0  0
 13 15  2  0  0  0
 18 17  2  0  0  0
 15 17  1  0  0  0
  8 10  1  0  0  0
  8 11  1  0  0  0
 21 22  1  0  0  0
 31 33  1  0  0  0
 31 34  1  0  0  0
 32 35  1  0  0  0
 32 36  1  0  0  0
M  CHG 1  31   1
M  END
> <minimizedAffinity>
-7.43472

$$$$
