3MHM_J75_A_264


 33 35  0  0  0  0  0  0  0  0999 V2000
   -3.5766    4.7987    8.8284 N   0  0  0  0  0  0  0  0  0  0  0  0
   -3.3972    4.0170    9.9205 C   0  0  0  0  0  0  0  0  0  0  0  0
   -3.7381    4.4665   11.1743 N   0  0  0  0  0  0  0  0  0  0  0  0
   -4.2718    5.7113   11.3715 C   0  0  0  0  0  0  0  0  0  0  0  0
   -4.4829    6.5571   10.2352 C   0  0  0  0  0  0  0  0  0  0  0  0
   -4.1135    6.0604    8.9522 C   0  0  0  0  0  0  0  0  0  0  0  0
   -5.0234    7.9080   10.3313 N   0  0  0  0  0  0  0  0  0  0  0  0
   -6.0912    8.0837   10.8742 O   0  0  0  0  0  0  0  0  0  0  0  0
   -4.4392    8.9512    9.7750 O   0  0  0  0  0  0  0  0  0  0  0  0
   -4.6128    6.1726   12.6874 N   0  0  0  0  0  0  0  0  0  0  0  0
   -5.4334    6.7015   12.8141 H   0  0  0  0  0  0  0  0  0  0  0  0
   -3.7896    5.8819   13.8157 C   0  0  0  0  0  0  0  0  0  0  0  0
   -4.3656    4.7081   14.5847 C   0  0  0  0  0  0  0  0  0  0  0  0
   -3.5204    3.6347   14.9435 C   0  0  0  0  0  0  0  0  0  0  0  0
   -3.9813    2.5121   15.6741 C   0  0  0  0  0  0  0  0  0  0  0  0
   -5.3361    2.4246   16.0434 C   0  0  0  0  0  0  0  0  0  0  0  0
   -6.2255    3.4659   15.6741 C   0  0  0  0  0  0  0  0  0  0  0  0
   -5.7402    4.5757   14.9212 C   0  0  0  0  0  0  0  0  0  0  0  0
   -5.8594    0.9337   16.9673 S   0  0  0  0  0  0  0  0  0  0  0  0
   -5.4244    1.1982   18.4216 O   0  0  0  0  0  0  0  0  0  0  0  0
   -5.2315   -0.2507   16.3506 O   0  0  0  0  0  0  0  0  0  0  0  0
   -7.4891    1.0006   16.9143 N   0  0  0  0  0  0  0  0  0  0  0  0
   -7.8092    1.8565   17.3674 H   0  0  0  0  0  0  0  0  0  0  0  0
   -7.8785    0.1926   17.4001 H   0  0  0  0  0  0  0  0  0  0  0  0
   -4.3375    6.9180    7.8452 N   0  0  0  0  0  0  0  0  0  0  0  0
   -3.7015    7.6542    7.6945 H   0  0  0  0  0  0  0  0  0  0  0  0
   -5.4263    6.7790    6.9385 C   0  0  0  0  0  0  0  0  0  0  0  0
   -6.7214    7.5546    7.1129 C   0  0  0  0  0  0  0  0  0  0  0  0
   -7.7367    7.0807    8.0005 C   0  0  0  0  0  0  0  0  0  0  0  0
   -8.9356    7.8263    8.2311 C   0  0  0  0  0  0  0  0  0  0  0  0
   -9.1459    9.0518    7.5767 C   0  0  0  0  0  0  0  0  0  0  0  0
   -8.1192    9.5650    6.7153 C   0  0  0  0  0  0  0  0  0  0  0  0
   -6.9162    8.8152    6.4975 C   0  0  0  0  0  0  0  0  0  0  0  0
  1  2  2  0  0  0
  1  6  1  0  0  0
  2  3  1  0  0  0
  3  4  2  0  0  0
  4  5  1  0  0  0
  4 10  1  0  0  0
  5  6  2  0  0  0
  5  7  1  0  0  0
  6 25  1  0  0  0
 10 12  1  0  0  0
 13 14  2  0  0  0
 13 18  1  0  0  0
 13 12  1  0  0  0
 14 15  1  0  0  0
 15 16  2  0  0  0
 16 17  1  0  0  0
 16 19  1  0  0  0
 17 18  2  0  0  0
 19 20  2  0  0  0
 19 21  2  0  0  0
 19 22  1  0  0  0
  7  8  1  0  0  0
  7  9  2  0  0  0
 25 27  1  0  0  0
 27 28  1  0  0  0
 28 29  2  0  0  0
 28 33  1  0  0  0
 29 30  1  0  0  0
 30 31  2  0  0  0
 31 32  1  0  0  0
 32 33  2  0  0  0
 10 11  1  0  0  0
 22 23  1  0  0  0
 22 24  1  0  0  0
 25 26  1  0  0  0
M  CHG 1   7   1
M  CHG 1   8  -1
M  END
> <minimizedAffinity>
-7.84099

$$$$
3MHM_J75_A_264


 33 35  0  0  0  0  0  0  0  0999 V2000
   -4.0184    8.2995    9.4460 N   0  0  0  0  0  0  0  0  0  0  0  0
   -3.5468    8.7769   10.6231 C   0  0  0  0  0  0  0  0  0  0  0  0
   -3.2914    7.9311   11.6766 N   0  0  0  0  0  0  0  0  0  0  0  0
   -3.4978    6.5815   11.5816 C   0  0  0  0  0  0  0  0  0  0  0  0
   -3.9861    6.0456   10.3465 C   0  0  0  0  0  0  0  0  0  0  0  0
   -4.2443    6.9519    9.2782 C   0  0  0  0  0  0  0  0  0  0  0  0
   -4.2626    4.6286   10.1416 N   0  0  0  0  0  0  0  0  0  0  0  0
   -3.6972    4.0355    9.2502 O   0  0  0  0  0  0  0  0  0  0  0  0
   -5.1726    3.9719   10.8344 O   0  0  0  0  0  0  0  0  0  0  0  0
   -3.2378    5.7110   12.6929 N   0  0  0  0  0  0  0  0  0  0  0  0
   -2.7708    4.8584   12.5372 H   0  0  0  0  0  0  0  0  0  0  0  0
   -3.6408    6.0532   14.0180 C   0  0  0  0  0  0  0  0  0  0  0  0
   -4.2438    4.8411   14.7021 C   0  0  0  0  0  0  0  0  0  0  0  0
   -3.4160    3.7399   15.0143 C   0  0  0  0  0  0  0  0  0  0  0  0
   -3.9028    2.5801   15.6657 C   0  0  0  0  0  0  0  0  0  0  0  0
   -5.2663    2.4839   15.9993 C   0  0  0  0  0  0  0  0  0  0  0  0
   -6.1383    3.5541   15.6738 C   0  0  0  0  0  0  0  0  0  0  0  0
   -5.6268    4.7023   14.9998 C   0  0  0  0  0  0  0  0  0  0  0  0
   -5.8228    0.9456   16.8201 S   0  0  0  0  0  0  0  0  0  0  0  0
   -5.4440    1.1302   18.3022 O   0  0  0  0  0  0  0  0  0  0  0  0
   -5.1706   -0.2042   16.1643 O   0  0  0  0  0  0  0  0  0  0  0  0
   -7.4494    1.0169   16.7086 N   0  0  0  0  0  0  0  0  0  0  0  0
   -7.7875    1.8472   17.1950 H   0  0  0  0  0  0  0  0  0  0  0  0
   -7.8562    0.1841   17.1346 H   0  0  0  0  0  0  0  0  0  0  0  0
   -4.7234    6.3927    8.0662 N   0  0  0  0  0  0  0  0  0  0  0  0
   -4.6437    5.4192    7.9429 H   0  0  0  0  0  0  0  0  0  0  0  0
   -5.3125    7.1535    7.0169 C   0  0  0  0  0  0  0  0  0  0  0  0
   -6.6862    7.7878    7.1578 C   0  0  0  0  0  0  0  0  0  0  0  0
   -7.6480    7.2414    8.0631 C   0  0  0  0  0  0  0  0  0  0  0  0
   -8.9231    7.8589    8.2614 C   0  0  0  0  0  0  0  0  0  0  0  0
   -9.2636    9.0259    7.5568 C   0  0  0  0  0  0  0  0  0  0  0  0
   -8.2950    9.6137    6.6760 C   0  0  0  0  0  0  0  0  0  0  0  0
   -7.0154    8.9930    6.4907 C   0  0  0  0  0  0  0  0  0  0  0  0
  1  2  2  0  0  0
  1  6  1  0  0  0
  2  3  1  0  0  0
  3  4  2  0  0  0
  4  5  1  0  0  0
  4 10  1  0  0  0
  5  6  2  0  0  0
  5  7  1  0  0  0
  6 25  1  0  0  0
 10 12  1  0  0  0
 13 14  2  0  0  0
 13 18  1  0  0  0
 13 12  1  0  0  0
 14 15  1  0  0  0
 15 16  2  0  0  0
 16 17  1  0  0  0
 16 19  1  0  0  0
 17 18  2  0  0  0
 19 20  2  0  0  0
 19 21  2  0  0  0
 19 22  1  0  0  0
  7  8  1  0  0  0
  7  9  2  0  0  0
 25 27  1  0  0  0
 27 28  1  0  0  0
 28 29  2  0  0  0
 28 33  1  0  0  0
 29 30  1  0  0  0
 30 31  2  0  0  0
 31 32  1  0  0  0
 32 33  2  0  0  0
 10 11  1  0  0  0
 22 23  1  0  0  0
 22 24  1  0  0  0
 25 26  1  0  0  0
M  CHG 1   7   1
M  CHG 1   8  -1
M  END
> <minimizedAffinity>
-7.75797

$$$$
3MHM_J75_A_264


 33 35  0  0  0  0  0  0  0  0999 V2000
   -2.7487    4.2025   14.2171 N   0  0  0  0  0  0  0  0  0  0  0  0
   -1.6889    5.0427   14.1357 C   0  0  0  0  0  0  0  0  0  0  0  0
   -1.0541    5.2646   12.9365 N   0  0  0  0  0  0  0  0  0  0  0  0
   -1.4637    4.6537   11.7822 C   0  0  0  0  0  0  0  0  0  0  0  0
   -2.5877    3.7678   11.8344 C   0  0  0  0  0  0  0  0  0  0  0  0
   -3.2177    3.5579   13.0946 C   0  0  0  0  0  0  0  0  0  0  0  0
   -3.0947    3.0475   10.6723 N   0  0  0  0  0  0  0  0  0  0  0  0
   -2.3605    2.2940   10.0731 O   0  0  0  0  0  0  0  0  0  0  0  0
   -4.3045    3.2421   10.1845 O   0  0  0  0  0  0  0  0  0  0  0  0
   -0.7848    4.8853   10.5388 N   0  0  0  0  0  0  0  0  0  0  0  0
   -0.2548    4.1591   10.1375 H   0  0  0  0  0  0  0  0  0  0  0  0
   -0.8605    6.1439    9.8714 C   0  0  0  0  0  0  0  0  0  0  0  0
   -2.1731    6.2494    9.1186 C   0  0  0  0  0  0  0  0  0  0  0  0
   -3.1465    7.1767    9.5521 C   0  0  0  0  0  0  0  0  0  0  0  0
   -4.3888    7.3434    8.8922 C   0  0  0  0  0  0  0  0  0  0  0  0
   -4.7020    6.5458    7.7763 C   0  0  0  0  0  0  0  0  0  0  0  0
   -3.7655    5.5793    7.3283 C   0  0  0  0  0  0  0  0  0  0  0  0
   -2.5302    5.4175    8.0227 C   0  0  0  0  0  0  0  0  0  0  0  0
   -6.3346    6.8055    6.9908 S   0  0  0  0  0  0  0  0  0  0  0  0
   -6.5812    5.5297    6.1628 O   0  0  0  0  0  0  0  0  0  0  0  0
   -6.2854    8.0471    6.1949 O   0  0  0  0  0  0  0  0  0  0  0  0
   -7.3736    6.7918    8.2493 N   0  0  0  0  0  0  0  0  0  0  0  0
   -7.3223    5.8898    8.7227 H   0  0  0  0  0  0  0  0  0  0  0  0
   -8.3228    6.9432    7.9081 H   0  0  0  0  0  0  0  0  0  0  0  0
   -4.3304    2.6788   13.1153 N   0  0  0  0  0  0  0  0  0  0  0  0
   -5.0670    2.8504   12.4852 H   0  0  0  0  0  0  0  0  0  0  0  0
   -4.4468    1.5632   13.9921 C   0  0  0  0  0  0  0  0  0  0  0  0
   -5.1183    1.6754   15.3507 C   0  0  0  0  0  0  0  0  0  0  0  0
   -5.9650    2.7871   15.6516 C   0  0  0  0  0  0  0  0  0  0  0  0
   -6.6597    2.8816   16.8985 C   0  0  0  0  0  0  0  0  0  0  0  0
   -6.5174    1.8747   17.8682 C   0  0  0  0  0  0  0  0  0  0  0  0
   -5.7062    0.7297   17.5675 C   0  0  0  0  0  0  0  0  0  0  0  0
   -5.0210    0.6388   16.3108 C   0  0  0  0  0  0  0  0  0  0  0  0
  1  2  2  0  0  0
  1  6  1  0  0  0
  2  3  1  0  0  0
  3  4  2  0  0  0
  4  5  1  0  0  0
  4 10  1  0  0  0
  5  6  2  0  0  0
  5  7  1  0  0  0
  6 25  1  0  0  0
 10 12  1  0  0  0
 13 14  2  0  0  0
 13 18  1  0  0  0
 13 12  1  0  0  0
 14 15  1  0  0  0
 15 16  2  0  0  0
 16 17  1  0  0  0
 16 19  1  0  0  0
 17 18  2  0  0  0
 19 20  2  0  0  0
 19 21  2  0  0  0
 19 22  1  0  0  0
  7  8  1  0  0  0
  7  9  2  0  0  0
 25 27  1  0  0  0
 27 28  1  0  0  0
 28 29  2  0  0  0
 28 33  1  0  0  0
 29 30  1  0  0  0
 30 31  2  0  0  0
 31 32  1  0  0  0
 32 33  2  0  0  0
 10 11  1  0  0  0
 22 23  1  0  0  0
 22 24  1  0  0  0
 25 26  1  0  0  0
M  CHG 1   7   1
M  CHG 1   8  -1
M  END
> <minimizedAffinity>
-7.74533

$$$$
3MHM_J75_A_264


 33 35  0  0  0  0  0  0  0  0999 V2000
   -6.9829    7.8942   10.2403 N   0  0  0  0  0  0  0  0  0  0  0  0
   -7.0659    7.6631   11.5728 C   0  0  0  0  0  0  0  0  0  0  0  0
   -6.1735    6.8270   12.2013 N   0  0  0  0  0  0  0  0  0  0  0  0
   -5.1694    6.1999   11.5145 C   0  0  0  0  0  0  0  0  0  0  0  0
   -5.0496    6.4325   10.1065 C   0  0  0  0  0  0  0  0  0  0  0  0
   -5.9946    7.3006    9.4878 C   0  0  0  0  0  0  0  0  0  0  0  0
   -4.0333    5.8004    9.2736 N   0  0  0  0  0  0  0  0  0  0  0  0
   -3.2304    6.4919    8.6879 O   0  0  0  0  0  0  0  0  0  0  0  0
   -3.9964    4.5000    9.0567 O   0  0  0  0  0  0  0  0  0  0  0  0
   -4.2513    5.3205   12.1810 N   0  0  0  0  0  0  0  0  0  0  0  0
   -3.9110    4.5291   11.7043 H   0  0  0  0  0  0  0  0  0  0  0  0
   -3.8207    5.5671   13.5185 C   0  0  0  0  0  0  0  0  0  0  0  0
   -4.4714    4.5723   14.4608 C   0  0  0  0  0  0  0  0  0  0  0  0
   -3.7998    3.3676   14.7661 C   0  0  0  0  0  0  0  0  0  0  0  0
   -4.3361    2.3976   15.6481 C   0  0  0  0  0  0  0  0  0  0  0  0
   -5.5987    2.6047   16.2334 C   0  0  0  0  0  0  0  0  0  0  0  0
   -6.3210    3.7864   15.9274 C   0  0  0  0  0  0  0  0  0  0  0  0
   -5.7674    4.7379   15.0205 C   0  0  0  0  0  0  0  0  0  0  0  0
   -6.2330    1.2964   17.3451 S   0  0  0  0  0  0  0  0  0  0  0  0
   -7.6539    0.9961   16.8303 O   0  0  0  0  0  0  0  0  0  0  0  0
   -6.1813    1.7893   18.7350 O   0  0  0  0  0  0  0  0  0  0  0  0
   -5.2941    0.0076   16.9976 N   0  0  0  0  0  0  0  0  0  0  0  0
   -5.4104   -0.2430   16.0157 H   0  0  0  0  0  0  0  0  0  0  0  0
   -5.5678   -0.7806   17.5843 H   0  0  0  0  0  0  0  0  0  0  0  0
   -5.8492    7.5154    8.0936 N   0  0  0  0  0  0  0  0  0  0  0  0
   -4.9475    7.7038    7.7463 H   0  0  0  0  0  0  0  0  0  0  0  0
   -6.9282    7.4751    7.1656 C   0  0  0  0  0  0  0  0  0  0  0  0
   -7.7980    8.6905    6.8912 C   0  0  0  0  0  0  0  0  0  0  0  0
   -7.4482    9.6145    5.8582 C   0  0  0  0  0  0  0  0  0  0  0  0
   -8.2852   10.7295    5.5377 C   0  0  0  0  0  0  0  0  0  0  0  0
   -9.4800   10.9462    6.2447 C   0  0  0  0  0  0  0  0  0  0  0  0
   -9.8698   10.0054    7.2558 C   0  0  0  0  0  0  0  0  0  0  0  0
   -9.0291    8.8849    7.5639 C   0  0  0  0  0  0  0  0  0  0  0  0
  1  2  2  0  0  0
  1  6  1  0  0  0
  2  3  1  0  0  0
  3  4  2  0  0  0
  4  5  1  0  0  0
  4 10  1  0  0  0
  5  6  2  0  0  0
  5  7  1  0  0  0
  6 25  1  0  0  0
 10 12  1  0  0  0
 13 14  2  0  0  0
 13 18  1  0  0  0
 13 12  1  0  0  0
 14 15  1  0  0  0
 15 16  2  0  0  0
 16 17  1  0  0  0
 16 19  1  0  0  0
 17 18  2  0  0  0
 19 20  2  0  0  0
 19 21  2  0  0  0
 19 22  1  0  0  0
  7  8  1  0  0  0
  7  9  2  0  0  0
 25 27  1  0  0  0
 27 28  1  0  0  0
 28 29  2  0  0  0
 28 33  1  0  0  0
 29 30  1  0  0  0
 30 31  2  0  0  0
 31 32  1  0  0  0
 32 33  2  0  0  0
 10 11  1  0  0  0
 22 23  1  0  0  0
 22 24  1  0  0  0
 25 26  1  0  0  0
M  CHG 1   7   1
M  CHG 1   8  -1
M  END
> <minimizedAffinity>
-7.67581

$$$$
3MHM_J75_A_264


 33 35  0  0  0  0  0  0  0  0999 V2000
   -2.6535    3.9350   14.3895 N   0  0  0  0  0  0  0  0  0  0  0  0
   -1.6847    4.8806   14.4448 C   0  0  0  0  0  0  0  0  0  0  0  0
   -1.3729    5.6375   13.3402 N   0  0  0  0  0  0  0  0  0  0  0  0
   -2.0241    5.4720   12.1479 C   0  0  0  0  0  0  0  0  0  0  0  0
   -3.0602    4.4871   12.0609 C   0  0  0  0  0  0  0  0  0  0  0  0
   -3.3531    3.7180   13.2237 C   0  0  0  0  0  0  0  0  0  0  0  0
   -3.8028    4.2113   10.8367 N   0  0  0  0  0  0  0  0  0  0  0  0
   -5.0076    4.3313   10.8326 O   0  0  0  0  0  0  0  0  0  0  0  0
   -3.2286    3.7506    9.7426 O   0  0  0  0  0  0  0  0  0  0  0  0
   -1.6808    6.2612   10.9990 N   0  0  0  0  0  0  0  0  0  0  0  0
   -1.0970    5.8747   10.3069 H   0  0  0  0  0  0  0  0  0  0  0  0
   -2.1663    7.5929   10.8374 C   0  0  0  0  0  0  0  0  0  0  0  0
   -3.5147    7.5687   10.1431 C   0  0  0  0  0  0  0  0  0  0  0  0
   -3.5773    7.2686    8.7641 C   0  0  0  0  0  0  0  0  0  0  0  0
   -4.7996    7.2124    8.0504 C   0  0  0  0  0  0  0  0  0  0  0  0
   -6.0102    7.4910    8.7109 C   0  0  0  0  0  0  0  0  0  0  0  0
   -5.9883    7.8290   10.0883 C   0  0  0  0  0  0  0  0  0  0  0  0
   -4.7424    7.8983   10.7791 C   0  0  0  0  0  0  0  0  0  0  0  0
   -7.5448    7.4187    7.7162 S   0  0  0  0  0  0  0  0  0  0  0  0
   -8.6487    7.9410    8.6557 O   0  0  0  0  0  0  0  0  0  0  0  0
   -7.7453    6.0316    7.2544 O   0  0  0  0  0  0  0  0  0  0  0  0
   -7.3048    8.5413    6.5562 N   0  0  0  0  0  0  0  0  0  0  0  0
   -7.1791    9.4562    6.9894 H   0  0  0  0  0  0  0  0  0  0  0  0
   -8.1138    8.5673    5.9355 H   0  0  0  0  0  0  0  0  0  0  0  0
   -4.3861    2.7532   13.1093 N   0  0  0  0  0  0  0  0  0  0  0  0
   -5.0592    2.8781   12.4018 H   0  0  0  0  0  0  0  0  0  0  0  0
   -4.5089    1.6149   13.9556 C   0  0  0  0  0  0  0  0  0  0  0  0
   -5.1575    1.6995   15.3272 C   0  0  0  0  0  0  0  0  0  0  0  0
   -6.0018    2.8028   15.6635 C   0  0  0  0  0  0  0  0  0  0  0  0
   -6.6754    2.8717   16.9236 C   0  0  0  0  0  0  0  0  0  0  0  0
   -6.5140    1.8471   17.8715 C   0  0  0  0  0  0  0  0  0  0  0  0
   -5.7050    0.7104   17.5354 C   0  0  0  0  0  0  0  0  0  0  0  0
   -5.0411    0.6452   16.2658 C   0  0  0  0  0  0  0  0  0  0  0  0
  1  2  2  0  0  0
  1  6  1  0  0  0
  2  3  1  0  0  0
  3  4  2  0  0  0
  4  5  1  0  0  0
  4 10  1  0  0  0
  5  6  2  0  0  0
  5  7  1  0  0  0
  6 25  1  0  0  0
 10 12  1  0  0  0
 13 14  2  0  0  0
 13 18  1  0  0  0
 13 12  1  0  0  0
 14 15  1  0  0  0
 15 16  2  0  0  0
 16 17  1  0  0  0
 16 19  1  0  0  0
 17 18  2  0  0  0
 19 20  2  0  0  0
 19 21  2  0  0  0
 19 22  1  0  0  0
  7  8  1  0  0  0
  7  9  2  0  0  0
 25 27  1  0  0  0
 27 28  1  0  0  0
 28 29  2  0  0  0
 28 33  1  0  0  0
 29 30  1  0  0  0
 30 31  2  0  0  0
 31 32  1  0  0  0
 32 33  2  0  0  0
 10 11  1  0  0  0
 22 23  1  0  0  0
 22 24  1  0  0  0
 25 26  1  0  0  0
M  CHG 1   7   1
M  CHG 1   8  -1
M  END
> <minimizedAffinity>
-7.62544

$$$$
3MHM_J75_A_264


 33 35  0  0  0  0  0  0  0  0999 V2000
   -4.5694    6.6271    8.2494 N   0  0  0  0  0  0  0  0  0  0  0  0
   -3.9493    5.6003    8.8796 C   0  0  0  0  0  0  0  0  0  0  0  0
   -4.0799    5.4226   10.2367 N   0  0  0  0  0  0  0  0  0  0  0  0
   -4.8379    6.2663   11.0028 C   0  0  0  0  0  0  0  0  0  0  0  0
   -5.5139    7.3551   10.3637 C   0  0  0  0  0  0  0  0  0  0  0  0
   -5.3520    7.5115    8.9571 C   0  0  0  0  0  0  0  0  0  0  0  0
   -6.3283    8.3264   11.0845 N   0  0  0  0  0  0  0  0  0  0  0  0
   -7.2494    7.9390   11.7682 O   0  0  0  0  0  0  0  0  0  0  0  0
   -6.1617    9.6288   10.9608 O   0  0  0  0  0  0  0  0  0  0  0  0
   -4.9566    6.0760   12.4206 N   0  0  0  0  0  0  0  0  0  0  0  0
   -5.7656    6.3942   12.8827 H   0  0  0  0  0  0  0  0  0  0  0  0
   -3.9289    5.4363   13.1754 C   0  0  0  0  0  0  0  0  0  0  0  0
   -4.5463    4.4915   14.1888 C   0  0  0  0  0  0  0  0  0  0  0  0
   -3.8930    3.2754   14.4884 C   0  0  0  0  0  0  0  0  0  0  0  0
   -4.3995    2.3500   15.4336 C   0  0  0  0  0  0  0  0  0  0  0  0
   -5.6143    2.6150   16.0921 C   0  0  0  0  0  0  0  0  0  0  0  0
   -6.3189    3.8098   15.7958 C   0  0  0  0  0  0  0  0  0  0  0  0
   -5.7974    4.7155   14.8253 C   0  0  0  0  0  0  0  0  0  0  0  0
   -6.2138    1.3615   17.2835 S   0  0  0  0  0  0  0  0  0  0  0  0
   -7.6128    0.9683   16.7715 O   0  0  0  0  0  0  0  0  0  0  0  0
   -6.2046    1.9509   18.6362 O   0  0  0  0  0  0  0  0  0  0  0  0
   -5.2183    0.0915   17.0392 N   0  0  0  0  0  0  0  0  0  0  0  0
   -5.3085   -0.2307   16.0757 H   0  0  0  0  0  0  0  0  0  0  0  0
   -5.4698   -0.6649   17.6756 H   0  0  0  0  0  0  0  0  0  0  0  0
   -6.0360    8.5958    8.3508 N   0  0  0  0  0  0  0  0  0  0  0  0
   -5.6290    9.4903    8.4097 H   0  0  0  0  0  0  0  0  0  0  0  0
   -7.2756    8.4693    7.6620 C   0  0  0  0  0  0  0  0  0  0  0  0
   -8.3243    9.5688    7.6863 C   0  0  0  0  0  0  0  0  0  0  0  0
   -7.9494   10.9230    7.9490 C   0  0  0  0  0  0  0  0  0  0  0  0
   -8.9078   11.9844    7.9125 C   0  0  0  0  0  0  0  0  0  0  0  0
  -10.2554   11.7140    7.6206 C   0  0  0  0  0  0  0  0  0  0  0  0
  -10.6430   10.3672    7.3116 C   0  0  0  0  0  0  0  0  0  0  0  0
   -9.6735    9.3107    7.3412 C   0  0  0  0  0  0  0  0  0  0  0  0
  1  2  2  0  0  0
  1  6  1  0  0  0
  2  3  1  0  0  0
  3  4  2  0  0  0
  4  5  1  0  0  0
  4 10  1  0  0  0
  5  6  2  0  0  0
  5  7  1  0  0  0
  6 25  1  0  0  0
 10 12  1  0  0  0
 13 14  2  0  0  0
 13 18  1  0  0  0
 13 12  1  0  0  0
 14 15  1  0  0  0
 15 16  2  0  0  0
 16 17  1  0  0  0
 16 19  1  0  0  0
 17 18  2  0  0  0
 19 20  2  0  0  0
 19 21  2  0  0  0
 19 22  1  0  0  0
  7  8  1  0  0  0
  7  9  2  0  0  0
 25 27  1  0  0  0
 27 28  1  0  0  0
 28 29  2  0  0  0
 28 33  1  0  0  0
 29 30  1  0  0  0
 30 31  2  0  0  0
 31 32  1  0  0  0
 32 33  2  0  0  0
 10 11  1  0  0  0
 22 23  1  0  0  0
 22 24  1  0  0  0
 25 26  1  0  0  0
M  CHG 1   7   1
M  CHG 1   8  -1
M  END
> <minimizedAffinity>
-7.48808

$$$$
3MHM_J75_A_264


 33 35  0  0  0  0  0  0  0  0999 V2000
   -7.2319    8.1051   10.0542 N   0  0  0  0  0  0  0  0  0  0  0  0
   -6.9835    7.6454   11.3044 C   0  0  0  0  0  0  0  0  0  0  0  0
   -5.9358    6.7887   11.5465 N   0  0  0  0  0  0  0  0  0  0  0  0
   -5.1035    6.3692   10.5442 C   0  0  0  0  0  0  0  0  0  0  0  0
   -5.3344    6.8460    9.2137 C   0  0  0  0  0  0  0  0  0  0  0  0
   -6.4320    7.7284    8.9990 C   0  0  0  0  0  0  0  0  0  0  0  0
   -4.5252    6.4474    8.0680 N   0  0  0  0  0  0  0  0  0  0  0  0
   -3.3574    6.7643    8.0261 O   0  0  0  0  0  0  0  0  0  0  0  0
   -5.0292    5.8227    7.0215 O   0  0  0  0  0  0  0  0  0  0  0  0
   -4.0201    5.4654   10.8087 N   0  0  0  0  0  0  0  0  0  0  0  0
   -3.2033    5.8066   11.2397 H   0  0  0  0  0  0  0  0  0  0  0  0
   -4.1000    4.0841   10.4613 C   0  0  0  0  0  0  0  0  0  0  0  0
   -4.2017    3.2419   11.7188 C   0  0  0  0  0  0  0  0  0  0  0  0
   -4.3094    3.8822   12.9733 C   0  0  0  0  0  0  0  0  0  0  0  0
   -4.4234    3.1642   14.1890 C   0  0  0  0  0  0  0  0  0  0  0  0
   -4.4015    1.7574   14.1766 C   0  0  0  0  0  0  0  0  0  0  0  0
   -4.2617    1.0756   12.9407 C   0  0  0  0  0  0  0  0  0  0  0  0
   -4.1286    1.8224   11.7329 C   0  0  0  0  0  0  0  0  0  0  0  0
   -4.5325    0.9020   15.7894 S   0  0  0  0  0  0  0  0  0  0  0  0
   -3.2927    1.3609   16.5809 O   0  0  0  0  0  0  0  0  0  0  0  0
   -4.5972   -0.5527   15.5503 O   0  0  0  0  0  0  0  0  0  0  0  0
   -5.8452    1.5823   16.4803 N   0  0  0  0  0  0  0  0  0  0  0  0
   -5.6880    2.5834   16.5963 H   0  0  0  0  0  0  0  0  0  0  0  0
   -6.0088    1.1559   17.3924 H   0  0  0  0  0  0  0  0  0  0  0  0
   -6.6340    8.1875    7.6725 N   0  0  0  0  0  0  0  0  0  0  0  0
   -6.6541    7.5191    6.9499 H   0  0  0  0  0  0  0  0  0  0  0  0
   -6.8096    9.5563    7.3223 C   0  0  0  0  0  0  0  0  0  0  0  0
   -8.1640   10.2400    7.4066 C   0  0  0  0  0  0  0  0  0  0  0  0
   -9.3605    9.5194    7.1028 C   0  0  0  0  0  0  0  0  0  0  0  0
  -10.6509   10.1219    7.2382 C   0  0  0  0  0  0  0  0  0  0  0  0
  -10.7704   11.4532    7.6715 C   0  0  0  0  0  0  0  0  0  0  0  0
   -9.5833   12.1791    8.0228 C   0  0  0  0  0  0  0  0  0  0  0  0
   -8.2943   11.5638    7.8931 C   0  0  0  0  0  0  0  0  0  0  0  0
  1  2  2  0  0  0
  1  6  1  0  0  0
  2  3  1  0  0  0
  3  4  2  0  0  0
  4  5  1  0  0  0
  4 10  1  0  0  0
  5  6  2  0  0  0
  5  7  1  0  0  0
  6 25  1  0  0  0
 10 12  1  0  0  0
 13 14  2  0  0  0
 13 18  1  0  0  0
 13 12  1  0  0  0
 14 15  1  0  0  0
 15 16  2  0  0  0
 16 17  1  0  0  0
 16 19  1  0  0  0
 17 18  2  0  0  0
 19 20  2  0  0  0
 19 21  2  0  0  0
 19 22  1  0  0  0
  7  8  1  0  0  0
  7  9  2  0  0  0
 25 27  1  0  0  0
 27 28  1  0  0  0
 28 29  2  0  0  0
 28 33  1  0  0  0
 29 30  1  0  0  0
 30 31  2  0  0  0
 31 32  1  0  0  0
 32 33  2  0  0  0
 10 11  1  0  0  0
 22 23  1  0  0  0
 22 24  1  0  0  0
 25 26  1  0  0  0
M  CHG 1   7   1
M  CHG 1   8  -1
M  END
> <minimizedAffinity>
-7.37068

$$$$
3MHM_J75_A_264


 33 35  0  0  0  0  0  0  0  0999 V2000
   -2.4891    1.1865   11.7188 N   0  0  0  0  0  0  0  0  0  0  0  0
   -1.5364    1.4020   10.7796 C   0  0  0  0  0  0  0  0  0  0  0  0
   -1.5105    2.5703   10.0553 N   0  0  0  0  0  0  0  0  0  0  0  0
   -2.4361    3.5591   10.2520 C   0  0  0  0  0  0  0  0  0  0  0  0
   -3.4496    3.3649   11.2451 C   0  0  0  0  0  0  0  0  0  0  0  0
   -3.4488    2.1403   11.9729 C   0  0  0  0  0  0  0  0  0  0  0  0
   -4.4973    4.3405   11.5222 N   0  0  0  0  0  0  0  0  0  0  0  0
   -5.1413    4.7978   10.6046 O   0  0  0  0  0  0  0  0  0  0  0  0
   -4.7252    4.8188   12.7298 O   0  0  0  0  0  0  0  0  0  0  0  0
   -2.4044    4.7694    9.4809 N   0  0  0  0  0  0  0  0  0  0  0  0
   -3.2003    5.0317    8.9642 H   0  0  0  0  0  0  0  0  0  0  0  0
   -1.2457    5.6009    9.4461 C   0  0  0  0  0  0  0  0  0  0  0  0
   -1.2555    6.5479   10.6310 C   0  0  0  0  0  0  0  0  0  0  0  0
   -0.1751    6.5287   11.5408 C   0  0  0  0  0  0  0  0  0  0  0  0
   -0.1059    7.3924   12.6613 C   0  0  0  0  0  0  0  0  0  0  0  0
   -1.1555    8.2938   12.9171 C   0  0  0  0  0  0  0  0  0  0  0  0
   -2.2747    8.3221   12.0463 C   0  0  0  0  0  0  0  0  0  0  0  0
   -2.3291    7.4279   10.9364 C   0  0  0  0  0  0  0  0  0  0  0  0
   -1.0029    9.3617   14.3957 S   0  0  0  0  0  0  0  0  0  0  0  0
    0.5082    9.6285   14.5351 O   0  0  0  0  0  0  0  0  0  0  0  0
   -1.6063    8.6647   15.5479 O   0  0  0  0  0  0  0  0  0  0  0  0
   -1.7154   10.7567   13.9379 N   0  0  0  0  0  0  0  0  0  0  0  0
   -1.2168   11.1467   13.1382 H   0  0  0  0  0  0  0  0  0  0  0  0
   -1.6901   11.4212   14.7114 H   0  0  0  0  0  0  0  0  0  0  0  0
   -4.4614    1.9773   12.9523 N   0  0  0  0  0  0  0  0  0  0  0  0
   -5.3203    2.4370   12.8102 H   0  0  0  0  0  0  0  0  0  0  0  0
   -4.3114    1.1891   14.1284 C   0  0  0  0  0  0  0  0  0  0  0  0
   -5.0525    1.5153   15.4143 C   0  0  0  0  0  0  0  0  0  0  0  0
   -5.8406    2.7034   15.5158 C   0  0  0  0  0  0  0  0  0  0  0  0
   -6.5994    2.9989   16.6920 C   0  0  0  0  0  0  0  0  0  0  0  0
   -6.5804    2.1199   17.7881 C   0  0  0  0  0  0  0  0  0  0  0  0
   -5.8298    0.9009   17.6886 C   0  0  0  0  0  0  0  0  0  0  0  0
   -5.0796    0.6082   16.5018 C   0  0  0  0  0  0  0  0  0  0  0  0
  1  2  2  0  0  0
  1  6  1  0  0  0
  2  3  1  0  0  0
  3  4  2  0  0  0
  4  5  1  0  0  0
  4 10  1  0  0  0
  5  6  2  0  0  0
  5  7  1  0  0  0
  6 25  1  0  0  0
 10 12  1  0  0  0
 13 14  2  0  0  0
 13 18  1  0  0  0
 13 12  1  0  0  0
 14 15  1  0  0  0
 15 16  2  0  0  0
 16 17  1  0  0  0
 16 19  1  0  0  0
 17 18  2  0  0  0
 19 20  2  0  0  0
 19 21  2  0  0  0
 19 22  1  0  0  0
  7  8  1  0  0  0
  7  9  2  0  0  0
 25 27  1  0  0  0
 27 28  1  0  0  0
 28 29  2  0  0  0
 28 33  1  0  0  0
 29 30  1  0  0  0
 30 31  2  0  0  0
 31 32  1  0  0  0
 32 33  2  0  0  0
 10 11  1  0  0  0
 22 23  1  0  0  0
 22 24  1  0  0  0
 25 26  1  0  0  0
M  CHG 1   7   1
M  CHG 1   8  -1
M  END
> <minimizedAffinity>
-7.30975

$$$$
3MHM_J75_A_264


 33 35  0  0  0  0  0  0  0  0999 V2000
   -3.2106    4.8049   14.3020 N   0  0  0  0  0  0  0  0  0  0  0  0
   -3.3040    6.1395   14.0873 C   0  0  0  0  0  0  0  0  0  0  0  0
   -3.7087    6.6321   12.8692 N   0  0  0  0  0  0  0  0  0  0  0  0
   -4.0349    5.8027   11.8304 C   0  0  0  0  0  0  0  0  0  0  0  0
   -3.9559    4.3867   12.0300 C   0  0  0  0  0  0  0  0  0  0  0  0
   -3.5281    3.9122   13.3032 C   0  0  0  0  0  0  0  0  0  0  0  0
   -4.2579    3.4126   10.9878 N   0  0  0  0  0  0  0  0  0  0  0  0
   -3.4439    3.2029   10.1163 O   0  0  0  0  0  0  0  0  0  0  0  0
   -5.4233    2.8018   10.8985 O   0  0  0  0  0  0  0  0  0  0  0  0
   -4.4450    6.3304   10.5601 N   0  0  0  0  0  0  0  0  0  0  0  0
   -3.7614    6.5445    9.8848 H   0  0  0  0  0  0  0  0  0  0  0  0
   -5.8206    6.5515   10.2538 C   0  0  0  0  0  0  0  0  0  0  0  0
   -6.0510    8.0196    9.9499 C   0  0  0  0  0  0  0  0  0  0  0  0
   -6.8269    8.3798    8.8257 C   0  0  0  0  0  0  0  0  0  0  0  0
   -7.0982    9.7280    8.4863 C   0  0  0  0  0  0  0  0  0  0  0  0
   -6.5613   10.7686    9.2662 C   0  0  0  0  0  0  0  0  0  0  0  0
   -5.7494   10.4506   10.3849 C   0  0  0  0  0  0  0  0  0  0  0  0
   -5.4750    9.0854   10.6934 C   0  0  0  0  0  0  0  0  0  0  0  0
   -6.9393   12.4839    8.7515 S   0  0  0  0  0  0  0  0  0  0  0  0
   -8.3104   12.3933    8.0544 O   0  0  0  0  0  0  0  0  0  0  0  0
   -5.8478   12.9703    7.8859 O   0  0  0  0  0  0  0  0  0  0  0  0
   -7.1497   13.2722   10.1650 N   0  0  0  0  0  0  0  0  0  0  0  0
   -7.9261   12.8522   10.6761 H   0  0  0  0  0  0  0  0  0  0  0  0
   -7.3561   14.2537    9.9794 H   0  0  0  0  0  0  0  0  0  0  0  0
   -3.4632    2.5057   13.4732 N   0  0  0  0  0  0  0  0  0  0  0  0
   -2.6040    2.0580   13.2983 H   0  0  0  0  0  0  0  0  0  0  0  0
   -4.5651    1.7019   13.8813 C   0  0  0  0  0  0  0  0  0  0  0  0
   -5.1432    1.7833   15.2843 C   0  0  0  0  0  0  0  0  0  0  0  0
   -6.0407    2.8379   15.6388 C   0  0  0  0  0  0  0  0  0  0  0  0
   -6.6487    2.8989   16.9323 C   0  0  0  0  0  0  0  0  0  0  0  0
   -6.3678    1.9152   17.8955 C   0  0  0  0  0  0  0  0  0  0  0  0
   -5.5032    0.8250   17.5439 C   0  0  0  0  0  0  0  0  0  0  0  0
   -4.9057    0.7668   16.2415 C   0  0  0  0  0  0  0  0  0  0  0  0
  1  2  2  0  0  0
  1  6  1  0  0  0
  2  3  1  0  0  0
  3  4  2  0  0  0
  4  5  1  0  0  0
  4 10  1  0  0  0
  5  6  2  0  0  0
  5  7  1  0  0  0
  6 25  1  0  0  0
 10 12  1  0  0  0
 13 14  2  0  0  0
 13 18  1  0  0  0
 13 12  1  0  0  0
 14 15  1  0  0  0
 15 16  2  0  0  0
 16 17  1  0  0  0
 16 19  1  0  0  0
 17 18  2  0  0  0
 19 20  2  0  0  0
 19 21  2  0  0  0
 19 22  1  0  0  0
  7  8  1  0  0  0
  7  9  2  0  0  0
 25 27  1  0  0  0
 27 28  1  0  0  0
 28 29  2  0  0  0
 28 33  1  0  0  0
 29 30  1  0  0  0
 30 31  2  0  0  0
 31 32  1  0  0  0
 32 33  2  0  0  0
 10 11  1  0  0  0
 22 23  1  0  0  0
 22 24  1  0  0  0
 25 26  1  0  0  0
M  CHG 1   7   1
M  CHG 1   8  -1
M  END
> <minimizedAffinity>
-7.21119

$$$$
3MHM_J75_A_264


 33 35  0  0  0  0  0  0  0  0999 V2000
   -3.1022    4.7215   14.4863 N   0  0  0  0  0  0  0  0  0  0  0  0
   -3.0274    6.0711   14.3921 C   0  0  0  0  0  0  0  0  0  0  0  0
   -3.2270    6.7072   13.1896 N   0  0  0  0  0  0  0  0  0  0  0  0
   -3.5105    6.0107   12.0461 C   0  0  0  0  0  0  0  0  0  0  0  0
   -3.6063    4.5834   12.1159 C   0  0  0  0  0  0  0  0  0  0  0  0
   -3.3887    3.9580   13.3771 C   0  0  0  0  0  0  0  0  0  0  0  0
   -3.8809    3.7412   10.9576 N   0  0  0  0  0  0  0  0  0  0  0  0
   -3.0028    3.5377   10.1492 O   0  0  0  0  0  0  0  0  0  0  0  0
   -5.0780    3.2520   10.6991 O   0  0  0  0  0  0  0  0  0  0  0  0
   -3.7055    6.6864   10.7947 N   0  0  0  0  0  0  0  0  0  0  0  0
   -2.9508    6.7643   10.1673 H   0  0  0  0  0  0  0  0  0  0  0  0
   -4.9680    7.2477   10.4395 C   0  0  0  0  0  0  0  0  0  0  0  0
   -4.8988    8.7610   10.5166 C   0  0  0  0  0  0  0  0  0  0  0  0
   -3.6540    9.3854   10.7530 C   0  0  0  0  0  0  0  0  0  0  0  0
   -3.5074   10.7925   10.8231 C   0  0  0  0  0  0  0  0  0  0  0  0
   -4.6351   11.6223   10.6845 C   0  0  0  0  0  0  0  0  0  0  0  0
   -5.9093   11.0341   10.4786 C   0  0  0  0  0  0  0  0  0  0  0  0
   -6.0327    9.6140   10.4319 C   0  0  0  0  0  0  0  0  0  0  0  0
   -4.3680   13.4287   10.8081 S   0  0  0  0  0  0  0  0  0  0  0  0
   -2.8727   13.5841   11.1455 O   0  0  0  0  0  0  0  0  0  0  0  0
   -5.2820   13.9740   11.8302 O   0  0  0  0  0  0  0  0  0  0  0  0
   -4.5918   13.9562    9.2799 N   0  0  0  0  0  0  0  0  0  0  0  0
   -3.9082   13.5153    8.6645 H   0  0  0  0  0  0  0  0  0  0  0  0
   -4.4737   14.9688    9.2491 H   0  0  0  0  0  0  0  0  0  0  0  0
   -3.4938    2.5443   13.4170 N   0  0  0  0  0  0  0  0  0  0  0  0
   -2.7005    2.0146   13.1733 H   0  0  0  0  0  0  0  0  0  0  0  0
   -4.6768    1.8445   13.7882 C   0  0  0  0  0  0  0  0  0  0  0  0
   -5.1971    1.8464   15.2159 C   0  0  0  0  0  0  0  0  0  0  0  0
   -6.0901    2.8700   15.6610 C   0  0  0  0  0  0  0  0  0  0  0  0
   -6.6446    2.8566   16.9796 C   0  0  0  0  0  0  0  0  0  0  0  0
   -6.3138    1.8282   17.8782 C   0  0  0  0  0  0  0  0  0  0  0  0
   -5.4533    0.7685   17.4355 C   0  0  0  0  0  0  0  0  0  0  0  0
   -4.9096    0.7850   16.1084 C   0  0  0  0  0  0  0  0  0  0  0  0
  1  2  2  0  0  0
  1  6  1  0  0  0
  2  3  1  0  0  0
  3  4  2  0  0  0
  4  5  1  0  0  0
  4 10  1  0  0  0
  5  6  2  0  0  0
  5  7  1  0  0  0
  6 25  1  0  0  0
 10 12  1  0  0  0
 13 14  2  0  0  0
 13 18  1  0  0  0
 13 12  1  0  0  0
 14 15  1  0  0  0
 15 16  2  0  0  0
 16 17  1  0  0  0
 16 19  1  0  0  0
 17 18  2  0  0  0
 19 20  2  0  0  0
 19 21  2  0  0  0
 19 22  1  0  0  0
  7  8  1  0  0  0
  7  9  2  0  0  0
 25 27  1  0  0  0
 27 28  1  0  0  0
 28 29  2  0  0  0
 28 33  1  0  0  0
 29 30  1  0  0  0
 30 31  2  0  0  0
 31 32  1  0  0  0
 32 33  2  0  0  0
 10 11  1  0  0  0
 22 23  1  0  0  0
 22 24  1  0  0  0
 25 26  1  0  0  0
M  CHG 1   7   1
M  CHG 1   8  -1
M  END
> <minimizedAffinity>
-7.20502

$$$$
