3ZQE_DXC_B_1079


 31 34  0  0  0  0  0  0  0  0999 V2000
    0.1950   22.2144   15.6611 C   0  0  0  0  0  0  0  0  0  0  0  0
   -0.2881   20.9144   15.0145 C   0  0  0  0  0  0  0  0  0  0  0  0
    0.5047   19.7337   15.5791 C   0  0  0  0  0  0  0  0  0  0  0  0
    2.0085   19.8850   15.3331 C   0  0  0  0  0  0  0  0  0  0  0  0
    2.4829   21.2135   15.9254 C   0  0  0  0  0  0  0  0  0  0  0  0
    1.6849   22.3925   15.3646 C   0  0  0  0  0  0  0  0  0  0  0  0
   -0.0302   18.4410   14.9599 C   0  0  0  0  0  0  0  0  0  0  0  0
    0.2539   18.4257   13.4559 C   0  0  0  0  0  0  0  0  0  0  0  0
    1.7573   18.5577   13.2090 C   0  0  0  0  0  0  0  0  0  0  0  0
    2.3100   19.8414   13.8318 C   0  0  0  0  0  0  0  0  0  0  0  0
    2.0506   18.5824   11.7081 C   0  0  0  0  0  0  0  0  0  0  0  0
    3.5591   18.5823   11.4712 C   0  0  0  0  0  0  0  0  0  0  0  0
    4.1443   19.8630   12.0754 C   0  0  0  0  0  0  0  0  0  0  0  0
    3.8175   19.9483   13.5699 C   0  0  0  0  0  0  0  0  0  0  0  0
    1.6463   17.3202   10.9488 C   0  0  0  0  0  0  0  0  0  0  0  0
    2.4208   17.4939    9.6384 C   0  0  0  0  0  0  0  0  0  0  0  0
    3.5089   18.5312    9.9428 C   0  0  0  0  0  0  0  0  0  0  0  0
    2.7460   18.7384   16.0295 C   0  0  0  0  0  0  0  0  0  0  0  0
    3.6136   21.0037   11.3992 O   0  0  0  0  0  0  0  0  0  0  0  0
   -0.5402   23.3114   15.1109 O   0  0  0  0  0  0  0  0  0  0  0  0
    4.1992   17.3311   12.0747 C   0  0  0  0  0  0  0  0  0  0  0  0
    2.6496   21.0232   11.5058 H   0  0  0  0  0  0  0  0  0  0  0  0
   -0.4021   23.3443   14.1513 H   0  0  0  0  0  0  0  0  0  0  0  0
    4.8210   18.1769    9.2338 C   0  0  0  0  0  0  0  0  0  0  0  0
    5.5468   19.4397    8.7610 C   0  0  0  0  0  0  0  0  0  0  0  0
    4.4992   17.2555    8.0563 C   0  0  0  0  0  0  0  0  0  0  0  0
    5.6773   16.3845    7.6065 C   0  0  0  0  0  0  0  0  0  0  0  0
    5.4552   14.8904    7.8580 C   0  0  0  0  0  0  0  0  0  0  0  0
    6.4352   14.1363    7.7187 O   0  0  0  0  0  0  0  0  0  0  0  0
    4.3058   14.5448    8.2241 O   0  0  0  0  0  0  0  0  0  0  0  0
    3.6264   15.1854    8.3013 H   0  0  0  0  0  0  0  0  0  0  0  0
  1  2  1  0  0  0
  1  6  1  0  0  0
  1 20  1  0  0  0
  2  3  1  0  0  0
  3  4  1  0  0  0
  3  7  1  0  0  0
  4  5  1  0  0  0
  4 10  1  0  0  0
  4 18  1  0  0  0
  5  6  1  0  0  0
  7  8  1  0  0  0
  8  9  1  0  0  0
  9 10  1  0  0  0
  9 11  1  0  0  0
 10 14  1  0  0  0
 11 12  1  0  0  0
 11 15  1  0  0  0
 12 13  1  0  0  0
 12 17  1  0  0  0
 12 21  1  0  0  0
 13 14  1  0  0  0
 13 19  1  0  0  0
 15 16  1  0  0  0
 16 17  1  0  0  0
 17 24  1  0  0  0
 24 26  1  0  0  0
 24 25  1  0  0  0
 26 27  1  0  0  0
 27 28  1  0  0  0
 28 29  2  0  0  0
 28 30  1  0  0  0
 19 22  1  0  0  0
 20 23  1  0  0  0
 30 31  1  0  0  0
M  END
> <minimizedAffinity>
-7.58034

$$$$
3ZQE_DXC_B_1079


 31 34  0  0  0  0  0  0  0  0999 V2000
    6.7646   17.9456    7.8457 C   0  0  0  0  0  0  0  0  0  0  0  0
    5.4372   17.2584    8.1734 C   0  0  0  0  0  0  0  0  0  0  0  0
    4.2749   18.1832    7.8056 C   0  0  0  0  0  0  0  0  0  0  0  0
    4.3457   19.5163    8.5558 C   0  0  0  0  0  0  0  0  0  0  0  0
    5.6974   20.1772    8.2786 C   0  0  0  0  0  0  0  0  0  0  0  0
    6.8585   19.2487    8.6409 C   0  0  0  0  0  0  0  0  0  0  0  0
    2.9591   17.4567    8.0908 C   0  0  0  0  0  0  0  0  0  0  0  0
    2.8116   17.2144    9.5949 C   0  0  0  0  0  0  0  0  0  0  0  0
    2.8631   18.5465   10.3441 C   0  0  0  0  0  0  0  0  0  0  0  0
    4.1696   19.2909   10.0607 C   0  0  0  0  0  0  0  0  0  0  0  0
    2.7552   18.3144   11.8520 C   0  0  0  0  0  0  0  0  0  0  0  0
    2.6758   19.6534   12.5817 C   0  0  0  0  0  0  0  0  0  0  0  0
    3.9765   20.4220   12.3265 C   0  0  0  0  0  0  0  0  0  0  0  0
    4.1946   20.6217   10.8231 C   0  0  0  0  0  0  0  0  0  0  0  0
    1.4533   17.6636   12.3152 C   0  0  0  0  0  0  0  0  0  0  0  0
    1.4900   17.9502   13.8197 C   0  0  0  0  0  0  0  0  0  0  0  0
    2.5040   19.0879   13.9931 C   0  0  0  0  0  0  0  0  0  0  0  0
    3.2302   20.4341    8.0489 C   0  0  0  0  0  0  0  0  0  0  0  0
    5.0794   19.7055   12.8835 O   0  0  0  0  0  0  0  0  0  0  0  0
    7.8424   17.0790    8.2119 O   0  0  0  0  0  0  0  0  0  0  0  0
    1.4525   20.4469   12.1198 C   0  0  0  0  0  0  0  0  0  0  0  0
    5.1460   18.8349   12.4609 H   0  0  0  0  0  0  0  0  0  0  0  0
    7.7925   16.8842    9.1608 H   0  0  0  0  0  0  0  0  0  0  0  0
    2.0418   20.0784   15.0677 C   0  0  0  0  0  0  0  0  0  0  0  0
    3.1728   20.3849   16.0536 C   0  0  0  0  0  0  0  0  0  0  0  0
    0.8331   19.4789   15.7881 C   0  0  0  0  0  0  0  0  0  0  0  0
   -0.4065   20.3800   15.7811 C   0  0  0  0  0  0  0  0  0  0  0  0
   -1.4159   20.0282   16.8777 C   0  0  0  0  0  0  0  0  0  0  0  0
   -1.5241   18.8287   17.1904 O   0  0  0  0  0  0  0  0  0  0  0  0
   -2.0315   20.9857   17.4058 O   0  0  0  0  0  0  0  0  0  0  0  0
   -1.8855   21.8604   17.1033 H   0  0  0  0  0  0  0  0  0  0  0  0
  1  2  1  0  0  0
  1  6  1  0  0  0
  1 20  1  0  0  0
  2  3  1  0  0  0
  3  4  1  0  0  0
  3  7  1  0  0  0
  4  5  1  0  0  0
  4 10  1  0  0  0
  4 18  1  0  0  0
  5  6  1  0  0  0
  7  8  1  0  0  0
  8  9  1  0  0  0
  9 10  1  0  0  0
  9 11  1  0  0  0
 10 14  1  0  0  0
 11 12  1  0  0  0
 11 15  1  0  0  0
 12 13  1  0  0  0
 12 17  1  0  0  0
 12 21  1  0  0  0
 13 14  1  0  0  0
 13 19  1  0  0  0
 15 16  1  0  0  0
 16 17  1  0  0  0
 17 24  1  0  0  0
 24 26  1  0  0  0
 24 25  1  0  0  0
 26 27  1  0  0  0
 27 28  1  0  0  0
 28 29  2  0  0  0
 28 30  1  0  0  0
 19 22  1  0  0  0
 20 23  1  0  0  0
 30 31  1  0  0  0
M  END
> <minimizedAffinity>
-7.28350

$$$$
3ZQE_DXC_B_1079


 31 34  0  0  0  0  0  0  0  0999 V2000
    1.9884   18.7650    5.9245 C   0  0  0  0  0  0  0  0  0  0  0  0
    3.1256   19.5235    6.6123 C   0  0  0  0  0  0  0  0  0  0  0  0
    4.1575   18.5286    7.1475 C   0  0  0  0  0  0  0  0  0  0  0  0
    3.5392   17.5444    8.1444 C   0  0  0  0  0  0  0  0  0  0  0  0
    2.3625   16.8281    7.4786 C   0  0  0  0  0  0  0  0  0  0  0  0
    1.3347   17.8246    6.9382 C   0  0  0  0  0  0  0  0  0  0  0  0
    5.3100   19.3090    7.7826 C   0  0  0  0  0  0  0  0  0  0  0  0
    4.8115   20.0647    9.0168 C   0  0  0  0  0  0  0  0  0  0  0  0
    4.2107   19.0811   10.0217 C   0  0  0  0  0  0  0  0  0  0  0  0
    3.0627   18.2845    9.3981 C   0  0  0  0  0  0  0  0  0  0  0  0
    3.6738   19.8286   11.2433 C   0  0  0  0  0  0  0  0  0  0  0  0
    3.1957   18.8317   12.2965 C   0  0  0  0  0  0  0  0  0  0  0  0
    2.0363   18.0224   11.7064 C   0  0  0  0  0  0  0  0  0  0  0  0
    2.4795   17.3068   10.4261 C   0  0  0  0  0  0  0  0  0  0  0  0
    4.7223   20.6008   12.0418 C   0  0  0  0  0  0  0  0  0  0  0  0
    3.9732   20.8615   13.3526 C   0  0  0  0  0  0  0  0  0  0  0  0
    2.8138   19.8574   13.3659 C   0  0  0  0  0  0  0  0  0  0  0  0
    4.5930   16.5070    8.5407 C   0  0  0  0  0  0  0  0  0  0  0  0
    0.9377   18.8889   11.4197 O   0  0  0  0  0  0  0  0  0  0  0  0
    1.0219   19.7049    5.4461 O   0  0  0  0  0  0  0  0  0  0  0  0
    4.3451   17.9265   12.7426 C   0  0  0  0  0  0  0  0  0  0  0  0
    1.2123   19.5553   10.7705 H   0  0  0  0  0  0  0  0  0  0  0  0
    0.6764   20.2209    6.1913 H   0  0  0  0  0  0  0  0  0  0  0  0
    2.5774   19.3080   14.7772 C   0  0  0  0  0  0  0  0  0  0  0  0
    1.0844   19.0867   15.0364 C   0  0  0  0  0  0  0  0  0  0  0  0
    3.1688   20.2954   15.7843 C   0  0  0  0  0  0  0  0  0  0  0  0
    2.1427   21.2621   16.3855 C   0  0  0  0  0  0  0  0  0  0  0  0
    2.0728   22.6037   15.6505 C   0  0  0  0  0  0  0  0  0  0  0  0
    1.0518   22.8332   14.9773 O   0  0  0  0  0  0  0  0  0  0  0  0
    3.0384   23.3879   15.8152 O   0  0  0  0  0  0  0  0  0  0  0  0
    3.7686   23.1279   16.3417 H   0  0  0  0  0  0  0  0  0  0  0  0
  1  2  1  0  0  0
  1  6  1  0  0  0
  1 20  1  0  0  0
  2  3  1  0  0  0
  3  4  1  0  0  0
  3  7  1  0  0  0
  4  5  1  0  0  0
  4 10  1  0  0  0
  4 18  1  0  0  0
  5  6  1  0  0  0
  7  8  1  0  0  0
  8  9  1  0  0  0
  9 10  1  0  0  0
  9 11  1  0  0  0
 10 14  1  0  0  0
 11 12  1  0  0  0
 11 15  1  0  0  0
 12 13  1  0  0  0
 12 17  1  0  0  0
 12 21  1  0  0  0
 13 14  1  0  0  0
 13 19  1  0  0  0
 15 16  1  0  0  0
 16 17  1  0  0  0
 17 24  1  0  0  0
 24 26  1  0  0  0
 24 25  1  0  0  0
 26 27  1  0  0  0
 27 28  1  0  0  0
 28 29  2  0  0  0
 28 30  1  0  0  0
 19 22  1  0  0  0
 20 23  1  0  0  0
 30 31  1  0  0  0
M  END
> <minimizedAffinity>
-7.06485

$$$$
3ZQE_DXC_B_1079


 31 34  0  0  0  0  0  0  0  0999 V2000
   -0.4873   21.6869   16.3098 C   0  0  0  0  0  0  0  0  0  0  0  0
    0.6167   20.6274   16.3076 C   0  0  0  0  0  0  0  0  0  0  0  0
    1.9549   21.2799   15.9543 C   0  0  0  0  0  0  0  0  0  0  0  0
    1.9143   21.9615   14.5837 C   0  0  0  0  0  0  0  0  0  0  0  0
    0.7716   22.9787   14.5625 C   0  0  0  0  0  0  0  0  0  0  0  0
   -0.5648   22.3259   14.9224 C   0  0  0  0  0  0  0  0  0  0  0  0
    3.0516   20.2146   16.0104 C   0  0  0  0  0  0  0  0  0  0  0  0
    2.8202   19.1686   14.9171 C   0  0  0  0  0  0  0  0  0  0  0  0
    2.7982   19.8452   13.5460 C   0  0  0  0  0  0  0  0  0  0  0  0
    1.7128   20.9216   13.4771 C   0  0  0  0  0  0  0  0  0  0  0  0
    2.5292   18.8153   12.4477 C   0  0  0  0  0  0  0  0  0  0  0  0
    2.6387   19.4754   11.0752 C   0  0  0  0  0  0  0  0  0  0  0  0
    1.5561   20.5544   10.9689 C   0  0  0  0  0  0  0  0  0  0  0  0
    1.7131   21.5834   12.0933 C   0  0  0  0  0  0  0  0  0  0  0  0
    3.5836   17.7178   12.3174 C   0  0  0  0  0  0  0  0  0  0  0  0
    3.2525   17.1422   10.9368 C   0  0  0  0  0  0  0  0  0  0  0  0
    2.4040   18.2141   10.2412 C   0  0  0  0  0  0  0  0  0  0  0  0
    3.2376   22.6953   14.3518 C   0  0  0  0  0  0  0  0  0  0  0  0
    0.2633   19.9519   11.0427 O   0  0  0  0  0  0  0  0  0  0  0  0
   -1.7352   21.0610   16.6223 O   0  0  0  0  0  0  0  0  0  0  0  0
    4.0375   20.0582   10.8677 C   0  0  0  0  0  0  0  0  0  0  0  0
    0.1660   19.4984   11.8946 H   0  0  0  0  0  0  0  0  0  0  0  0
   -1.9289   20.3782   15.9611 H   0  0  0  0  0  0  0  0  0  0  0  0
    2.7536   18.3123    8.7520 C   0  0  0  0  0  0  0  0  0  0  0  0
    1.5332   18.0012    7.8808 C   0  0  0  0  0  0  0  0  0  0  0  0
    3.8982   17.3407    8.4604 C   0  0  0  0  0  0  0  0  0  0  0  0
    3.7850   16.6330    7.1057 C   0  0  0  0  0  0  0  0  0  0  0  0
    3.6797   15.1100    7.2261 C   0  0  0  0  0  0  0  0  0  0  0  0
    3.0780   14.5061    6.3197 O   0  0  0  0  0  0  0  0  0  0  0  0
    4.2441   14.5821    8.2147 O   0  0  0  0  0  0  0  0  0  0  0  0
    4.6748   15.1192    8.8503 H   0  0  0  0  0  0  0  0  0  0  0  0
  1  2  1  0  0  0
  1  6  1  0  0  0
  1 20  1  0  0  0
  2  3  1  0  0  0
  3  4  1  0  0  0
  3  7  1  0  0  0
  4  5  1  0  0  0
  4 10  1  0  0  0
  4 18  1  0  0  0
  5  6  1  0  0  0
  7  8  1  0  0  0
  8  9  1  0  0  0
  9 10  1  0  0  0
  9 11  1  0  0  0
 10 14  1  0  0  0
 11 12  1  0  0  0
 11 15  1  0  0  0
 12 13  1  0  0  0
 12 17  1  0  0  0
 12 21  1  0  0  0
 13 14  1  0  0  0
 13 19  1  0  0  0
 15 16  1  0  0  0
 16 17  1  0  0  0
 17 24  1  0  0  0
 24 26  1  0  0  0
 24 25  1  0  0  0
 26 27  1  0  0  0
 27 28  1  0  0  0
 28 29  2  0  0  0
 28 30  1  0  0  0
 19 22  1  0  0  0
 20 23  1  0  0  0
 30 31  1  0  0  0
M  END
> <minimizedAffinity>
-7.03466

$$$$
3ZQE_DXC_B_1079


 31 34  0  0  0  0  0  0  0  0999 V2000
    6.8908   17.3827    7.6365 C   0  0  0  0  0  0  0  0  0  0  0  0
    5.4960   16.8139    7.9060 C   0  0  0  0  0  0  0  0  0  0  0  0
    4.4352   17.8391    7.4997 C   0  0  0  0  0  0  0  0  0  0  0  0
    4.5928   19.1575    8.2624 C   0  0  0  0  0  0  0  0  0  0  0  0
    6.0074   19.6979    8.0442 C   0  0  0  0  0  0  0  0  0  0  0  0
    7.0669   18.6691    8.4449 C   0  0  0  0  0  0  0  0  0  0  0  0
    3.0502   17.2302    7.7269 C   0  0  0  0  0  0  0  0  0  0  0  0
    2.8217   16.9954    9.2221 C   0  0  0  0  0  0  0  0  0  0  0  0
    2.9600   18.3146    9.9830 C   0  0  0  0  0  0  0  0  0  0  0  0
    4.3372   18.9421    9.7574 C   0  0  0  0  0  0  0  0  0  0  0  0
    2.7718   18.0864   11.4836 C   0  0  0  0  0  0  0  0  0  0  0  0
    2.7812   19.4241   12.2200 C   0  0  0  0  0  0  0  0  0  0  0  0
    4.1536   20.0761   12.0225 C   0  0  0  0  0  0  0  0  0  0  0  0
    4.4485   20.2622   10.5305 C   0  0  0  0  0  0  0  0  0  0  0  0
    1.4001   17.5510   11.8898 C   0  0  0  0  0  0  0  0  0  0  0  0
    1.4014   17.8268   13.3968 C   0  0  0  0  0  0  0  0  0  0  0  0
    2.5038   18.8699   13.6191 C   0  0  0  0  0  0  0  0  0  0  0  0
    3.5835   20.1723    7.7190 C   0  0  0  0  0  0  0  0  0  0  0  0
    5.1660   19.2628   12.6171 O   0  0  0  0  0  0  0  0  0  0  0  0
    7.8726   16.4229    8.0383 O   0  0  0  0  0  0  0  0  0  0  0  0
    1.6519   20.3243   11.7163 C   0  0  0  0  0  0  0  0  0  0  0  0
    5.1726   18.3915   12.1908 H   0  0  0  0  0  0  0  0  0  0  0  0
    7.7677   16.2292    8.9830 H   0  0  0  0  0  0  0  0  0  0  0  0
    2.0877   19.8927   14.6822 C   0  0  0  0  0  0  0  0  0  0  0  0
    3.2936   20.3423   15.5121 C   0  0  0  0  0  0  0  0  0  0  0  0
    1.0168   19.2568   15.5700 C   0  0  0  0  0  0  0  0  0  0  0  0
   -0.1128   20.2137   15.9664 C   0  0  0  0  0  0  0  0  0  0  0  0
   -0.3918   21.2893   14.9127 C   0  0  0  0  0  0  0  0  0  0  0  0
   -1.0636   20.9551   13.9200 O   0  0  0  0  0  0  0  0  0  0  0  0
    0.0483   22.4400   15.1511 O   0  0  0  0  0  0  0  0  0  0  0  0
    0.5474   22.5990   15.9280 H   0  0  0  0  0  0  0  0  0  0  0  0
  1  2  1  0  0  0
  1  6  1  0  0  0
  1 20  1  0  0  0
  2  3  1  0  0  0
  3  4  1  0  0  0
  3  7  1  0  0  0
  4  5  1  0  0  0
  4 10  1  0  0  0
  4 18  1  0  0  0
  5  6  1  0  0  0
  7  8  1  0  0  0
  8  9  1  0  0  0
  9 10  1  0  0  0
  9 11  1  0  0  0
 10 14  1  0  0  0
 11 12  1  0  0  0
 11 15  1  0  0  0
 12 13  1  0  0  0
 12 17  1  0  0  0
 12 21  1  0  0  0
 13 14  1  0  0  0
 13 19  1  0  0  0
 15 16  1  0  0  0
 16 17  1  0  0  0
 17 24  1  0  0  0
 24 26  1  0  0  0
 24 25  1  0  0  0
 26 27  1  0  0  0
 27 28  1  0  0  0
 28 29  2  0  0  0
 28 30  1  0  0  0
 19 22  1  0  0  0
 20 23  1  0  0  0
 30 31  1  0  0  0
M  END
> <minimizedAffinity>
-6.42000

$$$$
3ZQE_DXC_B_1079


 31 34  0  0  0  0  0  0  0  0999 V2000
   -3.2888   17.6842    4.9667 C   0  0  0  0  0  0  0  0  0  0  0  0
   -3.6431   17.4462    6.4363 C   0  0  0  0  0  0  0  0  0  0  0  0
   -3.7519   18.7884    7.1628 C   0  0  0  0  0  0  0  0  0  0  0  0
   -2.4477   19.5871    7.0866 C   0  0  0  0  0  0  0  0  0  0  0  0
   -2.0585   19.7741    5.6189 C   0  0  0  0  0  0  0  0  0  0  0  0
   -1.9563   18.4314    4.8921 C   0  0  0  0  0  0  0  0  0  0  0  0
   -4.1589   18.5301    8.6148 C   0  0  0  0  0  0  0  0  0  0  0  0
   -3.0444   17.7749    9.3432 C   0  0  0  0  0  0  0  0  0  0  0  0
   -1.7457   18.5801    9.2843 C   0  0  0  0  0  0  0  0  0  0  0  0
   -1.3305   18.8561    7.8376 C   0  0  0  0  0  0  0  0  0  0  0  0
   -0.6142   17.8178    9.9758 C   0  0  0  0  0  0  0  0  0  0  0  0
    0.6427   18.6833   10.0273 C   0  0  0  0  0  0  0  0  0  0  0  0
    1.0923   18.9705    8.5910 C   0  0  0  0  0  0  0  0  0  0  0  0
   -0.0271   19.6643    7.8079 C   0  0  0  0  0  0  0  0  0  0  0  0
   -0.8309   17.5471   11.4633 C   0  0  0  0  0  0  0  0  0  0  0  0
    0.5851   17.1723   11.9124 C   0  0  0  0  0  0  0  0  0  0  0  0
    1.5145   17.7012   10.8128 C   0  0  0  0  0  0  0  0  0  0  0  0
   -2.6668   20.9626    7.7220 C   0  0  0  0  0  0  0  0  0  0  0  0
    1.4501   17.7493    7.9424 O   0  0  0  0  0  0  0  0  0  0  0  0
   -3.1711   16.4219    4.3040 O   0  0  0  0  0  0  0  0  0  0  0  0
    0.3765   19.9742   10.8032 C   0  0  0  0  0  0  0  0  0  0  0  0
    0.6798   17.1605    7.9141 H   0  0  0  0  0  0  0  0  0  0  0  0
   -2.4792   15.8946    4.7332 H   0  0  0  0  0  0  0  0  0  0  0  0
    2.8060   18.2708   11.4104 C   0  0  0  0  0  0  0  0  0  0  0  0
    4.0266   17.8328   10.5959 C   0  0  0  0  0  0  0  0  0  0  0  0
    2.9156   17.7980   12.8608 C   0  0  0  0  0  0  0  0  0  0  0  0
    3.3560   18.8908   13.8409 C   0  0  0  0  0  0  0  0  0  0  0  0
    2.4675   18.9810   15.0849 C   0  0  0  0  0  0  0  0  0  0  0  0
    2.8315   19.7515   15.9917 O   0  0  0  0  0  0  0  0  0  0  0  0
    1.4159   18.2964   15.0777 O   0  0  0  0  0  0  0  0  0  0  0  0
    1.2233   17.7412   14.3479 H   0  0  0  0  0  0  0  0  0  0  0  0
  1  2  1  0  0  0
  1  6  1  0  0  0
  1 20  1  0  0  0
  2  3  1  0  0  0
  3  4  1  0  0  0
  3  7  1  0  0  0
  4  5  1  0  0  0
  4 10  1  0  0  0
  4 18  1  0  0  0
  5  6  1  0  0  0
  7  8  1  0  0  0
  8  9  1  0  0  0
  9 10  1  0  0  0
  9 11  1  0  0  0
 10 14  1  0  0  0
 11 12  1  0  0  0
 11 15  1  0  0  0
 12 13  1  0  0  0
 12 17  1  0  0  0
 12 21  1  0  0  0
 13 14  1  0  0  0
 13 19  1  0  0  0
 15 16  1  0  0  0
 16 17  1  0  0  0
 17 24  1  0  0  0
 24 26  1  0  0  0
 24 25  1  0  0  0
 26 27  1  0  0  0
 27 28  1  0  0  0
 28 29  2  0  0  0
 28 30  1  0  0  0
 19 22  1  0  0  0
 20 23  1  0  0  0
 30 31  1  0  0  0
M  END
> <minimizedAffinity>
-5.91446

$$$$
3ZQE_DXC_B_1079


 31 34  0  0  0  0  0  0  0  0999 V2000
    4.6109   19.9690    6.7239 C   0  0  0  0  0  0  0  0  0  0  0  0
    4.5409   18.8227    7.7352 C   0  0  0  0  0  0  0  0  0  0  0  0
    3.0906   18.3594    7.8876 C   0  0  0  0  0  0  0  0  0  0  0  0
    2.1742   19.4938    8.3544 C   0  0  0  0  0  0  0  0  0  0  0  0
    2.2886   20.6659    7.3777 C   0  0  0  0  0  0  0  0  0  0  0  0
    3.7403   21.1238    7.2215 C   0  0  0  0  0  0  0  0  0  0  0  0
    3.0508   17.1796    8.8608 C   0  0  0  0  0  0  0  0  0  0  0  0
    3.4679   17.6417   10.2591 C   0  0  0  0  0  0  0  0  0  0  0  0
    2.5418   18.7618   10.7347 C   0  0  0  0  0  0  0  0  0  0  0  0
    2.5622   19.9459    9.7657 C   0  0  0  0  0  0  0  0  0  0  0  0
    2.9721   19.2588   12.1157 C   0  0  0  0  0  0  0  0  0  0  0  0
    1.9674   20.2832   12.6381 C   0  0  0  0  0  0  0  0  0  0  0  0
    1.9702   21.4896   11.6936 C   0  0  0  0  0  0  0  0  0  0  0  0
    1.6258   21.0531   10.2658 C   0  0  0  0  0  0  0  0  0  0  0  0
    2.9121   18.2131   13.2275 C   0  0  0  0  0  0  0  0  0  0  0  0
    2.9898   19.0954   14.4776 C   0  0  0  0  0  0  0  0  0  0  0  0
    2.6203   20.5067   14.0037 C   0  0  0  0  0  0  0  0  0  0  0  0
    0.7270   18.9944    8.3645 C   0  0  0  0  0  0  0  0  0  0  0  0
    3.2542   22.1149   11.7109 O   0  0  0  0  0  0  0  0  0  0  0  0
    5.9682   20.4053    6.6053 O   0  0  0  0  0  0  0  0  0  0  0  0
    0.5748   19.6613   12.7536 C   0  0  0  0  0  0  0  0  0  0  0  0
    3.9256   21.4833   11.4087 H   0  0  0  0  0  0  0  0  0  0  0  0
    6.2888   20.7036    7.4708 H   0  0  0  0  0  0  0  0  0  0  0  0
    1.7686   21.2335   15.0506 C   0  0  0  0  0  0  0  0  0  0  0  0
    2.5955   22.2849   15.7961 C   0  0  0  0  0  0  0  0  0  0  0  0
    1.2025   20.1932   16.0183 C   0  0  0  0  0  0  0  0  0  0  0  0
   -0.2867   20.3773   16.3300 C   0  0  0  0  0  0  0  0  0  0  0  0
   -1.0618   19.0575   16.3795 C   0  0  0  0  0  0  0  0  0  0  0  0
   -1.5507   18.6423   15.3133 O   0  0  0  0  0  0  0  0  0  0  0  0
   -1.1117   18.4742   17.4894 O   0  0  0  0  0  0  0  0  0  0  0  0
   -0.7130   18.8645   18.2422 H   0  0  0  0  0  0  0  0  0  0  0  0
  1  2  1  0  0  0
  1  6  1  0  0  0
  1 20  1  0  0  0
  2  3  1  0  0  0
  3  4  1  0  0  0
  3  7  1  0  0  0
  4  5  1  0  0  0
  4 10  1  0  0  0
  4 18  1  0  0  0
  5  6  1  0  0  0
  7  8  1  0  0  0
  8  9  1  0  0  0
  9 10  1  0  0  0
  9 11  1  0  0  0
 10 14  1  0  0  0
 11 12  1  0  0  0
 11 15  1  0  0  0
 12 13  1  0  0  0
 12 17  1  0  0  0
 12 21  1  0  0  0
 13 14  1  0  0  0
 13 19  1  0  0  0
 15 16  1  0  0  0
 16 17  1  0  0  0
 17 24  1  0  0  0
 24 26  1  0  0  0
 24 25  1  0  0  0
 26 27  1  0  0  0
 27 28  1  0  0  0
 28 29  2  0  0  0
 28 30  1  0  0  0
 19 22  1  0  0  0
 20 23  1  0  0  0
 30 31  1  0  0  0
M  END
> <minimizedAffinity>
-5.84663

$$$$
3ZQE_DXC_B_1079


 31 34  0  0  0  0  0  0  0  0999 V2000
    1.0416   18.5902   12.6383 C   0  0  0  0  0  0  0  0  0  0  0  0
    2.2823   19.4093   12.2758 C   0  0  0  0  0  0  0  0  0  0  0  0
    2.0251   20.1879   10.9839 C   0  0  0  0  0  0  0  0  0  0  0  0
    1.6808   19.2595    9.8159 C   0  0  0  0  0  0  0  0  0  0  0  0
    0.4776   18.3957   10.1990 C   0  0  0  0  0  0  0  0  0  0  0  0
    0.7340   17.6227   11.4944 C   0  0  0  0  0  0  0  0  0  0  0  0
    3.2564   21.0398   10.6696 C   0  0  0  0  0  0  0  0  0  0  0  0
    4.4509   20.1355   10.3558 C   0  0  0  0  0  0  0  0  0  0  0  0
    4.1154   19.2207    9.1772 C   0  0  0  0  0  0  0  0  0  0  0  0
    2.8789   18.3690    9.4719 C   0  0  0  0  0  0  0  0  0  0  0  0
    5.2879   18.2851    8.8783 C   0  0  0  0  0  0  0  0  0  0  0  0
    4.9962   17.4681    7.6217 C   0  0  0  0  0  0  0  0  0  0  0  0
    3.7662   16.5938    7.8870 C   0  0  0  0  0  0  0  0  0  0  0  0
    2.5652   17.4625    8.2750 C   0  0  0  0  0  0  0  0  0  0  0  0
    6.5833   18.9820    8.4668 C   0  0  0  0  0  0  0  0  0  0  0  0
    7.3752   17.8175    7.8634 C   0  0  0  0  0  0  0  0  0  0  0  0
    6.3356   16.7305    7.5626 C   0  0  0  0  0  0  0  0  0  0  0  0
    1.3155   20.1077    8.5950 C   0  0  0  0  0  0  0  0  0  0  0  0
    4.0492   15.6654    8.9348 O   0  0  0  0  0  0  0  0  0  0  0  0
    1.3020   17.8528   13.8362 O   0  0  0  0  0  0  0  0  0  0  0  0
    4.7847   18.3879    6.4181 C   0  0  0  0  0  0  0  0  0  0  0  0
    4.2657   16.1501    9.7466 H   0  0  0  0  0  0  0  0  0  0  0  0
    2.0607   17.2651   13.6957 H   0  0  0  0  0  0  0  0  0  0  0  0
    6.6553   16.0120    6.2468 C   0  0  0  0  0  0  0  0  0  0  0  0
    6.0752   14.5948    6.2412 C   0  0  0  0  0  0  0  0  0  0  0  0
    8.1741   15.9841    6.0694 C   0  0  0  0  0  0  0  0  0  0  0  0
    8.8045   14.6080    6.3100 C   0  0  0  0  0  0  0  0  0  0  0  0
    9.9070   14.6255    7.3727 C   0  0  0  0  0  0  0  0  0  0  0  0
   10.4143   13.5335    7.6868 O   0  0  0  0  0  0  0  0  0  0  0  0
   10.2421   15.7492    7.8192 O   0  0  0  0  0  0  0  0  0  0  0  0
    9.8013   16.5214    7.5234 H   0  0  0  0  0  0  0  0  0  0  0  0
  1  2  1  0  0  0
  1  6  1  0  0  0
  1 20  1  0  0  0
  2  3  1  0  0  0
  3  4  1  0  0  0
  3  7  1  0  0  0
  4  5  1  0  0  0
  4 10  1  0  0  0
  4 18  1  0  0  0
  5  6  1  0  0  0
  7  8  1  0  0  0
  8  9  1  0  0  0
  9 10  1  0  0  0
  9 11  1  0  0  0
 10 14  1  0  0  0
 11 12  1  0  0  0
 11 15  1  0  0  0
 12 13  1  0  0  0
 12 17  1  0  0  0
 12 21  1  0  0  0
 13 14  1  0  0  0
 13 19  1  0  0  0
 15 16  1  0  0  0
 16 17  1  0  0  0
 17 24  1  0  0  0
 24 26  1  0  0  0
 24 25  1  0  0  0
 26 27  1  0  0  0
 27 28  1  0  0  0
 28 29  2  0  0  0
 28 30  1  0  0  0
 19 22  1  0  0  0
 20 23  1  0  0  0
 30 31  1  0  0  0
M  END
> <minimizedAffinity>
-5.76950

$$$$
3ZQE_DXC_B_1079


 31 34  0  0  0  0  0  0  0  0999 V2000
    3.9444   17.7857   11.6958 C   0  0  0  0  0  0  0  0  0  0  0  0
    3.8645   18.4909   13.0515 C   0  0  0  0  0  0  0  0  0  0  0  0
    2.6362   17.9949   13.8175 C   0  0  0  0  0  0  0  0  0  0  0  0
    1.3391   18.2501   13.0446 C   0  0  0  0  0  0  0  0  0  0  0  0
    1.4404   17.5977   11.6644 C   0  0  0  0  0  0  0  0  0  0  0  0
    2.6727   18.0899   10.9024 C   0  0  0  0  0  0  0  0  0  0  0  0
    2.6055   18.6717   15.1892 C   0  0  0  0  0  0  0  0  0  0  0  0
    2.3875   20.1777   15.0238 C   0  0  0  0  0  0  0  0  0  0  0  0
    1.0829   20.4348   14.2686 C   0  0  0  0  0  0  0  0  0  0  0  0
    1.0935   19.7550   12.8978 C   0  0  0  0  0  0  0  0  0  0  0  0
    0.8730   21.9359   14.0632 C   0  0  0  0  0  0  0  0  0  0  0  0
   -0.4914   22.1895   13.4262 C   0  0  0  0  0  0  0  0  0  0  0  0
   -0.5110   21.5289   12.0439 C   0  0  0  0  0  0  0  0  0  0  0  0
   -0.2249   20.0284   12.1631 C   0  0  0  0  0  0  0  0  0  0  0  0
    0.7406   22.7525   15.3472 C   0  0  0  0  0  0  0  0  0  0  0  0
    0.1491   24.0613   14.8140 C   0  0  0  0  0  0  0  0  0  0  0  0
   -0.4195   23.7180   13.4315 C   0  0  0  0  0  0  0  0  0  0  0  0
    0.1711   17.6203   13.8079 C   0  0  0  0  0  0  0  0  0  0  0  0
    0.4659   22.1413   11.2009 O   0  0  0  0  0  0  0  0  0  0  0  0
    5.0852   18.2721   10.9826 O   0  0  0  0  0  0  0  0  0  0  0  0
   -1.6113   21.6566   14.3214 C   0  0  0  0  0  0  0  0  0  0  0  0
    1.3472   22.0229   11.5884 H   0  0  0  0  0  0  0  0  0  0  0  0
    5.0031   19.2303   10.8563 H   0  0  0  0  0  0  0  0  0  0  0  0
   -1.7375   24.4587   13.1788 C   0  0  0  0  0  0  0  0  0  0  0  0
   -1.9202   24.7597   11.6885 C   0  0  0  0  0  0  0  0  0  0  0  0
   -1.7319   25.7474   14.0024 C   0  0  0  0  0  0  0  0  0  0  0  0
   -1.2788   26.9849   13.2201 C   0  0  0  0  0  0  0  0  0  0  0  0
    0.2161   27.2813   13.3705 C   0  0  0  0  0  0  0  0  0  0  0  0
    0.6114   27.6719   14.4838 O   0  0  0  0  0  0  0  0  0  0  0  0
    0.9369   27.0699   12.3653 O   0  0  0  0  0  0  0  0  0  0  0  0
    0.5495   26.7755   11.5646 H   0  0  0  0  0  0  0  0  0  0  0  0
  1  2  1  0  0  0
  1  6  1  0  0  0
  1 20  1  0  0  0
  2  3  1  0  0  0
  3  4  1  0  0  0
  3  7  1  0  0  0
  4  5  1  0  0  0
  4 10  1  0  0  0
  4 18  1  0  0  0
  5  6  1  0  0  0
  7  8  1  0  0  0
  8  9  1  0  0  0
  9 10  1  0  0  0
  9 11  1  0  0  0
 10 14  1  0  0  0
 11 12  1  0  0  0
 11 15  1  0  0  0
 12 13  1  0  0  0
 12 17  1  0  0  0
 12 21  1  0  0  0
 13 14  1  0  0  0
 13 19  1  0  0  0
 15 16  1  0  0  0
 16 17  1  0  0  0
 17 24  1  0  0  0
 24 26  1  0  0  0
 24 25  1  0  0  0
 26 27  1  0  0  0
 27 28  1  0  0  0
 28 29  2  0  0  0
 28 30  1  0  0  0
 19 22  1  0  0  0
 20 23  1  0  0  0
 30 31  1  0  0  0
M  END
> <minimizedAffinity>
-5.71373

$$$$
3ZQE_DXC_B_1079


 31 34  0  0  0  0  0  0  0  0999 V2000
    1.4310   22.8409   14.1704 C   0  0  0  0  0  0  0  0  0  0  0  0
    0.4846   21.8448   13.4967 C   0  0  0  0  0  0  0  0  0  0  0  0
    0.7328   20.4418   14.0546 C   0  0  0  0  0  0  0  0  0  0  0  0
    2.1777   19.9859   13.8331 C   0  0  0  0  0  0  0  0  0  0  0  0
    3.1285   21.0119   14.4528 C   0  0  0  0  0  0  0  0  0  0  0  0
    2.8747   22.4155   13.8986 C   0  0  0  0  0  0  0  0  0  0  0  0
   -0.2588   19.4728   13.4078 C   0  0  0  0  0  0  0  0  0  0  0  0
    0.0254   19.3585   11.9080 C   0  0  0  0  0  0  0  0  0  0  0  0
    1.4623   18.8850   11.6853 C   0  0  0  0  0  0  0  0  0  0  0  0
    2.4665   19.8387   12.3360 C   0  0  0  0  0  0  0  0  0  0  0  0
    1.7707   18.8037   10.1895 C   0  0  0  0  0  0  0  0  0  0  0  0
    3.1598   18.2070    9.9748 C   0  0  0  0  0  0  0  0  0  0  0  0
    4.1930   19.1451   10.6072 C   0  0  0  0  0  0  0  0  0  0  0  0
    3.8976   19.3406   12.0979 C   0  0  0  0  0  0  0  0  0  0  0  0
    0.9138   17.8121    9.4049 C   0  0  0  0  0  0  0  0  0  0  0  0
    1.7192   17.6750    8.1089 C   0  0  0  0  0  0  0  0  0  0  0  0
    3.1234   18.1927    8.4452 C   0  0  0  0  0  0  0  0  0  0  0  0
    2.3861   18.6350   14.5225 C   0  0  0  0  0  0  0  0  0  0  0  0
    4.1716   20.4083    9.9410 O   0  0  0  0  0  0  0  0  0  0  0  0
    1.2022   24.1441   13.6264 O   0  0  0  0  0  0  0  0  0  0  0  0
    3.2390   16.7995   10.5682 C   0  0  0  0  0  0  0  0  0  0  0  0
    3.2926   20.8079   10.0337 H   0  0  0  0  0  0  0  0  0  0  0  0
    1.3607   24.1275   12.6696 H   0  0  0  0  0  0  0  0  0  0  0  0
    4.2009   17.3527    7.7501 C   0  0  0  0  0  0  0  0  0  0  0  0
    5.1760   18.2441    6.9757 C   0  0  0  0  0  0  0  0  0  0  0  0
    3.5092   16.3567    6.8181 C   0  0  0  0  0  0  0  0  0  0  0  0
    3.8727   16.5310    5.3395 C   0  0  0  0  0  0  0  0  0  0  0  0
    4.3116   15.2270    4.6671 C   0  0  0  0  0  0  0  0  0  0  0  0
    5.4996   14.8845    4.8070 O   0  0  0  0  0  0  0  0  0  0  0  0
    3.4258   14.5818    4.0558 O   0  0  0  0  0  0  0  0  0  0  0  0
    2.5535   14.9195    4.0016 H   0  0  0  0  0  0  0  0  0  0  0  0
  1  2  1  0  0  0
  1  6  1  0  0  0
  1 20  1  0  0  0
  2  3  1  0  0  0
  3  4  1  0  0  0
  3  7  1  0  0  0
  4  5  1  0  0  0
  4 10  1  0  0  0
  4 18  1  0  0  0
  5  6  1  0  0  0
  7  8  1  0  0  0
  8  9  1  0  0  0
  9 10  1  0  0  0
  9 11  1  0  0  0
 10 14  1  0  0  0
 11 12  1  0  0  0
 11 15  1  0  0  0
 12 13  1  0  0  0
 12 17  1  0  0  0
 12 21  1  0  0  0
 13 14  1  0  0  0
 13 19  1  0  0  0
 15 16  1  0  0  0
 16 17  1  0  0  0
 17 24  1  0  0  0
 24 26  1  0  0  0
 24 25  1  0  0  0
 26 27  1  0  0  0
 27 28  1  0  0  0
 28 29  2  0  0  0
 28 30  1  0  0  0
 19 22  1  0  0  0
 20 23  1  0  0  0
 30 31  1  0  0  0
M  END
> <minimizedAffinity>
-5.70856

$$$$
