4GKH_0J9_A_302


 26 29  0  0  0  0  0  0  0  0999 V2000
   83.2075   45.9114  -31.1221 N   0  0  0  0  0  0  0  0  0  0  0  0
   84.1461   44.9279  -31.3657 C   0  0  0  0  0  0  0  0  0  0  0  0
   84.3275   44.5524  -32.6898 N   0  0  0  0  0  0  0  0  0  0  0  0
   83.6068   45.1371  -33.6629 C   0  0  0  0  0  0  0  0  0  0  0  0
   82.6952   46.1028  -33.4215 C   0  0  0  0  0  0  0  0  0  0  0  0
   82.5123   46.4628  -32.1220 C   0  0  0  0  0  0  0  0  0  0  0  0
   81.6303   47.3911  -31.7891 N   0  0  0  0  0  0  0  0  0  0  0  0
   82.7812   45.6143  -35.5020 N   0  0  0  0  0  0  0  0  0  0  0  0
   82.2499   46.4832  -34.6478 C   0  0  0  0  0  0  0  0  0  0  0  0
   83.6512   44.9170  -34.9728 N   0  0  0  0  0  0  0  0  0  0  0  0
   81.5103   47.6399  -30.8441 H   0  0  0  0  0  0  0  0  0  0  0  0
   81.0939   47.8331  -32.4864 H   0  0  0  0  0  0  0  0  0  0  0  0
   81.6410   50.6457  -37.6142 C   0  0  0  0  0  0  0  0  0  0  0  0
   82.7578   49.8911  -37.2723 C   0  0  0  0  0  0  0  0  0  0  0  0
   79.9325   47.0286  -34.6515 C   0  0  0  0  0  0  0  0  0  0  0  0
   80.3989   50.2966  -37.1021 C   0  0  0  0  0  0  0  0  0  0  0  0
   78.9969   48.9032  -35.7923 C   0  0  0  0  0  0  0  0  0  0  0  0
   82.6208   48.7900  -36.4322 C   0  0  0  0  0  0  0  0  0  0  0  0
   81.2388   47.3343  -35.0052 C   0  0  0  0  0  0  0  0  0  0  0  0
   80.2670   49.1990  -36.2625 C   0  0  0  0  0  0  0  0  0  0  0  0
   81.3818   48.4193  -35.9071 C   0  0  0  0  0  0  0  0  0  0  0  0
   78.8330   47.8242  -34.9473 C   0  0  0  0  0  0  0  0  0  0  0  0
   84.0088   42.4929  -35.3758 C   0  0  0  0  0  0  0  0  0  0  0  0
   84.3964   44.1472  -37.1953 C   0  0  0  0  0  0  0  0  0  0  0  0
   85.9621   44.0790  -35.2345 C   0  0  0  0  0  0  0  0  0  0  0  0
   84.5027   43.9205  -35.6749 C   0  0  0  0  0  0  0  0  0  0  0  0
  1  2  2  0  0  0
  1  6  1  0  0  0
  7  6  1  0  0  0
  2  3  1  0  0  0
  6  5  2  0  0  0
  3  4  2  0  0  0
  5  4  1  0  0  0
  5  9  1  0  0  0
  4 10  1  0  0  0
 15 22  2  0  0  0
 15 19  1  0  0  0
 22 17  1  0  0  0
 23 26  1  0  0  0
  9 19  1  0  0  0
  9  8  2  0  0  0
 17 20  2  0  0  0
 19 21  2  0  0  0
 21 20  1  0  0  0
 21 18  1  0  0  0
 20 16  1  0  0  0
 18 14  2  0  0  0
 16 13  2  0  0  0
 10  8  1  0  0  0
 10 26  1  0  0  0
 13 14  1  0  0  0
 26 25  1  0  0  0
 26 24  1  0  0  0
  7 11  1  0  0  0
  7 12  1  0  0  0
M  END
> <minimizedAffinity>
-10.04381

$$$$
4GKH_0J9_A_302


 26 29  0  0  0  0  0  0  0  0999 V2000
   84.5155   44.4891  -31.8298 N   0  0  0  0  0  0  0  0  0  0  0  0
   84.9365   43.2080  -32.1282 C   0  0  0  0  0  0  0  0  0  0  0  0
   84.5110   42.6772  -33.3384 N   0  0  0  0  0  0  0  0  0  0  0  0
   83.7267   43.4018  -34.1556 C   0  0  0  0  0  0  0  0  0  0  0  0
   83.3228   44.6561  -33.8634 C   0  0  0  0  0  0  0  0  0  0  0  0
   83.7333   45.1710  -32.6726 C   0  0  0  0  0  0  0  0  0  0  0  0
   83.3753   46.3877  -32.2959 N   0  0  0  0  0  0  0  0  0  0  0  0
   82.5123   43.9904  -35.7274 N   0  0  0  0  0  0  0  0  0  0  0  0
   82.6258   45.0665  -34.9554 C   0  0  0  0  0  0  0  0  0  0  0  0
   83.2362   43.0669  -35.3446 N   0  0  0  0  0  0  0  0  0  0  0  0
   83.6811   46.7453  -31.4311 H   0  0  0  0  0  0  0  0  0  0  0  0
   82.8032   46.9356  -32.8805 H   0  0  0  0  0  0  0  0  0  0  0  0
   83.2529   49.6583  -37.1959 C   0  0  0  0  0  0  0  0  0  0  0  0
   84.1186   48.5913  -36.9821 C   0  0  0  0  0  0  0  0  0  0  0  0
   80.5327   46.1977  -34.8711 C   0  0  0  0  0  0  0  0  0  0  0  0
   81.9414   49.5727  -36.7492 C   0  0  0  0  0  0  0  0  0  0  0  0
   80.1685   48.4092  -35.6881 C   0  0  0  0  0  0  0  0  0  0  0  0
   83.6627   47.4465  -36.3350 C   0  0  0  0  0  0  0  0  0  0  0  0
   81.8878   46.1999  -35.1685 C   0  0  0  0  0  0  0  0  0  0  0  0
   81.4913   48.4300  -36.1021 C   0  0  0  0  0  0  0  0  0  0  0  0
   82.3480   47.3375  -35.8792 C   0  0  0  0  0  0  0  0  0  0  0  0
   79.6922   47.2918  -35.0326 C   0  0  0  0  0  0  0  0  0  0  0  0
   82.7110   41.7942  -37.4112 C   0  0  0  0  0  0  0  0  0  0  0  0
   84.9183   41.5297  -36.2906 C   0  0  0  0  0  0  0  0  0  0  0  0
   82.8544   40.6300  -35.1808 C   0  0  0  0  0  0  0  0  0  0  0  0
   83.4161   41.7664  -36.0425 C   0  0  0  0  0  0  0  0  0  0  0  0
  1  2  2  0  0  0
  1  6  1  0  0  0
  7  6  1  0  0  0
  2  3  1  0  0  0
  6  5  2  0  0  0
  3  4  2  0  0  0
  5  4  1  0  0  0
  5  9  1  0  0  0
  4 10  1  0  0  0
 15 22  2  0  0  0
 15 19  1  0  0  0
 22 17  1  0  0  0
 23 26  1  0  0  0
  9 19  1  0  0  0
  9  8  2  0  0  0
 17 20  2  0  0  0
 19 21  2  0  0  0
 21 20  1  0  0  0
 21 18  1  0  0  0
 20 16  1  0  0  0
 18 14  2  0  0  0
 16 13  2  0  0  0
 10  8  1  0  0  0
 10 26  1  0  0  0
 13 14  1  0  0  0
 26 25  1  0  0  0
 26 24  1  0  0  0
  7 11  1  0  0  0
  7 12  1  0  0  0
M  END
> <minimizedAffinity>
-9.45018

$$$$
4GKH_0J9_A_302


 26 29  0  0  0  0  0  0  0  0999 V2000
   84.8848   43.8681  -31.9585 N   0  0  0  0  0  0  0  0  0  0  0  0
   84.8287   42.4944  -32.0895 C   0  0  0  0  0  0  0  0  0  0  0  0
   84.3638   42.0013  -33.3011 N   0  0  0  0  0  0  0  0  0  0  0  0
   83.9931   42.8480  -34.2777 C   0  0  0  0  0  0  0  0  0  0  0  0
   84.0557   44.1901  -34.1483 C   0  0  0  0  0  0  0  0  0  0  0  0
   84.5029   44.6713  -32.9566 C   0  0  0  0  0  0  0  0  0  0  0  0
   84.5853   45.9730  -32.7343 N   0  0  0  0  0  0  0  0  0  0  0  0
   83.2529   43.6267  -36.0489 N   0  0  0  0  0  0  0  0  0  0  0  0
   83.6773   44.6800  -35.3581 C   0  0  0  0  0  0  0  0  0  0  0  0
   83.5387   42.5622  -35.4935 N   0  0  0  0  0  0  0  0  0  0  0  0
   84.9110   46.3045  -31.8664 H   0  0  0  0  0  0  0  0  0  0  0  0
   84.3208   46.6100  -33.4368 H   0  0  0  0  0  0  0  0  0  0  0  0
   79.7426   47.9986  -35.3943 C   0  0  0  0  0  0  0  0  0  0  0  0
   79.8455   46.6679  -35.0041 C   0  0  0  0  0  0  0  0  0  0  0  0
   84.5001   46.7592  -36.1750 C   0  0  0  0  0  0  0  0  0  0  0  0
   80.8612   48.6516  -35.8935 C   0  0  0  0  0  0  0  0  0  0  0  0
   83.1538   48.7021  -36.4969 C   0  0  0  0  0  0  0  0  0  0  0  0
   81.0662   46.0072  -35.1060 C   0  0  0  0  0  0  0  0  0  0  0  0
   83.4388   45.9653  -35.7650 C   0  0  0  0  0  0  0  0  0  0  0  0
   82.0763   47.9883  -35.9958 C   0  0  0  0  0  0  0  0  0  0  0  0
   82.2043   46.6442  -35.6032 C   0  0  0  0  0  0  0  0  0  0  0  0
   84.3739   48.0687  -36.6209 C   0  0  0  0  0  0  0  0  0  0  0  0
   82.7437   41.3109  -37.4856 C   0  0  0  0  0  0  0  0  0  0  0  0
   84.6278   40.4368  -36.1131 C   0  0  0  0  0  0  0  0  0  0  0  0
   82.3059   40.4457  -35.1596 C   0  0  0  0  0  0  0  0  0  0  0  0
   83.2940   41.2058  -36.0512 C   0  0  0  0  0  0  0  0  0  0  0  0
  1  2  2  0  0  0
  1  6  1  0  0  0
  7  6  1  0  0  0
  2  3  1  0  0  0
  6  5  2  0  0  0
  3  4  2  0  0  0
  5  4  1  0  0  0
  5  9  1  0  0  0
  4 10  1  0  0  0
 15 22  2  0  0  0
 15 19  1  0  0  0
 22 17  1  0  0  0
 23 26  1  0  0  0
  9 19  1  0  0  0
  9  8  2  0  0  0
 17 20  2  0  0  0
 19 21  2  0  0  0
 21 20  1  0  0  0
 21 18  1  0  0  0
 20 16  1  0  0  0
 18 14  2  0  0  0
 16 13  2  0  0  0
 10  8  1  0  0  0
 10 26  1  0  0  0
 13 14  1  0  0  0
 26 25  1  0  0  0
 26 24  1  0  0  0
  7 11  1  0  0  0
  7 12  1  0  0  0
M  END
> <minimizedAffinity>
-9.20196

$$$$
4GKH_0J9_A_302


 26 29  0  0  0  0  0  0  0  0999 V2000
   86.3598   46.2350  -37.5842 N   0  0  0  0  0  0  0  0  0  0  0  0
   86.6664   45.2903  -36.6244 C   0  0  0  0  0  0  0  0  0  0  0  0
   85.7927   45.1850  -35.5508 N   0  0  0  0  0  0  0  0  0  0  0  0
   84.7110   45.9805  -35.4792 C   0  0  0  0  0  0  0  0  0  0  0  0
   84.4111   46.8980  -36.4227 C   0  0  0  0  0  0  0  0  0  0  0  0
   85.2738   47.0060  -37.4695 C   0  0  0  0  0  0  0  0  0  0  0  0
   85.0680   47.8872  -38.4347 N   0  0  0  0  0  0  0  0  0  0  0  0
   82.9930   46.9335  -34.8220 N   0  0  0  0  0  0  0  0  0  0  0  0
   83.2227   47.4300  -36.0335 C   0  0  0  0  0  0  0  0  0  0  0  0
   83.7683   46.0147  -34.5430 N   0  0  0  0  0  0  0  0  0  0  0  0
   85.7020   47.9524  -39.1851 H   0  0  0  0  0  0  0  0  0  0  0  0
   84.2809   48.4777  -38.4026 H   0  0  0  0  0  0  0  0  0  0  0  0
   78.4062   49.2306  -35.7981 C   0  0  0  0  0  0  0  0  0  0  0  0
   79.0086   48.0891  -35.2809 C   0  0  0  0  0  0  0  0  0  0  0  0
   83.1729   49.5006  -37.2072 C   0  0  0  0  0  0  0  0  0  0  0  0
   79.1629   50.1218  -36.5466 C   0  0  0  0  0  0  0  0  0  0  0  0
   81.2091   50.8178  -37.5221 C   0  0  0  0  0  0  0  0  0  0  0  0
   80.3618   47.8553  -35.5069 C   0  0  0  0  0  0  0  0  0  0  0  0
   82.5079   48.4823  -36.5396 C   0  0  0  0  0  0  0  0  0  0  0  0
   80.5118   49.8837  -36.7718 C   0  0  0  0  0  0  0  0  0  0  0  0
   81.1425   48.7383  -36.2547 C   0  0  0  0  0  0  0  0  0  0  0  0
   82.5497   50.6056  -37.7728 C   0  0  0  0  0  0  0  0  0  0  0  0
   85.0364   45.3071  -32.5286 C   0  0  0  0  0  0  0  0  0  0  0  0
   82.5818   45.7031  -32.4023 C   0  0  0  0  0  0  0  0  0  0  0  0
   83.4489   43.7217  -33.6762 C   0  0  0  0  0  0  0  0  0  0  0  0
   83.7148   45.1859  -33.3096 C   0  0  0  0  0  0  0  0  0  0  0  0
  1  2  2  0  0  0
  1  6  1  0  0  0
  7  6  1  0  0  0
  2  3  1  0  0  0
  6  5  2  0  0  0
  3  4  2  0  0  0
  5  4  1  0  0  0
  5  9  1  0  0  0
  4 10  1  0  0  0
 15 22  2  0  0  0
 15 19  1  0  0  0
 22 17  1  0  0  0
 23 26  1  0  0  0
  9 19  1  0  0  0
  9  8  2  0  0  0
 17 20  2  0  0  0
 19 21  2  0  0  0
 21 20  1  0  0  0
 21 18  1  0  0  0
 20 16  1  0  0  0
 18 14  2  0  0  0
 16 13  2  0  0  0
 10  8  1  0  0  0
 10 26  1  0  0  0
 13 14  1  0  0  0
 26 25  1  0  0  0
 26 24  1  0  0  0
  7 11  1  0  0  0
  7 12  1  0  0  0
M  END
> <minimizedAffinity>
-8.89920

$$$$
4GKH_0J9_A_302


 26 29  0  0  0  0  0  0  0  0999 V2000
   85.3220   45.8875  -37.6590 N   0  0  0  0  0  0  0  0  0  0  0  0
   85.4987   44.6571  -38.2611 C   0  0  0  0  0  0  0  0  0  0  0  0
   84.8379   43.5801  -37.6861 N   0  0  0  0  0  0  0  0  0  0  0  0
   84.0723   43.7610  -36.5956 C   0  0  0  0  0  0  0  0  0  0  0  0
   83.8966   44.9663  -36.0140 C   0  0  0  0  0  0  0  0  0  0  0  0
   84.5526   46.0190  -36.5737 C   0  0  0  0  0  0  0  0  0  0  0  0
   84.4506   47.2355  -36.0634 N   0  0  0  0  0  0  0  0  0  0  0  0
   82.8603   43.4282  -34.9488 N   0  0  0  0  0  0  0  0  0  0  0  0
   83.0088   44.7477  -35.0086 C   0  0  0  0  0  0  0  0  0  0  0  0
   83.3639   42.8604  -35.9222 N   0  0  0  0  0  0  0  0  0  0  0  0
   84.9319   47.9862  -36.4806 H   0  0  0  0  0  0  0  0  0  0  0  0
   83.8935   47.3899  -35.2666 H   0  0  0  0  0  0  0  0  0  0  0  0
   79.2823   48.2378  -34.3532 C   0  0  0  0  0  0  0  0  0  0  0  0
   79.6854   47.4893  -35.4537 C   0  0  0  0  0  0  0  0  0  0  0  0
   83.0771   45.4518  -32.7354 C   0  0  0  0  0  0  0  0  0  0  0  0
   79.9563   48.0962  -33.1480 C   0  0  0  0  0  0  0  0  0  0  0  0
   81.6427   47.1134  -31.8015 C   0  0  0  0  0  0  0  0  0  0  0  0
   80.7493   46.5999  -35.3361 C   0  0  0  0  0  0  0  0  0  0  0  0
   82.5615   45.5792  -34.0171 C   0  0  0  0  0  0  0  0  0  0  0  0
   81.0186   47.2096  -33.0356 C   0  0  0  0  0  0  0  0  0  0  0  0
   81.4403   46.4397  -34.1339 C   0  0  0  0  0  0  0  0  0  0  0  0
   82.7089   46.2484  -31.6588 C   0  0  0  0  0  0  0  0  0  0  0  0
   84.6833   40.7646  -36.1029 C   0  0  0  0  0  0  0  0  0  0  0  0
   82.3821   40.7314  -35.1538 C   0  0  0  0  0  0  0  0  0  0  0  0
   82.7009   41.1743  -37.6039 C   0  0  0  0  0  0  0  0  0  0  0  0
   83.2857   41.4029  -36.2058 C   0  0  0  0  0  0  0  0  0  0  0  0
  1  2  2  0  0  0
  1  6  1  0  0  0
  7  6  1  0  0  0
  2  3  1  0  0  0
  6  5  2  0  0  0
  3  4  2  0  0  0
  5  4  1  0  0  0
  5  9  1  0  0  0
  4 10  1  0  0  0
 15 22  2  0  0  0
 15 19  1  0  0  0
 22 17  1  0  0  0
 23 26  1  0  0  0
  9 19  1  0  0  0
  9  8  2  0  0  0
 17 20  2  0  0  0
 19 21  2  0  0  0
 21 20  1  0  0  0
 21 18  1  0  0  0
 20 16  1  0  0  0
 18 14  2  0  0  0
 16 13  2  0  0  0
 10  8  1  0  0  0
 10 26  1  0  0  0
 13 14  1  0  0  0
 26 25  1  0  0  0
 26 24  1  0  0  0
  7 11  1  0  0  0
  7 12  1  0  0  0
M  END
> <minimizedAffinity>
-8.82948

$$$$
4GKH_0J9_A_302


 26 29  0  0  0  0  0  0  0  0999 V2000
   86.0714   44.0341  -38.7461 N   0  0  0  0  0  0  0  0  0  0  0  0
   86.2455   42.9654  -37.8888 C   0  0  0  0  0  0  0  0  0  0  0  0
   85.7361   43.1057  -36.6050 N   0  0  0  0  0  0  0  0  0  0  0  0
   85.1105   44.2407  -36.2465 C   0  0  0  0  0  0  0  0  0  0  0  0
   84.9365   45.2804  -37.0894 C   0  0  0  0  0  0  0  0  0  0  0  0
   85.4447   45.1445  -38.3444 C   0  0  0  0  0  0  0  0  0  0  0  0
   85.3334   46.1172  -39.2343 N   0  0  0  0  0  0  0  0  0  0  0  0
   84.1494   45.7106  -35.1478 N   0  0  0  0  0  0  0  0  0  0  0  0
   84.2043   46.1854  -36.3881 C   0  0  0  0  0  0  0  0  0  0  0  0
   84.5558   44.5473  -35.0783 N   0  0  0  0  0  0  0  0  0  0  0  0
   85.7067   46.0026  -40.1381 H   0  0  0  0  0  0  0  0  0  0  0  0
   84.8772   46.9555  -38.9928 H   0  0  0  0  0  0  0  0  0  0  0  0
   80.0610   49.1967  -35.8761 C   0  0  0  0  0  0  0  0  0  0  0  0
   80.2932   47.8592  -35.5750 C   0  0  0  0  0  0  0  0  0  0  0  0
   84.7990   48.3599  -37.1533 C   0  0  0  0  0  0  0  0  0  0  0  0
   81.0792   49.9567  -36.4353 C   0  0  0  0  0  0  0  0  0  0  0  0
   83.2957   50.2102  -37.2388 C   0  0  0  0  0  0  0  0  0  0  0  0
   81.5421   47.2981  -35.8249 C   0  0  0  0  0  0  0  0  0  0  0  0
   83.8392   47.4684  -36.6964 C   0  0  0  0  0  0  0  0  0  0  0  0
   82.3227   49.3926  -36.6851 C   0  0  0  0  0  0  0  0  0  0  0  0
   82.5809   48.0435  -36.3846 C   0  0  0  0  0  0  0  0  0  0  0  0
   84.5400   49.6774  -37.5090 C   0  0  0  0  0  0  0  0  0  0  0  0
   85.9190   43.0670  -33.6236 C   0  0  0  0  0  0  0  0  0  0  0  0
   84.2032   44.5767  -32.6366 C   0  0  0  0  0  0  0  0  0  0  0  0
   83.4714   42.6029  -34.0037 C   0  0  0  0  0  0  0  0  0  0  0  0
   84.5340   43.6978  -33.8582 C   0  0  0  0  0  0  0  0  0  0  0  0
  1  2  2  0  0  0
  1  6  1  0  0  0
  7  6  1  0  0  0
  2  3  1  0  0  0
  6  5  2  0  0  0
  3  4  2  0  0  0
  5  4  1  0  0  0
  5  9  1  0  0  0
  4 10  1  0  0  0
 15 22  2  0  0  0
 15 19  1  0  0  0
 22 17  1  0  0  0
 23 26  1  0  0  0
  9 19  1  0  0  0
  9  8  2  0  0  0
 17 20  2  0  0  0
 19 21  2  0  0  0
 21 20  1  0  0  0
 21 18  1  0  0  0
 20 16  1  0  0  0
 18 14  2  0  0  0
 16 13  2  0  0  0
 10  8  1  0  0  0
 10 26  1  0  0  0
 13 14  1  0  0  0
 26 25  1  0  0  0
 26 24  1  0  0  0
  7 11  1  0  0  0
  7 12  1  0  0  0
M  END
> <minimizedAffinity>
-8.79784

$$$$
4GKH_0J9_A_302


 26 29  0  0  0  0  0  0  0  0999 V2000
   83.8013   49.6971  -38.2596 N   0  0  0  0  0  0  0  0  0  0  0  0
   82.6916   50.4745  -37.9920 C   0  0  0  0  0  0  0  0  0  0  0  0
   81.8762   50.0601  -36.9477 N   0  0  0  0  0  0  0  0  0  0  0  0
   82.1806   48.9502  -36.2522 C   0  0  0  0  0  0  0  0  0  0  0  0
   83.2698   48.1967  -36.5124 C   0  0  0  0  0  0  0  0  0  0  0  0
   84.0626   48.5996  -37.5424 C   0  0  0  0  0  0  0  0  0  0  0  0
   85.1441   47.9155  -37.8786 N   0  0  0  0  0  0  0  0  0  0  0  0
   82.1067   47.3630  -34.9230 N   0  0  0  0  0  0  0  0  0  0  0  0
   83.2666   47.2291  -35.5583 C   0  0  0  0  0  0  0  0  0  0  0  0
   81.5311   48.4122  -35.2250 N   0  0  0  0  0  0  0  0  0  0  0  0
   85.7069   48.2208  -38.6265 H   0  0  0  0  0  0  0  0  0  0  0  0
   85.3860   47.1013  -37.3809 H   0  0  0  0  0  0  0  0  0  0  0  0
   82.6790   42.1211  -35.3138 C   0  0  0  0  0  0  0  0  0  0  0  0
   81.7685   43.1680  -35.4067 C   0  0  0  0  0  0  0  0  0  0  0  0
   85.4393   46.2611  -35.4576 C   0  0  0  0  0  0  0  0  0  0  0  0
   84.0376   42.4011  -35.2630 C   0  0  0  0  0  0  0  0  0  0  0  0
   85.8581   43.9206  -35.2642 C   0  0  0  0  0  0  0  0  0  0  0  0
   82.2246   44.4818  -35.4590 C   0  0  0  0  0  0  0  0  0  0  0  0
   84.0597   46.1235  -35.4063 C   0  0  0  0  0  0  0  0  0  0  0  0
   84.4883   43.7131  -35.3130 C   0  0  0  0  0  0  0  0  0  0  0  0
   83.5858   44.7869  -35.4113 C   0  0  0  0  0  0  0  0  0  0  0  0
   86.3385   45.2140  -35.3017 C   0  0  0  0  0  0  0  0  0  0  0  0
   79.1120   48.7953  -35.6340 C   0  0  0  0  0  0  0  0  0  0  0  0
   79.9110   48.0296  -33.4040 C   0  0  0  0  0  0  0  0  0  0  0  0
   80.4365   50.3615  -34.1699 C   0  0  0  0  0  0  0  0  0  0  0  0
   80.2659   48.9064  -34.6203 C   0  0  0  0  0  0  0  0  0  0  0  0
  1  2  2  0  0  0
  1  6  1  0  0  0
  7  6  1  0  0  0
  2  3  1  0  0  0
  6  5  2  0  0  0
  3  4  2  0  0  0
  5  4  1  0  0  0
  5  9  1  0  0  0
  4 10  1  0  0  0
 15 22  2  0  0  0
 15 19  1  0  0  0
 22 17  1  0  0  0
 23 26  1  0  0  0
  9 19  1  0  0  0
  9  8  2  0  0  0
 17 20  2  0  0  0
 19 21  2  0  0  0
 21 20  1  0  0  0
 21 18  1  0  0  0
 20 16  1  0  0  0
 18 14  2  0  0  0
 16 13  2  0  0  0
 10  8  1  0  0  0
 10 26  1  0  0  0
 13 14  1  0  0  0
 26 25  1  0  0  0
 26 24  1  0  0  0
  7 11  1  0  0  0
  7 12  1  0  0  0
M  END
> <minimizedAffinity>
-8.77502

$$$$
4GKH_0J9_A_302


 26 29  0  0  0  0  0  0  0  0999 V2000
   84.5795   49.3081  -37.9593 N   0  0  0  0  0  0  0  0  0  0  0  0
   83.5650   50.2399  -37.8585 C   0  0  0  0  0  0  0  0  0  0  0  0
   82.4942   49.9106  -37.0386 N   0  0  0  0  0  0  0  0  0  0  0  0
   82.4769   48.7329  -36.3901 C   0  0  0  0  0  0  0  0  0  0  0  0
   83.4734   47.8276  -36.4859 C   0  0  0  0  0  0  0  0  0  0  0  0
   84.5177   48.1484  -37.2973 C   0  0  0  0  0  0  0  0  0  0  0  0
   85.5332   47.3166  -37.4630 N   0  0  0  0  0  0  0  0  0  0  0  0
   81.8890   47.1138  -35.2392 N   0  0  0  0  0  0  0  0  0  0  0  0
   83.1248   46.8266  -35.6355 C   0  0  0  0  0  0  0  0  0  0  0  0
   81.5517   48.2558  -35.5637 N   0  0  0  0  0  0  0  0  0  0  0  0
   86.2809   47.5642  -38.0537 H   0  0  0  0  0  0  0  0  0  0  0  0
   85.5411   46.4501  -36.9957 H   0  0  0  0  0  0  0  0  0  0  0  0
   84.7719   44.0458  -31.6291 C   0  0  0  0  0  0  0  0  0  0  0  0
   84.2587   45.3342  -31.7308 C   0  0  0  0  0  0  0  0  0  0  0  0
   83.7880   44.6960  -36.4653 C   0  0  0  0  0  0  0  0  0  0  0  0
   84.9165   43.2766  -32.7756 C   0  0  0  0  0  0  0  0  0  0  0  0
   84.7100   42.9580  -35.1162 C   0  0  0  0  0  0  0  0  0  0  0  0
   83.8850   45.8363  -32.9738 C   0  0  0  0  0  0  0  0  0  0  0  0
   83.6959   45.6014  -35.4181 C   0  0  0  0  0  0  0  0  0  0  0  0
   84.5448   43.7821  -34.0138 C   0  0  0  0  0  0  0  0  0  0  0  0
   84.0196   45.0804  -34.1395 C   0  0  0  0  0  0  0  0  0  0  0  0
   84.3596   43.4342  -36.3635 C   0  0  0  0  0  0  0  0  0  0  0  0
   79.6937   49.6780  -36.3952 C   0  0  0  0  0  0  0  0  0  0  0  0
   79.2513   47.8410  -34.7744 C   0  0  0  0  0  0  0  0  0  0  0  0
   80.5074   49.8785  -34.0186 C   0  0  0  0  0  0  0  0  0  0  0  0
   80.2736   48.9167  -35.1888 C   0  0  0  0  0  0  0  0  0  0  0  0
  1  2  2  0  0  0
  1  6  1  0  0  0
  7  6  1  0  0  0
  2  3  1  0  0  0
  6  5  2  0  0  0
  3  4  2  0  0  0
  5  4  1  0  0  0
  5  9  1  0  0  0
  4 10  1  0  0  0
 15 22  2  0  0  0
 15 19  1  0  0  0
 22 17  1  0  0  0
 23 26  1  0  0  0
  9 19  1  0  0  0
  9  8  2  0  0  0
 17 20  2  0  0  0
 19 21  2  0  0  0
 21 20  1  0  0  0
 21 18  1  0  0  0
 20 16  1  0  0  0
 18 14  2  0  0  0
 16 13  2  0  0  0
 10  8  1  0  0  0
 10 26  1  0  0  0
 13 14  1  0  0  0
 26 25  1  0  0  0
 26 24  1  0  0  0
  7 11  1  0  0  0
  7 12  1  0  0  0
M  END
> <minimizedAffinity>
-8.75658

$$$$
4GKH_0J9_A_302


 26 29  0  0  0  0  0  0  0  0999 V2000
   83.6366   45.6742  -31.2085 N   0  0  0  0  0  0  0  0  0  0  0  0
   82.7774   46.6513  -30.7452 C   0  0  0  0  0  0  0  0  0  0  0  0
   81.8934   47.1939  -31.6679 N   0  0  0  0  0  0  0  0  0  0  0  0
   81.9011   46.7670  -32.9430 C   0  0  0  0  0  0  0  0  0  0  0  0
   82.7378   45.8071  -33.3905 C   0  0  0  0  0  0  0  0  0  0  0  0
   83.6097   45.2832  -32.4866 C   0  0  0  0  0  0  0  0  0  0  0  0
   84.4762   44.3471  -32.8382 N   0  0  0  0  0  0  0  0  0  0  0  0
   81.5071   46.5653  -34.9667 N   0  0  0  0  0  0  0  0  0  0  0  0
   82.3856   45.6076  -34.6877 C   0  0  0  0  0  0  0  0  0  0  0  0
   81.1297   47.1582  -33.9521 N   0  0  0  0  0  0  0  0  0  0  0  0
   85.1002   43.9786  -32.1718 H   0  0  0  0  0  0  0  0  0  0  0  0
   84.4969   44.0191  -33.7662 H   0  0  0  0  0  0  0  0  0  0  0  0
   86.4373   45.9056  -37.8488 C   0  0  0  0  0  0  0  0  0  0  0  0
   85.8981   46.7955  -36.9264 C   0  0  0  0  0  0  0  0  0  0  0  0
   82.5306   43.5432  -35.8645 C   0  0  0  0  0  0  0  0  0  0  0  0
   85.8353   44.6688  -38.0358 C   0  0  0  0  0  0  0  0  0  0  0  0
   84.1634   43.0632  -37.5362 C   0  0  0  0  0  0  0  0  0  0  0  0
   84.7709   46.4369  -36.1929 C   0  0  0  0  0  0  0  0  0  0  0  0
   82.9688   44.8441  -35.6631 C   0  0  0  0  0  0  0  0  0  0  0  0
   84.7098   44.3159  -37.3040 C   0  0  0  0  0  0  0  0  0  0  0  0
   84.1503   45.1982  -36.3629 C   0  0  0  0  0  0  0  0  0  0  0  0
   83.0378   42.6855  -36.8322 C   0  0  0  0  0  0  0  0  0  0  0  0
   80.7289   49.6087  -33.9392 C   0  0  0  0  0  0  0  0  0  0  0  0
   79.1826   48.0816  -35.1534 C   0  0  0  0  0  0  0  0  0  0  0  0
   79.2312   48.0499  -32.6440 C   0  0  0  0  0  0  0  0  0  0  0  0
   80.0816   48.2119  -33.9088 C   0  0  0  0  0  0  0  0  0  0  0  0
  1  2  2  0  0  0
  1  6  1  0  0  0
  7  6  1  0  0  0
  2  3  1  0  0  0
  6  5  2  0  0  0
  3  4  2  0  0  0
  5  4  1  0  0  0
  5  9  1  0  0  0
  4 10  1  0  0  0
 15 22  2  0  0  0
 15 19  1  0  0  0
 22 17  1  0  0  0
 23 26  1  0  0  0
  9 19  1  0  0  0
  9  8  2  0  0  0
 17 20  2  0  0  0
 19 21  2  0  0  0
 21 20  1  0  0  0
 21 18  1  0  0  0
 20 16  1  0  0  0
 18 14  2  0  0  0
 16 13  2  0  0  0
 10  8  1  0  0  0
 10 26  1  0  0  0
 13 14  1  0  0  0
 26 25  1  0  0  0
 26 24  1  0  0  0
  7 11  1  0  0  0
  7 12  1  0  0  0
M  END
> <minimizedAffinity>
-8.58481

$$$$
4GKH_0J9_A_302


 26 29  0  0  0  0  0  0  0  0999 V2000
   82.4609   41.8441  -36.7050 N   0  0  0  0  0  0  0  0  0  0  0  0
   83.3202   41.8089  -37.7856 C   0  0  0  0  0  0  0  0  0  0  0  0
   84.1918   42.8804  -37.9252 N   0  0  0  0  0  0  0  0  0  0  0  0
   84.1727   43.8875  -37.0344 C   0  0  0  0  0  0  0  0  0  0  0  0
   83.3359   43.9151  -35.9758 C   0  0  0  0  0  0  0  0  0  0  0  0
   82.4761   42.8683  -35.8460 C   0  0  0  0  0  0  0  0  0  0  0  0
   81.6104   42.8166  -34.8468 N   0  0  0  0  0  0  0  0  0  0  0  0
   84.5463   45.6764  -36.0588 N   0  0  0  0  0  0  0  0  0  0  0  0
   83.6753   45.0355  -35.2858 C   0  0  0  0  0  0  0  0  0  0  0  0
   84.9315   44.9781  -37.0008 N   0  0  0  0  0  0  0  0  0  0  0  0
   80.9952   42.0521  -34.7675 H   0  0  0  0  0  0  0  0  0  0  0  0
   81.5815   43.5427  -34.1825 H   0  0  0  0  0  0  0  0  0  0  0  0
   79.5064   47.8901  -34.3017 C   0  0  0  0  0  0  0  0  0  0  0  0
   80.0459   47.3910  -35.4822 C   0  0  0  0  0  0  0  0  0  0  0  0
   83.5623   45.3514  -32.9288 C   0  0  0  0  0  0  0  0  0  0  0  0
   80.1449   47.6309  -33.0967 C   0  0  0  0  0  0  0  0  0  0  0  0
   81.8895   46.6472  -31.8272 C   0  0  0  0  0  0  0  0  0  0  0  0
   81.2103   46.6296  -35.4457 C   0  0  0  0  0  0  0  0  0  0  0  0
   83.0856   45.6287  -34.2019 C   0  0  0  0  0  0  0  0  0  0  0  0
   81.3075   46.8729  -33.0649 C   0  0  0  0  0  0  0  0  0  0  0  0
   81.8681   46.3547  -34.2457 C   0  0  0  0  0  0  0  0  0  0  0  0
   83.0520   45.9059  -31.7620 C   0  0  0  0  0  0  0  0  0  0  0  0
   85.3227   45.9672  -39.2446 C   0  0  0  0  0  0  0  0  0  0  0  0
   86.8880   46.4361  -37.3665 C   0  0  0  0  0  0  0  0  0  0  0  0
   86.8123   44.1346  -38.3654 C   0  0  0  0  0  0  0  0  0  0  0  0
   85.9751   45.3617  -37.9881 C   0  0  0  0  0  0  0  0  0  0  0  0
  1  2  2  0  0  0
  1  6  1  0  0  0
  7  6  1  0  0  0
  2  3  1  0  0  0
  6  5  2  0  0  0
  3  4  2  0  0  0
  5  4  1  0  0  0
  5  9  1  0  0  0
  4 10  1  0  0  0
 15 22  2  0  0  0
 15 19  1  0  0  0
 22 17  1  0  0  0
 23 26  1  0  0  0
  9 19  1  0  0  0
  9  8  2  0  0  0
 17 20  2  0  0  0
 19 21  2  0  0  0
 21 20  1  0  0  0
 21 18  1  0  0  0
 20 16  1  0  0  0
 18 14  2  0  0  0
 16 13  2  0  0  0
 10  8  1  0  0  0
 10 26  1  0  0  0
 13 14  1  0  0  0
 26 25  1  0  0  0
 26 24  1  0  0  0
  7 11  1  0  0  0
  7 12  1  0  0  0
M  END
> <minimizedAffinity>
-8.54129

$$$$
