6D56_FVM_B_2001


 36 41  0  0  0  0  0  0  0  0999 V2000
   36.1584   29.4794   23.4766 N   0  0  0  0  0  0  0  0  0  0  0  0
   35.3608   29.1121   22.4478 C   0  0  0  0  0  0  0  0  0  0  0  0
   35.2749   29.8822   24.4929 C   0  0  0  0  0  0  0  0  0  0  0  0
   35.5748   30.3766   25.7592 C   0  0  0  0  0  0  0  0  0  0  0  0
   34.5274   30.6708   26.6164 C   0  0  0  0  0  0  0  0  0  0  0  0
   32.8550   30.0323   24.9156 C   0  0  0  0  0  0  0  0  0  0  0  0
   33.9680   29.2753   22.7649 N   0  0  0  0  0  0  0  0  0  0  0  0
   33.9301   29.7397   24.0821 C   0  0  0  0  0  0  0  0  0  0  0  0
   33.2108   30.4693   26.1658 C   0  0  0  0  0  0  0  0  0  0  0  0
   31.9332   30.6969   27.3059 Cl  0  0  0  0  0  0  0  0  0  0  0  0
   38.9943   31.4984   26.0532 N   0  0  0  0  0  0  0  0  0  0  0  0
   37.8374   29.8421   26.8906 C   0  0  0  0  0  0  0  0  0  0  0  0
   37.7084   31.6788   25.5553 C   0  0  0  0  0  0  0  0  0  0  0  0
   36.9479   30.6155   26.0781 C   0  0  0  0  0  0  0  0  0  0  0  0
   37.5332   28.6150   27.6618 C   0  0  0  0  0  0  0  0  0  0  0  0
   37.3162   32.8101   24.6692 C   0  0  0  0  0  0  0  0  0  0  0  0
   39.0880   30.3985   26.8625 N   0  0  0  0  0  0  0  0  0  0  0  0
   39.7509   32.0938   25.8471 H   0  0  0  0  0  0  0  0  0  0  0  0
   35.2789   27.3130   20.6079 C   0  0  0  0  0  0  0  0  0  0  0  0
   37.2358   25.7007   19.7574 C   0  0  0  0  0  0  0  0  0  0  0  0
   37.2139   28.0199   21.1626 C   0  0  0  0  0  0  0  0  0  0  0  0
   36.6837   27.1151   20.0324 C   0  0  0  0  0  0  0  0  0  0  0  0
   36.9858   27.4994   18.5700 C   0  0  0  0  0  0  0  0  0  0  0  0
   35.8167   28.6182   21.1851 N   0  0  0  0  0  0  0  0  0  0  0  0
   37.5442   26.1162   18.3322 N   0  0  0  0  0  0  0  0  0  0  0  0
   38.5393   26.1080   18.1083 H   0  0  0  0  0  0  0  0  0  0  0  0
   32.7575   29.1495   21.9449 C   0  0  0  0  0  0  0  0  0  0  0  0
   33.3114   31.5563   21.4153 C   0  0  0  0  0  0  0  0  0  0  0  0
   33.9099   33.9616   20.9599 C   0  0  0  0  0  0  0  0  0  0  0  0
   30.7598   31.4611   17.9921 C   0  0  0  0  0  0  0  0  0  0  0  0
   31.6739   31.4550   19.1514 C   0  0  0  0  0  0  0  0  0  0  0  0
   31.8102   30.3259   19.9443 C   0  0  0  0  0  0  0  0  0  0  0  0
   33.1953   32.6959   20.6215 C   0  0  0  0  0  0  0  0  0  0  0  0
   32.3843   32.6245   19.4965 C   0  0  0  0  0  0  0  0  0  0  0  0
   32.6283   30.3770   21.0802 C   0  0  0  0  0  0  0  0  0  0  0  0
   32.2879   33.6784   18.7189 F   0  0  0  0  0  0  0  0  0  0  0  0
 30 31  1  0  0  0
 25 23  1  0  0  0
 25 20  1  0  0  0
 23 22  1  0  0  0
 36 34  1  0  0  0
 31 34  2  0  0  0
 31 32  1  0  0  0
 34 33  1  0  0  0
 20 22  1  0  0  0
 22 19  1  0  0  0
 22 21  1  0  0  0
 32 35  2  0  0  0
 19 24  1  0  0  0
 33 29  1  0  0  0
 33 28  2  0  0  0
 35 28  1  0  0  0
 35 27  1  0  0  0
 21 24  1  0  0  0
 24  2  1  0  0  0
 27  7  1  0  0  0
  2  7  1  0  0  0
  2  1  2  0  0  0
  7  8  1  0  0  0
  1  3  1  0  0  0
  8  3  2  0  0  0
  8  6  1  0  0  0
 16 13  1  0  0  0
  3  4  1  0  0  0
  6  9  2  0  0  0
 13 11  1  0  0  0
 13 14  2  0  0  0
  4 14  1  0  0  0
  4  5  2  0  0  0
 11 17  1  0  0  0
 14 12  1  0  0  0
  9  5  1  0  0  0
  9 10  1  0  0  0
 17 12  2  0  0  0
 12 15  1  0  0  0
 11 18  1  0  0  0
 25 26  1  0  0  0
M  END
> <minimizedAffinity>
-12.09311

$$$$
6D56_FVM_B_2001


 36 41  0  0  0  0  0  0  0  0999 V2000
   36.1936   29.4587   23.5123 N   0  0  0  0  0  0  0  0  0  0  0  0
   35.3919   29.0906   22.4868 C   0  0  0  0  0  0  0  0  0  0  0  0
   35.3142   29.8720   24.5280 C   0  0  0  0  0  0  0  0  0  0  0  0
   35.6193   30.3714   25.7911 C   0  0  0  0  0  0  0  0  0  0  0  0
   34.5752   30.6762   26.6486 C   0  0  0  0  0  0  0  0  0  0  0  0
   32.8961   30.0384   24.9543 C   0  0  0  0  0  0  0  0  0  0  0  0
   34.0007   29.2636   22.8056 N   0  0  0  0  0  0  0  0  0  0  0  0
   33.9679   29.7352   24.1203 C   0  0  0  0  0  0  0  0  0  0  0  0
   33.2566   30.4800   26.2014 C   0  0  0  0  0  0  0  0  0  0  0  0
   31.9825   30.7210   27.3426 Cl  0  0  0  0  0  0  0  0  0  0  0  0
   39.0451   31.4766   26.0749 N   0  0  0  0  0  0  0  0  0  0  0  0
   37.8819   29.8276   26.9181 C   0  0  0  0  0  0  0  0  0  0  0  0
   37.7589   31.6625   25.5797 C   0  0  0  0  0  0  0  0  0  0  0  0
   36.9943   30.6040   26.1063 C   0  0  0  0  0  0  0  0  0  0  0  0
   37.5735   28.6035   27.6923 C   0  0  0  0  0  0  0  0  0  0  0  0
   37.3702   32.7942   24.6925 C   0  0  0  0  0  0  0  0  0  0  0  0
   39.1352   30.3778   26.8859 N   0  0  0  0  0  0  0  0  0  0  0  0
   39.8041   32.0678   25.8659 H   0  0  0  0  0  0  0  0  0  0  0  0
   35.2769   27.2961   20.6442 C   0  0  0  0  0  0  0  0  0  0  0  0
   37.1991   25.6384   19.8022 C   0  0  0  0  0  0  0  0  0  0  0  0
   37.2253   27.9558   21.2103 C   0  0  0  0  0  0  0  0  0  0  0  0
   36.6796   27.0653   20.0760 C   0  0  0  0  0  0  0  0  0  0  0  0
   36.9987   27.4439   18.6158 C   0  0  0  0  0  0  0  0  0  0  0  0
   35.8427   28.5874   21.2260 N   0  0  0  0  0  0  0  0  0  0  0  0
   37.5250   26.0480   18.3792 N   0  0  0  0  0  0  0  0  0  0  0  0
   38.5209   26.0162   18.1607 H   0  0  0  0  0  0  0  0  0  0  0  0
   32.7880   29.1405   21.9884 C   0  0  0  0  0  0  0  0  0  0  0  0
   31.8509   30.3531   19.9807 C   0  0  0  0  0  0  0  0  0  0  0  0
   30.8778   31.4896   17.9528 C   0  0  0  0  0  0  0  0  0  0  0  0
   34.0245   33.8815   21.0123 C   0  0  0  0  0  0  0  0  0  0  0  0
   33.2446   32.6666   20.7035 C   0  0  0  0  0  0  0  0  0  0  0  0
   33.3501   31.5329   21.4945 C   0  0  0  0  0  0  0  0  0  0  0  0
   31.7239   31.4881   19.1820 C   0  0  0  0  0  0  0  0  0  0  0  0
   32.4167   32.6304   19.5612 C   0  0  0  0  0  0  0  0  0  0  0  0
   32.6543   30.3727   21.1312 C   0  0  0  0  0  0  0  0  0  0  0  0
   32.2839   33.7191   18.8387 F   0  0  0  0  0  0  0  0  0  0  0  0
 30 31  1  0  0  0
 25 23  1  0  0  0
 25 20  1  0  0  0
 23 22  1  0  0  0
 36 34  1  0  0  0
 31 34  2  0  0  0
 31 32  1  0  0  0
 34 33  1  0  0  0
 20 22  1  0  0  0
 22 19  1  0  0  0
 22 21  1  0  0  0
 32 35  2  0  0  0
 19 24  1  0  0  0
 33 29  1  0  0  0
 33 28  2  0  0  0
 35 28  1  0  0  0
 35 27  1  0  0  0
 21 24  1  0  0  0
 24  2  1  0  0  0
 27  7  1  0  0  0
  2  7  1  0  0  0
  2  1  2  0  0  0
  7  8  1  0  0  0
  1  3  1  0  0  0
  8  3  2  0  0  0
  8  6  1  0  0  0
 16 13  1  0  0  0
  3  4  1  0  0  0
  6  9  2  0  0  0
 13 11  1  0  0  0
 13 14  2  0  0  0
  4 14  1  0  0  0
  4  5  2  0  0  0
 11 17  1  0  0  0
 14 12  1  0  0  0
  9  5  1  0  0  0
  9 10  1  0  0  0
 17 12  2  0  0  0
 12 15  1  0  0  0
 11 18  1  0  0  0
 25 26  1  0  0  0
M  END
> <minimizedAffinity>
-11.96647

$$$$
6D56_FVM_B_2001


 36 41  0  0  0  0  0  0  0  0999 V2000
   36.5053   28.8955   23.2597 N   0  0  0  0  0  0  0  0  0  0  0  0
   35.1727   29.0579   23.0936 C   0  0  0  0  0  0  0  0  0  0  0  0
   36.9729   28.4471   22.0123 C   0  0  0  0  0  0  0  0  0  0  0  0
   38.2706   28.1041   21.6432 C   0  0  0  0  0  0  0  0  0  0  0  0
   38.5039   27.7259   20.3313 C   0  0  0  0  0  0  0  0  0  0  0  0
   36.1157   27.9724   19.7547 C   0  0  0  0  0  0  0  0  0  0  0  0
   34.7530   28.7147   21.7620 N   0  0  0  0  0  0  0  0  0  0  0  0
   35.9168   28.3551   21.0776 C   0  0  0  0  0  0  0  0  0  0  0  0
   37.4200   27.6931   19.4363 C   0  0  0  0  0  0  0  0  0  0  0  0
   37.7656   27.3685   17.7754 Cl  0  0  0  0  0  0  0  0  0  0  0  0
   40.6314   27.3856   24.2791 N   0  0  0  0  0  0  0  0  0  0  0  0
   39.9786   29.1992   23.2458 C   0  0  0  0  0  0  0  0  0  0  0  0
   39.7162   26.9415   23.3309 C   0  0  0  0  0  0  0  0  0  0  0  0
   39.2773   28.0981   22.6583 C   0  0  0  0  0  0  0  0  0  0  0  0
   39.8749   30.6353   22.8995 C   0  0  0  0  0  0  0  0  0  0  0  0
   39.3560   25.5092   23.1367 C   0  0  0  0  0  0  0  0  0  0  0  0
   40.8038   28.7428   24.2384 N   0  0  0  0  0  0  0  0  0  0  0  0
   41.1017   26.7916   24.9078 H   0  0  0  0  0  0  0  0  0  0  0  0
   34.2919   30.9561   24.5935 C   0  0  0  0  0  0  0  0  0  0  0  0
   34.2898   31.1137   27.2631 C   0  0  0  0  0  0  0  0  0  0  0  0
   34.5504   29.0522   25.5208 C   0  0  0  0  0  0  0  0  0  0  0  0
   33.9064   30.3826   25.9595 C   0  0  0  0  0  0  0  0  0  0  0  0
   32.4329   30.3801   26.4137 C   0  0  0  0  0  0  0  0  0  0  0  0
   34.2646   29.5130   24.1007 N   0  0  0  0  0  0  0  0  0  0  0  0
   32.8365   31.0736   27.6935 N   0  0  0  0  0  0  0  0  0  0  0  0
   32.6718   30.5166   28.5319 H   0  0  0  0  0  0  0  0  0  0  0  0
   33.4213   28.5940   21.1575 C   0  0  0  0  0  0  0  0  0  0  0  0
   33.5916   31.1127   21.0753 C   0  0  0  0  0  0  0  0  0  0  0  0
   33.8149   33.6229   21.0610 C   0  0  0  0  0  0  0  0  0  0  0  0
   30.6797   31.2755   17.9555 C   0  0  0  0  0  0  0  0  0  0  0  0
   31.7200   31.1906   18.9997 C   0  0  0  0  0  0  0  0  0  0  0  0
   32.0957   29.9671   19.5323 C   0  0  0  0  0  0  0  0  0  0  0  0
   33.2343   32.3498   20.5421 C   0  0  0  0  0  0  0  0  0  0  0  0
   32.3097   32.3685   19.5062 C   0  0  0  0  0  0  0  0  0  0  0  0
   33.0313   29.9276   20.5741 C   0  0  0  0  0  0  0  0  0  0  0  0
   31.9849   33.5223   18.9697 F   0  0  0  0  0  0  0  0  0  0  0  0
 30 31  1  0  0  0
 25 23  1  0  0  0
 25 20  1  0  0  0
 23 22  1  0  0  0
 36 34  1  0  0  0
 31 34  2  0  0  0
 31 32  1  0  0  0
 34 33  1  0  0  0
 20 22  1  0  0  0
 22 19  1  0  0  0
 22 21  1  0  0  0
 32 35  2  0  0  0
 19 24  1  0  0  0
 33 29  1  0  0  0
 33 28  2  0  0  0
 35 28  1  0  0  0
 35 27  1  0  0  0
 21 24  1  0  0  0
 24  2  1  0  0  0
 27  7  1  0  0  0
  2  7  1  0  0  0
  2  1  2  0  0  0
  7  8  1  0  0  0
  1  3  1  0  0  0
  8  3  2  0  0  0
  8  6  1  0  0  0
 16 13  1  0  0  0
  3  4  1  0  0  0
  6  9  2  0  0  0
 13 11  1  0  0  0
 13 14  2  0  0  0
  4 14  1  0  0  0
  4  5  2  0  0  0
 11 17  1  0  0  0
 14 12  1  0  0  0
  9  5  1  0  0  0
  9 10  1  0  0  0
 17 12  2  0  0  0
 12 15  1  0  0  0
 11 18  1  0  0  0
 25 26  1  0  0  0
M  END
> <minimizedAffinity>
-9.49136

$$$$
