1A28_STR_A_1


 23 26  0  0  0  0  0  0  0  0999 V2000
   21.2067    9.3896   62.7674 C   0  0  0  0  0  0  0  0  0  0  0  0
   21.2424    8.8701   64.2269 C   0  0  0  0  0  0  0  0  0  0  0  0
   22.2113    7.6959   64.3257 C   0  0  0  0  0  0  0  0  0  0  0  0
   22.0091    6.8071   65.1715 O   0  0  0  0  0  0  0  0  0  0  0  0
   23.4048    7.6638   63.4942 C   0  0  0  0  0  0  0  0  0  0  0  0
   23.6409    8.5912   62.5843 C   0  0  0  0  0  0  0  0  0  0  0  0
   24.9601    8.5482   61.8217 C   0  0  0  0  0  0  0  0  0  0  0  0
   24.7678    8.7420   60.3056 C   0  0  0  0  0  0  0  0  0  0  0  0
   23.9045    9.9794   59.9481 C   0  0  0  0  0  0  0  0  0  0  0  0
   22.5114    9.8221   60.6404 C   0  0  0  0  0  0  0  0  0  0  0  0
   22.6129    9.7353   62.2087 C   0  0  0  0  0  0  0  0  0  0  0  0
   21.5311   10.9383   60.1956 C   0  0  0  0  0  0  0  0  0  0  0  0
   21.4063   11.0287   58.6491 C   0  0  0  0  0  0  0  0  0  0  0  0
   22.7849   11.2519   57.9900 C   0  0  0  0  0  0  0  0  0  0  0  0
   23.6771   10.0340   58.4339 C   0  0  0  0  0  0  0  0  0  0  0  0
   24.9281   10.1262   57.5252 C   0  0  0  0  0  0  0  0  0  0  0  0
   24.3206   10.5879   56.1510 C   0  0  0  0  0  0  0  0  0  0  0  0
   22.8447   11.0344   56.4418 C   0  0  0  0  0  0  0  0  0  0  0  0
   23.4089   12.6459   58.3524 C   0  0  0  0  0  0  0  0  0  0  0  0
   23.1702   11.0613   62.8539 C   0  0  0  0  0  0  0  0  0  0  0  0
   22.3461   12.2222   55.6014 C   0  0  0  0  0  0  0  0  0  0  0  0
   23.1168   12.8335   54.8925 O   0  0  0  0  0  0  0  0  0  0  0  0
   20.9089   12.6080   55.6579 C   0  0  0  0  0  0  0  0  0  0  0  0
  1  2  1  0  0  0
  1 11  1  0  0  0
  2  3  1  0  0  0
  3  4  2  0  0  0
  3  5  1  0  0  0
  5  6  2  0  0  0
  6  7  1  0  0  0
  6 11  1  0  0  0
  7  8  1  0  0  0
  8  9  1  0  0  0
  9 10  1  0  0  0
  9 15  1  0  0  0
 10 11  1  0  0  0
 10 12  1  0  0  0
 11 20  1  0  0  0
 12 13  1  0  0  0
 13 14  1  0  0  0
 14 15  1  0  0  0
 14 18  1  0  0  0
 14 19  1  0  0  0
 15 16  1  0  0  0
 16 17  1  0  0  0
 17 18  1  0  0  0
 18 21  1  0  0  0
 21 22  2  0  0  0
 21 23  1  0  0  0
M  END
> <minimizedAffinity>
-11.48678

$$$$
1A28_STR_A_1


 23 26  0  0  0  0  0  0  0  0999 V2000
   21.4022   10.0970   63.1613 C   0  0  0  0  0  0  0  0  0  0  0  0
   21.6684    9.5919   64.6019 C   0  0  0  0  0  0  0  0  0  0  0  0
   22.1648    8.1502   64.5522 C   0  0  0  0  0  0  0  0  0  0  0  0
   21.9187    7.3868   65.5024 O   0  0  0  0  0  0  0  0  0  0  0  0
   22.9898    7.7013   63.4411 C   0  0  0  0  0  0  0  0  0  0  0  0
   23.2614    8.4892   62.4167 C   0  0  0  0  0  0  0  0  0  0  0  0
   24.2149    7.9852   61.3395 C   0  0  0  0  0  0  0  0  0  0  0  0
   23.6812    8.2415   59.9172 C   0  0  0  0  0  0  0  0  0  0  0  0
   23.2282    9.7061   59.6847 C   0  0  0  0  0  0  0  0  0  0  0  0
   22.1204   10.0492   60.7333 C   0  0  0  0  0  0  0  0  0  0  0  0
   22.6237    9.9249   62.2195 C   0  0  0  0  0  0  0  0  0  0  0  0
   21.4965   11.4422   60.4596 C   0  0  0  0  0  0  0  0  0  0  0  0
   20.9796   11.5781   59.0002 C   0  0  0  0  0  0  0  0  0  0  0  0
   22.1063   11.3015   57.9810 C   0  0  0  0  0  0  0  0  0  0  0  0
   22.6163    9.8446   58.2869 C   0  0  0  0  0  0  0  0  0  0  0  0
   23.5135    9.4919   57.0746 C   0  0  0  0  0  0  0  0  0  0  0  0
   22.7389   10.1451   55.8729 C   0  0  0  0  0  0  0  0  0  0  0  0
   21.6495   11.0841   56.5005 C   0  0  0  0  0  0  0  0  0  0  0  0
   23.2434   12.3825   58.0299 C   0  0  0  0  0  0  0  0  0  0  0  0
   23.7575   10.9646   62.5638 C   0  0  0  0  0  0  0  0  0  0  0  0
   21.3705   12.3753   55.7127 C   0  0  0  0  0  0  0  0  0  0  0  0
   20.2859   12.9122   55.7866 O   0  0  0  0  0  0  0  0  0  0  0  0
   22.4456   12.9652   54.8679 C   0  0  0  0  0  0  0  0  0  0  0  0
  1  2  1  0  0  0
  1 11  1  0  0  0
  2  3  1  0  0  0
  3  4  2  0  0  0
  3  5  1  0  0  0
  5  6  2  0  0  0
  6  7  1  0  0  0
  6 11  1  0  0  0
  7  8  1  0  0  0
  8  9  1  0  0  0
  9 10  1  0  0  0
  9 15  1  0  0  0
 10 11  1  0  0  0
 10 12  1  0  0  0
 11 20  1  0  0  0
 12 13  1  0  0  0
 13 14  1  0  0  0
 14 15  1  0  0  0
 14 18  1  0  0  0
 14 19  1  0  0  0
 15 16  1  0  0  0
 16 17  1  0  0  0
 17 18  1  0  0  0
 18 21  1  0  0  0
 21 22  2  0  0  0
 21 23  1  0  0  0
M  END
> <minimizedAffinity>
-11.07651

$$$$
1A28_STR_A_1


 23 26  0  0  0  0  0  0  0  0999 V2000
   22.0992   12.8973   57.5806 C   0  0  0  0  0  0  0  0  0  0  0  0
   21.9896   13.4210   56.1263 C   0  0  0  0  0  0  0  0  0  0  0  0
   23.0149   12.7081   55.2500 C   0  0  0  0  0  0  0  0  0  0  0  0
   23.4923   13.2987   54.2653 O   0  0  0  0  0  0  0  0  0  0  0  0
   23.3643   11.3214   55.5180 C   0  0  0  0  0  0  0  0  0  0  0  0
   22.8768   10.6726   56.5598 C   0  0  0  0  0  0  0  0  0  0  0  0
   23.2071    9.1931   56.7197 C   0  0  0  0  0  0  0  0  0  0  0  0
   23.6395    8.8405   58.1556 C   0  0  0  0  0  0  0  0  0  0  0  0
   22.6588    9.3601   59.2385 C   0  0  0  0  0  0  0  0  0  0  0  0
   22.5410   10.9120   59.0895 C   0  0  0  0  0  0  0  0  0  0  0  0
   21.9907   11.3524   57.6821 C   0  0  0  0  0  0  0  0  0  0  0  0
   21.7077   11.5279   60.2432 C   0  0  0  0  0  0  0  0  0  0  0  0
   22.2461   11.1161   61.6417 C   0  0  0  0  0  0  0  0  0  0  0  0
   22.2905    9.5798   61.7925 C   0  0  0  0  0  0  0  0  0  0  0  0
   23.2183    9.0595   60.6329 C   0  0  0  0  0  0  0  0  0  0  0  0
   23.4841    7.5767   60.9930 C   0  0  0  0  0  0  0  0  0  0  0  0
   23.6188    7.6227   62.5584 C   0  0  0  0  0  0  0  0  0  0  0  0
   23.1097    9.0367   63.0098 C   0  0  0  0  0  0  0  0  0  0  0  0
   20.8613    8.9309   61.7854 C   0  0  0  0  0  0  0  0  0  0  0  0
   20.5112   10.8692   57.4320 C   0  0  0  0  0  0  0  0  0  0  0  0
   22.3640    9.0615   64.3548 C   0  0  0  0  0  0  0  0  0  0  0  0
   22.0040   10.1160   64.8329 O   0  0  0  0  0  0  0  0  0  0  0  0
   22.0792    7.7805   65.0587 C   0  0  0  0  0  0  0  0  0  0  0  0
  1  2  1  0  0  0
  1 11  1  0  0  0
  2  3  1  0  0  0
  3  4  2  0  0  0
  3  5  1  0  0  0
  5  6  2  0  0  0
  6  7  1  0  0  0
  6 11  1  0  0  0
  7  8  1  0  0  0
  8  9  1  0  0  0
  9 10  1  0  0  0
  9 15  1  0  0  0
 10 11  1  0  0  0
 10 12  1  0  0  0
 11 20  1  0  0  0
 12 13  1  0  0  0
 13 14  1  0  0  0
 14 15  1  0  0  0
 14 18  1  0  0  0
 14 19  1  0  0  0
 15 16  1  0  0  0
 16 17  1  0  0  0
 17 18  1  0  0  0
 18 21  1  0  0  0
 21 22  2  0  0  0
 21 23  1  0  0  0
M  END
> <minimizedAffinity>
-9.36988

$$$$
1A28_STR_A_1


 23 26  0  0  0  0  0  0  0  0999 V2000
   21.8734    9.7348   56.8716 C   0  0  0  0  0  0  0  0  0  0  0  0
   22.1429   10.1242   55.3962 C   0  0  0  0  0  0  0  0  0  0  0  0
   22.3054   11.6374   55.2906 C   0  0  0  0  0  0  0  0  0  0  0  0
   21.9791   12.2144   54.2385 O   0  0  0  0  0  0  0  0  0  0  0  0
   22.9154   12.3828   56.3810 C   0  0  0  0  0  0  0  0  0  0  0  0
   23.2656   11.7961   57.5110 C   0  0  0  0  0  0  0  0  0  0  0  0
   23.9913   12.6203   58.5683 C   0  0  0  0  0  0  0  0  0  0  0  0
   23.4088   12.4088   59.9787 C   0  0  0  0  0  0  0  0  0  0  0  0
   23.2697   10.9147   60.3691 C   0  0  0  0  0  0  0  0  0  0  0  0
   22.3563   10.2141   59.3110 C   0  0  0  0  0  0  0  0  0  0  0  0
   22.9437   10.2840   57.8524 C   0  0  0  0  0  0  0  0  0  0  0  0
   22.0320    8.7549   59.7234 C   0  0  0  0  0  0  0  0  0  0  0  0
   21.4363    8.6678   61.1562 C   0  0  0  0  0  0  0  0  0  0  0  0
   22.3850    9.3050   62.1948 C   0  0  0  0  0  0  0  0  0  0  0  0
   22.5873   10.7965   61.7359 C   0  0  0  0  0  0  0  0  0  0  0  0
   23.2800   11.4765   62.9429 C   0  0  0  0  0  0  0  0  0  0  0  0
   22.5689   10.8017   64.1715 C   0  0  0  0  0  0  0  0  0  0  0  0
   21.7685    9.5757   63.6070 C   0  0  0  0  0  0  0  0  0  0  0  0
   23.7313    8.5126   62.3488 C   0  0  0  0  0  0  0  0  0  0  0  0
   24.3026    9.4981   57.7084 C   0  0  0  0  0  0  0  0  0  0  0  0
   21.7138    8.3505   64.5353 C   0  0  0  0  0  0  0  0  0  0  0  0
   22.6619    8.0768   65.2399 O   0  0  0  0  0  0  0  0  0  0  0  0
   20.4846    7.5107   64.5689 C   0  0  0  0  0  0  0  0  0  0  0  0
  1  2  1  0  0  0
  1 11  1  0  0  0
  2  3  1  0  0  0
  3  4  2  0  0  0
  3  5  1  0  0  0
  5  6  2  0  0  0
  6  7  1  0  0  0
  6 11  1  0  0  0
  7  8  1  0  0  0
  8  9  1  0  0  0
  9 10  1  0  0  0
  9 15  1  0  0  0
 10 11  1  0  0  0
 10 12  1  0  0  0
 11 20  1  0  0  0
 12 13  1  0  0  0
 13 14  1  0  0  0
 14 15  1  0  0  0
 14 18  1  0  0  0
 14 19  1  0  0  0
 15 16  1  0  0  0
 16 17  1  0  0  0
 17 18  1  0  0  0
 18 21  1  0  0  0
 21 22  2  0  0  0
 21 23  1  0  0  0
M  END
> <minimizedAffinity>
-9.16750

$$$$
