4BS0_6NT_A_1305


 13 14  0  0  0  0  0  0  0  0999 V2000
   23.5916   -1.7503  -20.4469 C   0  0  0  0  0  0  0  0  0  0  0  0
   24.6546   -1.3482  -21.2351 C   0  0  0  0  0  0  0  0  0  0  0  0
   24.4058   -0.8313  -22.4497 C   0  0  0  0  0  0  0  0  0  0  0  0
   23.0381   -0.6226  -22.8466 C   0  0  0  0  0  0  0  0  0  0  0  0
   22.4393   -0.1961  -23.9971 N   0  0  0  0  0  0  0  0  0  0  0  0
   22.0209   -1.0805  -22.0205 C   0  0  0  0  0  0  0  0  0  0  0  0
   22.2599   -1.6500  -20.7653 C   0  0  0  0  0  0  0  0  0  0  0  0
   20.8168   -0.8028  -22.6811 N   0  0  0  0  0  0  0  0  0  0  0  0
   21.1021   -0.2852  -23.8556 N   0  0  0  0  0  0  0  0  0  0  0  0
   19.9130   -0.9669  -22.3269 H   0  0  0  0  0  0  0  0  0  0  0  0
   22.9263   -2.7440  -18.3413 O   0  0  0  0  0  0  0  0  0  0  0  0
   23.8795   -2.2215  -19.1212 N   0  0  0  0  0  0  0  0  0  0  0  0
   25.0357   -2.0074  -18.6265 O   0  0  0  0  0  0  0  0  0  0  0  0
 11 12  1  0  0  0
 12 13  2  0  0  0
 12  1  1  0  0  0
  1  2  1  0  0  0
  1  7  2  0  0  0
  2  3  2  0  0  0
  3  4  1  0  0  0
  4  5  1  0  0  0
  4  6  2  0  0  0
  5  9  2  0  0  0
  6  7  1  0  0  0
  6  8  1  0  0  0
  8  9  1  0  0  0
  8 10  1  0  0  0
M  CHG 1  11  -1
M  CHG 1  12   1
M  END
> <minimizedAffinity>
-6.83774

$$$$
4BS0_6NT_A_1305


 13 14  0  0  0  0  0  0  0  0999 V2000
   22.3333   -0.5715  -22.5270 C   0  0  0  0  0  0  0  0  0  0  0  0
   23.6870   -0.3879  -22.7435 C   0  0  0  0  0  0  0  0  0  0  0  0
   24.5588   -0.8159  -21.8156 C   0  0  0  0  0  0  0  0  0  0  0  0
   24.0582   -1.5388  -20.6760 C   0  0  0  0  0  0  0  0  0  0  0  0
   24.6337   -2.0420  -19.5449 N   0  0  0  0  0  0  0  0  0  0  0  0
   22.6858   -1.6571  -20.5048 C   0  0  0  0  0  0  0  0  0  0  0  0
   21.7599   -1.1909  -21.4442 C   0  0  0  0  0  0  0  0  0  0  0  0
   22.4933   -2.3415  -19.2973 N   0  0  0  0  0  0  0  0  0  0  0  0
   23.6706   -2.5475  -18.7493 N   0  0  0  0  0  0  0  0  0  0  0  0
   21.6261   -2.6202  -18.9238 H   0  0  0  0  0  0  0  0  0  0  0  0
   21.5971    0.9557  -24.2559 O   0  0  0  0  0  0  0  0  0  0  0  0
   21.4276   -0.1808  -23.5708 N   0  0  0  0  0  0  0  0  0  0  0  0
   20.3627   -0.8596  -23.7512 O   0  0  0  0  0  0  0  0  0  0  0  0
 11 12  1  0  0  0
 12 13  2  0  0  0
 12  1  1  0  0  0
  1  2  1  0  0  0
  1  7  2  0  0  0
  2  3  2  0  0  0
  3  4  1  0  0  0
  4  5  1  0  0  0
  4  6  2  0  0  0
  5  9  2  0  0  0
  6  7  1  0  0  0
  6  8  1  0  0  0
  8  9  1  0  0  0
  8 10  1  0  0  0
M  CHG 1  11  -1
M  CHG 1  12   1
M  END
> <minimizedAffinity>
-6.43756

$$$$
4BS0_6NT_A_1305


 13 14  0  0  0  0  0  0  0  0999 V2000
   22.5264   -1.0341  -22.3766 C   0  0  0  0  0  0  0  0  0  0  0  0
   21.3295   -1.1830  -21.6995 C   0  0  0  0  0  0  0  0  0  0  0  0
   21.3481   -1.6419  -20.4373 C   0  0  0  0  0  0  0  0  0  0  0  0
   22.6194   -1.8677  -19.8011 C   0  0  0  0  0  0  0  0  0  0  0  0
   22.9974   -2.3785  -18.5927 N   0  0  0  0  0  0  0  0  0  0  0  0
   23.7799   -1.7306  -20.5502 C   0  0  0  0  0  0  0  0  0  0  0  0
   23.7801   -1.2837  -21.8758 C   0  0  0  0  0  0  0  0  0  0  0  0
   24.8428   -2.0701  -19.7025 N   0  0  0  0  0  0  0  0  0  0  0  0
   24.3419   -2.4579  -18.5503 N   0  0  0  0  0  0  0  0  0  0  0  0
   25.7995   -2.0258  -19.9304 H   0  0  0  0  0  0  0  0  0  0  0  0
   21.5521    0.4290  -24.0419 O   0  0  0  0  0  0  0  0  0  0  0  0
   22.4859   -0.4636  -23.6939 N   0  0  0  0  0  0  0  0  0  0  0  0
   23.2682   -0.9228  -24.5908 O   0  0  0  0  0  0  0  0  0  0  0  0
 11 12  1  0  0  0
 12 13  2  0  0  0
 12  1  1  0  0  0
  1  2  1  0  0  0
  1  7  2  0  0  0
  2  3  2  0  0  0
  3  4  1  0  0  0
  4  5  1  0  0  0
  4  6  2  0  0  0
  5  9  2  0  0  0
  6  7  1  0  0  0
  6  8  1  0  0  0
  8  9  1  0  0  0
  8 10  1  0  0  0
M  CHG 1  11  -1
M  CHG 1  12   1
M  END
> <minimizedAffinity>
-6.37353

$$$$
4BS0_6NT_A_1305


 13 14  0  0  0  0  0  0  0  0999 V2000
   23.2781   -1.7632  -20.1679 C   0  0  0  0  0  0  0  0  0  0  0  0
   21.9233   -1.6064  -20.3985 C   0  0  0  0  0  0  0  0  0  0  0  0
   21.5116   -1.2032  -21.6119 C   0  0  0  0  0  0  0  0  0  0  0  0
   22.4883   -1.0447  -22.6573 C   0  0  0  0  0  0  0  0  0  0  0  0
   22.4332   -0.5986  -23.9464 N   0  0  0  0  0  0  0  0  0  0  0  0
   23.8339   -1.1854  -22.3472 C   0  0  0  0  0  0  0  0  0  0  0  0
   24.2853   -1.5745  -21.0816 C   0  0  0  0  0  0  0  0  0  0  0  0
   24.5437   -0.9162  -23.5250 N   0  0  0  0  0  0  0  0  0  0  0  0
   23.6815   -0.5630  -24.4528 N   0  0  0  0  0  0  0  0  0  0  0  0
   25.5195   -0.9803  -23.6383 H   0  0  0  0  0  0  0  0  0  0  0  0
   24.9508   -2.1697  -18.4650 O   0  0  0  0  0  0  0  0  0  0  0  0
   23.6865   -2.2748  -18.8898 N   0  0  0  0  0  0  0  0  0  0  0  0
   22.8601   -2.9679  -18.2086 O   0  0  0  0  0  0  0  0  0  0  0  0
 11 12  1  0  0  0
 12 13  2  0  0  0
 12  1  1  0  0  0
  1  2  1  0  0  0
  1  7  2  0  0  0
  2  3  2  0  0  0
  3  4  1  0  0  0
  4  5  1  0  0  0
  4  6  2  0  0  0
  5  9  2  0  0  0
  6  7  1  0  0  0
  6  8  1  0  0  0
  8  9  1  0  0  0
  8 10  1  0  0  0
M  CHG 1  11  -1
M  CHG 1  12   1
M  END
> <minimizedAffinity>
-6.03174

$$$$
4BS0_6NT_A_1305


 13 14  0  0  0  0  0  0  0  0999 V2000
   23.5428   -2.0022  -20.2187 C   0  0  0  0  0  0  0  0  0  0  0  0
   22.2241   -1.9572  -19.8041 C   0  0  0  0  0  0  0  0  0  0  0  0
   21.2975   -1.4502  -20.6339 C   0  0  0  0  0  0  0  0  0  0  0  0
   21.6946   -1.0639  -21.9624 C   0  0  0  0  0  0  0  0  0  0  0  0
   21.0509   -0.4688  -23.0090 N   0  0  0  0  0  0  0  0  0  0  0  0
   23.0404   -1.1040  -22.3002 C   0  0  0  0  0  0  0  0  0  0  0  0
   24.0254   -1.5994  -21.4393 C   0  0  0  0  0  0  0  0  0  0  0  0
   23.1358   -0.6191  -23.6114 N   0  0  0  0  0  0  0  0  0  0  0  0
   21.9369   -0.2431  -23.9990 N   0  0  0  0  0  0  0  0  0  0  0  0
   23.9586   -0.5687  -24.1497 H   0  0  0  0  0  0  0  0  0  0  0  0
   25.0794   -1.9497  -18.3480 O   0  0  0  0  0  0  0  0  0  0  0  0
   24.4996   -2.6246  -19.3471 N   0  0  0  0  0  0  0  0  0  0  0  0
   24.9095   -3.8016  -19.6189 O   0  0  0  0  0  0  0  0  0  0  0  0
 11 12  1  0  0  0
 12 13  2  0  0  0
 12  1  1  0  0  0
  1  2  1  0  0  0
  1  7  2  0  0  0
  2  3  2  0  0  0
  3  4  1  0  0  0
  4  5  1  0  0  0
  4  6  2  0  0  0
  5  9  2  0  0  0
  6  7  1  0  0  0
  6  8  1  0  0  0
  8  9  1  0  0  0
  8 10  1  0  0  0
M  CHG 1  11  -1
M  CHG 1  12   1
M  END
> <minimizedAffinity>
-5.87704

$$$$
4BS0_6NT_A_1305


 13 14  0  0  0  0  0  0  0  0999 V2000
   23.4492   -1.6516  -20.6017 C   0  0  0  0  0  0  0  0  0  0  0  0
   22.2650   -1.5966  -21.3143 C   0  0  0  0  0  0  0  0  0  0  0  0
   22.1276   -0.6717  -22.2787 C   0  0  0  0  0  0  0  0  0  0  0  0
   23.2542    0.1636  -22.6028 C   0  0  0  0  0  0  0  0  0  0  0  0
   23.4404    1.2171  -23.4509 N   0  0  0  0  0  0  0  0  0  0  0  0
   24.4005    0.0780  -21.8247 C   0  0  0  0  0  0  0  0  0  0  0  0
   24.5522   -0.8573  -20.7955 C   0  0  0  0  0  0  0  0  0  0  0  0
   25.2920    1.0372  -22.3233 N   0  0  0  0  0  0  0  0  0  0  0  0
   24.6867    1.7013  -23.2832 N   0  0  0  0  0  0  0  0  0  0  0  0
   26.2128    1.1878  -22.0092 H   0  0  0  0  0  0  0  0  0  0  0  0
   22.8225   -2.7737  -18.5496 O   0  0  0  0  0  0  0  0  0  0  0  0
   23.6022   -2.7018  -19.6343 N   0  0  0  0  0  0  0  0  0  0  0  0
   24.5927   -3.4990  -19.7387 O   0  0  0  0  0  0  0  0  0  0  0  0
 11 12  1  0  0  0
 12 13  2  0  0  0
 12  1  1  0  0  0
  1  2  1  0  0  0
  1  7  2  0  0  0
  2  3  2  0  0  0
  3  4  1  0  0  0
  4  5  1  0  0  0
  4  6  2  0  0  0
  5  9  2  0  0  0
  6  7  1  0  0  0
  6  8  1  0  0  0
  8  9  1  0  0  0
  8 10  1  0  0  0
M  CHG 1  11  -1
M  CHG 1  12   1
M  END
> <minimizedAffinity>
-4.97543

$$$$
4BS0_6NT_A_1305


 13 14  0  0  0  0  0  0  0  0999 V2000
   24.1566    0.1196  -22.0895 C   0  0  0  0  0  0  0  0  0  0  0  0
   22.9027   -0.1082  -22.6270 C   0  0  0  0  0  0  0  0  0  0  0  0
   22.0991   -1.0134  -22.0447 C   0  0  0  0  0  0  0  0  0  0  0  0
   22.5331   -1.6414  -20.8245 C   0  0  0  0  0  0  0  0  0  0  0  0
   22.0180   -2.6237  -20.0284 N   0  0  0  0  0  0  0  0  0  0  0  0
   23.8170   -1.3917  -20.3596 C   0  0  0  0  0  0  0  0  0  0  0  0
   24.6811   -0.4758  -20.9691 C   0  0  0  0  0  0  0  0  0  0  0  0
   23.9830   -2.1753  -19.2098 N   0  0  0  0  0  0  0  0  0  0  0  0
   22.8985   -2.9007  -19.0466 N   0  0  0  0  0  0  0  0  0  0  0  0
   24.7749   -2.1816  -18.6250 H   0  0  0  0  0  0  0  0  0  0  0  0
   26.2689    1.2589  -22.4112 O   0  0  0  0  0  0  0  0  0  0  0  0
   24.9628    1.1509  -22.6801 N   0  0  0  0  0  0  0  0  0  0  0  0
   24.3933    2.0662  -23.3622 O   0  0  0  0  0  0  0  0  0  0  0  0
 11 12  1  0  0  0
 12 13  2  0  0  0
 12  1  1  0  0  0
  1  2  1  0  0  0
  1  7  2  0  0  0
  2  3  2  0  0  0
  3  4  1  0  0  0
  4  5  1  0  0  0
  4  6  2  0  0  0
  5  9  2  0  0  0
  6  7  1  0  0  0
  6  8  1  0  0  0
  8  9  1  0  0  0
  8 10  1  0  0  0
M  CHG 1  11  -1
M  CHG 1  12   1
M  END
> <minimizedAffinity>
-4.59672

$$$$
4BS0_6NT_A_1305


 13 14  0  0  0  0  0  0  0  0999 V2000
   22.9820   -0.3842  -23.1558 C   0  0  0  0  0  0  0  0  0  0  0  0
   24.0041   -1.1485  -22.6226 C   0  0  0  0  0  0  0  0  0  0  0  0
   25.1225   -0.5363  -22.1998 C   0  0  0  0  0  0  0  0  0  0  0  0
   25.1767    0.9018  -22.2252 C   0  0  0  0  0  0  0  0  0  0  0  0
   26.1482    1.8190  -21.9443 N   0  0  0  0  0  0  0  0  0  0  0  0
   24.1290    1.6040  -22.8048 C   0  0  0  0  0  0  0  0  0  0  0  0
   22.9688    0.9830  -23.2794 C   0  0  0  0  0  0  0  0  0  0  0  0
   24.4787    2.9597  -22.7467 N   0  0  0  0  0  0  0  0  0  0  0  0
   25.6875    3.0510  -22.2375 N   0  0  0  0  0  0  0  0  0  0  0  0
   23.9163    3.7137  -23.0372 H   0  0  0  0  0  0  0  0  0  0  0  0
   21.7728   -2.2875  -24.0382 O   0  0  0  0  0  0  0  0  0  0  0  0
   21.7653   -1.0530  -23.5229 N   0  0  0  0  0  0  0  0  0  0  0  0
   20.6681   -0.4029  -23.4892 O   0  0  0  0  0  0  0  0  0  0  0  0
 11 12  1  0  0  0
 12 13  2  0  0  0
 12  1  1  0  0  0
  1  2  1  0  0  0
  1  7  2  0  0  0
  2  3  2  0  0  0
  3  4  1  0  0  0
  4  5  1  0  0  0
  4  6  2  0  0  0
  5  9  2  0  0  0
  6  7  1  0  0  0
  6  8  1  0  0  0
  8  9  1  0  0  0
  8 10  1  0  0  0
M  CHG 1  11  -1
M  CHG 1  12   1
M  END
> <minimizedAffinity>
-4.14839

$$$$
4BS0_6NT_A_1305


 13 14  0  0  0  0  0  0  0  0999 V2000
   24.8548    1.3679  -22.3285 C   0  0  0  0  0  0  0  0  0  0  0  0
   25.5228    0.1736  -22.1272 C   0  0  0  0  0  0  0  0  0  0  0  0
   24.8847   -0.9805  -22.3820 C   0  0  0  0  0  0  0  0  0  0  0  0
   23.5630   -0.9304  -22.9499 C   0  0  0  0  0  0  0  0  0  0  0  0
   22.6282   -1.8756  -23.2608 N   0  0  0  0  0  0  0  0  0  0  0  0
   22.9394    0.3014  -23.0940 C   0  0  0  0  0  0  0  0  0  0  0  0
   23.5755    1.5134  -22.8051 C   0  0  0  0  0  0  0  0  0  0  0  0
   21.6596    0.0421  -23.6022 N   0  0  0  0  0  0  0  0  0  0  0  0
   21.5049   -1.2612  -23.6813 N   0  0  0  0  0  0  0  0  0  0  0  0
   20.9914    0.7190  -23.8562 H   0  0  0  0  0  0  0  0  0  0  0  0
   25.6349    3.1869  -20.9335 O   0  0  0  0  0  0  0  0  0  0  0  0
   25.5857    2.5878  -22.1287 N   0  0  0  0  0  0  0  0  0  0  0  0
   26.0790    3.1859  -23.1418 O   0  0  0  0  0  0  0  0  0  0  0  0
 11 12  1  0  0  0
 12 13  2  0  0  0
 12  1  1  0  0  0
  1  2  1  0  0  0
  1  7  2  0  0  0
  2  3  2  0  0  0
  3  4  1  0  0  0
  4  5  1  0  0  0
  4  6  2  0  0  0
  5  9  2  0  0  0
  6  7  1  0  0  0
  6  8  1  0  0  0
  8  9  1  0  0  0
  8 10  1  0  0  0
M  CHG 1  11  -1
M  CHG 1  12   1
M  END
> <minimizedAffinity>
-4.08525

$$$$
