1KDK_DHT_A_301


 22 25  0  0  0  0  0  0  0  0999 V2000
   24.2609    9.8059   31.7921 C   0  0  0  0  0  0  0  0  0  0  0  0
   25.7876    9.9742   31.6998 C   0  0  0  0  0  0  0  0  0  0  0  0
   26.2296   11.3950   31.8958 C   0  0  0  0  0  0  0  0  0  0  0  0
   27.0695   11.9711   31.1947 O   0  0  0  0  0  0  0  0  0  0  0  0
   25.5526   12.1647   32.9797 C   0  0  0  0  0  0  0  0  0  0  0  0
   24.0632   11.9313   33.1226 C   0  0  0  0  0  0  0  0  0  0  0  0
   23.4523   12.5934   34.3715 C   0  0  0  0  0  0  0  0  0  0  0  0
   21.9231   12.5712   34.2572 C   0  0  0  0  0  0  0  0  0  0  0  0
   21.4333   11.0914   34.2360 C   0  0  0  0  0  0  0  0  0  0  0  0
   22.0955   10.3723   33.0308 C   0  0  0  0  0  0  0  0  0  0  0  0
   23.6268   10.4460   33.0439 C   0  0  0  0  0  0  0  0  0  0  0  0
   21.5956    8.8941   32.9135 C   0  0  0  0  0  0  0  0  0  0  0  0
   20.0683    8.8083   32.8874 C   0  0  0  0  0  0  0  0  0  0  0  0
   19.4138    9.5771   34.0365 C   0  0  0  0  0  0  0  0  0  0  0  0
   19.9380   11.0315   34.0031 C   0  0  0  0  0  0  0  0  0  0  0  0
   19.0304   11.7590   35.0161 C   0  0  0  0  0  0  0  0  0  0  0  0
   17.6427   11.0939   34.8487 C   0  0  0  0  0  0  0  0  0  0  0  0
   17.9465    9.9126   33.9042 C   0  0  0  0  0  0  0  0  0  0  0  0
   17.0036    8.8368   34.1074 O   0  0  0  0  0  0  0  0  0  0  0  0
   19.7337    8.8310   35.3475 C   0  0  0  0  0  0  0  0  0  0  0  0
   24.2135    9.7264   34.2951 C   0  0  0  0  0  0  0  0  0  0  0  0
   17.0550    8.5311   35.0266 H   0  0  0  0  0  0  0  0  0  0  0  0
  1  2  1  0  0  0
  1 11  1  0  0  0
  2  3  1  0  0  0
  3  4  2  0  0  0
  3  5  1  0  0  0
  5  6  1  0  0  0
  6  7  1  0  0  0
  6 11  1  0  0  0
  7  8  1  0  0  0
  8  9  1  0  0  0
  9 10  1  0  0  0
  9 15  1  0  0  0
 10 11  1  0  0  0
 10 12  1  0  0  0
 11 21  1  0  0  0
 12 13  1  0  0  0
 13 14  1  0  0  0
 14 15  1  0  0  0
 14 18  1  0  0  0
 14 20  1  0  0  0
 15 16  1  0  0  0
 16 17  1  0  0  0
 17 18  1  0  0  0
 18 19  1  0  0  0
 19 22  1  0  0  0
M  END
> <minimizedAffinity>
-12.23333

$$$$
1KDK_DHT_A_301


 22 25  0  0  0  0  0  0  0  0999 V2000
   23.8779   12.9569   33.3387 C   0  0  0  0  0  0  0  0  0  0  0  0
   25.1558   13.2918   32.5496 C   0  0  0  0  0  0  0  0  0  0  0  0
   26.2416   12.2735   32.7404 C   0  0  0  0  0  0  0  0  0  0  0  0
   27.4294   12.5458   32.9495 O   0  0  0  0  0  0  0  0  0  0  0  0
   25.8264   10.8406   32.7323 C   0  0  0  0  0  0  0  0  0  0  0  0
   24.5232   10.5278   33.4375 C   0  0  0  0  0  0  0  0  0  0  0  0
   24.0435    9.0789   33.2325 C   0  0  0  0  0  0  0  0  0  0  0  0
   22.9136    8.7767   34.2244 C   0  0  0  0  0  0  0  0  0  0  0  0
   21.7020    9.7090   33.9191 C   0  0  0  0  0  0  0  0  0  0  0  0
   22.1739   11.1825   34.0396 C   0  0  0  0  0  0  0  0  0  0  0  0
   23.3673   11.5157   33.1366 C   0  0  0  0  0  0  0  0  0  0  0  0
   20.9863   12.1744   33.8064 C   0  0  0  0  0  0  0  0  0  0  0  0
   19.7931   11.8593   34.7106 C   0  0  0  0  0  0  0  0  0  0  0  0
   19.3736   10.3898   34.6443 C   0  0  0  0  0  0  0  0  0  0  0  0
   20.6139    9.5203   34.9555 C   0  0  0  0  0  0  0  0  0  0  0  0
   20.0232    8.1047   35.1173 C   0  0  0  0  0  0  0  0  0  0  0  0
   18.6482    8.3276   35.7924 C   0  0  0  0  0  0  0  0  0  0  0  0
   18.5012    9.8629   35.7598 C   0  0  0  0  0  0  0  0  0  0  0  0
   17.1080   10.2453   35.7436 O   0  0  0  0  0  0  0  0  0  0  0  0
   18.7687   10.1332   33.2493 C   0  0  0  0  0  0  0  0  0  0  0  0
   22.9978   11.3484   31.6323 C   0  0  0  0  0  0  0  0  0  0  0  0
   16.6781    9.8675   34.9604 H   0  0  0  0  0  0  0  0  0  0  0  0
  1  2  1  0  0  0
  1 11  1  0  0  0
  2  3  1  0  0  0
  3  4  2  0  0  0
  3  5  1  0  0  0
  5  6  1  0  0  0
  6  7  1  0  0  0
  6 11  1  0  0  0
  7  8  1  0  0  0
  8  9  1  0  0  0
  9 10  1  0  0  0
  9 15  1  0  0  0
 10 11  1  0  0  0
 10 12  1  0  0  0
 11 21  1  0  0  0
 12 13  1  0  0  0
 13 14  1  0  0  0
 14 15  1  0  0  0
 14 18  1  0  0  0
 14 20  1  0  0  0
 15 16  1  0  0  0
 16 17  1  0  0  0
 17 18  1  0  0  0
 18 19  1  0  0  0
 19 22  1  0  0  0
M  END
> <minimizedAffinity>
-11.45594

$$$$
1KDK_DHT_A_301


 22 25  0  0  0  0  0  0  0  0999 V2000
   20.9747    8.4097   35.0980 C   0  0  0  0  0  0  0  0  0  0  0  0
   19.5628    7.8585   35.3633 C   0  0  0  0  0  0  0  0  0  0  0  0
   18.6188    8.9021   35.8848 C   0  0  0  0  0  0  0  0  0  0  0  0
   17.8395    8.7333   36.8298 O   0  0  0  0  0  0  0  0  0  0  0  0
   18.6841   10.2469   35.2424 C   0  0  0  0  0  0  0  0  0  0  0  0
   20.0721   10.7495   34.9047 C   0  0  0  0  0  0  0  0  0  0  0  0
   20.0733   12.0443   34.0711 C   0  0  0  0  0  0  0  0  0  0  0  0
   21.4892   12.6333   34.0560 C   0  0  0  0  0  0  0  0  0  0  0  0
   22.4523   11.6316   33.3495 C   0  0  0  0  0  0  0  0  0  0  0  0
   22.4136   10.2859   34.1215 C   0  0  0  0  0  0  0  0  0  0  0  0
   21.0036    9.6977   34.2500 C   0  0  0  0  0  0  0  0  0  0  0  0
   23.4098    9.2517   33.4998 C   0  0  0  0  0  0  0  0  0  0  0  0
   24.8236    9.8232   33.3773 C   0  0  0  0  0  0  0  0  0  0  0  0
   24.8523   11.1837   32.6786 C   0  0  0  0  0  0  0  0  0  0  0  0
   23.8811   12.1284   33.4238 C   0  0  0  0  0  0  0  0  0  0  0  0
   24.1871   13.5092   32.8082 C   0  0  0  0  0  0  0  0  0  0  0  0
   25.7132   13.4943   32.5493 C   0  0  0  0  0  0  0  0  0  0  0  0
   26.0924   12.0297   32.8508 C   0  0  0  0  0  0  0  0  0  0  0  0
   27.2659   11.6387   32.1041 O   0  0  0  0  0  0  0  0  0  0  0  0
   24.4892   10.9618   31.1965 C   0  0  0  0  0  0  0  0  0  0  0  0
   20.4060    9.3598   32.8513 C   0  0  0  0  0  0  0  0  0  0  0  0
   27.0914   11.7336   31.1546 H   0  0  0  0  0  0  0  0  0  0  0  0
  1  2  1  0  0  0
  1 11  1  0  0  0
  2  3  1  0  0  0
  3  4  2  0  0  0
  3  5  1  0  0  0
  5  6  1  0  0  0
  6  7  1  0  0  0
  6 11  1  0  0  0
  7  8  1  0  0  0
  8  9  1  0  0  0
  9 10  1  0  0  0
  9 15  1  0  0  0
 10 11  1  0  0  0
 10 12  1  0  0  0
 11 21  1  0  0  0
 12 13  1  0  0  0
 13 14  1  0  0  0
 14 15  1  0  0  0
 14 18  1  0  0  0
 14 20  1  0  0  0
 15 16  1  0  0  0
 16 17  1  0  0  0
 17 18  1  0  0  0
 18 19  1  0  0  0
 19 22  1  0  0  0
M  END
> <minimizedAffinity>
-11.41894

$$$$
1KDK_DHT_A_301


 22 25  0  0  0  0  0  0  0  0999 V2000
   20.3069    9.6597   35.6926 C   0  0  0  0  0  0  0  0  0  0  0  0
   19.0077    9.0788   36.2777 C   0  0  0  0  0  0  0  0  0  0  0  0
   17.8150    9.3189   35.3990 C   0  0  0  0  0  0  0  0  0  0  0  0
   16.7126    9.7061   35.8035 O   0  0  0  0  0  0  0  0  0  0  0  0
   18.0127    9.1280   33.9327 C   0  0  0  0  0  0  0  0  0  0  0  0
   19.3301    9.6247   33.3749 C   0  0  0  0  0  0  0  0  0  0  0  0
   19.5658    9.2295   31.9054 C   0  0  0  0  0  0  0  0  0  0  0  0
   20.7483   10.0329   31.3504 C   0  0  0  0  0  0  0  0  0  0  0  0
   22.0385    9.6555   32.1398 C   0  0  0  0  0  0  0  0  0  0  0  0
   21.8042    9.9685   33.6417 C   0  0  0  0  0  0  0  0  0  0  0  0
   20.5743    9.2639   34.2261 C   0  0  0  0  0  0  0  0  0  0  0  0
   23.0881    9.6707   34.4853 C   0  0  0  0  0  0  0  0  0  0  0  0
   24.3205   10.3782   33.9187 C   0  0  0  0  0  0  0  0  0  0  0  0
   24.5103   10.1259   32.4219 C   0  0  0  0  0  0  0  0  0  0  0  0
   23.2018   10.5185   31.6976 C   0  0  0  0  0  0  0  0  0  0  0  0
   23.5944   10.4738   30.2066 C   0  0  0  0  0  0  0  0  0  0  0  0
   25.0571   10.9793   30.1703 C   0  0  0  0  0  0  0  0  0  0  0  0
   25.4217   11.0652   31.6668 C   0  0  0  0  0  0  0  0  0  0  0  0
   26.8441   10.9001   31.8593 O   0  0  0  0  0  0  0  0  0  0  0  0
   24.9029    8.6461   32.2378 C   0  0  0  0  0  0  0  0  0  0  0  0
   20.7358    7.7152   34.1732 C   0  0  0  0  0  0  0  0  0  0  0  0
   27.1190   10.0365   31.5135 H   0  0  0  0  0  0  0  0  0  0  0  0
  1  2  1  0  0  0
  1 11  1  0  0  0
  2  3  1  0  0  0
  3  4  2  0  0  0
  3  5  1  0  0  0
  5  6  1  0  0  0
  6  7  1  0  0  0
  6 11  1  0  0  0
  7  8  1  0  0  0
  8  9  1  0  0  0
  9 10  1  0  0  0
  9 15  1  0  0  0
 10 11  1  0  0  0
 10 12  1  0  0  0
 11 21  1  0  0  0
 12 13  1  0  0  0
 13 14  1  0  0  0
 14 15  1  0  0  0
 14 18  1  0  0  0
 14 20  1  0  0  0
 15 16  1  0  0  0
 16 17  1  0  0  0
 17 18  1  0  0  0
 18 19  1  0  0  0
 19 22  1  0  0  0
M  END
> <minimizedAffinity>
-10.09873

$$$$
1KDK_DHT_A_301


 22 25  0  0  0  0  0  0  0  0999 V2000
   19.1180   10.9998   34.1614 C   0  0  0  0  0  0  0  0  0  0  0  0
   17.9187   10.1242   34.5648 C   0  0  0  0  0  0  0  0  0  0  0  0
   17.6139    9.0544   33.5573 C   0  0  0  0  0  0  0  0  0  0  0  0
   16.4792    8.7737   33.1541 O   0  0  0  0  0  0  0  0  0  0  0  0
   18.7807    8.3329   32.9712 C   0  0  0  0  0  0  0  0  0  0  0  0
   19.9916    9.1852   32.6544 C   0  0  0  0  0  0  0  0  0  0  0  0
   21.2291    8.3683   32.2388 C   0  0  0  0  0  0  0  0  0  0  0  0
   22.2799    9.3128   31.6424 C   0  0  0  0  0  0  0  0  0  0  0  0
   22.7421   10.3208   32.7381 C   0  0  0  0  0  0  0  0  0  0  0  0
   21.5006   11.1074   33.2365 C   0  0  0  0  0  0  0  0  0  0  0  0
   20.3762   10.2045   33.7570 C   0  0  0  0  0  0  0  0  0  0  0  0
   21.9055   12.1848   34.2966 C   0  0  0  0  0  0  0  0  0  0  0  0
   23.0192   13.0999   33.7841 C   0  0  0  0  0  0  0  0  0  0  0  0
   24.2134   12.3225   33.2277 C   0  0  0  0  0  0  0  0  0  0  0  0
   23.6912   11.3441   32.1500 C   0  0  0  0  0  0  0  0  0  0  0  0
   24.9834   10.8198   31.4909 C   0  0  0  0  0  0  0  0  0  0  0  0
   25.9447   12.0332   31.4910 C   0  0  0  0  0  0  0  0  0  0  0  0
   25.1786   13.0705   32.3378 C   0  0  0  0  0  0  0  0  0  0  0  0
   26.0936   13.9856   32.9804 O   0  0  0  0  0  0  0  0  0  0  0  0
   24.9173   11.6269   34.4102 C   0  0  0  0  0  0  0  0  0  0  0  0
   20.8415    9.3866   34.9988 C   0  0  0  0  0  0  0  0  0  0  0  0
   26.6974   13.4891   33.5547 H   0  0  0  0  0  0  0  0  0  0  0  0
  1  2  1  0  0  0
  1 11  1  0  0  0
  2  3  1  0  0  0
  3  4  2  0  0  0
  3  5  1  0  0  0
  5  6  1  0  0  0
  6  7  1  0  0  0
  6 11  1  0  0  0
  7  8  1  0  0  0
  8  9  1  0  0  0
  9 10  1  0  0  0
  9 15  1  0  0  0
 10 11  1  0  0  0
 10 12  1  0  0  0
 11 21  1  0  0  0
 12 13  1  0  0  0
 13 14  1  0  0  0
 14 15  1  0  0  0
 14 18  1  0  0  0
 14 20  1  0  0  0
 15 16  1  0  0  0
 16 17  1  0  0  0
 17 18  1  0  0  0
 18 19  1  0  0  0
 19 22  1  0  0  0
M  END
> <minimizedAffinity>
-9.94480

$$$$
1KDK_DHT_A_301


 22 25  0  0  0  0  0  0  0  0999 V2000
   24.4475   11.3196   33.9200 C   0  0  0  0  0  0  0  0  0  0  0  0
   25.7331   12.0695   33.5295 C   0  0  0  0  0  0  0  0  0  0  0  0
   26.2010   11.7396   32.1422 C   0  0  0  0  0  0  0  0  0  0  0  0
   27.3741   11.4952   31.8374 O   0  0  0  0  0  0  0  0  0  0  0  0
   25.1526   11.6475   31.0849 C   0  0  0  0  0  0  0  0  0  0  0  0
   23.8555   10.9843   31.4985 C   0  0  0  0  0  0  0  0  0  0  0  0
   22.7435   11.0900   30.4385 C   0  0  0  0  0  0  0  0  0  0  0  0
   21.6027   10.1337   30.8072 C   0  0  0  0  0  0  0  0  0  0  0  0
   20.9837   10.5766   32.1677 C   0  0  0  0  0  0  0  0  0  0  0  0
   22.1008   10.5574   33.2447 C   0  0  0  0  0  0  0  0  0  0  0  0
   23.3119   11.4246   32.8816 C   0  0  0  0  0  0  0  0  0  0  0  0
   21.5311   10.9323   34.6531 C   0  0  0  0  0  0  0  0  0  0  0  0
   20.3289   10.0653   35.0320 C   0  0  0  0  0  0  0  0  0  0  0  0
   19.2594   10.0283   33.9389 C   0  0  0  0  0  0  0  0  0  0  0  0
   19.9336    9.5835   32.6203 C   0  0  0  0  0  0  0  0  0  0  0  0
   18.7386    9.3325   31.6779 C   0  0  0  0  0  0  0  0  0  0  0  0
   17.6340    8.7479   32.5914 C   0  0  0  0  0  0  0  0  0  0  0  0
   18.2373    8.9172   34.0011 C   0  0  0  0  0  0  0  0  0  0  0  0
   17.1953    9.0350   34.9950 O   0  0  0  0  0  0  0  0  0  0  0  0
   18.6103   11.4251   33.8649 C   0  0  0  0  0  0  0  0  0  0  0  0
   22.9128   12.9260   32.7634 C   0  0  0  0  0  0  0  0  0  0  0  0
   16.6401    9.8040   34.7918 H   0  0  0  0  0  0  0  0  0  0  0  0
  1  2  1  0  0  0
  1 11  1  0  0  0
  2  3  1  0  0  0
  3  4  2  0  0  0
  3  5  1  0  0  0
  5  6  1  0  0  0
  6  7  1  0  0  0
  6 11  1  0  0  0
  7  8  1  0  0  0
  8  9  1  0  0  0
  9 10  1  0  0  0
  9 15  1  0  0  0
 10 11  1  0  0  0
 10 12  1  0  0  0
 11 21  1  0  0  0
 12 13  1  0  0  0
 13 14  1  0  0  0
 14 15  1  0  0  0
 14 18  1  0  0  0
 14 20  1  0  0  0
 15 16  1  0  0  0
 16 17  1  0  0  0
 17 18  1  0  0  0
 18 19  1  0  0  0
 19 22  1  0  0  0
M  END
> <minimizedAffinity>
-9.25303

$$$$
