1P19_IMP_A_1300


 28 30  0  0  0  0  0  0  0  0999 V2000
   70.3789   39.1082   32.3849 C   0  0  0  0  0  0  0  0  0  0  0  0
   70.7736   40.5021   32.2011 O   0  0  0  0  0  0  0  0  0  0  0  0
   71.4613   38.3228   31.6430 C   0  0  0  0  0  0  0  0  0  0  0  0
   71.0847   37.0313   31.2371 O   0  0  0  0  0  0  0  0  0  0  0  0
   71.7912   39.2059   30.4546 C   0  0  0  0  0  0  0  0  0  0  0  0
   70.8731   39.1218   29.3691 O   0  0  0  0  0  0  0  0  0  0  0  0
   71.7600   40.5782   31.1723 C   0  0  0  0  0  0  0  0  0  0  0  0
   70.3240   37.0896   30.6382 H   0  0  0  0  0  0  0  0  0  0  0  0
   69.9800   39.3322   29.6840 H   0  0  0  0  0  0  0  0  0  0  0  0
   73.0506   40.7719   31.8656 N   0  0  0  0  0  0  0  0  0  0  0  0
   73.3849   40.7440   33.2007 C   0  0  0  0  0  0  0  0  0  0  0  0
   74.6452   40.9671   33.3883 N   0  0  0  0  0  0  0  0  0  0  0  0
   75.1742   41.1504   32.1379 C   0  0  0  0  0  0  0  0  0  0  0  0
   76.5052   41.4278   31.7059 C   0  0  0  0  0  0  0  0  0  0  0  0
   77.5070   41.5685   32.3919 O   0  0  0  0  0  0  0  0  0  0  0  0
   76.6342   41.5464   30.3030 N   0  0  0  0  0  0  0  0  0  0  0  0
   75.5510   41.4015   29.4457 C   0  0  0  0  0  0  0  0  0  0  0  0
   74.3003   41.1391   29.8625 N   0  0  0  0  0  0  0  0  0  0  0  0
   74.1936   41.0315   31.1828 C   0  0  0  0  0  0  0  0  0  0  0  0
   77.5212   41.7380   29.9211 H   0  0  0  0  0  0  0  0  0  0  0  0
   70.1698   39.0580   33.8887 C   0  0  0  0  0  0  0  0  0  0  0  0
   68.9859   38.4132   34.4015 O   0  0  0  0  0  0  0  0  0  0  0  0
   69.0450   37.8150   35.9292 P   0  0  0  0  0  0  0  0  0  0  0  0
   68.0243   38.4537   36.8164 O   0  0  0  0  0  0  0  0  0  0  0  0
   70.4214   38.0684   36.4854 O   0  0  0  0  0  0  0  0  0  0  0  0
   68.8111   36.2868   35.7863 O   0  0  0  0  0  0  0  0  0  0  0  0
   70.4739   37.7205   37.3894 H   0  0  0  0  0  0  0  0  0  0  0  0
   68.8349   35.8727   36.6631 H   0  0  0  0  0  0  0  0  0  0  0  0
 23 24  2  0  0  0
 23 25  1  0  0  0
 23 26  1  0  0  0
 23 22  1  0  0  0
 22 21  1  0  0  0
 21  1  1  0  0  0
  1  2  1  0  0  0
  1  3  1  0  0  0
  2  7  1  0  0  0
  3  4  1  0  0  0
  3  5  1  0  0  0
  5  6  1  0  0  0
  5  7  1  0  0  0
  7 10  1  0  0  0
 10 11  1  0  0  0
 10 19  1  0  0  0
 11 12  2  0  0  0
 12 13  1  0  0  0
 13 14  1  0  0  0
 13 19  2  0  0  0
 14 15  2  0  0  0
 14 16  1  0  0  0
 16 17  1  0  0  0
 17 18  2  0  0  0
 18 19  1  0  0  0
 25 27  1  0  0  0
 26 28  1  0  0  0
  4  8  1  0  0  0
  6  9  1  0  0  0
 16 20  1  0  0  0
M  END
> <minimizedAffinity>
-8.77503

$$$$
1P19_IMP_A_1300


 28 30  0  0  0  0  0  0  0  0999 V2000
   67.0151   37.5563   29.6180 C   0  0  0  0  0  0  0  0  0  0  0  0
   67.8912   38.6709   29.9686 O   0  0  0  0  0  0  0  0  0  0  0  0
   66.5930   37.8637   28.1806 C   0  0  0  0  0  0  0  0  0  0  0  0
   65.3970   37.2516   27.7694 O   0  0  0  0  0  0  0  0  0  0  0  0
   66.4810   39.3763   28.1577 C   0  0  0  0  0  0  0  0  0  0  0  0
   65.2761   39.8988   28.7085 O   0  0  0  0  0  0  0  0  0  0  0  0
   67.7329   39.7124   29.0057 C   0  0  0  0  0  0  0  0  0  0  0  0
   64.6704   37.5451   28.3411 H   0  0  0  0  0  0  0  0  0  0  0  0
   65.1753   39.5858   29.6211 H   0  0  0  0  0  0  0  0  0  0  0  0
   68.9225   39.6372   28.1322 N   0  0  0  0  0  0  0  0  0  0  0  0
   69.0486   39.5458   26.7644 C   0  0  0  0  0  0  0  0  0  0  0  0
   70.2876   39.5021   26.3950 N   0  0  0  0  0  0  0  0  0  0  0  0
   71.0169   39.5666   27.5530 C   0  0  0  0  0  0  0  0  0  0  0  0
   72.4244   39.5604   27.7851 C   0  0  0  0  0  0  0  0  0  0  0  0
   73.3246   39.4925   26.9612 O   0  0  0  0  0  0  0  0  0  0  0  0
   72.7752   39.6448   29.1522 N   0  0  0  0  0  0  0  0  0  0  0  0
   71.8200   39.7259   30.1573 C   0  0  0  0  0  0  0  0  0  0  0  0
   70.4954   39.7321   29.9283 N   0  0  0  0  0  0  0  0  0  0  0  0
   70.1803   39.6510   28.6397 C   0  0  0  0  0  0  0  0  0  0  0  0
   73.7280   39.6461   29.3999 H   0  0  0  0  0  0  0  0  0  0  0  0
   67.8752   36.3697   30.0179 C   0  0  0  0  0  0  0  0  0  0  0  0
   68.3793   35.5005   28.9831 O   0  0  0  0  0  0  0  0  0  0  0  0
   69.9421   35.6943   28.5195 P   0  0  0  0  0  0  0  0  0  0  0  0
   70.0466   36.2390   27.1304 O   0  0  0  0  0  0  0  0  0  0  0  0
   70.6266   34.3544   28.5852 O   0  0  0  0  0  0  0  0  0  0  0  0
   70.5697   36.6548   29.5654 O   0  0  0  0  0  0  0  0  0  0  0  0
   71.5528   34.4509   28.3138 H   0  0  0  0  0  0  0  0  0  0  0  0
   71.5013   36.8097   29.3441 H   0  0  0  0  0  0  0  0  0  0  0  0
 23 24  2  0  0  0
 23 25  1  0  0  0
 23 26  1  0  0  0
 23 22  1  0  0  0
 22 21  1  0  0  0
 21  1  1  0  0  0
  1  2  1  0  0  0
  1  3  1  0  0  0
  2  7  1  0  0  0
  3  4  1  0  0  0
  3  5  1  0  0  0
  5  6  1  0  0  0
  5  7  1  0  0  0
  7 10  1  0  0  0
 10 11  1  0  0  0
 10 19  1  0  0  0
 11 12  2  0  0  0
 12 13  1  0  0  0
 13 14  1  0  0  0
 13 19  2  0  0  0
 14 15  2  0  0  0
 14 16  1  0  0  0
 16 17  1  0  0  0
 17 18  2  0  0  0
 18 19  1  0  0  0
 25 27  1  0  0  0
 26 28  1  0  0  0
  4  8  1  0  0  0
  6  9  1  0  0  0
 16 20  1  0  0  0
M  END
> <minimizedAffinity>
-8.20699

$$$$
1P19_IMP_A_1300


 28 30  0  0  0  0  0  0  0  0999 V2000
   70.1891   40.2422   34.1583 C   0  0  0  0  0  0  0  0  0  0  0  0
   71.3311   39.4157   33.7769 O   0  0  0  0  0  0  0  0  0  0  0  0
   70.3733   41.5187   33.3365 C   0  0  0  0  0  0  0  0  0  0  0  0
   69.7262   42.6547   33.8514 O   0  0  0  0  0  0  0  0  0  0  0  0
   71.8784   41.7044   33.2990 C   0  0  0  0  0  0  0  0  0  0  0  0
   72.4429   42.2820   34.4720 O   0  0  0  0  0  0  0  0  0  0  0  0
   72.2875   40.2247   33.0927 C   0  0  0  0  0  0  0  0  0  0  0  0
   70.0653   42.8450   34.7401 H   0  0  0  0  0  0  0  0  0  0  0  0
   72.2077   41.7428   35.2433 H   0  0  0  0  0  0  0  0  0  0  0  0
   72.1415   39.8954   31.6595 N   0  0  0  0  0  0  0  0  0  0  0  0
   71.1967   39.1582   30.9820 C   0  0  0  0  0  0  0  0  0  0  0  0
   71.4388   39.1122   29.7121 N   0  0  0  0  0  0  0  0  0  0  0  0
   72.5837   39.8427   29.5314 C   0  0  0  0  0  0  0  0  0  0  0  0
   73.3334   40.1501   28.3573 C   0  0  0  0  0  0  0  0  0  0  0  0
   73.1043   39.8108   27.2057 O   0  0  0  0  0  0  0  0  0  0  0  0
   74.4742   40.9478   28.6043 N   0  0  0  0  0  0  0  0  0  0  0  0
   74.8124   41.3803   29.8802 C   0  0  0  0  0  0  0  0  0  0  0  0
   74.0986   41.0861   30.9806 N   0  0  0  0  0  0  0  0  0  0  0  0
   73.0304   40.3350   30.7340 C   0  0  0  0  0  0  0  0  0  0  0  0
   75.0480   41.2054   27.8468 H   0  0  0  0  0  0  0  0  0  0  0  0
   69.0422   39.2645   33.9674 C   0  0  0  0  0  0  0  0  0  0  0  0
   69.2584   37.8740   34.2837 O   0  0  0  0  0  0  0  0  0  0  0  0
   69.1811   37.4306   35.8625 P   0  0  0  0  0  0  0  0  0  0  0  0
   68.8092   35.9903   36.0181 O   0  0  0  0  0  0  0  0  0  0  0  0
   68.1520   38.2908   36.5475 O   0  0  0  0  0  0  0  0  0  0  0  0
   70.5876   37.7305   36.4476 O   0  0  0  0  0  0  0  0  0  0  0  0
   68.0934   38.0416   37.4831 H   0  0  0  0  0  0  0  0  0  0  0  0
   70.6058   37.4876   37.3865 H   0  0  0  0  0  0  0  0  0  0  0  0
 23 24  2  0  0  0
 23 25  1  0  0  0
 23 26  1  0  0  0
 23 22  1  0  0  0
 22 21  1  0  0  0
 21  1  1  0  0  0
  1  2  1  0  0  0
  1  3  1  0  0  0
  2  7  1  0  0  0
  3  4  1  0  0  0
  3  5  1  0  0  0
  5  6  1  0  0  0
  5  7  1  0  0  0
  7 10  1  0  0  0
 10 11  1  0  0  0
 10 19  1  0  0  0
 11 12  2  0  0  0
 12 13  1  0  0  0
 13 14  1  0  0  0
 13 19  2  0  0  0
 14 15  2  0  0  0
 14 16  1  0  0  0
 16 17  1  0  0  0
 17 18  2  0  0  0
 18 19  1  0  0  0
 25 27  1  0  0  0
 26 28  1  0  0  0
  4  8  1  0  0  0
  6  9  1  0  0  0
 16 20  1  0  0  0
M  END
> <minimizedAffinity>
-8.08167

$$$$
1P19_IMP_A_1300


 28 30  0  0  0  0  0  0  0  0999 V2000
   70.2129   37.9771   27.8793 C   0  0  0  0  0  0  0  0  0  0  0  0
   70.6645   37.5877   29.2124 O   0  0  0  0  0  0  0  0  0  0  0  0
   68.8400   37.3154   27.7526 C   0  0  0  0  0  0  0  0  0  0  0  0
   68.4011   37.1064   26.4343 O   0  0  0  0  0  0  0  0  0  0  0  0
   69.0056   36.0051   28.4987 C   0  0  0  0  0  0  0  0  0  0  0  0
   69.6594   34.9738   27.7659 O   0  0  0  0  0  0  0  0  0  0  0  0
   69.8420   36.5253   29.6942 C   0  0  0  0  0  0  0  0  0  0  0  0
   69.0304   36.5314   25.9714 H   0  0  0  0  0  0  0  0  0  0  0  0
   70.5301   35.2865   27.4744 H   0  0  0  0  0  0  0  0  0  0  0  0
   68.9230   37.1406   30.6744 N   0  0  0  0  0  0  0  0  0  0  0  0
   67.5583   37.3210   30.6608 C   0  0  0  0  0  0  0  0  0  0  0  0
   67.1383   37.9136   31.7311 N   0  0  0  0  0  0  0  0  0  0  0  0
   68.2580   38.1383   32.4881 C   0  0  0  0  0  0  0  0  0  0  0  0
   68.4285   38.7521   33.7645 C   0  0  0  0  0  0  0  0  0  0  0  0
   67.5712   39.2327   34.4911 O   0  0  0  0  0  0  0  0  0  0  0  0
   69.7721   38.7867   34.2033 N   0  0  0  0  0  0  0  0  0  0  0  0
   70.8118   38.2644   33.4446 C   0  0  0  0  0  0  0  0  0  0  0  0
   70.6407   37.6868   32.2430 N   0  0  0  0  0  0  0  0  0  0  0  0
   69.3737   37.6624   31.8426 C   0  0  0  0  0  0  0  0  0  0  0  0
   69.9775   39.1944   35.0755 H   0  0  0  0  0  0  0  0  0  0  0  0
   70.4337   39.4795   27.9217 C   0  0  0  0  0  0  0  0  0  0  0  0
   71.4850   40.0010   28.7602 O   0  0  0  0  0  0  0  0  0  0  0  0
   72.9916   40.1063   28.1167 P   0  0  0  0  0  0  0  0  0  0  0  0
   73.0950   39.3688   26.8196 O   0  0  0  0  0  0  0  0  0  0  0  0
   73.9707   39.5258   29.1028 O   0  0  0  0  0  0  0  0  0  0  0  0
   73.2632   41.6248   27.9411 O   0  0  0  0  0  0  0  0  0  0  0  0
   74.8678   39.5801   28.7378 H   0  0  0  0  0  0  0  0  0  0  0  0
   74.1464   41.7535   27.5613 H   0  0  0  0  0  0  0  0  0  0  0  0
 23 24  2  0  0  0
 23 25  1  0  0  0
 23 26  1  0  0  0
 23 22  1  0  0  0
 22 21  1  0  0  0
 21  1  1  0  0  0
  1  2  1  0  0  0
  1  3  1  0  0  0
  2  7  1  0  0  0
  3  4  1  0  0  0
  3  5  1  0  0  0
  5  6  1  0  0  0
  5  7  1  0  0  0
  7 10  1  0  0  0
 10 11  1  0  0  0
 10 19  1  0  0  0
 11 12  2  0  0  0
 12 13  1  0  0  0
 13 14  1  0  0  0
 13 19  2  0  0  0
 14 15  2  0  0  0
 14 16  1  0  0  0
 16 17  1  0  0  0
 17 18  2  0  0  0
 18 19  1  0  0  0
 25 27  1  0  0  0
 26 28  1  0  0  0
  4  8  1  0  0  0
  6  9  1  0  0  0
 16 20  1  0  0  0
M  END
> <minimizedAffinity>
-8.07245

$$$$
1P19_IMP_A_1300


 28 30  0  0  0  0  0  0  0  0999 V2000
   70.9465   39.4340   29.5667 C   0  0  0  0  0  0  0  0  0  0  0  0
   69.6692   39.7974   30.1742 O   0  0  0  0  0  0  0  0  0  0  0  0
   71.9005   39.3344   30.7578 C   0  0  0  0  0  0  0  0  0  0  0  0
   73.2613   39.4867   30.4427 O   0  0  0  0  0  0  0  0  0  0  0  0
   71.4195   40.4282   31.6923 C   0  0  0  0  0  0  0  0  0  0  0  0
   71.8514   41.7422   31.3533 O   0  0  0  0  0  0  0  0  0  0  0  0
   69.8938   40.2257   31.5171 C   0  0  0  0  0  0  0  0  0  0  0  0
   73.4052   40.3591   30.0438 H   0  0  0  0  0  0  0  0  0  0  0  0
   71.5721   41.9510   30.4482 H   0  0  0  0  0  0  0  0  0  0  0  0
   69.4708   39.0992   32.3749 N   0  0  0  0  0  0  0  0  0  0  0  0
   69.0411   37.8276   32.0689 C   0  0  0  0  0  0  0  0  0  0  0  0
   68.7629   37.1428   33.1305 N   0  0  0  0  0  0  0  0  0  0  0  0
   69.0144   37.9823   34.1836 C   0  0  0  0  0  0  0  0  0  0  0  0
   68.8957   37.7930   35.5925 C   0  0  0  0  0  0  0  0  0  0  0  0
   68.5261   36.7934   36.1909 O   0  0  0  0  0  0  0  0  0  0  0  0
   69.2615   38.9286   36.3512 N   0  0  0  0  0  0  0  0  0  0  0  0
   69.6937   40.1073   35.7570 C   0  0  0  0  0  0  0  0  0  0  0  0
   69.8031   40.2756   34.4278 N   0  0  0  0  0  0  0  0  0  0  0  0
   69.4550   39.2012   33.7274 C   0  0  0  0  0  0  0  0  0  0  0  0
   69.2081   38.8824   37.3331 H   0  0  0  0  0  0  0  0  0  0  0  0
   70.5358   38.2535   28.7033 C   0  0  0  0  0  0  0  0  0  0  0  0
   70.7167   36.9202   29.2229 O   0  0  0  0  0  0  0  0  0  0  0  0
   69.8022   35.7198   28.5765 P   0  0  0  0  0  0  0  0  0  0  0  0
   68.5323   35.5157   29.3399 O   0  0  0  0  0  0  0  0  0  0  0  0
   70.6075   34.4473   28.5941 O   0  0  0  0  0  0  0  0  0  0  0  0
   69.5316   36.1481   27.1089 O   0  0  0  0  0  0  0  0  0  0  0  0
   70.0811   33.7262   28.2149 H   0  0  0  0  0  0  0  0  0  0  0  0
   68.9908   35.4732   26.6697 H   0  0  0  0  0  0  0  0  0  0  0  0
 23 24  2  0  0  0
 23 25  1  0  0  0
 23 26  1  0  0  0
 23 22  1  0  0  0
 22 21  1  0  0  0
 21  1  1  0  0  0
  1  2  1  0  0  0
  1  3  1  0  0  0
  2  7  1  0  0  0
  3  4  1  0  0  0
  3  5  1  0  0  0
  5  6  1  0  0  0
  5  7  1  0  0  0
  7 10  1  0  0  0
 10 11  1  0  0  0
 10 19  1  0  0  0
 11 12  2  0  0  0
 12 13  1  0  0  0
 13 14  1  0  0  0
 13 19  2  0  0  0
 14 15  2  0  0  0
 14 16  1  0  0  0
 16 17  1  0  0  0
 17 18  2  0  0  0
 18 19  1  0  0  0
 25 27  1  0  0  0
 26 28  1  0  0  0
  4  8  1  0  0  0
  6  9  1  0  0  0
 16 20  1  0  0  0
M  END
> <minimizedAffinity>
-7.98934

$$$$
1P19_IMP_A_1300


 28 30  0  0  0  0  0  0  0  0999 V2000
   70.5511   39.3306   27.4200 C   0  0  0  0  0  0  0  0  0  0  0  0
   69.7858   39.9221   28.5141 O   0  0  0  0  0  0  0  0  0  0  0  0
   71.9991   39.4062   27.9063 C   0  0  0  0  0  0  0  0  0  0  0  0
   72.9691   39.3720   26.8904 O   0  0  0  0  0  0  0  0  0  0  0  0
   72.0478   40.7107   28.6790 C   0  0  0  0  0  0  0  0  0  0  0  0
   72.1715   41.8810   27.8769 O   0  0  0  0  0  0  0  0  0  0  0  0
   70.6778   40.6058   29.3940 C   0  0  0  0  0  0  0  0  0  0  0  0
   72.8374   40.1241   26.2921 H   0  0  0  0  0  0  0  0  0  0  0  0
   71.4406   41.9152   27.2401 H   0  0  0  0  0  0  0  0  0  0  0  0
   70.8322   39.7278   30.5726 N   0  0  0  0  0  0  0  0  0  0  0  0
   71.9458   39.1663   31.1553 C   0  0  0  0  0  0  0  0  0  0  0  0
   71.6416   38.4497   32.1884 N   0  0  0  0  0  0  0  0  0  0  0  0
   70.2789   38.5333   32.3030 C   0  0  0  0  0  0  0  0  0  0  0  0
   69.3725   37.9594   33.2432 C   0  0  0  0  0  0  0  0  0  0  0  0
   69.6295   37.2349   34.1934 O   0  0  0  0  0  0  0  0  0  0  0  0
   68.0200   38.2975   33.0077 N   0  0  0  0  0  0  0  0  0  0  0  0
   67.6347   39.1148   31.9528 C   0  0  0  0  0  0  0  0  0  0  0  0
   68.4969   39.6518   31.0724 N   0  0  0  0  0  0  0  0  0  0  0  0
   69.7638   39.3248   31.3049 C   0  0  0  0  0  0  0  0  0  0  0  0
   67.3284   37.9418   33.6114 H   0  0  0  0  0  0  0  0  0  0  0  0
   69.7934   38.0326   27.1997 C   0  0  0  0  0  0  0  0  0  0  0  0
   70.5063   36.7851   27.3262 O   0  0  0  0  0  0  0  0  0  0  0  0
   70.0260   35.7492   28.5058 P   0  0  0  0  0  0  0  0  0  0  0  0
   70.3226   36.2845   29.8706 O   0  0  0  0  0  0  0  0  0  0  0  0
   70.7481   34.4418   28.3125 O   0  0  0  0  0  0  0  0  0  0  0  0
   68.5032   35.5442   28.2839 O   0  0  0  0  0  0  0  0  0  0  0  0
   70.4755   33.8168   29.0024 H   0  0  0  0  0  0  0  0  0  0  0  0
   68.1575   34.9361   28.9560 H   0  0  0  0  0  0  0  0  0  0  0  0
 23 24  2  0  0  0
 23 25  1  0  0  0
 23 26  1  0  0  0
 23 22  1  0  0  0
 22 21  1  0  0  0
 21  1  1  0  0  0
  1  2  1  0  0  0
  1  3  1  0  0  0
  2  7  1  0  0  0
  3  4  1  0  0  0
  3  5  1  0  0  0
  5  6  1  0  0  0
  5  7  1  0  0  0
  7 10  1  0  0  0
 10 11  1  0  0  0
 10 19  1  0  0  0
 11 12  2  0  0  0
 12 13  1  0  0  0
 13 14  1  0  0  0
 13 19  2  0  0  0
 14 15  2  0  0  0
 14 16  1  0  0  0
 16 17  1  0  0  0
 17 18  2  0  0  0
 18 19  1  0  0  0
 25 27  1  0  0  0
 26 28  1  0  0  0
  4  8  1  0  0  0
  6  9  1  0  0  0
 16 20  1  0  0  0
M  END
> <minimizedAffinity>
-7.97312

$$$$
1P19_IMP_A_1300


 28 30  0  0  0  0  0  0  0  0999 V2000
   70.4699   38.6347   33.1288 C   0  0  0  0  0  0  0  0  0  0  0  0
   71.0152   37.7998   32.0619 O   0  0  0  0  0  0  0  0  0  0  0  0
   70.5455   40.0510   32.5569 C   0  0  0  0  0  0  0  0  0  0  0  0
   70.5567   41.0784   33.5154 O   0  0  0  0  0  0  0  0  0  0  0  0
   71.8235   40.0378   31.7398 C   0  0  0  0  0  0  0  0  0  0  0  0
   73.0216   40.1919   32.4942 O   0  0  0  0  0  0  0  0  0  0  0  0
   71.6788   38.6303   31.1096 C   0  0  0  0  0  0  0  0  0  0  0  0
   71.3270   40.9714   34.0950 H   0  0  0  0  0  0  0  0  0  0  0  0
   73.0691   39.4986   33.1709 H   0  0  0  0  0  0  0  0  0  0  0  0
   70.7632   38.7281   29.9537 N   0  0  0  0  0  0  0  0  0  0  0  0
   70.2954   39.8126   29.2467 C   0  0  0  0  0  0  0  0  0  0  0  0
   69.4983   39.4594   28.2910 N   0  0  0  0  0  0  0  0  0  0  0  0
   69.4293   38.0928   28.3587 C   0  0  0  0  0  0  0  0  0  0  0  0
   68.7140   37.1423   27.5714 C   0  0  0  0  0  0  0  0  0  0  0  0
   67.9735   37.3537   26.6222 O   0  0  0  0  0  0  0  0  0  0  0  0
   68.9166   35.8026   27.9751 N   0  0  0  0  0  0  0  0  0  0  0  0
   69.7408   35.4681   29.0419 C   0  0  0  0  0  0  0  0  0  0  0  0
   70.4116   36.3713   29.7774 N   0  0  0  0  0  0  0  0  0  0  0  0
   70.2110   37.6259   29.3878 C   0  0  0  0  0  0  0  0  0  0  0  0
   68.4583   35.0830   27.4838 H   0  0  0  0  0  0  0  0  0  0  0  0
   69.1715   37.9083   33.4357 C   0  0  0  0  0  0  0  0  0  0  0  0
   68.2548   38.4985   34.3800 O   0  0  0  0  0  0  0  0  0  0  0  0
   68.5118   38.2078   35.9751 P   0  0  0  0  0  0  0  0  0  0  0  0
   69.7975   38.8071   36.4496 O   0  0  0  0  0  0  0  0  0  0  0  0
   68.5455   36.7171   36.1868 O   0  0  0  0  0  0  0  0  0  0  0  0
   67.2860   38.8136   36.7105 O   0  0  0  0  0  0  0  0  0  0  0  0
   68.6968   36.5272   37.1259 H   0  0  0  0  0  0  0  0  0  0  0  0
   67.3798   38.6726   37.6656 H   0  0  0  0  0  0  0  0  0  0  0  0
 23 24  2  0  0  0
 23 25  1  0  0  0
 23 26  1  0  0  0
 23 22  1  0  0  0
 22 21  1  0  0  0
 21  1  1  0  0  0
  1  2  1  0  0  0
  1  3  1  0  0  0
  2  7  1  0  0  0
  3  4  1  0  0  0
  3  5  1  0  0  0
  5  6  1  0  0  0
  5  7  1  0  0  0
  7 10  1  0  0  0
 10 11  1  0  0  0
 10 19  1  0  0  0
 11 12  2  0  0  0
 12 13  1  0  0  0
 13 14  1  0  0  0
 13 19  2  0  0  0
 14 15  2  0  0  0
 14 16  1  0  0  0
 16 17  1  0  0  0
 17 18  2  0  0  0
 18 19  1  0  0  0
 25 27  1  0  0  0
 26 28  1  0  0  0
  4  8  1  0  0  0
  6  9  1  0  0  0
 16 20  1  0  0  0
M  END
> <minimizedAffinity>
-7.87586

$$$$
1P19_IMP_A_1300


 28 30  0  0  0  0  0  0  0  0999 V2000
   67.8561   40.2162   33.0004 C   0  0  0  0  0  0  0  0  0  0  0  0
   69.0516   40.4830   32.2052 O   0  0  0  0  0  0  0  0  0  0  0  0
   66.9962   39.3453   32.0833 C   0  0  0  0  0  0  0  0  0  0  0  0
   65.6220   39.3513   32.3764 O   0  0  0  0  0  0  0  0  0  0  0  0
   67.2730   39.9028   30.7000 C   0  0  0  0  0  0  0  0  0  0  0  0
   66.5579   41.0909   30.3758 O   0  0  0  0  0  0  0  0  0  0  0  0
   68.7981   40.1317   30.8453 C   0  0  0  0  0  0  0  0  0  0  0  0
   65.2795   40.2558   32.3019 H   0  0  0  0  0  0  0  0  0  0  0  0
   66.7480   41.7736   31.0381 H   0  0  0  0  0  0  0  0  0  0  0  0
   69.4865   38.8423   30.6276 N   0  0  0  0  0  0  0  0  0  0  0  0
   70.3801   38.1399   31.4044 C   0  0  0  0  0  0  0  0  0  0  0  0
   70.7500   37.0371   30.8385 N   0  0  0  0  0  0  0  0  0  0  0  0
   70.0825   36.9979   29.6427 C   0  0  0  0  0  0  0  0  0  0  0  0
   70.0827   36.0338   28.5912 C   0  0  0  0  0  0  0  0  0  0  0  0
   70.7088   34.9859   28.5286 O   0  0  0  0  0  0  0  0  0  0  0  0
   69.2401   36.3741   27.5081 N   0  0  0  0  0  0  0  0  0  0  0  0
   68.4911   37.5438   27.4927 C   0  0  0  0  0  0  0  0  0  0  0  0
   68.4970   38.4459   28.4892 N   0  0  0  0  0  0  0  0  0  0  0  0
   69.2939   38.1139   29.4996 C   0  0  0  0  0  0  0  0  0  0  0  0
   69.1823   35.7618   26.7394 H   0  0  0  0  0  0  0  0  0  0  0  0
   68.4713   39.7331   34.3026 C   0  0  0  0  0  0  0  0  0  0  0  0
   68.7917   38.3334   34.4392 O   0  0  0  0  0  0  0  0  0  0  0  0
   69.0167   37.7477   35.9562 P   0  0  0  0  0  0  0  0  0  0  0  0
   70.3975   38.0245   36.4602 O   0  0  0  0  0  0  0  0  0  0  0  0
   68.7813   36.2604   35.9307 O   0  0  0  0  0  0  0  0  0  0  0  0
   67.9338   38.4343   36.8316 O   0  0  0  0  0  0  0  0  0  0  0  0
   68.9103   35.8973   36.8209 H   0  0  0  0  0  0  0  0  0  0  0  0
   68.0154   38.1263   37.7477 H   0  0  0  0  0  0  0  0  0  0  0  0
 23 24  2  0  0  0
 23 25  1  0  0  0
 23 26  1  0  0  0
 23 22  1  0  0  0
 22 21  1  0  0  0
 21  1  1  0  0  0
  1  2  1  0  0  0
  1  3  1  0  0  0
  2  7  1  0  0  0
  3  4  1  0  0  0
  3  5  1  0  0  0
  5  6  1  0  0  0
  5  7  1  0  0  0
  7 10  1  0  0  0
 10 11  1  0  0  0
 10 19  1  0  0  0
 11 12  2  0  0  0
 12 13  1  0  0  0
 13 14  1  0  0  0
 13 19  2  0  0  0
 14 15  2  0  0  0
 14 16  1  0  0  0
 16 17  1  0  0  0
 17 18  2  0  0  0
 18 19  1  0  0  0
 25 27  1  0  0  0
 26 28  1  0  0  0
  4  8  1  0  0  0
  6  9  1  0  0  0
 16 20  1  0  0  0
M  END
> <minimizedAffinity>
-7.62654

$$$$
1P19_IMP_A_1300


 28 30  0  0  0  0  0  0  0  0999 V2000
   71.1225   40.6597   28.0201 C   0  0  0  0  0  0  0  0  0  0  0  0
   70.7915   41.0569   29.3859 O   0  0  0  0  0  0  0  0  0  0  0  0
   72.3682   39.7882   28.1866 C   0  0  0  0  0  0  0  0  0  0  0  0
   73.1748   39.6806   27.0411 O   0  0  0  0  0  0  0  0  0  0  0  0
   73.1132   40.4464   29.3323 C   0  0  0  0  0  0  0  0  0  0  0  0
   73.8691   41.5993   28.9752 O   0  0  0  0  0  0  0  0  0  0  0  0
   71.8999   40.7718   30.2387 C   0  0  0  0  0  0  0  0  0  0  0  0
   73.4851   40.5618   26.7802 H   0  0  0  0  0  0  0  0  0  0  0  0
   73.2855   42.2522   28.5580 H   0  0  0  0  0  0  0  0  0  0  0  0
   71.5315   39.5491   30.9824 N   0  0  0  0  0  0  0  0  0  0  0  0
   71.4546   38.2306   30.5942 C   0  0  0  0  0  0  0  0  0  0  0  0
   71.0862   37.4611   31.5666 N   0  0  0  0  0  0  0  0  0  0  0  0
   70.9103   38.2904   32.6428 C   0  0  0  0  0  0  0  0  0  0  0  0
   70.5119   38.0238   33.9864 C   0  0  0  0  0  0  0  0  0  0  0  0
   70.2280   36.9466   34.4894 O   0  0  0  0  0  0  0  0  0  0  0  0
   70.4517   39.1779   34.8008 N   0  0  0  0  0  0  0  0  0  0  0  0
   70.7573   40.4428   34.3151 C   0  0  0  0  0  0  0  0  0  0  0  0
   71.1329   40.6838   33.0471 N   0  0  0  0  0  0  0  0  0  0  0  0
   71.1840   39.5907   32.2930 C   0  0  0  0  0  0  0  0  0  0  0  0
   70.1842   39.0819   35.7434 H   0  0  0  0  0  0  0  0  0  0  0  0
   69.7805   40.1426   27.5311 C   0  0  0  0  0  0  0  0  0  0  0  0
   69.4144   38.7793   27.8277 O   0  0  0  0  0  0  0  0  0  0  0  0
   69.4718   37.6906   26.6003 P   0  0  0  0  0  0  0  0  0  0  0  0
   68.3011   37.8282   25.6797 O   0  0  0  0  0  0  0  0  0  0  0  0
   69.4829   36.3064   27.1935 O   0  0  0  0  0  0  0  0  0  0  0  0
   70.8156   37.9582   25.8701 O   0  0  0  0  0  0  0  0  0  0  0  0
   69.5167   35.6494   26.4807 H   0  0  0  0  0  0  0  0  0  0  0  0
   70.9088   37.3407   25.1279 H   0  0  0  0  0  0  0  0  0  0  0  0
 23 24  2  0  0  0
 23 25  1  0  0  0
 23 26  1  0  0  0
 23 22  1  0  0  0
 22 21  1  0  0  0
 21  1  1  0  0  0
  1  2  1  0  0  0
  1  3  1  0  0  0
  2  7  1  0  0  0
  3  4  1  0  0  0
  3  5  1  0  0  0
  5  6  1  0  0  0
  5  7  1  0  0  0
  7 10  1  0  0  0
 10 11  1  0  0  0
 10 19  1  0  0  0
 11 12  2  0  0  0
 12 13  1  0  0  0
 13 14  1  0  0  0
 13 19  2  0  0  0
 14 15  2  0  0  0
 14 16  1  0  0  0
 16 17  1  0  0  0
 17 18  2  0  0  0
 18 19  1  0  0  0
 25 27  1  0  0  0
 26 28  1  0  0  0
  4  8  1  0  0  0
  6  9  1  0  0  0
 16 20  1  0  0  0
M  END
> <minimizedAffinity>
-7.62086

$$$$
1P19_IMP_A_1300


 28 30  0  0  0  0  0  0  0  0999 V2000
   70.8996   40.0107   29.9236 C   0  0  0  0  0  0  0  0  0  0  0  0
   70.1546   40.5570   31.0547 O   0  0  0  0  0  0  0  0  0  0  0  0
   72.1416   39.3949   30.5695 C   0  0  0  0  0  0  0  0  0  0  0  0
   73.2440   39.2440   29.7114 O   0  0  0  0  0  0  0  0  0  0  0  0
   72.4529   40.3393   31.7151 C   0  0  0  0  0  0  0  0  0  0  0  0
   73.1383   41.5310   31.3434 O   0  0  0  0  0  0  0  0  0  0  0  0
   71.0047   40.5972   32.2004 C   0  0  0  0  0  0  0  0  0  0  0  0
   73.5096   40.1124   29.3706 H   0  0  0  0  0  0  0  0  0  0  0  0
   72.6229   42.0042   30.6716 H   0  0  0  0  0  0  0  0  0  0  0  0
   70.5881   39.4626   33.0507 N   0  0  0  0  0  0  0  0  0  0  0  0
   70.9328   38.1299   33.0311 C   0  0  0  0  0  0  0  0  0  0  0  0
   70.3337   37.4618   33.9627 N   0  0  0  0  0  0  0  0  0  0  0  0
   69.5616   38.3762   34.6297 C   0  0  0  0  0  0  0  0  0  0  0  0
   68.6827   38.2370   35.7446 C   0  0  0  0  0  0  0  0  0  0  0  0
   68.4169   37.2234   36.3738 O   0  0  0  0  0  0  0  0  0  0  0  0
   68.0646   39.4471   36.1354 N   0  0  0  0  0  0  0  0  0  0  0  0
   68.3071   40.6471   35.4793 C   0  0  0  0  0  0  0  0  0  0  0  0
   69.1382   40.7683   34.4298 N   0  0  0  0  0  0  0  0  0  0  0  0
   69.7109   39.6234   34.0728 C   0  0  0  0  0  0  0  0  0  0  0  0
   67.4417   39.4388   36.8977 H   0  0  0  0  0  0  0  0  0  0  0  0
   69.8187   39.2078   29.2202 C   0  0  0  0  0  0  0  0  0  0  0  0
   70.2122   38.0953   28.3908 O   0  0  0  0  0  0  0  0  0  0  0  0
   70.7623   38.4280   26.8803 P   0  0  0  0  0  0  0  0  0  0  0  0
   70.3561   39.7949   26.4290 O   0  0  0  0  0  0  0  0  0  0  0  0
   70.2010   37.4002   25.9334 O   0  0  0  0  0  0  0  0  0  0  0  0
   72.3059   38.2804   26.9584 O   0  0  0  0  0  0  0  0  0  0  0  0
   70.5167   37.5822   25.0345 H   0  0  0  0  0  0  0  0  0  0  0  0
   72.6929   38.4661   26.0886 H   0  0  0  0  0  0  0  0  0  0  0  0
 23 24  2  0  0  0
 23 25  1  0  0  0
 23 26  1  0  0  0
 23 22  1  0  0  0
 22 21  1  0  0  0
 21  1  1  0  0  0
  1  2  1  0  0  0
  1  3  1  0  0  0
  2  7  1  0  0  0
  3  4  1  0  0  0
  3  5  1  0  0  0
  5  6  1  0  0  0
  5  7  1  0  0  0
  7 10  1  0  0  0
 10 11  1  0  0  0
 10 19  1  0  0  0
 11 12  2  0  0  0
 12 13  1  0  0  0
 13 14  1  0  0  0
 13 19  2  0  0  0
 14 15  2  0  0  0
 14 16  1  0  0  0
 16 17  1  0  0  0
 17 18  2  0  0  0
 18 19  1  0  0  0
 25 27  1  0  0  0
 26 28  1  0  0  0
  4  8  1  0  0  0
  6  9  1  0  0  0
 16 20  1  0  0  0
M  END
> <minimizedAffinity>
-7.49855

$$$$
