3RZ0_RZ0_B_1


 20 20  0  0  0  0  0  0  0  0999 V2000
   16.5761    4.0777   14.8118 C   0  0  0  0  0  0  0  0  0  0  0  0
   17.0829    2.0011   15.8904 C   0  0  0  0  0  0  0  0  0  0  0  0
   17.5083    3.0766   15.0777 C   0  0  0  0  0  0  0  0  0  0  0  0
   15.7607    1.8884   16.3317 C   0  0  0  0  0  0  0  0  0  0  0  0
   15.2714    4.0307   15.2997 C   0  0  0  0  0  0  0  0  0  0  0  0
   14.8628    2.9256   16.0594 C   0  0  0  0  0  0  0  0  0  0  0  0
   15.2901    0.6037   17.2724 S   0  0  0  0  0  0  0  0  0  0  0  0
   13.8730    0.4086   17.0484 O   0  0  0  0  0  0  0  0  0  0  0  0
   15.6819    0.8148   18.6365 O   0  0  0  0  0  0  0  0  0  0  0  0
   16.0574   -0.6690   16.8052 N   0  0  0  0  0  0  0  0  0  0  0  0
   17.0572   -0.5392   16.9599 H   0  0  0  0  0  0  0  0  0  0  0  0
   15.8844   -0.8250   15.8121 H   0  0  0  0  0  0  0  0  0  0  0  0
   18.0744    5.8682   13.8182 N   0  0  0  0  0  0  0  0  0  0  0  0
   16.2586    5.7320   13.0771 O   0  0  0  0  0  0  0  0  0  0  0  0
   16.9581    5.2685   13.9697 C   0  0  0  0  0  0  0  0  0  0  0  0
   18.0133    6.1696   12.8830 H   0  0  0  0  0  0  0  0  0  0  0  0
   19.3180    6.3465   14.1853 C   0  0  0  0  0  0  0  0  0  0  0  0
   18.7617    7.4167   15.1190 C   0  0  0  0  0  0  0  0  0  0  0  0
   19.8878    8.2275   15.8353 C   0  0  0  0  0  0  0  0  0  0  0  0
   20.6101    9.2540   14.9563 C   0  0  0  0  0  0  0  0  0  0  0  0
  7  9  2  0  0  0
 13 15  1  0  0  0
 14 15  2  0  0  0
  1  5  2  0  0  0
  1  3  1  0  0  0
  2  4  1  0  0  0
  3  2  2  0  0  0
  4  7  1  0  0  0
  5  6  1  0  0  0
  6  4  2  0  0  0
 15  1  1  0  0  0
 17 13  1  0  0  0
  8  7  2  0  0  0
 18 17  1  0  0  0
 18 19  1  0  0  0
 19 20  1  0  0  0
 10  7  1  0  0  0
 13 16  1  0  0  0
 10 11  1  0  0  0
 10 12  1  0  0  0
M  END
> <minimizedAffinity>
-7.03189

$$$$
3RZ0_RZ0_B_1


 20 20  0  0  0  0  0  0  0  0999 V2000
   16.5655    4.1176   14.8437 C   0  0  0  0  0  0  0  0  0  0  0  0
   14.8700    2.9085   16.0250 C   0  0  0  0  0  0  0  0  0  0  0  0
   15.2478    4.0572   15.2931 C   0  0  0  0  0  0  0  0  0  0  0  0
   15.7942    1.9177   16.3712 C   0  0  0  0  0  0  0  0  0  0  0  0
   17.4911    3.1100   15.1092 C   0  0  0  0  0  0  0  0  0  0  0  0
   17.1015    2.0073   15.8823 C   0  0  0  0  0  0  0  0  0  0  0  0
   15.3204    0.5880   17.2454 S   0  0  0  0  0  0  0  0  0  0  0  0
   13.9100    0.3885   16.9860 O   0  0  0  0  0  0  0  0  0  0  0  0
   15.6842    0.7427   18.6248 O   0  0  0  0  0  0  0  0  0  0  0  0
   16.1103   -0.6550   16.7376 N   0  0  0  0  0  0  0  0  0  0  0  0
   17.1055   -0.5219   16.9170 H   0  0  0  0  0  0  0  0  0  0  0  0
   15.9576   -0.7687   15.7356 H   0  0  0  0  0  0  0  0  0  0  0  0
   16.7228    5.7063   12.8715 N   0  0  0  0  0  0  0  0  0  0  0  0
   17.6832    6.2346   14.5036 O   0  0  0  0  0  0  0  0  0  0  0  0
   17.0412    5.3005   14.0388 C   0  0  0  0  0  0  0  0  0  0  0  0
   16.8197    6.6815   12.9665 H   0  0  0  0  0  0  0  0  0  0  0  0
   16.3230    5.5921   11.5535 C   0  0  0  0  0  0  0  0  0  0  0  0
   15.8727    7.0449   11.4406 C   0  0  0  0  0  0  0  0  0  0  0  0
   14.3211    7.1818   11.3297 C   0  0  0  0  0  0  0  0  0  0  0  0
   13.7787    7.2975    9.9012 C   0  0  0  0  0  0  0  0  0  0  0  0
  7  9  2  0  0  0
 13 15  1  0  0  0
 14 15  2  0  0  0
  1  5  2  0  0  0
  1  3  1  0  0  0
  2  4  1  0  0  0
  3  2  2  0  0  0
  4  7  1  0  0  0
  5  6  1  0  0  0
  6  4  2  0  0  0
 15  1  1  0  0  0
 17 13  1  0  0  0
  8  7  2  0  0  0
 18 17  1  0  0  0
 18 19  1  0  0  0
 19 20  1  0  0  0
 10  7  1  0  0  0
 13 16  1  0  0  0
 10 11  1  0  0  0
 10 12  1  0  0  0
M  END
> <minimizedAffinity>
-6.82867

$$$$
3RZ0_RZ0_B_1


 20 20  0  0  0  0  0  0  0  0999 V2000
   16.6438    3.8405   14.6342 C   0  0  0  0  0  0  0  0  0  0  0  0
   14.8732    2.9230   15.9590 C   0  0  0  0  0  0  0  0  0  0  0  0
   15.3088    3.8950   15.0297 C   0  0  0  0  0  0  0  0  0  0  0  0
   15.7572    2.0052   16.5350 C   0  0  0  0  0  0  0  0  0  0  0  0
   17.5320    2.8901   15.1346 C   0  0  0  0  0  0  0  0  0  0  0  0
   17.0842    1.9717   16.0945 C   0  0  0  0  0  0  0  0  0  0  0  0
   15.2156    0.8861   17.6356 S   0  0  0  0  0  0  0  0  0  0  0  0
   15.0593    1.5738   18.9001 O   0  0  0  0  0  0  0  0  0  0  0  0
   16.0821   -0.2575   17.6513 O   0  0  0  0  0  0  0  0  0  0  0  0
   13.8262    0.3563   17.1713 N   0  0  0  0  0  0  0  0  0  0  0  0
   13.9281   -0.1298   16.2803 H   0  0  0  0  0  0  0  0  0  0  0  0
   13.1834    1.1403   17.0593 H   0  0  0  0  0  0  0  0  0  0  0  0
   17.0891    4.8711   12.3587 N   0  0  0  0  0  0  0  0  0  0  0  0
   17.6265    5.9325   13.9237 O   0  0  0  0  0  0  0  0  0  0  0  0
   17.1809    4.8296   13.6309 C   0  0  0  0  0  0  0  0  0  0  0  0
   17.0808    5.8412   12.1911 H   0  0  0  0  0  0  0  0  0  0  0  0
   16.9944    4.3650   11.0761 C   0  0  0  0  0  0  0  0  0  0  0  0
   17.6123    3.0176   11.4351 C   0  0  0  0  0  0  0  0  0  0  0  0
   16.5843    1.8458   11.3413 C   0  0  0  0  0  0  0  0  0  0  0  0
   16.8179    0.6951   12.3260 C   0  0  0  0  0  0  0  0  0  0  0  0
  7  9  2  0  0  0
 13 15  1  0  0  0
 14 15  2  0  0  0
  1  5  2  0  0  0
  1  3  1  0  0  0
  2  4  1  0  0  0
  3  2  2  0  0  0
  4  7  1  0  0  0
  5  6  1  0  0  0
  6  4  2  0  0  0
 15  1  1  0  0  0
 17 13  1  0  0  0
  8  7  2  0  0  0
 18 17  1  0  0  0
 18 19  1  0  0  0
 19 20  1  0  0  0
 10  7  1  0  0  0
 13 16  1  0  0  0
 10 11  1  0  0  0
 10 12  1  0  0  0
M  END
> <minimizedAffinity>
-6.77474

$$$$
3RZ0_RZ0_B_1


 20 20  0  0  0  0  0  0  0  0999 V2000
   16.1155    3.9664   14.5326 C   0  0  0  0  0  0  0  0  0  0  0  0
   14.8119    2.8952   16.2313 C   0  0  0  0  0  0  0  0  0  0  0  0
   15.1010    4.0593   15.4833 C   0  0  0  0  0  0  0  0  0  0  0  0
   15.5691    1.7268   16.0990 C   0  0  0  0  0  0  0  0  0  0  0  0
   16.8386    2.7930   14.3254 C   0  0  0  0  0  0  0  0  0  0  0  0
   16.5648    1.6699   15.1186 C   0  0  0  0  0  0  0  0  0  0  0  0
   15.2125    0.3815   17.0043 S   0  0  0  0  0  0  0  0  0  0  0  0
   15.9318   -0.7296   16.4173 O   0  0  0  0  0  0  0  0  0  0  0  0
   13.7914    0.2158   17.1128 O   0  0  0  0  0  0  0  0  0  0  0  0
   15.7235    0.6046   18.4589 N   0  0  0  0  0  0  0  0  0  0  0  0
   15.2211    1.3863   18.8796 H   0  0  0  0  0  0  0  0  0  0  0  0
   16.7219    0.8126   18.4404 H   0  0  0  0  0  0  0  0  0  0  0  0
   17.4987    5.9141   13.6775 N   0  0  0  0  0  0  0  0  0  0  0  0
   15.8859    5.4634   12.6476 O   0  0  0  0  0  0  0  0  0  0  0  0
   16.4705    5.1582   13.6801 C   0  0  0  0  0  0  0  0  0  0  0  0
   17.5662    6.1554   12.7254 H   0  0  0  0  0  0  0  0  0  0  0  0
   18.5740    6.5957   14.2154 C   0  0  0  0  0  0  0  0  0  0  0  0
   19.5135    5.3955   14.1609 C   0  0  0  0  0  0  0  0  0  0  0  0
   19.9012    5.0071   12.6988 C   0  0  0  0  0  0  0  0  0  0  0  0
   19.9824    3.5015   12.4254 C   0  0  0  0  0  0  0  0  0  0  0  0
  7  9  2  0  0  0
 13 15  1  0  0  0
 14 15  2  0  0  0
  1  5  2  0  0  0
  1  3  1  0  0  0
  2  4  1  0  0  0
  3  2  2  0  0  0
  4  7  1  0  0  0
  5  6  1  0  0  0
  6  4  2  0  0  0
 15  1  1  0  0  0
 17 13  1  0  0  0
  8  7  2  0  0  0
 18 17  1  0  0  0
 18 19  1  0  0  0
 19 20  1  0  0  0
 10  7  1  0  0  0
 13 16  1  0  0  0
 10 11  1  0  0  0
 10 12  1  0  0  0
M  END
> <minimizedAffinity>
-6.51285

$$$$
3RZ0_RZ0_B_1


 20 20  0  0  0  0  0  0  0  0999 V2000
   16.2067    4.0117   14.5664 C   0  0  0  0  0  0  0  0  0  0  0  0
   16.8152    1.8417   15.3747 C   0  0  0  0  0  0  0  0  0  0  0  0
   17.0930    2.9371   14.5255 C   0  0  0  0  0  0  0  0  0  0  0  0
   15.6539    1.7873   16.1520 C   0  0  0  0  0  0  0  0  0  0  0  0
   15.0799    4.0186   15.3867 C   0  0  0  0  0  0  0  0  0  0  0  0
   14.8019    2.8960   16.1791 C   0  0  0  0  0  0  0  0  0  0  0  0
   15.3502    0.4783   17.1273 S   0  0  0  0  0  0  0  0  0  0  0  0
   15.8125    0.8210   18.4560 O   0  0  0  0  0  0  0  0  0  0  0  0
   15.9176   -0.7101   16.5576 O   0  0  0  0  0  0  0  0  0  0  0  0
   13.8127    0.2317   17.1732 N   0  0  0  0  0  0  0  0  0  0  0  0
   13.4793   -0.0104   16.2402 H   0  0  0  0  0  0  0  0  0  0  0  0
   13.3420    1.0780   17.4935 H   0  0  0  0  0  0  0  0  0  0  0  0
   17.4705    5.9725   13.5683 N   0  0  0  0  0  0  0  0  0  0  0  0
   15.7129    5.5701   12.7847 O   0  0  0  0  0  0  0  0  0  0  0  0
   16.4441    5.2267   13.7057 C   0  0  0  0  0  0  0  0  0  0  0  0
   17.3950    6.2433   12.6248 H   0  0  0  0  0  0  0  0  0  0  0  0
   18.6250    6.6263   13.9552 C   0  0  0  0  0  0  0  0  0  0  0  0
   19.4986    5.9583   12.8985 C   0  0  0  0  0  0  0  0  0  0  0  0
   20.1451    4.6320   13.4102 C   0  0  0  0  0  0  0  0  0  0  0  0
   20.1461    3.4776   12.4024 C   0  0  0  0  0  0  0  0  0  0  0  0
  7  9  2  0  0  0
 13 15  1  0  0  0
 14 15  2  0  0  0
  1  5  2  0  0  0
  1  3  1  0  0  0
  2  4  1  0  0  0
  3  2  2  0  0  0
  4  7  1  0  0  0
  5  6  1  0  0  0
  6  4  2  0  0  0
 15  1  1  0  0  0
 17 13  1  0  0  0
  8  7  2  0  0  0
 18 17  1  0  0  0
 18 19  1  0  0  0
 19 20  1  0  0  0
 10  7  1  0  0  0
 13 16  1  0  0  0
 10 11  1  0  0  0
 10 12  1  0  0  0
M  END
> <minimizedAffinity>
-6.49800

$$$$
3RZ0_RZ0_B_1


 20 20  0  0  0  0  0  0  0  0999 V2000
   16.6407    2.4300   13.4698 C   0  0  0  0  0  0  0  0  0  0  0  0
   16.4241    0.6054   15.0048 C   0  0  0  0  0  0  0  0  0  0  0  0
   16.8613    1.0825   13.7481 C   0  0  0  0  0  0  0  0  0  0  0  0
   15.7144    1.4171   15.8955 C   0  0  0  0  0  0  0  0  0  0  0  0
   16.0022    3.2826   14.3687 C   0  0  0  0  0  0  0  0  0  0  0  0
   15.5328    2.7688   15.5857 C   0  0  0  0  0  0  0  0  0  0  0  0
   15.2015    0.8207   17.3577 S   0  0  0  0  0  0  0  0  0  0  0  0
   15.2059    1.9256   18.2933 O   0  0  0  0  0  0  0  0  0  0  0  0
   15.9884   -0.3183   17.7351 O   0  0  0  0  0  0  0  0  0  0  0  0
   13.7439    0.2936   17.2021 N   0  0  0  0  0  0  0  0  0  0  0  0
   13.7325   -0.4856   16.5439 H   0  0  0  0  0  0  0  0  0  0  0  0
   13.1469    1.0430   16.8521 H   0  0  0  0  0  0  0  0  0  0  0  0
   18.0947    3.7607   11.8719 N   0  0  0  0  0  0  0  0  0  0  0  0
   16.6702    2.6729   11.0642 O   0  0  0  0  0  0  0  0  0  0  0  0
   17.0956    3.0204   12.1592 C   0  0  0  0  0  0  0  0  0  0  0  0
   18.3023    3.4680   10.9551 H   0  0  0  0  0  0  0  0  0  0  0  0
   19.0587    4.7287   12.0814 C   0  0  0  0  0  0  0  0  0  0  0  0
   18.0670    5.8874   12.0681 C   0  0  0  0  0  0  0  0  0  0  0  0
   18.2900    6.8773   13.2551 C   0  0  0  0  0  0  0  0  0  0  0  0
   18.0931    6.2751   14.6503 C   0  0  0  0  0  0  0  0  0  0  0  0
  7  9  2  0  0  0
 13 15  1  0  0  0
 14 15  2  0  0  0
  1  5  2  0  0  0
  1  3  1  0  0  0
  2  4  1  0  0  0
  3  2  2  0  0  0
  4  7  1  0  0  0
  5  6  1  0  0  0
  6  4  2  0  0  0
 15  1  1  0  0  0
 17 13  1  0  0  0
  8  7  2  0  0  0
 18 17  1  0  0  0
 18 19  1  0  0  0
 19 20  1  0  0  0
 10  7  1  0  0  0
 13 16  1  0  0  0
 10 11  1  0  0  0
 10 12  1  0  0  0
M  END
> <minimizedAffinity>
-5.99312

$$$$
3RZ0_RZ0_B_1


 20 20  0  0  0  0  0  0  0  0999 V2000
   17.1095    2.8715   12.0093 C   0  0  0  0  0  0  0  0  0  0  0  0
   16.7641    0.7793   13.1210 C   0  0  0  0  0  0  0  0  0  0  0  0
   16.8539    1.5051   11.9113 C   0  0  0  0  0  0  0  0  0  0  0  0
   16.8303    1.4113   14.3668 C   0  0  0  0  0  0  0  0  0  0  0  0
   17.2546    3.5172   13.2359 C   0  0  0  0  0  0  0  0  0  0  0  0
   17.1083    2.7809   14.4199 C   0  0  0  0  0  0  0  0  0  0  0  0
   16.7056    0.5308   15.7690 S   0  0  0  0  0  0  0  0  0  0  0  0
   15.3881    0.7827   16.3141 O   0  0  0  0  0  0  0  0  0  0  0  0
   17.8069    0.8235   16.6409 O   0  0  0  0  0  0  0  0  0  0  0  0
   16.8310   -0.9833   15.4245 N   0  0  0  0  0  0  0  0  0  0  0  0
   17.7571   -1.1688   15.0397 H   0  0  0  0  0  0  0  0  0  0  0  0
   16.1205   -1.2356   14.7376 H   0  0  0  0  0  0  0  0  0  0  0  0
   17.5255    4.9462   10.6091 N   0  0  0  0  0  0  0  0  0  0  0  0
   17.3125    3.2545    9.6305 O   0  0  0  0  0  0  0  0  0  0  0  0
   17.2397    3.7122   10.7645 C   0  0  0  0  0  0  0  0  0  0  0  0
   18.0025    4.9332    9.7479 H   0  0  0  0  0  0  0  0  0  0  0  0
   17.5640    6.2900   10.9298 C   0  0  0  0  0  0  0  0  0  0  0  0
   19.0821    6.3339   11.0710 C   0  0  0  0  0  0  0  0  0  0  0  0
   19.5420    6.3653   12.5630 C   0  0  0  0  0  0  0  0  0  0  0  0
   18.5360    6.9815   13.5410 C   0  0  0  0  0  0  0  0  0  0  0  0
  7  9  2  0  0  0
 13 15  1  0  0  0
 14 15  2  0  0  0
  1  5  2  0  0  0
  1  3  1  0  0  0
  2  4  1  0  0  0
  3  2  2  0  0  0
  4  7  1  0  0  0
  5  6  1  0  0  0
  6  4  2  0  0  0
 15  1  1  0  0  0
 17 13  1  0  0  0
  8  7  2  0  0  0
 18 17  1  0  0  0
 18 19  1  0  0  0
 19 20  1  0  0  0
 10  7  1  0  0  0
 13 16  1  0  0  0
 10 11  1  0  0  0
 10 12  1  0  0  0
M  END
> <minimizedAffinity>
-5.84781

$$$$
3RZ0_RZ0_B_1


 20 20  0  0  0  0  0  0  0  0999 V2000
   18.0555    5.5358   14.3998 C   0  0  0  0  0  0  0  0  0  0  0  0
   16.3624    4.0113   15.1357 C   0  0  0  0  0  0  0  0  0  0  0  0
   16.7328    5.3302   14.7872 C   0  0  0  0  0  0  0  0  0  0  0  0
   17.2967    2.9719   15.1864 C   0  0  0  0  0  0  0  0  0  0  0  0
   18.9926    4.5045   14.3686 C   0  0  0  0  0  0  0  0  0  0  0  0
   18.6090    3.2172   14.7699 C   0  0  0  0  0  0  0  0  0  0  0  0
   16.8310    1.4369   15.6149 S   0  0  0  0  0  0  0  0  0  0  0  0
   15.4594    1.5199   16.0712 O   0  0  0  0  0  0  0  0  0  0  0  0
   17.7650    0.8748   16.5480 O   0  0  0  0  0  0  0  0  0  0  0  0
   16.8919    0.5230   14.3547 N   0  0  0  0  0  0  0  0  0  0  0  0
   17.8557    0.4596   14.0270 H   0  0  0  0  0  0  0  0  0  0  0  0
   16.3079    0.9197   13.6185 H   0  0  0  0  0  0  0  0  0  0  0  0
   18.5914    7.4719   12.8498 N   0  0  0  0  0  0  0  0  0  0  0  0
   18.7156    7.8308   14.7787 O   0  0  0  0  0  0  0  0  0  0  0  0
   18.5243    6.9100   13.9937 C   0  0  0  0  0  0  0  0  0  0  0  0
   18.4247    8.4143   13.0808 H   0  0  0  0  0  0  0  0  0  0  0  0
   18.7587    7.5452   11.4799 C   0  0  0  0  0  0  0  0  0  0  0  0
   17.2968    7.8784   11.2003 C   0  0  0  0  0  0  0  0  0  0  0  0
   16.4180    6.6007   11.0169 C   0  0  0  0  0  0  0  0  0  0  0  0
   15.0060    6.6922   11.6052 C   0  0  0  0  0  0  0  0  0  0  0  0
  7  9  2  0  0  0
 13 15  1  0  0  0
 14 15  2  0  0  0
  1  5  2  0  0  0
  1  3  1  0  0  0
  2  4  1  0  0  0
  3  2  2  0  0  0
  4  7  1  0  0  0
  5  6  1  0  0  0
  6  4  2  0  0  0
 15  1  1  0  0  0
 17 13  1  0  0  0
  8  7  2  0  0  0
 18 17  1  0  0  0
 18 19  1  0  0  0
 19 20  1  0  0  0
 10  7  1  0  0  0
 13 16  1  0  0  0
 10 11  1  0  0  0
 10 12  1  0  0  0
M  END
> <minimizedAffinity>
-5.75392

$$$$
3RZ0_RZ0_B_1


 20 20  0  0  0  0  0  0  0  0999 V2000
   16.3388    4.3757   13.3361 C   0  0  0  0  0  0  0  0  0  0  0  0
   15.8957    3.1440   15.3407 C   0  0  0  0  0  0  0  0  0  0  0  0
   15.7881    4.3528   14.6159 C   0  0  0  0  0  0  0  0  0  0  0  0
   16.6058    2.0466   14.8433 C   0  0  0  0  0  0  0  0  0  0  0  0
   16.9880    3.2732   12.7834 C   0  0  0  0  0  0  0  0  0  0  0  0
   17.1253    2.1049   13.5461 C   0  0  0  0  0  0  0  0  0  0  0  0
   16.7261    0.6464   15.7274 S   0  0  0  0  0  0  0  0  0  0  0  0
   15.4441    0.4349   16.3664 O   0  0  0  0  0  0  0  0  0  0  0  0
   17.8580    0.7080   16.6072 O   0  0  0  0  0  0  0  0  0  0  0  0
   17.0105   -0.5382   14.7565 N   0  0  0  0  0  0  0  0  0  0  0  0
   17.9126   -0.3964   14.3022 H   0  0  0  0  0  0  0  0  0  0  0  0
   16.2768   -0.5818   14.0493 H   0  0  0  0  0  0  0  0  0  0  0  0
   17.1147    6.2071   11.7605 N   0  0  0  0  0  0  0  0  0  0  0  0
   15.1954    6.1684   12.1847 O   0  0  0  0  0  0  0  0  0  0  0  0
   16.2477    5.6211   12.4911 C   0  0  0  0  0  0  0  0  0  0  0  0
   16.5516    6.5827   11.0457 H   0  0  0  0  0  0  0  0  0  0  0  0
   18.3734    6.6283   11.3754 C   0  0  0  0  0  0  0  0  0  0  0  0
   18.5664    7.5412   12.5819 C   0  0  0  0  0  0  0  0  0  0  0  0
   19.7716    7.1047   13.4737 C   0  0  0  0  0  0  0  0  0  0  0  0
   19.5210    5.8713   14.3479 C   0  0  0  0  0  0  0  0  0  0  0  0
  7  9  2  0  0  0
 13 15  1  0  0  0
 14 15  2  0  0  0
  1  5  2  0  0  0
  1  3  1  0  0  0
  2  4  1  0  0  0
  3  2  2  0  0  0
  4  7  1  0  0  0
  5  6  1  0  0  0
  6  4  2  0  0  0
 15  1  1  0  0  0
 17 13  1  0  0  0
  8  7  2  0  0  0
 18 17  1  0  0  0
 18 19  1  0  0  0
 19 20  1  0  0  0
 10  7  1  0  0  0
 13 16  1  0  0  0
 10 11  1  0  0  0
 10 12  1  0  0  0
M  END
> <minimizedAffinity>
-5.73698

$$$$
3RZ0_RZ0_B_1


 20 20  0  0  0  0  0  0  0  0999 V2000
   17.7036    3.9547   13.7592 C   0  0  0  0  0  0  0  0  0  0  0  0
   16.6859    5.8706   12.7464 C   0  0  0  0  0  0  0  0  0  0  0  0
   17.2014    5.2463   13.9052 C   0  0  0  0  0  0  0  0  0  0  0  0
   16.5904    5.1952   11.5255 C   0  0  0  0  0  0  0  0  0  0  0  0
   17.6905    3.2826   12.5383 C   0  0  0  0  0  0  0  0  0  0  0  0
   17.1250    3.9074   11.4179 C   0  0  0  0  0  0  0  0  0  0  0  0
   15.9652    5.9530   10.1870 S   0  0  0  0  0  0  0  0  0  0  0  0
   15.8892    7.3659   10.4943 O   0  0  0  0  0  0  0  0  0  0  0  0
   14.7319    5.3338    9.7941 O   0  0  0  0  0  0  0  0  0  0  0  0
   16.9411    5.7460    8.9905 N   0  0  0  0  0  0  0  0  0  0  0  0
   17.0000    4.7524    8.7678 H   0  0  0  0  0  0  0  0  0  0  0  0
   17.8664    6.0935    9.2425 H   0  0  0  0  0  0  0  0  0  0  0  0
   17.8377    2.2627   15.6454 N   0  0  0  0  0  0  0  0  0  0  0  0
   19.4603    3.3153   15.2929 O   0  0  0  0  0  0  0  0  0  0  0  0
   18.2894    3.2280   14.9434 C   0  0  0  0  0  0  0  0  0  0  0  0
   18.6664    1.7943   15.8965 H   0  0  0  0  0  0  0  0  0  0  0  0
   16.8779    1.4834   16.2631 C   0  0  0  0  0  0  0  0  0  0  0  0
   15.7456    2.4756   16.0190 C   0  0  0  0  0  0  0  0  0  0  0  0
   14.5351    2.2475   16.9789 C   0  0  0  0  0  0  0  0  0  0  0  0
   14.0117    0.8084   17.0353 C   0  0  0  0  0  0  0  0  0  0  0  0
  7  9  2  0  0  0
 13 15  1  0  0  0
 14 15  2  0  0  0
  1  5  2  0  0  0
  1  3  1  0  0  0
  2  4  1  0  0  0
  3  2  2  0  0  0
  4  7  1  0  0  0
  5  6  1  0  0  0
  6  4  2  0  0  0
 15  1  1  0  0  0
 17 13  1  0  0  0
  8  7  2  0  0  0
 18 17  1  0  0  0
 18 19  1  0  0  0
 19 20  1  0  0  0
 10  7  1  0  0  0
 13 16  1  0  0  0
 10 11  1  0  0  0
 10 12  1  0  0  0
M  END
> <minimizedAffinity>
-5.73504

$$$$
