3F1A_HS7_A_0


 16 16  0  0  0  0  0  0  0  0999 V2000
   -2.1560   -5.2762   -6.8071 S   0  0  0  0  0  0  0  0  0  0  0  0
   -1.2350   -5.0222   -7.8856 O   0  0  0  0  0  0  0  0  0  0  0  0
   -1.6427   -6.2313   -5.8662 O   0  0  0  0  0  0  0  0  0  0  0  0
   -3.5270   -5.8413   -7.4275 C   0  0  0  0  0  0  0  0  0  0  0  0
   -4.6184   -6.1443   -6.6045 C   0  0  0  0  0  0  0  0  0  0  0  0
   -3.6542   -6.0254   -8.8070 C   0  0  0  0  0  0  0  0  0  0  0  0
   -4.8464   -6.5036   -9.3591 C   0  0  0  0  0  0  0  0  0  0  0  0
   -5.9274   -6.7936   -8.5270 C   0  0  0  0  0  0  0  0  0  0  0  0
   -5.8123   -6.6152   -7.1489 C   0  0  0  0  0  0  0  0  0  0  0  0
   -2.4268   -3.9135   -6.0094 N   0  0  0  0  0  0  0  0  0  0  0  0
   -1.6732   -3.2751   -6.2642 H   0  0  0  0  0  0  0  0  0  0  0  0
   -2.5107   -3.8922   -4.5640 C   0  0  0  0  0  0  0  0  0  0  0  0
   -0.6481   -3.0633   -3.3119 O   0  0  0  0  0  0  0  0  0  0  0  0
   -1.6271   -2.8046   -4.0046 C   0  0  0  0  0  0  0  0  0  0  0  0
   -1.9601   -1.5583   -4.3125 N   0  0  0  0  0  0  0  0  0  0  0  0
   -1.8854   -1.1766   -5.6465 O   0  0  0  0  0  0  0  0  0  0  0  0
 13 14  2  0  0  0
 14 15  1  0  0  0
 14 12  1  0  0  0
 15 16  2  0  0  0
 12 10  1  0  0  0
 10  1  1  0  0  0
  1  2  2  0  0  0
  1  3  2  0  0  0
  1  4  1  0  0  0
  4  5  2  0  0  0
  4  6  1  0  0  0
  5  9  1  0  0  0
  6  7  2  0  0  0
  7  8  1  0  0  0
  8  9  2  0  0  0
 10 11  1  0  0  0
M  END
> <minimizedAffinity>
-7.19175

$$$$
3F1A_HS7_A_0


 16 16  0  0  0  0  0  0  0  0999 V2000
   -3.7176   -5.9480   -8.1635 S   0  0  0  0  0  0  0  0  0  0  0  0
   -3.4447   -4.7556   -8.9248 O   0  0  0  0  0  0  0  0  0  0  0  0
   -2.7523   -6.9823   -8.4069 O   0  0  0  0  0  0  0  0  0  0  0  0
   -5.1757   -6.4906   -8.5679 C   0  0  0  0  0  0  0  0  0  0  0  0
   -5.4899   -6.7858   -9.9000 C   0  0  0  0  0  0  0  0  0  0  0  0
   -6.1513   -6.6901   -7.5873 C   0  0  0  0  0  0  0  0  0  0  0  0
   -7.4185   -7.1743   -7.9256 C   0  0  0  0  0  0  0  0  0  0  0  0
   -7.7139   -7.4712   -9.2559 C   0  0  0  0  0  0  0  0  0  0  0  0
   -6.7493   -7.2751  -10.2434 C   0  0  0  0  0  0  0  0  0  0  0  0
   -3.6671   -5.6018   -6.6001 N   0  0  0  0  0  0  0  0  0  0  0  0
   -3.5680   -4.5890   -6.5317 H   0  0  0  0  0  0  0  0  0  0  0  0
   -2.6549   -6.1720   -5.7359 C   0  0  0  0  0  0  0  0  0  0  0  0
   -0.3738   -5.4952   -5.9863 O   0  0  0  0  0  0  0  0  0  0  0  0
   -1.4982   -5.2153   -5.5830 C   0  0  0  0  0  0  0  0  0  0  0  0
   -1.7669   -4.0544   -5.0009 N   0  0  0  0  0  0  0  0  0  0  0  0
   -2.3116   -3.0450   -5.7852 O   0  0  0  0  0  0  0  0  0  0  0  0
 13 14  2  0  0  0
 14 15  1  0  0  0
 14 12  1  0  0  0
 15 16  2  0  0  0
 12 10  1  0  0  0
 10  1  1  0  0  0
  1  2  2  0  0  0
  1  3  2  0  0  0
  1  4  1  0  0  0
  4  5  2  0  0  0
  4  6  1  0  0  0
  5  9  1  0  0  0
  6  7  2  0  0  0
  7  8  1  0  0  0
  8  9  2  0  0  0
 10 11  1  0  0  0
M  END
> <minimizedAffinity>
-7.07446

$$$$
3F1A_HS7_A_0


 16 16  0  0  0  0  0  0  0  0999 V2000
   -3.7057   -6.2932   -8.1339 S   0  0  0  0  0  0  0  0  0  0  0  0
   -3.5062   -4.8852   -8.3654 O   0  0  0  0  0  0  0  0  0  0  0  0
   -2.8011   -7.1045   -8.8984 O   0  0  0  0  0  0  0  0  0  0  0  0
   -5.2144   -6.6699   -8.5412 C   0  0  0  0  0  0  0  0  0  0  0  0
   -6.2197   -6.7639   -7.5713 C   0  0  0  0  0  0  0  0  0  0  0  0
   -5.5484   -6.8961   -9.8793 C   0  0  0  0  0  0  0  0  0  0  0  0
   -6.8601   -7.2112  -10.2468 C   0  0  0  0  0  0  0  0  0  0  0  0
   -7.8521   -7.2935   -9.2700 C   0  0  0  0  0  0  0  0  0  0  0  0
   -7.5308   -7.0712   -7.9315 C   0  0  0  0  0  0  0  0  0  0  0  0
   -3.4505   -6.6172   -6.5857 N   0  0  0  0  0  0  0  0  0  0  0  0
   -4.3702   -6.7184   -6.1565 H   0  0  0  0  0  0  0  0  0  0  0  0
   -2.7016   -5.7103   -5.7412 C   0  0  0  0  0  0  0  0  0  0  0  0
   -0.5576   -5.3877   -6.7526 O   0  0  0  0  0  0  0  0  0  0  0  0
   -1.2208   -5.9573   -5.8919 C   0  0  0  0  0  0  0  0  0  0  0  0
   -0.6762   -6.8127   -5.0372 N   0  0  0  0  0  0  0  0  0  0  0  0
   -1.3116   -8.0335   -4.8460 O   0  0  0  0  0  0  0  0  0  0  0  0
 13 14  2  0  0  0
 14 15  1  0  0  0
 14 12  1  0  0  0
 15 16  2  0  0  0
 12 10  1  0  0  0
 10  1  1  0  0  0
  1  2  2  0  0  0
  1  3  2  0  0  0
  1  4  1  0  0  0
  4  5  2  0  0  0
  4  6  1  0  0  0
  5  9  1  0  0  0
  6  7  2  0  0  0
  7  8  1  0  0  0
  8  9  2  0  0  0
 10 11  1  0  0  0
M  END
> <minimizedAffinity>
-6.75840

$$$$
3F1A_HS7_A_0


 16 16  0  0  0  0  0  0  0  0999 V2000
   -1.7392   -6.4498   -5.5288 S   0  0  0  0  0  0  0  0  0  0  0  0
   -0.6157   -5.7657   -6.1168 O   0  0  0  0  0  0  0  0  0  0  0  0
   -1.4177   -7.7953   -5.1455 O   0  0  0  0  0  0  0  0  0  0  0  0
   -2.9353   -6.4855   -6.6021 C   0  0  0  0  0  0  0  0  0  0  0  0
   -4.2731   -6.4505   -6.1904 C   0  0  0  0  0  0  0  0  0  0  0  0
   -2.6544   -6.5378   -7.9701 C   0  0  0  0  0  0  0  0  0  0  0  0
   -3.6865   -6.5558   -8.9132 C   0  0  0  0  0  0  0  0  0  0  0  0
   -5.0140   -6.5125   -8.4878 C   0  0  0  0  0  0  0  0  0  0  0  0
   -5.3069   -6.4614   -7.1255 C   0  0  0  0  0  0  0  0  0  0  0  0
   -2.2013   -5.6710   -4.2071 N   0  0  0  0  0  0  0  0  0  0  0  0
   -3.0008   -5.0970   -4.4749 H   0  0  0  0  0  0  0  0  0  0  0  0
   -1.2929   -4.8000   -3.4911 C   0  0  0  0  0  0  0  0  0  0  0  0
   -1.2858   -2.4917   -2.8620 O   0  0  0  0  0  0  0  0  0  0  0  0
   -1.7675   -3.3700   -3.5703 C   0  0  0  0  0  0  0  0  0  0  0  0
   -2.7230   -3.1146   -4.4539 N   0  0  0  0  0  0  0  0  0  0  0  0
   -2.3430   -2.8557   -5.7651 O   0  0  0  0  0  0  0  0  0  0  0  0
 13 14  2  0  0  0
 14 15  1  0  0  0
 14 12  1  0  0  0
 15 16  2  0  0  0
 12 10  1  0  0  0
 10  1  1  0  0  0
  1  2  2  0  0  0
  1  3  2  0  0  0
  1  4  1  0  0  0
  4  5  2  0  0  0
  4  6  1  0  0  0
  5  9  1  0  0  0
  6  7  2  0  0  0
  7  8  1  0  0  0
  8  9  2  0  0  0
 10 11  1  0  0  0
M  END
> <minimizedAffinity>
-6.74134

$$$$
3F1A_HS7_A_0


 16 16  0  0  0  0  0  0  0  0999 V2000
   -3.5693   -5.7370   -6.7772 S   0  0  0  0  0  0  0  0  0  0  0  0
   -4.1540   -5.3465   -5.5196 O   0  0  0  0  0  0  0  0  0  0  0  0
   -2.8877   -4.6503   -7.4216 O   0  0  0  0  0  0  0  0  0  0  0  0
   -4.7403   -6.2640   -7.7440 C   0  0  0  0  0  0  0  0  0  0  0  0
   -5.9995   -6.6002   -7.2324 C   0  0  0  0  0  0  0  0  0  0  0  0
   -4.5207   -6.3811   -9.1193 C   0  0  0  0  0  0  0  0  0  0  0  0
   -5.5359   -6.8256   -9.9716 C   0  0  0  0  0  0  0  0  0  0  0  0
   -6.7874   -7.1492   -9.4480 C   0  0  0  0  0  0  0  0  0  0  0  0
   -7.0182   -7.0378   -8.0774 C   0  0  0  0  0  0  0  0  0  0  0  0
   -2.4932   -6.8967   -6.5240 N   0  0  0  0  0  0  0  0  0  0  0  0
   -2.9480   -7.7732   -6.7794 H   0  0  0  0  0  0  0  0  0  0  0  0
   -1.9059   -7.1053   -5.2170 C   0  0  0  0  0  0  0  0  0  0  0  0
   -0.1561   -5.5855   -5.8107 O   0  0  0  0  0  0  0  0  0  0  0  0
   -0.8786   -6.0385   -4.9287 C   0  0  0  0  0  0  0  0  0  0  0  0
   -0.8090   -5.6112   -3.6751 N   0  0  0  0  0  0  0  0  0  0  0  0
   -1.9776   -5.6096   -2.9234 O   0  0  0  0  0  0  0  0  0  0  0  0
 13 14  2  0  0  0
 14 15  1  0  0  0
 14 12  1  0  0  0
 15 16  2  0  0  0
 12 10  1  0  0  0
 10  1  1  0  0  0
  1  2  2  0  0  0
  1  3  2  0  0  0
  1  4  1  0  0  0
  4  5  2  0  0  0
  4  6  1  0  0  0
  5  9  1  0  0  0
  6  7  2  0  0  0
  7  8  1  0  0  0
  8  9  2  0  0  0
 10 11  1  0  0  0
M  END
> <minimizedAffinity>
-6.59933

$$$$
3F1A_HS7_A_0


 16 16  0  0  0  0  0  0  0  0999 V2000
   -2.1759   -5.0487   -6.3638 S   0  0  0  0  0  0  0  0  0  0  0  0
   -2.4204   -3.6479   -6.1317 O   0  0  0  0  0  0  0  0  0  0  0  0
   -0.9976   -5.2725   -7.1527 O   0  0  0  0  0  0  0  0  0  0  0  0
   -3.4436   -5.6685   -7.1336 C   0  0  0  0  0  0  0  0  0  0  0  0
   -4.5935   -6.0530   -6.4333 C   0  0  0  0  0  0  0  0  0  0  0  0
   -3.4209   -5.8198   -8.5227 C   0  0  0  0  0  0  0  0  0  0  0  0
   -4.5228   -6.3453   -9.2042 C   0  0  0  0  0  0  0  0  0  0  0  0
   -5.6639   -6.7165   -8.4935 C   0  0  0  0  0  0  0  0  0  0  0  0
   -5.6981   -6.5715   -7.1072 C   0  0  0  0  0  0  0  0  0  0  0  0
   -1.9617   -5.7892   -4.9594 N   0  0  0  0  0  0  0  0  0  0  0  0
   -1.7497   -5.0603   -4.2781 H   0  0  0  0  0  0  0  0  0  0  0  0
   -0.9491   -6.8110   -4.7947 C   0  0  0  0  0  0  0  0  0  0  0  0
   -0.5821   -7.3200   -2.4860 O   0  0  0  0  0  0  0  0  0  0  0  0
   -1.1871   -7.5830   -3.5204 C   0  0  0  0  0  0  0  0  0  0  0  0
   -2.0925   -8.5504   -3.5780 N   0  0  0  0  0  0  0  0  0  0  0  0
   -2.9013   -8.6170   -4.7060 O   0  0  0  0  0  0  0  0  0  0  0  0
 13 14  2  0  0  0
 14 15  1  0  0  0
 14 12  1  0  0  0
 15 16  2  0  0  0
 12 10  1  0  0  0
 10  1  1  0  0  0
  1  2  2  0  0  0
  1  3  2  0  0  0
  1  4  1  0  0  0
  4  5  2  0  0  0
  4  6  1  0  0  0
  5  9  1  0  0  0
  6  7  2  0  0  0
  7  8  1  0  0  0
  8  9  2  0  0  0
 10 11  1  0  0  0
M  END
> <minimizedAffinity>
-6.55992

$$$$
3F1A_HS7_A_0


 16 16  0  0  0  0  0  0  0  0999 V2000
   -2.8963   -5.6162   -6.4486 S   0  0  0  0  0  0  0  0  0  0  0  0
   -2.4314   -4.3277   -6.8952 O   0  0  0  0  0  0  0  0  0  0  0  0
   -1.8672   -6.6156   -6.5035 O   0  0  0  0  0  0  0  0  0  0  0  0
   -4.1173   -6.0735   -7.3886 C   0  0  0  0  0  0  0  0  0  0  0  0
   -3.9643   -6.1562   -8.7779 C   0  0  0  0  0  0  0  0  0  0  0  0
   -5.3520   -6.4108   -6.8274 C   0  0  0  0  0  0  0  0  0  0  0  0
   -6.4170   -6.8228   -7.6340 C   0  0  0  0  0  0  0  0  0  0  0  0
   -6.2467   -6.9077   -9.0157 C   0  0  0  0  0  0  0  0  0  0  0  0
   -5.0200   -6.5726   -9.5875 C   0  0  0  0  0  0  0  0  0  0  0  0
   -3.3787   -5.5065   -4.9247 N   0  0  0  0  0  0  0  0  0  0  0  0
   -4.3332   -5.8650   -4.8976 H   0  0  0  0  0  0  0  0  0  0  0  0
   -3.3985   -4.2352   -4.2318 C   0  0  0  0  0  0  0  0  0  0  0  0
   -2.5987   -4.5618   -2.0007 O   0  0  0  0  0  0  0  0  0  0  0  0
   -2.3473   -4.2128   -3.1497 C   0  0  0  0  0  0  0  0  0  0  0  0
   -1.1376   -3.8073   -3.5119 N   0  0  0  0  0  0  0  0  0  0  0  0
   -0.3364   -4.6994   -4.2140 O   0  0  0  0  0  0  0  0  0  0  0  0
 13 14  2  0  0  0
 14 15  1  0  0  0
 14 12  1  0  0  0
 15 16  2  0  0  0
 12 10  1  0  0  0
 10  1  1  0  0  0
  1  2  2  0  0  0
  1  3  2  0  0  0
  1  4  1  0  0  0
  4  5  2  0  0  0
  4  6  1  0  0  0
  5  9  1  0  0  0
  6  7  2  0  0  0
  7  8  1  0  0  0
  8  9  2  0  0  0
 10 11  1  0  0  0
M  END
> <minimizedAffinity>
-6.48336

$$$$
3F1A_HS7_A_0


 16 16  0  0  0  0  0  0  0  0999 V2000
   -2.3471   -4.7005   -4.3665 S   0  0  0  0  0  0  0  0  0  0  0  0
   -1.8536   -5.7849   -3.5562 O   0  0  0  0  0  0  0  0  0  0  0  0
   -3.5144   -4.0854   -3.8008 O   0  0  0  0  0  0  0  0  0  0  0  0
   -2.7148   -5.2756   -5.8218 C   0  0  0  0  0  0  0  0  0  0  0  0
   -1.7412   -5.3762   -6.8230 C   0  0  0  0  0  0  0  0  0  0  0  0
   -4.0161   -5.6991   -6.1051 C   0  0  0  0  0  0  0  0  0  0  0  0
   -4.3443   -6.2134   -7.3631 C   0  0  0  0  0  0  0  0  0  0  0  0
   -3.3617   -6.3146   -8.3476 C   0  0  0  0  0  0  0  0  0  0  0  0
   -2.0600   -5.8942   -8.0773 C   0  0  0  0  0  0  0  0  0  0  0  0
   -1.2177   -3.5703   -4.4844 N   0  0  0  0  0  0  0  0  0  0  0  0
   -0.3364   -4.0151   -4.2279 H   0  0  0  0  0  0  0  0  0  0  0  0
   -1.2970   -2.3450   -3.7169 C   0  0  0  0  0  0  0  0  0  0  0  0
   -1.9815   -1.2877   -5.7510 O   0  0  0  0  0  0  0  0  0  0  0  0
   -1.4851   -1.1633   -4.6360 C   0  0  0  0  0  0  0  0  0  0  0  0
   -1.0961    0.0150   -4.1677 N   0  0  0  0  0  0  0  0  0  0  0  0
   -1.2850    1.1297   -4.9755 O   0  0  0  0  0  0  0  0  0  0  0  0
 13 14  2  0  0  0
 14 15  1  0  0  0
 14 12  1  0  0  0
 15 16  2  0  0  0
 12 10  1  0  0  0
 10  1  1  0  0  0
  1  2  2  0  0  0
  1  3  2  0  0  0
  1  4  1  0  0  0
  4  5  2  0  0  0
  4  6  1  0  0  0
  5  9  1  0  0  0
  6  7  2  0  0  0
  7  8  1  0  0  0
  8  9  2  0  0  0
 10 11  1  0  0  0
M  END
> <minimizedAffinity>
-6.14266

$$$$
3F1A_HS7_A_0


 16 16  0  0  0  0  0  0  0  0999 V2000
   -3.6970   -6.0092   -8.4620 S   0  0  0  0  0  0  0  0  0  0  0  0
   -3.4626   -7.1126   -9.3584 O   0  0  0  0  0  0  0  0  0  0  0  0
   -3.4167   -4.7413   -9.0740 O   0  0  0  0  0  0  0  0  0  0  0  0
   -2.7514   -6.1865   -7.1743 C   0  0  0  0  0  0  0  0  0  0  0  0
   -3.0490   -7.1345   -6.1878 C   0  0  0  0  0  0  0  0  0  0  0  0
   -1.6042   -5.4018   -7.0279 C   0  0  0  0  0  0  0  0  0  0  0  0
   -0.7672   -5.5566   -5.9187 C   0  0  0  0  0  0  0  0  0  0  0  0
   -1.0727   -6.5106   -4.9484 C   0  0  0  0  0  0  0  0  0  0  0  0
   -2.2152   -7.2986   -5.0827 C   0  0  0  0  0  0  0  0  0  0  0  0
   -5.2379   -6.0009   -8.0233 N   0  0  0  0  0  0  0  0  0  0  0  0
   -5.2629   -5.6573   -7.0632 H   0  0  0  0  0  0  0  0  0  0  0  0
   -6.0330   -7.2109   -8.0463 C   0  0  0  0  0  0  0  0  0  0  0  0
   -7.1581   -6.3618   -9.9795 O   0  0  0  0  0  0  0  0  0  0  0  0
   -7.2229   -7.0377   -8.9577 C   0  0  0  0  0  0  0  0  0  0  0  0
   -8.3353   -7.6647   -8.5996 N   0  0  0  0  0  0  0  0  0  0  0  0
   -8.3724   -9.0476   -8.7299 O   0  0  0  0  0  0  0  0  0  0  0  0
 13 14  2  0  0  0
 14 15  1  0  0  0
 14 12  1  0  0  0
 15 16  2  0  0  0
 12 10  1  0  0  0
 10  1  1  0  0  0
  1  2  2  0  0  0
  1  3  2  0  0  0
  1  4  1  0  0  0
  4  5  2  0  0  0
  4  6  1  0  0  0
  5  9  1  0  0  0
  6  7  2  0  0  0
  7  8  1  0  0  0
  8  9  2  0  0  0
 10 11  1  0  0  0
M  END
> <minimizedAffinity>
-6.12363

$$$$
3F1A_HS7_A_0


 16 16  0  0  0  0  0  0  0  0999 V2000
   -2.0012   -5.2592   -6.7447 S   0  0  0  0  0  0  0  0  0  0  0  0
   -3.2817   -5.4829   -7.3660 O   0  0  0  0  0  0  0  0  0  0  0  0
   -0.9201   -5.3219   -7.6871 O   0  0  0  0  0  0  0  0  0  0  0  0
   -1.7759   -6.3833   -5.6180 C   0  0  0  0  0  0  0  0  0  0  0  0
   -0.7774   -6.2392   -4.6470 C   0  0  0  0  0  0  0  0  0  0  0  0
   -2.5879   -7.5202   -5.5832 C   0  0  0  0  0  0  0  0  0  0  0  0
   -2.4098   -8.4980   -4.5998 C   0  0  0  0  0  0  0  0  0  0  0  0
   -1.4161   -8.3364   -3.6347 C   0  0  0  0  0  0  0  0  0  0  0  0
   -0.5987   -7.2070   -3.6597 C   0  0  0  0  0  0  0  0  0  0  0  0
   -1.9798   -3.7991   -6.0854 N   0  0  0  0  0  0  0  0  0  0  0  0
   -0.9991   -3.5687   -5.9258 H   0  0  0  0  0  0  0  0  0  0  0  0
   -2.6726   -3.5243   -4.8439 C   0  0  0  0  0  0  0  0  0  0  0  0
   -1.2238   -3.1094   -2.9858 O   0  0  0  0  0  0  0  0  0  0  0  0
   -1.8236   -2.6514   -3.9531 C   0  0  0  0  0  0  0  0  0  0  0  0
   -1.7528   -1.3681   -4.2803 N   0  0  0  0  0  0  0  0  0  0  0  0
   -1.8493   -1.0343   -5.6257 O   0  0  0  0  0  0  0  0  0  0  0  0
 13 14  2  0  0  0
 14 15  1  0  0  0
 14 12  1  0  0  0
 15 16  2  0  0  0
 12 10  1  0  0  0
 10  1  1  0  0  0
  1  2  2  0  0  0
  1  3  2  0  0  0
  1  4  1  0  0  0
  4  5  2  0  0  0
  4  6  1  0  0  0
  5  9  1  0  0  0
  6  7  2  0  0  0
  7  8  1  0  0  0
  8  9  2  0  0  0
 10 11  1  0  0  0
M  END
> <minimizedAffinity>
-5.78226

$$$$
