1HI5_ADP_A_999


 34 36  0  0  0  0  0  0  0  0999 V2000
   12.3677   14.0976    7.8107 C   0  0  0  0  0  0  0  0  0  0  0  0
   12.9874   13.8519    6.5157 O   0  0  0  0  0  0  0  0  0  0  0  0
   13.4954   14.0614    8.8426 C   0  0  0  0  0  0  0  0  0  0  0  0
   13.6331   12.7621    9.4238 O   0  0  0  0  0  0  0  0  0  0  0  0
   14.7268   14.4076    8.0138 C   0  0  0  0  0  0  0  0  0  0  0  0
   15.9130   13.8807    8.5810 O   0  0  0  0  0  0  0  0  0  0  0  0
   14.3941   13.7541    6.6669 C   0  0  0  0  0  0  0  0  0  0  0  0
   13.7892   12.1094    8.7234 H   0  0  0  0  0  0  0  0  0  0  0  0
   15.8252   12.9197    8.6793 H   0  0  0  0  0  0  0  0  0  0  0  0
   15.0164   14.4152    5.5112 N   0  0  0  0  0  0  0  0  0  0  0  0
   14.8601   15.7311    5.1224 C   0  0  0  0  0  0  0  0  0  0  0  0
   15.5408   16.0535    4.0432 N   0  0  0  0  0  0  0  0  0  0  0  0
   16.1860   14.8774    3.6914 C   0  0  0  0  0  0  0  0  0  0  0  0
   17.0655   14.5549    2.6256 C   0  0  0  0  0  0  0  0  0  0  0  0
   17.4434   15.4340    1.6937 N   0  0  0  0  0  0  0  0  0  0  0  0
   17.5437   13.2801    2.5561 N   0  0  0  0  0  0  0  0  0  0  0  0
   17.1561   12.3912    3.5003 C   0  0  0  0  0  0  0  0  0  0  0  0
   16.3317   12.5798    4.5515 N   0  0  0  0  0  0  0  0  0  0  0  0
   15.8761   13.8541    4.5901 C   0  0  0  0  0  0  0  0  0  0  0  0
   17.1095   16.3595    1.7258 H   0  0  0  0  0  0  0  0  0  0  0  0
   18.0560   15.1564    0.9747 H   0  0  0  0  0  0  0  0  0  0  0  0
   11.5688   15.3858    7.7466 C   0  0  0  0  0  0  0  0  0  0  0  0
   10.1509   15.1035    7.7836 O   0  0  0  0  0  0  0  0  0  0  0  0
    9.4302   14.5572    9.1411 P   0  0  0  0  0  0  0  0  0  0  0  0
    8.1570   15.3750    9.2953 O   0  0  0  0  0  0  0  0  0  0  0  0
    9.1464   13.0851    8.9049 O   0  0  0  0  0  0  0  0  0  0  0  0
    8.7148   12.7093    9.6881 H   0  0  0  0  0  0  0  0  0  0  0  0
   10.4239   14.7622   10.2846 O   0  0  0  0  0  0  0  0  0  0  0  0
   10.6624   14.1278   11.6453 P   0  0  0  0  0  0  0  0  0  0  0  0
   12.1411   13.8199   11.8033 O   0  0  0  0  0  0  0  0  0  0  0  0
    9.8739   12.8411   11.7770 O   0  0  0  0  0  0  0  0  0  0  0  0
   10.2476   15.1253   12.7105 O   0  0  0  0  0  0  0  0  0  0  0  0
   10.0370   12.4497   12.6494 H   0  0  0  0  0  0  0  0  0  0  0  0
   10.3921   14.7394   13.5887 H   0  0  0  0  0  0  0  0  0  0  0  0
 29 30  2  0  0  0
 29 31  1  0  0  0
 29 32  1  0  0  0
 29 28  1  0  0  0
 24 25  2  0  0  0
 24 26  1  0  0  0
 24 28  1  0  0  0
 24 23  1  0  0  0
 23 22  1  0  0  0
 22  1  1  0  0  0
  1  2  1  0  0  0
  1  3  1  0  0  0
  2  7  1  0  0  0
  3  4  1  0  0  0
  3  5  1  0  0  0
  5  6  1  0  0  0
  5  7  1  0  0  0
  7 10  1  0  0  0
 10 11  1  0  0  0
 10 19  1  0  0  0
 11 12  2  0  0  0
 12 13  1  0  0  0
 13 14  1  0  0  0
 13 19  2  0  0  0
 14 15  1  0  0  0
 14 16  2  0  0  0
 16 17  1  0  0  0
 17 18  2  0  0  0
 18 19  1  0  0  0
 31 33  1  0  0  0
 32 34  1  0  0  0
 26 27  1  0  0  0
  4  8  1  0  0  0
  6  9  1  0  0  0
 15 20  1  0  0  0
 15 21  1  0  0  0
M  END
> <minimizedAffinity>
-8.47362

$$$$
1HI5_ADP_A_999


 34 36  0  0  0  0  0  0  0  0999 V2000
   13.3733   14.0737    8.9658 C   0  0  0  0  0  0  0  0  0  0  0  0
   13.7581   13.2459    7.8309 O   0  0  0  0  0  0  0  0  0  0  0  0
   14.1273   15.3950    8.8114 C   0  0  0  0  0  0  0  0  0  0  0  0
   15.3567   15.3859    9.5416 O   0  0  0  0  0  0  0  0  0  0  0  0
   14.3980   15.4596    7.3128 C   0  0  0  0  0  0  0  0  0  0  0  0
   15.5393   16.2432    7.0134 O   0  0  0  0  0  0  0  0  0  0  0  0
   14.6092   13.9806    6.9666 C   0  0  0  0  0  0  0  0  0  0  0  0
   15.9043   14.6427    9.2435 H   0  0  0  0  0  0  0  0  0  0  0  0
   16.3085   15.8877    7.4856 H   0  0  0  0  0  0  0  0  0  0  0  0
   14.2525   13.6329    5.5839 N   0  0  0  0  0  0  0  0  0  0  0  0
   13.0174   13.7755    4.9829 C   0  0  0  0  0  0  0  0  0  0  0  0
   12.9857   13.3813    3.7276 N   0  0  0  0  0  0  0  0  0  0  0  0
   14.2792   12.9462    3.4813 C   0  0  0  0  0  0  0  0  0  0  0  0
   14.8977   12.4013    2.3263 C   0  0  0  0  0  0  0  0  0  0  0  0
   14.2530   12.1992    1.1741 N   0  0  0  0  0  0  0  0  0  0  0  0
   16.2176   12.0689    2.4057 N   0  0  0  0  0  0  0  0  0  0  0  0
   16.8668   12.2721    3.5757 C   0  0  0  0  0  0  0  0  0  0  0  0
   16.3886   12.7787    4.7312 N   0  0  0  0  0  0  0  0  0  0  0  0
   15.0778   13.0974    4.6172 C   0  0  0  0  0  0  0  0  0  0  0  0
   13.2998   12.4324    1.0960 H   0  0  0  0  0  0  0  0  0  0  0  0
   14.7311   11.8170    0.4030 H   0  0  0  0  0  0  0  0  0  0  0  0
   11.8606   14.1761    9.0203 C   0  0  0  0  0  0  0  0  0  0  0  0
   11.3263   13.2507    9.9947 O   0  0  0  0  0  0  0  0  0  0  0  0
    9.9265   13.5553   10.7748 P   0  0  0  0  0  0  0  0  0  0  0  0
    8.8320   13.4506    9.7238 O   0  0  0  0  0  0  0  0  0  0  0  0
    9.8010   12.4893   11.8480 O   0  0  0  0  0  0  0  0  0  0  0  0
    8.9792   12.6259   12.3448 H   0  0  0  0  0  0  0  0  0  0  0  0
   10.0515   14.9527   11.3819 O   0  0  0  0  0  0  0  0  0  0  0  0
   10.8921   15.5926   12.4751 P   0  0  0  0  0  0  0  0  0  0  0  0
   10.4774   17.0440   12.6423 O   0  0  0  0  0  0  0  0  0  0  0  0
   12.3625   15.5381   12.1149 O   0  0  0  0  0  0  0  0  0  0  0  0
   10.6268   14.8493   13.7708 O   0  0  0  0  0  0  0  0  0  0  0  0
   12.8839   15.9499   12.8216 H   0  0  0  0  0  0  0  0  0  0  0  0
   11.1547   15.2427   14.4831 H   0  0  0  0  0  0  0  0  0  0  0  0
 29 30  2  0  0  0
 29 31  1  0  0  0
 29 32  1  0  0  0
 29 28  1  0  0  0
 24 25  2  0  0  0
 24 26  1  0  0  0
 24 28  1  0  0  0
 24 23  1  0  0  0
 23 22  1  0  0  0
 22  1  1  0  0  0
  1  2  1  0  0  0
  1  3  1  0  0  0
  2  7  1  0  0  0
  3  4  1  0  0  0
  3  5  1  0  0  0
  5  6  1  0  0  0
  5  7  1  0  0  0
  7 10  1  0  0  0
 10 11  1  0  0  0
 10 19  1  0  0  0
 11 12  2  0  0  0
 12 13  1  0  0  0
 13 14  1  0  0  0
 13 19  2  0  0  0
 14 15  1  0  0  0
 14 16  2  0  0  0
 16 17  1  0  0  0
 17 18  2  0  0  0
 18 19  1  0  0  0
 31 33  1  0  0  0
 32 34  1  0  0  0
 26 27  1  0  0  0
  4  8  1  0  0  0
  6  9  1  0  0  0
 15 20  1  0  0  0
 15 21  1  0  0  0
M  END
> <minimizedAffinity>
-8.29199

$$$$
1HI5_ADP_A_999


 34 36  0  0  0  0  0  0  0  0999 V2000
   12.5840   15.9504    6.2793 C   0  0  0  0  0  0  0  0  0  0  0  0
   13.6343   15.5696    5.3449 O   0  0  0  0  0  0  0  0  0  0  0  0
   11.4256   14.9802    6.0451 C   0  0  0  0  0  0  0  0  0  0  0  0
   10.4704   15.5159    5.1256 O   0  0  0  0  0  0  0  0  0  0  0  0
   12.1176   13.7618    5.4452 C   0  0  0  0  0  0  0  0  0  0  0  0
   11.2421   13.0019    4.6313 O   0  0  0  0  0  0  0  0  0  0  0  0
   13.2439   14.4088    4.6298 C   0  0  0  0  0  0  0  0  0  0  0  0
   10.9119   15.7299    4.2888 H   0  0  0  0  0  0  0  0  0  0  0  0
   10.8775   13.5675    3.9327 H   0  0  0  0  0  0  0  0  0  0  0  0
   14.4324   13.5587    4.4716 N   0  0  0  0  0  0  0  0  0  0  0  0
   14.7083   12.3824    5.1404 C   0  0  0  0  0  0  0  0  0  0  0  0
   15.8516   11.8284    4.7969 N   0  0  0  0  0  0  0  0  0  0  0  0
   16.3687   12.6929    3.8437 C   0  0  0  0  0  0  0  0  0  0  0  0
   17.5694   12.6702    3.0879 C   0  0  0  0  0  0  0  0  0  0  0  0
   18.4873   11.7059    3.1962 N   0  0  0  0  0  0  0  0  0  0  0  0
   17.7899   13.6890    2.2092 N   0  0  0  0  0  0  0  0  0  0  0  0
   16.8591   14.6659    2.1044 C   0  0  0  0  0  0  0  0  0  0  0  0
   15.6895   14.7939    2.7646 N   0  0  0  0  0  0  0  0  0  0  0  0
   15.5028   13.7672    3.6271 C   0  0  0  0  0  0  0  0  0  0  0  0
   18.3472   10.9613    3.8249 H   0  0  0  0  0  0  0  0  0  0  0  0
   19.3039   11.7398    2.6474 H   0  0  0  0  0  0  0  0  0  0  0  0
   13.1516   15.9778    7.6860 C   0  0  0  0  0  0  0  0  0  0  0  0
   12.2899   15.2523    8.5929 O   0  0  0  0  0  0  0  0  0  0  0  0
   12.8894   14.1412    9.6258 P   0  0  0  0  0  0  0  0  0  0  0  0
   13.7378   13.2023    8.7818 O   0  0  0  0  0  0  0  0  0  0  0  0
   13.7147   14.9107   10.6408 O   0  0  0  0  0  0  0  0  0  0  0  0
   14.0965   14.2920   11.2829 H   0  0  0  0  0  0  0  0  0  0  0  0
   11.6922   13.4520   10.2804 O   0  0  0  0  0  0  0  0  0  0  0  0
   10.5858   13.8688   11.2360 P   0  0  0  0  0  0  0  0  0  0  0  0
   11.2026   14.4739   12.4848 O   0  0  0  0  0  0  0  0  0  0  0  0
    9.7463   12.6713   11.6311 O   0  0  0  0  0  0  0  0  0  0  0  0
    9.7357   14.9183   10.5450 O   0  0  0  0  0  0  0  0  0  0  0  0
    9.0461   12.9540   12.2399 H   0  0  0  0  0  0  0  0  0  0  0  0
    9.0219   15.1986   11.1390 H   0  0  0  0  0  0  0  0  0  0  0  0
 29 30  2  0  0  0
 29 31  1  0  0  0
 29 32  1  0  0  0
 29 28  1  0  0  0
 24 25  2  0  0  0
 24 26  1  0  0  0
 24 28  1  0  0  0
 24 23  1  0  0  0
 23 22  1  0  0  0
 22  1  1  0  0  0
  1  2  1  0  0  0
  1  3  1  0  0  0
  2  7  1  0  0  0
  3  4  1  0  0  0
  3  5  1  0  0  0
  5  6  1  0  0  0
  5  7  1  0  0  0
  7 10  1  0  0  0
 10 11  1  0  0  0
 10 19  1  0  0  0
 11 12  2  0  0  0
 12 13  1  0  0  0
 13 14  1  0  0  0
 13 19  2  0  0  0
 14 15  1  0  0  0
 14 16  2  0  0  0
 16 17  1  0  0  0
 17 18  2  0  0  0
 18 19  1  0  0  0
 31 33  1  0  0  0
 32 34  1  0  0  0
 26 27  1  0  0  0
  4  8  1  0  0  0
  6  9  1  0  0  0
 15 20  1  0  0  0
 15 21  1  0  0  0
M  END
> <minimizedAffinity>
-7.63530

$$$$
1HI5_ADP_A_999


 34 36  0  0  0  0  0  0  0  0999 V2000
   12.3428   14.0936    7.8207 C   0  0  0  0  0  0  0  0  0  0  0  0
   12.9403   13.6869    6.5563 O   0  0  0  0  0  0  0  0  0  0  0  0
   13.4774   14.1209    8.8453 C   0  0  0  0  0  0  0  0  0  0  0  0
   13.5682   12.8860    9.5607 O   0  0  0  0  0  0  0  0  0  0  0  0
   14.7142   14.3267    7.9785 C   0  0  0  0  0  0  0  0  0  0  0  0
   15.8834   13.8149    8.5928 O   0  0  0  0  0  0  0  0  0  0  0  0
   14.3433   13.5482    6.7103 C   0  0  0  0  0  0  0  0  0  0  0  0
   13.6916   12.1570    8.9329 H   0  0  0  0  0  0  0  0  0  0  0  0
   15.7580   12.8741    8.7931 H   0  0  0  0  0  0  0  0  0  0  0  0
   14.9811   14.0571    5.4879 N   0  0  0  0  0  0  0  0  0  0  0  0
   15.7988   13.3567    4.6232 C   0  0  0  0  0  0  0  0  0  0  0  0
   16.2310   14.0674    3.6033 N   0  0  0  0  0  0  0  0  0  0  0  0
   15.6682   15.3187    3.8057 C   0  0  0  0  0  0  0  0  0  0  0  0
   15.7459   16.5291    3.0693 C   0  0  0  0  0  0  0  0  0  0  0  0
   16.4561   16.6608    1.9457 N   0  0  0  0  0  0  0  0  0  0  0  0
   15.0582   17.6080    3.5401 N   0  0  0  0  0  0  0  0  0  0  0  0
   14.3422   17.4716    4.6805 C   0  0  0  0  0  0  0  0  0  0  0  0
   14.1944   16.3810    5.4608 N   0  0  0  0  0  0  0  0  0  0  0  0
   14.8891   15.3301    4.9649 C   0  0  0  0  0  0  0  0  0  0  0  0
   16.9598   15.8939    1.5890 H   0  0  0  0  0  0  0  0  0  0  0  0
   16.4759   17.5249    1.4744 H   0  0  0  0  0  0  0  0  0  0  0  0
   11.5957   15.3993    7.6240 C   0  0  0  0  0  0  0  0  0  0  0  0
   11.2142   15.9607    8.9010 O   0  0  0  0  0  0  0  0  0  0  0  0
    9.7181   15.7386    9.5118 P   0  0  0  0  0  0  0  0  0  0  0  0
    9.0246   17.0891    9.4176 O   0  0  0  0  0  0  0  0  0  0  0  0
    9.0576   14.6875    8.6386 O   0  0  0  0  0  0  0  0  0  0  0  0
    8.1588   14.5173    8.9614 H   0  0  0  0  0  0  0  0  0  0  0  0
    9.8937   15.2469   10.9486 O   0  0  0  0  0  0  0  0  0  0  0  0
   11.0624   14.7908   11.8071 P   0  0  0  0  0  0  0  0  0  0  0  0
   10.6879   14.9180   13.2733 O   0  0  0  0  0  0  0  0  0  0  0  0
   12.2855   15.6420   11.5348 O   0  0  0  0  0  0  0  0  0  0  0  0
   11.3394   13.3329   11.4914 O   0  0  0  0  0  0  0  0  0  0  0  0
   13.0209   15.3383   12.0897 H   0  0  0  0  0  0  0  0  0  0  0  0
   12.0836   13.0212   12.0298 H   0  0  0  0  0  0  0  0  0  0  0  0
 29 30  2  0  0  0
 29 31  1  0  0  0
 29 32  1  0  0  0
 29 28  1  0  0  0
 24 25  2  0  0  0
 24 26  1  0  0  0
 24 28  1  0  0  0
 24 23  1  0  0  0
 23 22  1  0  0  0
 22  1  1  0  0  0
  1  2  1  0  0  0
  1  3  1  0  0  0
  2  7  1  0  0  0
  3  4  1  0  0  0
  3  5  1  0  0  0
  5  6  1  0  0  0
  5  7  1  0  0  0
  7 10  1  0  0  0
 10 11  1  0  0  0
 10 19  1  0  0  0
 11 12  2  0  0  0
 12 13  1  0  0  0
 13 14  1  0  0  0
 13 19  2  0  0  0
 14 15  1  0  0  0
 14 16  2  0  0  0
 16 17  1  0  0  0
 17 18  2  0  0  0
 18 19  1  0  0  0
 31 33  1  0  0  0
 32 34  1  0  0  0
 26 27  1  0  0  0
  4  8  1  0  0  0
  6  9  1  0  0  0
 15 20  1  0  0  0
 15 21  1  0  0  0
M  END
> <minimizedAffinity>
-7.61327

$$$$
1HI5_ADP_A_999


 34 36  0  0  0  0  0  0  0  0999 V2000
   14.3536   15.8512    7.3565 C   0  0  0  0  0  0  0  0  0  0  0  0
   14.6438   14.7097    6.4999 O   0  0  0  0  0  0  0  0  0  0  0  0
   14.9516   17.0751    6.6619 C   0  0  0  0  0  0  0  0  0  0  0  0
   16.2698   17.3571    7.1389 O   0  0  0  0  0  0  0  0  0  0  0  0
   14.9939   16.6496    5.1989 C   0  0  0  0  0  0  0  0  0  0  0  0
   16.0021   17.3339    4.4766 O   0  0  0  0  0  0  0  0  0  0  0  0
   15.2883   15.1490    5.3155 C   0  0  0  0  0  0  0  0  0  0  0  0
   16.8345   16.5794    7.0076 H   0  0  0  0  0  0  0  0  0  0  0  0
   16.8614   17.1857    4.9016 H   0  0  0  0  0  0  0  0  0  0  0  0
   14.7676   14.3486    4.1982 N   0  0  0  0  0  0  0  0  0  0  0  0
   13.6295   13.5665    4.1952 C   0  0  0  0  0  0  0  0  0  0  0  0
   13.4028   12.9580    3.0505 N   0  0  0  0  0  0  0  0  0  0  0  0
   14.4583   13.3580    2.2447 C   0  0  0  0  0  0  0  0  0  0  0  0
   14.8005   13.0539    0.9016 C   0  0  0  0  0  0  0  0  0  0  0  0
   14.0777   12.2420    0.1254 N   0  0  0  0  0  0  0  0  0  0  0  0
   15.9266   13.6231    0.3852 N   0  0  0  0  0  0  0  0  0  0  0  0
   16.6582   14.4427    1.1757 C   0  0  0  0  0  0  0  0  0  0  0  0
   16.4348   14.8031    2.4564 N   0  0  0  0  0  0  0  0  0  0  0  0
   15.3109   14.2211    2.9368 C   0  0  0  0  0  0  0  0  0  0  0  0
   13.2611   11.8209    0.4791 H   0  0  0  0  0  0  0  0  0  0  0  0
   14.3615   12.0647   -0.8005 H   0  0  0  0  0  0  0  0  0  0  0  0
   12.8620   15.9062    7.6286 C   0  0  0  0  0  0  0  0  0  0  0  0
   12.3937   14.6354    8.1357 O   0  0  0  0  0  0  0  0  0  0  0  0
   12.8263   14.1013    9.6150 P   0  0  0  0  0  0  0  0  0  0  0  0
   13.9550   13.1078    9.3859 O   0  0  0  0  0  0  0  0  0  0  0  0
   13.2817   15.3250   10.3889 O   0  0  0  0  0  0  0  0  0  0  0  0
   13.5519   15.0606   11.2822 H   0  0  0  0  0  0  0  0  0  0  0  0
   11.5822   13.4709   10.2408 O   0  0  0  0  0  0  0  0  0  0  0  0
   10.5459   13.8976   11.2679 P   0  0  0  0  0  0  0  0  0  0  0  0
    9.6297   14.9409   10.6530 O   0  0  0  0  0  0  0  0  0  0  0  0
   11.2203   14.4909   12.4878 O   0  0  0  0  0  0  0  0  0  0  0  0
    9.7255   12.6785   11.6453 O   0  0  0  0  0  0  0  0  0  0  0  0
   10.5462   14.7575   13.1323 H   0  0  0  0  0  0  0  0  0  0  0  0
    9.0566   12.9294   12.3015 H   0  0  0  0  0  0  0  0  0  0  0  0
 29 30  2  0  0  0
 29 31  1  0  0  0
 29 32  1  0  0  0
 29 28  1  0  0  0
 24 25  2  0  0  0
 24 26  1  0  0  0
 24 28  1  0  0  0
 24 23  1  0  0  0
 23 22  1  0  0  0
 22  1  1  0  0  0
  1  2  1  0  0  0
  1  3  1  0  0  0
  2  7  1  0  0  0
  3  4  1  0  0  0
  3  5  1  0  0  0
  5  6  1  0  0  0
  5  7  1  0  0  0
  7 10  1  0  0  0
 10 11  1  0  0  0
 10 19  1  0  0  0
 11 12  2  0  0  0
 12 13  1  0  0  0
 13 14  1  0  0  0
 13 19  2  0  0  0
 14 15  1  0  0  0
 14 16  2  0  0  0
 16 17  1  0  0  0
 17 18  2  0  0  0
 18 19  1  0  0  0
 31 33  1  0  0  0
 32 34  1  0  0  0
 26 27  1  0  0  0
  4  8  1  0  0  0
  6  9  1  0  0  0
 15 20  1  0  0  0
 15 21  1  0  0  0
M  END
> <minimizedAffinity>
-7.59390

$$$$
1HI5_ADP_A_999


 34 36  0  0  0  0  0  0  0  0999 V2000
   10.1813   15.0470    5.7869 C   0  0  0  0  0  0  0  0  0  0  0  0
   11.1955   14.9940    4.7430 O   0  0  0  0  0  0  0  0  0  0  0  0
    9.1959   13.9165    5.4889 C   0  0  0  0  0  0  0  0  0  0  0  0
    8.0837   14.3795    4.7183 O   0  0  0  0  0  0  0  0  0  0  0  0
   10.0359   12.9374    4.6772 C   0  0  0  0  0  0  0  0  0  0  0  0
    9.2395   12.1399    3.8192 O   0  0  0  0  0  0  0  0  0  0  0  0
   10.9541   13.8839    3.8942 C   0  0  0  0  0  0  0  0  0  0  0  0
    8.4049   14.7792    3.8950 H   0  0  0  0  0  0  0  0  0  0  0  0
    8.7207   12.7136    3.2339 H   0  0  0  0  0  0  0  0  0  0  0  0
   12.2550   13.2986    3.5404 N   0  0  0  0  0  0  0  0  0  0  0  0
   12.6923   12.9449    2.2791 C   0  0  0  0  0  0  0  0  0  0  0  0
   13.9080   12.4413    2.2572 N   0  0  0  0  0  0  0  0  0  0  0  0
   14.3006   12.4580    3.5872 C   0  0  0  0  0  0  0  0  0  0  0  0
   15.4957   12.0484    4.2333 C   0  0  0  0  0  0  0  0  0  0  0  0
   16.5381   11.5224    3.5847 N   0  0  0  0  0  0  0  0  0  0  0  0
   15.5753   12.2024    5.5856 N   0  0  0  0  0  0  0  0  0  0  0  0
   14.5159   12.7328    6.2399 C   0  0  0  0  0  0  0  0  0  0  0  0
   13.3370   13.1551    5.7378 N   0  0  0  0  0  0  0  0  0  0  0  0
   13.2921   12.9881    4.3951 C   0  0  0  0  0  0  0  0  0  0  0  0
   16.5009   11.4027    2.6082 H   0  0  0  0  0  0  0  0  0  0  0  0
   17.3437   11.2544    4.0831 H   0  0  0  0  0  0  0  0  0  0  0  0
   10.8572   14.9966    7.1443 C   0  0  0  0  0  0  0  0  0  0  0  0
    9.9648   14.4325    8.1326 O   0  0  0  0  0  0  0  0  0  0  0  0
    9.2958   15.3578    9.2974 P   0  0  0  0  0  0  0  0  0  0  0  0
    9.5346   16.7990    8.8736 O   0  0  0  0  0  0  0  0  0  0  0  0
    7.8209   15.0004    9.3250 O   0  0  0  0  0  0  0  0  0  0  0  0
    7.3734   15.5266   10.0059 H   0  0  0  0  0  0  0  0  0  0  0  0
    9.9884   14.9896   10.6094 O   0  0  0  0  0  0  0  0  0  0  0  0
   10.7320   13.7761   11.1438 P   0  0  0  0  0  0  0  0  0  0  0  0
   11.6408   14.2055   12.2822 O   0  0  0  0  0  0  0  0  0  0  0  0
   11.5725   13.1454   10.0528 O   0  0  0  0  0  0  0  0  0  0  0  0
    9.7076   12.7899   11.6729 O   0  0  0  0  0  0  0  0  0  0  0  0
   12.0396   12.3738   10.4097 H   0  0  0  0  0  0  0  0  0  0  0  0
   10.1622   12.0063   12.0195 H   0  0  0  0  0  0  0  0  0  0  0  0
 29 30  2  0  0  0
 29 31  1  0  0  0
 29 32  1  0  0  0
 29 28  1  0  0  0
 24 25  2  0  0  0
 24 26  1  0  0  0
 24 28  1  0  0  0
 24 23  1  0  0  0
 23 22  1  0  0  0
 22  1  1  0  0  0
  1  2  1  0  0  0
  1  3  1  0  0  0
  2  7  1  0  0  0
  3  4  1  0  0  0
  3  5  1  0  0  0
  5  6  1  0  0  0
  5  7  1  0  0  0
  7 10  1  0  0  0
 10 11  1  0  0  0
 10 19  1  0  0  0
 11 12  2  0  0  0
 12 13  1  0  0  0
 13 14  1  0  0  0
 13 19  2  0  0  0
 14 15  1  0  0  0
 14 16  2  0  0  0
 16 17  1  0  0  0
 17 18  2  0  0  0
 18 19  1  0  0  0
 31 33  1  0  0  0
 32 34  1  0  0  0
 26 27  1  0  0  0
  4  8  1  0  0  0
  6  9  1  0  0  0
 15 20  1  0  0  0
 15 21  1  0  0  0
M  END
> <minimizedAffinity>
-7.57230

$$$$
1HI5_ADP_A_999


 34 36  0  0  0  0  0  0  0  0999 V2000
   13.3204   15.9249    8.6854 C   0  0  0  0  0  0  0  0  0  0  0  0
   13.5429   14.7094    7.9145 O   0  0  0  0  0  0  0  0  0  0  0  0
   14.3115   16.9607    8.1537 C   0  0  0  0  0  0  0  0  0  0  0  0
   15.5157   16.9786    8.9247 O   0  0  0  0  0  0  0  0  0  0  0  0
   14.5920   16.4688    6.7386 C   0  0  0  0  0  0  0  0  0  0  0  0
   15.8617   16.8896    6.2729 O   0  0  0  0  0  0  0  0  0  0  0  0
   14.5194   14.9470    6.9138 C   0  0  0  0  0  0  0  0  0  0  0  0
   15.9129   16.0937    8.9246 H   0  0  0  0  0  0  0  0  0  0  0  0
   16.5487   16.5825    6.8849 H   0  0  0  0  0  0  0  0  0  0  0  0
   14.1054   14.2244    5.7028 N   0  0  0  0  0  0  0  0  0  0  0  0
   12.9027   13.5804    5.4891 C   0  0  0  0  0  0  0  0  0  0  0  0
   12.8030   13.0144    4.3052 N   0  0  0  0  0  0  0  0  0  0  0  0
   14.0167   13.2968    3.6966 C   0  0  0  0  0  0  0  0  0  0  0  0
   14.5418   12.9688    2.4198 C   0  0  0  0  0  0  0  0  0  0  0  0
   13.8716   12.2549    1.5113 N   0  0  0  0  0  0  0  0  0  0  0  0
   15.7955   13.4081    2.1131 N   0  0  0  0  0  0  0  0  0  0  0  0
   16.4728   14.1285    3.0372 C   0  0  0  0  0  0  0  0  0  0  0  0
   16.0809   14.4992    4.2738 N   0  0  0  0  0  0  0  0  0  0  0  0
   14.8338   14.0474    4.5450 C   0  0  0  0  0  0  0  0  0  0  0  0
   12.9650   11.9283    1.7131 H   0  0  0  0  0  0  0  0  0  0  0  0
   14.2842   12.0553    0.6401 H   0  0  0  0  0  0  0  0  0  0  0  0
   11.8544   16.3074    8.6044 C   0  0  0  0  0  0  0  0  0  0  0  0
   11.0574   15.1710    8.1985 O   0  0  0  0  0  0  0  0  0  0  0  0
    9.5007   15.0186    8.6611 P   0  0  0  0  0  0  0  0  0  0  0  0
    8.8871   16.4036    8.5232 O   0  0  0  0  0  0  0  0  0  0  0  0
    8.8752   14.0124    7.7124 O   0  0  0  0  0  0  0  0  0  0  0  0
    7.9424   13.8845    7.9457 H   0  0  0  0  0  0  0  0  0  0  0  0
    9.5136   14.5024   10.0999 O   0  0  0  0  0  0  0  0  0  0  0  0
   10.4949   13.7359   10.9720 P   0  0  0  0  0  0  0  0  0  0  0  0
   11.0933   14.6780   12.0017 O   0  0  0  0  0  0  0  0  0  0  0  0
   11.6108   13.1529   10.1295 O   0  0  0  0  0  0  0  0  0  0  0  0
    9.7315   12.6384   11.6892 O   0  0  0  0  0  0  0  0  0  0  0  0
   12.2271   12.6678   10.7002 H   0  0  0  0  0  0  0  0  0  0  0  0
   10.3407   12.1359   12.2525 H   0  0  0  0  0  0  0  0  0  0  0  0
 29 30  2  0  0  0
 29 31  1  0  0  0
 29 32  1  0  0  0
 29 28  1  0  0  0
 24 25  2  0  0  0
 24 26  1  0  0  0
 24 28  1  0  0  0
 24 23  1  0  0  0
 23 22  1  0  0  0
 22  1  1  0  0  0
  1  2  1  0  0  0
  1  3  1  0  0  0
  2  7  1  0  0  0
  3  4  1  0  0  0
  3  5  1  0  0  0
  5  6  1  0  0  0
  5  7  1  0  0  0
  7 10  1  0  0  0
 10 11  1  0  0  0
 10 19  1  0  0  0
 11 12  2  0  0  0
 12 13  1  0  0  0
 13 14  1  0  0  0
 13 19  2  0  0  0
 14 15  1  0  0  0
 14 16  2  0  0  0
 16 17  1  0  0  0
 17 18  2  0  0  0
 18 19  1  0  0  0
 31 33  1  0  0  0
 32 34  1  0  0  0
 26 27  1  0  0  0
  4  8  1  0  0  0
  6  9  1  0  0  0
 15 20  1  0  0  0
 15 21  1  0  0  0
M  END
> <minimizedAffinity>
-7.41552

$$$$
1HI5_ADP_A_999


 34 36  0  0  0  0  0  0  0  0999 V2000
   14.5484   17.9171    6.1813 C   0  0  0  0  0  0  0  0  0  0  0  0
   13.3540   17.6266    6.9625 O   0  0  0  0  0  0  0  0  0  0  0  0
   15.7349   17.4130    7.0035 C   0  0  0  0  0  0  0  0  0  0  0  0
   16.2977   18.4545    7.8057 O   0  0  0  0  0  0  0  0  0  0  0  0
   15.1068   16.3409    7.8862 C   0  0  0  0  0  0  0  0  0  0  0  0
   15.8303   16.1538    9.0894 O   0  0  0  0  0  0  0  0  0  0  0  0
   13.7096   16.9201    8.1396 C   0  0  0  0  0  0  0  0  0  0  0  0
   15.6121   18.8228    8.3847 H   0  0  0  0  0  0  0  0  0  0  0  0
   15.8905   16.9971    9.5649 H   0  0  0  0  0  0  0  0  0  0  0  0
   12.6757   15.9042    8.3825 N   0  0  0  0  0  0  0  0  0  0  0  0
   11.7812   15.3920    7.4635 C   0  0  0  0  0  0  0  0  0  0  0  0
   10.9636   14.4883    7.9606 N   0  0  0  0  0  0  0  0  0  0  0  0
   11.3360   14.3980    9.2934 C   0  0  0  0  0  0  0  0  0  0  0  0
   10.8465   13.6118   10.3685 C   0  0  0  0  0  0  0  0  0  0  0  0
    9.8372   12.7458   10.2451 N   0  0  0  0  0  0  0  0  0  0  0  0
   11.4421   13.7546   11.5866 N   0  0  0  0  0  0  0  0  0  0  0  0
   12.4625   14.6353   11.7087 C   0  0  0  0  0  0  0  0  0  0  0  0
   13.0098   15.4312   10.7667 N   0  0  0  0  0  0  0  0  0  0  0  0
   12.3958   15.2642    9.5718 C   0  0  0  0  0  0  0  0  0  0  0  0
    9.3935   12.6278    9.3741 H   0  0  0  0  0  0  0  0  0  0  0  0
    9.5368   12.2255   11.0250 H   0  0  0  0  0  0  0  0  0  0  0  0
   14.3987   17.3165    4.7962 C   0  0  0  0  0  0  0  0  0  0  0  0
   15.5972   16.5973    4.4250 O   0  0  0  0  0  0  0  0  0  0  0  0
   15.5556   15.0055    4.0713 P   0  0  0  0  0  0  0  0  0  0  0  0
   14.9174   14.9007    2.6946 O   0  0  0  0  0  0  0  0  0  0  0  0
   16.9984   14.5343    4.0768 O   0  0  0  0  0  0  0  0  0  0  0  0
   17.0300   13.5870    3.8706 H   0  0  0  0  0  0  0  0  0  0  0  0
   14.7383   14.3276    5.1710 O   0  0  0  0  0  0  0  0  0  0  0  0
   14.5900   12.9098    5.6990 P   0  0  0  0  0  0  0  0  0  0  0  0
   14.1625   12.9587    7.1554 O   0  0  0  0  0  0  0  0  0  0  0  0
   15.9048   12.1644    5.5957 O   0  0  0  0  0  0  0  0  0  0  0  0
   13.5116   12.2148    4.8892 O   0  0  0  0  0  0  0  0  0  0  0  0
   15.7930   11.2630    5.9361 H   0  0  0  0  0  0  0  0  0  0  0  0
   13.4007   11.3064    5.2107 H   0  0  0  0  0  0  0  0  0  0  0  0
 29 30  2  0  0  0
 29 31  1  0  0  0
 29 32  1  0  0  0
 29 28  1  0  0  0
 24 25  2  0  0  0
 24 26  1  0  0  0
 24 28  1  0  0  0
 24 23  1  0  0  0
 23 22  1  0  0  0
 22  1  1  0  0  0
  1  2  1  0  0  0
  1  3  1  0  0  0
  2  7  1  0  0  0
  3  4  1  0  0  0
  3  5  1  0  0  0
  5  6  1  0  0  0
  5  7  1  0  0  0
  7 10  1  0  0  0
 10 11  1  0  0  0
 10 19  1  0  0  0
 11 12  2  0  0  0
 12 13  1  0  0  0
 13 14  1  0  0  0
 13 19  2  0  0  0
 14 15  1  0  0  0
 14 16  2  0  0  0
 16 17  1  0  0  0
 17 18  2  0  0  0
 18 19  1  0  0  0
 31 33  1  0  0  0
 32 34  1  0  0  0
 26 27  1  0  0  0
  4  8  1  0  0  0
  6  9  1  0  0  0
 15 20  1  0  0  0
 15 21  1  0  0  0
M  END
> <minimizedAffinity>
-7.21155

$$$$
1HI5_ADP_A_999


 34 36  0  0  0  0  0  0  0  0999 V2000
   14.2451   16.3909    8.9920 C   0  0  0  0  0  0  0  0  0  0  0  0
   14.0749   15.0847    8.3707 O   0  0  0  0  0  0  0  0  0  0  0  0
   15.0379   17.2411    7.9988 C   0  0  0  0  0  0  0  0  0  0  0  0
   16.4409   17.1950    8.2716 O   0  0  0  0  0  0  0  0  0  0  0  0
   14.7329   16.5762    6.6616 C   0  0  0  0  0  0  0  0  0  0  0  0
   15.7636   16.7928    5.7145 O   0  0  0  0  0  0  0  0  0  0  0  0
   14.6211   15.1000    7.0620 C   0  0  0  0  0  0  0  0  0  0  0  0
   16.7441   16.2739    8.2516 H   0  0  0  0  0  0  0  0  0  0  0  0
   16.6053   16.4709    6.0732 H   0  0  0  0  0  0  0  0  0  0  0  0
   13.7335   14.3109    6.1963 N   0  0  0  0  0  0  0  0  0  0  0  0
   14.0696   13.1918    5.4602 C   0  0  0  0  0  0  0  0  0  0  0  0
   13.0687   12.6848    4.7723 N   0  0  0  0  0  0  0  0  0  0  0  0
   12.0028   13.5218    5.0670 C   0  0  0  0  0  0  0  0  0  0  0  0
   10.6481   13.5242    4.6451 C   0  0  0  0  0  0  0  0  0  0  0  0
   10.1396   12.6211    3.8026 N   0  0  0  0  0  0  0  0  0  0  0  0
    9.8307   14.5025    5.1285 N   0  0  0  0  0  0  0  0  0  0  0  0
   10.3502   15.4177    5.9795 C   0  0  0  0  0  0  0  0  0  0  0  0
   11.6115   15.5165    6.4481 N   0  0  0  0  0  0  0  0  0  0  0  0
   12.3946   14.5314    5.9490 C   0  0  0  0  0  0  0  0  0  0  0  0
   10.7129   11.9066    3.4421 H   0  0  0  0  0  0  0  0  0  0  0  0
    9.1914   12.6699    3.5421 H   0  0  0  0  0  0  0  0  0  0  0  0
   12.8869   16.9346    9.3938 C   0  0  0  0  0  0  0  0  0  0  0  0
   12.0126   15.8579    9.8035 O   0  0  0  0  0  0  0  0  0  0  0  0
   10.7710   16.1174   10.8290 P   0  0  0  0  0  0  0  0  0  0  0  0
   11.3950   16.2806   12.2065 O   0  0  0  0  0  0  0  0  0  0  0  0
   10.0866   17.3849   10.3508 O   0  0  0  0  0  0  0  0  0  0  0  0
    9.3354   17.5854   10.9308 H   0  0  0  0  0  0  0  0  0  0  0  0
    9.8465   14.9046   10.7227 O   0  0  0  0  0  0  0  0  0  0  0  0
   10.0331   13.4076   10.5348 P   0  0  0  0  0  0  0  0  0  0  0  0
    9.0692   12.9113    9.4714 O   0  0  0  0  0  0  0  0  0  0  0  0
    9.7599   12.6716   11.8303 O   0  0  0  0  0  0  0  0  0  0  0  0
   11.4555   13.1643   10.0664 O   0  0  0  0  0  0  0  0  0  0  0  0
    9.8832   11.7193   11.6933 H   0  0  0  0  0  0  0  0  0  0  0  0
   11.5960   12.2129    9.9401 H   0  0  0  0  0  0  0  0  0  0  0  0
 29 30  2  0  0  0
 29 31  1  0  0  0
 29 32  1  0  0  0
 29 28  1  0  0  0
 24 25  2  0  0  0
 24 26  1  0  0  0
 24 28  1  0  0  0
 24 23  1  0  0  0
 23 22  1  0  0  0
 22  1  1  0  0  0
  1  2  1  0  0  0
  1  3  1  0  0  0
  2  7  1  0  0  0
  3  4  1  0  0  0
  3  5  1  0  0  0
  5  6  1  0  0  0
  5  7  1  0  0  0
  7 10  1  0  0  0
 10 11  1  0  0  0
 10 19  1  0  0  0
 11 12  2  0  0  0
 12 13  1  0  0  0
 13 14  1  0  0  0
 13 19  2  0  0  0
 14 15  1  0  0  0
 14 16  2  0  0  0
 16 17  1  0  0  0
 17 18  2  0  0  0
 18 19  1  0  0  0
 31 33  1  0  0  0
 32 34  1  0  0  0
 26 27  1  0  0  0
  4  8  1  0  0  0
  6  9  1  0  0  0
 15 20  1  0  0  0
 15 21  1  0  0  0
M  END
> <minimizedAffinity>
-7.12721

$$$$
1HI5_ADP_A_999


 34 36  0  0  0  0  0  0  0  0999 V2000
   14.3021   16.3519    9.0669 C   0  0  0  0  0  0  0  0  0  0  0  0
   14.0548   15.1303    8.3134 O   0  0  0  0  0  0  0  0  0  0  0  0
   15.1517   17.2496    8.1668 C   0  0  0  0  0  0  0  0  0  0  0  0
   16.5476   17.0882    8.4322 O   0  0  0  0  0  0  0  0  0  0  0  0
   14.8138   16.7473    6.7680 C   0  0  0  0  0  0  0  0  0  0  0  0
   15.8612   16.9964    5.8476 O   0  0  0  0  0  0  0  0  0  0  0  0
   14.6084   15.2473    7.0129 C   0  0  0  0  0  0  0  0  0  0  0  0
   16.7932   16.1570    8.3164 H   0  0  0  0  0  0  0  0  0  0  0  0
   16.6793   16.5872    6.1703 H   0  0  0  0  0  0  0  0  0  0  0  0
   13.6785   14.6090    6.0706 N   0  0  0  0  0  0  0  0  0  0  0  0
   12.3710   14.2383    6.3152 C   0  0  0  0  0  0  0  0  0  0  0  0
   11.7708   13.6849    5.2829 N   0  0  0  0  0  0  0  0  0  0  0  0
   12.7417   13.6847    4.2926 C   0  0  0  0  0  0  0  0  0  0  0  0
   12.7334   13.2259    2.9499 C   0  0  0  0  0  0  0  0  0  0  0  0
   11.6703   12.6577    2.3745 N   0  0  0  0  0  0  0  0  0  0  0  0
   13.8732   13.3759    2.2170 N   0  0  0  0  0  0  0  0  0  0  0  0
   14.9493   13.9492    2.8043 C   0  0  0  0  0  0  0  0  0  0  0  0
   15.0754   14.4200    4.0624 N   0  0  0  0  0  0  0  0  0  0  0  0
   13.9273   14.2556    4.7608 C   0  0  0  0  0  0  0  0  0  0  0  0
   10.8376   12.5401    2.8864 H   0  0  0  0  0  0  0  0  0  0  0  0
   11.7195   12.3564    1.4385 H   0  0  0  0  0  0  0  0  0  0  0  0
   12.9780   16.9344    9.5241 C   0  0  0  0  0  0  0  0  0  0  0  0
   12.0551   15.8777    9.8746 O   0  0  0  0  0  0  0  0  0  0  0  0
   10.8385   16.1302   10.9314 P   0  0  0  0  0  0  0  0  0  0  0  0
   11.4916   16.2397   12.3007 O   0  0  0  0  0  0  0  0  0  0  0  0
   10.1707   17.4247   10.5045 O   0  0  0  0  0  0  0  0  0  0  0  0
    9.4348   17.6221   11.1048 H   0  0  0  0  0  0  0  0  0  0  0  0
    9.8881   14.9394   10.8071 O   0  0  0  0  0  0  0  0  0  0  0  0
   10.0404   13.4470   10.5611 P   0  0  0  0  0  0  0  0  0  0  0  0
    9.0462   13.0091    9.4999 O   0  0  0  0  0  0  0  0  0  0  0  0
    9.7774   12.6693   11.8342 O   0  0  0  0  0  0  0  0  0  0  0  0
   11.4482   13.1931   10.0558 O   0  0  0  0  0  0  0  0  0  0  0  0
    9.8786   11.7204   11.6602 H   0  0  0  0  0  0  0  0  0  0  0  0
   11.5668   12.2444    9.8920 H   0  0  0  0  0  0  0  0  0  0  0  0
 29 30  2  0  0  0
 29 31  1  0  0  0
 29 32  1  0  0  0
 29 28  1  0  0  0
 24 25  2  0  0  0
 24 26  1  0  0  0
 24 28  1  0  0  0
 24 23  1  0  0  0
 23 22  1  0  0  0
 22  1  1  0  0  0
  1  2  1  0  0  0
  1  3  1  0  0  0
  2  7  1  0  0  0
  3  4  1  0  0  0
  3  5  1  0  0  0
  5  6  1  0  0  0
  5  7  1  0  0  0
  7 10  1  0  0  0
 10 11  1  0  0  0
 10 19  1  0  0  0
 11 12  2  0  0  0
 12 13  1  0  0  0
 13 14  1  0  0  0
 13 19  2  0  0  0
 14 15  1  0  0  0
 14 16  2  0  0  0
 16 17  1  0  0  0
 17 18  2  0  0  0
 18 19  1  0  0  0
 31 33  1  0  0  0
 32 34  1  0  0  0
 26 27  1  0  0  0
  4  8  1  0  0  0
  6  9  1  0  0  0
 15 20  1  0  0  0
 15 21  1  0  0  0
M  END
> <minimizedAffinity>
-7.05600

$$$$
