1M7Y_PPG_A_600


 32 32  0  0  0  0  0  0  0  0999 V2000
   22.9955    2.6649   19.0178 N   0  0  0  0  0  0  0  0  0  0  0  0
   21.8887    2.3377   18.2241 C   0  0  0  0  0  0  0  0  0  0  0  0
   21.8224    3.0367   16.9059 C   0  0  0  0  0  0  0  0  0  0  0  0
   20.9578    1.3904   18.7403 C   0  0  0  0  0  0  0  0  0  0  0  0
   19.9149    1.0661   18.0136 O   0  0  0  0  0  0  0  0  0  0  0  0
   21.2193    0.8202   20.0793 C   0  0  0  0  0  0  0  0  0  0  0  0
   22.4287    1.2568   20.8118 C   0  0  0  0  0  0  0  0  0  0  0  0
   23.2838    2.1673   20.2568 C   0  0  0  0  0  0  0  0  0  0  0  0
   19.7925    1.4551   17.1700 H   0  0  0  0  0  0  0  0  0  0  0  0
   20.2380   -0.2357   20.7192 C   0  0  0  0  0  0  0  0  0  0  0  0
   18.8661   -0.0103   20.3453 N   0  0  0  0  0  0  0  0  0  0  0  0
   17.7740   -0.3617   21.0506 C   0  0  0  0  0  0  0  0  0  0  0  0
   16.5434   -0.1152   20.4121 C   0  0  0  0  0  0  0  0  0  0  0  0
   16.5428    0.6275   19.3542 O   0  0  0  0  0  0  0  0  0  0  0  0
   15.4187   -0.6148   20.8715 O   0  0  0  0  0  0  0  0  0  0  0  0
   15.4238   -1.1527   21.6387 H   0  0  0  0  0  0  0  0  0  0  0  0
   17.8994   -0.9057   22.3928 C   0  0  0  0  0  0  0  0  0  0  0  0
   17.8157   -0.1650   23.4991 C   0  0  0  0  0  0  0  0  0  0  0  0
   17.9081   -0.8967   24.7475 O   0  0  0  0  0  0  0  0  0  0  0  0
   18.9412   -0.3543   25.5922 C   0  0  0  0  0  0  0  0  0  0  0  0
   20.2863   -0.3136   24.8558 C   0  0  0  0  0  0  0  0  0  0  0  0
   21.3379   -0.8070   25.7442 N   0  0  0  0  0  0  0  0  0  0  0  0
   21.3843   -0.2184   26.5759 H   0  0  0  0  0  0  0  0  0  0  0  0
   22.2342   -0.7798   25.2580 H   0  0  0  0  0  0  0  0  0  0  0  0
   22.6896    0.6550   22.1935 C   0  0  0  0  0  0  0  0  0  0  0  0
   23.7819   -0.2461   22.0999 O   0  0  0  0  0  0  0  0  0  0  0  0
   23.9940   -1.4481   23.1855 P   0  0  0  0  0  0  0  0  0  0  0  0
   24.3476   -0.7504   24.4565 O   0  0  0  0  0  0  0  0  0  0  0  0
   25.0984   -2.2798   22.7341 O   0  0  0  0  0  0  0  0  0  0  0  0
   22.7472   -2.2346   23.2738 O   0  0  0  0  0  0  0  0  0  0  0  0
   25.9061   -1.7451   22.6830 H   0  0  0  0  0  0  0  0  0  0  0  0
   22.0247   -1.6623   23.5761 H   0  0  0  0  0  0  0  0  0  0  0  0
  1  2  2  0  0  0
  1  8  1  0  0  0
  2  3  1  0  0  0
  2  4  1  0  0  0
  4  5  1  0  0  0
  4  6  2  0  0  0
  6 10  1  0  0  0
  6  7  1  0  0  0
 10 11  1  0  0  0
  7  8  2  0  0  0
  7 25  1  0  0  0
 25 26  1  0  0  0
 26 27  1  0  0  0
 27 28  2  0  0  0
 27 29  1  0  0  0
 27 30  1  0  0  0
 11 12  2  0  0  0
 12 13  1  0  0  0
 12 17  1  0  0  0
 13 14  2  0  0  0
 13 15  1  0  0  0
 17 18  2  0  0  0
 18 19  1  0  0  0
 19 20  1  0  0  0
 20 21  1  0  0  0
 21 22  1  0  0  0
  5  9  1  0  0  0
 29 31  1  0  0  0
 30 32  1  0  0  0
 15 16  1  0  0  0
 22 23  1  0  0  0
 22 24  1  0  0  0
M  END
> <minimizedAffinity>
-9.89104

$$$$
1M7Y_PPG_A_600


 32 32  0  0  0  0  0  0  0  0999 V2000
   18.5556    0.8511   26.8246 N   0  0  0  0  0  0  0  0  0  0  0  0
   19.9342    0.6286   26.9344 C   0  0  0  0  0  0  0  0  0  0  0  0
   20.5811    1.2275   28.1399 C   0  0  0  0  0  0  0  0  0  0  0  0
   20.5681   -0.1317   25.9094 C   0  0  0  0  0  0  0  0  0  0  0  0
   21.8580   -0.3556   25.9924 O   0  0  0  0  0  0  0  0  0  0  0  0
   19.7306   -0.6303   24.7975 C   0  0  0  0  0  0  0  0  0  0  0  0
   18.2838   -0.3193   24.8051 C   0  0  0  0  0  0  0  0  0  0  0  0
   17.7380    0.4126   25.8221 C   0  0  0  0  0  0  0  0  0  0  0  0
   22.3464   -0.0182   26.7174 H   0  0  0  0  0  0  0  0  0  0  0  0
   20.3566   -1.4809   23.6262 C   0  0  0  0  0  0  0  0  0  0  0  0
   21.7919   -1.5577   23.7072 N   0  0  0  0  0  0  0  0  0  0  0  0
   22.6757   -0.8912   22.9403 C   0  0  0  0  0  0  0  0  0  0  0  0
   24.0270   -1.2229   23.1572 C   0  0  0  0  0  0  0  0  0  0  0  0
   24.6233   -0.7127   24.1842 O   0  0  0  0  0  0  0  0  0  0  0  0
   24.6775   -2.0225   22.3429 O   0  0  0  0  0  0  0  0  0  0  0  0
   24.2412   -2.3901   21.5996 H   0  0  0  0  0  0  0  0  0  0  0  0
   22.2283    0.1270   22.0043 C   0  0  0  0  0  0  0  0  0  0  0  0
   23.0591    0.9107   21.3150 C   0  0  0  0  0  0  0  0  0  0  0  0
   22.4255    1.8271   20.3870 O   0  0  0  0  0  0  0  0  0  0  0  0
   22.6632    1.4316   19.0224 C   0  0  0  0  0  0  0  0  0  0  0  0
   21.5360    1.9225   18.1052 C   0  0  0  0  0  0  0  0  0  0  0  0
   20.2904    1.2472   18.4675 N   0  0  0  0  0  0  0  0  0  0  0  0
   20.4061    0.2396   18.3596 H   0  0  0  0  0  0  0  0  0  0  0  0
   19.5388    1.5703   17.8582 H   0  0  0  0  0  0  0  0  0  0  0  0
   17.4286   -0.8458   23.6516 C   0  0  0  0  0  0  0  0  0  0  0  0
   17.5985    0.0080   22.5308 O   0  0  0  0  0  0  0  0  0  0  0  0
   17.3332   -0.5181   21.0073 P   0  0  0  0  0  0  0  0  0  0  0  0
   16.1493    0.2609   20.5399 O   0  0  0  0  0  0  0  0  0  0  0  0
   17.0219   -1.9377   21.0635 O   0  0  0  0  0  0  0  0  0  0  0  0
   18.5488   -0.2793   20.2033 O   0  0  0  0  0  0  0  0  0  0  0  0
   16.2218   -2.0724   21.5952 H   0  0  0  0  0  0  0  0  0  0  0  0
   18.7384    0.6717   20.1786 H   0  0  0  0  0  0  0  0  0  0  0  0
  1  2  2  0  0  0
  1  8  1  0  0  0
  2  3  1  0  0  0
  2  4  1  0  0  0
  4  5  1  0  0  0
  4  6  2  0  0  0
  6 10  1  0  0  0
  6  7  1  0  0  0
 10 11  1  0  0  0
  7  8  2  0  0  0
  7 25  1  0  0  0
 25 26  1  0  0  0
 26 27  1  0  0  0
 27 28  2  0  0  0
 27 29  1  0  0  0
 27 30  1  0  0  0
 11 12  2  0  0  0
 12 13  1  0  0  0
 12 17  1  0  0  0
 13 14  2  0  0  0
 13 15  1  0  0  0
 17 18  2  0  0  0
 18 19  1  0  0  0
 19 20  1  0  0  0
 20 21  1  0  0  0
 21 22  1  0  0  0
  5  9  1  0  0  0
 29 31  1  0  0  0
 30 32  1  0  0  0
 15 16  1  0  0  0
 22 23  1  0  0  0
 22 24  1  0  0  0
M  END
> <minimizedAffinity>
-9.17243

$$$$
1M7Y_PPG_A_600


 32 32  0  0  0  0  0  0  0  0999 V2000
   19.6073    0.6437   27.2474 N   0  0  0  0  0  0  0  0  0  0  0  0
   18.5185    1.0651   26.4735 C   0  0  0  0  0  0  0  0  0  0  0  0
   17.5768    2.0013   27.1570 C   0  0  0  0  0  0  0  0  0  0  0  0
   18.4203    0.5715   25.1403 C   0  0  0  0  0  0  0  0  0  0  0  0
   17.4107    0.9547   24.3956 O   0  0  0  0  0  0  0  0  0  0  0  0
   19.4703   -0.3547   24.6650 C   0  0  0  0  0  0  0  0  0  0  0  0
   20.5659   -0.7195   25.5904 C   0  0  0  0  0  0  0  0  0  0  0  0
   20.6025   -0.2065   26.8568 C   0  0  0  0  0  0  0  0  0  0  0  0
   16.7699    1.5439   24.7422 H   0  0  0  0  0  0  0  0  0  0  0  0
   19.4342   -0.9427   23.2020 C   0  0  0  0  0  0  0  0  0  0  0  0
   18.1042   -1.3041   22.7860 N   0  0  0  0  0  0  0  0  0  0  0  0
   17.4271   -0.8008   21.7363 C   0  0  0  0  0  0  0  0  0  0  0  0
   16.0997   -1.2527   21.6072 C   0  0  0  0  0  0  0  0  0  0  0  0
   15.7609   -2.3359   22.2256 O   0  0  0  0  0  0  0  0  0  0  0  0
   15.2212   -0.6045   20.8767 O   0  0  0  0  0  0  0  0  0  0  0  0
   15.4712    0.1804   20.4300 H   0  0  0  0  0  0  0  0  0  0  0  0
   18.0740    0.1017   20.7982 C   0  0  0  0  0  0  0  0  0  0  0  0
   18.7793   -0.3122   19.7442 C   0  0  0  0  0  0  0  0  0  0  0  0
   19.2999    0.7384   18.8912 O   0  0  0  0  0  0  0  0  0  0  0  0
   20.6973    0.9733   19.1504 C   0  0  0  0  0  0  0  0  0  0  0  0
   21.3114    1.8729   18.0703 C   0  0  0  0  0  0  0  0  0  0  0  0
   22.5645    2.4387   18.5687 N   0  0  0  0  0  0  0  0  0  0  0  0
   22.3794    2.9879   19.4080 H   0  0  0  0  0  0  0  0  0  0  0  0
   22.9749    3.0388   17.8533 H   0  0  0  0  0  0  0  0  0  0  0  0
   21.6480   -1.6742   25.0839 C   0  0  0  0  0  0  0  0  0  0  0  0
   22.7888   -0.9158   24.7134 O   0  0  0  0  0  0  0  0  0  0  0  0
   23.6695   -1.2877   23.3888 P   0  0  0  0  0  0  0  0  0  0  0  0
   22.7388   -2.0718   22.5250 O   0  0  0  0  0  0  0  0  0  0  0  0
   24.7948   -2.1092   23.8061 O   0  0  0  0  0  0  0  0  0  0  0  0
   24.1383   -0.0353   22.7624 O   0  0  0  0  0  0  0  0  0  0  0  0
   24.4656   -2.9253   24.2142 H   0  0  0  0  0  0  0  0  0  0  0  0
   23.3737    0.4969   22.4919 H   0  0  0  0  0  0  0  0  0  0  0  0
  1  2  2  0  0  0
  1  8  1  0  0  0
  2  3  1  0  0  0
  2  4  1  0  0  0
  4  5  1  0  0  0
  4  6  2  0  0  0
  6 10  1  0  0  0
  6  7  1  0  0  0
 10 11  1  0  0  0
  7  8  2  0  0  0
  7 25  1  0  0  0
 25 26  1  0  0  0
 26 27  1  0  0  0
 27 28  2  0  0  0
 27 29  1  0  0  0
 27 30  1  0  0  0
 11 12  2  0  0  0
 12 13  1  0  0  0
 12 17  1  0  0  0
 13 14  2  0  0  0
 13 15  1  0  0  0
 17 18  2  0  0  0
 18 19  1  0  0  0
 19 20  1  0  0  0
 20 21  1  0  0  0
 21 22  1  0  0  0
  5  9  1  0  0  0
 29 31  1  0  0  0
 30 32  1  0  0  0
 15 16  1  0  0  0
 22 23  1  0  0  0
 22 24  1  0  0  0
M  END
> <minimizedAffinity>
-8.87513

$$$$
1M7Y_PPG_A_600


 32 32  0  0  0  0  0  0  0  0999 V2000
   23.0982    2.0630   19.5872 N   0  0  0  0  0  0  0  0  0  0  0  0
   21.9551    1.9541   18.7850 C   0  0  0  0  0  0  0  0  0  0  0  0
   22.0050    2.7139   17.5002 C   0  0  0  0  0  0  0  0  0  0  0  0
   20.8830    1.1461   19.2625 C   0  0  0  0  0  0  0  0  0  0  0  0
   19.8033    1.0267   18.5271 O   0  0  0  0  0  0  0  0  0  0  0  0
   21.0465    0.4810   20.5730 C   0  0  0  0  0  0  0  0  0  0  0  0
   22.3086    0.6840   21.3184 C   0  0  0  0  0  0  0  0  0  0  0  0
   23.3000    1.4697   20.8009 C   0  0  0  0  0  0  0  0  0  0  0  0
   19.7468    1.4683   17.7026 H   0  0  0  0  0  0  0  0  0  0  0  0
   19.9069   -0.4317   21.1693 C   0  0  0  0  0  0  0  0  0  0  0  0
   18.6006   -0.0699   20.6841 N   0  0  0  0  0  0  0  0  0  0  0  0
   17.4202   -0.5401   21.1302 C   0  0  0  0  0  0  0  0  0  0  0  0
   16.2904   -0.0990   20.4146 C   0  0  0  0  0  0  0  0  0  0  0  0
   15.1275   -0.5191   20.7909 O   0  0  0  0  0  0  0  0  0  0  0  0
   16.4014    0.7121   19.3873 O   0  0  0  0  0  0  0  0  0  0  0  0
   17.2465    1.0142   19.1180 H   0  0  0  0  0  0  0  0  0  0  0  0
   17.3569   -1.3984   22.3017 C   0  0  0  0  0  0  0  0  0  0  0  0
   16.8263   -1.0190   23.4655 C   0  0  0  0  0  0  0  0  0  0  0  0
   16.8023   -2.0347   24.5001 O   0  0  0  0  0  0  0  0  0  0  0  0
   16.7580   -1.4397   25.8112 C   0  0  0  0  0  0  0  0  0  0  0  0
   16.9825    0.0758   25.7332 C   0  0  0  0  0  0  0  0  0  0  0  0
   17.9319    0.4769   26.7707 N   0  0  0  0  0  0  0  0  0  0  0  0
   17.5574    0.2323   27.6873 H   0  0  0  0  0  0  0  0  0  0  0  0
   18.0823    1.4846   26.7227 H   0  0  0  0  0  0  0  0  0  0  0  0
   22.4663   -0.0140   22.6701 C   0  0  0  0  0  0  0  0  0  0  0  0
   21.4843    0.4907   23.5617 O   0  0  0  0  0  0  0  0  0  0  0  0
   21.1096   -0.2857   24.9492 P   0  0  0  0  0  0  0  0  0  0  0  0
   22.3429   -1.0498   25.2988 O   0  0  0  0  0  0  0  0  0  0  0  0
   20.0050   -1.1926   24.6796 O   0  0  0  0  0  0  0  0  0  0  0  0
   20.7300    0.7152   25.9666 O   0  0  0  0  0  0  0  0  0  0  0  0
   20.2747   -1.8406   24.0101 H   0  0  0  0  0  0  0  0  0  0  0  0
   21.4792    1.3089   26.1314 H   0  0  0  0  0  0  0  0  0  0  0  0
  1  2  2  0  0  0
  1  8  1  0  0  0
  2  3  1  0  0  0
  2  4  1  0  0  0
  4  5  1  0  0  0
  4  6  2  0  0  0
  6 10  1  0  0  0
  6  7  1  0  0  0
 10 11  1  0  0  0
  7  8  2  0  0  0
  7 25  1  0  0  0
 25 26  1  0  0  0
 26 27  1  0  0  0
 27 28  2  0  0  0
 27 29  1  0  0  0
 27 30  1  0  0  0
 11 12  2  0  0  0
 12 13  1  0  0  0
 12 17  1  0  0  0
 13 14  2  0  0  0
 13 15  1  0  0  0
 17 18  2  0  0  0
 18 19  1  0  0  0
 19 20  1  0  0  0
 20 21  1  0  0  0
 21 22  1  0  0  0
  5  9  1  0  0  0
 29 31  1  0  0  0
 30 32  1  0  0  0
 15 16  1  0  0  0
 22 23  1  0  0  0
 22 24  1  0  0  0
M  END
> <minimizedAffinity>
-8.47853

$$$$
1M7Y_PPG_A_600


 32 32  0  0  0  0  0  0  0  0999 V2000
   16.5546   -2.9435   27.8804 N   0  0  0  0  0  0  0  0  0  0  0  0
   15.9426   -3.0495   26.6249 C   0  0  0  0  0  0  0  0  0  0  0  0
   15.0068   -4.2029   26.4689 C   0  0  0  0  0  0  0  0  0  0  0  0
   16.2647   -2.0676   25.6438 C   0  0  0  0  0  0  0  0  0  0  0  0
   15.7015   -2.1447   24.4615 O   0  0  0  0  0  0  0  0  0  0  0  0
   17.2255   -1.0065   26.0143 C   0  0  0  0  0  0  0  0  0  0  0  0
   17.7999   -1.0149   27.3781 C   0  0  0  0  0  0  0  0  0  0  0  0
   17.4449   -1.9849   28.2732 C   0  0  0  0  0  0  0  0  0  0  0  0
   15.0981   -2.8366   24.2742 H   0  0  0  0  0  0  0  0  0  0  0  0
   17.6316    0.1179   24.9857 C   0  0  0  0  0  0  0  0  0  0  0  0
   17.3904   -0.2708   23.6206 N   0  0  0  0  0  0  0  0  0  0  0  0
   18.3094   -0.6965   22.7331 C   0  0  0  0  0  0  0  0  0  0  0  0
   17.8257   -0.9183   21.4294 C   0  0  0  0  0  0  0  0  0  0  0  0
   18.2454   -0.1445   20.4830 O   0  0  0  0  0  0  0  0  0  0  0  0
   16.9667   -1.8774   21.1691 O   0  0  0  0  0  0  0  0  0  0  0  0
   16.6652   -2.4360   21.8583 H   0  0  0  0  0  0  0  0  0  0  0  0
   19.6809   -0.9460   23.1452 C   0  0  0  0  0  0  0  0  0  0  0  0
   20.6907   -0.1127   22.8892 C   0  0  0  0  0  0  0  0  0  0  0  0
   21.9765   -0.5063   23.4316 O   0  0  0  0  0  0  0  0  0  0  0  0
   22.6716   -1.3901   22.5312 C   0  0  0  0  0  0  0  0  0  0  0  0
   24.1053   -1.6463   23.0125 C   0  0  0  0  0  0  0  0  0  0  0  0
   24.4146   -0.7352   24.1139 N   0  0  0  0  0  0  0  0  0  0  0  0
   24.3279    0.2289   23.7922 H   0  0  0  0  0  0  0  0  0  0  0  0
   25.3681   -0.9018   24.4354 H   0  0  0  0  0  0  0  0  0  0  0  0
   18.7883    0.0916   27.7495 C   0  0  0  0  0  0  0  0  0  0  0  0
   20.0638   -0.4907   27.9690 O   0  0  0  0  0  0  0  0  0  0  0  0
   21.4239    0.1737   27.3550 P   0  0  0  0  0  0  0  0  0  0  0  0
   21.0020    1.5229   26.8767 O   0  0  0  0  0  0  0  0  0  0  0  0
   21.8692   -0.6481   26.2408 O   0  0  0  0  0  0  0  0  0  0  0  0
   22.4508    0.2205   28.4154 O   0  0  0  0  0  0  0  0  0  0  0  0
   21.1816   -0.6655   25.5568 H   0  0  0  0  0  0  0  0  0  0  0  0
   22.1345    0.7725   29.1476 H   0  0  0  0  0  0  0  0  0  0  0  0
  1  2  2  0  0  0
  1  8  1  0  0  0
  2  3  1  0  0  0
  2  4  1  0  0  0
  4  5  1  0  0  0
  4  6  2  0  0  0
  6 10  1  0  0  0
  6  7  1  0  0  0
 10 11  1  0  0  0
  7  8  2  0  0  0
  7 25  1  0  0  0
 25 26  1  0  0  0
 26 27  1  0  0  0
 27 28  2  0  0  0
 27 29  1  0  0  0
 27 30  1  0  0  0
 11 12  2  0  0  0
 12 13  1  0  0  0
 12 17  1  0  0  0
 13 14  2  0  0  0
 13 15  1  0  0  0
 17 18  2  0  0  0
 18 19  1  0  0  0
 19 20  1  0  0  0
 20 21  1  0  0  0
 21 22  1  0  0  0
  5  9  1  0  0  0
 29 31  1  0  0  0
 30 32  1  0  0  0
 15 16  1  0  0  0
 22 23  1  0  0  0
 22 24  1  0  0  0
M  END
> <minimizedAffinity>
-8.45544

$$$$
1M7Y_PPG_A_600


 32 32  0  0  0  0  0  0  0  0999 V2000
   16.7607   -0.8296   26.0390 N   0  0  0  0  0  0  0  0  0  0  0  0
   16.5592   -1.4292   24.7892 C   0  0  0  0  0  0  0  0  0  0  0  0
   15.2846   -2.1949   24.6493 C   0  0  0  0  0  0  0  0  0  0  0  0
   17.5665   -1.2518   23.7971 C   0  0  0  0  0  0  0  0  0  0  0  0
   17.3983   -1.8017   22.6180 O   0  0  0  0  0  0  0  0  0  0  0  0
   18.7576   -0.4515   24.1537 C   0  0  0  0  0  0  0  0  0  0  0  0
   18.8434    0.1242   25.5143 C   0  0  0  0  0  0  0  0  0  0  0  0
   17.8387   -0.0812   26.4180 C   0  0  0  0  0  0  0  0  0  0  0  0
   16.6254   -2.3004   22.4396 H   0  0  0  0  0  0  0  0  0  0  0  0
   19.9150   -0.2071   23.1107 C   0  0  0  0  0  0  0  0  0  0  0  0
   21.1823   -0.7179   23.5643 N   0  0  0  0  0  0  0  0  0  0  0  0
   22.3647   -0.6106   22.9285 C   0  0  0  0  0  0  0  0  0  0  0  0
   23.4374   -1.2876   23.5401 C   0  0  0  0  0  0  0  0  0  0  0  0
   23.2816   -2.5360   23.8364 O   0  0  0  0  0  0  0  0  0  0  0  0
   24.5685   -0.6779   23.8131 O   0  0  0  0  0  0  0  0  0  0  0  0
   24.6770    0.2272   23.5965 H   0  0  0  0  0  0  0  0  0  0  0  0
   22.4921    0.1984   21.7276 C   0  0  0  0  0  0  0  0  0  0  0  0
   22.9302    1.4585   21.7309 C   0  0  0  0  0  0  0  0  0  0  0  0
   23.0429    2.0825   20.4269 O   0  0  0  0  0  0  0  0  0  0  0  0
   22.5823    1.1991   19.3866 C   0  0  0  0  0  0  0  0  0  0  0  0
   21.5399    1.8926   18.5003 C   0  0  0  0  0  0  0  0  0  0  0  0
   20.2975    1.1215   18.5230 N   0  0  0  0  0  0  0  0  0  0  0  0
   20.4748    0.1805   18.1718 H   0  0  0  0  0  0  0  0  0  0  0  0
   19.6025    1.5792   17.9332 H   0  0  0  0  0  0  0  0  0  0  0  0
   20.0784    0.9542   25.8679 C   0  0  0  0  0  0  0  0  0  0  0  0
   20.4284    0.6985   27.2193 O   0  0  0  0  0  0  0  0  0  0  0  0
   21.3860   -0.5592   27.6311 P   0  0  0  0  0  0  0  0  0  0  0  0
   20.5624   -1.3659   28.5787 O   0  0  0  0  0  0  0  0  0  0  0  0
   22.5663   -0.0334   28.2986 O   0  0  0  0  0  0  0  0  0  0  0  0
   21.7600   -1.2933   26.4055 O   0  0  0  0  0  0  0  0  0  0  0  0
   22.2990    0.4443   29.0995 H   0  0  0  0  0  0  0  0  0  0  0  0
   20.9599   -1.6351   25.9764 H   0  0  0  0  0  0  0  0  0  0  0  0
  1  2  2  0  0  0
  1  8  1  0  0  0
  2  3  1  0  0  0
  2  4  1  0  0  0
  4  5  1  0  0  0
  4  6  2  0  0  0
  6 10  1  0  0  0
  6  7  1  0  0  0
 10 11  1  0  0  0
  7  8  2  0  0  0
  7 25  1  0  0  0
 25 26  1  0  0  0
 26 27  1  0  0  0
 27 28  2  0  0  0
 27 29  1  0  0  0
 27 30  1  0  0  0
 11 12  2  0  0  0
 12 13  1  0  0  0
 12 17  1  0  0  0
 13 14  2  0  0  0
 13 15  1  0  0  0
 17 18  2  0  0  0
 18 19  1  0  0  0
 19 20  1  0  0  0
 20 21  1  0  0  0
 21 22  1  0  0  0
  5  9  1  0  0  0
 29 31  1  0  0  0
 30 32  1  0  0  0
 15 16  1  0  0  0
 22 23  1  0  0  0
 22 24  1  0  0  0
M  END
> <minimizedAffinity>
-8.42541

$$$$
1M7Y_PPG_A_600


 32 32  0  0  0  0  0  0  0  0999 V2000
   20.5395    1.2445   18.2160 N   0  0  0  0  0  0  0  0  0  0  0  0
   21.7149    2.0045   18.2703 C   0  0  0  0  0  0  0  0  0  0  0  0
   22.0869    2.6924   16.9979 C   0  0  0  0  0  0  0  0  0  0  0  0
   22.4223    2.0466   19.5066 C   0  0  0  0  0  0  0  0  0  0  0  0
   23.5243    2.7542   19.5823 O   0  0  0  0  0  0  0  0  0  0  0  0
   21.8717    1.2828   20.6466 C   0  0  0  0  0  0  0  0  0  0  0  0
   20.6197    0.5189   20.4497 C   0  0  0  0  0  0  0  0  0  0  0  0
   19.9885    0.5242   19.2374 C   0  0  0  0  0  0  0  0  0  0  0  0
   23.8334    3.2217   18.8313 H   0  0  0  0  0  0  0  0  0  0  0  0
   22.5942    1.2805   22.0485 C   0  0  0  0  0  0  0  0  0  0  0  0
   23.4786    0.1562   22.2108 N   0  0  0  0  0  0  0  0  0  0  0  0
   23.3009   -0.8918   23.0377 C   0  0  0  0  0  0  0  0  0  0  0  0
   24.3680   -1.8097   23.0795 C   0  0  0  0  0  0  0  0  0  0  0  0
   25.1651   -1.8656   22.0636 O   0  0  0  0  0  0  0  0  0  0  0  0
   24.5563   -2.5979   24.1134 O   0  0  0  0  0  0  0  0  0  0  0  0
   23.9760   -2.5540   24.8478 H   0  0  0  0  0  0  0  0  0  0  0  0
   22.0598   -1.0531   23.7771 C   0  0  0  0  0  0  0  0  0  0  0  0
   21.8615   -0.5600   25.0007 C   0  0  0  0  0  0  0  0  0  0  0  0
   20.5376   -0.7743   25.5519 O   0  0  0  0  0  0  0  0  0  0  0  0
   20.4004   -0.1372   26.8365 C   0  0  0  0  0  0  0  0  0  0  0  0
   21.4343   -0.6805   27.8310 C   0  0  0  0  0  0  0  0  0  0  0  0
   22.4243    0.3582   28.1134 N   0  0  0  0  0  0  0  0  0  0  0  0
   22.8904    0.6282   27.2472 H   0  0  0  0  0  0  0  0  0  0  0  0
   23.1144   -0.0003   28.7734 H   0  0  0  0  0  0  0  0  0  0  0  0
   20.0586   -0.2623   21.6388 C   0  0  0  0  0  0  0  0  0  0  0  0
   18.6506   -0.0884   21.6758 O   0  0  0  0  0  0  0  0  0  0  0  0
   17.7421   -0.7225   22.8762 P   0  0  0  0  0  0  0  0  0  0  0  0
   17.4583    0.4285   23.7827 O   0  0  0  0  0  0  0  0  0  0  0  0
   18.5340   -1.7311   23.5623 O   0  0  0  0  0  0  0  0  0  0  0  0
   16.5270   -1.3207   22.2875 O   0  0  0  0  0  0  0  0  0  0  0  0
   19.3258   -1.3182   23.9409 H   0  0  0  0  0  0  0  0  0  0  0  0
   16.0141   -0.6325   21.8356 H   0  0  0  0  0  0  0  0  0  0  0  0
  1  2  2  0  0  0
  1  8  1  0  0  0
  2  3  1  0  0  0
  2  4  1  0  0  0
  4  5  1  0  0  0
  4  6  2  0  0  0
  6 10  1  0  0  0
  6  7  1  0  0  0
 10 11  1  0  0  0
  7  8  2  0  0  0
  7 25  1  0  0  0
 25 26  1  0  0  0
 26 27  1  0  0  0
 27 28  2  0  0  0
 27 29  1  0  0  0
 27 30  1  0  0  0
 11 12  2  0  0  0
 12 13  1  0  0  0
 12 17  1  0  0  0
 13 14  2  0  0  0
 13 15  1  0  0  0
 17 18  2  0  0  0
 18 19  1  0  0  0
 19 20  1  0  0  0
 20 21  1  0  0  0
 21 22  1  0  0  0
  5  9  1  0  0  0
 29 31  1  0  0  0
 30 32  1  0  0  0
 15 16  1  0  0  0
 22 23  1  0  0  0
 22 24  1  0  0  0
M  END
> <minimizedAffinity>
-8.30358

$$$$
1M7Y_PPG_A_600


 32 32  0  0  0  0  0  0  0  0999 V2000
   21.7438    0.8702   20.8059 N   0  0  0  0  0  0  0  0  0  0  0  0
   22.9671    0.6913   21.4644 C   0  0  0  0  0  0  0  0  0  0  0  0
   24.1384    1.3597   20.8229 C   0  0  0  0  0  0  0  0  0  0  0  0
   22.9723   -0.0914   22.6551 C   0  0  0  0  0  0  0  0  0  0  0  0
   24.1058   -0.2703   23.2908 O   0  0  0  0  0  0  0  0  0  0  0  0
   21.6889   -0.6654   23.1131 C   0  0  0  0  0  0  0  0  0  0  0  0
   20.4693   -0.3985   22.3187 C   0  0  0  0  0  0  0  0  0  0  0  0
   20.5332    0.3649   21.1867 C   0  0  0  0  0  0  0  0  0  0  0  0
   24.8939    0.1144   22.9607 H   0  0  0  0  0  0  0  0  0  0  0  0
   21.6110   -1.5408   24.4226 C   0  0  0  0  0  0  0  0  0  0  0  0
   21.9745   -0.8006   25.6027 N   0  0  0  0  0  0  0  0  0  0  0  0
   21.1311   -0.2182   26.4762 C   0  0  0  0  0  0  0  0  0  0  0  0
   21.7482    0.5331   27.4949 C   0  0  0  0  0  0  0  0  0  0  0  0
   21.4425    1.7845   27.6006 O   0  0  0  0  0  0  0  0  0  0  0  0
   22.6169   -0.0085   28.3180 O   0  0  0  0  0  0  0  0  0  0  0  0
   22.8355   -0.9161   28.2378 H   0  0  0  0  0  0  0  0  0  0  0  0
   19.6953   -0.4188   26.3695 C   0  0  0  0  0  0  0  0  0  0  0  0
   18.8398    0.5460   26.0272 C   0  0  0  0  0  0  0  0  0  0  0  0
   17.4525    0.1387   25.9179 O   0  0  0  0  0  0  0  0  0  0  0  0
   17.2851   -1.2417   26.2938 C   0  0  0  0  0  0  0  0  0  0  0  0
   16.4525   -1.9969   25.2500 C   0  0  0  0  0  0  0  0  0  0  0  0
   15.7667   -1.0329   24.3904 N   0  0  0  0  0  0  0  0  0  0  0  0
   15.1550   -0.4462   24.9579 H   0  0  0  0  0  0  0  0  0  0  0  0
   15.2107   -1.5319   23.6959 H   0  0  0  0  0  0  0  0  0  0  0  0
   19.1478   -0.9940   22.8068 C   0  0  0  0  0  0  0  0  0  0  0  0
   18.0772   -0.2537   22.2413 O   0  0  0  0  0  0  0  0  0  0  0  0
   17.1289   -0.8818   21.0689 P   0  0  0  0  0  0  0  0  0  0  0  0
   18.0332   -1.0293   19.8909 O   0  0  0  0  0  0  0  0  0  0  0  0
   16.0673    0.0703   20.7829 O   0  0  0  0  0  0  0  0  0  0  0  0
   16.5699   -2.1632   21.5449 O   0  0  0  0  0  0  0  0  0  0  0  0
   16.4552    0.9033   20.4723 H   0  0  0  0  0  0  0  0  0  0  0  0
   17.2931   -2.7828   21.7295 H   0  0  0  0  0  0  0  0  0  0  0  0
  1  2  2  0  0  0
  1  8  1  0  0  0
  2  3  1  0  0  0
  2  4  1  0  0  0
  4  5  1  0  0  0
  4  6  2  0  0  0
  6 10  1  0  0  0
  6  7  1  0  0  0
 10 11  1  0  0  0
  7  8  2  0  0  0
  7 25  1  0  0  0
 25 26  1  0  0  0
 26 27  1  0  0  0
 27 28  2  0  0  0
 27 29  1  0  0  0
 27 30  1  0  0  0
 11 12  2  0  0  0
 12 13  1  0  0  0
 12 17  1  0  0  0
 13 14  2  0  0  0
 13 15  1  0  0  0
 17 18  2  0  0  0
 18 19  1  0  0  0
 19 20  1  0  0  0
 20 21  1  0  0  0
 21 22  1  0  0  0
  5  9  1  0  0  0
 29 31  1  0  0  0
 30 32  1  0  0  0
 15 16  1  0  0  0
 22 23  1  0  0  0
 22 24  1  0  0  0
M  END
> <minimizedAffinity>
-8.23005

$$$$
1M7Y_PPG_A_600


 32 32  0  0  0  0  0  0  0  0999 V2000
   18.8822    0.7311   18.8940 N   0  0  0  0  0  0  0  0  0  0  0  0
   20.2449    0.9524   19.1306 C   0  0  0  0  0  0  0  0  0  0  0  0
   20.9732    1.6625   18.0370 C   0  0  0  0  0  0  0  0  0  0  0  0
   20.7887    0.4904   20.3640 C   0  0  0  0  0  0  0  0  0  0  0  0
   22.0620    0.6890   20.6091 O   0  0  0  0  0  0  0  0  0  0  0  0
   19.8806   -0.1948   21.3086 C   0  0  0  0  0  0  0  0  0  0  0  0
   18.4600   -0.3639   20.9300 C   0  0  0  0  0  0  0  0  0  0  0  0
   18.0018    0.1070   19.7315 C   0  0  0  0  0  0  0  0  0  0  0  0
   22.5975    1.1289   19.9783 H   0  0  0  0  0  0  0  0  0  0  0  0
   20.4051   -0.7330   22.6951 C   0  0  0  0  0  0  0  0  0  0  0  0
   21.8260   -0.9645   22.6945 N   0  0  0  0  0  0  0  0  0  0  0  0
   22.5906   -1.2652   23.7615 C   0  0  0  0  0  0  0  0  0  0  0  0
   23.9731   -1.3429   23.5053 C   0  0  0  0  0  0  0  0  0  0  0  0
   24.7728   -0.6646   24.2609 O   0  0  0  0  0  0  0  0  0  0  0  0
   24.4501   -2.0756   22.5249 O   0  0  0  0  0  0  0  0  0  0  0  0
   23.8667   -2.5657   21.9796 H   0  0  0  0  0  0  0  0  0  0  0  0
   21.9870   -1.5337   25.0564 C   0  0  0  0  0  0  0  0  0  0  0  0
   21.5338   -0.5789   25.8705 C   0  0  0  0  0  0  0  0  0  0  0  0
   20.9121   -1.0466   27.0942 O   0  0  0  0  0  0  0  0  0  0  0  0
   21.3323   -0.2586   28.2244 C   0  0  0  0  0  0  0  0  0  0  0  0
   21.1786    1.2400   27.9352 C   0  0  0  0  0  0  0  0  0  0  0  0
   19.8460    1.6773   28.3498 N   0  0  0  0  0  0  0  0  0  0  0  0
   19.1401    1.1539   27.8321 H   0  0  0  0  0  0  0  0  0  0  0  0
   19.7399    2.6733   28.1574 H   0  0  0  0  0  0  0  0  0  0  0  0
   17.5309   -1.0697   21.9187 C   0  0  0  0  0  0  0  0  0  0  0  0
   17.3014   -0.2090   23.0235 O   0  0  0  0  0  0  0  0  0  0  0  0
   17.1377   -0.7909   24.5410 P   0  0  0  0  0  0  0  0  0  0  0  0
   15.6762   -0.6937   24.8267 O   0  0  0  0  0  0  0  0  0  0  0  0
   17.8932    0.0660   25.4412 O   0  0  0  0  0  0  0  0  0  0  0  0
   17.6532   -2.1743   24.5780 O   0  0  0  0  0  0  0  0  0  0  0  0
   17.5392    0.9683   25.4018 H   0  0  0  0  0  0  0  0  0  0  0  0
   17.1367   -2.7281   23.9719 H   0  0  0  0  0  0  0  0  0  0  0  0
  1  2  2  0  0  0
  1  8  1  0  0  0
  2  3  1  0  0  0
  2  4  1  0  0  0
  4  5  1  0  0  0
  4  6  2  0  0  0
  6 10  1  0  0  0
  6  7  1  0  0  0
 10 11  1  0  0  0
  7  8  2  0  0  0
  7 25  1  0  0  0
 25 26  1  0  0  0
 26 27  1  0  0  0
 27 28  2  0  0  0
 27 29  1  0  0  0
 27 30  1  0  0  0
 11 12  2  0  0  0
 12 13  1  0  0  0
 12 17  1  0  0  0
 13 14  2  0  0  0
 13 15  1  0  0  0
 17 18  2  0  0  0
 18 19  1  0  0  0
 19 20  1  0  0  0
 20 21  1  0  0  0
 21 22  1  0  0  0
  5  9  1  0  0  0
 29 31  1  0  0  0
 30 32  1  0  0  0
 15 16  1  0  0  0
 22 23  1  0  0  0
 22 24  1  0  0  0
M  END
> <minimizedAffinity>
-8.18717

$$$$
1M7Y_PPG_A_600


 32 32  0  0  0  0  0  0  0  0999 V2000
   16.5390   -0.2103   26.1061 N   0  0  0  0  0  0  0  0  0  0  0  0
   16.2438   -0.9442   24.9500 C   0  0  0  0  0  0  0  0  0  0  0  0
   14.8485   -1.4708   24.8701 C   0  0  0  0  0  0  0  0  0  0  0  0
   17.2798   -1.1101   23.9859 C   0  0  0  0  0  0  0  0  0  0  0  0
   17.0258   -1.7911   22.8938 O   0  0  0  0  0  0  0  0  0  0  0  0
   18.5967   -0.5015   24.2715 C   0  0  0  0  0  0  0  0  0  0  0  0
   18.7723    0.2475   25.5357 C   0  0  0  0  0  0  0  0  0  0  0  0
   17.7348    0.3724   26.4166 C   0  0  0  0  0  0  0  0  0  0  0  0
   16.1744   -2.1581   22.7578 H   0  0  0  0  0  0  0  0  0  0  0  0
   19.7935   -0.6381   23.2536 C   0  0  0  0  0  0  0  0  0  0  0  0
   19.4075   -0.3211   21.9034 N   0  0  0  0  0  0  0  0  0  0  0  0
   20.2286    0.0299   20.8954 C   0  0  0  0  0  0  0  0  0  0  0  0
   19.5849    0.3876   19.6951 C   0  0  0  0  0  0  0  0  0  0  0  0
   18.3663   -0.0040   19.5160 O   0  0  0  0  0  0  0  0  0  0  0  0
   20.1963    1.0941   18.7716 O   0  0  0  0  0  0  0  0  0  0  0  0
   21.0798    1.3758   18.9057 H   0  0  0  0  0  0  0  0  0  0  0  0
   21.6719   -0.0203   21.0607 C   0  0  0  0  0  0  0  0  0  0  0  0
   22.3523    0.8093   21.8535 C   0  0  0  0  0  0  0  0  0  0  0  0
   23.7796    0.5661   21.9319 O   0  0  0  0  0  0  0  0  0  0  0  0
   24.0581   -0.8337   22.1263 C   0  0  0  0  0  0  0  0  0  0  0  0
   23.9890   -1.2051   23.6130 C   0  0  0  0  0  0  0  0  0  0  0  0
   23.0430   -2.3059   23.7920 N   0  0  0  0  0  0  0  0  0  0  0  0
   22.1202   -2.0172   23.4673 H   0  0  0  0  0  0  0  0  0  0  0  0
   22.9935   -2.5544   24.7800 H   0  0  0  0  0  0  0  0  0  0  0  0
   20.1380    0.8763   25.8158 C   0  0  0  0  0  0  0  0  0  0  0  0
   20.4977    0.6055   27.1617 O   0  0  0  0  0  0  0  0  0  0  0  0
   21.2739   -0.7699   27.5789 P   0  0  0  0  0  0  0  0  0  0  0  0
   22.4510   -0.3125   28.3740 O   0  0  0  0  0  0  0  0  0  0  0  0
   21.7069   -1.4360   26.3607 O   0  0  0  0  0  0  0  0  0  0  0  0
   20.3453   -1.6268   28.3434 O   0  0  0  0  0  0  0  0  0  0  0  0
   22.3148   -0.8574   25.8744 H   0  0  0  0  0  0  0  0  0  0  0  0
   20.0692   -1.1648   29.1504 H   0  0  0  0  0  0  0  0  0  0  0  0
  1  2  2  0  0  0
  1  8  1  0  0  0
  2  3  1  0  0  0
  2  4  1  0  0  0
  4  5  1  0  0  0
  4  6  2  0  0  0
  6 10  1  0  0  0
  6  7  1  0  0  0
 10 11  1  0  0  0
  7  8  2  0  0  0
  7 25  1  0  0  0
 25 26  1  0  0  0
 26 27  1  0  0  0
 27 28  2  0  0  0
 27 29  1  0  0  0
 27 30  1  0  0  0
 11 12  2  0  0  0
 12 13  1  0  0  0
 12 17  1  0  0  0
 13 14  2  0  0  0
 13 15  1  0  0  0
 17 18  2  0  0  0
 18 19  1  0  0  0
 19 20  1  0  0  0
 20 21  1  0  0  0
 21 22  1  0  0  0
  5  9  1  0  0  0
 29 31  1  0  0  0
 30 32  1  0  0  0
 15 16  1  0  0  0
 22 23  1  0  0  0
 22 24  1  0  0  0
M  END
> <minimizedAffinity>
-8.04883

$$$$
