3DJO_U2P_A_125


 26 27  0  0  0  0  0  0  0  0999 V2000
   28.9163   44.1121    5.0909 C   0  0  0  0  0  0  0  0  0  0  0  0
   30.1318   43.3351    5.3370 O   0  0  0  0  0  0  0  0  0  0  0  0
   30.2083   42.2798    4.3566 C   0  0  0  0  0  0  0  0  0  0  0  0
   29.0593   42.5125    3.3812 C   0  0  0  0  0  0  0  0  0  0  0  0
   28.0202   43.1578    4.2908 C   0  0  0  0  0  0  0  0  0  0  0  0
   27.0435   43.8784    3.5274 O   0  0  0  0  0  0  0  0  0  0  0  0
   27.4903   44.5250    2.9589 H   0  0  0  0  0  0  0  0  0  0  0  0
   30.0557   40.9628    5.0341 N   0  0  0  0  0  0  0  0  0  0  0  0
   29.9521   40.8394    6.4434 C   0  0  0  0  0  0  0  0  0  0  0  0
   29.8009   39.5841    7.0280 C   0  0  0  0  0  0  0  0  0  0  0  0
   29.7661   38.4482    6.2132 C   0  0  0  0  0  0  0  0  0  0  0  0
   29.6423   37.3253    6.6930 O   0  0  0  0  0  0  0  0  0  0  0  0
   29.8564   38.5744    4.8283 N   0  0  0  0  0  0  0  0  0  0  0  0
   30.0183   39.8237    4.2321 C   0  0  0  0  0  0  0  0  0  0  0  0
   30.1104   39.9259    3.0063 O   0  0  0  0  0  0  0  0  0  0  0  0
   29.8052   37.7699    4.2633 H   0  0  0  0  0  0  0  0  0  0  0  0
   26.9478   44.4828    6.5344 O   0  0  0  0  0  0  0  0  0  0  0  0
   28.3739   44.6026    6.4517 C   0  0  0  0  0  0  0  0  0  0  0  0
   26.6465   44.7996    7.4003 H   0  0  0  0  0  0  0  0  0  0  0  0
   29.5373   43.4115    2.3702 O   0  0  0  0  0  0  0  0  0  0  0  0
   29.3007   43.0455    0.8195 P   0  0  0  0  0  0  0  0  0  0  0  0
   27.9680   43.4883    0.3736 O   0  0  0  0  0  0  0  0  0  0  0  0
   30.5326   43.7396    0.0064 O   0  0  0  0  0  0  0  0  0  0  0  0
   29.5274   41.4673    0.6814 O   0  0  0  0  0  0  0  0  0  0  0  0
   30.4489   44.7048    0.0549 H   0  0  0  0  0  0  0  0  0  0  0  0
   28.8197   40.9969    1.1490 H   0  0  0  0  0  0  0  0  0  0  0  0
 17 18  1  0  0  0
 18  1  1  0  0  0
  1  2  1  0  0  0
  1  5  1  0  0  0
  2  3  1  0  0  0
  3  8  1  0  0  0
  3  4  1  0  0  0
  8  9  1  0  0  0
  8 14  1  0  0  0
  9 10  2  0  0  0
 10 11  1  0  0  0
 11 12  2  0  0  0
 11 13  1  0  0  0
 13 14  1  0  0  0
 14 15  2  0  0  0
  4 20  1  0  0  0
  4  5  1  0  0  0
 20 21  1  0  0  0
 21 22  2  0  0  0
 21 23  1  0  0  0
 21 24  1  0  0  0
  5  6  1  0  0  0
 17 19  1  0  0  0
 13 16  1  0  0  0
 23 25  1  0  0  0
 24 26  1  0  0  0
  6  7  1  0  0  0
M  END
> <minimizedAffinity>
-6.78022

$$$$
3DJO_U2P_A_125


 26 27  0  0  0  0  0  0  0  0999 V2000
   30.2644   42.6750    7.7524 C   0  0  0  0  0  0  0  0  0  0  0  0
   29.1672   42.0914    6.9795 O   0  0  0  0  0  0  0  0  0  0  0  0
   29.6381   40.8775    6.3586 C   0  0  0  0  0  0  0  0  0  0  0  0
   31.0457   40.6367    6.8938 C   0  0  0  0  0  0  0  0  0  0  0  0
   31.5257   42.0644    7.1276 C   0  0  0  0  0  0  0  0  0  0  0  0
   32.6274   42.0941    8.0448 O   0  0  0  0  0  0  0  0  0  0  0  0
   32.3742   41.6492    8.8688 H   0  0  0  0  0  0  0  0  0  0  0  0
   29.6680   41.0568    4.8809 N   0  0  0  0  0  0  0  0  0  0  0  0
   29.7372   42.3355    4.2707 C   0  0  0  0  0  0  0  0  0  0  0  0
   29.7725   42.4490    2.8828 C   0  0  0  0  0  0  0  0  0  0  0  0
   29.7252   41.2919    2.0990 C   0  0  0  0  0  0  0  0  0  0  0  0
   29.7461   41.3530    0.8734 O   0  0  0  0  0  0  0  0  0  0  0  0
   29.6690   40.0370    2.7023 N   0  0  0  0  0  0  0  0  0  0  0  0
   29.6228   39.9106    4.0895 C   0  0  0  0  0  0  0  0  0  0  0  0
   29.5601   38.7967    4.6156 O   0  0  0  0  0  0  0  0  0  0  0  0
   29.6619   39.2284    2.1408 H   0  0  0  0  0  0  0  0  0  0  0  0
   31.4082   44.8629    7.7193 O   0  0  0  0  0  0  0  0  0  0  0  0
   30.1308   44.2129    7.6936 C   0  0  0  0  0  0  0  0  0  0  0  0
   31.2828   45.8240    7.6809 H   0  0  0  0  0  0  0  0  0  0  0  0
   30.9135   39.8955    8.1153 O   0  0  0  0  0  0  0  0  0  0  0  0
   30.9404   38.2858    8.0628 P   0  0  0  0  0  0  0  0  0  0  0  0
   31.7922   37.7403    9.1342 O   0  0  0  0  0  0  0  0  0  0  0  0
   29.3821   37.8124    8.1536 O   0  0  0  0  0  0  0  0  0  0  0  0
   31.4287   37.8832    6.5930 O   0  0  0  0  0  0  0  0  0  0  0  0
   29.0281   38.0318    9.0296 H   0  0  0  0  0  0  0  0  0  0  0  0
   32.3565   38.1419    6.4783 H   0  0  0  0  0  0  0  0  0  0  0  0
 17 18  1  0  0  0
 18  1  1  0  0  0
  1  2  1  0  0  0
  1  5  1  0  0  0
  2  3  1  0  0  0
  3  8  1  0  0  0
  3  4  1  0  0  0
  8  9  1  0  0  0
  8 14  1  0  0  0
  9 10  2  0  0  0
 10 11  1  0  0  0
 11 12  2  0  0  0
 11 13  1  0  0  0
 13 14  1  0  0  0
 14 15  2  0  0  0
  4 20  1  0  0  0
  4  5  1  0  0  0
 20 21  1  0  0  0
 21 22  2  0  0  0
 21 23  1  0  0  0
 21 24  1  0  0  0
  5  6  1  0  0  0
 17 19  1  0  0  0
 13 16  1  0  0  0
 23 25  1  0  0  0
 24 26  1  0  0  0
  6  7  1  0  0  0
M  END
> <minimizedAffinity>
-6.48136

$$$$
3DJO_U2P_A_125


 26 27  0  0  0  0  0  0  0  0999 V2000
   30.1099   40.9996   10.0044 C   0  0  0  0  0  0  0  0  0  0  0  0
   29.2154   40.2627    9.1108 O   0  0  0  0  0  0  0  0  0  0  0  0
   29.9860   39.2636    8.4117 C   0  0  0  0  0  0  0  0  0  0  0  0
   31.3872   39.3004    9.0127 C   0  0  0  0  0  0  0  0  0  0  0  0
   31.5047   40.7675    9.4090 C   0  0  0  0  0  0  0  0  0  0  0  0
   32.5290   40.9545   10.3949 O   0  0  0  0  0  0  0  0  0  0  0  0
   32.3546   40.3786   11.1556 H   0  0  0  0  0  0  0  0  0  0  0  0
   30.0337   39.6001    6.9621 N   0  0  0  0  0  0  0  0  0  0  0  0
   30.1895   40.9302    6.4944 C   0  0  0  0  0  0  0  0  0  0  0  0
   30.2380   41.1913    5.1270 C   0  0  0  0  0  0  0  0  0  0  0  0
   30.1179   40.1319    4.2222 C   0  0  0  0  0  0  0  0  0  0  0  0
   30.1478   40.3244    3.0104 O   0  0  0  0  0  0  0  0  0  0  0  0
   29.9767   38.8253    4.6856 N   0  0  0  0  0  0  0  0  0  0  0  0
   29.9166   38.5522    6.0509 C   0  0  0  0  0  0  0  0  0  0  0  0
   29.7785   37.3942    6.4530 O   0  0  0  0  0  0  0  0  0  0  0  0
   29.9187   38.0847    4.0395 H   0  0  0  0  0  0  0  0  0  0  0  0
   30.6964   43.3974    9.9496 O   0  0  0  0  0  0  0  0  0  0  0  0
   29.6180   42.4621   10.0803 C   0  0  0  0  0  0  0  0  0  0  0  0
   30.3485   44.3013   10.0021 H   0  0  0  0  0  0  0  0  0  0  0  0
   31.3839   38.4238   10.1488 O   0  0  0  0  0  0  0  0  0  0  0  0
   32.6663   37.4878   10.4210 P   0  0  0  0  0  0  0  0  0  0  0  0
   33.2621   37.0327    9.1526 O   0  0  0  0  0  0  0  0  0  0  0  0
   33.6767   38.3762   11.3431 O   0  0  0  0  0  0  0  0  0  0  0  0
   32.1684   36.2895   11.3577 O   0  0  0  0  0  0  0  0  0  0  0  0
   34.0138   39.1239   10.8252 H   0  0  0  0  0  0  0  0  0  0  0  0
   31.5592   35.7219   10.8602 H   0  0  0  0  0  0  0  0  0  0  0  0
 17 18  1  0  0  0
 18  1  1  0  0  0
  1  2  1  0  0  0
  1  5  1  0  0  0
  2  3  1  0  0  0
  3  8  1  0  0  0
  3  4  1  0  0  0
  8  9  1  0  0  0
  8 14  1  0  0  0
  9 10  2  0  0  0
 10 11  1  0  0  0
 11 12  2  0  0  0
 11 13  1  0  0  0
 13 14  1  0  0  0
 14 15  2  0  0  0
  4 20  1  0  0  0
  4  5  1  0  0  0
 20 21  1  0  0  0
 21 22  2  0  0  0
 21 23  1  0  0  0
 21 24  1  0  0  0
  5  6  1  0  0  0
 17 19  1  0  0  0
 13 16  1  0  0  0
 23 25  1  0  0  0
 24 26  1  0  0  0
  6  7  1  0  0  0
M  END
> <minimizedAffinity>
-6.47476

$$$$
3DJO_U2P_A_125


 26 27  0  0  0  0  0  0  0  0999 V2000
   30.3517   40.1803    4.0682 C   0  0  0  0  0  0  0  0  0  0  0  0
   30.6410   41.5019    4.6264 O   0  0  0  0  0  0  0  0  0  0  0  0
   30.1840   41.5324    5.9942 C   0  0  0  0  0  0  0  0  0  0  0  0
   29.7238   40.1171    6.3275 C   0  0  0  0  0  0  0  0  0  0  0  0
   29.2354   39.6329    4.9672 C   0  0  0  0  0  0  0  0  0  0  0  0
   29.1831   38.2008    4.9184 O   0  0  0  0  0  0  0  0  0  0  0  0
   30.0521   37.8374    5.1503 H   0  0  0  0  0  0  0  0  0  0  0  0
   29.0500   42.4894    6.1160 N   0  0  0  0  0  0  0  0  0  0  0  0
   28.4268   43.0787    4.9861 C   0  0  0  0  0  0  0  0  0  0  0  0
   27.3623   43.9614    5.1534 C   0  0  0  0  0  0  0  0  0  0  0  0
   26.9245   44.2702    6.4451 C   0  0  0  0  0  0  0  0  0  0  0  0
   25.9950   45.0496    6.6319 O   0  0  0  0  0  0  0  0  0  0  0  0
   27.5315   43.6802    7.5521 N   0  0  0  0  0  0  0  0  0  0  0  0
   28.6040   42.8036    7.3984 C   0  0  0  0  0  0  0  0  0  0  0  0
   29.1444   42.2955    8.3839 O   0  0  0  0  0  0  0  0  0  0  0  0
   27.1981   43.8856    8.4554 H   0  0  0  0  0  0  0  0  0  0  0  0
   28.7210   39.8382    2.2461 O   0  0  0  0  0  0  0  0  0  0  0  0
   30.0195   40.3521    2.5694 C   0  0  0  0  0  0  0  0  0  0  0  0
   28.5498   39.9640    1.2997 H   0  0  0  0  0  0  0  0  0  0  0  0
   30.8754   39.3942    6.7860 O   0  0  0  0  0  0  0  0  0  0  0  0
   30.7454   38.4574    8.0899 P   0  0  0  0  0  0  0  0  0  0  0  0
   30.3917   39.2561    9.2764 O   0  0  0  0  0  0  0  0  0  0  0  0
   29.6426   37.3174    7.7094 O   0  0  0  0  0  0  0  0  0  0  0  0
   32.1366   37.6800    8.2362 O   0  0  0  0  0  0  0  0  0  0  0  0
   28.7715   37.7316    7.6069 H   0  0  0  0  0  0  0  0  0  0  0  0
   32.8372   38.3111    8.4639 H   0  0  0  0  0  0  0  0  0  0  0  0
 17 18  1  0  0  0
 18  1  1  0  0  0
  1  2  1  0  0  0
  1  5  1  0  0  0
  2  3  1  0  0  0
  3  8  1  0  0  0
  3  4  1  0  0  0
  8  9  1  0  0  0
  8 14  1  0  0  0
  9 10  2  0  0  0
 10 11  1  0  0  0
 11 12  2  0  0  0
 11 13  1  0  0  0
 13 14  1  0  0  0
 14 15  2  0  0  0
  4 20  1  0  0  0
  4  5  1  0  0  0
 20 21  1  0  0  0
 21 22  2  0  0  0
 21 23  1  0  0  0
 21 24  1  0  0  0
  5  6  1  0  0  0
 17 19  1  0  0  0
 13 16  1  0  0  0
 23 25  1  0  0  0
 24 26  1  0  0  0
  6  7  1  0  0  0
M  END
> <minimizedAffinity>
-6.37152

$$$$
3DJO_U2P_A_125


 26 27  0  0  0  0  0  0  0  0999 V2000
   30.6380   39.1122    6.5989 C   0  0  0  0  0  0  0  0  0  0  0  0
   31.2432   40.3444    7.1061 O   0  0  0  0  0  0  0  0  0  0  0  0
   31.3584   40.2425    8.5404 C   0  0  0  0  0  0  0  0  0  0  0  0
   30.9340   38.8245    8.9080 C   0  0  0  0  0  0  0  0  0  0  0  0
   29.9127   38.5251    7.8167 C   0  0  0  0  0  0  0  0  0  0  0  0
   29.7123   37.1127    7.6720 O   0  0  0  0  0  0  0  0  0  0  0  0
   30.5651   36.6801    7.5094 H   0  0  0  0  0  0  0  0  0  0  0  0
   30.4553   41.2375    9.1814 N   0  0  0  0  0  0  0  0  0  0  0  0
   29.2786   41.7153    8.5495 C   0  0  0  0  0  0  0  0  0  0  0  0
   28.4615   42.6397    9.1963 C   0  0  0  0  0  0  0  0  0  0  0  0
   28.8203   43.1008   10.4668 C   0  0  0  0  0  0  0  0  0  0  0  0
   28.1295   43.9211   11.0637 O   0  0  0  0  0  0  0  0  0  0  0  0
   29.9707   42.6202   11.0892 N   0  0  0  0  0  0  0  0  0  0  0  0
   30.8019   41.7032   10.4484 C   0  0  0  0  0  0  0  0  0  0  0  0
   31.8254   41.2923   11.0008 O   0  0  0  0  0  0  0  0  0  0  0  0
   30.1996   42.9329   11.9942 H   0  0  0  0  0  0  0  0  0  0  0  0
   29.0196   38.3443    4.8997 O   0  0  0  0  0  0  0  0  0  0  0  0
   29.7673   39.4714    5.3744 C   0  0  0  0  0  0  0  0  0  0  0  0
   28.4874   38.6089    4.1331 H   0  0  0  0  0  0  0  0  0  0  0  0
   32.1004   37.9945    8.8103 O   0  0  0  0  0  0  0  0  0  0  0  0
   32.8376   37.5157   10.1602 P   0  0  0  0  0  0  0  0  0  0  0  0
   31.9295   36.7116   10.9967 O   0  0  0  0  0  0  0  0  0  0  0  0
   34.1726   36.7132    9.6762 O   0  0  0  0  0  0  0  0  0  0  0  0
   33.3691   38.8391   10.8862 O   0  0  0  0  0  0  0  0  0  0  0  0
   33.9123   35.8947    9.2254 H   0  0  0  0  0  0  0  0  0  0  0  0
   32.6141   39.3620   11.1985 H   0  0  0  0  0  0  0  0  0  0  0  0
 17 18  1  0  0  0
 18  1  1  0  0  0
  1  2  1  0  0  0
  1  5  1  0  0  0
  2  3  1  0  0  0
  3  8  1  0  0  0
  3  4  1  0  0  0
  8  9  1  0  0  0
  8 14  1  0  0  0
  9 10  2  0  0  0
 10 11  1  0  0  0
 11 12  2  0  0  0
 11 13  1  0  0  0
 13 14  1  0  0  0
 14 15  2  0  0  0
  4 20  1  0  0  0
  4  5  1  0  0  0
 20 21  1  0  0  0
 21 22  2  0  0  0
 21 23  1  0  0  0
 21 24  1  0  0  0
  5  6  1  0  0  0
 17 19  1  0  0  0
 13 16  1  0  0  0
 23 25  1  0  0  0
 24 26  1  0  0  0
  6  7  1  0  0  0
M  END
> <minimizedAffinity>
-5.87948

$$$$
3DJO_U2P_A_125


 26 27  0  0  0  0  0  0  0  0999 V2000
   30.1828   43.7875    7.6775 C   0  0  0  0  0  0  0  0  0  0  0  0
   31.0198   43.0897    6.7007 O   0  0  0  0  0  0  0  0  0  0  0  0
   30.1782   42.6194    5.6278 C   0  0  0  0  0  0  0  0  0  0  0  0
   28.7853   43.1805    5.8940 C   0  0  0  0  0  0  0  0  0  0  0  0
   28.7729   43.2413    7.4170 C   0  0  0  0  0  0  0  0  0  0  0  0
   27.7679   44.1490    7.8883 O   0  0  0  0  0  0  0  0  0  0  0  0
   27.9041   45.0203    7.4843 H   0  0  0  0  0  0  0  0  0  0  0  0
   30.1490   41.1309    5.6377 N   0  0  0  0  0  0  0  0  0  0  0  0
   30.4649   40.3711    6.7932 C   0  0  0  0  0  0  0  0  0  0  0  0
   30.4133   38.9798    6.7532 C   0  0  0  0  0  0  0  0  0  0  0  0
   30.0608   38.3410    5.5602 C   0  0  0  0  0  0  0  0  0  0  0  0
   30.0126   37.1169    5.4848 O   0  0  0  0  0  0  0  0  0  0  0  0
   29.7398   39.0909    4.4304 N   0  0  0  0  0  0  0  0  0  0  0  0
   29.7977   40.4832    4.4548 C   0  0  0  0  0  0  0  0  0  0  0  0
   29.5246   41.1396    3.4467 O   0  0  0  0  0  0  0  0  0  0  0  0
   29.4684   38.6308    3.6034 H   0  0  0  0  0  0  0  0  0  0  0  0
   29.7602   43.2574   10.0517 O   0  0  0  0  0  0  0  0  0  0  0  0
   30.7768   43.5442    9.0826 C   0  0  0  0  0  0  0  0  0  0  0  0
   30.1714   43.1111   10.9180 H   0  0  0  0  0  0  0  0  0  0  0  0
   28.7308   44.4821    5.2926 O   0  0  0  0  0  0  0  0  0  0  0  0
   27.6826   44.7517    4.0996 P   0  0  0  0  0  0  0  0  0  0  0  0
   28.1302   45.8698    3.2508 O   0  0  0  0  0  0  0  0  0  0  0  0
   27.5415   43.3349    3.3038 O   0  0  0  0  0  0  0  0  0  0  0  0
   26.2599   45.0036    4.7878 O   0  0  0  0  0  0  0  0  0  0  0  0
   28.3799   43.1269    2.8626 H   0  0  0  0  0  0  0  0  0  0  0  0
   26.2822   45.8391    5.2801 H   0  0  0  0  0  0  0  0  0  0  0  0
 17 18  1  0  0  0
 18  1  1  0  0  0
  1  2  1  0  0  0
  1  5  1  0  0  0
  2  3  1  0  0  0
  3  8  1  0  0  0
  3  4  1  0  0  0
  8  9  1  0  0  0
  8 14  1  0  0  0
  9 10  2  0  0  0
 10 11  1  0  0  0
 11 12  2  0  0  0
 11 13  1  0  0  0
 13 14  1  0  0  0
 14 15  2  0  0  0
  4 20  1  0  0  0
  4  5  1  0  0  0
 20 21  1  0  0  0
 21 22  2  0  0  0
 21 23  1  0  0  0
 21 24  1  0  0  0
  5  6  1  0  0  0
 17 19  1  0  0  0
 13 16  1  0  0  0
 23 25  1  0  0  0
 24 26  1  0  0  0
  6  7  1  0  0  0
M  END
> <minimizedAffinity>
-5.79231

$$$$
3DJO_U2P_A_125


 26 27  0  0  0  0  0  0  0  0999 V2000
   31.4196   43.2686    7.6564 C   0  0  0  0  0  0  0  0  0  0  0  0
   30.5718   43.7314    6.5568 O   0  0  0  0  0  0  0  0  0  0  0  0
   29.4989   42.7846    6.3748 C   0  0  0  0  0  0  0  0  0  0  0  0
   29.6189   41.7726    7.5094 C   0  0  0  0  0  0  0  0  0  0  0  0
   31.1245   41.7657    7.7467 C   0  0  0  0  0  0  0  0  0  0  0  0
   31.4389   41.2509    9.0475 O   0  0  0  0  0  0  0  0  0  0  0  0
   30.9605   41.7596    9.7208 H   0  0  0  0  0  0  0  0  0  0  0  0
   29.6535   42.1086    5.0573 N   0  0  0  0  0  0  0  0  0  0  0  0
   30.2576   40.8321    4.9232 C   0  0  0  0  0  0  0  0  0  0  0  0
   30.3697   40.2380    3.6684 C   0  0  0  0  0  0  0  0  0  0  0  0
   29.8936   40.9180    2.5430 C   0  0  0  0  0  0  0  0  0  0  0  0
   29.9824   40.4296    1.4205 O   0  0  0  0  0  0  0  0  0  0  0  0
   29.2903   42.1666    2.6801 N   0  0  0  0  0  0  0  0  0  0  0  0
   29.1815   42.7761    3.9287 C   0  0  0  0  0  0  0  0  0  0  0  0
   28.6576   43.8873    4.0402 O   0  0  0  0  0  0  0  0  0  0  0  0
   28.9360   42.6245    1.8839 H   0  0  0  0  0  0  0  0  0  0  0  0
   33.7598   42.5469    7.3416 O   0  0  0  0  0  0  0  0  0  0  0  0
   32.8770   43.6763    7.3460 C   0  0  0  0  0  0  0  0  0  0  0  0
   34.6621   42.8427    7.1436 H   0  0  0  0  0  0  0  0  0  0  0  0
   28.8898   42.3005    8.6268 O   0  0  0  0  0  0  0  0  0  0  0  0
   28.2763   41.2830    9.7144 P   0  0  0  0  0  0  0  0  0  0  0  0
   26.8085   41.3980    9.7707 O   0  0  0  0  0  0  0  0  0  0  0  0
   28.8058   39.8013    9.2846 O   0  0  0  0  0  0  0  0  0  0  0  0
   28.9953   41.6113   11.1060 O   0  0  0  0  0  0  0  0  0  0  0  0
   28.4010   39.5454    8.4412 H   0  0  0  0  0  0  0  0  0  0  0  0
   28.7172   42.4878   11.4147 H   0  0  0  0  0  0  0  0  0  0  0  0
 17 18  1  0  0  0
 18  1  1  0  0  0
  1  2  1  0  0  0
  1  5  1  0  0  0
  2  3  1  0  0  0
  3  8  1  0  0  0
  3  4  1  0  0  0
  8  9  1  0  0  0
  8 14  1  0  0  0
  9 10  2  0  0  0
 10 11  1  0  0  0
 11 12  2  0  0  0
 11 13  1  0  0  0
 13 14  1  0  0  0
 14 15  2  0  0  0
  4 20  1  0  0  0
  4  5  1  0  0  0
 20 21  1  0  0  0
 21 22  2  0  0  0
 21 23  1  0  0  0
 21 24  1  0  0  0
  5  6  1  0  0  0
 17 19  1  0  0  0
 13 16  1  0  0  0
 23 25  1  0  0  0
 24 26  1  0  0  0
  6  7  1  0  0  0
M  END
> <minimizedAffinity>
-5.75605

$$$$
3DJO_U2P_A_125


 26 27  0  0  0  0  0  0  0  0999 V2000
   30.5749   40.1315    7.7945 C   0  0  0  0  0  0  0  0  0  0  0  0
   31.3319   40.7573    6.7095 O   0  0  0  0  0  0  0  0  0  0  0  0
   30.5778   41.8822    6.2131 C   0  0  0  0  0  0  0  0  0  0  0  0
   29.3713   42.0334    7.1336 C   0  0  0  0  0  0  0  0  0  0  0  0
   29.1302   40.5875    7.5514 C   0  0  0  0  0  0  0  0  0  0  0  0
   28.3542   40.5215    8.7552 O   0  0  0  0  0  0  0  0  0  0  0  0
   28.7902   41.0395    9.4498 H   0  0  0  0  0  0  0  0  0  0  0  0
   30.1356   41.6051    4.8187 N   0  0  0  0  0  0  0  0  0  0  0  0
   30.3526   40.3542    4.1859 C   0  0  0  0  0  0  0  0  0  0  0  0
   29.9105   40.1421    2.8821 C   0  0  0  0  0  0  0  0  0  0  0  0
   29.2640   41.1780    2.2004 C   0  0  0  0  0  0  0  0  0  0  0  0
   28.8680   41.0306    1.0481 O   0  0  0  0  0  0  0  0  0  0  0  0
   29.0424   42.4015    2.8295 N   0  0  0  0  0  0  0  0  0  0  0  0
   29.4889   42.6296    4.1299 C   0  0  0  0  0  0  0  0  0  0  0  0
   29.3002   43.7197    4.6752 O   0  0  0  0  0  0  0  0  0  0  0  0
   28.5636   43.1148    2.3486 H   0  0  0  0  0  0  0  0  0  0  0  0
   29.6292   37.8509    7.8258 O   0  0  0  0  0  0  0  0  0  0  0  0
   30.8427   38.6106    7.7546 C   0  0  0  0  0  0  0  0  0  0  0  0
   29.8384   36.9042    7.7981 H   0  0  0  0  0  0  0  0  0  0  0  0
   29.7782   42.8613    8.2327 O   0  0  0  0  0  0  0  0  0  0  0  0
   29.4510   44.4380    8.1902 P   0  0  0  0  0  0  0  0  0  0  0  0
   29.4097   45.0019    9.5508 O   0  0  0  0  0  0  0  0  0  0  0  0
   30.5936   45.1031    7.2349 O   0  0  0  0  0  0  0  0  0  0  0  0
   28.0736   44.5988    7.3914 O   0  0  0  0  0  0  0  0  0  0  0  0
   31.4581   45.0351    7.6695 H   0  0  0  0  0  0  0  0  0  0  0  0
   27.3504   44.2183    7.9141 H   0  0  0  0  0  0  0  0  0  0  0  0
 17 18  1  0  0  0
 18  1  1  0  0  0
  1  2  1  0  0  0
  1  5  1  0  0  0
  2  3  1  0  0  0
  3  8  1  0  0  0
  3  4  1  0  0  0
  8  9  1  0  0  0
  8 14  1  0  0  0
  9 10  2  0  0  0
 10 11  1  0  0  0
 11 12  2  0  0  0
 11 13  1  0  0  0
 13 14  1  0  0  0
 14 15  2  0  0  0
  4 20  1  0  0  0
  4  5  1  0  0  0
 20 21  1  0  0  0
 21 22  2  0  0  0
 21 23  1  0  0  0
 21 24  1  0  0  0
  5  6  1  0  0  0
 17 19  1  0  0  0
 13 16  1  0  0  0
 23 25  1  0  0  0
 24 26  1  0  0  0
  6  7  1  0  0  0
M  END
> <minimizedAffinity>
-5.74611

$$$$
3DJO_U2P_A_125


 26 27  0  0  0  0  0  0  0  0999 V2000
   29.3429   42.2227   10.0335 C   0  0  0  0  0  0  0  0  0  0  0  0
   30.0775   40.9580   10.0862 O   0  0  0  0  0  0  0  0  0  0  0  0
   31.1194   40.9905    9.0893 C   0  0  0  0  0  0  0  0  0  0  0  0
   31.1084   42.3967    8.4989 C   0  0  0  0  0  0  0  0  0  0  0  0
   29.6348   42.7642    8.6280 C   0  0  0  0  0  0  0  0  0  0  0  0
   29.4510   44.1851    8.5693 O   0  0  0  0  0  0  0  0  0  0  0  0
   29.9992   44.6103    9.2473 H   0  0  0  0  0  0  0  0  0  0  0  0
   30.8264   39.9820    8.0340 N   0  0  0  0  0  0  0  0  0  0  0  0
   30.4840   40.3468    6.7066 C   0  0  0  0  0  0  0  0  0  0  0  0
   30.2283   39.3640    5.7532 C   0  0  0  0  0  0  0  0  0  0  0  0
   30.2993   38.0168    6.1215 C   0  0  0  0  0  0  0  0  0  0  0  0
   30.0726   37.1235    5.3109 O   0  0  0  0  0  0  0  0  0  0  0  0
   30.6474   37.6622    7.4233 N   0  0  0  0  0  0  0  0  0  0  0  0
   30.8955   38.6361    8.3889 C   0  0  0  0  0  0  0  0  0  0  0  0
   31.1905   38.3141    9.5426 O   0  0  0  0  0  0  0  0  0  0  0  0
   30.7191   36.7103    7.6644 H   0  0  0  0  0  0  0  0  0  0  0  0
   27.3686   40.7802    9.6904 O   0  0  0  0  0  0  0  0  0  0  0  0
   27.8645   41.9362   10.3779 C   0  0  0  0  0  0  0  0  0  0  0  0
   26.4406   40.6337    9.9319 H   0  0  0  0  0  0  0  0  0  0  0  0
   31.9514   43.2105    9.3273 O   0  0  0  0  0  0  0  0  0  0  0  0
   33.3921   43.6678    8.7706 P   0  0  0  0  0  0  0  0  0  0  0  0
   34.4087   43.6086    9.8355 O   0  0  0  0  0  0  0  0  0  0  0  0
   33.7080   42.6924    7.5020 O   0  0  0  0  0  0  0  0  0  0  0  0
   33.2009   45.1315    8.1524 O   0  0  0  0  0  0  0  0  0  0  0  0
   33.8345   41.7836    7.8166 H   0  0  0  0  0  0  0  0  0  0  0  0
   33.0089   45.7610    8.8650 H   0  0  0  0  0  0  0  0  0  0  0  0
 17 18  1  0  0  0
 18  1  1  0  0  0
  1  2  1  0  0  0
  1  5  1  0  0  0
  2  3  1  0  0  0
  3  8  1  0  0  0
  3  4  1  0  0  0
  8  9  1  0  0  0
  8 14  1  0  0  0
  9 10  2  0  0  0
 10 11  1  0  0  0
 11 12  2  0  0  0
 11 13  1  0  0  0
 13 14  1  0  0  0
 14 15  2  0  0  0
  4 20  1  0  0  0
  4  5  1  0  0  0
 20 21  1  0  0  0
 21 22  2  0  0  0
 21 23  1  0  0  0
 21 24  1  0  0  0
  5  6  1  0  0  0
 17 19  1  0  0  0
 13 16  1  0  0  0
 23 25  1  0  0  0
 24 26  1  0  0  0
  6  7  1  0  0  0
M  END
> <minimizedAffinity>
-5.54336

$$$$
3DJO_U2P_A_125


 26 27  0  0  0  0  0  0  0  0999 V2000
   30.7816   40.7857    8.7657 C   0  0  0  0  0  0  0  0  0  0  0  0
   31.3264   41.6491    7.7171 O   0  0  0  0  0  0  0  0  0  0  0  0
   30.2282   42.2647    7.0129 C   0  0  0  0  0  0  0  0  0  0  0  0
   28.9593   41.8674    7.7599 C   0  0  0  0  0  0  0  0  0  0  0  0
   29.3478   40.4969    8.3024 C   0  0  0  0  0  0  0  0  0  0  0  0
   28.5103   40.1226    9.4045 O   0  0  0  0  0  0  0  0  0  0  0  0
   28.5437   40.8130   10.0850 H   0  0  0  0  0  0  0  0  0  0  0  0
   30.1888   41.7548    5.6146 N   0  0  0  0  0  0  0  0  0  0  0  0
   30.6125   40.4457    5.2697 C   0  0  0  0  0  0  0  0  0  0  0  0
   30.5466   40.0132    3.9473 C   0  0  0  0  0  0  0  0  0  0  0  0
   30.0719   40.8862    2.9634 C   0  0  0  0  0  0  0  0  0  0  0  0
   30.0071   40.5431    1.7868 O   0  0  0  0  0  0  0  0  0  0  0  0
   29.6456   42.1674    3.3079 N   0  0  0  0  0  0  0  0  0  0  0  0
   29.7163   42.6156    4.6257 C   0  0  0  0  0  0  0  0  0  0  0  0
   29.3490   43.7556    4.9205 O   0  0  0  0  0  0  0  0  0  0  0  0
   29.2896   42.7644    2.6107 H   0  0  0  0  0  0  0  0  0  0  0  0
   31.0066   38.3865    9.3037 O   0  0  0  0  0  0  0  0  0  0  0  0
   31.7214   39.5702    8.9260 C   0  0  0  0  0  0  0  0  0  0  0  0
   31.6289   37.6479    9.3941 H   0  0  0  0  0  0  0  0  0  0  0  0
   28.7610   42.8337    8.8019 O   0  0  0  0  0  0  0  0  0  0  0  0
   27.5300   43.8666    8.6899 P   0  0  0  0  0  0  0  0  0  0  0  0
   27.8536   45.1421    9.3525 O   0  0  0  0  0  0  0  0  0  0  0  0
   27.2162   44.0123    7.0959 O   0  0  0  0  0  0  0  0  0  0  0  0
   26.2547   43.1290    9.3150 O   0  0  0  0  0  0  0  0  0  0  0  0
   27.9601   44.4560    6.6592 H   0  0  0  0  0  0  0  0  0  0  0  0
   26.3837   43.0132   10.2693 H   0  0  0  0  0  0  0  0  0  0  0  0
 17 18  1  0  0  0
 18  1  1  0  0  0
  1  2  1  0  0  0
  1  5  1  0  0  0
  2  3  1  0  0  0
  3  8  1  0  0  0
  3  4  1  0  0  0
  8  9  1  0  0  0
  8 14  1  0  0  0
  9 10  2  0  0  0
 10 11  1  0  0  0
 11 12  2  0  0  0
 11 13  1  0  0  0
 13 14  1  0  0  0
 14 15  2  0  0  0
  4 20  1  0  0  0
  4  5  1  0  0  0
 20 21  1  0  0  0
 21 22  2  0  0  0
 21 23  1  0  0  0
 21 24  1  0  0  0
  5  6  1  0  0  0
 17 19  1  0  0  0
 13 16  1  0  0  0
 23 25  1  0  0  0
 24 26  1  0  0  0
  6  7  1  0  0  0
M  END
> <minimizedAffinity>
-5.32906

$$$$
