5LVL_537_A_401


 18 21  0  0  0  0  0  0  0  0999 V2000
  -15.0752   -0.6878   -7.1768 C   0  0  0  0  0  0  0  0  0  0  0  0
  -15.7656   -1.7159   -7.7948 C   0  0  0  0  0  0  0  0  0  0  0  0
  -15.1313   -2.9000   -8.0593 C   0  0  0  0  0  0  0  0  0  0  0  0
  -13.7134   -3.1125   -7.6925 C   0  0  0  0  0  0  0  0  0  0  0  0
  -13.0801   -2.0489   -7.0679 C   0  0  0  0  0  0  0  0  0  0  0  0
  -13.7612   -0.8738   -6.8315 C   0  0  0  0  0  0  0  0  0  0  0  0
  -15.0773   -5.2198   -8.9342 C   0  0  0  0  0  0  0  0  0  0  0  0
  -15.9230   -6.1986   -9.5550 C   0  0  0  0  0  0  0  0  0  0  0  0
  -15.4334   -7.4713   -9.8584 C   0  0  0  0  0  0  0  0  0  0  0  0
  -14.0726   -7.6857   -9.5281 C   0  0  0  0  0  0  0  0  0  0  0  0
  -13.2698   -6.7197   -8.9244 C   0  0  0  0  0  0  0  0  0  0  0  0
  -13.7623   -5.4716   -8.6201 C   0  0  0  0  0  0  0  0  0  0  0  0
  -13.0238   -4.3958   -7.9684 C   0  0  0  0  0  0  0  0  0  0  0  0
  -15.7483   -3.9824   -8.6740 C   0  0  0  0  0  0  0  0  0  0  0  0
  -11.8058   -4.5750   -7.6780 O   0  0  0  0  0  0  0  0  0  0  0  0
  -17.0090   -4.1805   -9.1293 N   0  0  0  0  0  0  0  0  0  0  0  0
  -17.1033   -5.5206   -9.6127 N   0  0  0  0  0  0  0  0  0  0  0  0
  -17.9381   -5.9154   -9.9539 H   0  0  0  0  0  0  0  0  0  0  0  0
  1  2  2  0  0  0
  1  6  1  0  0  0
  2  3  1  0  0  0
  3  4  2  0  0  0
  3 14  1  0  0  0
  4  5  1  0  0  0
  4 13  1  0  0  0
  5  6  2  0  0  0
  7  8  2  0  0  0
  7 12  1  0  0  0
  7 14  1  0  0  0
  8  9  1  0  0  0
  8 17  1  0  0  0
  9 10  2  0  0  0
 10 11  1  0  0  0
 11 12  2  0  0  0
 12 13  1  0  0  0
 13 15  2  0  0  0
 14 16  2  0  0  0
 16 17  1  0  0  0
 17 18  1  0  0  0
M  END
> <minimizedAffinity>
-9.32687

$$$$
5LVL_537_A_401


 18 21  0  0  0  0  0  0  0  0999 V2000
  -17.5670   -0.3146   -7.8560 C   0  0  0  0  0  0  0  0  0  0  0  0
  -17.4778   -1.5988   -8.3643 C   0  0  0  0  0  0  0  0  0  0  0  0
  -16.3003   -2.2903   -8.2656 C   0  0  0  0  0  0  0  0  0  0  0  0
  -15.1101   -1.6955   -7.6179 C   0  0  0  0  0  0  0  0  0  0  0  0
  -15.2660   -0.4106   -7.1205 C   0  0  0  0  0  0  0  0  0  0  0  0
  -16.4708    0.2464   -7.2527 C   0  0  0  0  0  0  0  0  0  0  0  0
  -14.8912   -4.2988   -8.6266 C   0  0  0  0  0  0  0  0  0  0  0  0
  -14.9547   -5.6231   -9.1751 C   0  0  0  0  0  0  0  0  0  0  0  0
  -13.8441   -6.4688   -9.1214 C   0  0  0  0  0  0  0  0  0  0  0  0
  -12.6911   -5.9085   -8.5185 C   0  0  0  0  0  0  0  0  0  0  0  0
  -12.6527   -4.6190   -7.9914 C   0  0  0  0  0  0  0  0  0  0  0  0
  -13.7538   -3.7956   -8.0397 C   0  0  0  0  0  0  0  0  0  0  0  0
  -13.8350   -2.4429   -7.5001 C   0  0  0  0  0  0  0  0  0  0  0  0
  -16.1243   -3.5818   -8.7467 C   0  0  0  0  0  0  0  0  0  0  0  0
  -12.8079   -1.9311   -6.9680 O   0  0  0  0  0  0  0  0  0  0  0  0
  -16.9592   -4.4491   -9.3683 N   0  0  0  0  0  0  0  0  0  0  0  0
  -16.2552   -5.6734   -9.5779 N   0  0  0  0  0  0  0  0  0  0  0  0
  -16.6684   -6.4744   -9.9742 H   0  0  0  0  0  0  0  0  0  0  0  0
  1  2  2  0  0  0
  1  6  1  0  0  0
  2  3  1  0  0  0
  3  4  2  0  0  0
  3 14  1  0  0  0
  4  5  1  0  0  0
  4 13  1  0  0  0
  5  6  2  0  0  0
  7  8  2  0  0  0
  7 12  1  0  0  0
  7 14  1  0  0  0
  8  9  1  0  0  0
  8 17  1  0  0  0
  9 10  2  0  0  0
 10 11  1  0  0  0
 11 12  2  0  0  0
 12 13  1  0  0  0
 13 15  2  0  0  0
 14 16  2  0  0  0
 16 17  1  0  0  0
 17 18  1  0  0  0
M  END
> <minimizedAffinity>
-8.92990

$$$$
5LVL_537_A_401


 18 21  0  0  0  0  0  0  0  0999 V2000
  -15.4355   -7.4778   -9.8839 C   0  0  0  0  0  0  0  0  0  0  0  0
  -16.0201   -6.2598   -9.5833 C   0  0  0  0  0  0  0  0  0  0  0  0
  -15.2786   -5.2781   -8.9826 C   0  0  0  0  0  0  0  0  0  0  0  0
  -13.8522   -5.4864   -8.6482 C   0  0  0  0  0  0  0  0  0  0  0  0
  -13.3227   -6.7234   -8.9830 C   0  0  0  0  0  0  0  0  0  0  0  0
  -14.1141   -7.6817   -9.5794 C   0  0  0  0  0  0  0  0  0  0  0  0
  -14.9956   -3.0056   -8.0310 C   0  0  0  0  0  0  0  0  0  0  0  0
  -15.7265   -1.7923   -7.8019 C   0  0  0  0  0  0  0  0  0  0  0  0
  -15.1010   -0.6834   -7.2269 C   0  0  0  0  0  0  0  0  0  0  0  0
  -13.7390   -0.8718   -6.8859 C   0  0  0  0  0  0  0  0  0  0  0  0
  -13.0487   -2.0599   -7.1187 C   0  0  0  0  0  0  0  0  0  0  0  0
  -13.6695   -3.1445   -7.6941 C   0  0  0  0  0  0  0  0  0  0  0  0
  -13.0419   -4.4237   -8.0058 C   0  0  0  0  0  0  0  0  0  0  0  0
  -15.7847   -4.0282   -8.6480 C   0  0  0  0  0  0  0  0  0  0  0  0
  -11.8286   -4.6042   -7.6969 O   0  0  0  0  0  0  0  0  0  0  0  0
  -17.0057   -3.4625   -8.8056 N   0  0  0  0  0  0  0  0  0  0  0  0
  -16.9385   -2.1171   -8.3325 N   0  0  0  0  0  0  0  0  0  0  0  0
  -17.6930   -1.4868   -8.3845 H   0  0  0  0  0  0  0  0  0  0  0  0
  1  2  2  0  0  0
  1  6  1  0  0  0
  2  3  1  0  0  0
  3  4  2  0  0  0
  3 14  1  0  0  0
  4  5  1  0  0  0
  4 13  1  0  0  0
  5  6  2  0  0  0
  7  8  2  0  0  0
  7 12  1  0  0  0
  7 14  1  0  0  0
  8  9  1  0  0  0
  8 17  1  0  0  0
  9 10  2  0  0  0
 10 11  1  0  0  0
 11 12  2  0  0  0
 12 13  1  0  0  0
 13 15  2  0  0  0
 14 16  2  0  0  0
 16 17  1  0  0  0
 17 18  1  0  0  0
M  END
> <minimizedAffinity>
-8.92628

$$$$
5LVL_537_A_401


 18 21  0  0  0  0  0  0  0  0999 V2000
  -14.1159   -8.0019   -9.5748 C   0  0  0  0  0  0  0  0  0  0  0  0
  -13.3939   -7.0178   -8.9223 C   0  0  0  0  0  0  0  0  0  0  0  0
  -13.9579   -5.7893   -8.7060 C   0  0  0  0  0  0  0  0  0  0  0  0
  -15.3360   -5.4855   -9.1518 C   0  0  0  0  0  0  0  0  0  0  0  0
  -16.0102   -6.5152   -9.7904 C   0  0  0  0  0  0  0  0  0  0  0  0
  -15.3942   -7.7321   -9.9915 C   0  0  0  0  0  0  0  0  0  0  0  0
  -13.9112   -3.4703   -7.8284 C   0  0  0  0  0  0  0  0  0  0  0  0
  -13.0552   -2.5613   -7.1215 C   0  0  0  0  0  0  0  0  0  0  0  0
  -13.4976   -1.2775   -6.7936 C   0  0  0  0  0  0  0  0  0  0  0  0
  -14.8095   -0.9653   -7.2276 C   0  0  0  0  0  0  0  0  0  0  0  0
  -15.6238   -1.8651   -7.9127 C   0  0  0  0  0  0  0  0  0  0  0  0
  -15.1840   -3.1311   -8.2236 C   0  0  0  0  0  0  0  0  0  0  0  0
  -15.9553   -4.1598   -8.9124 C   0  0  0  0  0  0  0  0  0  0  0  0
  -13.3059   -4.7467   -8.0592 C   0  0  0  0  0  0  0  0  0  0  0  0
  -17.1243   -3.8872   -9.3114 O   0  0  0  0  0  0  0  0  0  0  0  0
  -12.0754   -4.6419   -7.5019 N   0  0  0  0  0  0  0  0  0  0  0  0
  -11.9613   -3.3462   -6.9130 N   0  0  0  0  0  0  0  0  0  0  0  0
  -11.1709   -3.0495   -6.4067 H   0  0  0  0  0  0  0  0  0  0  0  0
  1  2  2  0  0  0
  1  6  1  0  0  0
  2  3  1  0  0  0
  3  4  2  0  0  0
  3 14  1  0  0  0
  4  5  1  0  0  0
  4 13  1  0  0  0
  5  6  2  0  0  0
  7  8  2  0  0  0
  7 12  1  0  0  0
  7 14  1  0  0  0
  8  9  1  0  0  0
  8 17  1  0  0  0
  9 10  2  0  0  0
 10 11  1  0  0  0
 11 12  2  0  0  0
 12 13  1  0  0  0
 13 15  2  0  0  0
 14 16  2  0  0  0
 16 17  1  0  0  0
 17 18  1  0  0  0
M  END
> <minimizedAffinity>
-8.86543

$$$$
5LVL_537_A_401


 18 21  0  0  0  0  0  0  0  0999 V2000
  -14.2080   -6.6698   -9.3005 C   0  0  0  0  0  0  0  0  0  0  0  0
  -15.2976   -5.8164   -9.2919 C   0  0  0  0  0  0  0  0  0  0  0  0
  -15.1792   -4.5659   -8.7472 C   0  0  0  0  0  0  0  0  0  0  0  0
  -13.9014   -4.0969   -8.1665 C   0  0  0  0  0  0  0  0  0  0  0  0
  -12.8453   -4.9942   -8.2140 C   0  0  0  0  0  0  0  0  0  0  0  0
  -13.0185   -6.2455   -8.7660 C   0  0  0  0  0  0  0  0  0  0  0  0
  -16.0800   -2.3375   -8.1368 C   0  0  0  0  0  0  0  0  0  0  0  0
  -17.2819   -1.5583   -8.2199 C   0  0  0  0  0  0  0  0  0  0  0  0
  -17.3140   -0.2473   -7.7385 C   0  0  0  0  0  0  0  0  0  0  0  0
  -16.1028    0.2115   -7.1646 C   0  0  0  0  0  0  0  0  0  0  0  0
  -14.9465   -0.5633   -7.0954 C   0  0  0  0  0  0  0  0  0  0  0  0
  -14.9204   -1.8505   -7.5803 C   0  0  0  0  0  0  0  0  0  0  0  0
  -13.7648   -2.7405   -7.5833 C   0  0  0  0  0  0  0  0  0  0  0  0
  -16.2199   -3.6467   -8.6983 C   0  0  0  0  0  0  0  0  0  0  0  0
  -12.6817   -2.3427   -7.0651 O   0  0  0  0  0  0  0  0  0  0  0  0
  -17.5029   -3.6922   -9.1315 N   0  0  0  0  0  0  0  0  0  0  0  0
  -18.1059   -2.4240   -8.8737 N   0  0  0  0  0  0  0  0  0  0  0  0
  -19.0258   -2.1977   -9.1419 H   0  0  0  0  0  0  0  0  0  0  0  0
  1  2  2  0  0  0
  1  6  1  0  0  0
  2  3  1  0  0  0
  3  4  2  0  0  0
  3 14  1  0  0  0
  4  5  1  0  0  0
  4 13  1  0  0  0
  5  6  2  0  0  0
  7  8  2  0  0  0
  7 12  1  0  0  0
  7 14  1  0  0  0
  8  9  1  0  0  0
  8 17  1  0  0  0
  9 10  2  0  0  0
 10 11  1  0  0  0
 11 12  2  0  0  0
 12 13  1  0  0  0
 13 15  2  0  0  0
 14 16  2  0  0  0
 16 17  1  0  0  0
 17 18  1  0  0  0
M  END
> <minimizedAffinity>
-8.68903

$$$$
5LVL_537_A_401


 18 21  0  0  0  0  0  0  0  0999 V2000
  -13.0108   -6.2860   -8.7552 C   0  0  0  0  0  0  0  0  0  0  0  0
  -12.9071   -5.0087   -8.2324 C   0  0  0  0  0  0  0  0  0  0  0  0
  -13.9947   -4.1772   -8.2444 C   0  0  0  0  0  0  0  0  0  0  0  0
  -15.2930   -4.6159   -8.8031 C   0  0  0  0  0  0  0  0  0  0  0  0
  -15.3353   -5.9087   -9.3026 C   0  0  0  0  0  0  0  0  0  0  0  0
  -14.2093   -6.7036   -9.2747 C   0  0  0  0  0  0  0  0  0  0  0  0
  -15.1265   -2.0272   -7.7477 C   0  0  0  0  0  0  0  0  0  0  0  0
  -14.8769   -0.7459   -7.1523 C   0  0  0  0  0  0  0  0  0  0  0  0
  -15.8964    0.2044   -7.0570 C   0  0  0  0  0  0  0  0  0  0  0  0
  -17.1418   -0.1942   -7.6020 C   0  0  0  0  0  0  0  0  0  0  0  0
  -17.3615   -1.4453   -8.1752 C   0  0  0  0  0  0  0  0  0  0  0  0
  -16.3546   -2.3792   -8.2567 C   0  0  0  0  0  0  0  0  0  0  0  0
  -16.4767   -3.7230   -8.8108 C   0  0  0  0  0  0  0  0  0  0  0  0
  -13.9788   -2.8827   -7.7401 C   0  0  0  0  0  0  0  0  0  0  0  0
  -17.5824   -4.0845   -9.3076 O   0  0  0  0  0  0  0  0  0  0  0  0
  -13.0118   -2.1439   -7.1444 N   0  0  0  0  0  0  0  0  0  0  0  0
  -13.5787   -0.8896   -6.7652 N   0  0  0  0  0  0  0  0  0  0  0  0
  -13.0808   -0.1974   -6.2730 H   0  0  0  0  0  0  0  0  0  0  0  0
  1  2  2  0  0  0
  1  6  1  0  0  0
  2  3  1  0  0  0
  3  4  2  0  0  0
  3 14  1  0  0  0
  4  5  1  0  0  0
  4 13  1  0  0  0
  5  6  2  0  0  0
  7  8  2  0  0  0
  7 12  1  0  0  0
  7 14  1  0  0  0
  8  9  1  0  0  0
  8 17  1  0  0  0
  9 10  2  0  0  0
 10 11  1  0  0  0
 11 12  2  0  0  0
 12 13  1  0  0  0
 13 15  2  0  0  0
 14 16  2  0  0  0
 16 17  1  0  0  0
 17 18  1  0  0  0
M  END
> <minimizedAffinity>
-8.66105

$$$$
5LVL_537_A_401


 18 21  0  0  0  0  0  0  0  0999 V2000
  -13.0553   -4.8581   -8.5530 C   0  0  0  0  0  0  0  0  0  0  0  0
  -13.3489   -3.5581   -8.1798 C   0  0  0  0  0  0  0  0  0  0  0  0
  -14.6457   -3.1977   -7.9287 C   0  0  0  0  0  0  0  0  0  0  0  0
  -15.7518   -4.1743   -8.0420 C   0  0  0  0  0  0  0  0  0  0  0  0
  -15.3920   -5.4618   -8.4100 C   0  0  0  0  0  0  0  0  0  0  0  0
  -14.0722   -5.7719   -8.6602 C   0  0  0  0  0  0  0  0  0  0  0  0
  -16.3864   -1.5562   -7.2768 C   0  0  0  0  0  0  0  0  0  0  0  0
  -16.5353   -0.1859   -6.8783 C   0  0  0  0  0  0  0  0  0  0  0  0
  -17.7933    0.3275   -6.5540 C   0  0  0  0  0  0  0  0  0  0  0  0
  -18.8655   -0.5906   -6.6729 C   0  0  0  0  0  0  0  0  0  0  0  0
  -18.6971   -1.9183   -7.0614 C   0  0  0  0  0  0  0  0  0  0  0  0
  -17.4534   -2.4189   -7.3701 C   0  0  0  0  0  0  0  0  0  0  0  0
  -17.1569   -3.7921   -7.7626 C   0  0  0  0  0  0  0  0  0  0  0  0
  -15.0282   -1.9174   -7.5484 C   0  0  0  0  0  0  0  0  0  0  0  0
  -18.1090   -4.6166   -7.8800 O   0  0  0  0  0  0  0  0  0  0  0  0
  -14.3258   -0.7808   -7.3232 N   0  0  0  0  0  0  0  0  0  0  0  0
  -15.2371    0.2274   -6.8856 N   0  0  0  0  0  0  0  0  0  0  0  0
  -14.9554    1.1314   -6.6160 H   0  0  0  0  0  0  0  0  0  0  0  0
  1  2  2  0  0  0
  1  6  1  0  0  0
  2  3  1  0  0  0
  3  4  2  0  0  0
  3 14  1  0  0  0
  4  5  1  0  0  0
  4 13  1  0  0  0
  5  6  2  0  0  0
  7  8  2  0  0  0
  7 12  1  0  0  0
  7 14  1  0  0  0
  8  9  1  0  0  0
  8 17  1  0  0  0
  9 10  2  0  0  0
 10 11  1  0  0  0
 11 12  2  0  0  0
 12 13  1  0  0  0
 13 15  2  0  0  0
 14 16  2  0  0  0
 16 17  1  0  0  0
 17 18  1  0  0  0
M  END
> <minimizedAffinity>
-8.38264

$$$$
5LVL_537_A_401


 18 21  0  0  0  0  0  0  0  0999 V2000
  -14.2957   -5.3372   -8.7066 C   0  0  0  0  0  0  0  0  0  0  0  0
  -15.6148   -5.1272   -8.3440 C   0  0  0  0  0  0  0  0  0  0  0  0
  -16.0193   -3.8851   -7.9342 C   0  0  0  0  0  0  0  0  0  0  0  0
  -15.0735   -2.7485   -7.8737 C   0  0  0  0  0  0  0  0  0  0  0  0
  -13.7695   -3.0204   -8.2587 C   0  0  0  0  0  0  0  0  0  0  0  0
  -13.4107   -4.2909   -8.6555 C   0  0  0  0  0  0  0  0  0  0  0  0
  -17.7352   -2.2809   -7.1393 C   0  0  0  0  0  0  0  0  0  0  0  0
  -19.1318   -2.2081   -6.8184 C   0  0  0  0  0  0  0  0  0  0  0  0
  -19.7067   -1.0002   -6.4160 C   0  0  0  0  0  0  0  0  0  0  0  0
  -18.8111    0.0946   -6.3375 C   0  0  0  0  0  0  0  0  0  0  0  0
  -17.4574    0.0007   -6.6551 C   0  0  0  0  0  0  0  0  0  0  0  0
  -16.9007   -1.1906   -7.0597 C   0  0  0  0  0  0  0  0  0  0  0  0
  -15.5078   -1.3990   -7.4393 C   0  0  0  0  0  0  0  0  0  0  0  0
  -17.3221   -3.5870   -7.5544 C   0  0  0  0  0  0  0  0  0  0  0  0
  -14.6990   -0.4295   -7.3638 O   0  0  0  0  0  0  0  0  0  0  0  0
  -18.4517   -4.3327   -7.4942 N   0  0  0  0  0  0  0  0  0  0  0  0
  -19.5264   -3.4828   -7.0929 N   0  0  0  0  0  0  0  0  0  0  0  0
  -20.4598   -3.7876   -7.0215 H   0  0  0  0  0  0  0  0  0  0  0  0
  1  2  2  0  0  0
  1  6  1  0  0  0
  2  3  1  0  0  0
  3  4  2  0  0  0
  3 14  1  0  0  0
  4  5  1  0  0  0
  4 13  1  0  0  0
  5  6  2  0  0  0
  7  8  2  0  0  0
  7 12  1  0  0  0
  7 14  1  0  0  0
  8  9  1  0  0  0
  8 17  1  0  0  0
  9 10  2  0  0  0
 10 11  1  0  0  0
 11 12  2  0  0  0
 12 13  1  0  0  0
 13 15  2  0  0  0
 14 16  2  0  0  0
 16 17  1  0  0  0
 17 18  1  0  0  0
M  END
> <minimizedAffinity>
-8.24128

$$$$
5LVL_537_A_401


 18 21  0  0  0  0  0  0  0  0999 V2000
  -19.6169   -1.1526   -9.5114 C   0  0  0  0  0  0  0  0  0  0  0  0
  -18.5081   -1.9807   -9.5333 C   0  0  0  0  0  0  0  0  0  0  0  0
  -17.4179   -1.6800   -8.7616 C   0  0  0  0  0  0  0  0  0  0  0  0
  -17.3969   -0.4830   -7.8917 C   0  0  0  0  0  0  0  0  0  0  0  0
  -18.5407    0.3006   -7.9067 C   0  0  0  0  0  0  0  0  0  0  0  0
  -19.6090   -0.0411   -8.7083 C   0  0  0  0  0  0  0  0  0  0  0  0
  -15.1372   -2.1371   -7.9019 C   0  0  0  0  0  0  0  0  0  0  0  0
  -14.0752   -3.0959   -8.0091 C   0  0  0  0  0  0  0  0  0  0  0  0
  -12.9065   -2.9492   -7.2580 C   0  0  0  0  0  0  0  0  0  0  0  0
  -12.8639   -1.7992   -6.4319 C   0  0  0  0  0  0  0  0  0  0  0  0
  -13.9085   -0.8812   -6.3430 C   0  0  0  0  0  0  0  0  0  0  0  0
  -15.0603   -1.0379   -7.0790 C   0  0  0  0  0  0  0  0  0  0  0  0
  -16.2226   -0.1572   -7.0471 C   0  0  0  0  0  0  0  0  0  0  0  0
  -16.2660   -2.4558   -8.7223 C   0  0  0  0  0  0  0  0  0  0  0  0
  -16.1901    0.8768   -6.3192 O   0  0  0  0  0  0  0  0  0  0  0  0
  -15.9164   -3.6081   -9.3436 N   0  0  0  0  0  0  0  0  0  0  0  0
  -14.6245   -3.9939   -8.8739 N   0  0  0  0  0  0  0  0  0  0  0  0
  -14.1754   -4.8260   -9.1477 H   0  0  0  0  0  0  0  0  0  0  0  0
  1  2  2  0  0  0
  1  6  1  0  0  0
  2  3  1  0  0  0
  3  4  2  0  0  0
  3 14  1  0  0  0
  4  5  1  0  0  0
  4 13  1  0  0  0
  5  6  2  0  0  0
  7  8  2  0  0  0
  7 12  1  0  0  0
  7 14  1  0  0  0
  8  9  1  0  0  0
  8 17  1  0  0  0
  9 10  2  0  0  0
 10 11  1  0  0  0
 11 12  2  0  0  0
 12 13  1  0  0  0
 13 15  2  0  0  0
 14 16  2  0  0  0
 16 17  1  0  0  0
 17 18  1  0  0  0
M  END
> <minimizedAffinity>
-8.12402

$$$$
5LVL_537_A_401


 18 21  0  0  0  0  0  0  0  0999 V2000
  -13.2808   -1.5969   -7.2448 C   0  0  0  0  0  0  0  0  0  0  0  0
  -13.0567   -2.8988   -7.6578 C   0  0  0  0  0  0  0  0  0  0  0  0
  -14.1149   -3.6953   -8.0044 C   0  0  0  0  0  0  0  0  0  0  0  0
  -15.5059   -3.1928   -7.9532 C   0  0  0  0  0  0  0  0  0  0  0  0
  -15.6637   -1.8784   -7.5409 C   0  0  0  0  0  0  0  0  0  0  0  0
  -14.5656   -1.1202   -7.1945 C   0  0  0  0  0  0  0  0  0  0  0  0
  -15.0940   -5.8297   -8.8016 C   0  0  0  0  0  0  0  0  0  0  0  0
  -14.7082   -7.1433   -9.2309 C   0  0  0  0  0  0  0  0  0  0  0  0
  -15.6703   -8.0653   -9.6501 C   0  0  0  0  0  0  0  0  0  0  0  0
  -17.0088   -7.6051   -9.5919 C   0  0  0  0  0  0  0  0  0  0  0  0
  -17.3603   -6.3236   -9.1719 C   0  0  0  0  0  0  0  0  0  0  0  0
  -16.4059   -5.4181   -8.7695 C   0  0  0  0  0  0  0  0  0  0  0  0
  -16.6552   -4.0479   -8.3359 C   0  0  0  0  0  0  0  0  0  0  0  0
  -13.9802   -5.0108   -8.4304 C   0  0  0  0  0  0  0  0  0  0  0  0
  -17.8478   -3.6312   -8.2723 O   0  0  0  0  0  0  0  0  0  0  0  0
  -12.8992   -5.8045   -8.6237 N   0  0  0  0  0  0  0  0  0  0  0  0
  -13.3517   -7.0566   -9.1395 N   0  0  0  0  0  0  0  0  0  0  0  0
  -12.7439   -7.7849   -9.4029 H   0  0  0  0  0  0  0  0  0  0  0  0
  1  2  2  0  0  0
  1  6  1  0  0  0
  2  3  1  0  0  0
  3  4  2  0  0  0
  3 14  1  0  0  0
  4  5  1  0  0  0
  4 13  1  0  0  0
  5  6  2  0  0  0
  7  8  2  0  0  0
  7 12  1  0  0  0
  7 14  1  0  0  0
  8  9  1  0  0  0
  8 17  1  0  0  0
  9 10  2  0  0  0
 10 11  1  0  0  0
 11 12  2  0  0  0
 12 13  1  0  0  0
 13 15  2  0  0  0
 14 16  2  0  0  0
 16 17  1  0  0  0
 17 18  1  0  0  0
M  END
> <minimizedAffinity>
-8.02049

$$$$
