5DFP_59U_A_601


 38 42  0  0  0  0  0  0  0  0999 V2000
   16.6449   34.8653  -12.7403 N   0  0  0  0  0  0  0  0  0  0  0  0
   16.6863   34.6590  -14.0953 C   0  0  0  0  0  0  0  0  0  0  0  0
   15.6278   34.5503  -14.9312 N   0  0  0  0  0  0  0  0  0  0  0  0
   14.4194   34.6362  -14.3594 C   0  0  0  0  0  0  0  0  0  0  0  0
   14.2167   34.8205  -12.9578 C   0  0  0  0  0  0  0  0  0  0  0  0
   15.3885   34.9372  -12.1902 C   0  0  0  0  0  0  0  0  0  0  0  0
   13.2727   34.4991  -15.3027 N   0  0  0  0  0  0  0  0  0  0  0  0
   11.9248   34.5531  -14.8069 C   0  0  0  0  0  0  0  0  0  0  0  0
   11.6740   34.7650  -13.4025 C   0  0  0  0  0  0  0  0  0  0  0  0
   12.7767   34.8919  -12.4747 C   0  0  0  0  0  0  0  0  0  0  0  0
   10.8559   34.4327  -15.6345 O   0  0  0  0  0  0  0  0  0  0  0  0
   10.2535   34.8209  -12.8785 C   0  0  0  0  0  0  0  0  0  0  0  0
    7.6351   34.9260  -11.9444 C   0  0  0  0  0  0  0  0  0  0  0  0
    9.5185   36.0139  -12.9557 C   0  0  0  0  0  0  0  0  0  0  0  0
    9.6699   33.6721  -12.3462 C   0  0  0  0  0  0  0  0  0  0  0  0
    8.3507   33.7259  -11.8796 C   0  0  0  0  0  0  0  0  0  0  0  0
    8.2064   36.0744  -12.4925 C   0  0  0  0  0  0  0  0  0  0  0  0
   10.2427   37.4166  -13.6305 Cl  0  0  0  0  0  0  0  0  0  0  0  0
    5.9691   34.4208  -10.1633 C   0  0  0  0  0  0  0  0  0  0  0  0
    2.8682   35.8084  -12.5816 C   0  0  0  0  0  0  0  0  0  0  0  0
    6.2237   34.9297  -11.4360 C   0  0  0  0  0  0  0  0  0  0  0  0
    4.7155   34.3649   -9.6598 N   0  0  0  0  0  0  0  0  0  0  0  0
    3.7501   34.8267  -10.4715 C   0  0  0  0  0  0  0  0  0  0  0  0
    4.0094   35.3186  -11.7418 C   0  0  0  0  0  0  0  0  0  0  0  0
    5.2582   35.3863  -12.2492 N   0  0  0  0  0  0  0  0  0  0  0  0
   17.9702   34.5758  -14.7863 N   0  0  0  0  0  0  0  0  0  0  0  0
   18.6625   35.2522  -14.6064 H   0  0  0  0  0  0  0  0  0  0  0  0
   18.2444   33.4958  -15.7477 C   0  0  0  0  0  0  0  0  0  0  0  0
   18.6422   34.0059  -17.1324 C   0  0  0  0  0  0  0  0  0  0  0  0
   18.5667   36.3767  -17.8292 C   0  0  0  0  0  0  0  0  0  0  0  0
   21.3520   36.2671  -18.2506 C   0  0  0  0  0  0  0  0  0  0  0  0
   19.3210   35.3551  -16.9755 C   0  0  0  0  0  0  0  0  0  0  0  0
   19.3254   37.6462  -18.1367 C   0  0  0  0  0  0  0  0  0  0  0  0
   20.7758   37.5861  -18.0691 N   0  0  0  0  0  0  0  0  0  0  0  0
   20.8117   35.2745  -17.2528 C   0  0  0  0  0  0  0  0  0  0  0  0
   21.5428   38.7120  -18.6184 C   0  0  0  0  0  0  0  0  0  0  0  0
   13.4791   34.2844  -16.7307 C   0  0  0  0  0  0  0  0  0  0  0  0
   13.4024   35.6137  -17.4500 C   0  0  0  0  0  0  0  0  0  0  0  0
 36 34  1  0  0  0
 34 31  1  0  0  0
 34 33  1  0  0  0
 31 35  1  0  0  0
 33 30  1  0  0  0
 35 32  1  0  0  0
 30 32  1  0  0  0
 32 29  1  0  0  0
 38 37  1  0  0  0
 29 28  1  0  0  0
 37  7  1  0  0  0
 28 26  1  0  0  0
 11  8  2  0  0  0
  7  8  1  0  0  0
  7  4  1  0  0  0
  3  4  2  0  0  0
  3  2  1  0  0  0
  8  9  1  0  0  0
 26  2  1  0  0  0
  4  5  1  0  0  0
  2  1  2  0  0  0
 18 14  1  0  0  0
  9 12  1  0  0  0
  9 10  2  0  0  0
  5 10  1  0  0  0
  5  6  2  0  0  0
 14 12  2  0  0  0
 14 17  1  0  0  0
 12 15  1  0  0  0
  1  6  1  0  0  0
 20 24  1  0  0  0
 17 13  2  0  0  0
 15 16  2  0  0  0
 25 24  2  0  0  0
 25 21  1  0  0  0
 13 16  1  0  0  0
 13 21  1  0  0  0
 24 23  1  0  0  0
 21 19  2  0  0  0
 23 22  2  0  0  0
 19 22  1  0  0  0
 26 27  1  0  0  0
M  END
> <minimizedAffinity>
-11.02367

$$$$
5DFP_59U_A_601


 38 42  0  0  0  0  0  0  0  0999 V2000
   16.6224   34.8946  -12.7551 N   0  0  0  0  0  0  0  0  0  0  0  0
   16.6631   34.6837  -14.1093 C   0  0  0  0  0  0  0  0  0  0  0  0
   15.6042   34.5729  -14.9444 N   0  0  0  0  0  0  0  0  0  0  0  0
   14.3961   34.6613  -14.3723 C   0  0  0  0  0  0  0  0  0  0  0  0
   14.1941   34.8505  -12.9712 C   0  0  0  0  0  0  0  0  0  0  0  0
   15.3664   34.9691  -12.2046 C   0  0  0  0  0  0  0  0  0  0  0  0
   13.2488   34.5218  -15.3146 N   0  0  0  0  0  0  0  0  0  0  0  0
   11.9012   34.5782  -14.8183 C   0  0  0  0  0  0  0  0  0  0  0  0
   11.6512   34.7950  -13.4145 C   0  0  0  0  0  0  0  0  0  0  0  0
   12.7544   34.9245  -12.4877 C   0  0  0  0  0  0  0  0  0  0  0  0
   10.8319   34.4557  -15.6450 O   0  0  0  0  0  0  0  0  0  0  0  0
   10.2310   34.8536  -12.8900 C   0  0  0  0  0  0  0  0  0  0  0  0
    7.6130   34.9631  -11.9550 C   0  0  0  0  0  0  0  0  0  0  0  0
    9.4935   36.0442  -12.9791 C   0  0  0  0  0  0  0  0  0  0  0  0
    9.6501   33.7092  -12.3453 C   0  0  0  0  0  0  0  0  0  0  0  0
    8.3312   33.7652  -11.8782 C   0  0  0  0  0  0  0  0  0  0  0  0
    8.1817   36.1069  -12.5155 C   0  0  0  0  0  0  0  0  0  0  0  0
   10.2144   37.4412  -13.6692 Cl  0  0  0  0  0  0  0  0  0  0  0  0
    5.9583   34.5342  -10.1437 C   0  0  0  0  0  0  0  0  0  0  0  0
    2.8291   35.7080  -12.6376 C   0  0  0  0  0  0  0  0  0  0  0  0
    6.2020   34.9693  -11.4456 C   0  0  0  0  0  0  0  0  0  0  0  0
    4.7062   34.4838   -9.6358 N   0  0  0  0  0  0  0  0  0  0  0  0
    3.7314   34.8753  -10.4727 C   0  0  0  0  0  0  0  0  0  0  0  0
    3.9802   35.2938  -11.7711 C   0  0  0  0  0  0  0  0  0  0  0  0
    5.2272   35.3556  -12.2837 N   0  0  0  0  0  0  0  0  0  0  0  0
   17.9466   34.5974  -14.8007 N   0  0  0  0  0  0  0  0  0  0  0  0
   18.6157   35.3079  -14.6715 H   0  0  0  0  0  0  0  0  0  0  0  0
   18.2546   33.4641  -15.6876 C   0  0  0  0  0  0  0  0  0  0  0  0
   18.7256   33.8942  -17.0765 C   0  0  0  0  0  0  0  0  0  0  0  0
   16.8605   32.3315  -17.5136 C   0  0  0  0  0  0  0  0  0  0  0  0
   17.9146   31.9081  -20.0937 C   0  0  0  0  0  0  0  0  0  0  0  0
   17.6699   33.4942  -18.0919 C   0  0  0  0  0  0  0  0  0  0  0  0
   16.0681   31.5328  -18.5215 C   0  0  0  0  0  0  0  0  0  0  0  0
   16.5147   31.5776  -19.9037 N   0  0  0  0  0  0  0  0  0  0  0  0
   18.2724   33.2284  -19.4601 C   0  0  0  0  0  0  0  0  0  0  0  0
   15.9403   30.6119  -20.8497 C   0  0  0  0  0  0  0  0  0  0  0  0
   13.4544   34.3021  -16.7419 C   0  0  0  0  0  0  0  0  0  0  0  0
   13.3498   35.6252  -17.4691 C   0  0  0  0  0  0  0  0  0  0  0  0
 36 34  1  0  0  0
 34 31  1  0  0  0
 34 33  1  0  0  0
 31 35  1  0  0  0
 33 30  1  0  0  0
 35 32  1  0  0  0
 30 32  1  0  0  0
 32 29  1  0  0  0
 38 37  1  0  0  0
 29 28  1  0  0  0
 37  7  1  0  0  0
 28 26  1  0  0  0
 11  8  2  0  0  0
  7  8  1  0  0  0
  7  4  1  0  0  0
  3  4  2  0  0  0
  3  2  1  0  0  0
  8  9  1  0  0  0
 26  2  1  0  0  0
  4  5  1  0  0  0
  2  1  2  0  0  0
 18 14  1  0  0  0
  9 12  1  0  0  0
  9 10  2  0  0  0
  5 10  1  0  0  0
  5  6  2  0  0  0
 14 12  2  0  0  0
 14 17  1  0  0  0
 12 15  1  0  0  0
  1  6  1  0  0  0
 20 24  1  0  0  0
 17 13  2  0  0  0
 15 16  2  0  0  0
 25 24  2  0  0  0
 25 21  1  0  0  0
 13 16  1  0  0  0
 13 21  1  0  0  0
 24 23  1  0  0  0
 21 19  2  0  0  0
 23 22  2  0  0  0
 19 22  1  0  0  0
 26 27  1  0  0  0
M  END
> <minimizedAffinity>
-10.87019

$$$$
5DFP_59U_A_601


 38 42  0  0  0  0  0  0  0  0999 V2000
   16.6484   34.9707  -13.0298 N   0  0  0  0  0  0  0  0  0  0  0  0
   16.6491   34.5573  -14.3371 C   0  0  0  0  0  0  0  0  0  0  0  0
   15.5665   34.2803  -15.1001 N   0  0  0  0  0  0  0  0  0  0  0  0
   14.3772   34.4093  -14.4971 C   0  0  0  0  0  0  0  0  0  0  0  0
   14.2181   34.8024  -13.1333 C   0  0  0  0  0  0  0  0  0  0  0  0
   15.4111   35.0808  -12.4440 C   0  0  0  0  0  0  0  0  0  0  0  0
   13.2038   34.0843  -15.3579 N   0  0  0  0  0  0  0  0  0  0  0  0
   11.8739   34.1648  -14.8189 C   0  0  0  0  0  0  0  0  0  0  0  0
   11.6657   34.5837  -13.4547 C   0  0  0  0  0  0  0  0  0  0  0  0
   12.7951   34.8947  -12.6057 C   0  0  0  0  0  0  0  0  0  0  0  0
   10.7817   33.8771  -15.5714 O   0  0  0  0  0  0  0  0  0  0  0  0
   10.2643   34.6679  -12.8851 C   0  0  0  0  0  0  0  0  0  0  0  0
    7.6797   34.8212  -11.8671 C   0  0  0  0  0  0  0  0  0  0  0  0
    9.4945   35.8265  -13.0711 C   0  0  0  0  0  0  0  0  0  0  0  0
    9.7321   33.5760  -12.2007 C   0  0  0  0  0  0  0  0  0  0  0  0
    8.4299   33.6537  -11.6918 C   0  0  0  0  0  0  0  0  0  0  0  0
    8.1990   35.9105  -12.5667 C   0  0  0  0  0  0  0  0  0  0  0  0
   10.1549   37.1569  -13.9320 Cl  0  0  0  0  0  0  0  0  0  0  0  0
    6.0532   34.2651  -10.0647 C   0  0  0  0  0  0  0  0  0  0  0  0
    2.9412   35.9604  -12.2626 C   0  0  0  0  0  0  0  0  0  0  0  0
    6.2882   34.8520  -11.3073 C   0  0  0  0  0  0  0  0  0  0  0  0
    4.8162   34.2297   -9.5200 N   0  0  0  0  0  0  0  0  0  0  0  0
    3.8468   34.7913  -10.2608 C   0  0  0  0  0  0  0  0  0  0  0  0
    4.0858   35.3609  -11.5023 C   0  0  0  0  0  0  0  0  0  0  0  0
    5.3184   35.4086  -12.0499 N   0  0  0  0  0  0  0  0  0  0  0  0
   17.9093   34.4151  -15.0615 N   0  0  0  0  0  0  0  0  0  0  0  0
   18.4861   33.6375  -14.8829 H   0  0  0  0  0  0  0  0  0  0  0  0
   18.3296   35.4168  -16.0543 C   0  0  0  0  0  0  0  0  0  0  0  0
   19.6223   35.0438  -16.7792 C   0  0  0  0  0  0  0  0  0  0  0  0
   18.8513   33.5670  -18.6059 C   0  0  0  0  0  0  0  0  0  0  0  0
   20.9920   34.5128  -20.1775 C   0  0  0  0  0  0  0  0  0  0  0  0
   19.3405   34.9774  -18.2698 C   0  0  0  0  0  0  0  0  0  0  0  0
   18.9295   33.1878  -20.0660 C   0  0  0  0  0  0  0  0  0  0  0  0
   19.8792   33.9151  -20.8912 N   0  0  0  0  0  0  0  0  0  0  0  0
   20.5267   35.4496  -19.0918 C   0  0  0  0  0  0  0  0  0  0  0  0
   20.1713   33.3958  -22.2338 C   0  0  0  0  0  0  0  0  0  0  0  0
   13.3669   33.6573  -16.7430 C   0  0  0  0  0  0  0  0  0  0  0  0
   13.4372   32.1463  -16.7930 C   0  0  0  0  0  0  0  0  0  0  0  0
 36 34  1  0  0  0
 34 31  1  0  0  0
 34 33  1  0  0  0
 31 35  1  0  0  0
 33 30  1  0  0  0
 35 32  1  0  0  0
 30 32  1  0  0  0
 32 29  1  0  0  0
 38 37  1  0  0  0
 29 28  1  0  0  0
 37  7  1  0  0  0
 28 26  1  0  0  0
 11  8  2  0  0  0
  7  8  1  0  0  0
  7  4  1  0  0  0
  3  4  2  0  0  0
  3  2  1  0  0  0
  8  9  1  0  0  0
 26  2  1  0  0  0
  4  5  1  0  0  0
  2  1  2  0  0  0
 18 14  1  0  0  0
  9 12  1  0  0  0
  9 10  2  0  0  0
  5 10  1  0  0  0
  5  6  2  0  0  0
 14 12  2  0  0  0
 14 17  1  0  0  0
 12 15  1  0  0  0
  1  6  1  0  0  0
 20 24  1  0  0  0
 17 13  2  0  0  0
 15 16  2  0  0  0
 25 24  2  0  0  0
 25 21  1  0  0  0
 13 16  1  0  0  0
 13 21  1  0  0  0
 24 23  1  0  0  0
 21 19  2  0  0  0
 23 22  2  0  0  0
 19 22  1  0  0  0
 26 27  1  0  0  0
M  END
> <minimizedAffinity>
-10.33355

$$$$
5DFP_59U_A_601


 38 42  0  0  0  0  0  0  0  0999 V2000
   15.2008   35.0885  -17.6127 N   0  0  0  0  0  0  0  0  0  0  0  0
   16.1513   35.1731  -16.6280 C   0  0  0  0  0  0  0  0  0  0  0  0
   15.9346   35.2002  -15.2927 N   0  0  0  0  0  0  0  0  0  0  0  0
   14.6524   35.1586  -14.9070 C   0  0  0  0  0  0  0  0  0  0  0  0
   13.5525   35.0991  -15.8160 C   0  0  0  0  0  0  0  0  0  0  0  0
   13.8984   35.0585  -17.1778 C   0  0  0  0  0  0  0  0  0  0  0  0
   14.4440   35.2038  -13.4312 N   0  0  0  0  0  0  0  0  0  0  0  0
   13.1112   35.1863  -12.8935 C   0  0  0  0  0  0  0  0  0  0  0  0
   11.9724   35.0993  -13.7741 C   0  0  0  0  0  0  0  0  0  0  0  0
   12.1592   35.0625  -15.2082 C   0  0  0  0  0  0  0  0  0  0  0  0
   12.8819   35.2257  -11.5564 O   0  0  0  0  0  0  0  0  0  0  0  0
   10.5669   35.0819  -13.2085 C   0  0  0  0  0  0  0  0  0  0  0  0
    7.9753   35.0561  -12.1972 C   0  0  0  0  0  0  0  0  0  0  0  0
    9.8333   36.2736  -13.1021 C   0  0  0  0  0  0  0  0  0  0  0  0
    9.9949   33.8707  -12.8219 C   0  0  0  0  0  0  0  0  0  0  0  0
    8.6891   33.8591  -12.3162 C   0  0  0  0  0  0  0  0  0  0  0  0
    8.5346   36.2691  -12.5991 C   0  0  0  0  0  0  0  0  0  0  0  0
   10.5427   37.7559  -13.5992 Cl  0  0  0  0  0  0  0  0  0  0  0  0
    6.3556   34.3022  -10.4619 C   0  0  0  0  0  0  0  0  0  0  0  0
    3.1982   36.0307  -12.5672 C   0  0  0  0  0  0  0  0  0  0  0  0
    6.5784   34.9891  -11.6544 C   0  0  0  0  0  0  0  0  0  0  0  0
    5.1159   34.1766   -9.9370 N   0  0  0  0  0  0  0  0  0  0  0  0
    4.1315   34.7527  -10.6463 C   0  0  0  0  0  0  0  0  0  0  0  0
    4.3589   35.4225  -11.8390 C   0  0  0  0  0  0  0  0  0  0  0  0
    5.5938   35.5603  -12.3659 N   0  0  0  0  0  0  0  0  0  0  0  0
   17.5692   35.2019  -16.9768 N   0  0  0  0  0  0  0  0  0  0  0  0
   18.0154   36.0674  -17.1219 H   0  0  0  0  0  0  0  0  0  0  0  0
   18.3409   33.9564  -17.1146 C   0  0  0  0  0  0  0  0  0  0  0  0
   18.7462   33.6529  -18.5567 C   0  0  0  0  0  0  0  0  0  0  0  0
   17.9481   32.2748  -20.4477 C   0  0  0  0  0  0  0  0  0  0  0  0
   15.7643   31.4787  -18.8525 C   0  0  0  0  0  0  0  0  0  0  0  0
   18.1970   32.2896  -18.9379 C   0  0  0  0  0  0  0  0  0  0  0  0
   17.0233   31.1859  -20.9384 C   0  0  0  0  0  0  0  0  0  0  0  0
   16.0923   30.6213  -19.9759 N   0  0  0  0  0  0  0  0  0  0  0  0
   16.9943   31.9074  -18.0934 C   0  0  0  0  0  0  0  0  0  0  0  0
   15.0097   29.7651  -20.4785 C   0  0  0  0  0  0  0  0  0  0  0  0
   15.5659   35.2912  -12.5031 C   0  0  0  0  0  0  0  0  0  0  0  0
   15.8972   33.9062  -11.9910 C   0  0  0  0  0  0  0  0  0  0  0  0
 36 34  1  0  0  0
 34 31  1  0  0  0
 34 33  1  0  0  0
 31 35  1  0  0  0
 33 30  1  0  0  0
 35 32  1  0  0  0
 30 32  1  0  0  0
 32 29  1  0  0  0
 38 37  1  0  0  0
 29 28  1  0  0  0
 37  7  1  0  0  0
 28 26  1  0  0  0
 11  8  2  0  0  0
  7  8  1  0  0  0
  7  4  1  0  0  0
  3  4  2  0  0  0
  3  2  1  0  0  0
  8  9  1  0  0  0
 26  2  1  0  0  0
  4  5  1  0  0  0
  2  1  2  0  0  0
 18 14  1  0  0  0
  9 12  1  0  0  0
  9 10  2  0  0  0
  5 10  1  0  0  0
  5  6  2  0  0  0
 14 12  2  0  0  0
 14 17  1  0  0  0
 12 15  1  0  0  0
  1  6  1  0  0  0
 20 24  1  0  0  0
 17 13  2  0  0  0
 15 16  2  0  0  0
 25 24  2  0  0  0
 25 21  1  0  0  0
 13 16  1  0  0  0
 13 21  1  0  0  0
 24 23  1  0  0  0
 21 19  2  0  0  0
 23 22  2  0  0  0
 19 22  1  0  0  0
 26 27  1  0  0  0
M  END
> <minimizedAffinity>
-9.79760

$$$$
5DFP_59U_A_601


 38 42  0  0  0  0  0  0  0  0999 V2000
   10.1459   31.5480  -15.3274 N   0  0  0  0  0  0  0  0  0  0  0  0
    9.9874   32.4313  -14.2907 C   0  0  0  0  0  0  0  0  0  0  0  0
   10.8679   33.3775  -13.8904 N   0  0  0  0  0  0  0  0  0  0  0  0
   12.0181   33.4335  -14.5749 C   0  0  0  0  0  0  0  0  0  0  0  0
   12.3387   32.5612  -15.6593 C   0  0  0  0  0  0  0  0  0  0  0  0
   11.3418   31.6297  -15.9976 C   0  0  0  0  0  0  0  0  0  0  0  0
   12.9740   34.4760  -14.1026 N   0  0  0  0  0  0  0  0  0  0  0  0
   14.2522   34.6212  -14.7437 C   0  0  0  0  0  0  0  0  0  0  0  0
   14.6062   33.7796  -15.8601 C   0  0  0  0  0  0  0  0  0  0  0  0
   13.6919   32.7590  -16.3240 C   0  0  0  0  0  0  0  0  0  0  0  0
   15.1480   35.5584  -14.3423 O   0  0  0  0  0  0  0  0  0  0  0  0
   15.9537   33.9311  -16.5359 C   0  0  0  0  0  0  0  0  0  0  0  0
   18.4283   34.2384  -17.7694 C   0  0  0  0  0  0  0  0  0  0  0  0
   16.0677   34.6617  -17.7287 C   0  0  0  0  0  0  0  0  0  0  0  0
   17.0855   33.3658  -15.9501 C   0  0  0  0  0  0  0  0  0  0  0  0
   18.3308   33.5243  -16.5706 C   0  0  0  0  0  0  0  0  0  0  0  0
   17.3031   34.8222  -18.3514 C   0  0  0  0  0  0  0  0  0  0  0  0
   14.6689   35.3686  -18.4297 Cl  0  0  0  0  0  0  0  0  0  0  0  0
   20.8019   34.9829  -17.6484 C   0  0  0  0  0  0  0  0  0  0  0  0
   21.4607   33.7324  -21.5715 C   0  0  0  0  0  0  0  0  0  0  0  0
   19.7858   34.3837  -18.3913 C   0  0  0  0  0  0  0  0  0  0  0  0
   22.0378   35.1739  -18.1625 N   0  0  0  0  0  0  0  0  0  0  0  0
   22.2049   34.7517  -19.4265 C   0  0  0  0  0  0  0  0  0  0  0  0
   21.1854   34.1691  -20.1641 C   0  0  0  0  0  0  0  0  0  0  0  0
   19.9514   33.9665  -19.6564 N   0  0  0  0  0  0  0  0  0  0  0  0
    8.7499   32.4387  -13.5152 N   0  0  0  0  0  0  0  0  0  0  0  0
    8.3713   31.5871  -13.1980 H   0  0  0  0  0  0  0  0  0  0  0  0
    8.0605   33.7003  -13.2009 C   0  0  0  0  0  0  0  0  0  0  0  0
    7.9949   33.9963  -11.7029 C   0  0  0  0  0  0  0  0  0  0  0  0
    5.9052   34.2728  -10.4110 C   0  0  0  0  0  0  0  0  0  0  0  0
    4.6428   35.1442  -12.7761 C   0  0  0  0  0  0  0  0  0  0  0  0
    6.8246   34.9284  -11.4436 C   0  0  0  0  0  0  0  0  0  0  0  0
    4.5044   34.8341  -10.3458 C   0  0  0  0  0  0  0  0  0  0  0  0
    4.0080   35.5200  -11.5269 N   0  0  0  0  0  0  0  0  0  0  0  0
    6.1363   35.3446  -12.7315 C   0  0  0  0  0  0  0  0  0  0  0  0
    2.5750   35.8354  -11.5946 C   0  0  0  0  0  0  0  0  0  0  0  0
   12.6580   35.3496  -12.9782 C   0  0  0  0  0  0  0  0  0  0  0  0
   13.1932   34.7336  -11.7036 C   0  0  0  0  0  0  0  0  0  0  0  0
 36 34  1  0  0  0
 34 31  1  0  0  0
 34 33  1  0  0  0
 31 35  1  0  0  0
 33 30  1  0  0  0
 35 32  1  0  0  0
 30 32  1  0  0  0
 32 29  1  0  0  0
 38 37  1  0  0  0
 29 28  1  0  0  0
 37  7  1  0  0  0
 28 26  1  0  0  0
 11  8  2  0  0  0
  7  8  1  0  0  0
  7  4  1  0  0  0
  3  4  2  0  0  0
  3  2  1  0  0  0
  8  9  1  0  0  0
 26  2  1  0  0  0
  4  5  1  0  0  0
  2  1  2  0  0  0
 18 14  1  0  0  0
  9 12  1  0  0  0
  9 10  2  0  0  0
  5 10  1  0  0  0
  5  6  2  0  0  0
 14 12  2  0  0  0
 14 17  1  0  0  0
 12 15  1  0  0  0
  1  6  1  0  0  0
 20 24  1  0  0  0
 17 13  2  0  0  0
 15 16  2  0  0  0
 25 24  2  0  0  0
 25 21  1  0  0  0
 13 16  1  0  0  0
 13 21  1  0  0  0
 24 23  1  0  0  0
 21 19  2  0  0  0
 23 22  2  0  0  0
 19 22  1  0  0  0
 26 27  1  0  0  0
M  END
> <minimizedAffinity>
-9.46816

$$$$
5DFP_59U_A_601


 38 42  0  0  0  0  0  0  0  0999 V2000
   15.4927   34.5678  -17.5834 N   0  0  0  0  0  0  0  0  0  0  0  0
   16.3926   34.7325  -16.5621 C   0  0  0  0  0  0  0  0  0  0  0  0
   16.1087   34.8709  -15.2463 N   0  0  0  0  0  0  0  0  0  0  0  0
   14.8084   34.8634  -14.9243 C   0  0  0  0  0  0  0  0  0  0  0  0
   13.7555   34.7302  -15.8801 C   0  0  0  0  0  0  0  0  0  0  0  0
   14.1698   34.5760  -17.2144 C   0  0  0  0  0  0  0  0  0  0  0  0
   14.5257   35.0316  -13.4699 N   0  0  0  0  0  0  0  0  0  0  0  0
   13.1674   35.0609  -13.0012 C   0  0  0  0  0  0  0  0  0  0  0  0
   12.0741   34.9026  -13.9284 C   0  0  0  0  0  0  0  0  0  0  0  0
   12.3331   34.7463  -15.3431 C   0  0  0  0  0  0  0  0  0  0  0  0
   12.8709   35.2118  -11.6854 O   0  0  0  0  0  0  0  0  0  0  0  0
   10.6417   34.9344  -13.4356 C   0  0  0  0  0  0  0  0  0  0  0  0
    8.0026   35.0017  -12.5580 C   0  0  0  0  0  0  0  0  0  0  0  0
    9.9779   36.1601  -13.2721 C   0  0  0  0  0  0  0  0  0  0  0  0
    9.9766   33.7375  -13.1740 C   0  0  0  0  0  0  0  0  0  0  0  0
    8.6471   33.7731  -12.7355 C   0  0  0  0  0  0  0  0  0  0  0  0
    8.6561   36.2024  -12.8354 C   0  0  0  0  0  0  0  0  0  0  0  0
   10.8026   37.6261  -13.6157 Cl  0  0  0  0  0  0  0  0  0  0  0  0
    5.5711   35.3100  -13.0005 C   0  0  0  0  0  0  0  0  0  0  0  0
    4.6718   34.4378   -9.0231 C   0  0  0  0  0  0  0  0  0  0  0  0
    6.5769   34.9854  -12.0914 C   0  0  0  0  0  0  0  0  0  0  0  0
    4.2699   35.3464  -12.6350 N   0  0  0  0  0  0  0  0  0  0  0  0
    4.0274   35.0542  -11.3467 C   0  0  0  0  0  0  0  0  0  0  0  0
    5.0345   34.7457  -10.4448 C   0  0  0  0  0  0  0  0  0  0  0  0
    6.3350   34.6985  -10.8025 N   0  0  0  0  0  0  0  0  0  0  0  0
   17.8264   34.7301  -16.8394 N   0  0  0  0  0  0  0  0  0  0  0  0
   18.3077   33.8732  -16.8974 H   0  0  0  0  0  0  0  0  0  0  0  0
   18.5626   35.9896  -17.0334 C   0  0  0  0  0  0  0  0  0  0  0  0
   18.5527   36.4784  -18.4814 C   0  0  0  0  0  0  0  0  0  0  0  0
   19.7303   34.8646  -19.9378 C   0  0  0  0  0  0  0  0  0  0  0  0
   21.8558   34.8538  -18.0859 C   0  0  0  0  0  0  0  0  0  0  0  0
   19.8917   36.1446  -19.1149 C   0  0  0  0  0  0  0  0  0  0  0  0
   21.0173   34.1531  -20.2832 C   0  0  0  0  0  0  0  0  0  0  0  0
   22.1666   34.4082  -19.4312 N   0  0  0  0  0  0  0  0  0  0  0  0
   21.0089   36.1010  -18.0874 C   0  0  0  0  0  0  0  0  0  0  0  0
   23.3415   33.5380  -19.5729 C   0  0  0  0  0  0  0  0  0  0  0  0
   15.5997   35.1943  -12.4963 C   0  0  0  0  0  0  0  0  0  0  0  0
   15.8273   33.8795  -11.7822 C   0  0  0  0  0  0  0  0  0  0  0  0
 36 34  1  0  0  0
 34 31  1  0  0  0
 34 33  1  0  0  0
 31 35  1  0  0  0
 33 30  1  0  0  0
 35 32  1  0  0  0
 30 32  1  0  0  0
 32 29  1  0  0  0
 38 37  1  0  0  0
 29 28  1  0  0  0
 37  7  1  0  0  0
 28 26  1  0  0  0
 11  8  2  0  0  0
  7  8  1  0  0  0
  7  4  1  0  0  0
  3  4  2  0  0  0
  3  2  1  0  0  0
  8  9  1  0  0  0
 26  2  1  0  0  0
  4  5  1  0  0  0
  2  1  2  0  0  0
 18 14  1  0  0  0
  9 12  1  0  0  0
  9 10  2  0  0  0
  5 10  1  0  0  0
  5  6  2  0  0  0
 14 12  2  0  0  0
 14 17  1  0  0  0
 12 15  1  0  0  0
  1  6  1  0  0  0
 20 24  1  0  0  0
 17 13  2  0  0  0
 15 16  2  0  0  0
 25 24  2  0  0  0
 25 21  1  0  0  0
 13 16  1  0  0  0
 13 21  1  0  0  0
 24 23  1  0  0  0
 21 19  2  0  0  0
 23 22  2  0  0  0
 19 22  1  0  0  0
 26 27  1  0  0  0
M  END
> <minimizedAffinity>
-9.44431

$$$$
5DFP_59U_A_601


 38 42  0  0  0  0  0  0  0  0999 V2000
    7.9369   37.2560  -12.2915 N   0  0  0  0  0  0  0  0  0  0  0  0
    7.4049   35.9930  -12.3365 C   0  0  0  0  0  0  0  0  0  0  0  0
    8.0315   34.8635  -12.7396 N   0  0  0  0  0  0  0  0  0  0  0  0
    9.2970   35.0123  -13.1532 C   0  0  0  0  0  0  0  0  0  0  0  0
    9.9763   36.2680  -13.1915 C   0  0  0  0  0  0  0  0  0  0  0  0
    9.2324   37.3691  -12.7332 C   0  0  0  0  0  0  0  0  0  0  0  0
    9.9570   33.7535  -13.6042 N   0  0  0  0  0  0  0  0  0  0  0  0
   11.3091   33.7862  -14.0905 C   0  0  0  0  0  0  0  0  0  0  0  0
   12.0416   35.0283  -14.1210 C   0  0  0  0  0  0  0  0  0  0  0  0
   11.4114   36.2584  -13.6937 C   0  0  0  0  0  0  0  0  0  0  0  0
   11.9430   32.6616  -14.5091 O   0  0  0  0  0  0  0  0  0  0  0  0
   13.4665   35.0642  -14.6344 C   0  0  0  0  0  0  0  0  0  0  0  0
   16.0856   35.1007  -15.5721 C   0  0  0  0  0  0  0  0  0  0  0  0
   14.5412   34.8897  -13.7489 C   0  0  0  0  0  0  0  0  0  0  0  0
   13.7036   35.2417  -15.9968 C   0  0  0  0  0  0  0  0  0  0  0  0
   15.0223   35.2565  -16.4674 C   0  0  0  0  0  0  0  0  0  0  0  0
   15.8551   34.9043  -14.2104 C   0  0  0  0  0  0  0  0  0  0  0  0
   14.2348   34.6533  -12.0763 Cl  0  0  0  0  0  0  0  0  0  0  0  0
   18.3468   34.0803  -15.7928 C   0  0  0  0  0  0  0  0  0  0  0  0
   19.6166   37.2559  -18.1786 C   0  0  0  0  0  0  0  0  0  0  0  0
   17.4791   35.1190  -16.1273 C   0  0  0  0  0  0  0  0  0  0  0  0
   19.6251   34.0550  -16.2327 N   0  0  0  0  0  0  0  0  0  0  0  0
   19.9881   35.0950  -17.0012 C   0  0  0  0  0  0  0  0  0  0  0  0
   19.1234   36.1316  -17.3183 C   0  0  0  0  0  0  0  0  0  0  0  0
   17.8436   36.1610  -16.8910 N   0  0  0  0  0  0  0  0  0  0  0  0
    6.0375   35.7557  -11.8816 N   0  0  0  0  0  0  0  0  0  0  0  0
    5.7469   36.1134  -11.0116 H   0  0  0  0  0  0  0  0  0  0  0  0
    5.0876   34.9899  -12.7044 C   0  0  0  0  0  0  0  0  0  0  0  0
    3.8331   35.7811  -13.0735 C   0  0  0  0  0  0  0  0  0  0  0  0
    2.0753   35.3069  -14.7460 C   0  0  0  0  0  0  0  0  0  0  0  0
    3.8351   33.4768  -15.9711 C   0  0  0  0  0  0  0  0  0  0  0  0
    3.5651   35.6006  -14.5572 C   0  0  0  0  0  0  0  0  0  0  0  0
    1.7029   34.6874  -16.0723 C   0  0  0  0  0  0  0  0  0  0  0  0
    2.7480   33.9779  -16.7909 N   0  0  0  0  0  0  0  0  0  0  0  0
    4.4971   34.5764  -15.1803 C   0  0  0  0  0  0  0  0  0  0  0  0
    2.3590   33.1440  -17.9358 C   0  0  0  0  0  0  0  0  0  0  0  0
    9.2551   32.4749  -13.5902 C   0  0  0  0  0  0  0  0  0  0  0  0
    8.5410   32.2848  -14.9109 C   0  0  0  0  0  0  0  0  0  0  0  0
 36 34  1  0  0  0
 34 31  1  0  0  0
 34 33  1  0  0  0
 31 35  1  0  0  0
 33 30  1  0  0  0
 35 32  1  0  0  0
 30 32  1  0  0  0
 32 29  1  0  0  0
 38 37  1  0  0  0
 29 28  1  0  0  0
 37  7  1  0  0  0
 28 26  1  0  0  0
 11  8  2  0  0  0
  7  8  1  0  0  0
  7  4  1  0  0  0
  3  4  2  0  0  0
  3  2  1  0  0  0
  8  9  1  0  0  0
 26  2  1  0  0  0
  4  5  1  0  0  0
  2  1  2  0  0  0
 18 14  1  0  0  0
  9 12  1  0  0  0
  9 10  2  0  0  0
  5 10  1  0  0  0
  5  6  2  0  0  0
 14 12  2  0  0  0
 14 17  1  0  0  0
 12 15  1  0  0  0
  1  6  1  0  0  0
 20 24  1  0  0  0
 17 13  2  0  0  0
 15 16  2  0  0  0
 25 24  2  0  0  0
 25 21  1  0  0  0
 13 16  1  0  0  0
 13 21  1  0  0  0
 24 23  1  0  0  0
 21 19  2  0  0  0
 23 22  2  0  0  0
 19 22  1  0  0  0
 26 27  1  0  0  0
M  END
> <minimizedAffinity>
-9.39812

$$$$
5DFP_59U_A_601


 38 42  0  0  0  0  0  0  0  0999 V2000
   12.2580   34.5546  -11.9562 N   0  0  0  0  0  0  0  0  0  0  0  0
   11.5163   33.8271  -12.8511 C   0  0  0  0  0  0  0  0  0  0  0  0
   11.8994   33.4280  -14.0859 N   0  0  0  0  0  0  0  0  0  0  0  0
   13.1262   33.8060  -14.4687 C   0  0  0  0  0  0  0  0  0  0  0  0
   14.0032   34.5899  -13.6587 C   0  0  0  0  0  0  0  0  0  0  0  0
   13.5056   34.9318  -12.3893 C   0  0  0  0  0  0  0  0  0  0  0  0
   13.5154   33.3638  -15.8385 N   0  0  0  0  0  0  0  0  0  0  0  0
   14.8004   33.7247  -16.3715 C   0  0  0  0  0  0  0  0  0  0  0  0
   15.7279   34.4924  -15.5776 C   0  0  0  0  0  0  0  0  0  0  0  0
   15.3609   34.9348  -14.2499 C   0  0  0  0  0  0  0  0  0  0  0  0
   15.1899   33.3405  -17.6135 O   0  0  0  0  0  0  0  0  0  0  0  0
   17.0824   34.8745  -16.1388 C   0  0  0  0  0  0  0  0  0  0  0  0
   19.5682   35.5526  -17.1880 C   0  0  0  0  0  0  0  0  0  0  0  0
   18.2061   34.0751  -15.8783 C   0  0  0  0  0  0  0  0  0  0  0  0
   17.2007   36.0088  -16.9406 C   0  0  0  0  0  0  0  0  0  0  0  0
   18.4520   36.3468  -17.4706 C   0  0  0  0  0  0  0  0  0  0  0  0
   19.4535   34.4062  -16.4016 C   0  0  0  0  0  0  0  0  0  0  0  0
   18.0430   32.6705  -14.9047 Cl  0  0  0  0  0  0  0  0  0  0  0  0
   21.8683   34.9815  -17.9537 C   0  0  0  0  0  0  0  0  0  0  0  0
   22.5942   38.9651  -18.9501 C   0  0  0  0  0  0  0  0  0  0  0  0
   20.8848   35.9549  -17.7839 C   0  0  0  0  0  0  0  0  0  0  0  0
   23.0872   35.2850  -18.4538 N   0  0  0  0  0  0  0  0  0  0  0  0
   23.2741   36.5781  -18.7648 C   0  0  0  0  0  0  0  0  0  0  0  0
   22.2957   37.5434  -18.5801 C   0  0  0  0  0  0  0  0  0  0  0  0
   21.0734   37.2483  -18.0897 N   0  0  0  0  0  0  0  0  0  0  0  0
   10.1784   33.3651  -12.4914 N   0  0  0  0  0  0  0  0  0  0  0  0
   10.0007   32.3991  -12.4243 H   0  0  0  0  0  0  0  0  0  0  0  0
    9.0918   34.3221  -12.2279 C   0  0  0  0  0  0  0  0  0  0  0  0
    7.9480   33.7269  -11.4074 C   0  0  0  0  0  0  0  0  0  0  0  0
    5.8034   34.2520  -10.2953 C   0  0  0  0  0  0  0  0  0  0  0  0
    4.7781   35.0363  -12.8015 C   0  0  0  0  0  0  0  0  0  0  0  0
    6.8400   34.7596  -11.2999 C   0  0  0  0  0  0  0  0  0  0  0  0
    4.4500   34.9185  -10.3724 C   0  0  0  0  0  0  0  0  0  0  0  0
    4.0911   35.5496  -11.6312 N   0  0  0  0  0  0  0  0  0  0  0  0
    6.2762   35.1287  -12.6606 C   0  0  0  0  0  0  0  0  0  0  0  0
    2.6954   35.9640  -11.8260 C   0  0  0  0  0  0  0  0  0  0  0  0
   12.6099   32.5855  -16.6765 C   0  0  0  0  0  0  0  0  0  0  0  0
   12.9888   31.1227  -16.5936 C   0  0  0  0  0  0  0  0  0  0  0  0
 36 34  1  0  0  0
 34 31  1  0  0  0
 34 33  1  0  0  0
 31 35  1  0  0  0
 33 30  1  0  0  0
 35 32  1  0  0  0
 30 32  1  0  0  0
 32 29  1  0  0  0
 38 37  1  0  0  0
 29 28  1  0  0  0
 37  7  1  0  0  0
 28 26  1  0  0  0
 11  8  2  0  0  0
  7  8  1  0  0  0
  7  4  1  0  0  0
  3  4  2  0  0  0
  3  2  1  0  0  0
  8  9  1  0  0  0
 26  2  1  0  0  0
  4  5  1  0  0  0
  2  1  2  0  0  0
 18 14  1  0  0  0
  9 12  1  0  0  0
  9 10  2  0  0  0
  5 10  1  0  0  0
  5  6  2  0  0  0
 14 12  2  0  0  0
 14 17  1  0  0  0
 12 15  1  0  0  0
  1  6  1  0  0  0
 20 24  1  0  0  0
 17 13  2  0  0  0
 15 16  2  0  0  0
 25 24  2  0  0  0
 25 21  1  0  0  0
 13 16  1  0  0  0
 13 21  1  0  0  0
 24 23  1  0  0  0
 21 19  2  0  0  0
 23 22  2  0  0  0
 19 22  1  0  0  0
 26 27  1  0  0  0
M  END
> <minimizedAffinity>
-9.39697

$$$$
5DFP_59U_A_601


 38 42  0  0  0  0  0  0  0  0999 V2000
   13.7627   34.9264  -11.9431 N   0  0  0  0  0  0  0  0  0  0  0  0
   12.6893   35.1119  -12.7759 C   0  0  0  0  0  0  0  0  0  0  0  0
   12.7157   35.1923  -14.1264 N   0  0  0  0  0  0  0  0  0  0  0  0
   13.9252   35.0984  -14.6946 C   0  0  0  0  0  0  0  0  0  0  0  0
   15.1370   34.9332  -13.9572 C   0  0  0  0  0  0  0  0  0  0  0  0
   14.9858   34.8453  -12.5625 C   0  0  0  0  0  0  0  0  0  0  0  0
   13.9246   35.2042  -16.1820 N   0  0  0  0  0  0  0  0  0  0  0  0
   15.1640   35.1389  -16.9068 C   0  0  0  0  0  0  0  0  0  0  0  0
   16.4086   34.9457  -16.2042 C   0  0  0  0  0  0  0  0  0  0  0  0
   16.4251   34.8490  -14.7608 C   0  0  0  0  0  0  0  0  0  0  0  0
   15.2034   35.2311  -18.2603 O   0  0  0  0  0  0  0  0  0  0  0  0
   17.7158   34.8778  -16.9671 C   0  0  0  0  0  0  0  0  0  0  0  0
   20.1009   34.7490  -18.3935 C   0  0  0  0  0  0  0  0  0  0  0  0
   18.1523   33.6613  -17.5142 C   0  0  0  0  0  0  0  0  0  0  0  0
   18.4684   36.0372  -17.1486 C   0  0  0  0  0  0  0  0  0  0  0  0
   19.6670   35.9712  -17.8697 C   0  0  0  0  0  0  0  0  0  0  0  0
   19.3438   33.5887  -18.2315 C   0  0  0  0  0  0  0  0  0  0  0  0
   17.2066   32.2446  -17.2993 Cl  0  0  0  0  0  0  0  0  0  0  0  0
   21.7886   35.8927  -19.8241 C   0  0  0  0  0  0  0  0  0  0  0  0
   24.0435   32.3936  -20.0716 C   0  0  0  0  0  0  0  0  0  0  0  0
   21.3890   34.7326  -19.1623 C   0  0  0  0  0  0  0  0  0  0  0  0
   22.9213   35.9339  -20.5613 N   0  0  0  0  0  0  0  0  0  0  0  0
   23.6172   34.7861  -20.6086 C   0  0  0  0  0  0  0  0  0  0  0  0
   23.2061   33.6320  -19.9590 C   0  0  0  0  0  0  0  0  0  0  0  0
   22.0818   33.5840  -19.2139 N   0  0  0  0  0  0  0  0  0  0  0  0
   11.3397   35.2025  -12.2251 N   0  0  0  0  0  0  0  0  0  0  0  0
   11.1649   35.8055  -11.4668 H   0  0  0  0  0  0  0  0  0  0  0  0
   10.2373   34.4056  -12.7867 C   0  0  0  0  0  0  0  0  0  0  0  0
    9.5494   33.5132  -11.7540 C   0  0  0  0  0  0  0  0  0  0  0  0
    7.7129   34.8557  -12.7219 C   0  0  0  0  0  0  0  0  0  0  0  0
    6.1947   34.3148  -10.4091 C   0  0  0  0  0  0  0  0  0  0  0  0
    8.0521   33.5477  -12.0041 C   0  0  0  0  0  0  0  0  0  0  0  0
    6.2584   35.2603  -12.6727 C   0  0  0  0  0  0  0  0  0  0  0  0
    5.4546   34.7188  -11.5897 N   0  0  0  0  0  0  0  0  0  0  0  0
    7.2600   33.2985  -10.7327 C   0  0  0  0  0  0  0  0  0  0  0  0
    4.1245   35.2971  -11.3573 C   0  0  0  0  0  0  0  0  0  0  0  0
   12.6901   35.3993  -16.9340 C   0  0  0  0  0  0  0  0  0  0  0  0
   12.1450   34.0515  -17.3541 C   0  0  0  0  0  0  0  0  0  0  0  0
 36 34  1  0  0  0
 34 31  1  0  0  0
 34 33  1  0  0  0
 31 35  1  0  0  0
 33 30  1  0  0  0
 35 32  1  0  0  0
 30 32  1  0  0  0
 32 29  1  0  0  0
 38 37  1  0  0  0
 29 28  1  0  0  0
 37  7  1  0  0  0
 28 26  1  0  0  0
 11  8  2  0  0  0
  7  8  1  0  0  0
  7  4  1  0  0  0
  3  4  2  0  0  0
  3  2  1  0  0  0
  8  9  1  0  0  0
 26  2  1  0  0  0
  4  5  1  0  0  0
  2  1  2  0  0  0
 18 14  1  0  0  0
  9 12  1  0  0  0
  9 10  2  0  0  0
  5 10  1  0  0  0
  5  6  2  0  0  0
 14 12  2  0  0  0
 14 17  1  0  0  0
 12 15  1  0  0  0
  1  6  1  0  0  0
 20 24  1  0  0  0
 17 13  2  0  0  0
 15 16  2  0  0  0
 25 24  2  0  0  0
 25 21  1  0  0  0
 13 16  1  0  0  0
 13 21  1  0  0  0
 24 23  1  0  0  0
 21 19  2  0  0  0
 23 22  2  0  0  0
 19 22  1  0  0  0
 26 27  1  0  0  0
M  END
> <minimizedAffinity>
-9.11877

$$$$
5DFP_59U_A_601


 38 42  0  0  0  0  0  0  0  0999 V2000
   16.1749   35.3511  -19.0330 N   0  0  0  0  0  0  0  0  0  0  0  0
   17.1824   35.2720  -18.1062 C   0  0  0  0  0  0  0  0  0  0  0  0
   17.0428   35.1448  -16.7664 N   0  0  0  0  0  0  0  0  0  0  0  0
   15.7839   35.1131  -16.3096 C   0  0  0  0  0  0  0  0  0  0  0  0
   14.6330   35.2143  -17.1491 C   0  0  0  0  0  0  0  0  0  0  0  0
   14.8992   35.3257  -18.5248 C   0  0  0  0  0  0  0  0  0  0  0  0
   15.6614   34.9862  -14.8289 N   0  0  0  0  0  0  0  0  0  0  0  0
   14.3619   34.9620  -14.2154 C   0  0  0  0  0  0  0  0  0  0  0  0
   13.1724   35.0342  -15.0277 C   0  0  0  0  0  0  0  0  0  0  0  0
   13.2761   35.1652  -16.4647 C   0  0  0  0  0  0  0  0  0  0  0  0
   14.2106   34.8473  -12.8716 O   0  0  0  0  0  0  0  0  0  0  0  0
   11.8019   35.0099  -14.3820 C   0  0  0  0  0  0  0  0  0  0  0  0
    9.2970   34.9505  -13.1731 C   0  0  0  0  0  0  0  0  0  0  0  0
   11.0949   33.8028  -14.2702 C   0  0  0  0  0  0  0  0  0  0  0  0
   11.2596   36.1888  -13.8723 C   0  0  0  0  0  0  0  0  0  0  0  0
   10.0001   36.1564  -13.2611 C   0  0  0  0  0  0  0  0  0  0  0  0
    9.8415   33.7640  -13.6644 C   0  0  0  0  0  0  0  0  0  0  0  0
   11.7823   32.3548  -14.8854 Cl  0  0  0  0  0  0  0  0  0  0  0  0
    7.7271   34.1035  -11.4350 C   0  0  0  0  0  0  0  0  0  0  0  0
    4.7068   36.6043  -12.8538 C   0  0  0  0  0  0  0  0  0  0  0  0
    7.9541   34.9683  -12.5047 C   0  0  0  0  0  0  0  0  0  0  0  0
    6.5288   34.0468  -10.8113 N   0  0  0  0  0  0  0  0  0  0  0  0
    5.5885   34.8726  -11.2988 C   0  0  0  0  0  0  0  0  0  0  0  0
    5.8175   35.7201  -12.3722 C   0  0  0  0  0  0  0  0  0  0  0  0
    7.0127   35.7899  -12.9953 N   0  0  0  0  0  0  0  0  0  0  0  0
   18.5779   35.2805  -18.5364 N   0  0  0  0  0  0  0  0  0  0  0  0
   18.8715   35.9280  -19.2175 H   0  0  0  0  0  0  0  0  0  0  0  0
   19.5519   34.3356  -17.9670 C   0  0  0  0  0  0  0  0  0  0  0  0
   20.5900   35.0062  -17.0678 C   0  0  0  0  0  0  0  0  0  0  0  0
   22.2818   36.4726  -18.1162 C   0  0  0  0  0  0  0  0  0  0  0  0
   22.3697   34.6905  -20.2987 C   0  0  0  0  0  0  0  0  0  0  0  0
   21.9236   35.0204  -17.7938 C   0  0  0  0  0  0  0  0  0  0  0  0
   23.3312   36.6557  -19.1872 C   0  0  0  0  0  0  0  0  0  0  0  0
   23.5145   35.5657  -20.1308 N   0  0  0  0  0  0  0  0  0  0  0  0
   21.9264   34.0860  -18.9907 C   0  0  0  0  0  0  0  0  0  0  0  0
   24.3232   35.8164  -21.3311 C   0  0  0  0  0  0  0  0  0  0  0  0
   16.8368   34.9093  -13.9685 C   0  0  0  0  0  0  0  0  0  0  0  0
   17.4050   33.5078  -14.0263 C   0  0  0  0  0  0  0  0  0  0  0  0
 36 34  1  0  0  0
 34 31  1  0  0  0
 34 33  1  0  0  0
 31 35  1  0  0  0
 33 30  1  0  0  0
 35 32  1  0  0  0
 30 32  1  0  0  0
 32 29  1  0  0  0
 38 37  1  0  0  0
 29 28  1  0  0  0
 37  7  1  0  0  0
 28 26  1  0  0  0
 11  8  2  0  0  0
  7  8  1  0  0  0
  7  4  1  0  0  0
  3  4  2  0  0  0
  3  2  1  0  0  0
  8  9  1  0  0  0
 26  2  1  0  0  0
  4  5  1  0  0  0
  2  1  2  0  0  0
 18 14  1  0  0  0
  9 12  1  0  0  0
  9 10  2  0  0  0
  5 10  1  0  0  0
  5  6  2  0  0  0
 14 12  2  0  0  0
 14 17  1  0  0  0
 12 15  1  0  0  0
  1  6  1  0  0  0
 20 24  1  0  0  0
 17 13  2  0  0  0
 15 16  2  0  0  0
 25 24  2  0  0  0
 25 21  1  0  0  0
 13 16  1  0  0  0
 13 21  1  0  0  0
 24 23  1  0  0  0
 21 19  2  0  0  0
 23 22  2  0  0  0
 19 22  1  0  0  0
 26 27  1  0  0  0
M  END
> <minimizedAffinity>
-9.07790

$$$$
