5OH3_9V2_A_202


 11 11  0  0  0  0  0  0  0  0999 V2000
   26.1541   16.2646   -8.5664 O   0  0  0  0  0  0  0  0  0  0  0  0
   25.1009   16.7479   -8.1827 C   0  0  0  0  0  0  0  0  0  0  0  0
   23.8796   16.2422   -8.4205 N   0  0  0  0  0  0  0  0  0  0  0  0
   24.9947   18.0037   -7.3519 C   0  0  0  0  0  0  0  0  0  0  0  0
   26.0632   18.0847   -6.2875 C   0  0  0  0  0  0  0  0  0  0  0  0
   23.5707   17.8350   -6.7949 C   0  0  0  0  0  0  0  0  0  0  0  0
   23.0011   16.6939   -7.6341 C   0  0  0  0  0  0  0  0  0  0  0  0
   21.8488   16.2638   -7.5493 O   0  0  0  0  0  0  0  0  0  0  0  0
   23.6896   15.5889   -9.1322 H   0  0  0  0  0  0  0  0  0  0  0  0
   25.0934   19.2446   -8.2417 C   0  0  0  0  0  0  0  0  0  0  0  0
   25.8664   20.4114   -7.6470 C   0  0  0  0  0  0  0  0  0  0  0  0
 11 10  1  0  0  0
 10  4  1  0  0  0
  1  2  2  0  0  0
  3  2  1  0  0  0
  3  7  1  0  0  0
  2  4  1  0  0  0
  4  6  1  0  0  0
  4  5  1  0  0  0
  7  8  2  0  0  0
  7  6  1  0  0  0
  3  9  1  0  0  0
M  END
> <minimizedAffinity>
-6.78982

$$$$
5OH3_9V2_A_202


 11 11  0  0  0  0  0  0  0  0999 V2000
   24.3051   19.8942   -7.1450 O   0  0  0  0  0  0  0  0  0  0  0  0
   24.1238   18.7121   -7.3890 C   0  0  0  0  0  0  0  0  0  0  0  0
   23.0926   17.9746   -6.9455 N   0  0  0  0  0  0  0  0  0  0  0  0
   25.0325   17.8737   -8.2550 C   0  0  0  0  0  0  0  0  0  0  0  0
   25.5248   18.6224   -9.4708 C   0  0  0  0  0  0  0  0  0  0  0  0
   24.0860   16.7060   -8.5823 C   0  0  0  0  0  0  0  0  0  0  0  0
   22.9260   16.9152   -7.6120 C   0  0  0  0  0  0  0  0  0  0  0  0
   21.9555   16.1629   -7.5011 O   0  0  0  0  0  0  0  0  0  0  0  0
   22.5268   18.2326   -6.1822 H   0  0  0  0  0  0  0  0  0  0  0  0
   26.2427   17.3918   -7.4522 C   0  0  0  0  0  0  0  0  0  0  0  0
   26.7064   18.3298   -6.3487 C   0  0  0  0  0  0  0  0  0  0  0  0
 11 10  1  0  0  0
 10  4  1  0  0  0
  1  2  2  0  0  0
  3  2  1  0  0  0
  3  7  1  0  0  0
  2  4  1  0  0  0
  4  6  1  0  0  0
  4  5  1  0  0  0
  7  8  2  0  0  0
  7  6  1  0  0  0
  3  9  1  0  0  0
M  END
> <minimizedAffinity>
-6.03823

$$$$
5OH3_9V2_A_202


 11 11  0  0  0  0  0  0  0  0999 V2000
   26.3758   16.5428   -7.7269 O   0  0  0  0  0  0  0  0  0  0  0  0
   25.9552   17.6344   -7.3788 C   0  0  0  0  0  0  0  0  0  0  0  0
   26.5554   18.4571   -6.5030 N   0  0  0  0  0  0  0  0  0  0  0  0
   24.6804   18.2578   -7.8934 C   0  0  0  0  0  0  0  0  0  0  0  0
   24.4840   18.0335   -9.3740 C   0  0  0  0  0  0  0  0  0  0  0  0
   24.9297   19.7273   -7.5126 C   0  0  0  0  0  0  0  0  0  0  0  0
   26.1389   19.6464   -6.5841 C   0  0  0  0  0  0  0  0  0  0  0  0
   26.6468   20.6079   -6.0029 O   0  0  0  0  0  0  0  0  0  0  0  0
   27.2463   18.1642   -5.8659 H   0  0  0  0  0  0  0  0  0  0  0  0
   23.4694   17.6945   -7.1469 C   0  0  0  0  0  0  0  0  0  0  0  0
   22.7722   16.5263   -7.8265 C   0  0  0  0  0  0  0  0  0  0  0  0
 11 10  1  0  0  0
 10  4  1  0  0  0
  1  2  2  0  0  0
  3  2  1  0  0  0
  3  7  1  0  0  0
  2  4  1  0  0  0
  4  6  1  0  0  0
  4  5  1  0  0  0
  7  8  2  0  0  0
  7  6  1  0  0  0
  3  9  1  0  0  0
M  END
> <minimizedAffinity>
-5.56494

$$$$
5OH3_9V2_A_202


 11 11  0  0  0  0  0  0  0  0999 V2000
   26.7947   18.1891   -6.0803 O   0  0  0  0  0  0  0  0  0  0  0  0
   26.4330   18.7411   -7.1071 C   0  0  0  0  0  0  0  0  0  0  0  0
   26.9818   19.8498   -7.6301 N   0  0  0  0  0  0  0  0  0  0  0  0
   25.3026   18.2543   -7.9811 C   0  0  0  0  0  0  0  0  0  0  0  0
   25.2893   16.7509   -8.1248 C   0  0  0  0  0  0  0  0  0  0  0  0
   25.6321   19.0026   -9.2841 C   0  0  0  0  0  0  0  0  0  0  0  0
   26.6913   20.0119   -8.8482 C   0  0  0  0  0  0  0  0  0  0  0  0
   27.2019   20.8597   -9.5834 O   0  0  0  0  0  0  0  0  0  0  0  0
   27.5499   20.4699   -7.1183 H   0  0  0  0  0  0  0  0  0  0  0  0
   23.9548   18.7050   -7.4142 C   0  0  0  0  0  0  0  0  0  0  0  0
   23.0608   17.5888   -6.8972 C   0  0  0  0  0  0  0  0  0  0  0  0
 11 10  1  0  0  0
 10  4  1  0  0  0
  1  2  2  0  0  0
  3  2  1  0  0  0
  3  7  1  0  0  0
  2  4  1  0  0  0
  4  6  1  0  0  0
  4  5  1  0  0  0
  7  8  2  0  0  0
  7  6  1  0  0  0
  3  9  1  0  0  0
M  END
> <minimizedAffinity>
-5.40666

$$$$
5OH3_9V2_A_202


 11 11  0  0  0  0  0  0  0  0999 V2000
   26.0365   20.9669   -6.2262 O   0  0  0  0  0  0  0  0  0  0  0  0
   26.0369   20.4049   -7.3097 C   0  0  0  0  0  0  0  0  0  0  0  0
   26.3915   20.9654   -8.4776 N   0  0  0  0  0  0  0  0  0  0  0  0
   25.6484   18.9613   -7.5187 C   0  0  0  0  0  0  0  0  0  0  0  0
   26.1681   18.0587   -6.4249 C   0  0  0  0  0  0  0  0  0  0  0  0
   26.2904   18.7089   -8.8936 C   0  0  0  0  0  0  0  0  0  0  0  0
   26.6597   20.1120   -9.3687 C   0  0  0  0  0  0  0  0  0  0  0  0
   27.1607   20.3762  -10.4638 O   0  0  0  0  0  0  0  0  0  0  0  0
   26.4374   21.9380   -8.6234 H   0  0  0  0  0  0  0  0  0  0  0  0
   24.1263   18.8209   -7.5888 C   0  0  0  0  0  0  0  0  0  0  0  0
   23.5411   17.6741   -6.7795 C   0  0  0  0  0  0  0  0  0  0  0  0
 11 10  1  0  0  0
 10  4  1  0  0  0
  1  2  2  0  0  0
  3  2  1  0  0  0
  3  7  1  0  0  0
  2  4  1  0  0  0
  4  6  1  0  0  0
  4  5  1  0  0  0
  7  8  2  0  0  0
  7  6  1  0  0  0
  3  9  1  0  0  0
M  END
> <minimizedAffinity>
-5.25789

$$$$
5OH3_9V2_A_202


 11 11  0  0  0  0  0  0  0  0999 V2000
   27.7853   19.3468   -5.7743 O   0  0  0  0  0  0  0  0  0  0  0  0
   26.8120   19.1222   -6.4758 C   0  0  0  0  0  0  0  0  0  0  0  0
   26.0932   17.9877   -6.4702 N   0  0  0  0  0  0  0  0  0  0  0  0
   26.2362   20.1018   -7.4696 C   0  0  0  0  0  0  0  0  0  0  0  0
   26.2286   21.5187   -6.9465 C   0  0  0  0  0  0  0  0  0  0  0  0
   24.8337   19.4982   -7.6566 C   0  0  0  0  0  0  0  0  0  0  0  0
   24.9523   18.1286   -6.9927 C   0  0  0  0  0  0  0  0  0  0  0  0
   24.0570   17.2816   -6.9594 O   0  0  0  0  0  0  0  0  0  0  0  0
   26.4208   17.1371   -6.0985 H   0  0  0  0  0  0  0  0  0  0  0  0
   27.0290   20.0660   -8.7778 C   0  0  0  0  0  0  0  0  0  0  0  0
   26.3804   19.2850   -9.9101 C   0  0  0  0  0  0  0  0  0  0  0  0
 11 10  1  0  0  0
 10  4  1  0  0  0
  1  2  2  0  0  0
  3  2  1  0  0  0
  3  7  1  0  0  0
  2  4  1  0  0  0
  4  6  1  0  0  0
  4  5  1  0  0  0
  7  8  2  0  0  0
  7  6  1  0  0  0
  3  9  1  0  0  0
M  END
> <minimizedAffinity>
-5.15905

$$$$
5OH3_9V2_A_202


 11 11  0  0  0  0  0  0  0  0999 V2000
   23.5050   17.9399   -8.1245 O   0  0  0  0  0  0  0  0  0  0  0  0
   24.5600   18.5321   -7.9627 C   0  0  0  0  0  0  0  0  0  0  0  0
   24.7302   19.6264   -7.2027 N   0  0  0  0  0  0  0  0  0  0  0  0
   25.8712   18.1187   -8.5859 C   0  0  0  0  0  0  0  0  0  0  0  0
   26.0682   16.6213   -8.5780 C   0  0  0  0  0  0  0  0  0  0  0  0
   26.8504   18.8816   -7.6773 C   0  0  0  0  0  0  0  0  0  0  0  0
   25.9395   19.8305   -6.9023 C   0  0  0  0  0  0  0  0  0  0  0  0
   26.3269   20.6710   -6.0877 O   0  0  0  0  0  0  0  0  0  0  0  0
   23.9908   20.2074   -6.9111 H   0  0  0  0  0  0  0  0  0  0  0  0
   25.9589   18.6175  -10.0298 C   0  0  0  0  0  0  0  0  0  0  0  0
   27.1014   19.5790  -10.3174 C   0  0  0  0  0  0  0  0  0  0  0  0
 11 10  1  0  0  0
 10  4  1  0  0  0
  1  2  2  0  0  0
  3  2  1  0  0  0
  3  7  1  0  0  0
  2  4  1  0  0  0
  4  6  1  0  0  0
  4  5  1  0  0  0
  7  8  2  0  0  0
  7  6  1  0  0  0
  3  9  1  0  0  0
M  END
> <minimizedAffinity>
-5.12189

$$$$
5OH3_9V2_A_202


 11 11  0  0  0  0  0  0  0  0999 V2000
   25.3741   16.1568   -8.5977 O   0  0  0  0  0  0  0  0  0  0  0  0
   25.6446   17.3466   -8.5649 C   0  0  0  0  0  0  0  0  0  0  0  0
   26.3125   18.0198   -9.5160 N   0  0  0  0  0  0  0  0  0  0  0  0
   25.2548   18.2764   -7.4415 C   0  0  0  0  0  0  0  0  0  0  0  0
   23.8593   18.0101   -6.9287 C   0  0  0  0  0  0  0  0  0  0  0  0
   25.4103   19.6321   -8.1516 C   0  0  0  0  0  0  0  0  0  0  0  0
   26.1496   19.2694   -9.4372 C   0  0  0  0  0  0  0  0  0  0  0  0
   26.5253   20.0801  -10.2868 O   0  0  0  0  0  0  0  0  0  0  0  0
   26.8698   17.5853  -10.2015 H   0  0  0  0  0  0  0  0  0  0  0  0
   26.2381   18.1503   -6.2761 C   0  0  0  0  0  0  0  0  0  0  0  0
   27.2203   19.3016   -6.1264 C   0  0  0  0  0  0  0  0  0  0  0  0
 11 10  1  0  0  0
 10  4  1  0  0  0
  1  2  2  0  0  0
  3  2  1  0  0  0
  3  7  1  0  0  0
  2  4  1  0  0  0
  4  6  1  0  0  0
  4  5  1  0  0  0
  7  8  2  0  0  0
  7  6  1  0  0  0
  3  9  1  0  0  0
M  END
> <minimizedAffinity>
-5.07583

$$$$
5OH3_9V2_A_202


 11 11  0  0  0  0  0  0  0  0999 V2000
   27.6955   19.5397   -9.0473 O   0  0  0  0  0  0  0  0  0  0  0  0
   26.5722   19.2573   -8.6623 C   0  0  0  0  0  0  0  0  0  0  0  0
   25.6176   18.6747   -9.4061 N   0  0  0  0  0  0  0  0  0  0  0  0
   26.0662   19.5049   -7.2618 C   0  0  0  0  0  0  0  0  0  0  0  0
   27.1064   19.2018   -6.2095 C   0  0  0  0  0  0  0  0  0  0  0  0
   24.8609   18.5494   -7.2411 C   0  0  0  0  0  0  0  0  0  0  0  0
   24.6994   18.1602   -8.7085 C   0  0  0  0  0  0  0  0  0  0  0  0
   23.8056   17.4354   -9.1512 O   0  0  0  0  0  0  0  0  0  0  0  0
   25.6322   18.6514  -10.3902 H   0  0  0  0  0  0  0  0  0  0  0  0
   25.6176   20.9592   -7.1037 C   0  0  0  0  0  0  0  0  0  0  0  0
   26.5892   21.8623   -6.3602 C   0  0  0  0  0  0  0  0  0  0  0  0
 11 10  1  0  0  0
 10  4  1  0  0  0
  1  2  2  0  0  0
  3  2  1  0  0  0
  3  7  1  0  0  0
  2  4  1  0  0  0
  4  6  1  0  0  0
  4  5  1  0  0  0
  7  8  2  0  0  0
  7  6  1  0  0  0
  3  9  1  0  0  0
M  END
> <minimizedAffinity>
-5.07289

$$$$
5OH3_9V2_A_202


 11 11  0  0  0  0  0  0  0  0999 V2000
   26.1483   19.6184   -9.9251 O   0  0  0  0  0  0  0  0  0  0  0  0
   26.6650   19.3866   -8.8438 C   0  0  0  0  0  0  0  0  0  0  0  0
   27.9348   19.6702   -8.5107 N   0  0  0  0  0  0  0  0  0  0  0  0
   25.9486   18.7475   -7.6789 C   0  0  0  0  0  0  0  0  0  0  0  0
   24.5347   19.2547   -7.5213 C   0  0  0  0  0  0  0  0  0  0  0  0
   26.8890   19.1550   -6.5318 C   0  0  0  0  0  0  0  0  0  0  0  0
   28.1231   19.6789   -7.2621 C   0  0  0  0  0  0  0  0  0  0  0  0
   29.1555   20.0679   -6.7118 O   0  0  0  0  0  0  0  0  0  0  0  0
   28.6433   19.8520   -9.1697 H   0  0  0  0  0  0  0  0  0  0  0  0
   25.9089   17.2268   -7.8433 C   0  0  0  0  0  0  0  0  0  0  0  0
   24.5289   16.6343   -8.0820 C   0  0  0  0  0  0  0  0  0  0  0  0
 11 10  1  0  0  0
 10  4  1  0  0  0
  1  2  2  0  0  0
  3  2  1  0  0  0
  3  7  1  0  0  0
  2  4  1  0  0  0
  4  6  1  0  0  0
  4  5  1  0  0  0
  7  8  2  0  0  0
  7  6  1  0  0  0
  3  9  1  0  0  0
M  END
> <minimizedAffinity>
-5.01766

$$$$
