5DRR_5EN_A_303


 37 38  0  0  0  0  0  0  0  0999 V2000
  -27.4499   12.8776   -5.1946 C   0  0  0  0  0  0  0  0  0  0  0  0
  -25.3139   14.6983   -5.0396 C   0  0  0  0  0  0  0  0  0  0  0  0
  -26.1889   12.5588   -5.7105 C   0  0  0  0  0  0  0  0  0  0  0  0
  -27.6526   14.1159   -4.5920 C   0  0  0  0  0  0  0  0  0  0  0  0
  -26.5470   15.0017   -4.5120 C   0  0  0  0  0  0  0  0  0  0  0  0
  -25.1129   13.4552   -5.6425 C   0  0  0  0  0  0  0  0  0  0  0  0
  -25.4114   11.2753   -7.6915 N   0  0  0  0  0  0  0  0  0  0  0  0
  -25.9640   11.2549   -6.3774 C   0  0  0  0  0  0  0  0  0  0  0  0
  -26.3953   10.2278   -5.8806 O   0  0  0  0  0  0  0  0  0  0  0  0
  -25.1903   12.1366   -8.1140 H   0  0  0  0  0  0  0  0  0  0  0  0
  -25.1812   10.0876   -8.3842 C   0  0  0  0  0  0  0  0  0  0  0  0
  -22.8563   10.4599   -8.5040 O   0  0  0  0  0  0  0  0  0  0  0  0
  -23.7734    9.6972   -8.2272 C   0  0  0  0  0  0  0  0  0  0  0  0
  -23.4590    8.5038   -7.5192 N   0  0  0  0  0  0  0  0  0  0  0  0
  -22.2134    8.1406   -7.4178 O   0  0  0  0  0  0  0  0  0  0  0  0
  -24.1727    7.9613   -7.1123 H   0  0  0  0  0  0  0  0  0  0  0  0
  -21.6503    8.7858   -7.8734 H   0  0  0  0  0  0  0  0  0  0  0  0
  -25.5680   10.2530   -9.7907 C   0  0  0  0  0  0  0  0  0  0  0  0
  -24.6386    9.6130  -10.5807 O   0  0  0  0  0  0  0  0  0  0  0  0
  -26.9068    9.6504  -10.0690 C   0  0  0  0  0  0  0  0  0  0  0  0
  -24.8826    9.7147  -11.5139 H   0  0  0  0  0  0  0  0  0  0  0  0
  -25.5786   11.7158  -10.1112 C   0  0  0  0  0  0  0  0  0  0  0  0
  -26.6967   12.0465  -10.7516 F   0  0  0  0  0  0  0  0  0  0  0  0
  -24.5463   11.9972  -10.8952 F   0  0  0  0  0  0  0  0  0  0  0  0
  -26.7196   16.3325   -3.9025 C   0  0  0  0  0  0  0  0  0  0  0  0
  -26.8838   17.4309   -3.4432 C   0  0  0  0  0  0  0  0  0  0  0  0
  -27.0869   18.7795   -2.8791 C   0  0  0  0  0  0  0  0  0  0  0  0
  -27.2835   19.8792   -2.4386 C   0  0  0  0  0  0  0  0  0  0  0  0
  -27.5702   21.2357   -1.9284 C   0  0  0  0  0  0  0  0  0  0  0  0
  -28.2563   23.6524   -0.7636 C   0  0  0  0  0  0  0  0  0  0  0  0
  -28.9049   22.4898   -0.3324 C   0  0  0  0  0  0  0  0  0  0  0  0
  -26.9118   22.3912   -2.3448 C   0  0  0  0  0  0  0  0  0  0  0  0
  -27.2690   23.6076   -1.7605 C   0  0  0  0  0  0  0  0  0  0  0  0
  -28.6164   24.8893   -0.1481 N   0  0  0  0  0  0  0  0  0  0  0  0
  -28.5503   21.2706   -0.9220 C   0  0  0  0  0  0  0  0  0  0  0  0
  -29.3103   24.9081    0.5499 H   0  0  0  0  0  0  0  0  0  0  0  0
  -28.1708   25.7234   -0.4218 H   0  0  0  0  0  0  0  0  0  0  0  0
 23 22  1  0  0  0
 22 24  1  0  0  0
 22 18  1  0  0  0
 20 18  1  0  0  0
 19 18  1  0  0  0
 18 11  1  0  0  0
 11 13  1  0  0  0
 11  7  1  0  0  0
 13 12  2  0  0  0
 13 14  1  0  0  0
  7  8  1  0  0  0
 14 15  1  0  0  0
  9  8  2  0  0  0
  8  3  1  0  0  0
  6  3  2  0  0  0
  6  2  1  0  0  0
  3  1  1  0  0  0
  2  5  2  0  0  0
  1  4  2  0  0  0
  5  4  1  0  0  0
  5 25  1  0  0  0
 25 26  3  0  0  0
 26 27  1  0  0  0
 27 28  3  0  0  0
 35 31  2  0  0  0
 35 29  1  0  0  0
 28 29  1  0  0  0
 31 30  1  0  0  0
 29 32  2  0  0  0
 30 34  1  0  0  0
 30 33  2  0  0  0
 32 33  1  0  0  0
 14 16  1  0  0  0
 15 17  1  0  0  0
  7 10  1  0  0  0
 34 36  1  0  0  0
 34 37  1  0  0  0
 19 21  1  0  0  0
M  END
> <minimizedAffinity>
-9.98332

$$$$
5DRR_5EN_A_303


 37 38  0  0  0  0  0  0  0  0999 V2000
  -25.1776   13.6891   -5.6979 C   0  0  0  0  0  0  0  0  0  0  0  0
  -27.5470   14.3849   -4.3551 C   0  0  0  0  0  0  0  0  0  0  0  0
  -26.2259   12.7728   -5.5588 C   0  0  0  0  0  0  0  0  0  0  0  0
  -25.3081   14.9684   -5.1651 C   0  0  0  0  0  0  0  0  0  0  0  0
  -26.5258   15.2923   -4.5126 C   0  0  0  0  0  0  0  0  0  0  0  0
  -27.4140   13.1028   -4.8914 C   0  0  0  0  0  0  0  0  0  0  0  0
  -25.6238   11.2618   -7.4378 N   0  0  0  0  0  0  0  0  0  0  0  0
  -26.0922   11.3992   -6.0983 C   0  0  0  0  0  0  0  0  0  0  0  0
  -26.5287   10.4477   -5.4723 O   0  0  0  0  0  0  0  0  0  0  0  0
  -25.3982   12.0652   -7.9601 H   0  0  0  0  0  0  0  0  0  0  0  0
  -25.4821   10.0009   -8.0153 C   0  0  0  0  0  0  0  0  0  0  0  0
  -23.2369   10.4241   -8.5972 O   0  0  0  0  0  0  0  0  0  0  0  0
  -24.0550    9.6611   -8.0991 C   0  0  0  0  0  0  0  0  0  0  0  0
  -23.5665    8.5349   -7.3800 N   0  0  0  0  0  0  0  0  0  0  0  0
  -22.3101    8.2135   -7.4896 O   0  0  0  0  0  0  0  0  0  0  0  0
  -24.1696    8.0068   -6.8084 H   0  0  0  0  0  0  0  0  0  0  0  0
  -21.8681    8.8362   -8.0877 H   0  0  0  0  0  0  0  0  0  0  0  0
  -26.1455    9.9798   -9.3248 C   0  0  0  0  0  0  0  0  0  0  0  0
  -25.6814   11.0412  -10.0702 O   0  0  0  0  0  0  0  0  0  0  0  0
  -25.8476    8.7216  -10.0737 C   0  0  0  0  0  0  0  0  0  0  0  0
  -26.1123   11.0390  -10.9391 H   0  0  0  0  0  0  0  0  0  0  0  0
  -27.6210   10.1220   -9.1116 C   0  0  0  0  0  0  0  0  0  0  0  0
  -28.0220    9.3648   -8.0940 F   0  0  0  0  0  0  0  0  0  0  0  0
  -28.2589    9.7278  -10.2057 F   0  0  0  0  0  0  0  0  0  0  0  0
  -26.7011   16.6275   -3.9136 C   0  0  0  0  0  0  0  0  0  0  0  0
  -26.8879   17.7162   -3.4401 C   0  0  0  0  0  0  0  0  0  0  0  0
  -27.1183   19.0526   -2.8577 C   0  0  0  0  0  0  0  0  0  0  0  0
  -27.3264   20.1246   -2.3581 C   0  0  0  0  0  0  0  0  0  0  0  0
  -27.6169   21.4190   -1.7080 C   0  0  0  0  0  0  0  0  0  0  0  0
  -28.3020   23.6967   -0.2902 C   0  0  0  0  0  0  0  0  0  0  0  0
  -28.9205   22.4863    0.0421 C   0  0  0  0  0  0  0  0  0  0  0  0
  -26.9881   22.6212   -2.0266 C   0  0  0  0  0  0  0  0  0  0  0  0
  -27.3448   23.7676   -1.3145 C   0  0  0  0  0  0  0  0  0  0  0  0
  -28.6610   24.8605    0.4550 N   0  0  0  0  0  0  0  0  0  0  0  0
  -28.5665   21.3375   -0.6753 C   0  0  0  0  0  0  0  0  0  0  0  0
  -29.3337   24.7983    1.1712 H   0  0  0  0  0  0  0  0  0  0  0  0
  -28.2359   25.7251    0.2527 H   0  0  0  0  0  0  0  0  0  0  0  0
 23 22  1  0  0  0
 22 24  1  0  0  0
 22 18  1  0  0  0
 20 18  1  0  0  0
 19 18  1  0  0  0
 18 11  1  0  0  0
 11 13  1  0  0  0
 11  7  1  0  0  0
 13 12  2  0  0  0
 13 14  1  0  0  0
  7  8  1  0  0  0
 14 15  1  0  0  0
  9  8  2  0  0  0
  8  3  1  0  0  0
  6  3  2  0  0  0
  6  2  1  0  0  0
  3  1  1  0  0  0
  2  5  2  0  0  0
  1  4  2  0  0  0
  5  4  1  0  0  0
  5 25  1  0  0  0
 25 26  3  0  0  0
 26 27  1  0  0  0
 27 28  3  0  0  0
 35 31  2  0  0  0
 35 29  1  0  0  0
 28 29  1  0  0  0
 31 30  1  0  0  0
 29 32  2  0  0  0
 30 34  1  0  0  0
 30 33  2  0  0  0
 32 33  1  0  0  0
 14 16  1  0  0  0
 15 17  1  0  0  0
  7 10  1  0  0  0
 34 36  1  0  0  0
 34 37  1  0  0  0
 19 21  1  0  0  0
M  END
> <minimizedAffinity>
-9.68196

$$$$
5DRR_5EN_A_303


 37 38  0  0  0  0  0  0  0  0999 V2000
  -25.2491   13.9971   -5.6066 C   0  0  0  0  0  0  0  0  0  0  0  0
  -27.6771   14.5629   -4.3083 C   0  0  0  0  0  0  0  0  0  0  0  0
  -26.2803   13.0526   -5.5576 C   0  0  0  0  0  0  0  0  0  0  0  0
  -25.4264   15.2397   -5.0049 C   0  0  0  0  0  0  0  0  0  0  0  0
  -26.6722   15.4990   -4.3771 C   0  0  0  0  0  0  0  0  0  0  0  0
  -27.4972   13.3178   -4.9136 C   0  0  0  0  0  0  0  0  0  0  0  0
  -25.1854   11.6135   -7.2626 N   0  0  0  0  0  0  0  0  0  0  0  0
  -26.0974   11.7165   -6.1715 C   0  0  0  0  0  0  0  0  0  0  0  0
  -26.8277   10.7910   -5.8586 O   0  0  0  0  0  0  0  0  0  0  0  0
  -24.7032   12.4141   -7.5720 H   0  0  0  0  0  0  0  0  0  0  0  0
  -24.9697   10.3904   -7.8956 C   0  0  0  0  0  0  0  0  0  0  0  0
  -23.0942   10.2862   -6.4708 O   0  0  0  0  0  0  0  0  0  0  0  0
  -23.7055    9.8119   -7.4199 C   0  0  0  0  0  0  0  0  0  0  0  0
  -23.2969    8.5400   -7.9091 N   0  0  0  0  0  0  0  0  0  0  0  0
  -22.1569    8.0500   -7.5163 O   0  0  0  0  0  0  0  0  0  0  0  0
  -23.8676    8.0383   -8.5351 H   0  0  0  0  0  0  0  0  0  0  0  0
  -21.7305    8.6722   -6.9064 H   0  0  0  0  0  0  0  0  0  0  0  0
  -24.9930   10.5767   -9.3516 C   0  0  0  0  0  0  0  0  0  0  0  0
  -25.2916    9.3698   -9.9447 O   0  0  0  0  0  0  0  0  0  0  0  0
  -26.0337   11.5664   -9.7643 C   0  0  0  0  0  0  0  0  0  0  0  0
  -25.3102    9.4790  -10.9084 H   0  0  0  0  0  0  0  0  0  0  0  0
  -23.6367   11.0324   -9.7936 C   0  0  0  0  0  0  0  0  0  0  0  0
  -23.6569   12.3246  -10.1089 F   0  0  0  0  0  0  0  0  0  0  0  0
  -23.2744   10.3434  -10.8676 F   0  0  0  0  0  0  0  0  0  0  0  0
  -26.8977   16.7925   -3.7074 C   0  0  0  0  0  0  0  0  0  0  0  0
  -27.0832   17.8675   -3.2031 C   0  0  0  0  0  0  0  0  0  0  0  0
  -27.3124   19.1876   -2.5844 C   0  0  0  0  0  0  0  0  0  0  0  0
  -27.5327   20.2617   -2.0944 C   0  0  0  0  0  0  0  0  0  0  0  0
  -27.8529   21.5831   -1.5166 C   0  0  0  0  0  0  0  0  0  0  0  0
  -28.2824   24.1720   -0.6332 C   0  0  0  0  0  0  0  0  0  0  0  0
  -27.2564   23.9377   -1.5556 C   0  0  0  0  0  0  0  0  0  0  0  0
  -28.8860   21.8197   -0.6118 C   0  0  0  0  0  0  0  0  0  0  0  0
  -29.0912   23.1255   -0.1630 C   0  0  0  0  0  0  0  0  0  0  0  0
  -28.4955   25.5134   -0.1930 N   0  0  0  0  0  0  0  0  0  0  0  0
  -27.0473   22.6274   -2.0018 C   0  0  0  0  0  0  0  0  0  0  0  0
  -27.9217   26.2391   -0.5298 H   0  0  0  0  0  0  0  0  0  0  0  0
  -29.2162   25.7127    0.4474 H   0  0  0  0  0  0  0  0  0  0  0  0
 23 22  1  0  0  0
 22 24  1  0  0  0
 22 18  1  0  0  0
 20 18  1  0  0  0
 19 18  1  0  0  0
 18 11  1  0  0  0
 11 13  1  0  0  0
 11  7  1  0  0  0
 13 12  2  0  0  0
 13 14  1  0  0  0
  7  8  1  0  0  0
 14 15  1  0  0  0
  9  8  2  0  0  0
  8  3  1  0  0  0
  6  3  2  0  0  0
  6  2  1  0  0  0
  3  1  1  0  0  0
  2  5  2  0  0  0
  1  4  2  0  0  0
  5  4  1  0  0  0
  5 25  1  0  0  0
 25 26  3  0  0  0
 26 27  1  0  0  0
 27 28  3  0  0  0
 35 31  2  0  0  0
 35 29  1  0  0  0
 28 29  1  0  0  0
 31 30  1  0  0  0
 29 32  2  0  0  0
 30 34  1  0  0  0
 30 33  2  0  0  0
 32 33  1  0  0  0
 14 16  1  0  0  0
 15 17  1  0  0  0
  7 10  1  0  0  0
 34 36  1  0  0  0
 34 37  1  0  0  0
 19 21  1  0  0  0
M  END
> <minimizedAffinity>
-9.54014

$$$$
5DRR_5EN_A_303


 37 38  0  0  0  0  0  0  0  0999 V2000
  -25.7455   14.9227   -5.0327 C   0  0  0  0  0  0  0  0  0  0  0  0
  -27.9490   15.8220   -3.5369 C   0  0  0  0  0  0  0  0  0  0  0  0
  -26.7970   14.0601   -4.7038 C   0  0  0  0  0  0  0  0  0  0  0  0
  -25.7895   16.2499   -4.6152 C   0  0  0  0  0  0  0  0  0  0  0  0
  -26.9265   16.6749   -3.8805 C   0  0  0  0  0  0  0  0  0  0  0  0
  -27.9030   14.4916   -3.9579 C   0  0  0  0  0  0  0  0  0  0  0  0
  -25.8134   12.2774   -6.1290 N   0  0  0  0  0  0  0  0  0  0  0  0
  -26.7529   12.6384   -5.1192 C   0  0  0  0  0  0  0  0  0  0  0  0
  -27.6044   11.8572   -4.7289 O   0  0  0  0  0  0  0  0  0  0  0  0
  -25.2234   12.9651   -6.5141 H   0  0  0  0  0  0  0  0  0  0  0  0
  -25.7220   10.9604   -6.5766 C   0  0  0  0  0  0  0  0  0  0  0  0
  -23.5081   10.7974   -5.7829 O   0  0  0  0  0  0  0  0  0  0  0  0
  -24.6161   10.2858   -5.8832 C   0  0  0  0  0  0  0  0  0  0  0  0
  -24.8890    9.1259   -5.1059 N   0  0  0  0  0  0  0  0  0  0  0  0
  -23.9006    8.5082   -4.5268 O   0  0  0  0  0  0  0  0  0  0  0  0
  -25.8112    8.7956   -5.0076 H   0  0  0  0  0  0  0  0  0  0  0  0
  -23.0700    8.9667   -4.7287 H   0  0  0  0  0  0  0  0  0  0  0  0
  -25.5669   10.9443   -8.0364 C   0  0  0  0  0  0  0  0  0  0  0  0
  -24.7195   11.9676   -8.4000 O   0  0  0  0  0  0  0  0  0  0  0  0
  -24.9733    9.6587   -8.5138 C   0  0  0  0  0  0  0  0  0  0  0  0
  -24.6082   11.9682   -9.3636 H   0  0  0  0  0  0  0  0  0  0  0  0
  -26.9118   11.1597   -8.6590 C   0  0  0  0  0  0  0  0  0  0  0  0
  -27.8788   10.7868   -7.8250 F   0  0  0  0  0  0  0  0  0  0  0  0
  -27.0031   10.4287   -9.7620 F   0  0  0  0  0  0  0  0  0  0  0  0
  -27.0069   18.0654   -3.3984 C   0  0  0  0  0  0  0  0  0  0  0  0
  -27.0347   19.2092   -3.0303 C   0  0  0  0  0  0  0  0  0  0  0  0
  -27.0691   20.6141   -2.5797 C   0  0  0  0  0  0  0  0  0  0  0  0
  -27.0626   21.7610   -2.2238 C   0  0  0  0  0  0  0  0  0  0  0  0
  -27.0009   23.1746   -1.7988 C   0  0  0  0  0  0  0  0  0  0  0  0
  -27.0566   25.8826   -1.2230 C   0  0  0  0  0  0  0  0  0  0  0  0
  -27.5657   25.4455   -2.4511 C   0  0  0  0  0  0  0  0  0  0  0  0
  -26.5105   23.6084   -0.5686 C   0  0  0  0  0  0  0  0  0  0  0  0
  -26.5327   24.9757   -0.2884 C   0  0  0  0  0  0  0  0  0  0  0  0
  -27.0990   27.2810   -0.9385 N   0  0  0  0  0  0  0  0  0  0  0  0
  -27.5389   24.0748   -2.7342 C   0  0  0  0  0  0  0  0  0  0  0  0
  -27.4689   27.9074   -1.6020 H   0  0  0  0  0  0  0  0  0  0  0  0
  -26.7585   27.6190   -0.0789 H   0  0  0  0  0  0  0  0  0  0  0  0
 23 22  1  0  0  0
 22 24  1  0  0  0
 22 18  1  0  0  0
 20 18  1  0  0  0
 19 18  1  0  0  0
 18 11  1  0  0  0
 11 13  1  0  0  0
 11  7  1  0  0  0
 13 12  2  0  0  0
 13 14  1  0  0  0
  7  8  1  0  0  0
 14 15  1  0  0  0
  9  8  2  0  0  0
  8  3  1  0  0  0
  6  3  2  0  0  0
  6  2  1  0  0  0
  3  1  1  0  0  0
  2  5  2  0  0  0
  1  4  2  0  0  0
  5  4  1  0  0  0
  5 25  1  0  0  0
 25 26  3  0  0  0
 26 27  1  0  0  0
 27 28  3  0  0  0
 35 31  2  0  0  0
 35 29  1  0  0  0
 28 29  1  0  0  0
 31 30  1  0  0  0
 29 32  2  0  0  0
 30 34  1  0  0  0
 30 33  2  0  0  0
 32 33  1  0  0  0
 14 16  1  0  0  0
 15 17  1  0  0  0
  7 10  1  0  0  0
 34 36  1  0  0  0
 34 37  1  0  0  0
 19 21  1  0  0  0
M  END
> <minimizedAffinity>
-8.78238

$$$$
5DRR_5EN_A_303


 37 38  0  0  0  0  0  0  0  0999 V2000
  -27.5068   13.4747   -5.4480 C   0  0  0  0  0  0  0  0  0  0  0  0
  -25.4098   15.1909   -4.7007 C   0  0  0  0  0  0  0  0  0  0  0  0
  -26.1740   13.1516   -5.7255 C   0  0  0  0  0  0  0  0  0  0  0  0
  -27.8024   14.6646   -4.7890 C   0  0  0  0  0  0  0  0  0  0  0  0
  -26.7181   15.4966   -4.4076 C   0  0  0  0  0  0  0  0  0  0  0  0
  -25.1160   13.9963   -5.3608 C   0  0  0  0  0  0  0  0  0  0  0  0
  -26.1297   11.8544   -7.8449 N   0  0  0  0  0  0  0  0  0  0  0  0
  -25.8449   11.9008   -6.4486 C   0  0  0  0  0  0  0  0  0  0  0  0
  -25.5051   10.9051   -5.8315 O   0  0  0  0  0  0  0  0  0  0  0  0
  -26.5236   12.6401   -8.2884 H   0  0  0  0  0  0  0  0  0  0  0  0
  -25.8558   10.7073   -8.5883 C   0  0  0  0  0  0  0  0  0  0  0  0
  -23.9186    9.8659   -9.6359 O   0  0  0  0  0  0  0  0  0  0  0  0
  -24.5338   10.8379   -9.2161 C   0  0  0  0  0  0  0  0  0  0  0  0
  -24.0550   12.1320   -9.5629 N   0  0  0  0  0  0  0  0  0  0  0  0
  -22.8668   12.2466  -10.0813 O   0  0  0  0  0  0  0  0  0  0  0  0
  -24.6139   12.9285   -9.4130 H   0  0  0  0  0  0  0  0  0  0  0  0
  -22.4610   11.3687  -10.1570 H   0  0  0  0  0  0  0  0  0  0  0  0
  -26.9268   10.4859   -9.5677 C   0  0  0  0  0  0  0  0  0  0  0  0
  -26.4529   10.8126  -10.8191 O   0  0  0  0  0  0  0  0  0  0  0  0
  -27.3622    9.0567   -9.5951 C   0  0  0  0  0  0  0  0  0  0  0  0
  -27.1517   10.6706  -11.4767 H   0  0  0  0  0  0  0  0  0  0  0  0
  -28.0803   11.3750   -9.2188 C   0  0  0  0  0  0  0  0  0  0  0  0
  -29.1355   10.6514   -8.8546 F   0  0  0  0  0  0  0  0  0  0  0  0
  -28.4116   12.0957  -10.2819 F   0  0  0  0  0  0  0  0  0  0  0  0
  -26.9836   16.7769   -3.7274 C   0  0  0  0  0  0  0  0  0  0  0  0
  -27.1652   17.8398   -3.1966 C   0  0  0  0  0  0  0  0  0  0  0  0
  -27.3885   19.1456   -2.5462 C   0  0  0  0  0  0  0  0  0  0  0  0
  -27.5447   20.2226   -2.0384 C   0  0  0  0  0  0  0  0  0  0  0  0
  -27.6949   21.5667   -1.4440 C   0  0  0  0  0  0  0  0  0  0  0  0
  -28.1232   23.9605   -0.1196 C   0  0  0  0  0  0  0  0  0  0  0  0
  -28.8378   22.8288    0.2887 C   0  0  0  0  0  0  0  0  0  0  0  0
  -26.9703   22.6899   -1.8385 C   0  0  0  0  0  0  0  0  0  0  0  0
  -27.1978   23.8957   -1.1731 C   0  0  0  0  0  0  0  0  0  0  0  0
  -28.3503   25.1853    0.5780 N   0  0  0  0  0  0  0  0  0  0  0  0
  -28.6134   21.6206   -0.3819 C   0  0  0  0  0  0  0  0  0  0  0  0
  -29.0019   25.2184    1.3153 H   0  0  0  0  0  0  0  0  0  0  0  0
  -27.8553   25.9969    0.3218 H   0  0  0  0  0  0  0  0  0  0  0  0
 23 22  1  0  0  0
 22 24  1  0  0  0
 22 18  1  0  0  0
 20 18  1  0  0  0
 19 18  1  0  0  0
 18 11  1  0  0  0
 11 13  1  0  0  0
 11  7  1  0  0  0
 13 12  2  0  0  0
 13 14  1  0  0  0
  7  8  1  0  0  0
 14 15  1  0  0  0
  9  8  2  0  0  0
  8  3  1  0  0  0
  6  3  2  0  0  0
  6  2  1  0  0  0
  3  1  1  0  0  0
  2  5  2  0  0  0
  1  4  2  0  0  0
  5  4  1  0  0  0
  5 25  1  0  0  0
 25 26  3  0  0  0
 26 27  1  0  0  0
 27 28  3  0  0  0
 35 31  2  0  0  0
 35 29  1  0  0  0
 28 29  1  0  0  0
 31 30  1  0  0  0
 29 32  2  0  0  0
 30 34  1  0  0  0
 30 33  2  0  0  0
 32 33  1  0  0  0
 14 16  1  0  0  0
 15 17  1  0  0  0
  7 10  1  0  0  0
 34 36  1  0  0  0
 34 37  1  0  0  0
 19 21  1  0  0  0
M  END
> <minimizedAffinity>
-8.63437

$$$$
5DRR_5EN_A_303


 37 38  0  0  0  0  0  0  0  0999 V2000
  -28.7327   18.4770   -1.5229 C   0  0  0  0  0  0  0  0  0  0  0  0
  -26.6414   18.5280   -3.4005 C   0  0  0  0  0  0  0  0  0  0  0  0
  -28.0634   19.6674   -1.8280 C   0  0  0  0  0  0  0  0  0  0  0  0
  -28.3601   17.2967   -2.1598 C   0  0  0  0  0  0  0  0  0  0  0  0
  -27.3151   17.3631   -3.1174 C   0  0  0  0  0  0  0  0  0  0  0  0
  -27.0178   19.7106   -2.7611 C   0  0  0  0  0  0  0  0  0  0  0  0
  -28.5531   22.1014   -1.9394 N   0  0  0  0  0  0  0  0  0  0  0  0
  -28.4314   20.9271   -1.1401 C   0  0  0  0  0  0  0  0  0  0  0  0
  -28.4584   20.9769    0.0784 O   0  0  0  0  0  0  0  0  0  0  0  0
  -28.3999   22.0480   -2.9104 H   0  0  0  0  0  0  0  0  0  0  0  0
  -28.8870   23.3243   -1.3596 C   0  0  0  0  0  0  0  0  0  0  0  0
  -31.1937   23.0493   -1.7613 O   0  0  0  0  0  0  0  0  0  0  0  0
  -30.3016   23.3053   -0.9626 C   0  0  0  0  0  0  0  0  0  0  0  0
  -30.6350   23.3489    0.4198 N   0  0  0  0  0  0  0  0  0  0  0  0
  -31.8896   23.3730    0.7652 O   0  0  0  0  0  0  0  0  0  0  0  0
  -29.9277   23.3607    1.1045 H   0  0  0  0  0  0  0  0  0  0  0  0
  -32.4443   23.3563   -0.0303 H   0  0  0  0  0  0  0  0  0  0  0  0
  -28.5768   24.4146   -2.2926 C   0  0  0  0  0  0  0  0  0  0  0  0
  -29.6628   25.2594   -2.3585 O   0  0  0  0  0  0  0  0  0  0  0  0
  -27.3968   25.2106   -1.8379 C   0  0  0  0  0  0  0  0  0  0  0  0
  -29.4709   25.9854   -2.9725 H   0  0  0  0  0  0  0  0  0  0  0  0
  -28.3168   23.8234   -3.6438 C   0  0  0  0  0  0  0  0  0  0  0  0
  -27.2405   24.3757   -4.1970 F   0  0  0  0  0  0  0  0  0  0  0  0
  -29.3598   24.0570   -4.4293 F   0  0  0  0  0  0  0  0  0  0  0  0
  -26.8714   16.1350   -3.8010 C   0  0  0  0  0  0  0  0  0  0  0  0
  -26.5434   15.1400   -4.3898 C   0  0  0  0  0  0  0  0  0  0  0  0
  -26.1400   13.9189   -5.1139 C   0  0  0  0  0  0  0  0  0  0  0  0
  -25.8207   12.9416   -5.7345 C   0  0  0  0  0  0  0  0  0  0  0  0
  -25.4458   11.7639   -6.5439 C   0  0  0  0  0  0  0  0  0  0  0  0
  -24.8060    9.7133   -8.2912 C   0  0  0  0  0  0  0  0  0  0  0  0
  -25.4749   10.8371   -8.7892 C   0  0  0  0  0  0  0  0  0  0  0  0
  -24.7638   10.6526   -6.0520 C   0  0  0  0  0  0  0  0  0  0  0  0
  -24.4527    9.6181   -6.9360 C   0  0  0  0  0  0  0  0  0  0  0  0
  -24.4772    8.6679   -9.2064 N   0  0  0  0  0  0  0  0  0  0  0  0
  -25.7914   11.8724   -7.9016 C   0  0  0  0  0  0  0  0  0  0  0  0
  -24.7303    8.7461  -10.1546 H   0  0  0  0  0  0  0  0  0  0  0  0
  -23.9973    7.8689   -8.8892 H   0  0  0  0  0  0  0  0  0  0  0  0
 23 22  1  0  0  0
 22 24  1  0  0  0
 22 18  1  0  0  0
 20 18  1  0  0  0
 19 18  1  0  0  0
 18 11  1  0  0  0
 11 13  1  0  0  0
 11  7  1  0  0  0
 13 12  2  0  0  0
 13 14  1  0  0  0
  7  8  1  0  0  0
 14 15  1  0  0  0
  9  8  2  0  0  0
  8  3  1  0  0  0
  6  3  2  0  0  0
  6  2  1  0  0  0
  3  1  1  0  0  0
  2  5  2  0  0  0
  1  4  2  0  0  0
  5  4  1  0  0  0
  5 25  1  0  0  0
 25 26  3  0  0  0
 26 27  1  0  0  0
 27 28  3  0  0  0
 35 31  2  0  0  0
 35 29  1  0  0  0
 28 29  1  0  0  0
 31 30  1  0  0  0
 29 32  2  0  0  0
 30 34  1  0  0  0
 30 33  2  0  0  0
 32 33  1  0  0  0
 14 16  1  0  0  0
 15 17  1  0  0  0
  7 10  1  0  0  0
 34 36  1  0  0  0
 34 37  1  0  0  0
 19 21  1  0  0  0
M  END
> <minimizedAffinity>
-8.26199

$$$$
5DRR_5EN_A_303


 37 38  0  0  0  0  0  0  0  0999 V2000
  -24.9495   12.1483   -5.8827 C   0  0  0  0  0  0  0  0  0  0  0  0
  -27.2413   13.6907   -6.4020 C   0  0  0  0  0  0  0  0  0  0  0  0
  -25.9087   11.7287   -6.8111 C   0  0  0  0  0  0  0  0  0  0  0  0
  -25.1295   13.3506   -5.2047 C   0  0  0  0  0  0  0  0  0  0  0  0
  -26.2868   14.1138   -5.5071 C   0  0  0  0  0  0  0  0  0  0  0  0
  -27.0579   12.4850   -7.0815 C   0  0  0  0  0  0  0  0  0  0  0  0
  -26.2544   10.3512   -8.8506 N   0  0  0  0  0  0  0  0  0  0  0  0
  -25.7440   10.4392   -7.5222 C   0  0  0  0  0  0  0  0  0  0  0  0
  -25.3412    9.4548   -6.9251 O   0  0  0  0  0  0  0  0  0  0  0  0
  -26.6891   11.1346   -9.2586 H   0  0  0  0  0  0  0  0  0  0  0  0
  -26.1439    9.1667   -9.5773 C   0  0  0  0  0  0  0  0  0  0  0  0
  -24.9697   10.3836  -11.2200 O   0  0  0  0  0  0  0  0  0  0  0  0
  -25.1196    9.3277  -10.6184 C   0  0  0  0  0  0  0  0  0  0  0  0
  -24.1234    8.3237  -10.7727 N   0  0  0  0  0  0  0  0  0  0  0  0
  -23.2426    8.4504  -11.7225 O   0  0  0  0  0  0  0  0  0  0  0  0
  -24.1006    7.5453  -10.1705 H   0  0  0  0  0  0  0  0  0  0  0  0
  -23.4131    9.2688  -12.2146 H   0  0  0  0  0  0  0  0  0  0  0  0
  -27.4550    8.8001  -10.1269 C   0  0  0  0  0  0  0  0  0  0  0  0
  -28.2376    8.3073   -9.1060 O   0  0  0  0  0  0  0  0  0  0  0  0
  -28.1543    9.9805  -10.7190 C   0  0  0  0  0  0  0  0  0  0  0  0
  -29.1080    8.0609   -9.4560 H   0  0  0  0  0  0  0  0  0  0  0  0
  -27.2548    7.7390  -11.1645 C   0  0  0  0  0  0  0  0  0  0  0  0
  -28.1784    7.8357  -12.1170 F   0  0  0  0  0  0  0  0  0  0  0  0
  -27.3629    6.5464  -10.5940 F   0  0  0  0  0  0  0  0  0  0  0  0
  -26.5310   15.3828   -4.7983 C   0  0  0  0  0  0  0  0  0  0  0  0
  -26.6925   16.4353   -4.2410 C   0  0  0  0  0  0  0  0  0  0  0  0
  -26.8913   17.7284   -3.5580 C   0  0  0  0  0  0  0  0  0  0  0  0
  -27.0824   18.7863   -3.0229 C   0  0  0  0  0  0  0  0  0  0  0  0
  -27.3590   20.0970   -2.3998 C   0  0  0  0  0  0  0  0  0  0  0  0
  -28.0339   22.4124   -1.0393 C   0  0  0  0  0  0  0  0  0  0  0  0
  -28.7139   21.2288   -0.7311 C   0  0  0  0  0  0  0  0  0  0  0  0
  -26.6698   21.2720   -2.6937 C   0  0  0  0  0  0  0  0  0  0  0  0
  -27.0212   22.4378   -2.0111 C   0  0  0  0  0  0  0  0  0  0  0  0
  -28.3888   23.5960   -0.3239 N   0  0  0  0  0  0  0  0  0  0  0  0
  -28.3649   20.0607   -1.4192 C   0  0  0  0  0  0  0  0  0  0  0  0
  -29.1007   23.5657    0.3554 H   0  0  0  0  0  0  0  0  0  0  0  0
  -27.9216   24.4423   -0.5100 H   0  0  0  0  0  0  0  0  0  0  0  0
 23 22  1  0  0  0
 22 24  1  0  0  0
 22 18  1  0  0  0
 20 18  1  0  0  0
 19 18  1  0  0  0
 18 11  1  0  0  0
 11 13  1  0  0  0
 11  7  1  0  0  0
 13 12  2  0  0  0
 13 14  1  0  0  0
  7  8  1  0  0  0
 14 15  1  0  0  0
  9  8  2  0  0  0
  8  3  1  0  0  0
  6  3  2  0  0  0
  6  2  1  0  0  0
  3  1  1  0  0  0
  2  5  2  0  0  0
  1  4  2  0  0  0
  5  4  1  0  0  0
  5 25  1  0  0  0
 25 26  3  0  0  0
 26 27  1  0  0  0
 27 28  3  0  0  0
 35 31  2  0  0  0
 35 29  1  0  0  0
 28 29  1  0  0  0
 31 30  1  0  0  0
 29 32  2  0  0  0
 30 34  1  0  0  0
 30 33  2  0  0  0
 32 33  1  0  0  0
 14 16  1  0  0  0
 15 17  1  0  0  0
  7 10  1  0  0  0
 34 36  1  0  0  0
 34 37  1  0  0  0
 19 21  1  0  0  0
M  END
> <minimizedAffinity>
-8.13539

$$$$
5DRR_5EN_A_303


 37 38  0  0  0  0  0  0  0  0999 V2000
  -28.7380   18.6790   -1.3664 C   0  0  0  0  0  0  0  0  0  0  0  0
  -26.7217   18.7566   -3.3233 C   0  0  0  0  0  0  0  0  0  0  0  0
  -28.1073   19.8805   -1.7078 C   0  0  0  0  0  0  0  0  0  0  0  0
  -28.3642   17.5008   -2.0064 C   0  0  0  0  0  0  0  0  0  0  0  0
  -27.3583   17.5803   -3.0040 C   0  0  0  0  0  0  0  0  0  0  0  0
  -27.0993   19.9371   -2.6807 C   0  0  0  0  0  0  0  0  0  0  0  0
  -28.4026   22.3474   -1.7703 N   0  0  0  0  0  0  0  0  0  0  0  0
  -28.4764   21.1387   -1.0177 C   0  0  0  0  0  0  0  0  0  0  0  0
  -28.6679   21.1458    0.1869 O   0  0  0  0  0  0  0  0  0  0  0  0
  -28.1207   22.3180   -2.7131 H   0  0  0  0  0  0  0  0  0  0  0  0
  -28.7255   23.5703   -1.1843 C   0  0  0  0  0  0  0  0  0  0  0  0
  -30.8844   24.5039   -1.0238 O   0  0  0  0  0  0  0  0  0  0  0  0
  -29.9970   24.0554   -1.7384 C   0  0  0  0  0  0  0  0  0  0  0  0
  -30.1182   24.2329   -3.1448 N   0  0  0  0  0  0  0  0  0  0  0  0
  -31.2588   24.6236   -3.6349 O   0  0  0  0  0  0  0  0  0  0  0  0
  -29.3512   24.0629   -3.7381 H   0  0  0  0  0  0  0  0  0  0  0  0
  -31.8969   24.7422   -2.9140 H   0  0  0  0  0  0  0  0  0  0  0  0
  -27.6238   24.5199   -1.3835 C   0  0  0  0  0  0  0  0  0  0  0  0
  -27.2824   24.5239   -2.7180 O   0  0  0  0  0  0  0  0  0  0  0  0
  -28.0177   25.9098   -1.0013 C   0  0  0  0  0  0  0  0  0  0  0  0
  -26.5544   25.1482   -2.8636 H   0  0  0  0  0  0  0  0  0  0  0  0
  -26.4533   24.0672   -0.5663 C   0  0  0  0  0  0  0  0  0  0  0  0
  -26.8526   23.6499    0.6321 F   0  0  0  0  0  0  0  0  0  0  0  0
  -25.6186   25.0846   -0.4003 F   0  0  0  0  0  0  0  0  0  0  0  0
  -26.9142   16.3554   -3.6930 C   0  0  0  0  0  0  0  0  0  0  0  0
  -26.5881   15.3609   -4.2837 C   0  0  0  0  0  0  0  0  0  0  0  0
  -26.1874   14.1404   -5.0104 C   0  0  0  0  0  0  0  0  0  0  0  0
  -25.8942   13.1464   -5.6171 C   0  0  0  0  0  0  0  0  0  0  0  0
  -25.5853   11.9211   -6.3825 C   0  0  0  0  0  0  0  0  0  0  0  0
  -25.0973    9.7642   -8.0490 C   0  0  0  0  0  0  0  0  0  0  0  0
  -25.8400   10.8420   -8.5440 C   0  0  0  0  0  0  0  0  0  0  0  0
  -24.8305   10.8555   -5.8959 C   0  0  0  0  0  0  0  0  0  0  0  0
  -24.5962    9.7670   -6.7378 C   0  0  0  0  0  0  0  0  0  0  0  0
  -24.8485    8.6630   -8.9231 N   0  0  0  0  0  0  0  0  0  0  0  0
  -26.0793   11.9314   -7.6980 C   0  0  0  0  0  0  0  0  0  0  0  0
  -25.2053    8.6725   -9.8406 H   0  0  0  0  0  0  0  0  0  0  0  0
  -24.3202    7.8942   -8.6083 H   0  0  0  0  0  0  0  0  0  0  0  0
 23 22  1  0  0  0
 22 24  1  0  0  0
 22 18  1  0  0  0
 20 18  1  0  0  0
 19 18  1  0  0  0
 18 11  1  0  0  0
 11 13  1  0  0  0
 11  7  1  0  0  0
 13 12  2  0  0  0
 13 14  1  0  0  0
  7  8  1  0  0  0
 14 15  1  0  0  0
  9  8  2  0  0  0
  8  3  1  0  0  0
  6  3  2  0  0  0
  6  2  1  0  0  0
  3  1  1  0  0  0
  2  5  2  0  0  0
  1  4  2  0  0  0
  5  4  1  0  0  0
  5 25  1  0  0  0
 25 26  3  0  0  0
 26 27  1  0  0  0
 27 28  3  0  0  0
 35 31  2  0  0  0
 35 29  1  0  0  0
 28 29  1  0  0  0
 31 30  1  0  0  0
 29 32  2  0  0  0
 30 34  1  0  0  0
 30 33  2  0  0  0
 32 33  1  0  0  0
 14 16  1  0  0  0
 15 17  1  0  0  0
  7 10  1  0  0  0
 34 36  1  0  0  0
 34 37  1  0  0  0
 19 21  1  0  0  0
M  END
> <minimizedAffinity>
-7.52338

$$$$
5DRR_5EN_A_303


 37 38  0  0  0  0  0  0  0  0999 V2000
  -25.5226   15.1606   -5.9406 C   0  0  0  0  0  0  0  0  0  0  0  0
  -27.6040   15.2795   -4.0551 C   0  0  0  0  0  0  0  0  0  0  0  0
  -26.3383   14.0511   -5.6928 C   0  0  0  0  0  0  0  0  0  0  0  0
  -25.7445   16.3455   -5.2446 C   0  0  0  0  0  0  0  0  0  0  0  0
  -26.8170   16.3765   -4.3161 C   0  0  0  0  0  0  0  0  0  0  0  0
  -27.3801   14.0926   -4.7554 C   0  0  0  0  0  0  0  0  0  0  0  0
  -25.5454   11.6959   -5.6576 N   0  0  0  0  0  0  0  0  0  0  0  0
  -26.0988   12.7752   -6.4071 C   0  0  0  0  0  0  0  0  0  0  0  0
  -26.2149   12.7184   -7.6200 O   0  0  0  0  0  0  0  0  0  0  0  0
  -25.3459   11.8185   -4.7013 H   0  0  0  0  0  0  0  0  0  0  0  0
  -25.2842   10.4689   -6.2654 C   0  0  0  0  0  0  0  0  0  0  0  0
  -27.4152    9.5842   -5.7813 O   0  0  0  0  0  0  0  0  0  0  0  0
  -26.5543    9.8204   -6.6194 C   0  0  0  0  0  0  0  0  0  0  0  0
  -26.9006    9.6757   -7.9918 N   0  0  0  0  0  0  0  0  0  0  0  0
  -28.0070    9.0644   -8.3017 O   0  0  0  0  0  0  0  0  0  0  0  0
  -26.3124   10.0325   -8.6961 H   0  0  0  0  0  0  0  0  0  0  0  0
  -28.4578    8.7811   -7.4909 H   0  0  0  0  0  0  0  0  0  0  0  0
  -24.4571    9.6434   -5.3766 C   0  0  0  0  0  0  0  0  0  0  0  0
  -25.1713    9.3821   -4.2281 O   0  0  0  0  0  0  0  0  0  0  0  0
  -24.1020    8.3371   -6.0093 C   0  0  0  0  0  0  0  0  0  0  0  0
  -24.6355    8.8366   -3.6312 H   0  0  0  0  0  0  0  0  0  0  0  0
  -23.2172   10.4103   -5.0342 C   0  0  0  0  0  0  0  0  0  0  0  0
  -22.3271   10.3249   -6.0192 F   0  0  0  0  0  0  0  0  0  0  0  0
  -22.6783    9.8987   -3.9354 F   0  0  0  0  0  0  0  0  0  0  0  0
  -27.0761   17.6023   -3.5398 C   0  0  0  0  0  0  0  0  0  0  0  0
  -27.2466   18.6185   -2.9212 C   0  0  0  0  0  0  0  0  0  0  0  0
  -27.4561   19.8672   -2.1630 C   0  0  0  0  0  0  0  0  0  0  0  0
  -27.5917   20.8822   -1.5356 C   0  0  0  0  0  0  0  0  0  0  0  0
  -27.7068   22.1252   -0.7455 C   0  0  0  0  0  0  0  0  0  0  0  0
  -28.0589   24.2998    0.9322 C   0  0  0  0  0  0  0  0  0  0  0  0
  -28.7566   23.1184    1.2071 C   0  0  0  0  0  0  0  0  0  0  0  0
  -26.9985   23.2962   -1.0086 C   0  0  0  0  0  0  0  0  0  0  0  0
  -27.1877   24.3919   -0.1646 C   0  0  0  0  0  0  0  0  0  0  0  0
  -28.2461   25.4096    1.8108 N   0  0  0  0  0  0  0  0  0  0  0  0
  -28.5708   22.0211    0.3578 C   0  0  0  0  0  0  0  0  0  0  0  0
  -28.8598   25.3330    2.5767 H   0  0  0  0  0  0  0  0  0  0  0  0
  -27.7614   26.2514    1.6506 H   0  0  0  0  0  0  0  0  0  0  0  0
 23 22  1  0  0  0
 22 24  1  0  0  0
 22 18  1  0  0  0
 20 18  1  0  0  0
 19 18  1  0  0  0
 18 11  1  0  0  0
 11 13  1  0  0  0
 11  7  1  0  0  0
 13 12  2  0  0  0
 13 14  1  0  0  0
  7  8  1  0  0  0
 14 15  1  0  0  0
  9  8  2  0  0  0
  8  3  1  0  0  0
  6  3  2  0  0  0
  6  2  1  0  0  0
  3  1  1  0  0  0
  2  5  2  0  0  0
  1  4  2  0  0  0
  5  4  1  0  0  0
  5 25  1  0  0  0
 25 26  3  0  0  0
 26 27  1  0  0  0
 27 28  3  0  0  0
 35 31  2  0  0  0
 35 29  1  0  0  0
 28 29  1  0  0  0
 31 30  1  0  0  0
 29 32  2  0  0  0
 30 34  1  0  0  0
 30 33  2  0  0  0
 32 33  1  0  0  0
 14 16  1  0  0  0
 15 17  1  0  0  0
  7 10  1  0  0  0
 34 36  1  0  0  0
 34 37  1  0  0  0
 19 21  1  0  0  0
M  END
> <minimizedAffinity>
-7.32842

$$$$
5DRR_5EN_A_303


 37 38  0  0  0  0  0  0  0  0999 V2000
  -28.8112   18.8560   -1.3079 C   0  0  0  0  0  0  0  0  0  0  0  0
  -26.8362   18.8725   -3.3080 C   0  0  0  0  0  0  0  0  0  0  0  0
  -28.1683   20.0418   -1.6798 C   0  0  0  0  0  0  0  0  0  0  0  0
  -28.4706   17.6628   -1.9387 C   0  0  0  0  0  0  0  0  0  0  0  0
  -27.4850   17.7115   -2.9584 C   0  0  0  0  0  0  0  0  0  0  0  0
  -27.1806   20.0680   -2.6745 C   0  0  0  0  0  0  0  0  0  0  0  0
  -27.7306   21.6712    0.1451 N   0  0  0  0  0  0  0  0  0  0  0  0
  -28.5018   21.3156   -1.0002 C   0  0  0  0  0  0  0  0  0  0  0  0
  -29.5033   21.9366   -1.3151 O   0  0  0  0  0  0  0  0  0  0  0  0
  -27.0052   21.0783    0.4475 H   0  0  0  0  0  0  0  0  0  0  0  0
  -27.9937   22.8502    0.8409 C   0  0  0  0  0  0  0  0  0  0  0  0
  -25.9418   23.5660   -0.0732 O   0  0  0  0  0  0  0  0  0  0  0  0
  -26.9946   23.8641    0.4765 C   0  0  0  0  0  0  0  0  0  0  0  0
  -27.3474   25.2409    0.5421 N   0  0  0  0  0  0  0  0  0  0  0  0
  -26.4469   26.1366    0.2578 O   0  0  0  0  0  0  0  0  0  0  0  0
  -28.2584   25.5118    0.7986 H   0  0  0  0  0  0  0  0  0  0  0  0
  -25.6138   25.6960    0.0284 H   0  0  0  0  0  0  0  0  0  0  0  0
  -28.0212   22.5771    2.2831 C   0  0  0  0  0  0  0  0  0  0  0  0
  -28.2677   21.2351    2.4720 O   0  0  0  0  0  0  0  0  0  0  0  0
  -26.7153   22.9045    2.9314 C   0  0  0  0  0  0  0  0  0  0  0  0
  -28.2885   21.0407    3.4221 H   0  0  0  0  0  0  0  0  0  0  0  0
  -29.1241   23.3825    2.8977 C   0  0  0  0  0  0  0  0  0  0  0  0
  -30.0525   23.6735    1.9906 F   0  0  0  0  0  0  0  0  0  0  0  0
  -28.6244   24.5181    3.3669 F   0  0  0  0  0  0  0  0  0  0  0  0
  -27.0759   16.4698   -3.6390 C   0  0  0  0  0  0  0  0  0  0  0  0
  -26.6982   15.4672   -4.1834 C   0  0  0  0  0  0  0  0  0  0  0  0
  -26.2339   14.2353   -4.8506 C   0  0  0  0  0  0  0  0  0  0  0  0
  -25.8226   13.2471   -5.3950 C   0  0  0  0  0  0  0  0  0  0  0  0
  -25.2675   12.0560   -6.0701 C   0  0  0  0  0  0  0  0  0  0  0  0
  -24.1380    9.7374   -7.0781 C   0  0  0  0  0  0  0  0  0  0  0  0
  -23.8481   10.1090   -5.7605 C   0  0  0  0  0  0  0  0  0  0  0  0
  -25.5702   11.6761   -7.3763 C   0  0  0  0  0  0  0  0  0  0  0  0
  -24.9901   10.5113   -7.8816 C   0  0  0  0  0  0  0  0  0  0  0  0
  -23.5534    8.5357   -7.5805 N   0  0  0  0  0  0  0  0  0  0  0  0
  -24.4259   11.2798   -5.2553 C   0  0  0  0  0  0  0  0  0  0  0  0
  -22.9573    8.0013   -7.0075 H   0  0  0  0  0  0  0  0  0  0  0  0
  -23.7463    8.2414   -8.5000 H   0  0  0  0  0  0  0  0  0  0  0  0
 23 22  1  0  0  0
 22 24  1  0  0  0
 22 18  1  0  0  0
 20 18  1  0  0  0
 19 18  1  0  0  0
 18 11  1  0  0  0
 11 13  1  0  0  0
 11  7  1  0  0  0
 13 12  2  0  0  0
 13 14  1  0  0  0
  7  8  1  0  0  0
 14 15  1  0  0  0
  9  8  2  0  0  0
  8  3  1  0  0  0
  6  3  2  0  0  0
  6  2  1  0  0  0
  3  1  1  0  0  0
  2  5  2  0  0  0
  1  4  2  0  0  0
  5  4  1  0  0  0
  5 25  1  0  0  0
 25 26  3  0  0  0
 26 27  1  0  0  0
 27 28  3  0  0  0
 35 31  2  0  0  0
 35 29  1  0  0  0
 28 29  1  0  0  0
 31 30  1  0  0  0
 29 32  2  0  0  0
 30 34  1  0  0  0
 30 33  2  0  0  0
 32 33  1  0  0  0
 14 16  1  0  0  0
 15 17  1  0  0  0
  7 10  1  0  0  0
 34 36  1  0  0  0
 34 37  1  0  0  0
 19 21  1  0  0  0
M  END
> <minimizedAffinity>
-7.24552

$$$$
