5BTX_CMP_A_201


 26 29  0  0  0  0  0  0  0  0999 V2000
   20.5466   23.1816   54.5834 P   0  0  0  0  0  0  0  0  0  0  0  0
   20.2064   24.2862   55.5500 O   0  0  0  0  0  0  0  0  0  0  0  0
   20.1645   23.3338   53.1170 O   0  0  0  0  0  0  0  0  0  0  0  0
   19.9529   21.7912   55.1133 O   0  0  0  0  0  0  0  0  0  0  0  0
   20.5129   20.5523   54.6382 C   0  0  0  0  0  0  0  0  0  0  0  0
   22.0075   20.6049   54.9142 C   0  0  0  0  0  0  0  0  0  0  0  0
   22.7991   19.5148   54.4613 O   0  0  0  0  0  0  0  0  0  0  0  0
   22.6707   21.7677   54.2001 C   0  0  0  0  0  0  0  0  0  0  0  0
   22.1406   23.0012   54.6781 O   0  0  0  0  0  0  0  0  0  0  0  0
   24.1395   21.4735   54.4148 C   0  0  0  0  0  0  0  0  0  0  0  0
   24.5569   21.6741   55.7653 O   0  0  0  0  0  0  0  0  0  0  0  0
   24.1278   19.9739   54.2173 C   0  0  0  0  0  0  0  0  0  0  0  0
   19.2036   23.4438   53.0431 H   0  0  0  0  0  0  0  0  0  0  0  0
   24.0045   21.1398   56.3572 H   0  0  0  0  0  0  0  0  0  0  0  0
   24.5737   19.7225   52.8368 N   0  0  0  0  0  0  0  0  0  0  0  0
   23.8529   19.9697   51.6965 C   0  0  0  0  0  0  0  0  0  0  0  0
   24.5680   19.6391   50.6162 N   0  0  0  0  0  0  0  0  0  0  0  0
   25.7888   19.1962   51.0604 C   0  0  0  0  0  0  0  0  0  0  0  0
   27.0222   18.6852   50.4325 C   0  0  0  0  0  0  0  0  0  0  0  0
   27.1550   18.5804   49.0549 N   0  0  0  0  0  0  0  0  0  0  0  0
   28.0172   18.3188   51.2693 N   0  0  0  0  0  0  0  0  0  0  0  0
   27.9408   18.4011   52.6082 C   0  0  0  0  0  0  0  0  0  0  0  0
   26.8505   18.8660   53.2361 N   0  0  0  0  0  0  0  0  0  0  0  0
   25.7740   19.2667   52.5231 C   0  0  0  0  0  0  0  0  0  0  0  0
   26.4145   18.8544   48.4668 H   0  0  0  0  0  0  0  0  0  0  0  0
   27.9896   18.2322   48.6659 H   0  0  0  0  0  0  0  0  0  0  0  0
  1  2  2  0  0  0
  1  3  1  0  0  0
  1  4  1  0  0  0
  1  9  1  0  0  0
  4  5  1  0  0  0
  5  6  1  0  0  0
  6  7  1  0  0  0
  6  8  1  0  0  0
  7 12  1  0  0  0
  8  9  1  0  0  0
  8 10  1  0  0  0
 10 11  1  0  0  0
 10 12  1  0  0  0
 12 15  1  0  0  0
 15 16  1  0  0  0
 15 24  1  0  0  0
 16 17  2  0  0  0
 17 18  1  0  0  0
 18 19  1  0  0  0
 18 24  2  0  0  0
 19 20  1  0  0  0
 19 21  2  0  0  0
 21 22  1  0  0  0
 22 23  2  0  0  0
 23 24  1  0  0  0
  3 13  1  0  0  0
 11 14  1  0  0  0
 20 25  1  0  0  0
 20 26  1  0  0  0
M  END
> <minimizedAffinity>
-6.96288

$$$$
5BTX_CMP_A_201


 26 29  0  0  0  0  0  0  0  0999 V2000
   27.2425   13.5768   46.3778 P   0  0  0  0  0  0  0  0  0  0  0  0
   28.1664   12.7134   45.5585 O   0  0  0  0  0  0  0  0  0  0  0  0
   26.5843   12.9902   47.6196 O   0  0  0  0  0  0  0  0  0  0  0  0
   26.0931   14.1858   45.4427 O   0  0  0  0  0  0  0  0  0  0  0  0
   25.3868   15.3683   45.8637 C   0  0  0  0  0  0  0  0  0  0  0  0
   26.4333   16.4356   46.1432 C   0  0  0  0  0  0  0  0  0  0  0  0
   25.9810   17.6839   46.6506 O   0  0  0  0  0  0  0  0  0  0  0  0
   27.3975   16.0062   47.2331 C   0  0  0  0  0  0  0  0  0  0  0  0
   28.1192   14.8492   46.8190 O   0  0  0  0  0  0  0  0  0  0  0  0
   28.1614   17.2850   47.5003 C   0  0  0  0  0  0  0  0  0  0  0  0
   29.0478   17.6375   46.4381 O   0  0  0  0  0  0  0  0  0  0  0  0
   27.0243   18.2793   47.4204 C   0  0  0  0  0  0  0  0  0  0  0  0
   26.0506   12.2199   47.3694 H   0  0  0  0  0  0  0  0  0  0  0  0
   28.5501   17.6961   45.6076 H   0  0  0  0  0  0  0  0  0  0  0  0
   26.6163   18.5721   48.8044 N   0  0  0  0  0  0  0  0  0  0  0  0
   27.4068   18.4662   49.9201 C   0  0  0  0  0  0  0  0  0  0  0  0
   26.7204   18.8266   51.0094 N   0  0  0  0  0  0  0  0  0  0  0  0
   25.4684   19.2027   50.5915 C   0  0  0  0  0  0  0  0  0  0  0  0
   24.2372   19.6904   51.2418 C   0  0  0  0  0  0  0  0  0  0  0  0
   24.1632   19.8948   52.6126 N   0  0  0  0  0  0  0  0  0  0  0  0
   23.1807   19.9242   50.4334 N   0  0  0  0  0  0  0  0  0  0  0  0
   23.1997   19.7442   49.1020 C   0  0  0  0  0  0  0  0  0  0  0  0
   24.2914   19.3126   48.4532 N   0  0  0  0  0  0  0  0  0  0  0  0
   25.4240   19.0351   49.1373 C   0  0  0  0  0  0  0  0  0  0  0  0
   24.9479   19.7168   53.1799 H   0  0  0  0  0  0  0  0  0  0  0  0
   23.3260   20.2178   53.0177 H   0  0  0  0  0  0  0  0  0  0  0  0
  1  2  2  0  0  0
  1  3  1  0  0  0
  1  4  1  0  0  0
  1  9  1  0  0  0
  4  5  1  0  0  0
  5  6  1  0  0  0
  6  7  1  0  0  0
  6  8  1  0  0  0
  7 12  1  0  0  0
  8  9  1  0  0  0
  8 10  1  0  0  0
 10 11  1  0  0  0
 10 12  1  0  0  0
 12 15  1  0  0  0
 15 16  1  0  0  0
 15 24  1  0  0  0
 16 17  2  0  0  0
 17 18  1  0  0  0
 18 19  1  0  0  0
 18 24  2  0  0  0
 19 20  1  0  0  0
 19 21  2  0  0  0
 21 22  1  0  0  0
 22 23  2  0  0  0
 23 24  1  0  0  0
  3 13  1  0  0  0
 11 14  1  0  0  0
 20 25  1  0  0  0
 20 26  1  0  0  0
M  END
> <minimizedAffinity>
-6.83669

$$$$
5BTX_CMP_A_201


 26 29  0  0  0  0  0  0  0  0999 V2000
   31.6988   19.4440   47.4117 P   0  0  0  0  0  0  0  0  0  0  0  0
   32.4263   19.8349   46.1515 O   0  0  0  0  0  0  0  0  0  0  0  0
   31.9639   20.2217   48.6940 O   0  0  0  0  0  0  0  0  0  0  0  0
   31.9293   17.8877   47.7139 O   0  0  0  0  0  0  0  0  0  0  0  0
   31.0021   17.1836   48.5619 C   0  0  0  0  0  0  0  0  0  0  0  0
   29.6159   17.3867   47.9705 C   0  0  0  0  0  0  0  0  0  0  0  0
   28.5113   16.8435   48.6809 O   0  0  0  0  0  0  0  0  0  0  0  0
   29.2377   18.8551   47.9151 C   0  0  0  0  0  0  0  0  0  0  0  0
   30.1350   19.5589   47.0605 O   0  0  0  0  0  0  0  0  0  0  0  0
   27.7732   18.7896   47.5394 C   0  0  0  0  0  0  0  0  0  0  0  0
   27.5618   18.3748   46.1897 O   0  0  0  0  0  0  0  0  0  0  0  0
   27.3465   17.6149   48.3914 C   0  0  0  0  0  0  0  0  0  0  0  0
   32.9054   20.1618   48.9197 H   0  0  0  0  0  0  0  0  0  0  0  0
   27.9978   17.5211   46.0418 H   0  0  0  0  0  0  0  0  0  0  0  0
   26.7162   18.1718   49.5998 N   0  0  0  0  0  0  0  0  0  0  0  0
   27.2584   18.1902   50.8595 C   0  0  0  0  0  0  0  0  0  0  0  0
   26.4218   18.7871   51.7147 N   0  0  0  0  0  0  0  0  0  0  0  0
   25.3271   19.1916   50.9924 C   0  0  0  0  0  0  0  0  0  0  0  0
   24.0594   19.8853   51.2903 C   0  0  0  0  0  0  0  0  0  0  0  0
   23.7467   20.3249   52.5691 N   0  0  0  0  0  0  0  0  0  0  0  0
   23.2138   20.0672   50.2529 N   0  0  0  0  0  0  0  0  0  0  0  0
   23.4683   19.6629   48.9970 C   0  0  0  0  0  0  0  0  0  0  0  0
   24.6063   19.0364   48.6630 N   0  0  0  0  0  0  0  0  0  0  0  0
   25.5449   18.7840   49.6028 C   0  0  0  0  0  0  0  0  0  0  0  0
   24.3806   20.1798   53.3082 H   0  0  0  0  0  0  0  0  0  0  0  0
   22.8909   20.7817   52.7370 H   0  0  0  0  0  0  0  0  0  0  0  0
  1  2  2  0  0  0
  1  3  1  0  0  0
  1  4  1  0  0  0
  1  9  1  0  0  0
  4  5  1  0  0  0
  5  6  1  0  0  0
  6  7  1  0  0  0
  6  8  1  0  0  0
  7 12  1  0  0  0
  8  9  1  0  0  0
  8 10  1  0  0  0
 10 11  1  0  0  0
 10 12  1  0  0  0
 12 15  1  0  0  0
 15 16  1  0  0  0
 15 24  1  0  0  0
 16 17  2  0  0  0
 17 18  1  0  0  0
 18 19  1  0  0  0
 18 24  2  0  0  0
 19 20  1  0  0  0
 19 21  2  0  0  0
 21 22  1  0  0  0
 22 23  2  0  0  0
 23 24  1  0  0  0
  3 13  1  0  0  0
 11 14  1  0  0  0
 20 25  1  0  0  0
 20 26  1  0  0  0
M  END
> <minimizedAffinity>
-6.69003

$$$$
5BTX_CMP_A_201


 26 29  0  0  0  0  0  0  0  0999 V2000
   31.0765   20.5773   49.8638 P   0  0  0  0  0  0  0  0  0  0  0  0
   32.2449   20.3601   48.9377 O   0  0  0  0  0  0  0  0  0  0  0  0
   30.5233   21.9848   50.0440 O   0  0  0  0  0  0  0  0  0  0  0  0
   31.4114   19.9822   51.3130 O   0  0  0  0  0  0  0  0  0  0  0  0
   30.3353   19.6530   52.2120 C   0  0  0  0  0  0  0  0  0  0  0  0
   29.4130   18.6977   51.4708 C   0  0  0  0  0  0  0  0  0  0  0  0
   28.2244   18.2848   52.1318 O   0  0  0  0  0  0  0  0  0  0  0  0
   28.8468   19.3261   50.2112 C   0  0  0  0  0  0  0  0  0  0  0  0
   29.9009   19.6360   49.3035 O   0  0  0  0  0  0  0  0  0  0  0  0
   27.8013   18.3139   49.7961 C   0  0  0  0  0  0  0  0  0  0  0  0
   28.3661   17.1010   49.2979 O   0  0  0  0  0  0  0  0  0  0  0  0
   27.2354   17.9643   51.1547 C   0  0  0  0  0  0  0  0  0  0  0  0
   31.2222   22.5661   50.3824 H   0  0  0  0  0  0  0  0  0  0  0  0
   28.9678   16.7282   49.9611 H   0  0  0  0  0  0  0  0  0  0  0  0
   25.9993   18.7478   51.3157 N   0  0  0  0  0  0  0  0  0  0  0  0
   25.1666   19.1609   50.3073 C   0  0  0  0  0  0  0  0  0  0  0  0
   24.1286   19.8360   50.8117 N   0  0  0  0  0  0  0  0  0  0  0  0
   24.2725   19.8369   52.1766 C   0  0  0  0  0  0  0  0  0  0  0  0
   23.5190   20.3852   53.3204 C   0  0  0  0  0  0  0  0  0  0  0  0
   22.3333   21.0861   53.1494 N   0  0  0  0  0  0  0  0  0  0  0  0
   24.0456   20.1737   54.5461 N   0  0  0  0  0  0  0  0  0  0  0  0
   25.1880   19.5016   54.7666 C   0  0  0  0  0  0  0  0  0  0  0  0
   25.9114   18.9721   53.7690 N   0  0  0  0  0  0  0  0  0  0  0  0
   25.5050   19.1091   52.4869 C   0  0  0  0  0  0  0  0  0  0  0  0
   21.9705   21.2266   52.2450 H   0  0  0  0  0  0  0  0  0  0  0  0
   21.8551   21.4429   53.9325 H   0  0  0  0  0  0  0  0  0  0  0  0
  1  2  2  0  0  0
  1  3  1  0  0  0
  1  4  1  0  0  0
  1  9  1  0  0  0
  4  5  1  0  0  0
  5  6  1  0  0  0
  6  7  1  0  0  0
  6  8  1  0  0  0
  7 12  1  0  0  0
  8  9  1  0  0  0
  8 10  1  0  0  0
 10 11  1  0  0  0
 10 12  1  0  0  0
 12 15  1  0  0  0
 15 16  1  0  0  0
 15 24  1  0  0  0
 16 17  2  0  0  0
 17 18  1  0  0  0
 18 19  1  0  0  0
 18 24  2  0  0  0
 19 20  1  0  0  0
 19 21  2  0  0  0
 21 22  1  0  0  0
 22 23  2  0  0  0
 23 24  1  0  0  0
  3 13  1  0  0  0
 11 14  1  0  0  0
 20 25  1  0  0  0
 20 26  1  0  0  0
M  END
> <minimizedAffinity>
-5.82679

$$$$
5BTX_CMP_A_201


 26 29  0  0  0  0  0  0  0  0999 V2000
   31.9097   20.1839   48.9584 P   0  0  0  0  0  0  0  0  0  0  0  0
   33.1870   20.2926   48.1666 O   0  0  0  0  0  0  0  0  0  0  0  0
   31.3389   21.4301   49.6222 O   0  0  0  0  0  0  0  0  0  0  0  0
   32.0558   19.0447   50.0752 O   0  0  0  0  0  0  0  0  0  0  0  0
   30.8732   18.4415   50.6338 C   0  0  0  0  0  0  0  0  0  0  0  0
   30.0527   17.9094   49.4691 C   0  0  0  0  0  0  0  0  0  0  0  0
   28.7889   17.3300   49.7649 O   0  0  0  0  0  0  0  0  0  0  0  0
   29.6530   19.0157   48.5108 C   0  0  0  0  0  0  0  0  0  0  0  0
   30.8149   19.6059   47.9339 O   0  0  0  0  0  0  0  0  0  0  0  0
   28.6685   18.3081   47.6052 C   0  0  0  0  0  0  0  0  0  0  0  0
   29.2916   17.3661   46.7319 O   0  0  0  0  0  0  0  0  0  0  0  0
   27.9331   17.4768   48.6328 C   0  0  0  0  0  0  0  0  0  0  0  0
   31.9892   21.7916   50.2446 H   0  0  0  0  0  0  0  0  0  0  0  0
   29.8032   16.7294   47.2552 H   0  0  0  0  0  0  0  0  0  0  0  0
   26.6870   18.1946   48.9488 N   0  0  0  0  0  0  0  0  0  0  0  0
   25.7233   18.5758   48.0506 C   0  0  0  0  0  0  0  0  0  0  0  0
   24.7191   19.1918   48.6829 N   0  0  0  0  0  0  0  0  0  0  0  0
   25.0207   19.1852   50.0218 C   0  0  0  0  0  0  0  0  0  0  0  0
   24.3794   19.6820   51.2541 C   0  0  0  0  0  0  0  0  0  0  0  0
   23.1489   20.3236   51.2332 N   0  0  0  0  0  0  0  0  0  0  0  0
   25.0550   19.4844   52.4069 N   0  0  0  0  0  0  0  0  0  0  0  0
   26.2469   18.8688   52.4825 C   0  0  0  0  0  0  0  0  0  0  0  0
   26.8745   18.3875   51.3992 N   0  0  0  0  0  0  0  0  0  0  0  0
   26.3153   18.5177   50.1752 C   0  0  0  0  0  0  0  0  0  0  0  0
   22.6768   20.4553   50.3793 H   0  0  0  0  0  0  0  0  0  0  0  0
   22.7481   20.6472   52.0722 H   0  0  0  0  0  0  0  0  0  0  0  0
  1  2  2  0  0  0
  1  3  1  0  0  0
  1  4  1  0  0  0
  1  9  1  0  0  0
  4  5  1  0  0  0
  5  6  1  0  0  0
  6  7  1  0  0  0
  6  8  1  0  0  0
  7 12  1  0  0  0
  8  9  1  0  0  0
  8 10  1  0  0  0
 10 11  1  0  0  0
 10 12  1  0  0  0
 12 15  1  0  0  0
 15 16  1  0  0  0
 15 24  1  0  0  0
 16 17  2  0  0  0
 17 18  1  0  0  0
 18 19  1  0  0  0
 18 24  2  0  0  0
 19 20  1  0  0  0
 19 21  2  0  0  0
 21 22  1  0  0  0
 22 23  2  0  0  0
 23 24  1  0  0  0
  3 13  1  0  0  0
 11 14  1  0  0  0
 20 25  1  0  0  0
 20 26  1  0  0  0
M  END
> <minimizedAffinity>
-5.70409

$$$$
5BTX_CMP_A_201


 26 29  0  0  0  0  0  0  0  0999 V2000
   26.1786   15.9375   45.1569 P   0  0  0  0  0  0  0  0  0  0  0  0
   24.7092   15.8815   44.8288 O   0  0  0  0  0  0  0  0  0  0  0  0
   27.1965   15.8095   44.0313 O   0  0  0  0  0  0  0  0  0  0  0  0
   26.5296   14.8454   46.2753 O   0  0  0  0  0  0  0  0  0  0  0  0
   27.7193   15.0014   47.0720 C   0  0  0  0  0  0  0  0  0  0  0  0
   27.6489   16.3793   47.7115 C   0  0  0  0  0  0  0  0  0  0  0  0
   28.7589   16.7992   48.4937 O   0  0  0  0  0  0  0  0  0  0  0  0
   27.5888   17.4806   46.6696 C   0  0  0  0  0  0  0  0  0  0  0  0
   26.4037   17.3503   45.8887 O   0  0  0  0  0  0  0  0  0  0  0  0
   27.7731   18.7233   47.5131 C   0  0  0  0  0  0  0  0  0  0  0  0
   26.6377   19.0186   48.3268 O   0  0  0  0  0  0  0  0  0  0  0  0
   28.8330   18.2239   48.4698 C   0  0  0  0  0  0  0  0  0  0  0  0
   27.0733   14.9603   43.5790 H   0  0  0  0  0  0  0  0  0  0  0  0
   26.4278   18.2500   48.8801 H   0  0  0  0  0  0  0  0  0  0  0  0
   30.1260   18.7196   47.9697 N   0  0  0  0  0  0  0  0  0  0  0  0
   30.8127   18.2363   46.8853 C   0  0  0  0  0  0  0  0  0  0  0  0
   31.9413   18.9302   46.7055 N   0  0  0  0  0  0  0  0  0  0  0  0
   31.9756   19.9029   47.6732 C   0  0  0  0  0  0  0  0  0  0  0  0
   32.9044   20.9834   48.0559 C   0  0  0  0  0  0  0  0  0  0  0  0
   34.0760   21.2269   47.3527 N   0  0  0  0  0  0  0  0  0  0  0  0
   32.5580   21.7230   49.1317 N   0  0  0  0  0  0  0  0  0  0  0  0
   31.4362   21.5302   49.8457 C   0  0  0  0  0  0  0  0  0  0  0  0
   30.5493   20.5712   49.5411 N   0  0  0  0  0  0  0  0  0  0  0  0
   30.7686   19.7514   48.4886 C   0  0  0  0  0  0  0  0  0  0  0  0
   34.3055   20.6731   46.5718 H   0  0  0  0  0  0  0  0  0  0  0  0
   34.6775   21.9534   47.6349 H   0  0  0  0  0  0  0  0  0  0  0  0
  1  2  2  0  0  0
  1  3  1  0  0  0
  1  4  1  0  0  0
  1  9  1  0  0  0
  4  5  1  0  0  0
  5  6  1  0  0  0
  6  7  1  0  0  0
  6  8  1  0  0  0
  7 12  1  0  0  0
  8  9  1  0  0  0
  8 10  1  0  0  0
 10 11  1  0  0  0
 10 12  1  0  0  0
 12 15  1  0  0  0
 15 16  1  0  0  0
 15 24  1  0  0  0
 16 17  2  0  0  0
 17 18  1  0  0  0
 18 19  1  0  0  0
 18 24  2  0  0  0
 19 20  1  0  0  0
 19 21  2  0  0  0
 21 22  1  0  0  0
 22 23  2  0  0  0
 23 24  1  0  0  0
  3 13  1  0  0  0
 11 14  1  0  0  0
 20 25  1  0  0  0
 20 26  1  0  0  0
M  END
> <minimizedAffinity>
-5.62731

$$$$
5BTX_CMP_A_201


 26 29  0  0  0  0  0  0  0  0999 V2000
   30.4092   15.8943   46.2874 P   0  0  0  0  0  0  0  0  0  0  0  0
   31.2342   16.0967   45.0430 O   0  0  0  0  0  0  0  0  0  0  0  0
   31.0602   15.2764   47.5178 O   0  0  0  0  0  0  0  0  0  0  0  0
   29.0949   15.0474   45.9385 O   0  0  0  0  0  0  0  0  0  0  0  0
   27.9536   15.1136   46.8145 C   0  0  0  0  0  0  0  0  0  0  0  0
   27.5882   16.5827   46.9589 C   0  0  0  0  0  0  0  0  0  0  0  0
   26.5272   16.9129   47.8451 O   0  0  0  0  0  0  0  0  0  0  0  0
   28.7285   17.3904   47.5501 C   0  0  0  0  0  0  0  0  0  0  0  0
   29.8571   17.3512   46.6809 O   0  0  0  0  0  0  0  0  0  0  0  0
   28.0637   18.7223   47.8221 C   0  0  0  0  0  0  0  0  0  0  0  0
   27.7667   19.4511   46.6309 O   0  0  0  0  0  0  0  0  0  0  0  0
   26.7276   18.2365   48.3387 C   0  0  0  0  0  0  0  0  0  0  0  0
   31.3991   14.3950   47.2961 H   0  0  0  0  0  0  0  0  0  0  0  0
   27.2220   18.9033   46.0442 H   0  0  0  0  0  0  0  0  0  0  0  0
   26.7927   18.2936   49.8085 N   0  0  0  0  0  0  0  0  0  0  0  0
   27.8175   17.8266   50.5912 C   0  0  0  0  0  0  0  0  0  0  0  0
   27.5557   18.0566   51.8820 N   0  0  0  0  0  0  0  0  0  0  0  0
   26.3514   18.7125   51.9389 C   0  0  0  0  0  0  0  0  0  0  0  0
   25.4864   19.2471   53.0078 C   0  0  0  0  0  0  0  0  0  0  0  0
   25.8410   19.1670   54.3473 N   0  0  0  0  0  0  0  0  0  0  0  0
   24.3258   19.8162   52.6158 N   0  0  0  0  0  0  0  0  0  0  0  0
   23.9360   19.9204   51.3342 C   0  0  0  0  0  0  0  0  0  0  0  0
   24.6832   19.4624   50.3188 N   0  0  0  0  0  0  0  0  0  0  0  0
   25.8710   18.8650   50.5638 C   0  0  0  0  0  0  0  0  0  0  0  0
   26.6928   18.7472   54.6067 H   0  0  0  0  0  0  0  0  0  0  0  0
   25.2407   19.5301   55.0380 H   0  0  0  0  0  0  0  0  0  0  0  0
  1  2  2  0  0  0
  1  3  1  0  0  0
  1  4  1  0  0  0
  1  9  1  0  0  0
  4  5  1  0  0  0
  5  6  1  0  0  0
  6  7  1  0  0  0
  6  8  1  0  0  0
  7 12  1  0  0  0
  8  9  1  0  0  0
  8 10  1  0  0  0
 10 11  1  0  0  0
 10 12  1  0  0  0
 12 15  1  0  0  0
 15 16  1  0  0  0
 15 24  1  0  0  0
 16 17  2  0  0  0
 17 18  1  0  0  0
 18 19  1  0  0  0
 18 24  2  0  0  0
 19 20  1  0  0  0
 19 21  2  0  0  0
 21 22  1  0  0  0
 22 23  2  0  0  0
 23 24  1  0  0  0
  3 13  1  0  0  0
 11 14  1  0  0  0
 20 25  1  0  0  0
 20 26  1  0  0  0
M  END
> <minimizedAffinity>
-5.58508

$$$$
5BTX_CMP_A_201


 26 29  0  0  0  0  0  0  0  0999 V2000
   28.6327   14.0835   53.0441 P   0  0  0  0  0  0  0  0  0  0  0  0
   29.3905   13.2916   54.0780 O   0  0  0  0  0  0  0  0  0  0  0  0
   27.3692   13.4911   52.4341 O   0  0  0  0  0  0  0  0  0  0  0  0
   29.6154   14.5028   51.8504 O   0  0  0  0  0  0  0  0  0  0  0  0
   29.2701   15.6153   51.0033 C   0  0  0  0  0  0  0  0  0  0  0  0
   29.0362   16.8113   51.9131 C   0  0  0  0  0  0  0  0  0  0  0  0
   28.6049   18.0233   51.3088 O   0  0  0  0  0  0  0  0  0  0  0  0
   27.9113   16.5566   52.8989 C   0  0  0  0  0  0  0  0  0  0  0  0
   28.2510   15.4715   53.7582 O   0  0  0  0  0  0  0  0  0  0  0  0
   27.7052   17.9284   53.5036 C   0  0  0  0  0  0  0  0  0  0  0  0
   28.7734   18.3249   54.3639 O   0  0  0  0  0  0  0  0  0  0  0  0
   27.8554   18.7771   52.2605 C   0  0  0  0  0  0  0  0  0  0  0  0
   27.5835   12.6513   51.9985 H   0  0  0  0  0  0  0  0  0  0  0  0
   29.6124   18.2804   53.8792 H   0  0  0  0  0  0  0  0  0  0  0  0
   26.4953   19.0937   51.7939 N   0  0  0  0  0  0  0  0  0  0  0  0
   25.4526   19.5243   52.5739 C   0  0  0  0  0  0  0  0  0  0  0  0
   24.3672   19.7326   51.8215 N   0  0  0  0  0  0  0  0  0  0  0  0
   24.7182   19.4611   50.5227 C   0  0  0  0  0  0  0  0  0  0  0  0
   24.0339   19.4760   49.2157 C   0  0  0  0  0  0  0  0  0  0  0  0
   22.7048   19.8548   49.0879 N   0  0  0  0  0  0  0  0  0  0  0  0
   24.7675   19.0965   48.1470 N   0  0  0  0  0  0  0  0  0  0  0  0
   26.0562   18.7224   48.2156 C   0  0  0  0  0  0  0  0  0  0  0  0
   26.7343   18.6978   49.3726 N   0  0  0  0  0  0  0  0  0  0  0  0
   26.1239   19.0503   50.5263 C   0  0  0  0  0  0  0  0  0  0  0  0
   22.1920   20.1272   49.8829 H   0  0  0  0  0  0  0  0  0  0  0  0
   22.2749   19.8510   48.2022 H   0  0  0  0  0  0  0  0  0  0  0  0
  1  2  2  0  0  0
  1  3  1  0  0  0
  1  4  1  0  0  0
  1  9  1  0  0  0
  4  5  1  0  0  0
  5  6  1  0  0  0
  6  7  1  0  0  0
  6  8  1  0  0  0
  7 12  1  0  0  0
  8  9  1  0  0  0
  8 10  1  0  0  0
 10 11  1  0  0  0
 10 12  1  0  0  0
 12 15  1  0  0  0
 15 16  1  0  0  0
 15 24  1  0  0  0
 16 17  2  0  0  0
 17 18  1  0  0  0
 18 19  1  0  0  0
 18 24  2  0  0  0
 19 20  1  0  0  0
 19 21  2  0  0  0
 21 22  1  0  0  0
 22 23  2  0  0  0
 23 24  1  0  0  0
  3 13  1  0  0  0
 11 14  1  0  0  0
 20 25  1  0  0  0
 20 26  1  0  0  0
M  END
> <minimizedAffinity>
-5.54580

$$$$
5BTX_CMP_A_201


 26 29  0  0  0  0  0  0  0  0999 V2000
   20.9608   22.7514   54.8583 P   0  0  0  0  0  0  0  0  0  0  0  0
   20.2909   23.9654   55.4477 O   0  0  0  0  0  0  0  0  0  0  0  0
   20.6777   22.3767   53.4095 O   0  0  0  0  0  0  0  0  0  0  0  0
   20.6682   21.4691   55.7729 O   0  0  0  0  0  0  0  0  0  0  0  0
   21.5414   20.3263   55.6948 C   0  0  0  0  0  0  0  0  0  0  0  0
   22.9532   20.8266   55.9576 C   0  0  0  0  0  0  0  0  0  0  0  0
   24.0139   19.8856   55.8586 O   0  0  0  0  0  0  0  0  0  0  0  0
   23.3821   21.8629   54.9358 C   0  0  0  0  0  0  0  0  0  0  0  0
   22.5389   23.0089   55.0186 O   0  0  0  0  0  0  0  0  0  0  0  0
   24.8556   22.0183   55.2434 C   0  0  0  0  0  0  0  0  0  0  0  0
   25.0996   22.6949   56.4766 O   0  0  0  0  0  0  0  0  0  0  0  0
   25.2131   20.5715   55.5022 C   0  0  0  0  0  0  0  0  0  0  0  0
   19.7275   22.2178   53.2964 H   0  0  0  0  0  0  0  0  0  0  0  0
   24.6406   22.2326   57.1954 H   0  0  0  0  0  0  0  0  0  0  0  0
   25.8196   20.0545   54.2642 N   0  0  0  0  0  0  0  0  0  0  0  0
   27.0971   19.5744   54.1288 C   0  0  0  0  0  0  0  0  0  0  0  0
   27.3092   19.1715   52.8717 N   0  0  0  0  0  0  0  0  0  0  0  0
   26.1382   19.3653   52.1827 C   0  0  0  0  0  0  0  0  0  0  0  0
   25.6768   19.1518   50.7977 C   0  0  0  0  0  0  0  0  0  0  0  0
   26.5035   18.6073   49.8248 N   0  0  0  0  0  0  0  0  0  0  0  0
   24.4063   19.5186   50.5224 N   0  0  0  0  0  0  0  0  0  0  0  0
   23.5651   20.0482   51.4264 C   0  0  0  0  0  0  0  0  0  0  0  0
   23.9235   20.2572   52.7019 N   0  0  0  0  0  0  0  0  0  0  0  0
   25.1695   19.9394   53.1192 C   0  0  0  0  0  0  0  0  0  0  0  0
   27.4258   18.3481   50.0514 H   0  0  0  0  0  0  0  0  0  0  0  0
   26.1676   18.4803   48.9082 H   0  0  0  0  0  0  0  0  0  0  0  0
  1  2  2  0  0  0
  1  3  1  0  0  0
  1  4  1  0  0  0
  1  9  1  0  0  0
  4  5  1  0  0  0
  5  6  1  0  0  0
  6  7  1  0  0  0
  6  8  1  0  0  0
  7 12  1  0  0  0
  8  9  1  0  0  0
  8 10  1  0  0  0
 10 11  1  0  0  0
 10 12  1  0  0  0
 12 15  1  0  0  0
 15 16  1  0  0  0
 15 24  1  0  0  0
 16 17  2  0  0  0
 17 18  1  0  0  0
 18 19  1  0  0  0
 18 24  2  0  0  0
 19 20  1  0  0  0
 19 21  2  0  0  0
 21 22  1  0  0  0
 22 23  2  0  0  0
 23 24  1  0  0  0
  3 13  1  0  0  0
 11 14  1  0  0  0
 20 25  1  0  0  0
 20 26  1  0  0  0
M  END
> <minimizedAffinity>
-5.23854

$$$$
5BTX_CMP_A_201


 26 29  0  0  0  0  0  0  0  0999 V2000
   31.9680   19.1129   53.4355 P   0  0  0  0  0  0  0  0  0  0  0  0
   33.3409   19.4223   52.8973 O   0  0  0  0  0  0  0  0  0  0  0  0
   31.5096   19.7767   54.7273 O   0  0  0  0  0  0  0  0  0  0  0  0
   31.7898   17.5289   53.5965 O   0  0  0  0  0  0  0  0  0  0  0  0
   30.4657   16.9641   53.6445 C   0  0  0  0  0  0  0  0  0  0  0  0
   29.7365   17.4334   52.3952 C   0  0  0  0  0  0  0  0  0  0  0  0
   28.3715   17.0638   52.2522 O   0  0  0  0  0  0  0  0  0  0  0  0
   29.6402   18.9464   52.3350 C   0  0  0  0  0  0  0  0  0  0  0  0
   30.9444   19.5165   52.2644 O   0  0  0  0  0  0  0  0  0  0  0  0
   28.6892   19.1561   51.1767 C   0  0  0  0  0  0  0  0  0  0  0  0
   29.2729   18.8426   49.9121 O   0  0  0  0  0  0  0  0  0  0  0  0
   27.7061   18.0401   51.4524 C   0  0  0  0  0  0  0  0  0  0  0  0
   32.1185   19.5422   55.4451 H   0  0  0  0  0  0  0  0  0  0  0  0
   29.6078   17.9324   49.9273 H   0  0  0  0  0  0  0  0  0  0  0  0
   26.5524   18.6478   52.1362 N   0  0  0  0  0  0  0  0  0  0  0  0
   26.4295   18.8543   53.4865 C   0  0  0  0  0  0  0  0  0  0  0  0
   25.2606   19.4429   53.7600 N   0  0  0  0  0  0  0  0  0  0  0  0
   24.6233   19.6506   52.5624 C   0  0  0  0  0  0  0  0  0  0  0  0
   23.3360   20.2310   52.1347 C   0  0  0  0  0  0  0  0  0  0  0  0
   22.4334   20.7640   53.0444 N   0  0  0  0  0  0  0  0  0  0  0  0
   23.0776   20.2128   50.8091 N   0  0  0  0  0  0  0  0  0  0  0  0
   23.9164   19.7108   49.8874 C   0  0  0  0  0  0  0  0  0  0  0  0
   25.1039   19.1792   50.2137 N   0  0  0  0  0  0  0  0  0  0  0  0
   25.4937   19.1275   51.5072 C   0  0  0  0  0  0  0  0  0  0  0  0
   22.6459   20.7651   54.0057 H   0  0  0  0  0  0  0  0  0  0  0  0
   21.5807   21.1411   52.7283 H   0  0  0  0  0  0  0  0  0  0  0  0
  1  2  2  0  0  0
  1  3  1  0  0  0
  1  4  1  0  0  0
  1  9  1  0  0  0
  4  5  1  0  0  0
  5  6  1  0  0  0
  6  7  1  0  0  0
  6  8  1  0  0  0
  7 12  1  0  0  0
  8  9  1  0  0  0
  8 10  1  0  0  0
 10 11  1  0  0  0
 10 12  1  0  0  0
 12 15  1  0  0  0
 15 16  1  0  0  0
 15 24  1  0  0  0
 16 17  2  0  0  0
 17 18  1  0  0  0
 18 19  1  0  0  0
 18 24  2  0  0  0
 19 20  1  0  0  0
 19 21  2  0  0  0
 21 22  1  0  0  0
 22 23  2  0  0  0
 23 24  1  0  0  0
  3 13  1  0  0  0
 11 14  1  0  0  0
 20 25  1  0  0  0
 20 26  1  0  0  0
M  END
> <minimizedAffinity>
-5.20103

$$$$
