4QPD_THG_A_402


 41 43  0  0  0  0  0  0  0  0999 V2000
   23.1743   15.3430   40.4879 C   0  0  0  0  0  0  0  0  0  0  0  0
   24.2180   16.3026   40.5987 C   0  0  0  0  0  0  0  0  0  0  0  0
   24.3162   17.3339   39.6642 C   0  0  0  0  0  0  0  0  0  0  0  0
   23.3708   17.4102   38.6095 C   0  0  0  0  0  0  0  0  0  0  0  0
   22.3466   16.4725   38.5080 C   0  0  0  0  0  0  0  0  0  0  0  0
   22.2456   15.4317   39.4544 C   0  0  0  0  0  0  0  0  0  0  0  0
   23.4813   18.5657   37.5719 C   0  0  0  0  0  0  0  0  0  0  0  0
   22.7311   18.4895   36.4009 N   0  0  0  0  0  0  0  0  0  0  0  0
   24.2136   19.5142   37.7660 O   0  0  0  0  0  0  0  0  0  0  0  0
   22.1419   17.7169   36.2419 H   0  0  0  0  0  0  0  0  0  0  0  0
   22.8178   19.5280   35.4373 C   0  0  0  0  0  0  0  0  0  0  0  0
   21.4170   20.0017   35.1013 C   0  0  0  0  0  0  0  0  0  0  0  0
   20.4020   19.3653   35.5201 O   0  0  0  0  0  0  0  0  0  0  0  0
   21.2729   21.0495   34.4017 O   0  0  0  0  0  0  0  0  0  0  0  0
   20.5145   18.5916   36.0367 H   0  0  0  0  0  0  0  0  0  0  0  0
   23.4925   18.9775   34.2053 C   0  0  0  0  0  0  0  0  0  0  0  0
   24.9859   19.3174   34.2307 C   0  0  0  0  0  0  0  0  0  0  0  0
   25.7467   18.0421   34.5596 C   0  0  0  0  0  0  0  0  0  0  0  0
   26.1992   17.3283   33.6266 O   0  0  0  0  0  0  0  0  0  0  0  0
   25.9241   17.7129   35.7668 O   0  0  0  0  0  0  0  0  0  0  0  0
   25.5834   18.2509   36.4541 H   0  0  0  0  0  0  0  0  0  0  0  0
   23.0540   14.2524   41.4687 N   0  0  0  0  0  0  0  0  0  0  0  0
   22.2543   13.6783   41.4586 H   0  0  0  0  0  0  0  0  0  0  0  0
   24.1096   14.0061   42.4645 C   0  0  0  0  0  0  0  0  0  0  0  0
   26.8961    9.3651   39.6498 N   0  0  0  0  0  0  0  0  0  0  0  0
   28.1082    9.6849   40.1545 C   0  0  0  0  0  0  0  0  0  0  0  0
   28.2953   10.7280   41.0108 N   0  0  0  0  0  0  0  0  0  0  0  0
   27.2648   11.4690   41.3781 C   0  0  0  0  0  0  0  0  0  0  0  0
   25.9979   11.1848   40.8762 C   0  0  0  0  0  0  0  0  0  0  0  0
   25.8786   10.1246   40.0277 C   0  0  0  0  0  0  0  0  0  0  0  0
   27.4488   12.5654   42.2542 N   0  0  0  0  0  0  0  0  0  0  0  0
   26.2863   12.9724   42.9161 C   0  0  0  0  0  0  0  0  0  0  0  0
   25.2904   13.2819   41.8514 C   0  0  0  0  0  0  0  0  0  0  0  0
   24.8930   12.0113   41.2763 N   0  0  0  0  0  0  0  0  0  0  0  0
   24.7712    9.8537   39.5788 O   0  0  0  0  0  0  0  0  0  0  0  0
   29.2184    8.9056   39.7833 N   0  0  0  0  0  0  0  0  0  0  0  0
   26.7755    8.6070   39.0333 H   0  0  0  0  0  0  0  0  0  0  0  0
   28.3204   13.0038   42.3862 H   0  0  0  0  0  0  0  0  0  0  0  0
   23.9526   11.7400   41.1698 H   0  0  0  0  0  0  0  0  0  0  0  0
   29.1034    8.1477   39.1656 H   0  0  0  0  0  0  0  0  0  0  0  0
   30.1107    9.1181   40.1410 H   0  0  0  0  0  0  0  0  0  0  0  0
 25 26  1  0  0  0
 25 30  1  0  0  0
 26 27  2  0  0  0
 26 36  1  0  0  0
 27 28  1  0  0  0
 28 29  2  0  0  0
 28 31  1  0  0  0
 29 30  1  0  0  0
 29 34  1  0  0  0
 30 35  2  0  0  0
 31 32  1  0  0  0
 32 33  1  0  0  0
 33 34  1  0  0  0
 33 24  1  0  0  0
 24 22  1  0  0  0
 22  1  1  0  0  0
  1  2  2  0  0  0
  1  6  1  0  0  0
  2  3  1  0  0  0
  3  4  2  0  0  0
  4  5  1  0  0  0
  4  7  1  0  0  0
  5  6  2  0  0  0
  7  8  1  0  0  0
  7  9  2  0  0  0
  8 11  1  0  0  0
 11 12  1  0  0  0
 11 16  1  0  0  0
 12 13  1  0  0  0
 12 14  2  0  0  0
 16 17  1  0  0  0
 17 18  1  0  0  0
 18 19  2  0  0  0
 18 20  1  0  0  0
 25 37  1  0  0  0
 31 38  1  0  0  0
 34 39  1  0  0  0
 22 23  1  0  0  0
  8 10  1  0  0  0
 13 15  1  0  0  0
 20 21  1  0  0  0
 36 40  1  0  0  0
 36 41  1  0  0  0
M  END
> <minimizedAffinity>
-9.29985

$$$$
4QPD_THG_A_402


 41 43  0  0  0  0  0  0  0  0999 V2000
   23.9970   15.8687   41.1133 C   0  0  0  0  0  0  0  0  0  0  0  0
   25.3203   16.3116   40.8392 C   0  0  0  0  0  0  0  0  0  0  0  0
   25.5901   17.0080   39.6606 C   0  0  0  0  0  0  0  0  0  0  0  0
   24.5365   17.2637   38.7462 C   0  0  0  0  0  0  0  0  0  0  0  0
   23.2410   16.8340   39.0210 C   0  0  0  0  0  0  0  0  0  0  0  0
   22.9676   16.1326   40.2137 C   0  0  0  0  0  0  0  0  0  0  0  0
   24.8413   18.0454   37.4347 C   0  0  0  0  0  0  0  0  0  0  0  0
   24.2054   19.2655   37.2180 N   0  0  0  0  0  0  0  0  0  0  0  0
   25.6092   17.6025   36.6054 O   0  0  0  0  0  0  0  0  0  0  0  0
   23.5784   19.6209   37.8887 H   0  0  0  0  0  0  0  0  0  0  0  0
   24.4631   19.9952   36.0281 C   0  0  0  0  0  0  0  0  0  0  0  0
   25.1690   21.2875   36.3902 C   0  0  0  0  0  0  0  0  0  0  0  0
   25.7885   21.3984   37.4922 O   0  0  0  0  0  0  0  0  0  0  0  0
   25.1391   22.2553   35.5713 O   0  0  0  0  0  0  0  0  0  0  0  0
   25.8072   20.6800   38.0935 H   0  0  0  0  0  0  0  0  0  0  0  0
   23.1446   20.2906   35.3572 C   0  0  0  0  0  0  0  0  0  0  0  0
   21.9992   20.1321   36.3620 C   0  0  0  0  0  0  0  0  0  0  0  0
   20.8346   19.4737   35.6385 C   0  0  0  0  0  0  0  0  0  0  0  0
   20.8183   19.4461   34.3801 O   0  0  0  0  0  0  0  0  0  0  0  0
   19.8961   18.9539   36.3066 O   0  0  0  0  0  0  0  0  0  0  0  0
   19.9175   18.9797   37.2430 H   0  0  0  0  0  0  0  0  0  0  0  0
   23.6951   15.1378   42.3544 N   0  0  0  0  0  0  0  0  0  0  0  0
   23.5261   15.6408   43.1837 H   0  0  0  0  0  0  0  0  0  0  0  0
   23.6416   13.6670   42.3762 C   0  0  0  0  0  0  0  0  0  0  0  0
   26.8712    9.2440   39.6869 N   0  0  0  0  0  0  0  0  0  0  0  0
   28.0536    9.7429   40.1104 C   0  0  0  0  0  0  0  0  0  0  0  0
   28.1434   10.8523   40.8963 N   0  0  0  0  0  0  0  0  0  0  0  0
   27.0439   11.4803   41.2738 C   0  0  0  0  0  0  0  0  0  0  0  0
   25.8028   11.0101   40.8538 C   0  0  0  0  0  0  0  0  0  0  0  0
   25.7827    9.8927   40.0731 C   0  0  0  0  0  0  0  0  0  0  0  0
   27.1248   12.6433   42.0766 N   0  0  0  0  0  0  0  0  0  0  0  0
   25.9498   12.9424   42.7732 C   0  0  0  0  0  0  0  0  0  0  0  0
   24.8772   13.0590   41.7451 C   0  0  0  0  0  0  0  0  0  0  0  0
   24.6201   11.7156   41.2629 N   0  0  0  0  0  0  0  0  0  0  0  0
   24.7003    9.4587   39.6972 O   0  0  0  0  0  0  0  0  0  0  0  0
   29.2368    9.0866   39.7271 N   0  0  0  0  0  0  0  0  0  0  0  0
   26.8214    8.4401   39.1207 H   0  0  0  0  0  0  0  0  0  0  0  0
   27.9383   13.1942   42.1392 H   0  0  0  0  0  0  0  0  0  0  0  0
   23.7182   11.3232   41.2200 H   0  0  0  0  0  0  0  0  0  0  0  0
   29.1924    8.2835   39.1594 H   0  0  0  0  0  0  0  0  0  0  0  0
   30.1094    9.4303   40.0264 H   0  0  0  0  0  0  0  0  0  0  0  0
 25 26  1  0  0  0
 25 30  1  0  0  0
 26 27  2  0  0  0
 26 36  1  0  0  0
 27 28  1  0  0  0
 28 29  2  0  0  0
 28 31  1  0  0  0
 29 30  1  0  0  0
 29 34  1  0  0  0
 30 35  2  0  0  0
 31 32  1  0  0  0
 32 33  1  0  0  0
 33 34  1  0  0  0
 33 24  1  0  0  0
 24 22  1  0  0  0
 22  1  1  0  0  0
  1  2  2  0  0  0
  1  6  1  0  0  0
  2  3  1  0  0  0
  3  4  2  0  0  0
  4  5  1  0  0  0
  4  7  1  0  0  0
  5  6  2  0  0  0
  7  8  1  0  0  0
  7  9  2  0  0  0
  8 11  1  0  0  0
 11 12  1  0  0  0
 11 16  1  0  0  0
 12 13  1  0  0  0
 12 14  2  0  0  0
 16 17  1  0  0  0
 17 18  1  0  0  0
 18 19  2  0  0  0
 18 20  1  0  0  0
 25 37  1  0  0  0
 31 38  1  0  0  0
 34 39  1  0  0  0
 22 23  1  0  0  0
  8 10  1  0  0  0
 13 15  1  0  0  0
 20 21  1  0  0  0
 36 40  1  0  0  0
 36 41  1  0  0  0
M  END
> <minimizedAffinity>
-9.03140

$$$$
4QPD_THG_A_402


 41 43  0  0  0  0  0  0  0  0999 V2000
   23.6116   15.9632   41.1500 C   0  0  0  0  0  0  0  0  0  0  0  0
   24.3694   17.1182   40.8122 C   0  0  0  0  0  0  0  0  0  0  0  0
   24.1222   17.7852   39.6119 C   0  0  0  0  0  0  0  0  0  0  0  0
   23.1156   17.2984   38.7393 C   0  0  0  0  0  0  0  0  0  0  0  0
   22.3715   16.1709   39.0764 C   0  0  0  0  0  0  0  0  0  0  0  0
   22.6192   15.4984   40.2910 C   0  0  0  0  0  0  0  0  0  0  0  0
   22.8400   18.0488   37.4032 C   0  0  0  0  0  0  0  0  0  0  0  0
   23.9222   18.4448   36.6209 N   0  0  0  0  0  0  0  0  0  0  0  0
   21.7067   18.2984   37.0471 O   0  0  0  0  0  0  0  0  0  0  0  0
   24.8411   18.2469   36.9136 H   0  0  0  0  0  0  0  0  0  0  0  0
   23.6972   19.1344   35.4008 C   0  0  0  0  0  0  0  0  0  0  0  0
   24.1229   18.2434   34.2499 C   0  0  0  0  0  0  0  0  0  0  0  0
   25.3519   18.0850   33.9761 O   0  0  0  0  0  0  0  0  0  0  0  0
   23.2326   17.6508   33.5686 O   0  0  0  0  0  0  0  0  0  0  0  0
   26.0054   18.5254   34.4829 H   0  0  0  0  0  0  0  0  0  0  0  0
   24.5179   20.4002   35.4125 C   0  0  0  0  0  0  0  0  0  0  0  0
   23.6410   21.5884   35.8199 C   0  0  0  0  0  0  0  0  0  0  0  0
   24.0658   22.0224   37.2143 C   0  0  0  0  0  0  0  0  0  0  0  0
   24.0497   21.1895   38.1580 O   0  0  0  0  0  0  0  0  0  0  0  0
   24.4378   23.2139   37.4127 O   0  0  0  0  0  0  0  0  0  0  0  0
   24.4463   23.8263   36.7036 H   0  0  0  0  0  0  0  0  0  0  0  0
   23.8564   15.2517   42.4147 N   0  0  0  0  0  0  0  0  0  0  0  0
   24.0636   15.7668   43.2278 H   0  0  0  0  0  0  0  0  0  0  0  0
   23.7965   13.7826   42.4840 C   0  0  0  0  0  0  0  0  0  0  0  0
   26.8968    9.3523   39.6580 N   0  0  0  0  0  0  0  0  0  0  0  0
   28.0876    9.7711   40.1406 C   0  0  0  0  0  0  0  0  0  0  0  0
   28.2050   10.8331   40.9861 N   0  0  0  0  0  0  0  0  0  0  0  0
   27.1250   11.4934   41.3648 C   0  0  0  0  0  0  0  0  0  0  0  0
   25.8768   11.1058   40.8857 C   0  0  0  0  0  0  0  0  0  0  0  0
   25.8284   10.0322   40.0469 C   0  0  0  0  0  0  0  0  0  0  0  0
   27.2355   12.6084   42.2298 N   0  0  0  0  0  0  0  0  0  0  0  0
   26.0549   12.9279   42.9075 C   0  0  0  0  0  0  0  0  0  0  0  0
   25.0211   13.1487   41.8570 C   0  0  0  0  0  0  0  0  0  0  0  0
   24.7164   11.8458   41.2977 N   0  0  0  0  0  0  0  0  0  0  0  0
   24.7390    9.6709   39.6181 O   0  0  0  0  0  0  0  0  0  0  0  0
   29.2500    9.0788   39.7569 N   0  0  0  0  0  0  0  0  0  0  0  0
   26.8269    8.5818   39.0491 H   0  0  0  0  0  0  0  0  0  0  0  0
   28.0716   13.1153   42.3443 H   0  0  0  0  0  0  0  0  0  0  0  0
   23.7988   11.5002   41.2086 H   0  0  0  0  0  0  0  0  0  0  0  0
   29.1856    8.3089   39.1467 H   0  0  0  0  0  0  0  0  0  0  0  0
   30.1282    9.3641   40.0985 H   0  0  0  0  0  0  0  0  0  0  0  0
 25 26  1  0  0  0
 25 30  1  0  0  0
 26 27  2  0  0  0
 26 36  1  0  0  0
 27 28  1  0  0  0
 28 29  2  0  0  0
 28 31  1  0  0  0
 29 30  1  0  0  0
 29 34  1  0  0  0
 30 35  2  0  0  0
 31 32  1  0  0  0
 32 33  1  0  0  0
 33 34  1  0  0  0
 33 24  1  0  0  0
 24 22  1  0  0  0
 22  1  1  0  0  0
  1  2  2  0  0  0
  1  6  1  0  0  0
  2  3  1  0  0  0
  3  4  2  0  0  0
  4  5  1  0  0  0
  4  7  1  0  0  0
  5  6  2  0  0  0
  7  8  1  0  0  0
  7  9  2  0  0  0
  8 11  1  0  0  0
 11 12  1  0  0  0
 11 16  1  0  0  0
 12 13  1  0  0  0
 12 14  2  0  0  0
 16 17  1  0  0  0
 17 18  1  0  0  0
 18 19  2  0  0  0
 18 20  1  0  0  0
 25 37  1  0  0  0
 31 38  1  0  0  0
 34 39  1  0  0  0
 22 23  1  0  0  0
  8 10  1  0  0  0
 13 15  1  0  0  0
 20 21  1  0  0  0
 36 40  1  0  0  0
 36 41  1  0  0  0
M  END
> <minimizedAffinity>
-8.90994

$$$$
4QPD_THG_A_402


 41 43  0  0  0  0  0  0  0  0999 V2000
   22.9666   16.4861   42.1183 C   0  0  0  0  0  0  0  0  0  0  0  0
   23.6303   17.7259   41.9065 C   0  0  0  0  0  0  0  0  0  0  0  0
   23.2074   18.8664   42.5899 C   0  0  0  0  0  0  0  0  0  0  0  0
   22.1141   18.7743   43.4888 C   0  0  0  0  0  0  0  0  0  0  0  0
   21.4708   17.5574   43.6983 C   0  0  0  0  0  0  0  0  0  0  0  0
   21.9002   16.4038   43.0098 C   0  0  0  0  0  0  0  0  0  0  0  0
   21.6488   20.0486   44.2528 C   0  0  0  0  0  0  0  0  0  0  0  0
   21.2587   21.1658   43.5183 N   0  0  0  0  0  0  0  0  0  0  0  0
   21.6336   20.0810   45.4661 O   0  0  0  0  0  0  0  0  0  0  0  0
   21.2770   21.1403   42.5343 H   0  0  0  0  0  0  0  0  0  0  0  0
   20.8347   22.3412   44.1916 C   0  0  0  0  0  0  0  0  0  0  0  0
   19.3218   22.4228   44.1275 C   0  0  0  0  0  0  0  0  0  0  0  0
   18.7286   22.5540   43.0133 O   0  0  0  0  0  0  0  0  0  0  0  0
   18.6555   22.3493   45.2039 O   0  0  0  0  0  0  0  0  0  0  0  0
   19.2261   22.6077   42.2212 H   0  0  0  0  0  0  0  0  0  0  0  0
   21.4515   23.5325   43.5014 C   0  0  0  0  0  0  0  0  0  0  0  0
   20.7810   24.8222   43.9847 C   0  0  0  0  0  0  0  0  0  0  0  0
   20.4168   25.6441   42.7578 C   0  0  0  0  0  0  0  0  0  0  0  0
   21.1446   26.6138   42.4190 O   0  0  0  0  0  0  0  0  0  0  0  0
   19.3904   25.3428   42.0848 O   0  0  0  0  0  0  0  0  0  0  0  0
   18.8552   24.6191   42.3452 H   0  0  0  0  0  0  0  0  0  0  0  0
   23.4041   15.2730   41.4094 N   0  0  0  0  0  0  0  0  0  0  0  0
   23.4966   15.2916   40.4295 H   0  0  0  0  0  0  0  0  0  0  0  0
   23.7056   14.0321   42.1417 C   0  0  0  0  0  0  0  0  0  0  0  0
   26.7768    9.3312   39.7553 N   0  0  0  0  0  0  0  0  0  0  0  0
   27.9723    9.7952   40.1817 C   0  0  0  0  0  0  0  0  0  0  0  0
   28.0982   10.9378   40.9131 N   0  0  0  0  0  0  0  0  0  0  0  0
   27.0222   11.6351   41.2321 C   0  0  0  0  0  0  0  0  0  0  0  0
   25.7693   11.2027   40.8064 C   0  0  0  0  0  0  0  0  0  0  0  0
   25.7125   10.0491   40.0823 C   0  0  0  0  0  0  0  0  0  0  0  0
   27.1413   12.8325   41.9776 N   0  0  0  0  0  0  0  0  0  0  0  0
   25.9673   13.2215   42.6298 C   0  0  0  0  0  0  0  0  0  0  0  0
   24.9240   13.3355   41.5716 C   0  0  0  0  0  0  0  0  0  0  0  0
   24.6133   11.9827   41.1512 N   0  0  0  0  0  0  0  0  0  0  0  0
   24.6190    9.6476   39.7026 O   0  0  0  0  0  0  0  0  0  0  0  0
   29.1307    9.0655   39.8602 N   0  0  0  0  0  0  0  0  0  0  0  0
   26.7008    8.5027   39.2290 H   0  0  0  0  0  0  0  0  0  0  0  0
   27.9788   13.3472   42.0321 H   0  0  0  0  0  0  0  0  0  0  0  0
   23.6947   11.6314   41.1062 H   0  0  0  0  0  0  0  0  0  0  0  0
   29.0601    8.2373   39.3325 H   0  0  0  0  0  0  0  0  0  0  0  0
   30.0121    9.3827   40.1629 H   0  0  0  0  0  0  0  0  0  0  0  0
 25 26  1  0  0  0
 25 30  1  0  0  0
 26 27  2  0  0  0
 26 36  1  0  0  0
 27 28  1  0  0  0
 28 29  2  0  0  0
 28 31  1  0  0  0
 29 30  1  0  0  0
 29 34  1  0  0  0
 30 35  2  0  0  0
 31 32  1  0  0  0
 32 33  1  0  0  0
 33 34  1  0  0  0
 33 24  1  0  0  0
 24 22  1  0  0  0
 22  1  1  0  0  0
  1  2  2  0  0  0
  1  6  1  0  0  0
  2  3  1  0  0  0
  3  4  2  0  0  0
  4  5  1  0  0  0
  4  7  1  0  0  0
  5  6  2  0  0  0
  7  8  1  0  0  0
  7  9  2  0  0  0
  8 11  1  0  0  0
 11 12  1  0  0  0
 11 16  1  0  0  0
 12 13  1  0  0  0
 12 14  2  0  0  0
 16 17  1  0  0  0
 17 18  1  0  0  0
 18 19  2  0  0  0
 18 20  1  0  0  0
 25 37  1  0  0  0
 31 38  1  0  0  0
 34 39  1  0  0  0
 22 23  1  0  0  0
  8 10  1  0  0  0
 13 15  1  0  0  0
 20 21  1  0  0  0
 36 40  1  0  0  0
 36 41  1  0  0  0
M  END
> <minimizedAffinity>
-8.76346

$$$$
4QPD_THG_A_402


 41 43  0  0  0  0  0  0  0  0999 V2000
   23.6283   15.9669   41.1202 C   0  0  0  0  0  0  0  0  0  0  0  0
   24.3689   17.1131   40.7202 C   0  0  0  0  0  0  0  0  0  0  0  0
   24.0650   17.7523   39.5178 C   0  0  0  0  0  0  0  0  0  0  0  0
   23.0183   17.2463   38.7054 C   0  0  0  0  0  0  0  0  0  0  0  0
   22.2912   16.1276   39.1034 C   0  0  0  0  0  0  0  0  0  0  0  0
   22.5964   15.4832   40.3202 C   0  0  0  0  0  0  0  0  0  0  0  0
   22.6794   17.9659   37.3669 C   0  0  0  0  0  0  0  0  0  0  0  0
   23.7154   18.2645   36.4851 N   0  0  0  0  0  0  0  0  0  0  0  0
   21.5379   18.2748   37.0932 O   0  0  0  0  0  0  0  0  0  0  0  0
   24.6416   18.0186   36.7108 H   0  0  0  0  0  0  0  0  0  0  0  0
   23.4329   18.9240   35.2605 C   0  0  0  0  0  0  0  0  0  0  0  0
   24.1110   18.1716   34.1319 C   0  0  0  0  0  0  0  0  0  0  0  0
   23.4231   17.5592   33.2588 O   0  0  0  0  0  0  0  0  0  0  0  0
   25.3774   18.1698   34.0673 O   0  0  0  0  0  0  0  0  0  0  0  0
   22.4876   17.5640   33.3116 H   0  0  0  0  0  0  0  0  0  0  0  0
   23.9680   20.3320   35.3450 C   0  0  0  0  0  0  0  0  0  0  0  0
   23.1543   21.2565   34.4340 C   0  0  0  0  0  0  0  0  0  0  0  0
   21.8038   20.5997   34.1931 C   0  0  0  0  0  0  0  0  0  0  0  0
   20.9282   20.6258   35.0970 O   0  0  0  0  0  0  0  0  0  0  0  0
   21.5694   20.0389   33.0850 O   0  0  0  0  0  0  0  0  0  0  0  0
   22.2279   20.0248   32.4185 H   0  0  0  0  0  0  0  0  0  0  0  0
   23.9329   15.2847   42.3880 N   0  0  0  0  0  0  0  0  0  0  0  0
   24.1849   15.8178   43.1764 H   0  0  0  0  0  0  0  0  0  0  0  0
   23.8670   13.8182   42.4967 C   0  0  0  0  0  0  0  0  0  0  0  0
   26.8692    9.3379   39.6436 N   0  0  0  0  0  0  0  0  0  0  0  0
   28.0691    9.7285   40.1272 C   0  0  0  0  0  0  0  0  0  0  0  0
   28.2100   10.7831   40.9783 N   0  0  0  0  0  0  0  0  0  0  0  0
   27.1447   11.4643   41.3617 C   0  0  0  0  0  0  0  0  0  0  0  0
   25.8881   11.1062   40.8818 C   0  0  0  0  0  0  0  0  0  0  0  0
   25.8160   10.0385   40.0373 C   0  0  0  0  0  0  0  0  0  0  0  0
   27.2799   12.5720   42.2326 N   0  0  0  0  0  0  0  0  0  0  0  0
   26.1070   12.9130   42.9133 C   0  0  0  0  0  0  0  0  0  0  0  0
   25.0772   13.1617   41.8651 C   0  0  0  0  0  0  0  0  0  0  0  0
   24.7442   11.8686   41.2990 N   0  0  0  0  0  0  0  0  0  0  0  0
   24.7187    9.7030   39.6077 O   0  0  0  0  0  0  0  0  0  0  0  0
   29.2161    9.0136   39.7386 N   0  0  0  0  0  0  0  0  0  0  0  0
   26.7822    8.5725   39.0306 H   0  0  0  0  0  0  0  0  0  0  0  0
   28.1268   13.0603   42.3490 H   0  0  0  0  0  0  0  0  0  0  0  0
   23.8194   11.5433   41.2090 H   0  0  0  0  0  0  0  0  0  0  0  0
   29.1346    8.2486   39.1243 H   0  0  0  0  0  0  0  0  0  0  0  0
   30.1005    9.2781   40.0808 H   0  0  0  0  0  0  0  0  0  0  0  0
 25 26  1  0  0  0
 25 30  1  0  0  0
 26 27  2  0  0  0
 26 36  1  0  0  0
 27 28  1  0  0  0
 28 29  2  0  0  0
 28 31  1  0  0  0
 29 30  1  0  0  0
 29 34  1  0  0  0
 30 35  2  0  0  0
 31 32  1  0  0  0
 32 33  1  0  0  0
 33 34  1  0  0  0
 33 24  1  0  0  0
 24 22  1  0  0  0
 22  1  1  0  0  0
  1  2  2  0  0  0
  1  6  1  0  0  0
  2  3  1  0  0  0
  3  4  2  0  0  0
  4  5  1  0  0  0
  4  7  1  0  0  0
  5  6  2  0  0  0
  7  8  1  0  0  0
  7  9  2  0  0  0
  8 11  1  0  0  0
 11 12  1  0  0  0
 11 16  1  0  0  0
 12 13  1  0  0  0
 12 14  2  0  0  0
 16 17  1  0  0  0
 17 18  1  0  0  0
 18 19  2  0  0  0
 18 20  1  0  0  0
 25 37  1  0  0  0
 31 38  1  0  0  0
 34 39  1  0  0  0
 22 23  1  0  0  0
  8 10  1  0  0  0
 13 15  1  0  0  0
 20 21  1  0  0  0
 36 40  1  0  0  0
 36 41  1  0  0  0
M  END
> <minimizedAffinity>
-8.60933

$$$$
4QPD_THG_A_402


 41 43  0  0  0  0  0  0  0  0999 V2000
   23.2127   15.3557   40.4363 C   0  0  0  0  0  0  0  0  0  0  0  0
   22.2520   15.6285   39.4238 C   0  0  0  0  0  0  0  0  0  0  0  0
   22.4988   16.6285   38.4826 C   0  0  0  0  0  0  0  0  0  0  0  0
   23.7091   17.3649   38.5501 C   0  0  0  0  0  0  0  0  0  0  0  0
   24.6501   17.0906   39.5390 C   0  0  0  0  0  0  0  0  0  0  0  0
   24.4020   16.0779   40.4887 C   0  0  0  0  0  0  0  0  0  0  0  0
   23.9824   18.4764   37.4947 C   0  0  0  0  0  0  0  0  0  0  0  0
   24.5196   18.1131   36.2621 N   0  0  0  0  0  0  0  0  0  0  0  0
   23.7454   19.6420   37.7367 O   0  0  0  0  0  0  0  0  0  0  0  0
   24.7168   17.1681   36.0691 H   0  0  0  0  0  0  0  0  0  0  0  0
   24.7820   19.1085   35.2847 C   0  0  0  0  0  0  0  0  0  0  0  0
   23.5838   19.2153   34.3615 C   0  0  0  0  0  0  0  0  0  0  0  0
   23.0679   18.1748   33.8497 O   0  0  0  0  0  0  0  0  0  0  0  0
   23.0978   20.3601   34.1139 O   0  0  0  0  0  0  0  0  0  0  0  0
   23.4312   17.3315   34.0361 H   0  0  0  0  0  0  0  0  0  0  0  0
   26.0067   18.6976   34.5055 C   0  0  0  0  0  0  0  0  0  0  0  0
   26.8548   17.7294   35.3361 C   0  0  0  0  0  0  0  0  0  0  0  0
   27.0865   16.4803   34.4999 C   0  0  0  0  0  0  0  0  0  0  0  0
   26.5045   16.3563   33.3906 O   0  0  0  0  0  0  0  0  0  0  0  0
   27.8665   15.5801   34.9224 O   0  0  0  0  0  0  0  0  0  0  0  0
   28.2949   15.6818   35.7495 H   0  0  0  0  0  0  0  0  0  0  0  0
   22.9697   14.3007   41.4330 N   0  0  0  0  0  0  0  0  0  0  0  0
   22.1211   13.8019   41.4130 H   0  0  0  0  0  0  0  0  0  0  0  0
   23.9746   13.9789   42.4593 C   0  0  0  0  0  0  0  0  0  0  0  0
   26.8962    9.4130   39.6588 N   0  0  0  0  0  0  0  0  0  0  0  0
   28.0953    9.7584   40.1778 C   0  0  0  0  0  0  0  0  0  0  0  0
   28.2493   10.8023   41.0397 N   0  0  0  0  0  0  0  0  0  0  0  0
   27.1983   11.5182   41.3984 C   0  0  0  0  0  0  0  0  0  0  0  0
   25.9436   11.2073   40.8817 C   0  0  0  0  0  0  0  0  0  0  0  0
   25.8576   10.1478   40.0282 C   0  0  0  0  0  0  0  0  0  0  0  0
   27.3479   12.6153   42.2803 N   0  0  0  0  0  0  0  0  0  0  0  0
   26.1692   12.9933   42.9309 C   0  0  0  0  0  0  0  0  0  0  0  0
   25.1782   13.2841   41.8565 C   0  0  0  0  0  0  0  0  0  0  0  0
   24.8159   12.0069   41.2727 N   0  0  0  0  0  0  0  0  0  0  0  0
   24.7616    9.8535   39.5664 O   0  0  0  0  0  0  0  0  0  0  0  0
   29.2268    9.0060   39.8159 N   0  0  0  0  0  0  0  0  0  0  0  0
   26.7995    8.6547   39.0384 H   0  0  0  0  0  0  0  0  0  0  0  0
   28.2078   13.0729   42.4233 H   0  0  0  0  0  0  0  0  0  0  0  0
   23.8832   11.7148   41.1551 H   0  0  0  0  0  0  0  0  0  0  0  0
   29.1358    8.2479   39.1943 H   0  0  0  0  0  0  0  0  0  0  0  0
   30.1101    9.2373   40.1841 H   0  0  0  0  0  0  0  0  0  0  0  0
 25 26  1  0  0  0
 25 30  1  0  0  0
 26 27  2  0  0  0
 26 36  1  0  0  0
 27 28  1  0  0  0
 28 29  2  0  0  0
 28 31  1  0  0  0
 29 30  1  0  0  0
 29 34  1  0  0  0
 30 35  2  0  0  0
 31 32  1  0  0  0
 32 33  1  0  0  0
 33 34  1  0  0  0
 33 24  1  0  0  0
 24 22  1  0  0  0
 22  1  1  0  0  0
  1  2  2  0  0  0
  1  6  1  0  0  0
  2  3  1  0  0  0
  3  4  2  0  0  0
  4  5  1  0  0  0
  4  7  1  0  0  0
  5  6  2  0  0  0
  7  8  1  0  0  0
  7  9  2  0  0  0
  8 11  1  0  0  0
 11 12  1  0  0  0
 11 16  1  0  0  0
 12 13  1  0  0  0
 12 14  2  0  0  0
 16 17  1  0  0  0
 17 18  1  0  0  0
 18 19  2  0  0  0
 18 20  1  0  0  0
 25 37  1  0  0  0
 31 38  1  0  0  0
 34 39  1  0  0  0
 22 23  1  0  0  0
  8 10  1  0  0  0
 13 15  1  0  0  0
 20 21  1  0  0  0
 36 40  1  0  0  0
 36 41  1  0  0  0
M  END
> <minimizedAffinity>
-8.34846

$$$$
4QPD_THG_A_402


 41 43  0  0  0  0  0  0  0  0999 V2000
   24.7621   17.1407   38.5386 C   0  0  0  0  0  0  0  0  0  0  0  0
   25.7854   16.6642   39.4035 C   0  0  0  0  0  0  0  0  0  0  0  0
   25.4469   15.9548   40.5563 C   0  0  0  0  0  0  0  0  0  0  0  0
   24.0799   15.7197   40.8528 C   0  0  0  0  0  0  0  0  0  0  0  0
   23.0811   16.1823   40.0003 C   0  0  0  0  0  0  0  0  0  0  0  0
   23.4233   16.8968   38.8335 C   0  0  0  0  0  0  0  0  0  0  0  0
   23.7070   14.9233   42.1377 C   0  0  0  0  0  0  0  0  0  0  0  0
   22.6713   15.3939   42.9414 N   0  0  0  0  0  0  0  0  0  0  0  0
   24.3095   13.9160   42.4474 O   0  0  0  0  0  0  0  0  0  0  0  0
   22.1873   16.2141   42.6922 H   0  0  0  0  0  0  0  0  0  0  0  0
   22.3153   14.6882   44.1203 C   0  0  0  0  0  0  0  0  0  0  0  0
   21.1579   13.7607   43.8045 C   0  0  0  0  0  0  0  0  0  0  0  0
   19.9842   14.0337   44.2028 O   0  0  0  0  0  0  0  0  0  0  0  0
   21.3775   12.7108   43.1282 O   0  0  0  0  0  0  0  0  0  0  0  0
   19.8279   14.8110   44.7021 H   0  0  0  0  0  0  0  0  0  0  0  0
   21.9085   15.6923   45.1702 C   0  0  0  0  0  0  0  0  0  0  0  0
   21.9878   17.1104   44.5963 C   0  0  0  0  0  0  0  0  0  0  0  0
   20.5719   17.6605   44.5208 C   0  0  0  0  0  0  0  0  0  0  0  0
   19.5969   16.8661   44.4651 O   0  0  0  0  0  0  0  0  0  0  0  0
   20.3853   18.9105   44.5212 O   0  0  0  0  0  0  0  0  0  0  0  0
   21.1177   19.4935   44.5629 H   0  0  0  0  0  0  0  0  0  0  0  0
   25.1030   17.8857   37.3161 N   0  0  0  0  0  0  0  0  0  0  0  0
   24.5834   18.6869   37.0766 H   0  0  0  0  0  0  0  0  0  0  0  0
   26.2082   17.4526   36.4457 C   0  0  0  0  0  0  0  0  0  0  0  0
   31.5823   19.6166   38.3594 N   0  0  0  0  0  0  0  0  0  0  0  0
   31.2740   20.8908   38.0313 C   0  0  0  0  0  0  0  0  0  0  0  0
   30.0662   21.2428   37.5081 N   0  0  0  0  0  0  0  0  0  0  0  0
   29.1433   20.3189   37.3070 C   0  0  0  0  0  0  0  0  0  0  0  0
   29.4182   18.9905   37.6196 C   0  0  0  0  0  0  0  0  0  0  0  0
   30.6439   18.7065   38.1444 C   0  0  0  0  0  0  0  0  0  0  0  0
   27.8906   20.6694   36.7488 N   0  0  0  0  0  0  0  0  0  0  0  0
   26.8713   19.7463   37.0020 C   0  0  0  0  0  0  0  0  0  0  0  0
   27.3580   18.4382   36.4796 C   0  0  0  0  0  0  0  0  0  0  0  0
   28.4068   17.9989   37.3798 N   0  0  0  0  0  0  0  0  0  0  0  0
   30.9043   17.5443   38.4319 O   0  0  0  0  0  0  0  0  0  0  0  0
   32.2382   21.8922   38.2435 N   0  0  0  0  0  0  0  0  0  0  0  0
   32.4587   19.3771   38.7386 H   0  0  0  0  0  0  0  0  0  0  0  0
   27.7492   21.4923   36.2272 H   0  0  0  0  0  0  0  0  0  0  0  0
   28.4240   17.1036   37.7889 H   0  0  0  0  0  0  0  0  0  0  0  0
   33.1168   21.6576   38.6207 H   0  0  0  0  0  0  0  0  0  0  0  0
   32.0347   22.8279   38.0149 H   0  0  0  0  0  0  0  0  0  0  0  0
 25 26  1  0  0  0
 25 30  1  0  0  0
 26 27  2  0  0  0
 26 36  1  0  0  0
 27 28  1  0  0  0
 28 29  2  0  0  0
 28 31  1  0  0  0
 29 30  1  0  0  0
 29 34  1  0  0  0
 30 35  2  0  0  0
 31 32  1  0  0  0
 32 33  1  0  0  0
 33 34  1  0  0  0
 33 24  1  0  0  0
 24 22  1  0  0  0
 22  1  1  0  0  0
  1  2  2  0  0  0
  1  6  1  0  0  0
  2  3  1  0  0  0
  3  4  2  0  0  0
  4  5  1  0  0  0
  4  7  1  0  0  0
  5  6  2  0  0  0
  7  8  1  0  0  0
  7  9  2  0  0  0
  8 11  1  0  0  0
 11 12  1  0  0  0
 11 16  1  0  0  0
 12 13  1  0  0  0
 12 14  2  0  0  0
 16 17  1  0  0  0
 17 18  1  0  0  0
 18 19  2  0  0  0
 18 20  1  0  0  0
 25 37  1  0  0  0
 31 38  1  0  0  0
 34 39  1  0  0  0
 22 23  1  0  0  0
  8 10  1  0  0  0
 13 15  1  0  0  0
 20 21  1  0  0  0
 36 40  1  0  0  0
 36 41  1  0  0  0
M  END
> <minimizedAffinity>
-7.89818

$$$$
4QPD_THG_A_402


 41 43  0  0  0  0  0  0  0  0999 V2000
   20.4915   18.0380   44.4852 C   0  0  0  0  0  0  0  0  0  0  0  0
   21.8462   18.0500   44.0527 C   0  0  0  0  0  0  0  0  0  0  0  0
   22.4644   16.8590   43.6703 C   0  0  0  0  0  0  0  0  0  0  0  0
   21.7307   15.6462   43.7211 C   0  0  0  0  0  0  0  0  0  0  0  0
   20.4027   15.6394   44.1391 C   0  0  0  0  0  0  0  0  0  0  0  0
   19.7768   16.8437   44.5228 C   0  0  0  0  0  0  0  0  0  0  0  0
   22.4232   14.3204   43.2888 C   0  0  0  0  0  0  0  0  0  0  0  0
   23.8035   14.3144   43.1031 N   0  0  0  0  0  0  0  0  0  0  0  0
   21.7788   13.3084   43.1038 O   0  0  0  0  0  0  0  0  0  0  0  0
   24.3244   15.1372   43.2479 H   0  0  0  0  0  0  0  0  0  0  0  0
   24.4577   13.1194   42.7048 C   0  0  0  0  0  0  0  0  0  0  0  0
   25.6850   12.9208   43.5731 C   0  0  0  0  0  0  0  0  0  0  0  0
   26.8489   12.9910   43.0722 O   0  0  0  0  0  0  0  0  0  0  0  0
   25.5324   12.6917   44.8109 O   0  0  0  0  0  0  0  0  0  0  0  0
   26.9555   13.1605   42.1568 H   0  0  0  0  0  0  0  0  0  0  0  0
   24.8591   13.2576   41.2571 C   0  0  0  0  0  0  0  0  0  0  0  0
   24.6573   11.9252   40.5288 C   0  0  0  0  0  0  0  0  0  0  0  0
   26.0244   11.4254   40.0877 C   0  0  0  0  0  0  0  0  0  0  0  0
   27.0545   12.0853   40.3845 O   0  0  0  0  0  0  0  0  0  0  0  0
   26.1156   10.3484   39.4327 O   0  0  0  0  0  0  0  0  0  0  0  0
   25.3428    9.8645   39.2168 H   0  0  0  0  0  0  0  0  0  0  0  0
   19.8236   19.2864   44.8865 N   0  0  0  0  0  0  0  0  0  0  0  0
   18.8400   19.3289   44.8930 H   0  0  0  0  0  0  0  0  0  0  0  0
   20.6021   20.4727   45.2783 C   0  0  0  0  0  0  0  0  0  0  0  0
   21.5924   26.0526   43.0178 N   0  0  0  0  0  0  0  0  0  0  0  0
   20.4116   26.0809   42.3612 C   0  0  0  0  0  0  0  0  0  0  0  0
   19.5107   25.0608   42.4258 N   0  0  0  0  0  0  0  0  0  0  0  0
   19.7797   23.9924   43.1551 C   0  0  0  0  0  0  0  0  0  0  0  0
   20.9883   23.9127   43.8412 C   0  0  0  0  0  0  0  0  0  0  0  0
   21.8431   24.9696   43.7383 C   0  0  0  0  0  0  0  0  0  0  0  0
   18.8591   22.9189   43.2171 N   0  0  0  0  0  0  0  0  0  0  0  0
   19.0205   22.0884   44.3304 C   0  0  0  0  0  0  0  0  0  0  0  0
   20.4284   21.6018   44.2835 C   0  0  0  0  0  0  0  0  0  0  0  0
   21.2682   22.7362   44.6167 N   0  0  0  0  0  0  0  0  0  0  0  0
   22.9100   24.9222   44.3390 O   0  0  0  0  0  0  0  0  0  0  0  0
   20.1005   27.2114   41.5847 N   0  0  0  0  0  0  0  0  0  0  0  0
   22.2331   26.7981   42.9635 H   0  0  0  0  0  0  0  0  0  0  0  0
   18.1650   22.7699   42.5351 H   0  0  0  0  0  0  0  0  0  0  0  0
   21.9659   22.7031   45.3105 H   0  0  0  0  0  0  0  0  0  0  0  0
   20.7387   27.9587   41.5256 H   0  0  0  0  0  0  0  0  0  0  0  0
   19.2446   27.2554   41.1002 H   0  0  0  0  0  0  0  0  0  0  0  0
 25 26  1  0  0  0
 25 30  1  0  0  0
 26 27  2  0  0  0
 26 36  1  0  0  0
 27 28  1  0  0  0
 28 29  2  0  0  0
 28 31  1  0  0  0
 29 30  1  0  0  0
 29 34  1  0  0  0
 30 35  2  0  0  0
 31 32  1  0  0  0
 32 33  1  0  0  0
 33 34  1  0  0  0
 33 24  1  0  0  0
 24 22  1  0  0  0
 22  1  1  0  0  0
  1  2  2  0  0  0
  1  6  1  0  0  0
  2  3  1  0  0  0
  3  4  2  0  0  0
  4  5  1  0  0  0
  4  7  1  0  0  0
  5  6  2  0  0  0
  7  8  1  0  0  0
  7  9  2  0  0  0
  8 11  1  0  0  0
 11 12  1  0  0  0
 11 16  1  0  0  0
 12 13  1  0  0  0
 12 14  2  0  0  0
 16 17  1  0  0  0
 17 18  1  0  0  0
 18 19  2  0  0  0
 18 20  1  0  0  0
 25 37  1  0  0  0
 31 38  1  0  0  0
 34 39  1  0  0  0
 22 23  1  0  0  0
  8 10  1  0  0  0
 13 15  1  0  0  0
 20 21  1  0  0  0
 36 40  1  0  0  0
 36 41  1  0  0  0
M  END
> <minimizedAffinity>
-7.84365

$$$$
4QPD_THG_A_402


 41 43  0  0  0  0  0  0  0  0999 V2000
   21.8078   16.8009   43.2581 C   0  0  0  0  0  0  0  0  0  0  0  0
   22.7217   16.7330   42.1706 C   0  0  0  0  0  0  0  0  0  0  0  0
   23.3905   15.5392   41.8981 C   0  0  0  0  0  0  0  0  0  0  0  0
   23.1509   14.4047   42.7150 C   0  0  0  0  0  0  0  0  0  0  0  0
   22.2507   14.4733   43.7749 C   0  0  0  0  0  0  0  0  0  0  0  0
   21.5724   15.6791   44.0486 C   0  0  0  0  0  0  0  0  0  0  0  0
   23.8958   13.0733   42.4041 C   0  0  0  0  0  0  0  0  0  0  0  0
   25.2134   13.1309   41.9564 N   0  0  0  0  0  0  0  0  0  0  0  0
   23.3431   12.0007   42.5358 O   0  0  0  0  0  0  0  0  0  0  0  0
   25.6588   14.0017   41.8444 H   0  0  0  0  0  0  0  0  0  0  0  0
   25.9127   11.9313   41.6619 C   0  0  0  0  0  0  0  0  0  0  0  0
   27.3515   12.0795   42.1173 C   0  0  0  0  0  0  0  0  0  0  0  0
   27.6436   12.8231   43.1033 O   0  0  0  0  0  0  0  0  0  0  0  0
   28.2599   11.4422   41.5035 O   0  0  0  0  0  0  0  0  0  0  0  0
   26.9682   13.2916   43.5531 H   0  0  0  0  0  0  0  0  0  0  0  0
   25.8575   11.7031   40.1717 C   0  0  0  0  0  0  0  0  0  0  0  0
   24.9764   10.4892   39.8606 C   0  0  0  0  0  0  0  0  0  0  0  0
   25.8679    9.2570   39.8575 C   0  0  0  0  0  0  0  0  0  0  0  0
   25.3677    8.1254   40.0898 O   0  0  0  0  0  0  0  0  0  0  0  0
   27.1024    9.3783   39.6152 O   0  0  0  0  0  0  0  0  0  0  0  0
   27.4651   10.2250   39.4436 H   0  0  0  0  0  0  0  0  0  0  0  0
   21.0904   18.0510   43.5551 N   0  0  0  0  0  0  0  0  0  0  0  0
   20.5157   18.4551   42.8655 H   0  0  0  0  0  0  0  0  0  0  0  0
   21.2181   18.7071   44.8666 C   0  0  0  0  0  0  0  0  0  0  0  0
   20.0516   24.5312   43.4721 N   0  0  0  0  0  0  0  0  0  0  0  0
   21.3523   24.8180   43.2429 C   0  0  0  0  0  0  0  0  0  0  0  0
   22.3382   23.8823   43.3366 N   0  0  0  0  0  0  0  0  0  0  0  0
   22.0340   22.6381   43.6607 C   0  0  0  0  0  0  0  0  0  0  0  0
   20.7089   22.2968   43.9166 C   0  0  0  0  0  0  0  0  0  0  0  0
   19.7707   23.2790   43.8006 C   0  0  0  0  0  0  0  0  0  0  0  0
   23.0512   21.6607   43.7774 N   0  0  0  0  0  0  0  0  0  0  0  0
   22.5960   20.3430   43.6685 C   0  0  0  0  0  0  0  0  0  0  0  0
   21.5526   20.1772   44.7196 C   0  0  0  0  0  0  0  0  0  0  0  0
   20.4007   20.9420   44.2818 N   0  0  0  0  0  0  0  0  0  0  0  0
   18.5976   22.9985   44.0159 O   0  0  0  0  0  0  0  0  0  0  0  0
   21.6987   26.1343   42.8893 N   0  0  0  0  0  0  0  0  0  0  0  0
   19.3494   25.2173   43.3987 H   0  0  0  0  0  0  0  0  0  0  0  0
   23.9978   21.8889   43.9227 H   0  0  0  0  0  0  0  0  0  0  0  0
   19.4913   20.5672   44.2389 H   0  0  0  0  0  0  0  0  0  0  0  0
   21.0004   26.8244   42.8164 H   0  0  0  0  0  0  0  0  0  0  0  0
   22.6396   26.3656   42.7146 H   0  0  0  0  0  0  0  0  0  0  0  0
 25 26  1  0  0  0
 25 30  1  0  0  0
 26 27  2  0  0  0
 26 36  1  0  0  0
 27 28  1  0  0  0
 28 29  2  0  0  0
 28 31  1  0  0  0
 29 30  1  0  0  0
 29 34  1  0  0  0
 30 35  2  0  0  0
 31 32  1  0  0  0
 32 33  1  0  0  0
 33 34  1  0  0  0
 33 24  1  0  0  0
 24 22  1  0  0  0
 22  1  1  0  0  0
  1  2  2  0  0  0
  1  6  1  0  0  0
  2  3  1  0  0  0
  3  4  2  0  0  0
  4  5  1  0  0  0
  4  7  1  0  0  0
  5  6  2  0  0  0
  7  8  1  0  0  0
  7  9  2  0  0  0
  8 11  1  0  0  0
 11 12  1  0  0  0
 11 16  1  0  0  0
 12 13  1  0  0  0
 12 14  2  0  0  0
 16 17  1  0  0  0
 17 18  1  0  0  0
 18 19  2  0  0  0
 18 20  1  0  0  0
 25 37  1  0  0  0
 31 38  1  0  0  0
 34 39  1  0  0  0
 22 23  1  0  0  0
  8 10  1  0  0  0
 13 15  1  0  0  0
 20 21  1  0  0  0
 36 40  1  0  0  0
 36 41  1  0  0  0
M  END
> <minimizedAffinity>
-7.79982

$$$$
4QPD_THG_A_402


 41 43  0  0  0  0  0  0  0  0999 V2000
   25.3388   18.9225   39.0837 C   0  0  0  0  0  0  0  0  0  0  0  0
   24.3182   18.7061   40.0501 C   0  0  0  0  0  0  0  0  0  0  0  0
   24.1065   17.4259   40.5628 C   0  0  0  0  0  0  0  0  0  0  0  0
   24.9141   16.3518   40.1092 C   0  0  0  0  0  0  0  0  0  0  0  0
   25.9165   16.5687   39.1676 C   0  0  0  0  0  0  0  0  0  0  0  0
   26.1325   17.8634   38.6514 C   0  0  0  0  0  0  0  0  0  0  0  0
   24.6775   14.9259   40.6878 C   0  0  0  0  0  0  0  0  0  0  0  0
   25.6819   14.3373   41.4525 N   0  0  0  0  0  0  0  0  0  0  0  0
   23.6445   14.3259   40.4726 O   0  0  0  0  0  0  0  0  0  0  0  0
   26.5216   14.8226   41.6215 H   0  0  0  0  0  0  0  0  0  0  0  0
   25.4921   13.0364   41.9874 C   0  0  0  0  0  0  0  0  0  0  0  0
   25.1608   13.1575   43.4622 C   0  0  0  0  0  0  0  0  0  0  0  0
   24.1030   13.7482   43.8402 O   0  0  0  0  0  0  0  0  0  0  0  0
   25.9523   12.6521   44.3143 O   0  0  0  0  0  0  0  0  0  0  0  0
   23.5218   14.1198   43.2062 H   0  0  0  0  0  0  0  0  0  0  0  0
   26.7695   12.2556   41.8016 C   0  0  0  0  0  0  0  0  0  0  0  0
   26.8086   11.6426   40.3983 C   0  0  0  0  0  0  0  0  0  0  0  0
   27.6810   10.3982   40.4593 C   0  0  0  0  0  0  0  0  0  0  0  0
   27.1446    9.2596   40.4365 O   0  0  0  0  0  0  0  0  0  0  0  0
   28.9374   10.5174   40.5257 O   0  0  0  0  0  0  0  0  0  0  0  0
   29.3269   11.3695   40.5421 H   0  0  0  0  0  0  0  0  0  0  0  0
   25.5782   20.2678   38.5373 N   0  0  0  0  0  0  0  0  0  0  0  0
   26.4618   20.4883   38.1633 H   0  0  0  0  0  0  0  0  0  0  0  0
   24.5182   21.2891   38.5408 C   0  0  0  0  0  0  0  0  0  0  0  0
   20.4849   19.4826   34.3343 N   0  0  0  0  0  0  0  0  0  0  0  0
   21.1953   20.0115   33.3136 C   0  0  0  0  0  0  0  0  0  0  0  0
   22.3927   20.6352   33.4977 N   0  0  0  0  0  0  0  0  0  0  0  0
   22.9001   20.7367   34.7135 C   0  0  0  0  0  0  0  0  0  0  0  0
   22.1998   20.2164   35.7982 C   0  0  0  0  0  0  0  0  0  0  0  0
   21.0103   19.6006   35.5447 C   0  0  0  0  0  0  0  0  0  0  0  0
   24.1352   21.3966   34.9198 N   0  0  0  0  0  0  0  0  0  0  0  0
   24.7763   21.0538   36.1143 C   0  0  0  0  0  0  0  0  0  0  0  0
   23.8059   21.3519   37.2054 C   0  0  0  0  0  0  0  0  0  0  0  0
   22.7615   20.3499   37.1138 N   0  0  0  0  0  0  0  0  0  0  0  0
   20.3804   19.1307   36.4848 O   0  0  0  0  0  0  0  0  0  0  0  0
   20.6783   19.9089   32.0098 N   0  0  0  0  0  0  0  0  0  0  0  0
   19.6217   19.0329   34.1861 H   0  0  0  0  0  0  0  0  0  0  0  0
   24.5105   22.0415   34.2776 H   0  0  0  0  0  0  0  0  0  0  0  0
   22.4647   19.8108   37.8822 H   0  0  0  0  0  0  0  0  0  0  0  0
   19.8147   19.4619   31.8566 H   0  0  0  0  0  0  0  0  0  0  0  0
   21.1800   20.2841   31.2504 H   0  0  0  0  0  0  0  0  0  0  0  0
 25 26  1  0  0  0
 25 30  1  0  0  0
 26 27  2  0  0  0
 26 36  1  0  0  0
 27 28  1  0  0  0
 28 29  2  0  0  0
 28 31  1  0  0  0
 29 30  1  0  0  0
 29 34  1  0  0  0
 30 35  2  0  0  0
 31 32  1  0  0  0
 32 33  1  0  0  0
 33 34  1  0  0  0
 33 24  1  0  0  0
 24 22  1  0  0  0
 22  1  1  0  0  0
  1  2  2  0  0  0
  1  6  1  0  0  0
  2  3  1  0  0  0
  3  4  2  0  0  0
  4  5  1  0  0  0
  4  7  1  0  0  0
  5  6  2  0  0  0
  7  8  1  0  0  0
  7  9  2  0  0  0
  8 11  1  0  0  0
 11 12  1  0  0  0
 11 16  1  0  0  0
 12 13  1  0  0  0
 12 14  2  0  0  0
 16 17  1  0  0  0
 17 18  1  0  0  0
 18 19  2  0  0  0
 18 20  1  0  0  0
 25 37  1  0  0  0
 31 38  1  0  0  0
 34 39  1  0  0  0
 22 23  1  0  0  0
  8 10  1  0  0  0
 13 15  1  0  0  0
 20 21  1  0  0  0
 36 40  1  0  0  0
 36 41  1  0  0  0
M  END
> <minimizedAffinity>
-7.66802

$$$$
