2VVN_NHT_A_1718


 20 21  0  0  0  0  0  0  0  0999 V2000
    6.1215  -12.0211    4.2060 C   0  0  0  0  0  0  0  0  0  0  0  0
    7.5669  -11.7909    3.8047 C   0  0  0  0  0  0  0  0  0  0  0  0
    7.4711  -10.6782    2.7264 C   0  0  0  0  0  0  0  0  0  0  0  0
    6.3945  -10.9794    1.6456 C   0  0  0  0  0  0  0  0  0  0  0  0
    5.0353  -11.0874    2.3218 C   0  0  0  0  0  0  0  0  0  0  0  0
    7.4342  -10.5922    5.9039 C   0  0  0  0  0  0  0  0  0  0  0  0
    8.1896  -11.1060    4.9617 N   0  0  0  0  0  0  0  0  0  0  0  0
    8.7206  -10.3561    2.0908 O   0  0  0  0  0  0  0  0  0  0  0  0
    6.2800   -9.9280    0.6645 O   0  0  0  0  0  0  0  0  0  0  0  0
    5.1405  -12.1846    3.1931 O   0  0  0  0  0  0  0  0  0  0  0  0
    5.7264  -11.0119    5.6337 S   0  0  0  0  0  0  0  0  0  0  0  0
    9.0264  -11.1180    1.5742 H   0  0  0  0  0  0  0  0  0  0  0  0
    6.0103   -9.1054    1.1021 H   0  0  0  0  0  0  0  0  0  0  0  0
    3.8579  -11.4086    1.3947 C   0  0  0  0  0  0  0  0  0  0  0  0
    4.0119  -12.7331    0.8918 O   0  0  0  0  0  0  0  0  0  0  0  0
    4.0298  -13.3599    1.6318 H   0  0  0  0  0  0  0  0  0  0  0  0
    7.8794   -9.9130    6.9411 N   0  0  0  0  0  0  0  0  0  0  0  0
    8.8408   -9.7151    7.0164 H   0  0  0  0  0  0  0  0  0  0  0  0
    7.6751   -8.7997    9.1529 C   0  0  0  0  0  0  0  0  0  0  0  0
    6.9634   -9.4497    7.9810 C   0  0  0  0  0  0  0  0  0  0  0  0
 15 14  1  0  0  0
 14  5  1  0  0  0
  5 10  1  0  0  0
  5  4  1  0  0  0
 10  1  1  0  0  0
  4  9  1  0  0  0
  4  3  1  0  0  0
  3  8  1  0  0  0
  3  2  1  0  0  0
  2  7  1  0  0  0
  2  1  1  0  0  0
  7  6  2  0  0  0
  1 11  1  0  0  0
 11  6  1  0  0  0
  6 17  1  0  0  0
 17 20  1  0  0  0
 20 19  1  0  0  0
  8 12  1  0  0  0
  9 13  1  0  0  0
 17 18  1  0  0  0
 15 16  1  0  0  0
M  END
> <minimizedAffinity>
-7.85901

$$$$
2VVN_NHT_A_1718


 20 21  0  0  0  0  0  0  0  0999 V2000
    5.2708  -12.3055    3.0445 C   0  0  0  0  0  0  0  0  0  0  0  0
    5.7168  -11.6599    1.7455 C   0  0  0  0  0  0  0  0  0  0  0  0
    7.1087  -11.0675    2.0941 C   0  0  0  0  0  0  0  0  0  0  0  0
    7.0995  -10.2481    3.4156 C   0  0  0  0  0  0  0  0  0  0  0  0
    6.6861  -11.1633    4.5592 C   0  0  0  0  0  0  0  0  0  0  0  0
    6.1613  -14.0011    1.3184 C   0  0  0  0  0  0  0  0  0  0  0  0
    6.0324  -12.7870    0.8369 N   0  0  0  0  0  0  0  0  0  0  0  0
    7.7036  -10.2868    1.0426 O   0  0  0  0  0  0  0  0  0  0  0  0
    8.4010   -9.7286    3.7586 O   0  0  0  0  0  0  0  0  0  0  0  0
    5.3763  -11.5698    4.2540 O   0  0  0  0  0  0  0  0  0  0  0  0
    5.7353  -14.0368    3.0454 S   0  0  0  0  0  0  0  0  0  0  0  0
    7.1722   -9.4895    0.8916 H   0  0  0  0  0  0  0  0  0  0  0  0
    9.0177  -10.4650    3.8938 H   0  0  0  0  0  0  0  0  0  0  0  0
    6.6015  -10.5021    5.9392 C   0  0  0  0  0  0  0  0  0  0  0  0
    7.8745  -10.5890    6.5738 O   0  0  0  0  0  0  0  0  0  0  0  0
    8.5381  -10.1356    6.0307 H   0  0  0  0  0  0  0  0  0  0  0  0
    6.4981  -15.0607    0.6120 N   0  0  0  0  0  0  0  0  0  0  0  0
    7.2398  -15.6323    0.9162 H   0  0  0  0  0  0  0  0  0  0  0  0
    6.6281  -15.2122   -1.8646 C   0  0  0  0  0  0  0  0  0  0  0  0
    5.7841  -15.3981   -0.6174 C   0  0  0  0  0  0  0  0  0  0  0  0
 15 14  1  0  0  0
 14  5  1  0  0  0
  5 10  1  0  0  0
  5  4  1  0  0  0
 10  1  1  0  0  0
  4  9  1  0  0  0
  4  3  1  0  0  0
  3  8  1  0  0  0
  3  2  1  0  0  0
  2  7  1  0  0  0
  2  1  1  0  0  0
  7  6  2  0  0  0
  1 11  1  0  0  0
 11  6  1  0  0  0
  6 17  1  0  0  0
 17 20  1  0  0  0
 20 19  1  0  0  0
  8 12  1  0  0  0
  9 13  1  0  0  0
 17 18  1  0  0  0
 15 16  1  0  0  0
M  END
> <minimizedAffinity>
-7.63724

$$$$
2VVN_NHT_A_1718


 20 21  0  0  0  0  0  0  0  0999 V2000
    5.7854  -13.9788    3.0236 C   0  0  0  0  0  0  0  0  0  0  0  0
    4.4897  -13.4037    2.4817 C   0  0  0  0  0  0  0  0  0  0  0  0
    4.8357  -11.9129    2.2212 C   0  0  0  0  0  0  0  0  0  0  0  0
    5.5485  -11.2412    3.4288 C   0  0  0  0  0  0  0  0  0  0  0  0
    6.8518  -11.9779    3.7029 C   0  0  0  0  0  0  0  0  0  0  0  0
    5.3704  -14.5614    0.5465 C   0  0  0  0  0  0  0  0  0  0  0  0
    4.3474  -13.9740    1.1217 N   0  0  0  0  0  0  0  0  0  0  0  0
    3.7191  -11.1065    1.8064 O   0  0  0  0  0  0  0  0  0  0  0  0
    5.9029   -9.8664    3.1728 O   0  0  0  0  0  0  0  0  0  0  0  0
    6.4725  -13.2845    4.0537 O   0  0  0  0  0  0  0  0  0  0  0  0
    6.7361  -14.6883    1.6797 S   0  0  0  0  0  0  0  0  0  0  0  0
    3.0773  -11.0456    2.5311 H   0  0  0  0  0  0  0  0  0  0  0  0
    6.5227   -9.8256    2.4278 H   0  0  0  0  0  0  0  0  0  0  0  0
    7.6720  -11.4548    4.8871 C   0  0  0  0  0  0  0  0  0  0  0  0
    8.4672  -10.3557    4.4508 O   0  0  0  0  0  0  0  0  0  0  0  0
    7.8901   -9.6531    4.1130 H   0  0  0  0  0  0  0  0  0  0  0  0
    5.3707  -15.0473   -0.6779 N   0  0  0  0  0  0  0  0  0  0  0  0
    4.5863  -14.9082   -1.2565 H   0  0  0  0  0  0  0  0  0  0  0  0
    7.1529  -15.1438   -2.4064 C   0  0  0  0  0  0  0  0  0  0  0  0
    6.5210  -15.7902   -1.1877 C   0  0  0  0  0  0  0  0  0  0  0  0
 15 14  1  0  0  0
 14  5  1  0  0  0
  5 10  1  0  0  0
  5  4  1  0  0  0
 10  1  1  0  0  0
  4  9  1  0  0  0
  4  3  1  0  0  0
  3  8  1  0  0  0
  3  2  1  0  0  0
  2  7  1  0  0  0
  2  1  1  0  0  0
  7  6  2  0  0  0
  1 11  1  0  0  0
 11  6  1  0  0  0
  6 17  1  0  0  0
 17 20  1  0  0  0
 20 19  1  0  0  0
  8 12  1  0  0  0
  9 13  1  0  0  0
 17 18  1  0  0  0
 15 16  1  0  0  0
M  END
> <minimizedAffinity>
-7.53067

$$$$
2VVN_NHT_A_1718


 20 21  0  0  0  0  0  0  0  0999 V2000
    7.1429  -11.8640    2.9082 C   0  0  0  0  0  0  0  0  0  0  0  0
    6.0234  -10.8622    2.6929 C   0  0  0  0  0  0  0  0  0  0  0  0
    4.7491  -11.7475    2.6431 C   0  0  0  0  0  0  0  0  0  0  0  0
    4.9027  -12.9696    1.6940 C   0  0  0  0  0  0  0  0  0  0  0  0
    6.0503  -13.8371    2.1907 C   0  0  0  0  0  0  0  0  0  0  0  0
    6.4738  -10.6074    5.0579 C   0  0  0  0  0  0  0  0  0  0  0  0
    5.8963  -10.1356    3.9779 N   0  0  0  0  0  0  0  0  0  0  0  0
    3.5411  -11.0344    2.3253 O   0  0  0  0  0  0  0  0  0  0  0  0
    3.7319  -13.8123    1.6763 O   0  0  0  0  0  0  0  0  0  0  0  0
    7.1949  -13.0277    2.0968 O   0  0  0  0  0  0  0  0  0  0  0  0
    7.4802  -12.0202    4.6618 S   0  0  0  0  0  0  0  0  0  0  0  0
    3.5937  -10.6978    1.4172 H   0  0  0  0  0  0  0  0  0  0  0  0
    3.5772  -14.1695    2.5647 H   0  0  0  0  0  0  0  0  0  0  0  0
    6.3542  -15.0801    1.3471 C   0  0  0  0  0  0  0  0  0  0  0  0
    5.5614  -16.1661    1.8193 O   0  0  0  0  0  0  0  0  0  0  0  0
    4.6218  -15.9374    1.7437 H   0  0  0  0  0  0  0  0  0  0  0  0
    6.3757  -10.0758    6.2591 N   0  0  0  0  0  0  0  0  0  0  0  0
    5.5338   -9.6453    6.5331 H   0  0  0  0  0  0  0  0  0  0  0  0
    7.3361   -9.1715    8.3647 C   0  0  0  0  0  0  0  0  0  0  0  0
    7.5013  -10.1175    7.1899 C   0  0  0  0  0  0  0  0  0  0  0  0
 15 14  1  0  0  0
 14  5  1  0  0  0
  5 10  1  0  0  0
  5  4  1  0  0  0
 10  1  1  0  0  0
  4  9  1  0  0  0
  4  3  1  0  0  0
  3  8  1  0  0  0
  3  2  1  0  0  0
  2  7  1  0  0  0
  2  1  1  0  0  0
  7  6  2  0  0  0
  1 11  1  0  0  0
 11  6  1  0  0  0
  6 17  1  0  0  0
 17 20  1  0  0  0
 20 19  1  0  0  0
  8 12  1  0  0  0
  9 13  1  0  0  0
 17 18  1  0  0  0
 15 16  1  0  0  0
M  END
> <minimizedAffinity>
-7.36107

$$$$
2VVN_NHT_A_1718


 20 21  0  0  0  0  0  0  0  0999 V2000
    5.0179  -11.8822    3.3982 C   0  0  0  0  0  0  0  0  0  0  0  0
    5.3197  -11.0702    2.1520 C   0  0  0  0  0  0  0  0  0  0  0  0
    6.8486  -10.8179    2.2451 C   0  0  0  0  0  0  0  0  0  0  0  0
    7.2888  -10.3019    3.6442 C   0  0  0  0  0  0  0  0  0  0  0  0
    6.9274  -11.3468    4.6901 C   0  0  0  0  0  0  0  0  0  0  0  0
    5.1443  -13.3127    1.2568 C   0  0  0  0  0  0  0  0  0  0  0  0
    5.1888  -12.0219    1.0240 N   0  0  0  0  0  0  0  0  0  0  0  0
    7.3725   -9.9535    1.2216 O   0  0  0  0  0  0  0  0  0  0  0  0
    8.7143  -10.1027    3.7419 O   0  0  0  0  0  0  0  0  0  0  0  0
    5.5264  -11.4438    4.6489 O   0  0  0  0  0  0  0  0  0  0  0  0
    5.0825  -13.6302    3.0064 S   0  0  0  0  0  0  0  0  0  0  0  0
    7.0091   -9.0613    1.3347 H   0  0  0  0  0  0  0  0  0  0  0  0
    9.1692  -10.9480    3.6029 H   0  0  0  0  0  0  0  0  0  0  0  0
    7.2730  -10.9819    6.1380 C   0  0  0  0  0  0  0  0  0  0  0  0
    6.6908   -9.7191    6.4494 O   0  0  0  0  0  0  0  0  0  0  0  0
    5.7281   -9.7718    6.3430 H   0  0  0  0  0  0  0  0  0  0  0  0
    5.0897  -14.2453    0.3281 N   0  0  0  0  0  0  0  0  0  0  0  0
    4.2143  -14.5570    0.0029 H   0  0  0  0  0  0  0  0  0  0  0  0
    6.8507  -15.9770    0.5994 C   0  0  0  0  0  0  0  0  0  0  0  0
    6.3126  -14.8225   -0.2253 C   0  0  0  0  0  0  0  0  0  0  0  0
 15 14  1  0  0  0
 14  5  1  0  0  0
  5 10  1  0  0  0
  5  4  1  0  0  0
 10  1  1  0  0  0
  4  9  1  0  0  0
  4  3  1  0  0  0
  3  8  1  0  0  0
  3  2  1  0  0  0
  2  7  1  0  0  0
  2  1  1  0  0  0
  7  6  2  0  0  0
  1 11  1  0  0  0
 11  6  1  0  0  0
  6 17  1  0  0  0
 17 20  1  0  0  0
 20 19  1  0  0  0
  8 12  1  0  0  0
  9 13  1  0  0  0
 17 18  1  0  0  0
 15 16  1  0  0  0
M  END
> <minimizedAffinity>
-6.88226

$$$$
2VVN_NHT_A_1718


 20 21  0  0  0  0  0  0  0  0999 V2000
    5.2698  -13.8966    1.7754 C   0  0  0  0  0  0  0  0  0  0  0  0
    5.8284  -14.7033    2.9331 C   0  0  0  0  0  0  0  0  0  0  0  0
    7.1119  -15.3458    2.3415 C   0  0  0  0  0  0  0  0  0  0  0  0
    6.8661  -16.0190    0.9616 C   0  0  0  0  0  0  0  0  0  0  0  0
    6.3813  -14.9633   -0.0215 C   0  0  0  0  0  0  0  0  0  0  0  0
    6.5086  -12.4545    3.5170 C   0  0  0  0  0  0  0  0  0  0  0  0
    6.3477  -13.7014    3.8932 N   0  0  0  0  0  0  0  0  0  0  0  0
    7.7748  -16.2702    3.2219 O   0  0  0  0  0  0  0  0  0  0  0  0
    8.0667  -16.5837    0.3951 O   0  0  0  0  0  0  0  0  0  0  0  0
    5.1586  -14.5061    0.4981 O   0  0  0  0  0  0  0  0  0  0  0  0
    5.8659  -12.2091    1.8762 S   0  0  0  0  0  0  0  0  0  0  0  0
    7.2061  -17.0424    3.3675 H   0  0  0  0  0  0  0  0  0  0  0  0
    8.7169  -15.8793    0.2475 H   0  0  0  0  0  0  0  0  0  0  0  0
    6.0659  -15.4684   -1.4337 C   0  0  0  0  0  0  0  0  0  0  0  0
    6.7597  -14.6606   -2.3807 O   0  0  0  0  0  0  0  0  0  0  0  0
    7.7140  -14.7163   -2.2157 H   0  0  0  0  0  0  0  0  0  0  0  0
    7.0172  -11.4995    4.2684 N   0  0  0  0  0  0  0  0  0  0  0  0
    7.9221  -11.1613    4.0786 H   0  0  0  0  0  0  0  0  0  0  0  0
    7.1321  -10.2856    6.4333 C   0  0  0  0  0  0  0  0  0  0  0  0
    6.2546  -10.9362    5.3802 C   0  0  0  0  0  0  0  0  0  0  0  0
 15 14  1  0  0  0
 14  5  1  0  0  0
  5 10  1  0  0  0
  5  4  1  0  0  0
 10  1  1  0  0  0
  4  9  1  0  0  0
  4  3  1  0  0  0
  3  8  1  0  0  0
  3  2  1  0  0  0
  2  7  1  0  0  0
  2  1  1  0  0  0
  7  6  2  0  0  0
  1 11  1  0  0  0
 11  6  1  0  0  0
  6 17  1  0  0  0
 17 20  1  0  0  0
 20 19  1  0  0  0
  8 12  1  0  0  0
  9 13  1  0  0  0
 17 18  1  0  0  0
 15 16  1  0  0  0
M  END
> <minimizedAffinity>
-6.57848

$$$$
