1LAH_ORN_E_240


 14 13  0  0  0  0  0  0  0  0999 V2000
   31.6511   30.1348   67.8106 N   0  0  0  0  0  0  0  0  0  0  0  0
   31.8190   28.7659   67.4614 C   0  0  0  0  0  0  0  0  0  0  0  0
   32.0126   30.7238   67.0605 H   0  0  0  0  0  0  0  0  0  0  0  0
   32.1605   30.3307   68.6723 H   0  0  0  0  0  0  0  0  0  0  0  0
   31.2270   28.0607   68.6900 C   0  0  0  0  0  0  0  0  0  0  0  0
   30.8905   26.8768   68.6468 O   0  0  0  0  0  0  0  0  0  0  0  0
   31.0891   28.7059   69.7082 O   0  0  0  0  0  0  0  0  0  0  0  0
   31.3482   29.6061   69.7312 H   0  0  0  0  0  0  0  0  0  0  0  0
   33.3140   28.3828   67.2909 C   0  0  0  0  0  0  0  0  0  0  0  0
   34.3332   28.9007   68.3407 C   0  0  0  0  0  0  0  0  0  0  0  0
   35.5109   27.9317   68.4473 C   0  0  0  0  0  0  0  0  0  0  0  0
   36.5933   28.4896   69.2677 N   0  0  0  0  0  0  0  0  0  0  0  0
   36.9367   29.3490   68.8388 H   0  0  0  0  0  0  0  0  0  0  0  0
   37.3545   27.8137   69.3315 H   0  0  0  0  0  0  0  0  0  0  0  0
  1  2  1  0  0  0
  2  9  1  0  0  0
  2  5  1  0  0  0
  9 10  1  0  0  0
 10 11  1  0  0  0
 11 12  1  0  0  0
  5  6  2  0  0  0
  5  7  1  0  0  0
  1  3  1  0  0  0
  1  4  1  0  0  0
 12 13  1  0  0  0
 12 14  1  0  0  0
  7  8  1  0  0  0
M  END
> <minimizedAffinity>
-6.86538

$$$$
1LAH_ORN_E_240


 14 13  0  0  0  0  0  0  0  0999 V2000
   31.0128   27.1646   68.2488 N   0  0  0  0  0  0  0  0  0  0  0  0
   31.9534   28.2000   68.5081 C   0  0  0  0  0  0  0  0  0  0  0  0
   31.3034   26.3131   68.7293 H   0  0  0  0  0  0  0  0  0  0  0  0
   30.9676   26.9900   67.2448 H   0  0  0  0  0  0  0  0  0  0  0  0
   31.3503   29.3684   67.7155 C   0  0  0  0  0  0  0  0  0  0  0  0
   30.6178   29.1717   66.7452 O   0  0  0  0  0  0  0  0  0  0  0  0
   31.6230   30.4978   68.0654 O   0  0  0  0  0  0  0  0  0  0  0  0
   32.1812   30.6372   68.8049 H   0  0  0  0  0  0  0  0  0  0  0  0
   33.3677   27.8572   67.9667 C   0  0  0  0  0  0  0  0  0  0  0  0
   34.5553   28.7699   68.3738 C   0  0  0  0  0  0  0  0  0  0  0  0
   35.8186   27.9299   68.5627 C   0  0  0  0  0  0  0  0  0  0  0  0
   36.7743   28.5909   69.4602 N   0  0  0  0  0  0  0  0  0  0  0  0
   37.0543   29.4860   69.0592 H   0  0  0  0  0  0  0  0  0  0  0  0
   37.5965   27.9986   69.5771 H   0  0  0  0  0  0  0  0  0  0  0  0
  1  2  1  0  0  0
  2  9  1  0  0  0
  2  5  1  0  0  0
  9 10  1  0  0  0
 10 11  1  0  0  0
 11 12  1  0  0  0
  5  6  2  0  0  0
  5  7  1  0  0  0
  1  3  1  0  0  0
  1  4  1  0  0  0
 12 13  1  0  0  0
 12 14  1  0  0  0
  7  8  1  0  0  0
M  END
> <minimizedAffinity>
-6.25879

$$$$
1LAH_ORN_E_240


 14 13  0  0  0  0  0  0  0  0999 V2000
   31.3235   29.9902   67.6010 N   0  0  0  0  0  0  0  0  0  0  0  0
   32.0949   28.7978   67.6854 C   0  0  0  0  0  0  0  0  0  0  0  0
   31.7188   30.6010   66.8861 H   0  0  0  0  0  0  0  0  0  0  0  0
   31.3368   30.4683   68.5020 H   0  0  0  0  0  0  0  0  0  0  0  0
   31.3547   28.0307   68.7903 C   0  0  0  0  0  0  0  0  0  0  0  0
   30.7167   27.0074   68.5404 O   0  0  0  0  0  0  0  0  0  0  0  0
   31.4064   28.4663   69.9217 O   0  0  0  0  0  0  0  0  0  0  0  0
   31.8944   29.2456   70.1018 H   0  0  0  0  0  0  0  0  0  0  0  0
   33.5608   29.0764   68.1148 C   0  0  0  0  0  0  0  0  0  0  0  0
   34.5915   27.9200   68.0160 C   0  0  0  0  0  0  0  0  0  0  0  0
   34.0754   26.8404   67.0646 C   0  0  0  0  0  0  0  0  0  0  0  0
   34.3478   27.1841   65.6632 N   0  0  0  0  0  0  0  0  0  0  0  0
   33.8739   28.0564   65.4288 H   0  0  0  0  0  0  0  0  0  0  0  0
   34.0060   26.4380   65.0575 H   0  0  0  0  0  0  0  0  0  0  0  0
  1  2  1  0  0  0
  2  9  1  0  0  0
  2  5  1  0  0  0
  9 10  1  0  0  0
 10 11  1  0  0  0
 11 12  1  0  0  0
  5  6  2  0  0  0
  5  7  1  0  0  0
  1  3  1  0  0  0
  1  4  1  0  0  0
 12 13  1  0  0  0
 12 14  1  0  0  0
  7  8  1  0  0  0
M  END
> <minimizedAffinity>
-5.75744

$$$$
1LAH_ORN_E_240


 14 13  0  0  0  0  0  0  0  0999 V2000
   34.2502   27.4106   66.3386 N   0  0  0  0  0  0  0  0  0  0  0  0
   33.6440   28.1499   67.3922 C   0  0  0  0  0  0  0  0  0  0  0  0
   33.5605   27.2305   65.6090 H   0  0  0  0  0  0  0  0  0  0  0  0
   34.5996   26.5241   66.7025 H   0  0  0  0  0  0  0  0  0  0  0  0
   34.8187   28.3148   68.3669 C   0  0  0  0  0  0  0  0  0  0  0  0
   35.8512   27.6554   68.2407 O   0  0  0  0  0  0  0  0  0  0  0  0
   34.6998   29.1094   69.2762 O   0  0  0  0  0  0  0  0  0  0  0  0
   33.9104   29.6065   69.3637 H   0  0  0  0  0  0  0  0  0  0  0  0
   32.4892   27.3648   68.0710 C   0  0  0  0  0  0  0  0  0  0  0  0
   31.1554   28.1080   68.3501 C   0  0  0  0  0  0  0  0  0  0  0  0
   31.2141   29.5215   67.7706 C   0  0  0  0  0  0  0  0  0  0  0  0
   30.3466   29.6562   66.5935 N   0  0  0  0  0  0  0  0  0  0  0  0
   30.6562   29.0102   65.8674 H   0  0  0  0  0  0  0  0  0  0  0  0
   30.3967   30.6123   66.2419 H   0  0  0  0  0  0  0  0  0  0  0  0
  1  2  1  0  0  0
  2  9  1  0  0  0
  2  5  1  0  0  0
  9 10  1  0  0  0
 10 11  1  0  0  0
 11 12  1  0  0  0
  5  6  2  0  0  0
  5  7  1  0  0  0
  1  3  1  0  0  0
  1  4  1  0  0  0
 12 13  1  0  0  0
 12 14  1  0  0  0
  7  8  1  0  0  0
M  END
> <minimizedAffinity>
-5.33088

$$$$
1LAH_ORN_E_240


 14 13  0  0  0  0  0  0  0  0999 V2000
   30.7335   27.1759   68.4355 N   0  0  0  0  0  0  0  0  0  0  0  0
   31.4614   28.3275   68.8453 C   0  0  0  0  0  0  0  0  0  0  0  0
   30.7949   26.4596   69.1591 H   0  0  0  0  0  0  0  0  0  0  0  0
   31.1277   26.8159   67.5664 H   0  0  0  0  0  0  0  0  0  0  0  0
   31.2503   29.2661   67.6488 C   0  0  0  0  0  0  0  0  0  0  0  0
   31.3342   30.4885   67.7729 O   0  0  0  0  0  0  0  0  0  0  0  0
   30.9875   28.7705   66.5729 O   0  0  0  0  0  0  0  0  0  0  0  0
   30.9258   27.8393   66.4885 H   0  0  0  0  0  0  0  0  0  0  0  0
   32.9736   28.0296   69.0338 C   0  0  0  0  0  0  0  0  0  0  0  0
   33.9587   28.4779   67.9212 C   0  0  0  0  0  0  0  0  0  0  0  0
   34.5072   27.2551   67.1858 C   0  0  0  0  0  0  0  0  0  0  0  0
   34.1900   27.3026   65.7529 N   0  0  0  0  0  0  0  0  0  0  0  0
   33.1777   27.3106   65.6289 H   0  0  0  0  0  0  0  0  0  0  0  0
   34.5827   26.4827   65.2904 H   0  0  0  0  0  0  0  0  0  0  0  0
  1  2  1  0  0  0
  2  9  1  0  0  0
  2  5  1  0  0  0
  9 10  1  0  0  0
 10 11  1  0  0  0
 11 12  1  0  0  0
  5  6  2  0  0  0
  5  7  1  0  0  0
  1  3  1  0  0  0
  1  4  1  0  0  0
 12 13  1  0  0  0
 12 14  1  0  0  0
  7  8  1  0  0  0
M  END
> <minimizedAffinity>
-4.88447

$$$$
1LAH_ORN_E_240


 14 13  0  0  0  0  0  0  0  0999 V2000
   35.4798   27.9073   68.3056 N   0  0  0  0  0  0  0  0  0  0  0  0
   34.1557   27.4510   68.0553 C   0  0  0  0  0  0  0  0  0  0  0  0
   35.7189   27.7375   69.2825 H   0  0  0  0  0  0  0  0  0  0  0  0
   35.5376   28.9067   68.1101 H   0  0  0  0  0  0  0  0  0  0  0  0
   33.9908   27.7887   66.5667 C   0  0  0  0  0  0  0  0  0  0  0  0
   33.4175   28.8168   66.2043 O   0  0  0  0  0  0  0  0  0  0  0  0
   34.4338   27.0075   65.7508 O   0  0  0  0  0  0  0  0  0  0  0  0
   34.8684   26.2281   66.0363 H   0  0  0  0  0  0  0  0  0  0  0  0
   33.1016   28.2170   68.8996 C   0  0  0  0  0  0  0  0  0  0  0  0
   31.6368   27.7035   68.8944 C   0  0  0  0  0  0  0  0  0  0  0  0
   30.7567   28.6443   68.0712 C   0  0  0  0  0  0  0  0  0  0  0  0
   31.4011   29.9490   67.8751 N   0  0  0  0  0  0  0  0  0  0  0  0
   31.5618   30.3885   68.7815 H   0  0  0  0  0  0  0  0  0  0  0  0
   30.7964   30.5455   67.3104 H   0  0  0  0  0  0  0  0  0  0  0  0
  1  2  1  0  0  0
  2  9  1  0  0  0
  2  5  1  0  0  0
  9 10  1  0  0  0
 10 11  1  0  0  0
 11 12  1  0  0  0
  5  6  2  0  0  0
  5  7  1  0  0  0
  1  3  1  0  0  0
  1  4  1  0  0  0
 12 13  1  0  0  0
 12 14  1  0  0  0
  7  8  1  0  0  0
M  END
> <minimizedAffinity>
-3.98702

$$$$
