3D78_NBB_A_120


 15 15  0  0  0  0  0  0  0  0999 V2000
   15.1927   16.3226    2.1963 O   0  0  0  0  0  0  0  0  0  0  0  0
   14.0997   17.2760    2.0353 S   0  0  0  0  0  0  0  0  0  0  0  0
   14.4664   18.0045    0.7718 O   0  0  0  0  0  0  0  0  0  0  0  0
   12.7293   16.4279    1.8636 C   0  0  0  0  0  0  0  0  0  0  0  0
   12.4089   15.3810    2.7105 C   0  0  0  0  0  0  0  0  0  0  0  0
   11.2565   14.6244    2.5996 C   0  0  0  0  0  0  0  0  0  0  0  0
   10.3786   14.9199    1.5788 C   0  0  0  0  0  0  0  0  0  0  0  0
   10.6897   15.9445    0.6900 C   0  0  0  0  0  0  0  0  0  0  0  0
   11.8522   16.7067    0.8262 C   0  0  0  0  0  0  0  0  0  0  0  0
   13.8561   18.1760    3.3067 N   0  0  0  0  0  0  0  0  0  0  0  0
   14.5785   18.8947    3.2616 H   0  0  0  0  0  0  0  0  0  0  0  0
   12.5768   18.9272    3.6729 C   0  0  0  0  0  0  0  0  0  0  0  0
   11.6849   18.3851    4.8410 C   0  0  0  0  0  0  0  0  0  0  0  0
   10.2379   17.9113    4.5358 C   0  0  0  0  0  0  0  0  0  0  0  0
    9.6720   16.6465    5.1830 C   0  0  0  0  0  0  0  0  0  0  0  0
  1  2  2  0  0  0
  2  3  2  0  0  0
  2 10  1  0  0  0
  2  4  1  0  0  0
 10 12  1  0  0  0
 12 13  1  0  0  0
 13 14  1  0  0  0
 14 15  1  0  0  0
  4  5  2  0  0  0
  4  9  1  0  0  0
  5  6  1  0  0  0
  6  7  2  0  0  0
  7  8  1  0  0  0
  8  9  2  0  0  0
 10 11  1  0  0  0
M  END
> <minimizedAffinity>
-6.11196

$$$$
3D78_NBB_A_120


 15 15  0  0  0  0  0  0  0  0999 V2000
   15.1850   16.5700    2.4268 O   0  0  0  0  0  0  0  0  0  0  0  0
   14.0999   17.4636    2.0350 S   0  0  0  0  0  0  0  0  0  0  0  0
   14.5362   17.9570    0.6831 O   0  0  0  0  0  0  0  0  0  0  0  0
   12.7445   16.5796    1.9431 C   0  0  0  0  0  0  0  0  0  0  0  0
   12.3879   15.6864    2.9386 C   0  0  0  0  0  0  0  0  0  0  0  0
   11.2466   14.9060    2.9016 C   0  0  0  0  0  0  0  0  0  0  0  0
   10.4194   15.0127    1.8041 C   0  0  0  0  0  0  0  0  0  0  0  0
   10.7691   15.8767    0.7708 C   0  0  0  0  0  0  0  0  0  0  0  0
   11.9191   16.6670    0.8322 C   0  0  0  0  0  0  0  0  0  0  0  0
   13.7804   18.5748    3.1068 N   0  0  0  0  0  0  0  0  0  0  0  0
   14.3087   18.3001    3.9350 H   0  0  0  0  0  0  0  0  0  0  0  0
   14.0140   20.0790    2.9729 C   0  0  0  0  0  0  0  0  0  0  0  0
   15.3271   20.6995    3.5599 C   0  0  0  0  0  0  0  0  0  0  0  0
   15.6379   22.1999    3.3074 C   0  0  0  0  0  0  0  0  0  0  0  0
   15.0331   23.2881    4.1956 C   0  0  0  0  0  0  0  0  0  0  0  0
  1  2  2  0  0  0
  2  3  2  0  0  0
  2 10  1  0  0  0
  2  4  1  0  0  0
 10 12  1  0  0  0
 12 13  1  0  0  0
 13 14  1  0  0  0
 14 15  1  0  0  0
  4  5  2  0  0  0
  4  9  1  0  0  0
  5  6  1  0  0  0
  6  7  2  0  0  0
  7  8  1  0  0  0
  8  9  2  0  0  0
 10 11  1  0  0  0
M  END
> <minimizedAffinity>
-5.98708

$$$$
3D78_NBB_A_120


 15 15  0  0  0  0  0  0  0  0999 V2000
   10.7915   19.2950    3.6431 O   0  0  0  0  0  0  0  0  0  0  0  0
   11.7442   18.2894    4.1021 S   0  0  0  0  0  0  0  0  0  0  0  0
   11.3113   18.0318    5.5192 O   0  0  0  0  0  0  0  0  0  0  0  0
   11.5602   16.9765    3.1698 C   0  0  0  0  0  0  0  0  0  0  0  0
   11.3643   17.0747    1.8031 C   0  0  0  0  0  0  0  0  0  0  0  0
   11.1953   15.9851    0.9681 C   0  0  0  0  0  0  0  0  0  0  0  0
   11.2104   14.7259    1.5287 C   0  0  0  0  0  0  0  0  0  0  0  0
   11.3709   14.5965    2.9050 C   0  0  0  0  0  0  0  0  0  0  0  0
   11.5536   15.7082    3.7305 C   0  0  0  0  0  0  0  0  0  0  0  0
   13.2503   18.7118    3.9050 N   0  0  0  0  0  0  0  0  0  0  0  0
   13.7406   17.8431    3.6920 H   0  0  0  0  0  0  0  0  0  0  0  0
   13.7994   19.7283    2.9049 C   0  0  0  0  0  0  0  0  0  0  0  0
   14.9247   19.2840    1.9098 C   0  0  0  0  0  0  0  0  0  0  0  0
   14.8058   17.9127    1.1908 C   0  0  0  0  0  0  0  0  0  0  0  0
   15.3531   16.6379    1.8342 C   0  0  0  0  0  0  0  0  0  0  0  0
  1  2  2  0  0  0
  2  3  2  0  0  0
  2 10  1  0  0  0
  2  4  1  0  0  0
 10 12  1  0  0  0
 12 13  1  0  0  0
 13 14  1  0  0  0
 14 15  1  0  0  0
  4  5  2  0  0  0
  4  9  1  0  0  0
  5  6  1  0  0  0
  6  7  2  0  0  0
  7  8  1  0  0  0
  8  9  2  0  0  0
 10 11  1  0  0  0
M  END
> <minimizedAffinity>
-5.90407

$$$$
3D78_NBB_A_120


 15 15  0  0  0  0  0  0  0  0999 V2000
   13.1403   19.9077    5.8566 O   0  0  0  0  0  0  0  0  0  0  0  0
   12.9671   19.9590    4.4085 S   0  0  0  0  0  0  0  0  0  0  0  0
   11.4882   20.1810    4.2500 O   0  0  0  0  0  0  0  0  0  0  0  0
   13.8261   21.2172    3.8553 C   0  0  0  0  0  0  0  0  0  0  0  0
   13.8196   22.4432    4.4979 C   0  0  0  0  0  0  0  0  0  0  0  0
   14.5295   23.5467    4.0606 C   0  0  0  0  0  0  0  0  0  0  0  0
   15.2793   23.4253    2.9103 C   0  0  0  0  0  0  0  0  0  0  0  0
   15.2784   22.2154    2.2228 C   0  0  0  0  0  0  0  0  0  0  0  0
   14.5656   21.1077    2.6874 C   0  0  0  0  0  0  0  0  0  0  0  0
   13.5630   18.7072    3.6578 N   0  0  0  0  0  0  0  0  0  0  0  0
   14.1101   18.2141    4.3634 H   0  0  0  0  0  0  0  0  0  0  0  0
   12.7846   17.6129    2.9287 C   0  0  0  0  0  0  0  0  0  0  0  0
   13.0619   17.3685    1.4064 C   0  0  0  0  0  0  0  0  0  0  0  0
   14.4664   17.6917    0.8281 C   0  0  0  0  0  0  0  0  0  0  0  0
   15.7054   16.9302    1.3011 C   0  0  0  0  0  0  0  0  0  0  0  0
  1  2  2  0  0  0
  2  3  2  0  0  0
  2 10  1  0  0  0
  2  4  1  0  0  0
 10 12  1  0  0  0
 12 13  1  0  0  0
 13 14  1  0  0  0
 14 15  1  0  0  0
  4  5  2  0  0  0
  4  9  1  0  0  0
  5  6  1  0  0  0
  6  7  2  0  0  0
  7  8  1  0  0  0
  8  9  2  0  0  0
 10 11  1  0  0  0
M  END
> <minimizedAffinity>
-5.82355

$$$$
3D78_NBB_A_120


 15 15  0  0  0  0  0  0  0  0999 V2000
   11.2158   19.5551    4.8055 O   0  0  0  0  0  0  0  0  0  0  0  0
   12.5093   20.1993    4.6018 S   0  0  0  0  0  0  0  0  0  0  0  0
   13.2321   19.9275    5.8923 O   0  0  0  0  0  0  0  0  0  0  0  0
   13.2286   19.4706    3.3454 C   0  0  0  0  0  0  0  0  0  0  0  0
   12.9148   18.1735    2.9777 C   0  0  0  0  0  0  0  0  0  0  0  0
   13.5059   17.5078    1.9193 C   0  0  0  0  0  0  0  0  0  0  0  0
   14.4737   18.1679    1.1929 C   0  0  0  0  0  0  0  0  0  0  0  0
   14.8355   19.4606    1.5599 C   0  0  0  0  0  0  0  0  0  0  0  0
   14.2177   20.1217    2.6239 C   0  0  0  0  0  0  0  0  0  0  0  0
   12.3993   21.7134    4.1763 N   0  0  0  0  0  0  0  0  0  0  0  0
   11.4875   21.7938    3.7262 H   0  0  0  0  0  0  0  0  0  0  0  0
   12.4969   22.9363    5.0873 C   0  0  0  0  0  0  0  0  0  0  0  0
   13.6931   23.9303    4.8997 C   0  0  0  0  0  0  0  0  0  0  0  0
   14.9810   23.4430    4.1818 C   0  0  0  0  0  0  0  0  0  0  0  0
   15.2047   23.7204    2.6946 C   0  0  0  0  0  0  0  0  0  0  0  0
  1  2  2  0  0  0
  2  3  2  0  0  0
  2 10  1  0  0  0
  2  4  1  0  0  0
 10 12  1  0  0  0
 12 13  1  0  0  0
 13 14  1  0  0  0
 14 15  1  0  0  0
  4  5  2  0  0  0
  4  9  1  0  0  0
  5  6  1  0  0  0
  6  7  2  0  0  0
  7  8  1  0  0  0
  8  9  2  0  0  0
 10 11  1  0  0  0
M  END
> <minimizedAffinity>
-5.61895

$$$$
3D78_NBB_A_120


 15 15  0  0  0  0  0  0  0  0999 V2000
   10.2006   19.1882    3.5277 O   0  0  0  0  0  0  0  0  0  0  0  0
   10.9578   18.6322    4.6444 S   0  0  0  0  0  0  0  0  0  0  0  0
   11.0004   19.7699    5.6270 O   0  0  0  0  0  0  0  0  0  0  0  0
   10.1233   17.3693    5.2235 C   0  0  0  0  0  0  0  0  0  0  0  0
    9.3833   17.4576    6.3899 C   0  0  0  0  0  0  0  0  0  0  0  0
    8.6616   16.4069    6.9266 C   0  0  0  0  0  0  0  0  0  0  0  0
    8.6886   15.1952    6.2701 C   0  0  0  0  0  0  0  0  0  0  0  0
    9.4515   15.0655    5.1135 C   0  0  0  0  0  0  0  0  0  0  0  0
   10.1631   16.1420    4.5791 C   0  0  0  0  0  0  0  0  0  0  0  0
   12.3526   18.0302    4.2226 N   0  0  0  0  0  0  0  0  0  0  0  0
   12.3138   17.0522    4.5098 H   0  0  0  0  0  0  0  0  0  0  0  0
   12.9593   18.0041    2.8204 C   0  0  0  0  0  0  0  0  0  0  0  0
   12.8128   16.7081    1.9528 C   0  0  0  0  0  0  0  0  0  0  0  0
   11.6333   16.5945    0.9491 C   0  0  0  0  0  0  0  0  0  0  0  0
   10.7286   15.3616    0.9359 C   0  0  0  0  0  0  0  0  0  0  0  0
  1  2  2  0  0  0
  2  3  2  0  0  0
  2 10  1  0  0  0
  2  4  1  0  0  0
 10 12  1  0  0  0
 12 13  1  0  0  0
 13 14  1  0  0  0
 14 15  1  0  0  0
  4  5  2  0  0  0
  4  9  1  0  0  0
  5  6  1  0  0  0
  6  7  2  0  0  0
  7  8  1  0  0  0
  8  9  2  0  0  0
 10 11  1  0  0  0
M  END
> <minimizedAffinity>
-5.61447

$$$$
3D78_NBB_A_120


 15 15  0  0  0  0  0  0  0  0999 V2000
   11.1727   14.5506    1.4949 O   0  0  0  0  0  0  0  0  0  0  0  0
   11.5052   15.5359    2.5187 S   0  0  0  0  0  0  0  0  0  0  0  0
   11.7038   14.6946    3.7494 O   0  0  0  0  0  0  0  0  0  0  0  0
   12.8767   16.2712    2.0659 C   0  0  0  0  0  0  0  0  0  0  0  0
   14.0560   16.1139    2.7733 C   0  0  0  0  0  0  0  0  0  0  0  0
   15.2481   16.7256    2.4306 C   0  0  0  0  0  0  0  0  0  0  0  0
   15.2634   17.5510    1.3267 C   0  0  0  0  0  0  0  0  0  0  0  0
   14.0852   17.7564    0.6152 C   0  0  0  0  0  0  0  0  0  0  0  0
   12.8936   17.1191    0.9687 C   0  0  0  0  0  0  0  0  0  0  0  0
   10.4487   16.6999    2.6399 N   0  0  0  0  0  0  0  0  0  0  0  0
    9.5413   16.2359    2.5984 H   0  0  0  0  0  0  0  0  0  0  0  0
   10.3201   17.7135    3.7761 C   0  0  0  0  0  0  0  0  0  0  0  0
   11.3755   17.6958    4.9336 C   0  0  0  0  0  0  0  0  0  0  0  0
   12.4838   18.7830    4.9685 C   0  0  0  0  0  0  0  0  0  0  0  0
   12.8166   19.6064    3.7236 C   0  0  0  0  0  0  0  0  0  0  0  0
  1  2  2  0  0  0
  2  3  2  0  0  0
  2 10  1  0  0  0
  2  4  1  0  0  0
 10 12  1  0  0  0
 12 13  1  0  0  0
 13 14  1  0  0  0
 14 15  1  0  0  0
  4  5  2  0  0  0
  4  9  1  0  0  0
  5  6  1  0  0  0
  6  7  2  0  0  0
  7  8  1  0  0  0
  8  9  2  0  0  0
 10 11  1  0  0  0
M  END
> <minimizedAffinity>
-5.58125

$$$$
3D78_NBB_A_120


 15 15  0  0  0  0  0  0  0  0999 V2000
   10.5678   15.5166    1.9003 O   0  0  0  0  0  0  0  0  0  0  0  0
   11.4526   15.9888    2.9604 S   0  0  0  0  0  0  0  0  0  0  0  0
   11.6464   14.7649    3.8125 O   0  0  0  0  0  0  0  0  0  0  0  0
   12.8387   16.4644    2.2680 C   0  0  0  0  0  0  0  0  0  0  0  0
   14.0669   16.2376    2.8647 C   0  0  0  0  0  0  0  0  0  0  0  0
   15.2745   16.6305    2.3169 C   0  0  0  0  0  0  0  0  0  0  0  0
   15.2567   17.2984    1.1112 C   0  0  0  0  0  0  0  0  0  0  0  0
   14.0350   17.5718    0.5036 C   0  0  0  0  0  0  0  0  0  0  0  0
   12.8261   17.1550    1.0656 C   0  0  0  0  0  0  0  0  0  0  0  0
   10.9165   17.2714    3.7040 N   0  0  0  0  0  0  0  0  0  0  0  0
   11.0709   18.0380    3.0491 H   0  0  0  0  0  0  0  0  0  0  0  0
    9.5077   17.4990    4.2503 C   0  0  0  0  0  0  0  0  0  0  0  0
    9.3171   17.7340    5.7873 C   0  0  0  0  0  0  0  0  0  0  0  0
    8.7064   16.6034    6.6592 C   0  0  0  0  0  0  0  0  0  0  0  0
    8.7897   15.1407    6.2207 C   0  0  0  0  0  0  0  0  0  0  0  0
  1  2  2  0  0  0
  2  3  2  0  0  0
  2 10  1  0  0  0
  2  4  1  0  0  0
 10 12  1  0  0  0
 12 13  1  0  0  0
 13 14  1  0  0  0
 14 15  1  0  0  0
  4  5  2  0  0  0
  4  9  1  0  0  0
  5  6  1  0  0  0
  6  7  2  0  0  0
  7  8  1  0  0  0
  8  9  2  0  0  0
 10 11  1  0  0  0
M  END
> <minimizedAffinity>
-5.52970

$$$$
3D78_NBB_A_120


 15 15  0  0  0  0  0  0  0  0999 V2000
   12.0084   19.9202    5.7985 O   0  0  0  0  0  0  0  0  0  0  0  0
   12.1680   19.2803    4.4967 S   0  0  0  0  0  0  0  0  0  0  0  0
   10.7694   19.2795    3.9439 O   0  0  0  0  0  0  0  0  0  0  0  0
   13.1627   20.2057    3.6130 C   0  0  0  0  0  0  0  0  0  0  0  0
   14.1504   19.6570    2.8133 C   0  0  0  0  0  0  0  0  0  0  0  0
   15.0266   20.4048    2.0479 C   0  0  0  0  0  0  0  0  0  0  0  0
   14.9206   21.7785    2.0909 C   0  0  0  0  0  0  0  0  0  0  0  0
   13.9600   22.3607    2.9124 C   0  0  0  0  0  0  0  0  0  0  0  0
   13.0748   21.5885    3.6681 C   0  0  0  0  0  0  0  0  0  0  0  0
   12.8844   17.8776    4.5675 N   0  0  0  0  0  0  0  0  0  0  0  0
   12.9507   17.6669    5.5633 H   0  0  0  0  0  0  0  0  0  0  0  0
   12.4228   16.5730    3.9197 C   0  0  0  0  0  0  0  0  0  0  0  0
   13.0104   16.1671    2.5255 C   0  0  0  0  0  0  0  0  0  0  0  0
   12.3376   16.7018    1.2321 C   0  0  0  0  0  0  0  0  0  0  0  0
   10.9959   16.1436    0.7557 C   0  0  0  0  0  0  0  0  0  0  0  0
  1  2  2  0  0  0
  2  3  2  0  0  0
  2 10  1  0  0  0
  2  4  1  0  0  0
 10 12  1  0  0  0
 12 13  1  0  0  0
 13 14  1  0  0  0
 14 15  1  0  0  0
  4  5  2  0  0  0
  4  9  1  0  0  0
  5  6  1  0  0  0
  6  7  2  0  0  0
  7  8  1  0  0  0
  8  9  2  0  0  0
 10 11  1  0  0  0
M  END
> <minimizedAffinity>
-5.50353

$$$$
3D78_NBB_A_120


 15 15  0  0  0  0  0  0  0  0999 V2000
   14.3786   15.9226    4.0003 O   0  0  0  0  0  0  0  0  0  0  0  0
   14.1445   16.5818    2.7196 S   0  0  0  0  0  0  0  0  0  0  0  0
   15.2287   16.0180    1.8431 O   0  0  0  0  0  0  0  0  0  0  0  0
   12.6700   16.1473    2.2058 C   0  0  0  0  0  0  0  0  0  0  0  0
   11.8952   15.2351    2.9011 C   0  0  0  0  0  0  0  0  0  0  0  0
   10.6360   14.8283    2.4991 C   0  0  0  0  0  0  0  0  0  0  0  0
   10.1241   15.3512    1.3309 C   0  0  0  0  0  0  0  0  0  0  0  0
   10.8936   16.2444    0.5916 C   0  0  0  0  0  0  0  0  0  0  0  0
   12.1582   16.6539    1.0207 C   0  0  0  0  0  0  0  0  0  0  0  0
   14.0852   18.1540    2.8215 N   0  0  0  0  0  0  0  0  0  0  0  0
   14.4400   18.3700    3.7531 H   0  0  0  0  0  0  0  0  0  0  0  0
   14.7651   19.1639    1.8981 C   0  0  0  0  0  0  0  0  0  0  0  0
   14.7767   20.6769    2.3037 C   0  0  0  0  0  0  0  0  0  0  0  0
   13.5787   21.2592    3.1021 C   0  0  0  0  0  0  0  0  0  0  0  0
   13.8042   22.0578    4.3867 C   0  0  0  0  0  0  0  0  0  0  0  0
  1  2  2  0  0  0
  2  3  2  0  0  0
  2 10  1  0  0  0
  2  4  1  0  0  0
 10 12  1  0  0  0
 12 13  1  0  0  0
 13 14  1  0  0  0
 14 15  1  0  0  0
  4  5  2  0  0  0
  4  9  1  0  0  0
  5  6  1  0  0  0
  6  7  2  0  0  0
  7  8  1  0  0  0
  8  9  2  0  0  0
 10 11  1  0  0  0
M  END
> <minimizedAffinity>
-5.48908

$$$$
