2FQW_NOS_A_400


 23 25  0  0  0  0  0  0  0  0999 V2000
   32.1876   60.3157   13.0651 C   0  0  0  0  0  0  0  0  0  0  0  0
   32.1730   60.4037   11.6284 O   0  0  0  0  0  0  0  0  0  0  0  0
   33.4975   60.1165   11.1368 C   0  0  0  0  0  0  0  0  0  0  0  0
   34.3658   59.7944   12.3580 C   0  0  0  0  0  0  0  0  0  0  0  0
   34.3109   58.3849   12.6091 O   0  0  0  0  0  0  0  0  0  0  0  0
   33.6446   60.5867   13.4464 C   0  0  0  0  0  0  0  0  0  0  0  0
   33.9481   59.9826   14.7069 O   0  0  0  0  0  0  0  0  0  0  0  0
   33.3854   58.1081   12.6976 H   0  0  0  0  0  0  0  0  0  0  0  0
   33.7333   59.0373   14.6725 H   0  0  0  0  0  0  0  0  0  0  0  0
   33.9784   61.3308   10.4256 N   0  0  0  0  0  0  0  0  0  0  0  0
   34.8458   61.3323    9.4117 C   0  0  0  0  0  0  0  0  0  0  0  0
   35.5332   60.3297    8.8413 N   0  0  0  0  0  0  0  0  0  0  0  0
   36.3562   60.5448    7.8266 C   0  0  0  0  0  0  0  0  0  0  0  0
   36.5245   61.8431    7.3245 N   0  0  0  0  0  0  0  0  0  0  0  0
   35.8242   62.9131    7.9039 C   0  0  0  0  0  0  0  0  0  0  0  0
   35.9756   64.0592    7.4781 O   0  0  0  0  0  0  0  0  0  0  0  0
   34.9684   62.6452    8.9693 C   0  0  0  0  0  0  0  0  0  0  0  0
   34.1702   63.3905    9.7334 N   0  0  0  0  0  0  0  0  0  0  0  0
   33.5780   62.5876   10.6173 C   0  0  0  0  0  0  0  0  0  0  0  0
   36.5561   64.2194    6.7602 H   0  0  0  0  0  0  0  0  0  0  0  0
   31.2185   61.3685   13.6157 C   0  0  0  0  0  0  0  0  0  0  0  0
   31.6351   62.6954   13.2742 O   0  0  0  0  0  0  0  0  0  0  0  0
   31.6547   62.7899   12.3090 H   0  0  0  0  0  0  0  0  0  0  0  0
 10 11  1  0  0  0
 10 19  1  0  0  0
 10  3  1  0  0  0
 11 12  1  0  0  0
 11 17  2  0  0  0
 12 13  2  0  0  0
 13 14  1  0  0  0
 14 15  2  0  0  0
 15 16  1  0  0  0
 15 17  1  0  0  0
 17 18  1  0  0  0
 18 19  2  0  0  0
 21 22  1  0  0  0
 21  1  1  0  0  0
  1  2  1  0  0  0
  1  6  1  0  0  0
  2  3  1  0  0  0
  3  4  1  0  0  0
  4  5  1  0  0  0
  4  6  1  0  0  0
  6  7  1  0  0  0
 16 20  1  0  0  0
 22 23  1  0  0  0
  5  8  1  0  0  0
  7  9  1  0  0  0
M  END
> <minimizedAffinity>
-9.51583

$$$$
2FQW_NOS_A_400


 23 25  0  0  0  0  0  0  0  0999 V2000
   35.9762   59.1348    6.9838 C   0  0  0  0  0  0  0  0  0  0  0  0
   36.3810   60.0064    8.0555 O   0  0  0  0  0  0  0  0  0  0  0  0
   35.8874   59.4671    9.2980 C   0  0  0  0  0  0  0  0  0  0  0  0
   35.1663   58.1576    8.9601 C   0  0  0  0  0  0  0  0  0  0  0  0
   36.1050   57.0777    9.0322 O   0  0  0  0  0  0  0  0  0  0  0  0
   34.7304   58.4270    7.5213 C   0  0  0  0  0  0  0  0  0  0  0  0
   34.5562   57.1659    6.8692 O   0  0  0  0  0  0  0  0  0  0  0  0
   36.8641   57.2703    8.4599 H   0  0  0  0  0  0  0  0  0  0  0  0
   35.3645   56.6382    6.9645 H   0  0  0  0  0  0  0  0  0  0  0  0
   34.9577   60.4724    9.8783 N   0  0  0  0  0  0  0  0  0  0  0  0
   34.3279   60.3488   11.0481 C   0  0  0  0  0  0  0  0  0  0  0  0
   34.2961   59.3337   11.9265 N   0  0  0  0  0  0  0  0  0  0  0  0
   33.5995   59.4123   13.0497 C   0  0  0  0  0  0  0  0  0  0  0  0
   32.8734   60.5753   13.3434 N   0  0  0  0  0  0  0  0  0  0  0  0
   32.8819   61.6514   12.4416 C   0  0  0  0  0  0  0  0  0  0  0  0
   32.2365   62.6722   12.6849 O   0  0  0  0  0  0  0  0  0  0  0  0
   33.6271   61.5291   11.2715 C   0  0  0  0  0  0  0  0  0  0  0  0
   33.8584   62.3239   10.2269 N   0  0  0  0  0  0  0  0  0  0  0  0
   34.6611   61.6742    9.3842 C   0  0  0  0  0  0  0  0  0  0  0  0
   31.7412   62.7356   13.4777 H   0  0  0  0  0  0  0  0  0  0  0  0
   35.6886   59.9994    5.7507 C   0  0  0  0  0  0  0  0  0  0  0  0
   35.6680   61.3930    6.0795 O   0  0  0  0  0  0  0  0  0  0  0  0
   36.5344   61.6559    6.4276 H   0  0  0  0  0  0  0  0  0  0  0  0
 10 11  1  0  0  0
 10 19  1  0  0  0
 10  3  1  0  0  0
 11 12  1  0  0  0
 11 17  2  0  0  0
 12 13  2  0  0  0
 13 14  1  0  0  0
 14 15  2  0  0  0
 15 16  1  0  0  0
 15 17  1  0  0  0
 17 18  1  0  0  0
 18 19  2  0  0  0
 21 22  1  0  0  0
 21  1  1  0  0  0
  1  2  1  0  0  0
  1  6  1  0  0  0
  2  3  1  0  0  0
  3  4  1  0  0  0
  4  5  1  0  0  0
  4  6  1  0  0  0
  6  7  1  0  0  0
 16 20  1  0  0  0
 22 23  1  0  0  0
  5  8  1  0  0  0
  7  9  1  0  0  0
M  END
> <minimizedAffinity>
-7.60409

$$$$
2FQW_NOS_A_400


 23 25  0  0  0  0  0  0  0  0999 V2000
   34.9771   57.1084    6.8634 C   0  0  0  0  0  0  0  0  0  0  0  0
   35.5708   58.3977    7.1033 O   0  0  0  0  0  0  0  0  0  0  0  0
   36.0567   58.4346    8.4601 C   0  0  0  0  0  0  0  0  0  0  0  0
   35.7722   57.0589    9.0728 C   0  0  0  0  0  0  0  0  0  0  0  0
   36.9007   56.2060    8.8456 O   0  0  0  0  0  0  0  0  0  0  0  0
   34.5617   56.6183    8.2523 C   0  0  0  0  0  0  0  0  0  0  0  0
   34.5072   55.1892    8.2782 O   0  0  0  0  0  0  0  0  0  0  0  0
   37.1025   56.1825    7.8972 H   0  0  0  0  0  0  0  0  0  0  0  0
   35.3586   54.8278    7.9860 H   0  0  0  0  0  0  0  0  0  0  0  0
   35.3165   59.5142    9.1659 N   0  0  0  0  0  0  0  0  0  0  0  0
   35.3928   60.8138    8.8734 C   0  0  0  0  0  0  0  0  0  0  0  0
   36.1534   61.4714    7.9834 N   0  0  0  0  0  0  0  0  0  0  0  0
   36.0753   62.7858    7.8441 C   0  0  0  0  0  0  0  0  0  0  0  0
   35.1828   63.5221    8.6361 N   0  0  0  0  0  0  0  0  0  0  0  0
   34.3787   62.8636    9.5800 C   0  0  0  0  0  0  0  0  0  0  0  0
   33.6010   63.5036   10.2896 O   0  0  0  0  0  0  0  0  0  0  0  0
   34.4907   61.4803    9.6957 C   0  0  0  0  0  0  0  0  0  0  0  0
   33.9019   60.5583   10.4570 N   0  0  0  0  0  0  0  0  0  0  0  0
   34.4118   59.3699   10.1341 C   0  0  0  0  0  0  0  0  0  0  0  0
   33.5398   64.4340   10.1968 H   0  0  0  0  0  0  0  0  0  0  0  0
   33.7873   57.3019    5.9159 C   0  0  0  0  0  0  0  0  0  0  0  0
   32.7487   56.3509    6.1760 O   0  0  0  0  0  0  0  0  0  0  0  0
   32.4243   56.4663    7.0829 H   0  0  0  0  0  0  0  0  0  0  0  0
 10 11  1  0  0  0
 10 19  1  0  0  0
 10  3  1  0  0  0
 11 12  1  0  0  0
 11 17  2  0  0  0
 12 13  2  0  0  0
 13 14  1  0  0  0
 14 15  2  0  0  0
 15 16  1  0  0  0
 15 17  1  0  0  0
 17 18  1  0  0  0
 18 19  2  0  0  0
 21 22  1  0  0  0
 21  1  1  0  0  0
  1  2  1  0  0  0
  1  6  1  0  0  0
  2  3  1  0  0  0
  3  4  1  0  0  0
  4  5  1  0  0  0
  4  6  1  0  0  0
  6  7  1  0  0  0
 16 20  1  0  0  0
 22 23  1  0  0  0
  5  8  1  0  0  0
  7  9  1  0  0  0
M  END
> <minimizedAffinity>
-7.50961

$$$$
2FQW_NOS_A_400


 23 25  0  0  0  0  0  0  0  0999 V2000
   32.7657   60.7349   12.5572 C   0  0  0  0  0  0  0  0  0  0  0  0
   32.6907   60.4176   11.1551 O   0  0  0  0  0  0  0  0  0  0  0  0
   33.8351   59.6142   10.8038 C   0  0  0  0  0  0  0  0  0  0  0  0
   34.6392   59.3976   12.0904 C   0  0  0  0  0  0  0  0  0  0  0  0
   34.1786   58.2016   12.7309 O   0  0  0  0  0  0  0  0  0  0  0  0
   34.2572   60.6435   12.8869 C   0  0  0  0  0  0  0  0  0  0  0  0
   34.4414   60.3535   14.2755 O   0  0  0  0  0  0  0  0  0  0  0  0
   33.2200   58.2570   12.8682 H   0  0  0  0  0  0  0  0  0  0  0  0
   33.9508   59.5490   14.5056 H   0  0  0  0  0  0  0  0  0  0  0  0
   34.6144   60.3738    9.7901 N   0  0  0  0  0  0  0  0  0  0  0  0
   34.5568   61.6947    9.6109 C   0  0  0  0  0  0  0  0  0  0  0  0
   33.7873   62.6282   10.1935 N   0  0  0  0  0  0  0  0  0  0  0  0
   33.8882   63.9082    9.8702 C   0  0  0  0  0  0  0  0  0  0  0  0
   34.8149   64.3144    8.8995 N   0  0  0  0  0  0  0  0  0  0  0  0
   35.6293   63.3609    8.2680 C   0  0  0  0  0  0  0  0  0  0  0  0
   36.4373   63.7065    7.4045 O   0  0  0  0  0  0  0  0  0  0  0  0
   35.4925   62.0248    8.6363 C   0  0  0  0  0  0  0  0  0  0  0  0
   36.0817   60.8898    8.2608 N   0  0  0  0  0  0  0  0  0  0  0  0
   35.5401   59.8929    8.9604 C   0  0  0  0  0  0  0  0  0  0  0  0
   36.5147   64.6105    7.1704 H   0  0  0  0  0  0  0  0  0  0  0  0
   32.1934   62.1432   12.7571 C   0  0  0  0  0  0  0  0  0  0  0  0
   30.9662   62.1116   13.4945 O   0  0  0  0  0  0  0  0  0  0  0  0
   31.1262   61.7317   14.3725 H   0  0  0  0  0  0  0  0  0  0  0  0
 10 11  1  0  0  0
 10 19  1  0  0  0
 10  3  1  0  0  0
 11 12  1  0  0  0
 11 17  2  0  0  0
 12 13  2  0  0  0
 13 14  1  0  0  0
 14 15  2  0  0  0
 15 16  1  0  0  0
 15 17  1  0  0  0
 17 18  1  0  0  0
 18 19  2  0  0  0
 21 22  1  0  0  0
 21  1  1  0  0  0
  1  2  1  0  0  0
  1  6  1  0  0  0
  2  3  1  0  0  0
  3  4  1  0  0  0
  4  5  1  0  0  0
  4  6  1  0  0  0
  6  7  1  0  0  0
 16 20  1  0  0  0
 22 23  1  0  0  0
  5  8  1  0  0  0
  7  9  1  0  0  0
M  END
> <minimizedAffinity>
-7.49079

$$$$
2FQW_NOS_A_400


 23 25  0  0  0  0  0  0  0  0999 V2000
   32.7731   60.7564   12.7194 C   0  0  0  0  0  0  0  0  0  0  0  0
   32.5796   60.3040   11.3667 O   0  0  0  0  0  0  0  0  0  0  0  0
   33.6137   59.3513   11.0483 C   0  0  0  0  0  0  0  0  0  0  0  0
   34.4706   59.1862   12.3082 C   0  0  0  0  0  0  0  0  0  0  0  0
   33.9334   58.1195   13.0996 O   0  0  0  0  0  0  0  0  0  0  0  0
   34.2656   60.5420   12.9807 C   0  0  0  0  0  0  0  0  0  0  0  0
   34.5058   60.3809   14.3816 O   0  0  0  0  0  0  0  0  0  0  0  0
   32.9955   58.2904   13.2787 H   0  0  0  0  0  0  0  0  0  0  0  0
   33.9524   59.6616   14.7239 H   0  0  0  0  0  0  0  0  0  0  0  0
   34.4006   59.9135    9.9185 N   0  0  0  0  0  0  0  0  0  0  0  0
   34.8959   59.2053    8.9018 C   0  0  0  0  0  0  0  0  0  0  0  0
   34.8916   57.8833    8.6670 N   0  0  0  0  0  0  0  0  0  0  0  0
   35.4452   57.3724    7.5781 C   0  0  0  0  0  0  0  0  0  0  0  0
   36.0534   58.2177    6.6391 N   0  0  0  0  0  0  0  0  0  0  0  0
   36.0794   59.6040    6.8598 C   0  0  0  0  0  0  0  0  0  0  0  0
   36.6230   60.3534    6.0470 O   0  0  0  0  0  0  0  0  0  0  0  0
   35.4861   60.1017    8.0173 C   0  0  0  0  0  0  0  0  0  0  0  0
   35.3266   61.3205    8.5324 N   0  0  0  0  0  0  0  0  0  0  0  0
   34.6729   61.1977    9.6875 C   0  0  0  0  0  0  0  0  0  0  0  0
   37.0167   59.9995    5.2739 H   0  0  0  0  0  0  0  0  0  0  0  0
   32.3582   62.2307   12.7916 C   0  0  0  0  0  0  0  0  0  0  0  0
   31.0406   62.3797   13.3325 O   0  0  0  0  0  0  0  0  0  0  0  0
   31.0192   62.0236   14.2345 H   0  0  0  0  0  0  0  0  0  0  0  0
 10 11  1  0  0  0
 10 19  1  0  0  0
 10  3  1  0  0  0
 11 12  1  0  0  0
 11 17  2  0  0  0
 12 13  2  0  0  0
 13 14  1  0  0  0
 14 15  2  0  0  0
 15 16  1  0  0  0
 15 17  1  0  0  0
 17 18  1  0  0  0
 18 19  2  0  0  0
 21 22  1  0  0  0
 21  1  1  0  0  0
  1  2  1  0  0  0
  1  6  1  0  0  0
  2  3  1  0  0  0
  3  4  1  0  0  0
  4  5  1  0  0  0
  4  6  1  0  0  0
  6  7  1  0  0  0
 16 20  1  0  0  0
 22 23  1  0  0  0
  5  8  1  0  0  0
  7  9  1  0  0  0
M  END
> <minimizedAffinity>
-6.95980

$$$$
2FQW_NOS_A_400


 23 25  0  0  0  0  0  0  0  0999 V2000
   35.8347   58.6192    6.7512 C   0  0  0  0  0  0  0  0  0  0  0  0
   36.3787   59.5231    7.7305 O   0  0  0  0  0  0  0  0  0  0  0  0
   36.0678   59.0184    9.0447 C   0  0  0  0  0  0  0  0  0  0  0  0
   35.3166   57.6970    8.8482 C   0  0  0  0  0  0  0  0  0  0  0  0
   36.2645   56.6230    8.8187 O   0  0  0  0  0  0  0  0  0  0  0  0
   34.6818   57.9228    7.4775 C   0  0  0  0  0  0  0  0  0  0  0  0
   34.4278   56.6426    6.8922 O   0  0  0  0  0  0  0  0  0  0  0  0
   36.9346   56.8017    8.1406 H   0  0  0  0  0  0  0  0  0  0  0  0
   35.2456   56.1209    6.8883 H   0  0  0  0  0  0  0  0  0  0  0  0
   35.2207   60.0367    9.7207 N   0  0  0  0  0  0  0  0  0  0  0  0
   35.1330   61.3197    9.3647 C   0  0  0  0  0  0  0  0  0  0  0  0
   35.7871   62.0171    8.4219 N   0  0  0  0  0  0  0  0  0  0  0  0
   35.5482   63.3041    8.2230 C   0  0  0  0  0  0  0  0  0  0  0  0
   34.5933   63.9683    9.0060 N   0  0  0  0  0  0  0  0  0  0  0  0
   33.8974   63.2676   10.0039 C   0  0  0  0  0  0  0  0  0  0  0  0
   33.0661   63.8458   10.7057 O   0  0  0  0  0  0  0  0  0  0  0  0
   34.1778   61.9151   10.1816 C   0  0  0  0  0  0  0  0  0  0  0  0
   33.7228   60.9694   11.0032 N   0  0  0  0  0  0  0  0  0  0  0  0
   34.3638   59.8352   10.7216 C   0  0  0  0  0  0  0  0  0  0  0  0
   32.8913   64.7564   10.5708 H   0  0  0  0  0  0  0  0  0  0  0  0
   35.3710   59.4465    5.5465 C   0  0  0  0  0  0  0  0  0  0  0  0
   35.6564   60.8385    5.7240 O   0  0  0  0  0  0  0  0  0  0  0  0
   36.6140   60.9631    5.8153 H   0  0  0  0  0  0  0  0  0  0  0  0
 10 11  1  0  0  0
 10 19  1  0  0  0
 10  3  1  0  0  0
 11 12  1  0  0  0
 11 17  2  0  0  0
 12 13  2  0  0  0
 13 14  1  0  0  0
 14 15  2  0  0  0
 15 16  1  0  0  0
 15 17  1  0  0  0
 17 18  1  0  0  0
 18 19  2  0  0  0
 21 22  1  0  0  0
 21  1  1  0  0  0
  1  2  1  0  0  0
  1  6  1  0  0  0
  2  3  1  0  0  0
  3  4  1  0  0  0
  4  5  1  0  0  0
  4  6  1  0  0  0
  6  7  1  0  0  0
 16 20  1  0  0  0
 22 23  1  0  0  0
  5  8  1  0  0  0
  7  9  1  0  0  0
M  END
> <minimizedAffinity>
-6.77566

$$$$
