3N9R_TD3_A_311


 19 18  0  0  0  0  0  0  0  0999 V2000
  -13.8606   -4.8887  -43.9425 O   0  0  0  0  0  0  0  0  0  0  0  0
  -12.4959   -5.0812  -43.6826 N   0  0  0  0  0  0  0  0  0  0  0  0
  -11.4905   -4.7616  -44.6886 C   0  0  0  0  0  0  0  0  0  0  0  0
  -11.8475   -4.4715  -45.7955 O   0  0  0  0  0  0  0  0  0  0  0  0
  -14.3781   -5.1530  -43.1658 H   0  0  0  0  0  0  0  0  0  0  0  0
  -12.1256   -5.7661  -42.4522 C   0  0  0  0  0  0  0  0  0  0  0  0
  -11.9799   -7.2896  -42.5332 C   0  0  0  0  0  0  0  0  0  0  0  0
  -11.0596   -8.0176  -41.5543 C   0  0  0  0  0  0  0  0  0  0  0  0
   -9.5910   -7.5847  -41.5751 C   0  0  0  0  0  0  0  0  0  0  0  0
   -9.1731   -6.5726  -40.7015 O   0  0  0  0  0  0  0  0  0  0  0  0
   -9.6113   -5.7401  -40.9378 H   0  0  0  0  0  0  0  0  0  0  0  0
  -10.0967   -5.3635  -44.4782 C   0  0  0  0  0  0  0  0  0  0  0  0
   -9.0736   -4.6356  -45.0793 O   0  0  0  0  0  0  0  0  0  0  0  0
   -7.7200   -4.1518  -44.2637 P   0  0  0  0  0  0  0  0  0  0  0  0
   -6.4491   -4.4762  -45.2267 O   0  0  0  0  0  0  0  0  0  0  0  0
   -7.6583   -4.9849  -42.8605 O   0  0  0  0  0  0  0  0  0  0  0  0
   -7.7875   -2.7253  -43.9506 O   0  0  0  0  0  0  0  0  0  0  0  0
   -6.5249   -3.9626  -46.0461 H   0  0  0  0  0  0  0  0  0  0  0  0
   -8.4315   -4.7629  -42.3184 H   0  0  0  0  0  0  0  0  0  0  0  0
  2  6  1  0  0  0
  2  1  1  0  0  0
  7  6  1  0  0  0
  8  7  1  0  0  0
  9  8  1  0  0  0
 10  9  1  0  0  0
  3  2  1  0  0  0
  4  3  2  0  0  0
 12  3  1  0  0  0
 13 12  1  0  0  0
 14 13  1  0  0  0
 14 17  2  0  0  0
 15 14  1  0  0  0
 16 14  1  0  0  0
  1  5  1  0  0  0
 10 11  1  0  0  0
 15 18  1  0  0  0
 16 19  1  0  0  0
M  END
> <minimizedAffinity>
-7.33611

$$$$
3N9R_TD3_A_311


 19 18  0  0  0  0  0  0  0  0999 V2000
   -9.3425   -6.5977  -40.2467 O   0  0  0  0  0  0  0  0  0  0  0  0
   -9.9849   -6.8429  -41.4691 N   0  0  0  0  0  0  0  0  0  0  0  0
  -11.3612   -6.4162  -41.6897 C   0  0  0  0  0  0  0  0  0  0  0  0
  -11.9910   -5.9842  -40.7658 O   0  0  0  0  0  0  0  0  0  0  0  0
   -8.4388   -6.9487  -40.2803 H   0  0  0  0  0  0  0  0  0  0  0  0
   -9.3012   -7.6821  -42.4430 C   0  0  0  0  0  0  0  0  0  0  0  0
   -8.1105   -7.0525  -43.1741 C   0  0  0  0  0  0  0  0  0  0  0  0
   -7.9637   -5.5321  -43.2177 C   0  0  0  0  0  0  0  0  0  0  0  0
   -8.1588   -4.8843  -44.5914 C   0  0  0  0  0  0  0  0  0  0  0  0
   -9.3871   -5.0453  -45.2453 O   0  0  0  0  0  0  0  0  0  0  0  0
   -9.5159   -5.9811  -45.4657 H   0  0  0  0  0  0  0  0  0  0  0  0
  -12.0971   -7.0618  -42.8690 C   0  0  0  0  0  0  0  0  0  0  0  0
  -11.8671   -6.4307  -44.0884 O   0  0  0  0  0  0  0  0  0  0  0  0
  -12.4664   -4.9332  -44.4489 P   0  0  0  0  0  0  0  0  0  0  0  0
  -14.0035   -4.9006  -43.9158 O   0  0  0  0  0  0  0  0  0  0  0  0
  -12.3709   -4.7336  -46.0668 O   0  0  0  0  0  0  0  0  0  0  0  0
  -11.6688   -3.8893  -43.8074 O   0  0  0  0  0  0  0  0  0  0  0  0
  -14.0147   -5.0223  -42.9536 H   0  0  0  0  0  0  0  0  0  0  0  0
  -11.4409   -4.7594  -46.3414 H   0  0  0  0  0  0  0  0  0  0  0  0
  2  6  1  0  0  0
  2  1  1  0  0  0
  7  6  1  0  0  0
  8  7  1  0  0  0
  9  8  1  0  0  0
 10  9  1  0  0  0
  3  2  1  0  0  0
  4  3  2  0  0  0
 12  3  1  0  0  0
 13 12  1  0  0  0
 14 13  1  0  0  0
 14 17  2  0  0  0
 15 14  1  0  0  0
 16 14  1  0  0  0
  1  5  1  0  0  0
 10 11  1  0  0  0
 15 18  1  0  0  0
 16 19  1  0  0  0
M  END
> <minimizedAffinity>
-7.19906

$$$$
3N9R_TD3_A_311


 19 18  0  0  0  0  0  0  0  0999 V2000
   -9.2556   -6.4907  -40.3060 O   0  0  0  0  0  0  0  0  0  0  0  0
   -9.9414   -6.7557  -41.5004 N   0  0  0  0  0  0  0  0  0  0  0  0
  -11.3663   -6.4732  -41.6234 C   0  0  0  0  0  0  0  0  0  0  0  0
  -11.9811   -6.1498  -40.6465 O   0  0  0  0  0  0  0  0  0  0  0  0
   -8.3234   -6.7394  -40.4065 H   0  0  0  0  0  0  0  0  0  0  0  0
   -9.2327   -7.4757  -42.5489 C   0  0  0  0  0  0  0  0  0  0  0  0
   -8.3656   -6.6346  -43.4920 C   0  0  0  0  0  0  0  0  0  0  0  0
   -6.8726   -6.9340  -43.6204 C   0  0  0  0  0  0  0  0  0  0  0  0
   -6.0009   -6.4855  -42.4442 C   0  0  0  0  0  0  0  0  0  0  0  0
   -6.5499   -5.6213  -41.4880 O   0  0  0  0  0  0  0  0  0  0  0  0
   -6.7507   -4.7672  -41.9016 H   0  0  0  0  0  0  0  0  0  0  0  0
  -12.0995   -7.1478  -42.7880 C   0  0  0  0  0  0  0  0  0  0  0  0
  -11.8828   -6.5348  -44.0190 O   0  0  0  0  0  0  0  0  0  0  0  0
  -12.2487   -4.9490  -44.3065 P   0  0  0  0  0  0  0  0  0  0  0  0
  -13.7315   -4.6886  -43.6890 O   0  0  0  0  0  0  0  0  0  0  0  0
  -12.2032   -4.7111  -45.9215 O   0  0  0  0  0  0  0  0  0  0  0  0
  -11.2613   -4.0695  -43.6828 O   0  0  0  0  0  0  0  0  0  0  0  0
  -13.7140   -4.8403  -42.7311 H   0  0  0  0  0  0  0  0  0  0  0  0
  -11.3047   -4.8763  -46.2475 H   0  0  0  0  0  0  0  0  0  0  0  0
  2  6  1  0  0  0
  2  1  1  0  0  0
  7  6  1  0  0  0
  8  7  1  0  0  0
  9  8  1  0  0  0
 10  9  1  0  0  0
  3  2  1  0  0  0
  4  3  2  0  0  0
 12  3  1  0  0  0
 13 12  1  0  0  0
 14 13  1  0  0  0
 14 17  2  0  0  0
 15 14  1  0  0  0
 16 14  1  0  0  0
  1  5  1  0  0  0
 10 11  1  0  0  0
 15 18  1  0  0  0
 16 19  1  0  0  0
M  END
> <minimizedAffinity>
-7.03918

$$$$
3N9R_TD3_A_311


 19 18  0  0  0  0  0  0  0  0999 V2000
  -11.8055   -4.3418  -45.8869 O   0  0  0  0  0  0  0  0  0  0  0  0
  -11.5387   -5.1799  -44.7945 N   0  0  0  0  0  0  0  0  0  0  0  0
  -12.5752   -5.4869  -43.8165 C   0  0  0  0  0  0  0  0  0  0  0  0
  -13.6183   -4.8988  -43.8711 O   0  0  0  0  0  0  0  0  0  0  0  0
  -11.0053   -4.2509  -46.4277 H   0  0  0  0  0  0  0  0  0  0  0  0
  -10.1604   -5.5931  -44.5721 C   0  0  0  0  0  0  0  0  0  0  0  0
   -9.2085   -4.5308  -44.0115 C   0  0  0  0  0  0  0  0  0  0  0  0
   -7.6981   -4.7115  -44.1575 C   0  0  0  0  0  0  0  0  0  0  0  0
   -7.0089   -3.7714  -45.1503 C   0  0  0  0  0  0  0  0  0  0  0  0
   -7.1906   -2.3896  -45.0092 O   0  0  0  0  0  0  0  0  0  0  0  0
   -8.1219   -2.1682  -45.1659 H   0  0  0  0  0  0  0  0  0  0  0  0
  -12.1031   -6.0644  -42.4776 C   0  0  0  0  0  0  0  0  0  0  0  0
  -11.5202   -7.3242  -42.5832 O   0  0  0  0  0  0  0  0  0  0  0  0
  -10.3738   -7.8719  -41.5262 P   0  0  0  0  0  0  0  0  0  0  0  0
  -11.0420   -9.1086  -40.7064 O   0  0  0  0  0  0  0  0  0  0  0  0
   -9.9656   -6.6316  -40.5456 O   0  0  0  0  0  0  0  0  0  0  0  0
   -9.1759   -8.3069  -42.2428 O   0  0  0  0  0  0  0  0  0  0  0  0
  -11.2685   -9.8212  -41.3242 H   0  0  0  0  0  0  0  0  0  0  0  0
   -9.5724   -5.9185  -41.0728 H   0  0  0  0  0  0  0  0  0  0  0  0
  2  6  1  0  0  0
  2  1  1  0  0  0
  7  6  1  0  0  0
  8  7  1  0  0  0
  9  8  1  0  0  0
 10  9  1  0  0  0
  3  2  1  0  0  0
  4  3  2  0  0  0
 12  3  1  0  0  0
 13 12  1  0  0  0
 14 13  1  0  0  0
 14 17  2  0  0  0
 15 14  1  0  0  0
 16 14  1  0  0  0
  1  5  1  0  0  0
 10 11  1  0  0  0
 15 18  1  0  0  0
 16 19  1  0  0  0
M  END
> <minimizedAffinity>
-6.83015

$$$$
3N9R_TD3_A_311


 19 18  0  0  0  0  0  0  0  0999 V2000
   -6.4887   -5.5838  -41.9153 O   0  0  0  0  0  0  0  0  0  0  0  0
   -7.4370   -5.9049  -42.8974 N   0  0  0  0  0  0  0  0  0  0  0  0
   -7.9095   -4.8973  -43.8390 C   0  0  0  0  0  0  0  0  0  0  0  0
   -7.5915   -3.7534  -43.6742 O   0  0  0  0  0  0  0  0  0  0  0  0
   -6.2945   -6.3714  -41.3836 H   0  0  0  0  0  0  0  0  0  0  0  0
   -8.0598   -7.2198  -42.8405 C   0  0  0  0  0  0  0  0  0  0  0  0
   -9.0102   -7.4777  -41.6662 C   0  0  0  0  0  0  0  0  0  0  0  0
  -10.5000   -7.6943  -41.9283 C   0  0  0  0  0  0  0  0  0  0  0  0
  -11.4551   -6.9564  -40.9861 C   0  0  0  0  0  0  0  0  0  0  0  0
  -12.2523   -5.9271  -41.5033 O   0  0  0  0  0  0  0  0  0  0  0  0
  -11.6862   -5.1963  -41.7972 H   0  0  0  0  0  0  0  0  0  0  0  0
   -9.2035   -5.2200  -44.5943 C   0  0  0  0  0  0  0  0  0  0  0  0
  -10.2856   -4.4288  -44.2189 O   0  0  0  0  0  0  0  0  0  0  0  0
  -11.8385   -4.7589  -44.6783 P   0  0  0  0  0  0  0  0  0  0  0  0
  -12.0344   -4.1257  -46.1644 O   0  0  0  0  0  0  0  0  0  0  0  0
  -12.8389   -4.0784  -43.5816 O   0  0  0  0  0  0  0  0  0  0  0  0
  -12.0786   -6.2011  -44.6892 O   0  0  0  0  0  0  0  0  0  0  0  0
  -11.4235   -4.5564  -46.7825 H   0  0  0  0  0  0  0  0  0  0  0  0
  -12.6897   -4.4832  -42.7129 H   0  0  0  0  0  0  0  0  0  0  0  0
  2  6  1  0  0  0
  2  1  1  0  0  0
  7  6  1  0  0  0
  8  7  1  0  0  0
  9  8  1  0  0  0
 10  9  1  0  0  0
  3  2  1  0  0  0
  4  3  2  0  0  0
 12  3  1  0  0  0
 13 12  1  0  0  0
 14 13  1  0  0  0
 14 17  2  0  0  0
 15 14  1  0  0  0
 16 14  1  0  0  0
  1  5  1  0  0  0
 10 11  1  0  0  0
 15 18  1  0  0  0
 16 19  1  0  0  0
M  END
> <minimizedAffinity>
-6.68187

$$$$
3N9R_TD3_A_311


 19 18  0  0  0  0  0  0  0  0999 V2000
   -8.0143   -8.3640  -42.6444 O   0  0  0  0  0  0  0  0  0  0  0  0
   -8.9336   -7.3165  -42.4875 N   0  0  0  0  0  0  0  0  0  0  0  0
  -10.2340   -7.5485  -41.8709 C   0  0  0  0  0  0  0  0  0  0  0  0
  -10.5715   -8.6736  -41.6321 O   0  0  0  0  0  0  0  0  0  0  0  0
   -7.2102   -8.0275  -43.0701 H   0  0  0  0  0  0  0  0  0  0  0  0
   -8.6229   -6.0371  -43.1093 C   0  0  0  0  0  0  0  0  0  0  0  0
   -8.4659   -6.0363  -44.6338 C   0  0  0  0  0  0  0  0  0  0  0  0
   -7.8333   -4.8329  -45.3315 C   0  0  0  0  0  0  0  0  0  0  0  0
   -7.2284   -3.7714  -44.4085 C   0  0  0  0  0  0  0  0  0  0  0  0
   -8.0733   -2.8072  -43.8438 O   0  0  0  0  0  0  0  0  0  0  0  0
   -8.4416   -2.2487  -44.5462 H   0  0  0  0  0  0  0  0  0  0  0  0
  -11.3011   -6.4723  -42.0989 C   0  0  0  0  0  0  0  0  0  0  0  0
  -11.9043   -6.5355  -43.3520 O   0  0  0  0  0  0  0  0  0  0  0  0
  -12.2520   -5.1907  -44.2475 P   0  0  0  0  0  0  0  0  0  0  0  0
  -11.2422   -4.0173  -43.7460 O   0  0  0  0  0  0  0  0  0  0  0  0
  -13.8182   -4.8087  -43.9872 O   0  0  0  0  0  0  0  0  0  0  0  0
  -12.0735   -5.4591  -45.6736 O   0  0  0  0  0  0  0  0  0  0  0  0
  -10.3257   -4.2838  -43.9186 H   0  0  0  0  0  0  0  0  0  0  0  0
  -14.3836   -5.5324  -44.2994 H   0  0  0  0  0  0  0  0  0  0  0  0
  2  6  1  0  0  0
  2  1  1  0  0  0
  7  6  1  0  0  0
  8  7  1  0  0  0
  9  8  1  0  0  0
 10  9  1  0  0  0
  3  2  1  0  0  0
  4  3  2  0  0  0
 12  3  1  0  0  0
 13 12  1  0  0  0
 14 13  1  0  0  0
 14 17  2  0  0  0
 15 14  1  0  0  0
 16 14  1  0  0  0
  1  5  1  0  0  0
 10 11  1  0  0  0
 15 18  1  0  0  0
 16 19  1  0  0  0
M  END
> <minimizedAffinity>
-6.62824

$$$$
3N9R_TD3_A_311


 19 18  0  0  0  0  0  0  0  0999 V2000
   -8.5327   -8.5410  -41.5919 O   0  0  0  0  0  0  0  0  0  0  0  0
   -9.4263   -7.4720  -41.7523 N   0  0  0  0  0  0  0  0  0  0  0  0
  -10.8557   -7.6521  -41.5300 C   0  0  0  0  0  0  0  0  0  0  0  0
  -11.2814   -8.7585  -41.3525 O   0  0  0  0  0  0  0  0  0  0  0  0
   -7.6302   -8.2390  -41.7799 H   0  0  0  0  0  0  0  0  0  0  0  0
   -8.9111   -6.2298  -42.3103 C   0  0  0  0  0  0  0  0  0  0  0  0
   -7.4709   -6.2590  -42.8336 C   0  0  0  0  0  0  0  0  0  0  0  0
   -7.1957   -6.6784  -44.2771 C   0  0  0  0  0  0  0  0  0  0  0  0
   -6.4420   -7.9995  -44.4534 C   0  0  0  0  0  0  0  0  0  0  0  0
   -6.4056   -8.9039  -43.3842 O   0  0  0  0  0  0  0  0  0  0  0  0
   -5.9144   -8.5116  -42.6455 H   0  0  0  0  0  0  0  0  0  0  0  0
  -11.7787   -6.5708  -42.1025 C   0  0  0  0  0  0  0  0  0  0  0  0
  -11.8044   -6.5328  -43.4939 O   0  0  0  0  0  0  0  0  0  0  0  0
  -12.2581   -5.1906  -44.3449 P   0  0  0  0  0  0  0  0  0  0  0  0
  -11.2792   -3.9800  -43.8715 O   0  0  0  0  0  0  0  0  0  0  0  0
  -13.8251   -4.8868  -43.9998 O   0  0  0  0  0  0  0  0  0  0  0  0
  -12.1397   -5.4261  -45.7830 O   0  0  0  0  0  0  0  0  0  0  0  0
  -10.3613   -4.2004  -44.0946 H   0  0  0  0  0  0  0  0  0  0  0  0
  -14.3718   -5.6307  -44.2976 H   0  0  0  0  0  0  0  0  0  0  0  0
  2  6  1  0  0  0
  2  1  1  0  0  0
  7  6  1  0  0  0
  8  7  1  0  0  0
  9  8  1  0  0  0
 10  9  1  0  0  0
  3  2  1  0  0  0
  4  3  2  0  0  0
 12  3  1  0  0  0
 13 12  1  0  0  0
 14 13  1  0  0  0
 14 17  2  0  0  0
 15 14  1  0  0  0
 16 14  1  0  0  0
  1  5  1  0  0  0
 10 11  1  0  0  0
 15 18  1  0  0  0
 16 19  1  0  0  0
M  END
> <minimizedAffinity>
-6.47197

$$$$
3N9R_TD3_A_311


 19 18  0  0  0  0  0  0  0  0999 V2000
  -10.7082   -9.0621  -40.9287 O   0  0  0  0  0  0  0  0  0  0  0  0
  -10.3307   -7.8789  -41.5803 N   0  0  0  0  0  0  0  0  0  0  0  0
   -8.9567   -7.6739  -42.0221 C   0  0  0  0  0  0  0  0  0  0  0  0
   -8.1164   -8.4626  -41.6927 O   0  0  0  0  0  0  0  0  0  0  0  0
  -11.6523   -9.0235  -40.7096 H   0  0  0  0  0  0  0  0  0  0  0  0
  -11.3033   -6.7975  -41.6488 C   0  0  0  0  0  0  0  0  0  0  0  0
  -12.1570   -6.7231  -42.9193 C   0  0  0  0  0  0  0  0  0  0  0  0
  -11.7270   -5.8155  -44.0711 C   0  0  0  0  0  0  0  0  0  0  0  0
  -12.7721   -4.8013  -44.5443 C   0  0  0  0  0  0  0  0  0  0  0  0
  -13.9793   -4.6980  -43.8412 O   0  0  0  0  0  0  0  0  0  0  0  0
  -14.4767   -5.5262  -43.9293 H   0  0  0  0  0  0  0  0  0  0  0  0
   -8.5519   -6.2328  -42.3518 C   0  0  0  0  0  0  0  0  0  0  0  0
   -7.6718   -6.1279  -43.4253 O   0  0  0  0  0  0  0  0  0  0  0  0
   -7.5160   -4.7498  -44.3242 P   0  0  0  0  0  0  0  0  0  0  0  0
   -7.8978   -5.1418  -45.8567 O   0  0  0  0  0  0  0  0  0  0  0  0
   -5.9722   -4.2356  -44.1861 O   0  0  0  0  0  0  0  0  0  0  0  0
   -8.3989   -3.7001  -43.8182 O   0  0  0  0  0  0  0  0  0  0  0  0
   -8.8198   -5.4409  -45.8938 H   0  0  0  0  0  0  0  0  0  0  0  0
   -5.7871   -4.0132  -43.2602 H   0  0  0  0  0  0  0  0  0  0  0  0
  2  6  1  0  0  0
  2  1  1  0  0  0
  7  6  1  0  0  0
  8  7  1  0  0  0
  9  8  1  0  0  0
 10  9  1  0  0  0
  3  2  1  0  0  0
  4  3  2  0  0  0
 12  3  1  0  0  0
 13 12  1  0  0  0
 14 13  1  0  0  0
 14 17  2  0  0  0
 15 14  1  0  0  0
 16 14  1  0  0  0
  1  5  1  0  0  0
 10 11  1  0  0  0
 15 18  1  0  0  0
 16 19  1  0  0  0
M  END
> <minimizedAffinity>
-6.46484

$$$$
3N9R_TD3_A_311


 19 18  0  0  0  0  0  0  0  0999 V2000
   -5.6135   -5.1654  -43.3780 O   0  0  0  0  0  0  0  0  0  0  0  0
   -6.8082   -5.5834  -43.9823 N   0  0  0  0  0  0  0  0  0  0  0  0
   -7.8776   -4.6329  -44.2617 C   0  0  0  0  0  0  0  0  0  0  0  0
   -7.7882   -3.5158  -43.8364 O   0  0  0  0  0  0  0  0  0  0  0  0
   -5.0222   -5.9267  -43.2700 H   0  0  0  0  0  0  0  0  0  0  0  0
   -7.0172   -7.0128  -44.1639 C   0  0  0  0  0  0  0  0  0  0  0  0
   -7.1826   -7.8485  -42.8899 C   0  0  0  0  0  0  0  0  0  0  0  0
   -8.5735   -8.0530  -42.2910 C   0  0  0  0  0  0  0  0  0  0  0  0
   -9.1196   -6.8856  -41.4642 C   0  0  0  0  0  0  0  0  0  0  0  0
   -8.5035   -6.5755  -40.2449 O   0  0  0  0  0  0  0  0  0  0  0  0
   -8.6264   -7.3108  -39.6243 H   0  0  0  0  0  0  0  0  0  0  0  0
   -9.2629   -5.2251  -44.5432 C   0  0  0  0  0  0  0  0  0  0  0  0
  -10.3158   -4.4027  -44.1518 O   0  0  0  0  0  0  0  0  0  0  0  0
  -11.8956   -4.7459  -44.4951 P   0  0  0  0  0  0  0  0  0  0  0  0
  -12.0650   -6.3594  -44.3688 O   0  0  0  0  0  0  0  0  0  0  0  0
  -12.2058   -4.2102  -46.0062 O   0  0  0  0  0  0  0  0  0  0  0  0
  -12.7883   -4.0528  -43.5676 O   0  0  0  0  0  0  0  0  0  0  0  0
  -11.8723   -6.6344  -43.4588 H   0  0  0  0  0  0  0  0  0  0  0  0
  -12.0936   -3.2472  -46.0373 H   0  0  0  0  0  0  0  0  0  0  0  0
  2  6  1  0  0  0
  2  1  1  0  0  0
  7  6  1  0  0  0
  8  7  1  0  0  0
  9  8  1  0  0  0
 10  9  1  0  0  0
  3  2  1  0  0  0
  4  3  2  0  0  0
 12  3  1  0  0  0
 13 12  1  0  0  0
 14 13  1  0  0  0
 14 17  2  0  0  0
 15 14  1  0  0  0
 16 14  1  0  0  0
  1  5  1  0  0  0
 10 11  1  0  0  0
 15 18  1  0  0  0
 16 19  1  0  0  0
M  END
> <minimizedAffinity>
-6.44321

$$$$
3N9R_TD3_A_311


 19 18  0  0  0  0  0  0  0  0999 V2000
   -8.9865   -6.6357  -40.3330 O   0  0  0  0  0  0  0  0  0  0  0  0
   -8.5574   -6.6738  -41.6677 N   0  0  0  0  0  0  0  0  0  0  0  0
   -7.1402   -6.5969  -42.0004 C   0  0  0  0  0  0  0  0  0  0  0  0
   -6.3517   -6.3517  -41.1316 O   0  0  0  0  0  0  0  0  0  0  0  0
   -9.9540   -6.6980  -40.3025 H   0  0  0  0  0  0  0  0  0  0  0  0
   -9.5707   -6.6190  -42.7120 C   0  0  0  0  0  0  0  0  0  0  0  0
  -11.0304   -6.7205  -42.2564 C   0  0  0  0  0  0  0  0  0  0  0  0
  -12.1399   -6.1281  -43.1243 C   0  0  0  0  0  0  0  0  0  0  0  0
  -11.6760   -5.3800  -44.3773 C   0  0  0  0  0  0  0  0  0  0  0  0
  -11.1357   -4.0954  -44.2352 O   0  0  0  0  0  0  0  0  0  0  0  0
  -11.8195   -3.4915  -43.9057 H   0  0  0  0  0  0  0  0  0  0  0  0
   -6.7964   -6.2479  -43.4527 C   0  0  0  0  0  0  0  0  0  0  0  0
   -6.4680   -4.9090  -43.6463 O   0  0  0  0  0  0  0  0  0  0  0  0
   -7.4047   -3.8765  -44.5339 P   0  0  0  0  0  0  0  0  0  0  0  0
   -6.3887   -2.9451  -45.3990 O   0  0  0  0  0  0  0  0  0  0  0  0
   -8.3073   -3.0009  -43.4922 O   0  0  0  0  0  0  0  0  0  0  0  0
   -8.3058   -4.6214  -45.4118 O   0  0  0  0  0  0  0  0  0  0  0  0
   -5.8736   -3.5028  -46.0027 H   0  0  0  0  0  0  0  0  0  0  0  0
   -8.8966   -3.5926  -42.9987 H   0  0  0  0  0  0  0  0  0  0  0  0
  2  6  1  0  0  0
  2  1  1  0  0  0
  7  6  1  0  0  0
  8  7  1  0  0  0
  9  8  1  0  0  0
 10  9  1  0  0  0
  3  2  1  0  0  0
  4  3  2  0  0  0
 12  3  1  0  0  0
 13 12  1  0  0  0
 14 13  1  0  0  0
 14 17  2  0  0  0
 15 14  1  0  0  0
 16 14  1  0  0  0
  1  5  1  0  0  0
 10 11  1  0  0  0
 15 18  1  0  0  0
 16 19  1  0  0  0
M  END
> <minimizedAffinity>
-6.25116

$$$$
