1C3X_8IG_A_306


 16 17  0  0  0  0  0  0  0  0999 V2000
    8.4593  -21.9211   -7.4945 I   0  0  0  0  0  0  0  0  0  0  0  0
   12.4502  -18.6334   -3.8479 O   0  0  0  0  0  0  0  0  0  0  0  0
    9.6189  -20.2174   -6.9698 C   0  0  0  0  0  0  0  0  0  0  0  0
    9.7141  -19.0975   -7.7655 N   0  0  0  0  0  0  0  0  0  0  0  0
   12.2881  -15.1895   -6.9674 N   0  0  0  0  0  0  0  0  0  0  0  0
   12.3287  -16.9564   -5.4326 N   0  0  0  0  0  0  0  0  0  0  0  0
   11.8318  -16.4261   -6.6595 C   0  0  0  0  0  0  0  0  0  0  0  0
   10.9403  -17.0660   -7.5019 N   0  0  0  0  0  0  0  0  0  0  0  0
   10.5739  -18.3217   -7.0433 C   0  0  0  0  0  0  0  0  0  0  0  0
   10.9673  -18.9584   -5.8900 C   0  0  0  0  0  0  0  0  0  0  0  0
   11.9336  -18.2411   -4.9700 C   0  0  0  0  0  0  0  0  0  0  0  0
   10.3577  -20.1971   -5.8536 N   0  0  0  0  0  0  0  0  0  0  0  0
    9.2775  -18.9069   -8.6271 H   0  0  0  0  0  0  0  0  0  0  0  0
   12.9225  -14.7353   -6.3669 H   0  0  0  0  0  0  0  0  0  0  0  0
   11.9856  -14.7443   -7.7917 H   0  0  0  0  0  0  0  0  0  0  0  0
   12.9577  -16.4224   -4.8955 H   0  0  0  0  0  0  0  0  0  0  0  0
  1  3  1  0  0  0
  2 11  2  0  0  0
  3  4  1  0  0  0
  3 12  2  0  0  0
  4  9  1  0  0  0
  5  7  1  0  0  0
  6  7  1  0  0  0
  6 11  1  0  0  0
  7  8  2  0  0  0
  8  9  1  0  0  0
  9 10  2  0  0  0
 10 11  1  0  0  0
 10 12  1  0  0  0
  4 13  1  0  0  0
  5 14  1  0  0  0
  5 15  1  0  0  0
  6 16  1  0  0  0
M  END
> <minimizedAffinity>
-6.32847

$$$$
1C3X_8IG_A_306


 16 17  0  0  0  0  0  0  0  0999 V2000
   12.7574  -17.2060   -5.3632 I   0  0  0  0  0  0  0  0  0  0  0  0
   11.7304  -17.3451    0.8786 O   0  0  0  0  0  0  0  0  0  0  0  0
   12.4252  -18.1640   -3.4938 C   0  0  0  0  0  0  0  0  0  0  0  0
   12.2945  -19.5283   -3.3599 N   0  0  0  0  0  0  0  0  0  0  0  0
   11.4332  -21.9775    0.6143 N   0  0  0  0  0  0  0  0  0  0  0  0
   11.5943  -19.6434    0.6848 N   0  0  0  0  0  0  0  0  0  0  0  0
   11.6364  -20.8397   -0.0902 C   0  0  0  0  0  0  0  0  0  0  0  0
   11.8786  -20.9003   -1.4509 N   0  0  0  0  0  0  0  0  0  0  0  0
   12.0637  -19.6503   -2.0203 C   0  0  0  0  0  0  0  0  0  0  0  0
   12.0517  -18.4209   -1.4049 C   0  0  0  0  0  0  0  0  0  0  0  0
   11.7984  -18.3697    0.0877 C   0  0  0  0  0  0  0  0  0  0  0  0
   12.2705  -17.4559   -2.3683 N   0  0  0  0  0  0  0  0  0  0  0  0
   12.3523  -20.2299   -4.0482 H   0  0  0  0  0  0  0  0  0  0  0  0
   11.2609  -21.9329    1.5826 H   0  0  0  0  0  0  0  0  0  0  0  0
   11.4576  -22.8498    0.1584 H   0  0  0  0  0  0  0  0  0  0  0  0
   11.4204  -19.7008    1.6521 H   0  0  0  0  0  0  0  0  0  0  0  0
  1  3  1  0  0  0
  2 11  2  0  0  0
  3  4  1  0  0  0
  3 12  2  0  0  0
  4  9  1  0  0  0
  5  7  1  0  0  0
  6  7  1  0  0  0
  6 11  1  0  0  0
  7  8  2  0  0  0
  8  9  1  0  0  0
  9 10  2  0  0  0
 10 11  1  0  0  0
 10 12  1  0  0  0
  4 13  1  0  0  0
  5 14  1  0  0  0
  5 15  1  0  0  0
  6 16  1  0  0  0
M  END
> <minimizedAffinity>
-6.07562

$$$$
1C3X_8IG_A_306


 16 17  0  0  0  0  0  0  0  0999 V2000
   12.8912  -17.0966   -5.4839 I   0  0  0  0  0  0  0  0  0  0  0  0
   11.8569  -21.3362   -0.9024 O   0  0  0  0  0  0  0  0  0  0  0  0
   12.4549  -17.7024   -3.4925 C   0  0  0  0  0  0  0  0  0  0  0  0
   12.3121  -16.8143   -2.4497 N   0  0  0  0  0  0  0  0  0  0  0  0
   11.4623  -17.8180    2.1116 N   0  0  0  0  0  0  0  0  0  0  0  0
   11.6704  -19.5470    0.5475 N   0  0  0  0  0  0  0  0  0  0  0  0
   11.6806  -18.1467    0.8167 C   0  0  0  0  0  0  0  0  0  0  0  0
   11.8741  -17.1545   -0.1276 N   0  0  0  0  0  0  0  0  0  0  0  0
   12.0849  -17.6583   -1.4015 C   0  0  0  0  0  0  0  0  0  0  0  0
   12.1023  -18.9714   -1.8089 C   0  0  0  0  0  0  0  0  0  0  0  0
   11.8760  -20.0474   -0.7670 C   0  0  0  0  0  0  0  0  0  0  0  0
   12.3596  -18.9971   -3.1655 N   0  0  0  0  0  0  0  0  0  0  0  0
   12.3611  -15.8311   -2.4581 H   0  0  0  0  0  0  0  0  0  0  0  0
   11.3248  -18.5252    2.7825 H   0  0  0  0  0  0  0  0  0  0  0  0
   11.4412  -16.8717    2.3823 H   0  0  0  0  0  0  0  0  0  0  0  0
   11.5179  -20.1795    1.2864 H   0  0  0  0  0  0  0  0  0  0  0  0
  1  3  1  0  0  0
  2 11  2  0  0  0
  3  4  1  0  0  0
  3 12  2  0  0  0
  4  9  1  0  0  0
  5  7  1  0  0  0
  6  7  1  0  0  0
  6 11  1  0  0  0
  7  8  2  0  0  0
  8  9  1  0  0  0
  9 10  2  0  0  0
 10 11  1  0  0  0
 10 12  1  0  0  0
  4 13  1  0  0  0
  5 14  1  0  0  0
  5 15  1  0  0  0
  6 16  1  0  0  0
M  END
> <minimizedAffinity>
-6.04643

$$$$
1C3X_8IG_A_306


 16 17  0  0  0  0  0  0  0  0999 V2000
   10.4267  -18.3623    3.8976 I   0  0  0  0  0  0  0  0  0  0  0  0
   12.4418  -16.1275   -1.6683 O   0  0  0  0  0  0  0  0  0  0  0  0
   11.0017  -18.5296    1.8570 C   0  0  0  0  0  0  0  0  0  0  0  0
   11.0738  -19.7331    1.1915 N   0  0  0  0  0  0  0  0  0  0  0  0
   12.4256  -20.4824   -3.2970 N   0  0  0  0  0  0  0  0  0  0  0  0
   12.4125  -18.3117   -2.4211 N   0  0  0  0  0  0  0  0  0  0  0  0
   12.1767  -19.7033   -2.2184 C   0  0  0  0  0  0  0  0  0  0  0  0
   11.7141  -20.2711   -1.0447 N   0  0  0  0  0  0  0  0  0  0  0  0
   11.5113  -19.3385   -0.0396 C   0  0  0  0  0  0  0  0  0  0  0  0
   11.6934  -17.9765   -0.0885 C   0  0  0  0  0  0  0  0  0  0  0  0
   12.1878  -17.3662   -1.3837 C   0  0  0  0  0  0  0  0  0  0  0  0
   11.3773  -17.4560    1.1510 N   0  0  0  0  0  0  0  0  0  0  0  0
   10.8651  -20.6383    1.5174 H   0  0  0  0  0  0  0  0  0  0  0  0
   12.7548  -20.0769   -4.1316 H   0  0  0  0  0  0  0  0  0  0  0  0
   12.2776  -21.4544   -3.2469 H   0  0  0  0  0  0  0  0  0  0  0  0
   12.7371  -17.9997   -3.2966 H   0  0  0  0  0  0  0  0  0  0  0  0
  1  3  1  0  0  0
  2 11  2  0  0  0
  3  4  1  0  0  0
  3 12  2  0  0  0
  4  9  1  0  0  0
  5  7  1  0  0  0
  6  7  1  0  0  0
  6 11  1  0  0  0
  7  8  2  0  0  0
  8  9  1  0  0  0
  9 10  2  0  0  0
 10 11  1  0  0  0
 10 12  1  0  0  0
  4 13  1  0  0  0
  5 14  1  0  0  0
  5 15  1  0  0  0
  6 16  1  0  0  0
M  END
> <minimizedAffinity>
-5.97958

$$$$
1C3X_8IG_A_306


 16 17  0  0  0  0  0  0  0  0999 V2000
    8.7162  -19.7349    4.2796 I   0  0  0  0  0  0  0  0  0  0  0  0
   11.5091  -21.4305   -1.1388 O   0  0  0  0  0  0  0  0  0  0  0  0
    9.8665  -19.3917    2.5240 C   0  0  0  0  0  0  0  0  0  0  0  0
   10.3389  -18.1491    2.1646 N   0  0  0  0  0  0  0  0  0  0  0  0
   12.8183  -17.0070   -1.7191 N   0  0  0  0  0  0  0  0  0  0  0  0
   12.1319  -19.2177   -1.3718 N   0  0  0  0  0  0  0  0  0  0  0  0
   12.1614  -17.8694   -0.9086 C   0  0  0  0  0  0  0  0  0  0  0  0
   11.5991  -17.4195    0.2727 N   0  0  0  0  0  0  0  0  0  0  0  0
   10.9640  -18.4258    0.9834 C   0  0  0  0  0  0  0  0  0  0  0  0
   10.8552  -19.7589    0.6648 C   0  0  0  0  0  0  0  0  0  0  0  0
   11.4866  -20.2408   -0.6250 C   0  0  0  0  0  0  0  0  0  0  0  0
   10.1270  -20.3806    1.6601 N   0  0  0  0  0  0  0  0  0  0  0  0
   10.2495  -17.2890    2.6352 H   0  0  0  0  0  0  0  0  0  0  0  0
   13.2180  -17.3286   -2.5594 H   0  0  0  0  0  0  0  0  0  0  0  0
   12.8965  -16.0582   -1.4683 H   0  0  0  0  0  0  0  0  0  0  0  0
   12.5668  -19.4444   -2.2254 H   0  0  0  0  0  0  0  0  0  0  0  0
  1  3  1  0  0  0
  2 11  2  0  0  0
  3  4  1  0  0  0
  3 12  2  0  0  0
  4  9  1  0  0  0
  5  7  1  0  0  0
  6  7  1  0  0  0
  6 11  1  0  0  0
  7  8  2  0  0  0
  8  9  1  0  0  0
  9 10  2  0  0  0
 10 11  1  0  0  0
 10 12  1  0  0  0
  4 13  1  0  0  0
  5 14  1  0  0  0
  5 15  1  0  0  0
  6 16  1  0  0  0
M  END
> <minimizedAffinity>
-5.86691

$$$$
1C3X_8IG_A_306


 16 17  0  0  0  0  0  0  0  0999 V2000
   11.0162  -22.0817    0.7632 I   0  0  0  0  0  0  0  0  0  0  0  0
   12.7754  -18.4299   -4.0953 O   0  0  0  0  0  0  0  0  0  0  0  0
   11.4844  -20.2322   -0.1766 C   0  0  0  0  0  0  0  0  0  0  0  0
   11.3697  -19.0153    0.4579 N   0  0  0  0  0  0  0  0  0  0  0  0
   12.2085  -14.7118   -1.3618 N   0  0  0  0  0  0  0  0  0  0  0  0
   12.4773  -16.6210   -2.6891 N   0  0  0  0  0  0  0  0  0  0  0  0
   12.1334  -16.0619   -1.4232 C   0  0  0  0  0  0  0  0  0  0  0  0
   11.7628  -16.7875   -0.3051 N   0  0  0  0  0  0  0  0  0  0  0  0
   11.7342  -18.1539   -0.5360 C   0  0  0  0  0  0  0  0  0  0  0  0
   12.0378  -18.8314   -1.6933 C   0  0  0  0  0  0  0  0  0  0  0  0
   12.4548  -18.0256   -2.9063 C   0  0  0  0  0  0  0  0  0  0  0  0
   11.8582  -20.1808   -1.4610 N   0  0  0  0  0  0  0  0  0  0  0  0
   11.0971  -18.8188    1.3832 H   0  0  0  0  0  0  0  0  0  0  0  0
   12.4723  -14.1967   -2.1583 H   0  0  0  0  0  0  0  0  0  0  0  0
   11.9991  -14.2449   -0.5207 H   0  0  0  0  0  0  0  0  0  0  0  0
   12.7353  -16.0225   -3.4270 H   0  0  0  0  0  0  0  0  0  0  0  0
  1  3  1  0  0  0
  2 11  2  0  0  0
  3  4  1  0  0  0
  3 12  2  0  0  0
  4  9  1  0  0  0
  5  7  1  0  0  0
  6  7  1  0  0  0
  6 11  1  0  0  0
  7  8  2  0  0  0
  8  9  1  0  0  0
  9 10  2  0  0  0
 10 11  1  0  0  0
 10 12  1  0  0  0
  4 13  1  0  0  0
  5 14  1  0  0  0
  5 15  1  0  0  0
  6 16  1  0  0  0
M  END
> <minimizedAffinity>
-5.76824

$$$$
1C3X_8IG_A_306


 16 17  0  0  0  0  0  0  0  0999 V2000
   12.2371  -16.0964   -6.5956 I   0  0  0  0  0  0  0  0  0  0  0  0
   10.5549  -21.8744   -4.6412 O   0  0  0  0  0  0  0  0  0  0  0  0
   12.0132  -17.6461   -5.1563 C   0  0  0  0  0  0  0  0  0  0  0  0
   12.4554  -17.5360   -3.8567 N   0  0  0  0  0  0  0  0  0  0  0  0
   12.2301  -20.8182   -0.4346 N   0  0  0  0  0  0  0  0  0  0  0  0
   11.4025  -21.2916   -2.5723 N   0  0  0  0  0  0  0  0  0  0  0  0
   12.0277  -20.3601   -1.6921 C   0  0  0  0  0  0  0  0  0  0  0  0
   12.4043  -19.0726   -2.0302 N   0  0  0  0  0  0  0  0  0  0  0  0
   12.1294  -18.7617   -3.3527 C   0  0  0  0  0  0  0  0  0  0  0  0
   11.5354  -19.5499   -4.3100 C   0  0  0  0  0  0  0  0  0  0  0  0
   11.1161  -20.9530   -3.9229 C   0  0  0  0  0  0  0  0  0  0  0  0
   11.4766  -18.8275   -5.4855 N   0  0  0  0  0  0  0  0  0  0  0  0
   12.8912  -16.7748   -3.4097 H   0  0  0  0  0  0  0  0  0  0  0  0
   11.9616  -21.7347   -0.1954 H   0  0  0  0  0  0  0  0  0  0  0  0
   12.6458  -20.2349    0.2409 H   0  0  0  0  0  0  0  0  0  0  0  0
   11.1646  -22.1865   -2.2382 H   0  0  0  0  0  0  0  0  0  0  0  0
  1  3  1  0  0  0
  2 11  2  0  0  0
  3  4  1  0  0  0
  3 12  2  0  0  0
  4  9  1  0  0  0
  5  7  1  0  0  0
  6  7  1  0  0  0
  6 11  1  0  0  0
  7  8  2  0  0  0
  8  9  1  0  0  0
  9 10  2  0  0  0
 10 11  1  0  0  0
 10 12  1  0  0  0
  4 13  1  0  0  0
  5 14  1  0  0  0
  5 15  1  0  0  0
  6 16  1  0  0  0
M  END
> <minimizedAffinity>
-5.63655

$$$$
1C3X_8IG_A_306


 16 17  0  0  0  0  0  0  0  0999 V2000
   10.1366  -23.6460    0.4548 I   0  0  0  0  0  0  0  0  0  0  0  0
   11.1370  -17.5620    1.8755 O   0  0  0  0  0  0  0  0  0  0  0  0
   10.7647  -21.6567    0.0409 C   0  0  0  0  0  0  0  0  0  0  0  0
   11.3421  -21.2825   -1.1520 N   0  0  0  0  0  0  0  0  0  0  0  0
   12.9610  -16.9873   -2.3625 N   0  0  0  0  0  0  0  0  0  0  0  0
   12.0314  -17.3377   -0.2430 N   0  0  0  0  0  0  0  0  0  0  0  0
   12.3920  -17.8750   -1.5137 C   0  0  0  0  0  0  0  0  0  0  0  0
   12.1869  -19.1834   -1.9135 N   0  0  0  0  0  0  0  0  0  0  0  0
   11.5973  -19.9604   -0.9288 C   0  0  0  0  0  0  0  0  0  0  0  0
   11.1976  -19.5838    0.3317 C   0  0  0  0  0  0  0  0  0  0  0  0
   11.4160  -18.1450    0.7520 C   0  0  0  0  0  0  0  0  0  0  0  0
   10.6721  -20.6927    0.9652 N   0  0  0  0  0  0  0  0  0  0  0  0
   11.5229  -21.8249   -1.9534 H   0  0  0  0  0  0  0  0  0  0  0  0
   13.1063  -16.0565   -2.0766 H   0  0  0  0  0  0  0  0  0  0  0  0
   13.2295  -17.2725   -3.2657 H   0  0  0  0  0  0  0  0  0  0  0  0
   12.2122  -16.3891   -0.0512 H   0  0  0  0  0  0  0  0  0  0  0  0
  1  3  1  0  0  0
  2 11  2  0  0  0
  3  4  1  0  0  0
  3 12  2  0  0  0
  4  9  1  0  0  0
  5  7  1  0  0  0
  6  7  1  0  0  0
  6 11  1  0  0  0
  7  8  2  0  0  0
  8  9  1  0  0  0
  9 10  2  0  0  0
 10 11  1  0  0  0
 10 12  1  0  0  0
  4 13  1  0  0  0
  5 14  1  0  0  0
  5 15  1  0  0  0
  6 16  1  0  0  0
M  END
> <minimizedAffinity>
-5.63183

$$$$
1C3X_8IG_A_306


 16 17  0  0  0  0  0  0  0  0999 V2000
   10.9992  -21.5445    0.8795 I   0  0  0  0  0  0  0  0  0  0  0  0
   11.9828  -15.5719   -0.9631 O   0  0  0  0  0  0  0  0  0  0  0  0
   11.4902  -20.0258   -0.5261 C   0  0  0  0  0  0  0  0  0  0  0  0
   11.8740  -20.2943   -1.8210 N   0  0  0  0  0  0  0  0  0  0  0  0
   13.1480  -17.1781   -5.1679 N   0  0  0  0  0  0  0  0  0  0  0  0
   12.5503  -16.4293   -3.0322 N   0  0  0  0  0  0  0  0  0  0  0  0
   12.7402  -17.5251   -3.9246 C   0  0  0  0  0  0  0  0  0  0  0  0
   12.5249  -18.8552   -3.6114 N   0  0  0  0  0  0  0  0  0  0  0  0
   12.1127  -19.0391   -2.3009 C   0  0  0  0  0  0  0  0  0  0  0  0
   11.8882  -18.0874   -1.3343 C   0  0  0  0  0  0  0  0  0  0  0  0
   12.1152  -16.6337   -1.6944 C   0  0  0  0  0  0  0  0  0  0  0  0
   11.4998  -18.7334   -0.1771 N   0  0  0  0  0  0  0  0  0  0  0  0
   11.9548  -21.1619   -2.2793 H   0  0  0  0  0  0  0  0  0  0  0  0
   13.3008  -16.2311   -5.3894 H   0  0  0  0  0  0  0  0  0  0  0  0
   13.2917  -17.8727   -5.8505 H   0  0  0  0  0  0  0  0  0  0  0  0
   12.7239  -15.5133   -3.3487 H   0  0  0  0  0  0  0  0  0  0  0  0
  1  3  1  0  0  0
  2 11  2  0  0  0
  3  4  1  0  0  0
  3 12  2  0  0  0
  4  9  1  0  0  0
  5  7  1  0  0  0
  6  7  1  0  0  0
  6 11  1  0  0  0
  7  8  2  0  0  0
  8  9  1  0  0  0
  9 10  2  0  0  0
 10 11  1  0  0  0
 10 12  1  0  0  0
  4 13  1  0  0  0
  5 14  1  0  0  0
  5 15  1  0  0  0
  6 16  1  0  0  0
M  END
> <minimizedAffinity>
-5.59712

$$$$
1C3X_8IG_A_306


 16 17  0  0  0  0  0  0  0  0999 V2000
   10.6193  -18.4291    3.0535 I   0  0  0  0  0  0  0  0  0  0  0  0
   11.8453  -21.0978   -2.5509 O   0  0  0  0  0  0  0  0  0  0  0  0
   11.2483  -18.4239    1.0219 C   0  0  0  0  0  0  0  0  0  0  0  0
   11.5993  -17.2769    0.3455 N   0  0  0  0  0  0  0  0  0  0  0  0
   12.9259  -16.8854   -4.1956 N   0  0  0  0  0  0  0  0  0  0  0  0
   12.3704  -18.9800   -3.3107 N   0  0  0  0  0  0  0  0  0  0  0  0
   12.5179  -17.5765   -3.1056 C   0  0  0  0  0  0  0  0  0  0  0  0
   12.2951  -16.9176   -1.9098 N   0  0  0  0  0  0  0  0  0  0  0  0
   11.8816  -17.7678   -0.8962 C   0  0  0  0  0  0  0  0  0  0  0  0
   11.6971  -19.1294   -0.9453 C   0  0  0  0  0  0  0  0  0  0  0  0
   11.9572  -19.8404   -2.2573 C   0  0  0  0  0  0  0  0  0  0  0  0
   11.2694  -19.5502    0.2986 N   0  0  0  0  0  0  0  0  0  0  0  0
   11.6366  -16.3486    0.6714 H   0  0  0  0  0  0  0  0  0  0  0  0
   13.0841  -17.3556   -5.0459 H   0  0  0  0  0  0  0  0  0  0  0  0
   13.0645  -15.9124   -4.1380 H   0  0  0  0  0  0  0  0  0  0  0  0
   12.5585  -19.3604   -4.1990 H   0  0  0  0  0  0  0  0  0  0  0  0
  1  3  1  0  0  0
  2 11  2  0  0  0
  3  4  1  0  0  0
  3 12  2  0  0  0
  4  9  1  0  0  0
  5  7  1  0  0  0
  6  7  1  0  0  0
  6 11  1  0  0  0
  7  8  2  0  0  0
  8  9  1  0  0  0
  9 10  2  0  0  0
 10 11  1  0  0  0
 10 12  1  0  0  0
  4 13  1  0  0  0
  5 14  1  0  0  0
  5 15  1  0  0  0
  6 16  1  0  0  0
M  END
> <minimizedAffinity>
-5.49769

$$$$
