1YC1_4BC_A_401


 31 34  0  0  0  0  0  0  0  0999 V2000
    0.0712   34.3295   -5.0099 C   0  0  0  0  0  0  0  0  0  0  0  0
   -0.0344   34.3497   -6.3948 C   0  0  0  0  0  0  0  0  0  0  0  0
   -0.8337   33.3467   -6.7564 N   0  0  0  0  0  0  0  0  0  0  0  0
   -0.7058   33.2409   -4.6287 C   0  0  0  0  0  0  0  0  0  0  0  0
   -1.2116   32.7276   -5.7539 N   0  0  0  0  0  0  0  0  0  0  0  0
   -1.0860   33.1305   -7.6832 H   0  0  0  0  0  0  0  0  0  0  0  0
   -0.7760   32.7341   -3.3311 C   0  0  0  0  0  0  0  0  0  0  0  0
    0.3659   32.2909   -2.6625 C   0  0  0  0  0  0  0  0  0  0  0  0
    0.3004   31.8480   -1.3431 C   0  0  0  0  0  0  0  0  0  0  0  0
   -0.9149   31.8774   -0.6671 C   0  0  0  0  0  0  0  0  0  0  0  0
   -0.9263   31.6620    0.6791 O   0  0  0  0  0  0  0  0  0  0  0  0
   -2.0668   32.2881   -1.3336 C   0  0  0  0  0  0  0  0  0  0  0  0
   -1.9952   32.7052   -2.6631 C   0  0  0  0  0  0  0  0  0  0  0  0
   -3.1246   33.0770   -3.3189 O   0  0  0  0  0  0  0  0  0  0  0  0
   -0.1447   31.3858    1.1160 H   0  0  0  0  0  0  0  0  0  0  0  0
   -3.0772   33.3573   -4.2118 H   0  0  0  0  0  0  0  0  0  0  0  0
    1.5484   31.2376   -0.6989 C   0  0  0  0  0  0  0  0  0  0  0  0
    2.0180   30.0256   -1.5093 C   0  0  0  0  0  0  0  0  0  0  0  0
    0.0470   36.2216   -3.5371 C   0  0  0  0  0  0  0  0  0  0  0  0
    0.7401   37.1406   -2.7562 C   0  0  0  0  0  0  0  0  0  0  0  0
    0.3090   38.2217   -2.0415 O   0  0  0  0  0  0  0  0  0  0  0  0
    1.4145   38.7757   -1.4427 C   0  0  0  0  0  0  0  0  0  0  0  0
    2.5314   38.0551   -1.7844 O   0  0  0  0  0  0  0  0  0  0  0  0
    2.1229   37.0427   -2.6061 C   0  0  0  0  0  0  0  0  0  0  0  0
    2.8401   36.0314   -3.2377 C   0  0  0  0  0  0  0  0  0  0  0  0
    2.1421   35.1201   -4.0247 C   0  0  0  0  0  0  0  0  0  0  0  0
    0.7590   35.2110   -4.1763 C   0  0  0  0  0  0  0  0  0  0  0  0
    0.5746   35.3496   -7.3793 C   0  0  0  0  0  0  0  0  0  0  0  0
    0.8880   34.9480   -8.4998 O   0  0  0  0  0  0  0  0  0  0  0  0
    0.7517   36.5282   -7.0665 O   0  0  0  0  0  0  0  0  0  0  0  0
    0.7506   34.0505   -8.7312 H   0  0  0  0  0  0  0  0  0  0  0  0
 19 20  2  0  0  0
 19 27  1  0  0  0
 20 21  1  0  0  0
 20 24  1  0  0  0
 21 22  1  0  0  0
 22 23  1  0  0  0
 23 24  1  0  0  0
 24 25  2  0  0  0
 25 26  1  0  0  0
 26 27  2  0  0  0
 27  1  1  0  0  0
  1  2  2  0  0  0
  1  4  1  0  0  0
  2 28  1  0  0  0
  2  3  1  0  0  0
 28 29  1  0  0  0
 28 30  2  0  0  0
  3  5  1  0  0  0
  4  5  2  0  0  0
  4  7  1  0  0  0
  7  8  2  0  0  0
  7 13  1  0  0  0
  8  9  1  0  0  0
  9 17  1  0  0  0
  9 10  2  0  0  0
 17 18  1  0  0  0
 10 11  1  0  0  0
 10 12  1  0  0  0
 12 13  2  0  0  0
 13 14  1  0  0  0
 29 31  1  0  0  0
  3  6  1  0  0  0
 11 15  1  0  0  0
 14 16  1  0  0  0
M  END
> <minimizedAffinity>
-10.70274

$$$$
1YC1_4BC_A_401


 31 34  0  0  0  0  0  0  0  0999 V2000
    0.0562   34.3438   -5.0205 C   0  0  0  0  0  0  0  0  0  0  0  0
   -0.0303   34.3530   -6.4069 C   0  0  0  0  0  0  0  0  0  0  0  0
   -0.7981   33.3273   -6.7733 N   0  0  0  0  0  0  0  0  0  0  0  0
   -0.6974   33.2376   -4.6433 C   0  0  0  0  0  0  0  0  0  0  0  0
   -1.1738   32.7046   -5.7722 N   0  0  0  0  0  0  0  0  0  0  0  0
   -1.0316   33.0991   -7.7020 H   0  0  0  0  0  0  0  0  0  0  0  0
   -0.7728   32.7370   -3.3437 C   0  0  0  0  0  0  0  0  0  0  0  0
    0.3677   32.3047   -2.6655 C   0  0  0  0  0  0  0  0  0  0  0  0
    0.2965   31.8681   -1.3443 C   0  0  0  0  0  0  0  0  0  0  0  0
   -0.9233   31.8929   -0.6763 C   0  0  0  0  0  0  0  0  0  0  0  0
   -0.9420   31.6842    0.6709 O   0  0  0  0  0  0  0  0  0  0  0  0
   -2.0735   32.2926   -1.3523 C   0  0  0  0  0  0  0  0  0  0  0  0
   -1.9961   32.7034   -2.6833 C   0  0  0  0  0  0  0  0  0  0  0  0
   -3.1236   33.0644   -3.3484 O   0  0  0  0  0  0  0  0  0  0  0  0
   -0.1615   31.4154    1.1142 H   0  0  0  0  0  0  0  0  0  0  0  0
   -3.0722   33.3404   -4.2423 H   0  0  0  0  0  0  0  0  0  0  0  0
    1.5444   31.2692   -0.6889 C   0  0  0  0  0  0  0  0  0  0  0  0
    2.0183   30.0473   -1.4816 C   0  0  0  0  0  0  0  0  0  0  0  0
    2.0830   35.1209   -4.0017 C   0  0  0  0  0  0  0  0  0  0  0  0
    2.7260   35.9811   -3.1176 C   0  0  0  0  0  0  0  0  0  0  0  0
    4.0357   36.0716   -2.7411 O   0  0  0  0  0  0  0  0  0  0  0  0
    4.1268   37.1103   -1.8464 C   0  0  0  0  0  0  0  0  0  0  0  0
    2.8849   37.6622   -1.6555 O   0  0  0  0  0  0  0  0  0  0  0  0
    2.0078   36.9621   -2.4349 C   0  0  0  0  0  0  0  0  0  0  0  0
    0.6350   37.0984   -2.6160 C   0  0  0  0  0  0  0  0  0  0  0  0
   -0.0041   36.2291   -3.4953 C   0  0  0  0  0  0  0  0  0  0  0  0
    0.7090   35.2480   -4.1830 C   0  0  0  0  0  0  0  0  0  0  0  0
    0.5663   35.3626   -7.3892 C   0  0  0  0  0  0  0  0  0  0  0  0
    0.8813   34.9682   -8.5118 O   0  0  0  0  0  0  0  0  0  0  0  0
    0.7320   36.5418   -7.0726 O   0  0  0  0  0  0  0  0  0  0  0  0
    0.7526   34.0701   -8.7461 H   0  0  0  0  0  0  0  0  0  0  0  0
 19 20  2  0  0  0
 19 27  1  0  0  0
 20 21  1  0  0  0
 20 24  1  0  0  0
 21 22  1  0  0  0
 22 23  1  0  0  0
 23 24  1  0  0  0
 24 25  2  0  0  0
 25 26  1  0  0  0
 26 27  2  0  0  0
 27  1  1  0  0  0
  1  2  2  0  0  0
  1  4  1  0  0  0
  2 28  1  0  0  0
  2  3  1  0  0  0
 28 29  1  0  0  0
 28 30  2  0  0  0
  3  5  1  0  0  0
  4  5  2  0  0  0
  4  7  1  0  0  0
  7  8  2  0  0  0
  7 13  1  0  0  0
  8  9  1  0  0  0
  9 17  1  0  0  0
  9 10  2  0  0  0
 17 18  1  0  0  0
 10 11  1  0  0  0
 10 12  1  0  0  0
 12 13  2  0  0  0
 13 14  1  0  0  0
 29 31  1  0  0  0
  3  6  1  0  0  0
 11 15  1  0  0  0
 14 16  1  0  0  0
M  END
> <minimizedAffinity>
-10.60545

$$$$
1YC1_4BC_A_401


 31 34  0  0  0  0  0  0  0  0999 V2000
    0.6213   34.4287   -4.5480 C   0  0  0  0  0  0  0  0  0  0  0  0
    0.1651   34.3609   -5.8583 C   0  0  0  0  0  0  0  0  0  0  0  0
    0.7953   35.3041   -6.5576 N   0  0  0  0  0  0  0  0  0  0  0  0
    1.5306   35.4807   -4.5618 C   0  0  0  0  0  0  0  0  0  0  0  0
    1.5670   35.9296   -5.8199 N   0  0  0  0  0  0  0  0  0  0  0  0
    0.6661   35.4774   -7.5181 H   0  0  0  0  0  0  0  0  0  0  0  0
    2.1334   36.0211   -3.4260 C   0  0  0  0  0  0  0  0  0  0  0  0
    3.4159   35.6362   -3.0327 C   0  0  0  0  0  0  0  0  0  0  0  0
    4.0396   36.2276   -1.9361 C   0  0  0  0  0  0  0  0  0  0  0  0
    3.3903   37.2414   -1.2394 C   0  0  0  0  0  0  0  0  0  0  0  0
    4.0919   37.9649   -0.3213 O   0  0  0  0  0  0  0  0  0  0  0  0
    2.0980   37.6122   -1.6034 C   0  0  0  0  0  0  0  0  0  0  0  0
    1.4719   36.9957   -2.6871 C   0  0  0  0  0  0  0  0  0  0  0  0
    0.2011   37.3386   -3.0211 O   0  0  0  0  0  0  0  0  0  0  0  0
    4.9606   37.7052   -0.0848 H   0  0  0  0  0  0  0  0  0  0  0  0
   -0.2199   36.9249   -3.7488 H   0  0  0  0  0  0  0  0  0  0  0  0
    5.3843   35.6744   -1.4555 C   0  0  0  0  0  0  0  0  0  0  0  0
    5.1567   34.5465   -0.4446 C   0  0  0  0  0  0  0  0  0  0  0  0
   -1.0506   33.5113   -3.0944 C   0  0  0  0  0  0  0  0  0  0  0  0
   -1.3800   32.7508   -1.9772 C   0  0  0  0  0  0  0  0  0  0  0  0
   -2.5841   32.4928   -1.3864 O   0  0  0  0  0  0  0  0  0  0  0  0
   -2.3386   31.6691   -0.3145 C   0  0  0  0  0  0  0  0  0  0  0  0
   -0.9922   31.4184   -0.2270 O   0  0  0  0  0  0  0  0  0  0  0  0
   -0.3885   32.0925   -1.2507 C   0  0  0  0  0  0  0  0  0  0  0  0
    0.9495   32.1865   -1.6207 C   0  0  0  0  0  0  0  0  0  0  0  0
    1.2737   32.9559   -2.7342 C   0  0  0  0  0  0  0  0  0  0  0  0
    0.2865   33.6142   -3.4665 C   0  0  0  0  0  0  0  0  0  0  0  0
   -0.8272   33.3695   -6.4686 C   0  0  0  0  0  0  0  0  0  0  0  0
   -1.6467   33.7916   -7.2841 O   0  0  0  0  0  0  0  0  0  0  0  0
   -0.8143   32.1776   -6.1563 O   0  0  0  0  0  0  0  0  0  0  0  0
   -1.6510   34.6991   -7.5172 H   0  0  0  0  0  0  0  0  0  0  0  0
 19 20  2  0  0  0
 19 27  1  0  0  0
 20 21  1  0  0  0
 20 24  1  0  0  0
 21 22  1  0  0  0
 22 23  1  0  0  0
 23 24  1  0  0  0
 24 25  2  0  0  0
 25 26  1  0  0  0
 26 27  2  0  0  0
 27  1  1  0  0  0
  1  2  2  0  0  0
  1  4  1  0  0  0
  2 28  1  0  0  0
  2  3  1  0  0  0
 28 29  1  0  0  0
 28 30  2  0  0  0
  3  5  1  0  0  0
  4  5  2  0  0  0
  4  7  1  0  0  0
  7  8  2  0  0  0
  7 13  1  0  0  0
  8  9  1  0  0  0
  9 17  1  0  0  0
  9 10  2  0  0  0
 17 18  1  0  0  0
 10 11  1  0  0  0
 10 12  1  0  0  0
 12 13  2  0  0  0
 13 14  1  0  0  0
 29 31  1  0  0  0
  3  6  1  0  0  0
 11 15  1  0  0  0
 14 16  1  0  0  0
M  END
> <minimizedAffinity>
-8.91272

$$$$
1YC1_4BC_A_401


 31 34  0  0  0  0  0  0  0  0999 V2000
    3.8253   37.3302   -4.3559 C   0  0  0  0  0  0  0  0  0  0  0  0
    4.4566   37.7929   -5.5034 C   0  0  0  0  0  0  0  0  0  0  0  0
    5.6678   38.2257   -5.1549 N   0  0  0  0  0  0  0  0  0  0  0  0
    4.7566   37.5506   -3.3469 C   0  0  0  0  0  0  0  0  0  0  0  0
    5.8312   38.0824   -3.9368 N   0  0  0  0  0  0  0  0  0  0  0  0
    6.3334   38.6032   -5.7744 H   0  0  0  0  0  0  0  0  0  0  0  0
    4.5039   37.3816   -1.9857 C   0  0  0  0  0  0  0  0  0  0  0  0
    3.7812   38.3287   -1.2589 C   0  0  0  0  0  0  0  0  0  0  0  0
    3.4743   38.1231    0.0845 C   0  0  0  0  0  0  0  0  0  0  0  0
    3.8642   36.9416    0.7064 C   0  0  0  0  0  0  0  0  0  0  0  0
    3.3663   36.6509    1.9419 O   0  0  0  0  0  0  0  0  0  0  0  0
    4.6128   36.0032    0.0000 C   0  0  0  0  0  0  0  0  0  0  0  0
    4.9373   36.2301   -1.3377 C   0  0  0  0  0  0  0  0  0  0  0  0
    5.6922   35.3271   -2.0151 O   0  0  0  0  0  0  0  0  0  0  0  0
    2.8641   37.2908    2.4070 H   0  0  0  0  0  0  0  0  0  0  0  0
    5.9104   35.4790   -2.9136 H   0  0  0  0  0  0  0  0  0  0  0  0
    2.8063   39.2503    0.8774 C   0  0  0  0  0  0  0  0  0  0  0  0
    2.7946   40.5388    0.0495 C   0  0  0  0  0  0  0  0  0  0  0  0
    2.4769   35.3534   -4.2010 C   0  0  0  0  0  0  0  0  0  0  0  0
    1.2186   34.7634   -4.1416 C   0  0  0  0  0  0  0  0  0  0  0  0
    0.8393   33.4515   -4.1161 O   0  0  0  0  0  0  0  0  0  0  0  0
   -0.5324   33.4302   -4.0431 C   0  0  0  0  0  0  0  0  0  0  0  0
   -1.0118   34.7161   -4.0314 O   0  0  0  0  0  0  0  0  0  0  0  0
    0.0682   35.5502   -4.1003 C   0  0  0  0  0  0  0  0  0  0  0  0
    0.1514   36.9389   -4.1248 C   0  0  0  0  0  0  0  0  0  0  0  0
    1.4127   37.5232   -4.1930 C   0  0  0  0  0  0  0  0  0  0  0  0
    2.5669   36.7419   -4.2317 C   0  0  0  0  0  0  0  0  0  0  0  0
    3.9403   37.7780   -6.9433 C   0  0  0  0  0  0  0  0  0  0  0  0
    4.0228   38.8135   -7.6035 O   0  0  0  0  0  0  0  0  0  0  0  0
    3.4517   36.7602   -7.4370 O   0  0  0  0  0  0  0  0  0  0  0  0
    4.3954   39.5839   -7.2220 H   0  0  0  0  0  0  0  0  0  0  0  0
 19 20  2  0  0  0
 19 27  1  0  0  0
 20 21  1  0  0  0
 20 24  1  0  0  0
 21 22  1  0  0  0
 22 23  1  0  0  0
 23 24  1  0  0  0
 24 25  2  0  0  0
 25 26  1  0  0  0
 26 27  2  0  0  0
 27  1  1  0  0  0
  1  2  2  0  0  0
  1  4  1  0  0  0
  2 28  1  0  0  0
  2  3  1  0  0  0
 28 29  1  0  0  0
 28 30  2  0  0  0
  3  5  1  0  0  0
  4  5  2  0  0  0
  4  7  1  0  0  0
  7  8  2  0  0  0
  7 13  1  0  0  0
  8  9  1  0  0  0
  9 17  1  0  0  0
  9 10  2  0  0  0
 17 18  1  0  0  0
 10 11  1  0  0  0
 10 12  1  0  0  0
 12 13  2  0  0  0
 13 14  1  0  0  0
 29 31  1  0  0  0
  3  6  1  0  0  0
 11 15  1  0  0  0
 14 16  1  0  0  0
M  END
> <minimizedAffinity>
-8.86900

$$$$
1YC1_4BC_A_401


 31 34  0  0  0  0  0  0  0  0999 V2000
    4.6714   37.8825   -2.5916 C   0  0  0  0  0  0  0  0  0  0  0  0
    5.8966   38.3461   -3.0535 C   0  0  0  0  0  0  0  0  0  0  0  0
    5.9110   38.2066   -4.3787 N   0  0  0  0  0  0  0  0  0  0  0  0
    4.0151   37.4607   -3.7429 C   0  0  0  0  0  0  0  0  0  0  0  0
    4.8442   37.7096   -4.7608 N   0  0  0  0  0  0  0  0  0  0  0  0
    6.6589   38.4610   -4.9661 H   0  0  0  0  0  0  0  0  0  0  0  0
    2.8014   36.7735   -3.7555 C   0  0  0  0  0  0  0  0  0  0  0  0
    2.7304   35.4203   -3.4218 C   0  0  0  0  0  0  0  0  0  0  0  0
    1.5071   34.7554   -3.3712 C   0  0  0  0  0  0  0  0  0  0  0  0
    0.3323   35.4558   -3.6246 C   0  0  0  0  0  0  0  0  0  0  0  0
   -0.8630   34.8600   -3.3508 O   0  0  0  0  0  0  0  0  0  0  0  0
    0.3931   36.7986   -3.9891 C   0  0  0  0  0  0  0  0  0  0  0  0
    1.6253   37.4490   -4.0623 C   0  0  0  0  0  0  0  0  0  0  0  0
    1.6836   38.7501   -4.4465 O   0  0  0  0  0  0  0  0  0  0  0  0
   -0.8908   33.9558   -3.1066 H   0  0  0  0  0  0  0  0  0  0  0  0
    2.5109   39.1874   -4.4958 H   0  0  0  0  0  0  0  0  0  0  0  0
    1.4906   33.2413   -3.1420 C   0  0  0  0  0  0  0  0  0  0  0  0
    2.3385   32.8867   -1.9167 C   0  0  0  0  0  0  0  0  0  0  0  0
    3.5442   39.0098   -0.8005 C   0  0  0  0  0  0  0  0  0  0  0  0
    3.1109   39.0244    0.5213 C   0  0  0  0  0  0  0  0  0  0  0  0
    2.4833   39.9921    1.2528 O   0  0  0  0  0  0  0  0  0  0  0  0
    2.2724   39.4750    2.5080 C   0  0  0  0  0  0  0  0  0  0  0  0
    2.7701   38.1974    2.5680 O   0  0  0  0  0  0  0  0  0  0  0  0
    3.2996   37.9124    1.3412 C   0  0  0  0  0  0  0  0  0  0  0  0
    3.9300   36.7691    0.8602 C   0  0  0  0  0  0  0  0  0  0  0  0
    4.3691   36.7638   -0.4605 C   0  0  0  0  0  0  0  0  0  0  0  0
    4.1807   37.8715   -1.2862 C   0  0  0  0  0  0  0  0  0  0  0  0
    7.0381   38.9740   -2.2518 C   0  0  0  0  0  0  0  0  0  0  0  0
    6.8017   39.9887   -1.5965 O   0  0  0  0  0  0  0  0  0  0  0  0
    8.1687   38.4839   -2.2574 O   0  0  0  0  0  0  0  0  0  0  0  0
    5.9397   40.3562   -1.5967 H   0  0  0  0  0  0  0  0  0  0  0  0
 19 20  2  0  0  0
 19 27  1  0  0  0
 20 21  1  0  0  0
 20 24  1  0  0  0
 21 22  1  0  0  0
 22 23  1  0  0  0
 23 24  1  0  0  0
 24 25  2  0  0  0
 25 26  1  0  0  0
 26 27  2  0  0  0
 27  1  1  0  0  0
  1  2  2  0  0  0
  1  4  1  0  0  0
  2 28  1  0  0  0
  2  3  1  0  0  0
 28 29  1  0  0  0
 28 30  2  0  0  0
  3  5  1  0  0  0
  4  5  2  0  0  0
  4  7  1  0  0  0
  7  8  2  0  0  0
  7 13  1  0  0  0
  8  9  1  0  0  0
  9 17  1  0  0  0
  9 10  2  0  0  0
 17 18  1  0  0  0
 10 11  1  0  0  0
 10 12  1  0  0  0
 12 13  2  0  0  0
 13 14  1  0  0  0
 29 31  1  0  0  0
  3  6  1  0  0  0
 11 15  1  0  0  0
 14 16  1  0  0  0
M  END
> <minimizedAffinity>
-8.48044

$$$$
1YC1_4BC_A_401


 31 34  0  0  0  0  0  0  0  0999 V2000
    3.7811   35.8922   -3.0640 C   0  0  0  0  0  0  0  0  0  0  0  0
    4.9610   35.8183   -2.3347 C   0  0  0  0  0  0  0  0  0  0  0  0
    5.1202   34.5538   -1.9457 N   0  0  0  0  0  0  0  0  0  0  0  0
    3.2877   34.5923   -3.0390 C   0  0  0  0  0  0  0  0  0  0  0  0
    4.1736   33.8671   -2.3501 N   0  0  0  0  0  0  0  0  0  0  0  0
    5.8780   34.2163   -1.4156 H   0  0  0  0  0  0  0  0  0  0  0  0
    2.0331   34.2124   -3.5156 C   0  0  0  0  0  0  0  0  0  0  0  0
    1.6148   34.5470   -4.8043 C   0  0  0  0  0  0  0  0  0  0  0  0
    0.3883   34.1083   -5.2988 C   0  0  0  0  0  0  0  0  0  0  0  0
   -0.4205   33.2961   -4.5108 C   0  0  0  0  0  0  0  0  0  0  0  0
   -1.5004   32.6892   -5.0803 O   0  0  0  0  0  0  0  0  0  0  0  0
   -0.0279   32.9815   -3.2121 C   0  0  0  0  0  0  0  0  0  0  0  0
    1.1904   33.4473   -2.7168 C   0  0  0  0  0  0  0  0  0  0  0  0
    1.5567   33.1634   -1.4404 O   0  0  0  0  0  0  0  0  0  0  0  0
   -1.7545   32.9095   -5.9549 H   0  0  0  0  0  0  0  0  0  0  0  0
    2.3748   33.4760   -1.1073 H   0  0  0  0  0  0  0  0  0  0  0  0
   -0.0915   34.6179   -6.6610 C   0  0  0  0  0  0  0  0  0  0  0  0
   -0.1236   36.1492   -6.6668 C   0  0  0  0  0  0  0  0  0  0  0  0
    2.3346   37.8040   -3.0115 C   0  0  0  0  0  0  0  0  0  0  0  0
    1.7301   38.8673   -3.6741 C   0  0  0  0  0  0  0  0  0  0  0  0
    0.8232   39.7954   -3.2481 O   0  0  0  0  0  0  0  0  0  0  0  0
    0.5709   40.6292   -4.3105 C   0  0  0  0  0  0  0  0  0  0  0  0
    1.3055   40.2243   -5.3967 O   0  0  0  0  0  0  0  0  0  0  0  0
    2.0222   39.1261   -5.0127 C   0  0  0  0  0  0  0  0  0  0  0  0
    2.9162   38.3254   -5.7165 C   0  0  0  0  0  0  0  0  0  0  0  0
    3.5111   37.2578   -5.0506 C   0  0  0  0  0  0  0  0  0  0  0  0
    3.2254   36.9956   -3.7113 C   0  0  0  0  0  0  0  0  0  0  0  0
    5.9719   36.9302   -2.0484 C   0  0  0  0  0  0  0  0  0  0  0  0
    5.6507   37.8231   -1.2645 O   0  0  0  0  0  0  0  0  0  0  0  0
    7.0809   36.9401   -2.5854 O   0  0  0  0  0  0  0  0  0  0  0  0
    4.8058   37.8095   -0.8596 H   0  0  0  0  0  0  0  0  0  0  0  0
 19 20  2  0  0  0
 19 27  1  0  0  0
 20 21  1  0  0  0
 20 24  1  0  0  0
 21 22  1  0  0  0
 22 23  1  0  0  0
 23 24  1  0  0  0
 24 25  2  0  0  0
 25 26  1  0  0  0
 26 27  2  0  0  0
 27  1  1  0  0  0
  1  2  2  0  0  0
  1  4  1  0  0  0
  2 28  1  0  0  0
  2  3  1  0  0  0
 28 29  1  0  0  0
 28 30  2  0  0  0
  3  5  1  0  0  0
  4  5  2  0  0  0
  4  7  1  0  0  0
  7  8  2  0  0  0
  7 13  1  0  0  0
  8  9  1  0  0  0
  9 17  1  0  0  0
  9 10  2  0  0  0
 17 18  1  0  0  0
 10 11  1  0  0  0
 10 12  1  0  0  0
 12 13  2  0  0  0
 13 14  1  0  0  0
 29 31  1  0  0  0
  3  6  1  0  0  0
 11 15  1  0  0  0
 14 16  1  0  0  0
M  END
> <minimizedAffinity>
-8.36931

$$$$
1YC1_4BC_A_401


 31 34  0  0  0  0  0  0  0  0999 V2000
    2.3870   36.5502   -3.5929 C   0  0  0  0  0  0  0  0  0  0  0  0
    1.5500   36.0289   -4.5713 C   0  0  0  0  0  0  0  0  0  0  0  0
    1.8512   34.7393   -4.7193 N   0  0  0  0  0  0  0  0  0  0  0  0
    3.1830   35.4721   -3.2213 C   0  0  0  0  0  0  0  0  0  0  0  0
    2.7714   34.4315   -3.9514 N   0  0  0  0  0  0  0  0  0  0  0  0
    1.4077   34.1232   -5.3462 H   0  0  0  0  0  0  0  0  0  0  0  0
    4.2836   35.5574   -2.3686 C   0  0  0  0  0  0  0  0  0  0  0  0
    5.3274   36.4494   -2.6185 C   0  0  0  0  0  0  0  0  0  0  0  0
    6.3917   36.5782   -1.7287 C   0  0  0  0  0  0  0  0  0  0  0  0
    6.4015   35.8317   -0.5550 C   0  0  0  0  0  0  0  0  0  0  0  0
    7.3192   36.1292    0.4084 O   0  0  0  0  0  0  0  0  0  0  0  0
    5.3813   34.9157   -0.3100 C   0  0  0  0  0  0  0  0  0  0  0  0
    4.3331   34.7753   -1.2200 C   0  0  0  0  0  0  0  0  0  0  0  0
    3.3556   33.8607   -0.9926 O   0  0  0  0  0  0  0  0  0  0  0  0
    8.0009   36.7471    0.2312 H   0  0  0  0  0  0  0  0  0  0  0  0
    2.6513   33.7660   -1.6034 H   0  0  0  0  0  0  0  0  0  0  0  0
    7.5823   37.4612   -2.1135 C   0  0  0  0  0  0  0  0  0  0  0  0
    7.1121   38.8980   -2.3600 C   0  0  0  0  0  0  0  0  0  0  0  0
    1.8408   38.0643   -1.8156 C   0  0  0  0  0  0  0  0  0  0  0  0
    1.8064   39.3618   -1.3155 C   0  0  0  0  0  0  0  0  0  0  0  0
    1.3047   39.8644   -0.1488 O   0  0  0  0  0  0  0  0  0  0  0  0
    1.5479   41.2166   -0.1552 C   0  0  0  0  0  0  0  0  0  0  0  0
    2.1887   41.5625   -1.3184 O   0  0  0  0  0  0  0  0  0  0  0  0
    2.3462   40.4182   -2.0483 C   0  0  0  0  0  0  0  0  0  0  0  0
    2.9231   40.2010   -3.2957 C   0  0  0  0  0  0  0  0  0  0  0  0
    2.9466   38.9019   -3.7945 C   0  0  0  0  0  0  0  0  0  0  0  0
    2.4111   37.8409   -3.0653 C   0  0  0  0  0  0  0  0  0  0  0  0
    0.4246   36.7324   -5.3319 C   0  0  0  0  0  0  0  0  0  0  0  0
    0.6762   37.2055   -6.4399 O   0  0  0  0  0  0  0  0  0  0  0  0
   -0.7072   36.8286   -4.8544 O   0  0  0  0  0  0  0  0  0  0  0  0
    1.5390   37.1288   -6.7972 H   0  0  0  0  0  0  0  0  0  0  0  0
 19 20  2  0  0  0
 19 27  1  0  0  0
 20 21  1  0  0  0
 20 24  1  0  0  0
 21 22  1  0  0  0
 22 23  1  0  0  0
 23 24  1  0  0  0
 24 25  2  0  0  0
 25 26  1  0  0  0
 26 27  2  0  0  0
 27  1  1  0  0  0
  1  2  2  0  0  0
  1  4  1  0  0  0
  2 28  1  0  0  0
  2  3  1  0  0  0
 28 29  1  0  0  0
 28 30  2  0  0  0
  3  5  1  0  0  0
  4  5  2  0  0  0
  4  7  1  0  0  0
  7  8  2  0  0  0
  7 13  1  0  0  0
  8  9  1  0  0  0
  9 17  1  0  0  0
  9 10  2  0  0  0
 17 18  1  0  0  0
 10 11  1  0  0  0
 10 12  1  0  0  0
 12 13  2  0  0  0
 13 14  1  0  0  0
 29 31  1  0  0  0
  3  6  1  0  0  0
 11 15  1  0  0  0
 14 16  1  0  0  0
M  END
> <minimizedAffinity>
-8.27887

$$$$
1YC1_4BC_A_401


 31 34  0  0  0  0  0  0  0  0999 V2000
    3.3734   36.7452   -4.1839 C   0  0  0  0  0  0  0  0  0  0  0  0
    3.9944   37.4626   -5.1983 C   0  0  0  0  0  0  0  0  0  0  0  0
    3.3276   37.2296   -6.3283 N   0  0  0  0  0  0  0  0  0  0  0  0
    2.3313   36.0859   -4.8268 C   0  0  0  0  0  0  0  0  0  0  0  0
    2.3881   36.4545   -6.1100 N   0  0  0  0  0  0  0  0  0  0  0  0
    3.5494   37.6164   -7.2060 H   0  0  0  0  0  0  0  0  0  0  0  0
    1.5202   35.1190   -4.2330 C   0  0  0  0  0  0  0  0  0  0  0  0
    2.0679   34.0405   -3.5370 C   0  0  0  0  0  0  0  0  0  0  0  0
    1.2531   33.1143   -2.8892 C   0  0  0  0  0  0  0  0  0  0  0  0
   -0.1276   33.2820   -2.9062 C   0  0  0  0  0  0  0  0  0  0  0  0
   -0.8960   32.5098   -2.0864 O   0  0  0  0  0  0  0  0  0  0  0  0
   -0.6870   34.3368   -3.6235 C   0  0  0  0  0  0  0  0  0  0  0  0
    0.1365   35.2442   -4.2906 C   0  0  0  0  0  0  0  0  0  0  0  0
   -0.4128   36.2541   -5.0132 O   0  0  0  0  0  0  0  0  0  0  0  0
   -0.5079   31.8031   -1.6091 H   0  0  0  0  0  0  0  0  0  0  0  0
    0.1398   36.8639   -5.4614 H   0  0  0  0  0  0  0  0  0  0  0  0
    1.8905   31.8712   -2.2617 C   0  0  0  0  0  0  0  0  0  0  0  0
    2.1397   32.1061   -0.7688 C   0  0  0  0  0  0  0  0  0  0  0  0
    4.7109   35.8788   -2.3921 C   0  0  0  0  0  0  0  0  0  0  0  0
    4.9802   35.7964   -1.0299 C   0  0  0  0  0  0  0  0  0  0  0  0
    5.9004   35.0631   -0.3365 O   0  0  0  0  0  0  0  0  0  0  0  0
    5.7420   35.3713    0.9930 C   0  0  0  0  0  0  0  0  0  0  0  0
    4.7263   36.2832    1.1352 O   0  0  0  0  0  0  0  0  0  0  0  0
    4.2423   36.5468   -0.1151 C   0  0  0  0  0  0  0  0  0  0  0  0
    3.2183   37.3868   -0.5413 C   0  0  0  0  0  0  0  0  0  0  0  0
    2.9479   37.4583   -1.9046 C   0  0  0  0  0  0  0  0  0  0  0  0
    3.6841   36.7128   -2.8246 C   0  0  0  0  0  0  0  0  0  0  0  0
    5.1871   38.4150   -5.0953 C   0  0  0  0  0  0  0  0  0  0  0  0
    6.2490   38.0789   -5.6191 O   0  0  0  0  0  0  0  0  0  0  0  0
    5.0962   39.4921   -4.5039 O   0  0  0  0  0  0  0  0  0  0  0  0
    6.3113   37.2584   -6.0673 H   0  0  0  0  0  0  0  0  0  0  0  0
 19 20  2  0  0  0
 19 27  1  0  0  0
 20 21  1  0  0  0
 20 24  1  0  0  0
 21 22  1  0  0  0
 22 23  1  0  0  0
 23 24  1  0  0  0
 24 25  2  0  0  0
 25 26  1  0  0  0
 26 27  2  0  0  0
 27  1  1  0  0  0
  1  2  2  0  0  0
  1  4  1  0  0  0
  2 28  1  0  0  0
  2  3  1  0  0  0
 28 29  1  0  0  0
 28 30  2  0  0  0
  3  5  1  0  0  0
  4  5  2  0  0  0
  4  7  1  0  0  0
  7  8  2  0  0  0
  7 13  1  0  0  0
  8  9  1  0  0  0
  9 17  1  0  0  0
  9 10  2  0  0  0
 17 18  1  0  0  0
 10 11  1  0  0  0
 10 12  1  0  0  0
 12 13  2  0  0  0
 13 14  1  0  0  0
 29 31  1  0  0  0
  3  6  1  0  0  0
 11 15  1  0  0  0
 14 16  1  0  0  0
M  END
> <minimizedAffinity>
-8.26659

$$$$
1YC1_4BC_A_401


 31 34  0  0  0  0  0  0  0  0999 V2000
    1.5517   38.2184   -4.0827 C   0  0  0  0  0  0  0  0  0  0  0  0
    1.4482   39.5895   -4.2800 C   0  0  0  0  0  0  0  0  0  0  0  0
    0.3440   39.8158   -4.9909 N   0  0  0  0  0  0  0  0  0  0  0  0
    0.4447   37.6983   -4.7445 C   0  0  0  0  0  0  0  0  0  0  0  0
   -0.2190   38.7439   -5.2461 N   0  0  0  0  0  0  0  0  0  0  0  0
    0.0238   40.7036   -5.2712 H   0  0  0  0  0  0  0  0  0  0  0  0
    0.2117   36.3384   -4.9495 C   0  0  0  0  0  0  0  0  0  0  0  0
   -0.2801   35.5246   -3.9281 C   0  0  0  0  0  0  0  0  0  0  0  0
   -0.5741   34.1821   -4.1569 C   0  0  0  0  0  0  0  0  0  0  0  0
   -0.4074   33.6486   -5.4307 C   0  0  0  0  0  0  0  0  0  0  0  0
   -0.9093   32.4094   -5.6978 O   0  0  0  0  0  0  0  0  0  0  0  0
    0.1121   34.4428   -6.4501 C   0  0  0  0  0  0  0  0  0  0  0  0
    0.4279   35.7794   -6.2042 C   0  0  0  0  0  0  0  0  0  0  0  0
    0.9617   36.5429   -7.1922 O   0  0  0  0  0  0  0  0  0  0  0  0
   -1.2561   31.8847   -5.0032 H   0  0  0  0  0  0  0  0  0  0  0  0
    1.1740   37.4406   -7.0276 H   0  0  0  0  0  0  0  0  0  0  0  0
   -0.9737   33.2945   -2.9746 C   0  0  0  0  0  0  0  0  0  0  0  0
    0.2775   32.7233   -2.3007 C   0  0  0  0  0  0  0  0  0  0  0  0
    2.3892   37.4416   -1.9744 C   0  0  0  0  0  0  0  0  0  0  0  0
    3.3804   36.7937   -1.2445 C   0  0  0  0  0  0  0  0  0  0  0  0
    3.5222   36.5900    0.0986 O   0  0  0  0  0  0  0  0  0  0  0  0
    4.6830   35.8772    0.2776 C   0  0  0  0  0  0  0  0  0  0  0  0
    5.2700   35.6422   -0.9405 O   0  0  0  0  0  0  0  0  0  0  0  0
    4.4720   36.2146   -1.8904 C   0  0  0  0  0  0  0  0  0  0  0  0
    4.5987   36.2775   -3.2746 C   0  0  0  0  0  0  0  0  0  0  0  0
    3.6083   36.9347   -3.9986 C   0  0  0  0  0  0  0  0  0  0  0  0
    2.5128   37.5132   -3.3588 C   0  0  0  0  0  0  0  0  0  0  0  0
    2.3616   40.6969   -3.7515 C   0  0  0  0  0  0  0  0  0  0  0  0
    2.0061   41.3182   -2.7503 O   0  0  0  0  0  0  0  0  0  0  0  0
    3.4269   40.9674   -4.3085 O   0  0  0  0  0  0  0  0  0  0  0  0
    1.1948   41.1074   -2.3316 H   0  0  0  0  0  0  0  0  0  0  0  0
 19 20  2  0  0  0
 19 27  1  0  0  0
 20 21  1  0  0  0
 20 24  1  0  0  0
 21 22  1  0  0  0
 22 23  1  0  0  0
 23 24  1  0  0  0
 24 25  2  0  0  0
 25 26  1  0  0  0
 26 27  2  0  0  0
 27  1  1  0  0  0
  1  2  2  0  0  0
  1  4  1  0  0  0
  2 28  1  0  0  0
  2  3  1  0  0  0
 28 29  1  0  0  0
 28 30  2  0  0  0
  3  5  1  0  0  0
  4  5  2  0  0  0
  4  7  1  0  0  0
  7  8  2  0  0  0
  7 13  1  0  0  0
  8  9  1  0  0  0
  9 17  1  0  0  0
  9 10  2  0  0  0
 17 18  1  0  0  0
 10 11  1  0  0  0
 10 12  1  0  0  0
 12 13  2  0  0  0
 13 14  1  0  0  0
 29 31  1  0  0  0
  3  6  1  0  0  0
 11 15  1  0  0  0
 14 16  1  0  0  0
M  END
> <minimizedAffinity>
-8.23615

$$$$
1YC1_4BC_A_401


 31 34  0  0  0  0  0  0  0  0999 V2000
    4.6986   37.1854   -2.1969 C   0  0  0  0  0  0  0  0  0  0  0  0
    5.9896   37.4100   -2.6577 C   0  0  0  0  0  0  0  0  0  0  0  0
    6.0385   37.0273   -3.9332 N   0  0  0  0  0  0  0  0  0  0  0  0
    4.0404   36.6374   -3.2925 C   0  0  0  0  0  0  0  0  0  0  0  0
    4.9336   36.5958   -4.2855 N   0  0  0  0  0  0  0  0  0  0  0  0
    6.8350   37.0800   -4.5095 H   0  0  0  0  0  0  0  0  0  0  0  0
    2.7515   36.1056   -3.2570 C   0  0  0  0  0  0  0  0  0  0  0  0
    1.6582   36.8197   -3.7494 C   0  0  0  0  0  0  0  0  0  0  0  0
    0.3836   36.2575   -3.7728 C   0  0  0  0  0  0  0  0  0  0  0  0
    0.1992   34.9520   -3.3295 C   0  0  0  0  0  0  0  0  0  0  0  0
   -0.9941   34.3370   -3.5672 O   0  0  0  0  0  0  0  0  0  0  0  0
    1.2767   34.2408   -2.8070 C   0  0  0  0  0  0  0  0  0  0  0  0
    2.5443   34.8220   -2.7640 C   0  0  0  0  0  0  0  0  0  0  0  0
    3.5866   34.1370   -2.2270 O   0  0  0  0  0  0  0  0  0  0  0  0
   -1.7115   34.8264   -3.9190 H   0  0  0  0  0  0  0  0  0  0  0  0
    4.4382   34.5269   -2.1979 H   0  0  0  0  0  0  0  0  0  0  0  0
   -0.8071   37.1270   -4.1869 C   0  0  0  0  0  0  0  0  0  0  0  0
   -0.4849   37.8746   -5.4843 C   0  0  0  0  0  0  0  0  0  0  0  0
    3.5340   38.7010   -0.7490 C   0  0  0  0  0  0  0  0  0  0  0  0
    3.0522   39.0162    0.5173 C   0  0  0  0  0  0  0  0  0  0  0  0
    2.4223   40.1324    0.9892 O   0  0  0  0  0  0  0  0  0  0  0  0
    2.1517   39.9110    2.3178 C   0  0  0  0  0  0  0  0  0  0  0  0
    2.6146   38.6709    2.6803 O   0  0  0  0  0  0  0  0  0  0  0  0
    3.1823   38.1115    1.5704 C   0  0  0  0  0  0  0  0  0  0  0  0
    3.8013   36.8799    1.3816 C   0  0  0  0  0  0  0  0  0  0  0  0
    4.2891   36.5738    0.1145 C   0  0  0  0  0  0  0  0  0  0  0  0
    4.1595   37.4730   -0.9432 C   0  0  0  0  0  0  0  0  0  0  0  0
    7.1685   38.0381   -1.9123 C   0  0  0  0  0  0  0  0  0  0  0  0
    7.6446   37.4289   -0.9546 O   0  0  0  0  0  0  0  0  0  0  0  0
    7.6348   39.1262   -2.2542 O   0  0  0  0  0  0  0  0  0  0  0  0
    7.2852   36.6019   -0.6999 H   0  0  0  0  0  0  0  0  0  0  0  0
 19 20  2  0  0  0
 19 27  1  0  0  0
 20 21  1  0  0  0
 20 24  1  0  0  0
 21 22  1  0  0  0
 22 23  1  0  0  0
 23 24  1  0  0  0
 24 25  2  0  0  0
 25 26  1  0  0  0
 26 27  2  0  0  0
 27  1  1  0  0  0
  1  2  2  0  0  0
  1  4  1  0  0  0
  2 28  1  0  0  0
  2  3  1  0  0  0
 28 29  1  0  0  0
 28 30  2  0  0  0
  3  5  1  0  0  0
  4  5  2  0  0  0
  4  7  1  0  0  0
  7  8  2  0  0  0
  7 13  1  0  0  0
  8  9  1  0  0  0
  9 17  1  0  0  0
  9 10  2  0  0  0
 17 18  1  0  0  0
 10 11  1  0  0  0
 10 12  1  0  0  0
 12 13  2  0  0  0
 13 14  1  0  0  0
 29 31  1  0  0  0
  3  6  1  0  0  0
 11 15  1  0  0  0
 14 16  1  0  0  0
M  END
> <minimizedAffinity>
-8.16483

$$$$
