5HRW_64E_A_801


 18 20  0  0  0  0  0  0  0  0999 V2000
   14.9322   -9.6516   -7.8808 C   0  0  0  0  0  0  0  0  0  0  0  0
   14.2749   -9.7325   -9.1142 C   0  0  0  0  0  0  0  0  0  0  0  0
   14.4497   -8.7899  -10.1403 C   0  0  0  0  0  0  0  0  0  0  0  0
   13.7562   -8.8542  -11.3643 C   0  0  0  0  0  0  0  0  0  0  0  0
   12.8407   -9.8737  -11.5612 C   0  0  0  0  0  0  0  0  0  0  0  0
   12.6292  -10.8235  -10.5540 C   0  0  0  0  0  0  0  0  0  0  0  0
   13.3443  -10.7705   -9.3354 C   0  0  0  0  0  0  0  0  0  0  0  0
   13.1298  -11.7540   -8.3492 C   0  0  0  0  0  0  0  0  0  0  0  0
   12.3526  -12.7056   -8.4793 O   0  0  0  0  0  0  0  0  0  0  0  0
   13.7915  -11.6602   -7.1526 O   0  0  0  0  0  0  0  0  0  0  0  0
   14.6741  -10.5828   -6.9348 C   0  0  0  0  0  0  0  0  0  0  0  0
   15.4279  -10.3419   -5.8508 N   0  0  0  0  0  0  0  0  0  0  0  0
   16.0853   -9.3257   -6.0504 N   0  0  0  0  0  0  0  0  0  0  0  0
   15.8539   -8.8655   -7.2715 C   0  0  0  0  0  0  0  0  0  0  0  0
   15.4496  -10.8891   -5.0327 H   0  0  0  0  0  0  0  0  0  0  0  0
   16.5212   -7.6094   -7.7926 C   0  0  0  0  0  0  0  0  0  0  0  0
   15.5765   -6.4555   -7.5052 C   0  0  0  0  0  0  0  0  0  0  0  0
   16.0204   -5.1937   -8.2850 C   0  0  0  0  0  0  0  0  0  0  0  0
  5  4  2  0  0  0
  5  6  1  0  0  0
  4  3  1  0  0  0
  6  7  2  0  0  0
  3  2  2  0  0  0
  7  2  1  0  0  0
  7  8  1  0  0  0
  2  1  1  0  0  0
  9  8  2  0  0  0
  8 10  1  0  0  0
  1 14  1  0  0  0
  1 11  2  0  0  0
 16 14  1  0  0  0
 16 17  1  0  0  0
 10 11  1  0  0  0
 14 13  2  0  0  0
 11 12  1  0  0  0
 18 17  1  0  0  0
 13 12  1  0  0  0
 12 15  1  0  0  0
M  END
> <minimizedAffinity>
-8.35001

$$$$
5HRW_64E_A_801


 18 20  0  0  0  0  0  0  0  0999 V2000
   15.1859   -9.0137   -8.1949 C   0  0  0  0  0  0  0  0  0  0  0  0
   14.2229   -9.9162   -8.6616 C   0  0  0  0  0  0  0  0  0  0  0  0
   13.7009  -10.9563   -7.8755 C   0  0  0  0  0  0  0  0  0  0  0  0
   12.7613  -11.8855   -8.3624 C   0  0  0  0  0  0  0  0  0  0  0  0
   12.3497  -11.7917   -9.6807 C   0  0  0  0  0  0  0  0  0  0  0  0
   12.8602  -10.7761  -10.4988 C   0  0  0  0  0  0  0  0  0  0  0  0
   13.7853   -9.8298  -10.0008 C   0  0  0  0  0  0  0  0  0  0  0  0
   14.2635   -8.8031  -10.8392 C   0  0  0  0  0  0  0  0  0  0  0  0
   13.9087   -8.6470  -12.0124 O   0  0  0  0  0  0  0  0  0  0  0  0
   15.1991   -7.9248  -10.3582 O   0  0  0  0  0  0  0  0  0  0  0  0
   15.6617   -8.0660   -9.0340 C   0  0  0  0  0  0  0  0  0  0  0  0
   16.5427   -7.2912   -8.3824 N   0  0  0  0  0  0  0  0  0  0  0  0
   16.6653   -7.7165   -7.2383 N   0  0  0  0  0  0  0  0  0  0  0  0
   15.8537   -8.7464   -7.0454 C   0  0  0  0  0  0  0  0  0  0  0  0
   17.0120   -6.5122   -8.7593 H   0  0  0  0  0  0  0  0  0  0  0  0
   15.7985   -9.4845   -5.7238 C   0  0  0  0  0  0  0  0  0  0  0  0
   16.7515   -8.7722   -4.7798 C   0  0  0  0  0  0  0  0  0  0  0  0
   15.9622   -7.8514   -3.8172 C   0  0  0  0  0  0  0  0  0  0  0  0
  5  4  2  0  0  0
  5  6  1  0  0  0
  4  3  1  0  0  0
  6  7  2  0  0  0
  3  2  2  0  0  0
  7  2  1  0  0  0
  7  8  1  0  0  0
  2  1  1  0  0  0
  9  8  2  0  0  0
  8 10  1  0  0  0
  1 14  1  0  0  0
  1 11  2  0  0  0
 16 14  1  0  0  0
 16 17  1  0  0  0
 10 11  1  0  0  0
 14 13  2  0  0  0
 11 12  1  0  0  0
 18 17  1  0  0  0
 13 12  1  0  0  0
 12 15  1  0  0  0
M  END
> <minimizedAffinity>
-8.02540

$$$$
5HRW_64E_A_801


 18 20  0  0  0  0  0  0  0  0999 V2000
   15.0834   -8.8595   -8.2430 C   0  0  0  0  0  0  0  0  0  0  0  0
   15.7976   -8.6582   -7.0559 C   0  0  0  0  0  0  0  0  0  0  0  0
   15.7275   -9.5336   -5.9602 C   0  0  0  0  0  0  0  0  0  0  0  0
   16.4173   -9.3058   -4.7537 C   0  0  0  0  0  0  0  0  0  0  0  0
   17.1788   -8.1569   -4.6257 C   0  0  0  0  0  0  0  0  0  0  0  0
   17.2602   -7.2533   -5.6926 C   0  0  0  0  0  0  0  0  0  0  0  0
   16.5859   -7.4962   -6.9114 C   0  0  0  0  0  0  0  0  0  0  0  0
   16.7057   -6.5824   -7.9774 C   0  0  0  0  0  0  0  0  0  0  0  0
   17.3961   -5.5584   -7.9359 O   0  0  0  0  0  0  0  0  0  0  0  0
   16.0049   -6.8045   -9.1339 O   0  0  0  0  0  0  0  0  0  0  0  0
   15.1805   -7.9437   -9.2332 C   0  0  0  0  0  0  0  0  0  0  0  0
   14.4499   -8.3424  -10.2861 N   0  0  0  0  0  0  0  0  0  0  0  0
   13.8929   -9.3966   -9.9981 N   0  0  0  0  0  0  0  0  0  0  0  0
   14.2500   -9.7835   -8.7818 C   0  0  0  0  0  0  0  0  0  0  0  0
   14.3739   -7.8682  -11.1455 H   0  0  0  0  0  0  0  0  0  0  0  0
   13.7066  -11.0503   -8.1538 C   0  0  0  0  0  0  0  0  0  0  0  0
   12.3634  -11.3262   -8.8067 C   0  0  0  0  0  0  0  0  0  0  0  0
   12.4023  -12.6787   -9.5595 C   0  0  0  0  0  0  0  0  0  0  0  0
  5  4  2  0  0  0
  5  6  1  0  0  0
  4  3  1  0  0  0
  6  7  2  0  0  0
  3  2  2  0  0  0
  7  2  1  0  0  0
  7  8  1  0  0  0
  2  1  1  0  0  0
  9  8  2  0  0  0
  8 10  1  0  0  0
  1 14  1  0  0  0
  1 11  2  0  0  0
 16 14  1  0  0  0
 16 17  1  0  0  0
 10 11  1  0  0  0
 14 13  2  0  0  0
 11 12  1  0  0  0
 18 17  1  0  0  0
 13 12  1  0  0  0
 12 15  1  0  0  0
M  END
> <minimizedAffinity>
-7.28678

$$$$
5HRW_64E_A_801


 18 20  0  0  0  0  0  0  0  0999 V2000
   15.1256   -8.5151   -8.9606 C   0  0  0  0  0  0  0  0  0  0  0  0
   14.3834   -9.6657   -8.6691 C   0  0  0  0  0  0  0  0  0  0  0  0
   14.4414  -10.3229   -7.4295 C   0  0  0  0  0  0  0  0  0  0  0  0
   13.7229  -11.5025   -7.1547 C   0  0  0  0  0  0  0  0  0  0  0  0
   12.9437  -12.0588   -8.1545 C   0  0  0  0  0  0  0  0  0  0  0  0
   12.8732  -11.4390   -9.4083 C   0  0  0  0  0  0  0  0  0  0  0  0
   13.5768  -10.2417   -9.6741 C   0  0  0  0  0  0  0  0  0  0  0  0
   13.4678   -9.6258  -10.9369 C   0  0  0  0  0  0  0  0  0  0  0  0
   12.7633  -10.0548  -11.8569 O   0  0  0  0  0  0  0  0  0  0  0  0
   14.1963   -8.4945  -11.1971 O   0  0  0  0  0  0  0  0  0  0  0  0
   15.0376   -7.9699  -10.1950 C   0  0  0  0  0  0  0  0  0  0  0  0
   15.7959   -6.8640  -10.2520 N   0  0  0  0  0  0  0  0  0  0  0  0
   16.3606   -6.7217   -9.1724 N   0  0  0  0  0  0  0  0  0  0  0  0
   15.9825   -7.6735   -8.3312 C   0  0  0  0  0  0  0  0  0  0  0  0
   15.8842   -6.2671  -11.0299 H   0  0  0  0  0  0  0  0  0  0  0  0
   16.5289   -7.7578   -6.9209 C   0  0  0  0  0  0  0  0  0  0  0  0
   17.7917   -6.9148   -6.8853 C   0  0  0  0  0  0  0  0  0  0  0  0
   18.0592   -6.4127   -5.4452 C   0  0  0  0  0  0  0  0  0  0  0  0
  5  4  2  0  0  0
  5  6  1  0  0  0
  4  3  1  0  0  0
  6  7  2  0  0  0
  3  2  2  0  0  0
  7  2  1  0  0  0
  7  8  1  0  0  0
  2  1  1  0  0  0
  9  8  2  0  0  0
  8 10  1  0  0  0
  1 14  1  0  0  0
  1 11  2  0  0  0
 16 14  1  0  0  0
 16 17  1  0  0  0
 10 11  1  0  0  0
 14 13  2  0  0  0
 11 12  1  0  0  0
 18 17  1  0  0  0
 13 12  1  0  0  0
 12 15  1  0  0  0
M  END
> <minimizedAffinity>
-7.23662

$$$$
5HRW_64E_A_801


 18 20  0  0  0  0  0  0  0  0999 V2000
   15.3917   -9.1236   -7.4647 C   0  0  0  0  0  0  0  0  0  0  0  0
   16.1097   -7.9502   -7.2052 C   0  0  0  0  0  0  0  0  0  0  0  0
   16.2880   -6.9332   -8.1570 C   0  0  0  0  0  0  0  0  0  0  0  0
   17.0444   -5.7726   -7.9037 C   0  0  0  0  0  0  0  0  0  0  0  0
   17.6643   -5.6339   -6.6738 C   0  0  0  0  0  0  0  0  0  0  0  0
   17.5209   -6.6350   -5.7051 C   0  0  0  0  0  0  0  0  0  0  0  0
   16.7412   -7.7881   -5.9533 C   0  0  0  0  0  0  0  0  0  0  0  0
   16.5934   -8.7680   -4.9514 C   0  0  0  0  0  0  0  0  0  0  0  0
   17.0932   -8.6852   -3.8243 O   0  0  0  0  0  0  0  0  0  0  0  0
   15.8780   -9.9046   -5.2243 O   0  0  0  0  0  0  0  0  0  0  0  0
   15.3034  -10.0683   -6.5011 C   0  0  0  0  0  0  0  0  0  0  0  0
   14.5494  -11.0879   -6.9403 N   0  0  0  0  0  0  0  0  0  0  0  0
   14.2114  -10.8541   -8.0961 N   0  0  0  0  0  0  0  0  0  0  0  0
   14.6662   -9.6676   -8.4729 C   0  0  0  0  0  0  0  0  0  0  0  0
   14.3079  -11.8893   -6.4218 H   0  0  0  0  0  0  0  0  0  0  0  0
   14.4121   -9.1178   -9.8613 C   0  0  0  0  0  0  0  0  0  0  0  0
   12.9090   -9.1412  -10.0775 C   0  0  0  0  0  0  0  0  0  0  0  0
   12.5580  -10.0260  -11.2988 C   0  0  0  0  0  0  0  0  0  0  0  0
  5  4  2  0  0  0
  5  6  1  0  0  0
  4  3  1  0  0  0
  6  7  2  0  0  0
  3  2  2  0  0  0
  7  2  1  0  0  0
  7  8  1  0  0  0
  2  1  1  0  0  0
  9  8  2  0  0  0
  8 10  1  0  0  0
  1 14  1  0  0  0
  1 11  2  0  0  0
 16 14  1  0  0  0
 16 17  1  0  0  0
 10 11  1  0  0  0
 14 13  2  0  0  0
 11 12  1  0  0  0
 18 17  1  0  0  0
 13 12  1  0  0  0
 12 15  1  0  0  0
M  END
> <minimizedAffinity>
-6.85851

$$$$
5HRW_64E_A_801


 18 20  0  0  0  0  0  0  0  0999 V2000
   15.9027   -8.1445   -7.7296 C   0  0  0  0  0  0  0  0  0  0  0  0
   16.5028   -7.9228   -6.4845 C   0  0  0  0  0  0  0  0  0  0  0  0
   16.4706   -8.8600   -5.4392 C   0  0  0  0  0  0  0  0  0  0  0  0
   17.0419   -8.6161   -4.1753 C   0  0  0  0  0  0  0  0  0  0  0  0
   17.6399   -7.3905   -3.9372 C   0  0  0  0  0  0  0  0  0  0  0  0
   17.6777   -6.4257   -4.9515 C   0  0  0  0  0  0  0  0  0  0  0  0
   17.1246   -6.6819   -6.2273 C   0  0  0  0  0  0  0  0  0  0  0  0
   17.1990   -5.7022   -7.2374 C   0  0  0  0  0  0  0  0  0  0  0  0
   17.7484   -4.6044   -7.0967 O   0  0  0  0  0  0  0  0  0  0  0  0
   16.6126   -5.9446   -8.4522 O   0  0  0  0  0  0  0  0  0  0  0  0
   15.9492   -7.1699   -8.6659 C   0  0  0  0  0  0  0  0  0  0  0  0
   15.3490   -7.5967   -9.7879 N   0  0  0  0  0  0  0  0  0  0  0  0
   14.9128   -8.7264   -9.5919 N   0  0  0  0  0  0  0  0  0  0  0  0
   15.2328   -9.1332   -8.3718 C   0  0  0  0  0  0  0  0  0  0  0  0
   15.2717   -7.0884  -10.6274 H   0  0  0  0  0  0  0  0  0  0  0  0
   14.8142  -10.4908   -7.8460 C   0  0  0  0  0  0  0  0  0  0  0  0
   13.8302  -11.0685   -8.8482 C   0  0  0  0  0  0  0  0  0  0  0  0
   12.3785  -10.8723   -8.3466 C   0  0  0  0  0  0  0  0  0  0  0  0
  5  4  2  0  0  0
  5  6  1  0  0  0
  4  3  1  0  0  0
  6  7  2  0  0  0
  3  2  2  0  0  0
  7  2  1  0  0  0
  7  8  1  0  0  0
  2  1  1  0  0  0
  9  8  2  0  0  0
  8 10  1  0  0  0
  1 14  1  0  0  0
  1 11  2  0  0  0
 16 14  1  0  0  0
 16 17  1  0  0  0
 10 11  1  0  0  0
 14 13  2  0  0  0
 11 12  1  0  0  0
 18 17  1  0  0  0
 13 12  1  0  0  0
 12 15  1  0  0  0
M  END
> <minimizedAffinity>
-6.45347

$$$$
5HRW_64E_A_801


 18 20  0  0  0  0  0  0  0  0999 V2000
   16.2251   -8.3529   -6.2778 C   0  0  0  0  0  0  0  0  0  0  0  0
   15.6206   -8.6915   -7.4942 C   0  0  0  0  0  0  0  0  0  0  0  0
   15.6876   -7.8785   -8.6372 C   0  0  0  0  0  0  0  0  0  0  0  0
   15.0446   -8.2048   -9.8469 C   0  0  0  0  0  0  0  0  0  0  0  0
   14.2896   -9.3633   -9.9112 C   0  0  0  0  0  0  0  0  0  0  0  0
   14.1878  -10.1913   -8.7864 C   0  0  0  0  0  0  0  0  0  0  0  0
   14.8539   -9.8737   -7.5803 C   0  0  0  0  0  0  0  0  0  0  0  0
   14.7546  -10.7378   -6.4717 C   0  0  0  0  0  0  0  0  0  0  0  0
   14.1249  -11.8009   -6.4780 O   0  0  0  0  0  0  0  0  0  0  0  0
   15.3627  -10.3908   -5.2935 O   0  0  0  0  0  0  0  0  0  0  0  0
   16.0763   -9.1775   -5.2165 C   0  0  0  0  0  0  0  0  0  0  0  0
   16.7577   -8.6879   -4.1690 N   0  0  0  0  0  0  0  0  0  0  0  0
   17.2687   -7.6227   -4.4991 N   0  0  0  0  0  0  0  0  0  0  0  0
   17.0080   -7.3675   -5.7732 C   0  0  0  0  0  0  0  0  0  0  0  0
   16.8345   -9.1125   -3.2841 H   0  0  0  0  0  0  0  0  0  0  0  0
   17.5036   -6.1085   -6.4542 C   0  0  0  0  0  0  0  0  0  0  0  0
   18.9901   -6.2963   -6.7026 C   0  0  0  0  0  0  0  0  0  0  0  0
   19.8078   -5.3318   -5.8090 C   0  0  0  0  0  0  0  0  0  0  0  0
  5  4  2  0  0  0
  5  6  1  0  0  0
  4  3  1  0  0  0
  6  7  2  0  0  0
  3  2  2  0  0  0
  7  2  1  0  0  0
  7  8  1  0  0  0
  2  1  1  0  0  0
  9  8  2  0  0  0
  8 10  1  0  0  0
  1 14  1  0  0  0
  1 11  2  0  0  0
 16 14  1  0  0  0
 16 17  1  0  0  0
 10 11  1  0  0  0
 14 13  2  0  0  0
 11 12  1  0  0  0
 18 17  1  0  0  0
 13 12  1  0  0  0
 12 15  1  0  0  0
M  END
> <minimizedAffinity>
-6.38504

$$$$
5HRW_64E_A_801


 18 20  0  0  0  0  0  0  0  0999 V2000
   16.0689   -7.2088   -8.2926 C   0  0  0  0  0  0  0  0  0  0  0  0
   15.7154   -8.3993   -7.6465 C   0  0  0  0  0  0  0  0  0  0  0  0
   16.0957   -8.6995   -6.3284 C   0  0  0  0  0  0  0  0  0  0  0  0
   15.7708   -9.9154   -5.6966 C   0  0  0  0  0  0  0  0  0  0  0  0
   15.0688  -10.8723   -6.4092 C   0  0  0  0  0  0  0  0  0  0  0  0
   14.6856  -10.6138   -7.7311 C   0  0  0  0  0  0  0  0  0  0  0  0
   14.9921   -9.3827   -8.3552 C   0  0  0  0  0  0  0  0  0  0  0  0
   14.5722   -9.1395   -9.6782 C   0  0  0  0  0  0  0  0  0  0  0  0
   13.9150   -9.9392  -10.3530 O   0  0  0  0  0  0  0  0  0  0  0  0
   14.9216   -7.9628  -10.2878 O   0  0  0  0  0  0  0  0  0  0  0  0
   15.6920   -7.0199   -9.5774 C   0  0  0  0  0  0  0  0  0  0  0  0
   16.1001   -5.8102   -9.9914 N   0  0  0  0  0  0  0  0  0  0  0  0
   16.7221   -5.2749   -9.0797 N   0  0  0  0  0  0  0  0  0  0  0  0
   16.7232   -6.0556   -8.0087 C   0  0  0  0  0  0  0  0  0  0  0  0
   15.9289   -5.4182  -10.8781 H   0  0  0  0  0  0  0  0  0  0  0  0
   17.4288   -5.6567   -6.7290 C   0  0  0  0  0  0  0  0  0  0  0  0
   18.8175   -6.2696   -6.7807 C   0  0  0  0  0  0  0  0  0  0  0  0
   19.8935   -5.1563   -6.7925 C   0  0  0  0  0  0  0  0  0  0  0  0
  5  4  2  0  0  0
  5  6  1  0  0  0
  4  3  1  0  0  0
  6  7  2  0  0  0
  3  2  2  0  0  0
  7  2  1  0  0  0
  7  8  1  0  0  0
  2  1  1  0  0  0
  9  8  2  0  0  0
  8 10  1  0  0  0
  1 14  1  0  0  0
  1 11  2  0  0  0
 16 14  1  0  0  0
 16 17  1  0  0  0
 10 11  1  0  0  0
 14 13  2  0  0  0
 11 12  1  0  0  0
 18 17  1  0  0  0
 13 12  1  0  0  0
 12 15  1  0  0  0
M  END
> <minimizedAffinity>
-6.04286

$$$$
5HRW_64E_A_801


 18 20  0  0  0  0  0  0  0  0999 V2000
   16.0903   -8.2471   -6.6755 C   0  0  0  0  0  0  0  0  0  0  0  0
   16.3570   -7.1083   -7.4448 C   0  0  0  0  0  0  0  0  0  0  0  0
   16.9495   -5.9486   -6.9195 C   0  0  0  0  0  0  0  0  0  0  0  0
   17.1795   -4.7915   -7.6886 C   0  0  0  0  0  0  0  0  0  0  0  0
   16.7825   -4.7804   -9.0147 C   0  0  0  0  0  0  0  0  0  0  0  0
   16.1748   -5.9139   -9.5690 C   0  0  0  0  0  0  0  0  0  0  0  0
   15.9667   -7.0828   -8.8011 C   0  0  0  0  0  0  0  0  0  0  0  0
   15.3757   -8.2177   -9.3914 C   0  0  0  0  0  0  0  0  0  0  0  0
   15.0316   -8.2807  -10.5764 O   0  0  0  0  0  0  0  0  0  0  0  0
   15.1326   -9.3251   -8.6213 O   0  0  0  0  0  0  0  0  0  0  0  0
   15.4810   -9.3058   -7.2555 C   0  0  0  0  0  0  0  0  0  0  0  0
   15.3511  -10.2955   -6.3584 N   0  0  0  0  0  0  0  0  0  0  0  0
   15.7936   -9.9074   -5.2821 N   0  0  0  0  0  0  0  0  0  0  0  0
   16.2815   -8.6813   -5.4052 C   0  0  0  0  0  0  0  0  0  0  0  0
   14.9653  -11.1839   -6.5345 H   0  0  0  0  0  0  0  0  0  0  0  0
   16.8853   -7.9392   -4.2308 C   0  0  0  0  0  0  0  0  0  0  0  0
   15.7304   -7.4745   -3.3608 C   0  0  0  0  0  0  0  0  0  0  0  0
   15.3494   -6.0154   -3.7122 C   0  0  0  0  0  0  0  0  0  0  0  0
  5  4  2  0  0  0
  5  6  1  0  0  0
  4  3  1  0  0  0
  6  7  2  0  0  0
  3  2  2  0  0  0
  7  2  1  0  0  0
  7  8  1  0  0  0
  2  1  1  0  0  0
  9  8  2  0  0  0
  8 10  1  0  0  0
  1 14  1  0  0  0
  1 11  2  0  0  0
 16 14  1  0  0  0
 16 17  1  0  0  0
 10 11  1  0  0  0
 14 13  2  0  0  0
 11 12  1  0  0  0
 18 17  1  0  0  0
 13 12  1  0  0  0
 12 15  1  0  0  0
M  END
> <minimizedAffinity>
-5.87151

$$$$
5HRW_64E_A_801


 18 20  0  0  0  0  0  0  0  0999 V2000
   16.4461   -6.5009   -7.9810 C   0  0  0  0  0  0  0  0  0  0  0  0
   16.3831   -7.3729   -6.8878 C   0  0  0  0  0  0  0  0  0  0  0  0
   16.8815   -7.0468   -5.6160 C   0  0  0  0  0  0  0  0  0  0  0  0
   16.8511   -7.9425   -4.5297 C   0  0  0  0  0  0  0  0  0  0  0  0
   16.3327   -9.2113   -4.7238 C   0  0  0  0  0  0  0  0  0  0  0  0
   15.8399   -9.5769   -5.9827 C   0  0  0  0  0  0  0  0  0  0  0  0
   15.8497   -8.6677   -7.0655 C   0  0  0  0  0  0  0  0  0  0  0  0
   15.3244   -9.0539   -8.3147 C   0  0  0  0  0  0  0  0  0  0  0  0
   14.8184  -10.1584   -8.5404 O   0  0  0  0  0  0  0  0  0  0  0  0
   15.3881   -8.1803   -9.3688 O   0  0  0  0  0  0  0  0  0  0  0  0
   15.9761   -6.9131   -9.1801 C   0  0  0  0  0  0  0  0  0  0  0  0
   16.0997   -5.9210  -10.0755 N   0  0  0  0  0  0  0  0  0  0  0  0
   16.6385   -4.9651   -9.5272 N   0  0  0  0  0  0  0  0  0  0  0  0
   16.8558   -5.2362   -8.2482 C   0  0  0  0  0  0  0  0  0  0  0  0
   15.8070   -5.9548  -11.0149 H   0  0  0  0  0  0  0  0  0  0  0  0
   17.5228   -4.2405   -7.3218 C   0  0  0  0  0  0  0  0  0  0  0  0
   18.9900   -4.1892   -7.7107 C   0  0  0  0  0  0  0  0  0  0  0  0
   19.7999   -5.2144   -6.8797 C   0  0  0  0  0  0  0  0  0  0  0  0
  5  4  2  0  0  0
  5  6  1  0  0  0
  4  3  1  0  0  0
  6  7  2  0  0  0
  3  2  2  0  0  0
  7  2  1  0  0  0
  7  8  1  0  0  0
  2  1  1  0  0  0
  9  8  2  0  0  0
  8 10  1  0  0  0
  1 14  1  0  0  0
  1 11  2  0  0  0
 16 14  1  0  0  0
 16 17  1  0  0  0
 10 11  1  0  0  0
 14 13  2  0  0  0
 11 12  1  0  0  0
 18 17  1  0  0  0
 13 12  1  0  0  0
 12 15  1  0  0  0
M  END
> <minimizedAffinity>
-5.82310

$$$$
