6FTZ_E7E_A_301


 29 31  0  0  0  0  0  0  0  0999 V2000
    3.7216   11.3302    1.6994 C   0  0  0  0  0  0  0  0  0  0  0  0
    2.4192   10.9382    2.0914 C   0  0  0  0  0  0  0  0  0  0  0  0
    2.0796    9.5799    2.2373 C   0  0  0  0  0  0  0  0  0  0  0  0
    4.7549   10.3881    1.4523 C   0  0  0  0  0  0  0  0  0  0  0  0
    4.3808    9.0360    1.5961 C   0  0  0  0  0  0  0  0  0  0  0  0
    3.0981    8.6451    1.9802 C   0  0  0  0  0  0  0  0  0  0  0  0
    3.0351    7.3014    2.0170 N   0  0  0  0  0  0  0  0  0  0  0  0
    4.1853    6.7445    1.7176 C   0  0  0  0  0  0  0  0  0  0  0  0
    5.0804    7.7079    1.4399 C   0  0  0  0  0  0  0  0  0  0  0  0
    2.2213    6.7952    2.2422 H   0  0  0  0  0  0  0  0  0  0  0  0
    4.4622    5.2881    1.6515 C   0  0  0  0  0  0  0  0  0  0  0  0
    5.7022    4.7885    1.8293 N   0  0  0  0  0  0  0  0  0  0  0  0
    3.5179    4.5325    1.4556 O   0  0  0  0  0  0  0  0  0  0  0  0
    5.8533    3.8170    1.7793 H   0  0  0  0  0  0  0  0  0  0  0  0
    6.4563    5.3954    2.0090 H   0  0  0  0  0  0  0  0  0  0  0  0
    6.1622   10.7767    1.0052 C   0  0  0  0  0  0  0  0  0  0  0  0
    6.3305   11.0031   -0.1857 O   0  0  0  0  0  0  0  0  0  0  0  0
    7.1670   10.8892    1.9202 N   0  0  0  0  0  0  0  0  0  0  0  0
    6.9226   10.6775    2.8501 H   0  0  0  0  0  0  0  0  0  0  0  0
    8.5275   11.2734    1.7097 C   0  0  0  0  0  0  0  0  0  0  0  0
    8.8085   12.6407    1.7945 C   0  0  0  0  0  0  0  0  0  0  0  0
   11.1359   12.2562    1.2657 C   0  0  0  0  0  0  0  0  0  0  0  0
   10.8885   10.8792    1.1717 C   0  0  0  0  0  0  0  0  0  0  0  0
   10.1034   13.1494    1.5871 C   0  0  0  0  0  0  0  0  0  0  0  0
    9.5865   10.3868    1.3921 C   0  0  0  0  0  0  0  0  0  0  0  0
   10.3042   14.6712    1.6593 C   0  0  0  0  0  0  0  0  0  0  0  0
   11.5217   15.1232    0.9621 N   0  0  0  0  0  0  0  0  0  0  0  0
   12.3409   14.7036    1.4018 H   0  0  0  0  0  0  0  0  0  0  0  0
   11.5884   16.1394    1.0186 H   0  0  0  0  0  0  0  0  0  0  0  0
 13 11  2  0  0  0
 12 11  1  0  0  0
 11  8  1  0  0  0
 26 24  1  0  0  0
 26 27  1  0  0  0
  8  9  2  0  0  0
  8  7  1  0  0  0
 24 21  2  0  0  0
 24 22  1  0  0  0
  9  5  1  0  0  0
 21 20  1  0  0  0
  7  6  1  0  0  0
 22 23  2  0  0  0
  5  6  2  0  0  0
  5  4  1  0  0  0
 20 18  1  0  0  0
 20 25  2  0  0  0
  6  3  1  0  0  0
 18 16  1  0  0  0
 16  4  1  0  0  0
 16 17  2  0  0  0
  4  1  2  0  0  0
 23 25  1  0  0  0
  3  2  2  0  0  0
  1  2  1  0  0  0
  7 10  1  0  0  0
 12 14  1  0  0  0
 12 15  1  0  0  0
 18 19  1  0  0  0
 27 28  1  0  0  0
 27 29  1  0  0  0
M  END
> <minimizedAffinity>
-7.74513

$$$$
6FTZ_E7E_A_301


 29 31  0  0  0  0  0  0  0  0999 V2000
    2.4783    9.6626    2.1642 C   0  0  0  0  0  0  0  0  0  0  0  0
    1.9106   10.9592    2.1607 C   0  0  0  0  0  0  0  0  0  0  0  0
    2.6265   12.0671    1.6691 C   0  0  0  0  0  0  0  0  0  0  0  0
    3.7802    9.4034    1.6601 C   0  0  0  0  0  0  0  0  0  0  0  0
    4.4758   10.5346    1.1852 C   0  0  0  0  0  0  0  0  0  0  0  0
    3.9211   11.8144    1.1817 C   0  0  0  0  0  0  0  0  0  0  0  0
    4.8190   12.6868    0.6883 N   0  0  0  0  0  0  0  0  0  0  0  0
    5.9337   12.0963    0.3254 C   0  0  0  0  0  0  0  0  0  0  0  0
    5.8384   10.7811    0.5853 C   0  0  0  0  0  0  0  0  0  0  0  0
    4.6586   13.6549    0.6088 H   0  0  0  0  0  0  0  0  0  0  0  0
    7.1318   12.7615   -0.2441 C   0  0  0  0  0  0  0  0  0  0  0  0
    8.3799   12.4564    0.1656 N   0  0  0  0  0  0  0  0  0  0  0  0
    6.9615   13.5897   -1.1307 O   0  0  0  0  0  0  0  0  0  0  0  0
    9.1546   12.9158   -0.2321 H   0  0  0  0  0  0  0  0  0  0  0  0
    8.5164   11.7743    0.8623 H   0  0  0  0  0  0  0  0  0  0  0  0
    4.4303    8.0218    1.6715 C   0  0  0  0  0  0  0  0  0  0  0  0
    5.6069    7.9575    2.0021 O   0  0  0  0  0  0  0  0  0  0  0  0
    3.6992    6.9162    1.3510 N   0  0  0  0  0  0  0  0  0  0  0  0
    2.7638    7.0834    1.0935 H   0  0  0  0  0  0  0  0  0  0  0  0
    4.1094    5.5471    1.3391 C   0  0  0  0  0  0  0  0  0  0  0  0
    3.1326    4.6074    0.9945 C   0  0  0  0  0  0  0  0  0  0  0  0
    4.6879    2.7845    1.3143 C   0  0  0  0  0  0  0  0  0  0  0  0
    5.6904    3.6997    1.6657 C   0  0  0  0  0  0  0  0  0  0  0  0
    3.4035    3.2275    0.9660 C   0  0  0  0  0  0  0  0  0  0  0  0
    5.4031    5.0793    1.6796 C   0  0  0  0  0  0  0  0  0  0  0  0
    2.2531    2.2703    0.6169 C   0  0  0  0  0  0  0  0  0  0  0  0
    2.5191    0.8797    1.0269 N   0  0  0  0  0  0  0  0  0  0  0  0
    3.3422    0.5318    0.5351 H   0  0  0  0  0  0  0  0  0  0  0  0
    1.7139    0.2974    0.7965 H   0  0  0  0  0  0  0  0  0  0  0  0
 13 11  2  0  0  0
 12 11  1  0  0  0
 11  8  1  0  0  0
 26 24  1  0  0  0
 26 27  1  0  0  0
  8  9  2  0  0  0
  8  7  1  0  0  0
 24 21  2  0  0  0
 24 22  1  0  0  0
  9  5  1  0  0  0
 21 20  1  0  0  0
  7  6  1  0  0  0
 22 23  2  0  0  0
  5  6  2  0  0  0
  5  4  1  0  0  0
 20 18  1  0  0  0
 20 25  2  0  0  0
  6  3  1  0  0  0
 18 16  1  0  0  0
 16  4  1  0  0  0
 16 17  2  0  0  0
  4  1  2  0  0  0
 23 25  1  0  0  0
  3  2  2  0  0  0
  1  2  1  0  0  0
  7 10  1  0  0  0
 12 14  1  0  0  0
 12 15  1  0  0  0
 18 19  1  0  0  0
 27 28  1  0  0  0
 27 29  1  0  0  0
M  END
> <minimizedAffinity>
-7.64566

$$$$
6FTZ_E7E_A_301


 29 31  0  0  0  0  0  0  0  0999 V2000
    9.9069   10.8526    1.6092 C   0  0  0  0  0  0  0  0  0  0  0  0
   11.2043   11.3997    1.7532 C   0  0  0  0  0  0  0  0  0  0  0  0
   11.5749   12.5824    1.0857 C   0  0  0  0  0  0  0  0  0  0  0  0
    8.9090   11.4679    0.8081 C   0  0  0  0  0  0  0  0  0  0  0  0
    9.3139   12.6444    0.1441 C   0  0  0  0  0  0  0  0  0  0  0  0
   10.5920   13.1860    0.2814 C   0  0  0  0  0  0  0  0  0  0  0  0
   10.6898   14.2926   -0.4779 N   0  0  0  0  0  0  0  0  0  0  0  0
    9.5666   14.5662   -1.0995 C   0  0  0  0  0  0  0  0  0  0  0  0
    8.6565   13.6249   -0.7960 C   0  0  0  0  0  0  0  0  0  0  0  0
   11.5083   14.8338   -0.5579 H   0  0  0  0  0  0  0  0  0  0  0  0
    9.3317   15.7033   -2.0235 C   0  0  0  0  0  0  0  0  0  0  0  0
    9.6713   16.9677   -1.7001 N   0  0  0  0  0  0  0  0  0  0  0  0
    8.8384   15.4608   -3.1185 O   0  0  0  0  0  0  0  0  0  0  0  0
    9.5023   17.7006   -2.3353 H   0  0  0  0  0  0  0  0  0  0  0  0
   10.0883   17.1579   -0.8288 H   0  0  0  0  0  0  0  0  0  0  0  0
    7.5087   10.8911    0.6130 C   0  0  0  0  0  0  0  0  0  0  0  0
    7.1720   10.6086   -0.5292 O   0  0  0  0  0  0  0  0  0  0  0  0
    6.6967   10.6808    1.6881 N   0  0  0  0  0  0  0  0  0  0  0  0
    7.0654   10.9502    2.5603 H   0  0  0  0  0  0  0  0  0  0  0  0
    5.3816   10.1215    1.7180 C   0  0  0  0  0  0  0  0  0  0  0  0
    5.2980    8.7257    1.6922 C   0  0  0  0  0  0  0  0  0  0  0  0
    2.8821    8.8104    1.7061 C   0  0  0  0  0  0  0  0  0  0  0  0
    2.9300   10.2115    1.7311 C   0  0  0  0  0  0  0  0  0  0  0  0
    4.0626    8.0532    1.6963 C   0  0  0  0  0  0  0  0  0  0  0  0
    4.1771   10.8679    1.7361 C   0  0  0  0  0  0  0  0  0  0  0  0
    4.0730    6.5183    1.6229 C   0  0  0  0  0  0  0  0  0  0  0  0
    5.3627    5.9329    2.0312 N   0  0  0  0  0  0  0  0  0  0  0  0
    6.0972    6.2560    1.4015 H   0  0  0  0  0  0  0  0  0  0  0  0
    5.3025    4.9155    1.9897 H   0  0  0  0  0  0  0  0  0  0  0  0
 13 11  2  0  0  0
 12 11  1  0  0  0
 11  8  1  0  0  0
 26 24  1  0  0  0
 26 27  1  0  0  0
  8  9  2  0  0  0
  8  7  1  0  0  0
 24 21  2  0  0  0
 24 22  1  0  0  0
  9  5  1  0  0  0
 21 20  1  0  0  0
  7  6  1  0  0  0
 22 23  2  0  0  0
  5  6  2  0  0  0
  5  4  1  0  0  0
 20 18  1  0  0  0
 20 25  2  0  0  0
  6  3  1  0  0  0
 18 16  1  0  0  0
 16  4  1  0  0  0
 16 17  2  0  0  0
  4  1  2  0  0  0
 23 25  1  0  0  0
  3  2  2  0  0  0
  1  2  1  0  0  0
  7 10  1  0  0  0
 12 14  1  0  0  0
 12 15  1  0  0  0
 18 19  1  0  0  0
 27 28  1  0  0  0
 27 29  1  0  0  0
M  END
> <minimizedAffinity>
-7.20627

$$$$
6FTZ_E7E_A_301


 29 31  0  0  0  0  0  0  0  0999 V2000
    3.5079   11.4945    1.6738 C   0  0  0  0  0  0  0  0  0  0  0  0
    2.3022   11.0903    2.2955 C   0  0  0  0  0  0  0  0  0  0  0  0
    2.0135    9.7294    2.5105 C   0  0  0  0  0  0  0  0  0  0  0  0
    4.4936   10.5630    1.2532 C   0  0  0  0  0  0  0  0  0  0  0  0
    4.1705    9.2079    1.4722 C   0  0  0  0  0  0  0  0  0  0  0  0
    2.9828    8.8049    2.0826 C   0  0  0  0  0  0  0  0  0  0  0  0
    2.9465    7.4609    2.1406 N   0  0  0  0  0  0  0  0  0  0  0  0
    4.0325    6.9155    1.6447 C   0  0  0  0  0  0  0  0  0  0  0  0
    4.8497    7.8872    1.2038 C   0  0  0  0  0  0  0  0  0  0  0  0
    2.1933    6.9469    2.5118 H   0  0  0  0  0  0  0  0  0  0  0  0
    4.3137    5.4621    1.5415 C   0  0  0  0  0  0  0  0  0  0  0  0
    5.5299    4.9491    1.8181 N   0  0  0  0  0  0  0  0  0  0  0  0
    3.3929    4.7205    1.2203 O   0  0  0  0  0  0  0  0  0  0  0  0
    5.6847    3.9799    1.7402 H   0  0  0  0  0  0  0  0  0  0  0  0
    6.2629    5.5437    2.0979 H   0  0  0  0  0  0  0  0  0  0  0  0
    5.7927   10.9646    0.5585 C   0  0  0  0  0  0  0  0  0  0  0  0
    6.1205   10.3252   -0.4322 O   0  0  0  0  0  0  0  0  0  0  0  0
    6.5243   12.0165    1.0252 N   0  0  0  0  0  0  0  0  0  0  0  0
    6.1721   12.4560    1.8327 H   0  0  0  0  0  0  0  0  0  0  0  0
    7.7342   12.5661    0.4988 C   0  0  0  0  0  0  0  0  0  0  0  0
    7.5960   13.5090   -0.5247 C   0  0  0  0  0  0  0  0  0  0  0  0
    9.9949   13.7303   -0.7261 C   0  0  0  0  0  0  0  0  0  0  0  0
   10.1692   12.7871    0.2966 C   0  0  0  0  0  0  0  0  0  0  0  0
    8.7095   14.1084   -1.1407 C   0  0  0  0  0  0  0  0  0  0  0  0
    9.0416   12.2041    0.9087 C   0  0  0  0  0  0  0  0  0  0  0  0
    8.4567   15.1014   -2.2858 C   0  0  0  0  0  0  0  0  0  0  0  0
    7.1686   14.8769   -2.9663 N   0  0  0  0  0  0  0  0  0  0  0  0
    7.1631   13.9469   -3.3854 H   0  0  0  0  0  0  0  0  0  0  0  0
    7.0422   15.5790   -3.6953 H   0  0  0  0  0  0  0  0  0  0  0  0
 13 11  2  0  0  0
 12 11  1  0  0  0
 11  8  1  0  0  0
 26 24  1  0  0  0
 26 27  1  0  0  0
  8  9  2  0  0  0
  8  7  1  0  0  0
 24 21  2  0  0  0
 24 22  1  0  0  0
  9  5  1  0  0  0
 21 20  1  0  0  0
  7  6  1  0  0  0
 22 23  2  0  0  0
  5  6  2  0  0  0
  5  4  1  0  0  0
 20 18  1  0  0  0
 20 25  2  0  0  0
  6  3  1  0  0  0
 18 16  1  0  0  0
 16  4  1  0  0  0
 16 17  2  0  0  0
  4  1  2  0  0  0
 23 25  1  0  0  0
  3  2  2  0  0  0
  1  2  1  0  0  0
  7 10  1  0  0  0
 12 14  1  0  0  0
 12 15  1  0  0  0
 18 19  1  0  0  0
 27 28  1  0  0  0
 27 29  1  0  0  0
M  END
> <minimizedAffinity>
-7.19395

$$$$
6FTZ_E7E_A_301


 29 31  0  0  0  0  0  0  0  0999 V2000
    7.3441    9.1284    2.5505 C   0  0  0  0  0  0  0  0  0  0  0  0
    8.7457    9.0576    2.7350 C   0  0  0  0  0  0  0  0  0  0  0  0
    9.6322    9.6681    1.8277 C   0  0  0  0  0  0  0  0  0  0  0  0
    6.7568    9.8275    1.4631 C   0  0  0  0  0  0  0  0  0  0  0  0
    7.6706   10.4187    0.5663 C   0  0  0  0  0  0  0  0  0  0  0  0
    9.0525   10.3497    0.7430 C   0  0  0  0  0  0  0  0  0  0  0  0
    9.6630   10.9879   -0.2723 N   0  0  0  0  0  0  0  0  0  0  0  0
    8.8034   11.5144   -1.1130 C   0  0  0  0  0  0  0  0  0  0  0  0
    7.5561   11.2278   -0.7025 C   0  0  0  0  0  0  0  0  0  0  0  0
   10.6402   11.0523   -0.3728 H   0  0  0  0  0  0  0  0  0  0  0  0
    9.1353   12.2725   -2.3448 C   0  0  0  0  0  0  0  0  0  0  0  0
    9.8885   13.3908   -2.3134 N   0  0  0  0  0  0  0  0  0  0  0  0
    8.7259   11.8375   -3.4144 O   0  0  0  0  0  0  0  0  0  0  0  0
   10.0912   13.8713   -3.1484 H   0  0  0  0  0  0  0  0  0  0  0  0
   10.2356   13.7266   -1.4555 H   0  0  0  0  0  0  0  0  0  0  0  0
    5.2508    9.9025    1.2225 C   0  0  0  0  0  0  0  0  0  0  0  0
    4.7853    9.1831    0.3487 O   0  0  0  0  0  0  0  0  0  0  0  0
    4.4736   10.7239    1.9846 N   0  0  0  0  0  0  0  0  0  0  0  0
    4.9525   11.2636    2.6544 H   0  0  0  0  0  0  0  0  0  0  0  0
    3.0566   10.9061    1.9409 C   0  0  0  0  0  0  0  0  0  0  0  0
    2.2858    9.9587    2.6221 C   0  0  0  0  0  0  0  0  0  0  0  0
    0.2373   11.0404    1.9310 C   0  0  0  0  0  0  0  0  0  0  0  0
    0.9798   12.0061    1.2366 C   0  0  0  0  0  0  0  0  0  0  0  0
    0.8804   10.0140    2.6381 C   0  0  0  0  0  0  0  0  0  0  0  0
    2.3876   11.9400    1.2396 C   0  0  0  0  0  0  0  0  0  0  0  0
    0.1200    8.9028    3.3786 C   0  0  0  0  0  0  0  0  0  0  0  0
   -1.1152    8.4931    2.6865 N   0  0  0  0  0  0  0  0  0  0  0  0
   -1.7519    9.2878    2.6281 H   0  0  0  0  0  0  0  0  0  0  0  0
   -1.5615    7.7373    3.2062 H   0  0  0  0  0  0  0  0  0  0  0  0
 13 11  2  0  0  0
 12 11  1  0  0  0
 11  8  1  0  0  0
 26 24  1  0  0  0
 26 27  1  0  0  0
  8  9  2  0  0  0
  8  7  1  0  0  0
 24 21  2  0  0  0
 24 22  1  0  0  0
  9  5  1  0  0  0
 21 20  1  0  0  0
  7  6  1  0  0  0
 22 23  2  0  0  0
  5  6  2  0  0  0
  5  4  1  0  0  0
 20 18  1  0  0  0
 20 25  2  0  0  0
  6  3  1  0  0  0
 18 16  1  0  0  0
 16  4  1  0  0  0
 16 17  2  0  0  0
  4  1  2  0  0  0
 23 25  1  0  0  0
  3  2  2  0  0  0
  1  2  1  0  0  0
  7 10  1  0  0  0
 12 14  1  0  0  0
 12 15  1  0  0  0
 18 19  1  0  0  0
 27 28  1  0  0  0
 27 29  1  0  0  0
M  END
> <minimizedAffinity>
-6.83932

$$$$
6FTZ_E7E_A_301


 29 31  0  0  0  0  0  0  0  0999 V2000
    9.9595   10.9576    1.5388 C   0  0  0  0  0  0  0  0  0  0  0  0
   11.2415   11.5360    1.6985 C   0  0  0  0  0  0  0  0  0  0  0  0
   11.5720   12.7577    1.0822 C   0  0  0  0  0  0  0  0  0  0  0  0
    8.9377   11.5782    0.7726 C   0  0  0  0  0  0  0  0  0  0  0  0
    9.3027   12.7945    0.1593 C   0  0  0  0  0  0  0  0  0  0  0  0
   10.5654   13.3671    0.3123 C   0  0  0  0  0  0  0  0  0  0  0  0
   10.6247   14.5089   -0.3974 N   0  0  0  0  0  0  0  0  0  0  0  0
    9.4891   14.7765   -0.9986 C   0  0  0  0  0  0  0  0  0  0  0  0
    8.6094   13.7960   -0.7316 C   0  0  0  0  0  0  0  0  0  0  0  0
   11.4264   15.0772   -0.4585 H   0  0  0  0  0  0  0  0  0  0  0  0
    9.2136   15.9462   -1.8693 C   0  0  0  0  0  0  0  0  0  0  0  0
    9.4593   15.9227   -3.1951 N   0  0  0  0  0  0  0  0  0  0  0  0
    8.7231   16.9432   -1.3531 O   0  0  0  0  0  0  0  0  0  0  0  0
    9.2656   16.7154   -3.7458 H   0  0  0  0  0  0  0  0  0  0  0  0
    9.8325   15.1127   -3.6123 H   0  0  0  0  0  0  0  0  0  0  0  0
    7.5535   10.9693    0.5612 C   0  0  0  0  0  0  0  0  0  0  0  0
    7.2402   10.6711   -0.5837 O   0  0  0  0  0  0  0  0  0  0  0  0
    6.7301   10.7491    1.6257 N   0  0  0  0  0  0  0  0  0  0  0  0
    7.0798   11.0330    2.5011 H   0  0  0  0  0  0  0  0  0  0  0  0
    5.4273   10.1613    1.6403 C   0  0  0  0  0  0  0  0  0  0  0  0
    4.3454   11.0464    1.6835 C   0  0  0  0  0  0  0  0  0  0  0  0
    2.7707    9.2131    1.7393 C   0  0  0  0  0  0  0  0  0  0  0  0
    3.8323    8.2981    1.6979 C   0  0  0  0  0  0  0  0  0  0  0  0
    3.0141   10.5942    1.7227 C   0  0  0  0  0  0  0  0  0  0  0  0
    5.1595    8.7697    1.6494 C   0  0  0  0  0  0  0  0  0  0  0  0
    1.8949   11.6434    1.8122 C   0  0  0  0  0  0  0  0  0  0  0  0
    0.8746   11.3094    2.8221 N   0  0  0  0  0  0  0  0  0  0  0  0
    0.4243   10.4290    2.5722 H   0  0  0  0  0  0  0  0  0  0  0  0
    0.1752   12.0511    2.8570 H   0  0  0  0  0  0  0  0  0  0  0  0
 13 11  2  0  0  0
 12 11  1  0  0  0
 11  8  1  0  0  0
 26 24  1  0  0  0
 26 27  1  0  0  0
  8  9  2  0  0  0
  8  7  1  0  0  0
 24 21  2  0  0  0
 24 22  1  0  0  0
  9  5  1  0  0  0
 21 20  1  0  0  0
  7  6  1  0  0  0
 22 23  2  0  0  0
  5  6  2  0  0  0
  5  4  1  0  0  0
 20 18  1  0  0  0
 20 25  2  0  0  0
  6  3  1  0  0  0
 18 16  1  0  0  0
 16  4  1  0  0  0
 16 17  2  0  0  0
  4  1  2  0  0  0
 23 25  1  0  0  0
  3  2  2  0  0  0
  1  2  1  0  0  0
  7 10  1  0  0  0
 12 14  1  0  0  0
 12 15  1  0  0  0
 18 19  1  0  0  0
 27 28  1  0  0  0
 27 29  1  0  0  0
M  END
> <minimizedAffinity>
-6.35328

$$$$
6FTZ_E7E_A_301


 29 31  0  0  0  0  0  0  0  0999 V2000
    3.4666    8.9119    1.8067 C   0  0  0  0  0  0  0  0  0  0  0  0
    2.1718    8.9268    2.3783 C   0  0  0  0  0  0  0  0  0  0  0  0
    1.5635   10.1331    2.7740 C   0  0  0  0  0  0  0  0  0  0  0  0
    4.2109   10.1004    1.5837 C   0  0  0  0  0  0  0  0  0  0  0  0
    3.5796   11.2906    2.0004 C   0  0  0  0  0  0  0  0  0  0  0  0
    2.3047   11.3099    2.5660 C   0  0  0  0  0  0  0  0  0  0  0  0
    1.9747   12.5772    2.8753 N   0  0  0  0  0  0  0  0  0  0  0  0
    2.9138   13.4292    2.5360 C   0  0  0  0  0  0  0  0  0  0  0  0
    3.9430   12.7553    1.9948 C   0  0  0  0  0  0  0  0  0  0  0  0
    1.1278   12.8353    3.3059 H   0  0  0  0  0  0  0  0  0  0  0  0
    2.8806   14.8980    2.7447 C   0  0  0  0  0  0  0  0  0  0  0  0
    2.0801   15.7042    2.0180 N   0  0  0  0  0  0  0  0  0  0  0  0
    3.5889   15.3688    3.6265 O   0  0  0  0  0  0  0  0  0  0  0  0
    2.0811   16.6752    2.1806 H   0  0  0  0  0  0  0  0  0  0  0  0
    1.4948   15.3217    1.3249 H   0  0  0  0  0  0  0  0  0  0  0  0
    5.6184   10.1164    0.9918 C   0  0  0  0  0  0  0  0  0  0  0  0
    5.7186    9.9929   -0.2217 O   0  0  0  0  0  0  0  0  0  0  0  0
    6.7017   10.2929    1.8010 N   0  0  0  0  0  0  0  0  0  0  0  0
    6.5069   10.3753    2.7625 H   0  0  0  0  0  0  0  0  0  0  0  0
    8.0822   10.3744    1.4397 C   0  0  0  0  0  0  0  0  0  0  0  0
    8.6276   11.6591    1.3502 C   0  0  0  0  0  0  0  0  0  0  0  0
   10.7721   10.7669    0.6800 C   0  0  0  0  0  0  0  0  0  0  0  0
   10.2568    9.4653    0.7587 C   0  0  0  0  0  0  0  0  0  0  0  0
    9.9682   11.8754    0.9836 C   0  0  0  0  0  0  0  0  0  0  0  0
    8.9137    9.2674    1.1370 C   0  0  0  0  0  0  0  0  0  0  0  0
   10.4636   13.3257    0.8711 C   0  0  0  0  0  0  0  0  0  0  0  0
   11.8523   13.4218    0.3866 N   0  0  0  0  0  0  0  0  0  0  0  0
   12.4755   12.9553    1.0457 H   0  0  0  0  0  0  0  0  0  0  0  0
   12.1169   14.4036    0.3053 H   0  0  0  0  0  0  0  0  0  0  0  0
 13 11  2  0  0  0
 12 11  1  0  0  0
 11  8  1  0  0  0
 26 24  1  0  0  0
 26 27  1  0  0  0
  8  9  2  0  0  0
  8  7  1  0  0  0
 24 21  2  0  0  0
 24 22  1  0  0  0
  9  5  1  0  0  0
 21 20  1  0  0  0
  7  6  1  0  0  0
 22 23  2  0  0  0
  5  6  2  0  0  0
  5  4  1  0  0  0
 20 18  1  0  0  0
 20 25  2  0  0  0
  6  3  1  0  0  0
 18 16  1  0  0  0
 16  4  1  0  0  0
 16 17  2  0  0  0
  4  1  2  0  0  0
 23 25  1  0  0  0
  3  2  2  0  0  0
  1  2  1  0  0  0
  7 10  1  0  0  0
 12 14  1  0  0  0
 12 15  1  0  0  0
 18 19  1  0  0  0
 27 28  1  0  0  0
 27 29  1  0  0  0
M  END
> <minimizedAffinity>
-6.24521

$$$$
6FTZ_E7E_A_301


 29 31  0  0  0  0  0  0  0  0999 V2000
    8.6038    9.5959    1.0721 C   0  0  0  0  0  0  0  0  0  0  0  0
   10.0124    9.5676    1.2088 C   0  0  0  0  0  0  0  0  0  0  0  0
   10.7960   10.7001    0.9171 C   0  0  0  0  0  0  0  0  0  0  0  0
    7.9055   10.7604    0.6565 C   0  0  0  0  0  0  0  0  0  0  0  0
    8.7186   11.8742    0.3615 C   0  0  0  0  0  0  0  0  0  0  0  0
   10.1071   11.8502    0.4927 C   0  0  0  0  0  0  0  0  0  0  0  0
   10.6089   13.0441    0.1273 N   0  0  0  0  0  0  0  0  0  0  0  0
    9.6672   13.8923   -0.2140 C   0  0  0  0  0  0  0  0  0  0  0  0
    8.4722   13.2858   -0.1120 C   0  0  0  0  0  0  0  0  0  0  0  0
   11.5702   13.2566    0.1172 H   0  0  0  0  0  0  0  0  0  0  0  0
    9.8711   15.2868   -0.6788 C   0  0  0  0  0  0  0  0  0  0  0  0
   10.5888   15.5730   -1.7841 N   0  0  0  0  0  0  0  0  0  0  0  0
    9.3407   16.1881   -0.0405 O   0  0  0  0  0  0  0  0  0  0  0  0
   10.7059   16.5088   -2.0664 H   0  0  0  0  0  0  0  0  0  0  0  0
   10.9957   14.8460   -2.3087 H   0  0  0  0  0  0  0  0  0  0  0  0
    6.3903   10.8167    0.4763 C   0  0  0  0  0  0  0  0  0  0  0  0
    5.9238   10.2873   -0.5237 O   0  0  0  0  0  0  0  0  0  0  0  0
    5.6080   11.4126    1.4210 N   0  0  0  0  0  0  0  0  0  0  0  0
    6.0880   11.8126    2.1818 H   0  0  0  0  0  0  0  0  0  0  0  0
    4.1842   11.5340    1.4542 C   0  0  0  0  0  0  0  0  0  0  0  0
    3.4836   10.4828    2.0542 C   0  0  0  0  0  0  0  0  0  0  0  0
    1.3641   11.5405    1.5711 C   0  0  0  0  0  0  0  0  0  0  0  0
    2.0351   12.6099    0.9613 C   0  0  0  0  0  0  0  0  0  0  0  0
    2.0792   10.4721    2.1319 C   0  0  0  0  0  0  0  0  0  0  0  0
    3.4432   12.6079    0.9011 C   0  0  0  0  0  0  0  0  0  0  0  0
    1.3982    9.2523    2.7719 C   0  0  0  0  0  0  0  0  0  0  0  0
   -0.0379    9.1631    2.4520 N   0  0  0  0  0  0  0  0  0  0  0  0
   -0.5190    9.9854    2.8165 H   0  0  0  0  0  0  0  0  0  0  0  0
   -0.4296    8.3233    2.8781 H   0  0  0  0  0  0  0  0  0  0  0  0
 13 11  2  0  0  0
 12 11  1  0  0  0
 11  8  1  0  0  0
 26 24  1  0  0  0
 26 27  1  0  0  0
  8  9  2  0  0  0
  8  7  1  0  0  0
 24 21  2  0  0  0
 24 22  1  0  0  0
  9  5  1  0  0  0
 21 20  1  0  0  0
  7  6  1  0  0  0
 22 23  2  0  0  0
  5  6  2  0  0  0
  5  4  1  0  0  0
 20 18  1  0  0  0
 20 25  2  0  0  0
  6  3  1  0  0  0
 18 16  1  0  0  0
 16  4  1  0  0  0
 16 17  2  0  0  0
  4  1  2  0  0  0
 23 25  1  0  0  0
  3  2  2  0  0  0
  1  2  1  0  0  0
  7 10  1  0  0  0
 12 14  1  0  0  0
 12 15  1  0  0  0
 18 19  1  0  0  0
 27 28  1  0  0  0
 27 29  1  0  0  0
M  END
> <minimizedAffinity>
-6.21385

$$$$
6FTZ_E7E_A_301


 29 31  0  0  0  0  0  0  0  0999 V2000
    8.4061    9.4517    1.4817 C   0  0  0  0  0  0  0  0  0  0  0  0
    9.8157    9.5061    1.5989 C   0  0  0  0  0  0  0  0  0  0  0  0
   10.5587   10.5349    0.9898 C   0  0  0  0  0  0  0  0  0  0  0  0
    7.6663   10.4311    0.7677 C   0  0  0  0  0  0  0  0  0  0  0  0
    8.4394   11.4420    0.1601 C   0  0  0  0  0  0  0  0  0  0  0  0
    9.8287   11.4983    0.2713 C   0  0  0  0  0  0  0  0  0  0  0  0
   10.2876   12.5568   -0.4214 N   0  0  0  0  0  0  0  0  0  0  0  0
    9.3156   13.2461   -0.9719 C   0  0  0  0  0  0  0  0  0  0  0  0
    8.1424   12.6561   -0.6856 C   0  0  0  0  0  0  0  0  0  0  0  0
   11.2410   12.7873   -0.5055 H   0  0  0  0  0  0  0  0  0  0  0  0
    9.4694   14.4600   -1.8115 C   0  0  0  0  0  0  0  0  0  0  0  0
    8.5938   14.7665   -2.7902 N   0  0  0  0  0  0  0  0  0  0  0  0
   10.4113   15.2066   -1.5740 O   0  0  0  0  0  0  0  0  0  0  0  0
    8.7236   15.5795   -3.3301 H   0  0  0  0  0  0  0  0  0  0  0  0
    7.8247   14.1772   -2.9650 H   0  0  0  0  0  0  0  0  0  0  0  0
    6.1489   10.3882    0.6024 C   0  0  0  0  0  0  0  0  0  0  0  0
    5.7124   10.0384   -0.4862 O   0  0  0  0  0  0  0  0  0  0  0  0
    5.3348   10.7026    1.6501 N   0  0  0  0  0  0  0  0  0  0  0  0
    5.7917   10.9771    2.4778 H   0  0  0  0  0  0  0  0  0  0  0  0
    3.9067   10.6869    1.7072 C   0  0  0  0  0  0  0  0  0  0  0  0
    3.2598   11.8994    1.4475 C   0  0  0  0  0  0  0  0  0  0  0  0
    1.0944   10.8947    1.8292 C   0  0  0  0  0  0  0  0  0  0  0  0
    1.7109    9.6640    2.0964 C   0  0  0  0  0  0  0  0  0  0  0  0
    1.8593   12.0212    1.4929 C   0  0  0  0  0  0  0  0  0  0  0  0
    3.1150    9.5587    2.0370 C   0  0  0  0  0  0  0  0  0  0  0  0
    1.2437   13.4053    1.2347 C   0  0  0  0  0  0  0  0  0  0  0  0
    2.1880   14.5091    1.4846 N   0  0  0  0  0  0  0  0  0  0  0  0
    2.4718   14.4986    2.4643 H   0  0  0  0  0  0  0  0  0  0  0  0
    1.7360   15.3982    1.2710 H   0  0  0  0  0  0  0  0  0  0  0  0
 13 11  2  0  0  0
 12 11  1  0  0  0
 11  8  1  0  0  0
 26 24  1  0  0  0
 26 27  1  0  0  0
  8  9  2  0  0  0
  8  7  1  0  0  0
 24 21  2  0  0  0
 24 22  1  0  0  0
  9  5  1  0  0  0
 21 20  1  0  0  0
  7  6  1  0  0  0
 22 23  2  0  0  0
  5  6  2  0  0  0
  5  4  1  0  0  0
 20 18  1  0  0  0
 20 25  2  0  0  0
  6  3  1  0  0  0
 18 16  1  0  0  0
 16  4  1  0  0  0
 16 17  2  0  0  0
  4  1  2  0  0  0
 23 25  1  0  0  0
  3  2  2  0  0  0
  1  2  1  0  0  0
  7 10  1  0  0  0
 12 14  1  0  0  0
 12 15  1  0  0  0
 18 19  1  0  0  0
 27 28  1  0  0  0
 27 29  1  0  0  0
M  END
> <minimizedAffinity>
-6.14028

$$$$
6FTZ_E7E_A_301


 29 31  0  0  0  0  0  0  0  0999 V2000
    4.1877   11.1430    1.5319 C   0  0  0  0  0  0  0  0  0  0  0  0
    4.0581    9.7534    1.7682 C   0  0  0  0  0  0  0  0  0  0  0  0
    5.1716    8.8950    1.6977 C   0  0  0  0  0  0  0  0  0  0  0  0
    5.4370   11.7480    1.2328 C   0  0  0  0  0  0  0  0  0  0  0  0
    6.5308   10.8609    1.1586 C   0  0  0  0  0  0  0  0  0  0  0  0
    6.4073    9.4907    1.3886 C   0  0  0  0  0  0  0  0  0  0  0  0
    7.6082    8.9037    1.2329 N   0  0  0  0  0  0  0  0  0  0  0  0
    8.5490    9.7724    0.9446 C   0  0  0  0  0  0  0  0  0  0  0  0
    8.0057   10.9995    0.8709 C   0  0  0  0  0  0  0  0  0  0  0  0
    7.7630    7.9358    1.3246 H   0  0  0  0  0  0  0  0  0  0  0  0
    9.9793    9.4642    0.6967 C   0  0  0  0  0  0  0  0  0  0  0  0
   10.3629    8.5092   -0.1748 N   0  0  0  0  0  0  0  0  0  0  0  0
   10.8208   10.1271    1.2912 O   0  0  0  0  0  0  0  0  0  0  0  0
   11.3202    8.3285   -0.3171 H   0  0  0  0  0  0  0  0  0  0  0  0
    9.6858    7.9927   -0.6686 H   0  0  0  0  0  0  0  0  0  0  0  0
    5.6066   13.2388    0.9495 C   0  0  0  0  0  0  0  0  0  0  0  0
    5.3067   14.0181    1.8443 O   0  0  0  0  0  0  0  0  0  0  0  0
    6.1026   13.6579   -0.2496 N   0  0  0  0  0  0  0  0  0  0  0  0
    6.3047   12.9467   -0.8996 H   0  0  0  0  0  0  0  0  0  0  0  0
    6.3685   14.9919   -0.6888 C   0  0  0  0  0  0  0  0  0  0  0  0
    7.7112   15.3820   -0.7173 C   0  0  0  0  0  0  0  0  0  0  0  0
    7.1124   17.6022   -1.4632 C   0  0  0  0  0  0  0  0  0  0  0  0
    5.7568   17.2443   -1.4448 C   0  0  0  0  0  0  0  0  0  0  0  0
    8.1033   16.6744   -1.1101 C   0  0  0  0  0  0  0  0  0  0  0  0
    5.3835   15.9417   -1.0574 C   0  0  0  0  0  0  0  0  0  0  0  0
    9.5995   17.0220   -1.0675 C   0  0  0  0  0  0  0  0  0  0  0  0
   10.4478   15.9822   -1.6772 N   0  0  0  0  0  0  0  0  0  0  0  0
   10.3404   15.1095   -1.1604 H   0  0  0  0  0  0  0  0  0  0  0  0
   11.4235   16.2779   -1.6460 H   0  0  0  0  0  0  0  0  0  0  0  0
 13 11  2  0  0  0
 12 11  1  0  0  0
 11  8  1  0  0  0
 26 24  1  0  0  0
 26 27  1  0  0  0
  8  9  2  0  0  0
  8  7  1  0  0  0
 24 21  2  0  0  0
 24 22  1  0  0  0
  9  5  1  0  0  0
 21 20  1  0  0  0
  7  6  1  0  0  0
 22 23  2  0  0  0
  5  6  2  0  0  0
  5  4  1  0  0  0
 20 18  1  0  0  0
 20 25  2  0  0  0
  6  3  1  0  0  0
 18 16  1  0  0  0
 16  4  1  0  0  0
 16 17  2  0  0  0
  4  1  2  0  0  0
 23 25  1  0  0  0
  3  2  2  0  0  0
  1  2  1  0  0  0
  7 10  1  0  0  0
 12 14  1  0  0  0
 12 15  1  0  0  0
 18 19  1  0  0  0
 27 28  1  0  0  0
 27 29  1  0  0  0
M  END
> <minimizedAffinity>
-5.65180

$$$$
