2BO4_FLC_A_1382


 14 13  0  0  0  0  0  0  0  0999 V2000
   85.7756   -1.6736   42.2483 C   0  0  0  0  0  0  0  0  0  0  0  0
   84.3751   -1.9741   42.2643 O   0  0  0  0  0  0  0  0  0  0  0  0
   84.0175   -1.8965   41.3660 H   0  0  0  0  0  0  0  0  0  0  0  0
   86.4133   -2.6591   41.2654 C   0  0  0  0  0  0  0  0  0  0  0  0
   87.2651   -2.3308   40.3797 O   0  0  0  0  0  0  0  0  0  0  0  0
   86.0364   -3.8449   41.3804 O   0  0  0  0  0  0  0  0  0  0  0  0
   85.7961   -0.2282   41.7325 C   0  0  0  0  0  0  0  0  0  0  0  0
   84.4189    0.3391   41.5722 C   0  0  0  0  0  0  0  0  0  0  0  0
   83.8610    0.8867   42.5523 O   0  0  0  0  0  0  0  0  0  0  0  0
   83.8983    0.2292   40.4388 O   0  0  0  0  0  0  0  0  0  0  0  0
   86.4148   -1.7778   43.6528 C   0  0  0  0  0  0  0  0  0  0  0  0
   85.4956   -2.3935   44.6988 C   0  0  0  0  0  0  0  0  0  0  0  0
   84.8738   -1.6451   45.4614 O   0  0  0  0  0  0  0  0  0  0  0  0
   85.3574   -3.6295   44.7774 O   0  0  0  0  0  0  0  0  0  0  0  0
  8  7  1  0  0  0
  8  9  2  0  0  0
  8 10  1  0  0  0
  7  1  1  0  0  0
  1  4  1  0  0  0
  1 11  1  0  0  0
  1  2  1  0  0  0
  4  5  2  0  0  0
  4  6  1  0  0  0
 11 12  1  0  0  0
 12 13  2  0  0  0
 12 14  1  0  0  0
  2  3  1  0  0  0
M  CHG 1   6  -1
M  CHG 1  10  -1
M  CHG 1  14  -1
M  END
> <minimizedAffinity>
-5.85845

$$$$
2BO4_FLC_A_1382


 14 13  0  0  0  0  0  0  0  0999 V2000
   85.1550   -1.8525   43.7532 C   0  0  0  0  0  0  0  0  0  0  0  0
   84.2052   -2.7689   43.1964 O   0  0  0  0  0  0  0  0  0  0  0  0
   83.9141   -3.3895   43.8827 H   0  0  0  0  0  0  0  0  0  0  0  0
   84.4479   -1.1608   44.9217 C   0  0  0  0  0  0  0  0  0  0  0  0
   83.5150   -0.3072   44.7849 O   0  0  0  0  0  0  0  0  0  0  0  0
   84.8529   -1.4875   46.0578 O   0  0  0  0  0  0  0  0  0  0  0  0
   86.2822   -2.7867   44.2142 C   0  0  0  0  0  0  0  0  0  0  0  0
   85.8988   -4.2318   44.1200 C   0  0  0  0  0  0  0  0  0  0  0  0
   86.0938   -4.8515   43.0478 O   0  0  0  0  0  0  0  0  0  0  0  0
   85.3959   -4.7440   45.1459 O   0  0  0  0  0  0  0  0  0  0  0  0
   85.6645   -0.8294   42.7113 C   0  0  0  0  0  0  0  0  0  0  0  0
   84.6548   -0.5190   41.6147 C   0  0  0  0  0  0  0  0  0  0  0  0
   84.4873   -1.3420   40.7076 O   0  0  0  0  0  0  0  0  0  0  0  0
   83.9952    0.5381   41.6365 O   0  0  0  0  0  0  0  0  0  0  0  0
  8  7  1  0  0  0
  8  9  2  0  0  0
  8 10  1  0  0  0
  7  1  1  0  0  0
  1  4  1  0  0  0
  1 11  1  0  0  0
  1  2  1  0  0  0
  4  5  2  0  0  0
  4  6  1  0  0  0
 11 12  1  0  0  0
 12 13  2  0  0  0
 12 14  1  0  0  0
  2  3  1  0  0  0
M  CHG 1   6  -1
M  CHG 1  10  -1
M  CHG 1  14  -1
M  END
> <minimizedAffinity>
-5.60996

$$$$
2BO4_FLC_A_1382


 14 13  0  0  0  0  0  0  0  0999 V2000
   85.7713   -4.2410   43.8763 C   0  0  0  0  0  0  0  0  0  0  0  0
   84.5205   -4.2508   43.1782 O   0  0  0  0  0  0  0  0  0  0  0  0
   84.3311   -5.1496   42.8667 H   0  0  0  0  0  0  0  0  0  0  0  0
   85.6317   -5.2510   45.0184 C   0  0  0  0  0  0  0  0  0  0  0  0
   85.9761   -5.0187   46.2205 O   0  0  0  0  0  0  0  0  0  0  0  0
   85.1482   -6.3570   44.6950 O   0  0  0  0  0  0  0  0  0  0  0  0
   86.7556   -4.7054   42.7940 C   0  0  0  0  0  0  0  0  0  0  0  0
   86.2620   -4.4110   41.4106 C   0  0  0  0  0  0  0  0  0  0  0  0
   86.2159   -3.2228   41.0137 O   0  0  0  0  0  0  0  0  0  0  0  0
   85.9190   -5.3966   40.7188 O   0  0  0  0  0  0  0  0  0  0  0  0
   86.1389   -2.8343   44.4034 C   0  0  0  0  0  0  0  0  0  0  0  0
   84.9306   -1.9516   44.6843 C   0  0  0  0  0  0  0  0  0  0  0  0
   84.2177   -1.5972   43.7385 O   0  0  0  0  0  0  0  0  0  0  0  0
   84.6525   -1.6035   45.8482 O   0  0  0  0  0  0  0  0  0  0  0  0
  8  7  1  0  0  0
  8  9  2  0  0  0
  8 10  1  0  0  0
  7  1  1  0  0  0
  1  4  1  0  0  0
  1 11  1  0  0  0
  1  2  1  0  0  0
  4  5  2  0  0  0
  4  6  1  0  0  0
 11 12  1  0  0  0
 12 13  2  0  0  0
 12 14  1  0  0  0
  2  3  1  0  0  0
M  CHG 1   6  -1
M  CHG 1  10  -1
M  CHG 1  14  -1
M  END
> <minimizedAffinity>
-5.46002

$$$$
2BO4_FLC_A_1382


 14 13  0  0  0  0  0  0  0  0999 V2000
   86.0670   -3.3923   43.2227 C   0  0  0  0  0  0  0  0  0  0  0  0
   84.6500   -3.6011   43.1999 O   0  0  0  0  0  0  0  0  0  0  0  0
   84.2299   -2.9098   42.6647 H   0  0  0  0  0  0  0  0  0  0  0  0
   86.5253   -3.4077   41.7620 C   0  0  0  0  0  0  0  0  0  0  0  0
   85.9593   -4.0836   40.8452 O   0  0  0  0  0  0  0  0  0  0  0  0
   87.5232   -2.6993   41.5095 O   0  0  0  0  0  0  0  0  0  0  0  0
   86.1844   -2.0028   43.8640 C   0  0  0  0  0  0  0  0  0  0  0  0
   84.9443   -1.6121   44.6082 C   0  0  0  0  0  0  0  0  0  0  0  0
   84.8405   -1.8985   45.8242 O   0  0  0  0  0  0  0  0  0  0  0  0
   84.0669   -1.0064   43.9517 O   0  0  0  0  0  0  0  0  0  0  0  0
   86.8049   -4.4619   44.0612 C   0  0  0  0  0  0  0  0  0  0  0  0
   85.8889   -5.2557   44.9827 C   0  0  0  0  0  0  0  0  0  0  0  0
   85.9211   -5.0274   46.1972 O   0  0  0  0  0  0  0  0  0  0  0  0
   85.1073   -6.1102   44.5225 O   0  0  0  0  0  0  0  0  0  0  0  0
  8  7  1  0  0  0
  8  9  2  0  0  0
  8 10  1  0  0  0
  7  1  1  0  0  0
  1  4  1  0  0  0
  1 11  1  0  0  0
  1  2  1  0  0  0
  4  5  2  0  0  0
  4  6  1  0  0  0
 11 12  1  0  0  0
 12 13  2  0  0  0
 12 14  1  0  0  0
  2  3  1  0  0  0
M  CHG 1   6  -1
M  CHG 1  10  -1
M  CHG 1  14  -1
M  END
> <minimizedAffinity>
-5.40526

$$$$
2BO4_FLC_A_1382


 14 13  0  0  0  0  0  0  0  0999 V2000
   86.1512   -3.2096   43.7966 C   0  0  0  0  0  0  0  0  0  0  0  0
   86.7995   -2.0398   44.3098 O   0  0  0  0  0  0  0  0  0  0  0  0
   86.4839   -1.8639   45.2100 H   0  0  0  0  0  0  0  0  0  0  0  0
   86.4758   -4.3422   44.7743 C   0  0  0  0  0  0  0  0  0  0  0  0
   85.8251   -4.5682   45.8435 O   0  0  0  0  0  0  0  0  0  0  0  0
   87.4513   -5.0559   44.4574 O   0  0  0  0  0  0  0  0  0  0  0  0
   84.6706   -2.8065   43.8299 C   0  0  0  0  0  0  0  0  0  0  0  0
   84.4506   -1.5033   44.5352 C   0  0  0  0  0  0  0  0  0  0  0  0
   84.6093   -1.4414   45.7772 O   0  0  0  0  0  0  0  0  0  0  0  0
   84.1146   -0.5317   43.8206 O   0  0  0  0  0  0  0  0  0  0  0  0
   86.6080   -3.5513   42.3591 C   0  0  0  0  0  0  0  0  0  0  0  0
   86.4497   -2.3988   41.3768 C   0  0  0  0  0  0  0  0  0  0  0  0
   85.7684   -2.5710   40.3598 O   0  0  0  0  0  0  0  0  0  0  0  0
   86.9829   -1.2946   41.5988 O   0  0  0  0  0  0  0  0  0  0  0  0
  8  7  1  0  0  0
  8  9  2  0  0  0
  8 10  1  0  0  0
  7  1  1  0  0  0
  1  4  1  0  0  0
  1 11  1  0  0  0
  1  2  1  0  0  0
  4  5  2  0  0  0
  4  6  1  0  0  0
 11 12  1  0  0  0
 12 13  2  0  0  0
 12 14  1  0  0  0
  2  3  1  0  0  0
M  CHG 1   6  -1
M  CHG 1  10  -1
M  CHG 1  14  -1
M  END
> <minimizedAffinity>
-5.09795

$$$$
2BO4_FLC_A_1382


 14 13  0  0  0  0  0  0  0  0999 V2000
   85.7923   -3.5667   43.6961 C   0  0  0  0  0  0  0  0  0  0  0  0
   84.4679   -3.7532   43.1833 O   0  0  0  0  0  0  0  0  0  0  0  0
   84.0925   -4.5705   43.5466 H   0  0  0  0  0  0  0  0  0  0  0  0
   85.6601   -3.5358   45.2211 C   0  0  0  0  0  0  0  0  0  0  0  0
   85.3932   -2.4885   45.8917 O   0  0  0  0  0  0  0  0  0  0  0  0
   85.8388   -4.6322   45.7934 O   0  0  0  0  0  0  0  0  0  0  0  0
   86.5200   -4.8204   43.1916 C   0  0  0  0  0  0  0  0  0  0  0  0
   85.6603   -5.6550   42.2923 C   0  0  0  0  0  0  0  0  0  0  0  0
   85.6933   -5.4597   41.0545 O   0  0  0  0  0  0  0  0  0  0  0  0
   84.9451   -6.5193   42.8484 O   0  0  0  0  0  0  0  0  0  0  0  0
   86.4549   -2.2775   43.1570 C   0  0  0  0  0  0  0  0  0  0  0  0
   85.4834   -1.3377   42.4563 C   0  0  0  0  0  0  0  0  0  0  0  0
   85.7854   -0.8870   41.3454 O   0  0  0  0  0  0  0  0  0  0  0  0
   84.3944   -1.0383   42.9831 O   0  0  0  0  0  0  0  0  0  0  0  0
  8  7  1  0  0  0
  8  9  2  0  0  0
  8 10  1  0  0  0
  7  1  1  0  0  0
  1  4  1  0  0  0
  1 11  1  0  0  0
  1  2  1  0  0  0
  4  5  2  0  0  0
  4  6  1  0  0  0
 11 12  1  0  0  0
 12 13  2  0  0  0
 12 14  1  0  0  0
  2  3  1  0  0  0
M  CHG 1   6  -1
M  CHG 1  10  -1
M  CHG 1  14  -1
M  END
> <minimizedAffinity>
-5.04736

$$$$
2BO4_FLC_A_1382


 14 13  0  0  0  0  0  0  0  0999 V2000
   86.0281   -3.6395   38.2946 C   0  0  0  0  0  0  0  0  0  0  0  0
   85.9676   -4.5613   39.3894 O   0  0  0  0  0  0  0  0  0  0  0  0
   85.1265   -4.4500   39.8596 H   0  0  0  0  0  0  0  0  0  0  0  0
   84.8100   -3.9379   37.4164 C   0  0  0  0  0  0  0  0  0  0  0  0
   84.7624   -4.8770   36.5600 O   0  0  0  0  0  0  0  0  0  0  0  0
   83.8312   -3.1802   37.5883 O   0  0  0  0  0  0  0  0  0  0  0  0
   85.9278   -2.2812   39.0021 C   0  0  0  0  0  0  0  0  0  0  0  0
   86.4108   -2.3398   40.4190 C   0  0  0  0  0  0  0  0  0  0  0  0
   87.6430   -2.3329   40.6498 O   0  0  0  0  0  0  0  0  0  0  0  0
   85.5300   -2.3916   41.3073 O   0  0  0  0  0  0  0  0  0  0  0  0
   87.3473   -3.7611   37.4967 C   0  0  0  0  0  0  0  0  0  0  0  0
   88.2359   -4.9092   37.9554 C   0  0  0  0  0  0  0  0  0  0  0  0
   88.1086   -6.0144   37.4163 O   0  0  0  0  0  0  0  0  0  0  0  0
   89.0889   -4.7376   38.8475 O   0  0  0  0  0  0  0  0  0  0  0  0
  8  7  1  0  0  0
  8  9  2  0  0  0
  8 10  1  0  0  0
  7  1  1  0  0  0
  1  4  1  0  0  0
  1 11  1  0  0  0
  1  2  1  0  0  0
  4  5  2  0  0  0
  4  6  1  0  0  0
 11 12  1  0  0  0
 12 13  2  0  0  0
 12 14  1  0  0  0
  2  3  1  0  0  0
M  CHG 1   6  -1
M  CHG 1  10  -1
M  CHG 1  14  -1
M  END
> <minimizedAffinity>
-4.98530

$$$$
2BO4_FLC_A_1382


 14 13  0  0  0  0  0  0  0  0999 V2000
   88.3137   -3.8028   37.7804 C   0  0  0  0  0  0  0  0  0  0  0  0
   87.6325   -3.0726   36.7534 O   0  0  0  0  0  0  0  0  0  0  0  0
   88.0149   -3.2953   35.8903 H   0  0  0  0  0  0  0  0  0  0  0  0
   88.1610   -5.2842   37.4249 C   0  0  0  0  0  0  0  0  0  0  0  0
   87.5865   -5.7084   36.3724 O   0  0  0  0  0  0  0  0  0  0  0  0
   88.6440   -6.0835   38.2551 O   0  0  0  0  0  0  0  0  0  0  0  0
   89.7585   -3.3061   37.6340 C   0  0  0  0  0  0  0  0  0  0  0  0
   90.3101   -3.5535   36.2633 C   0  0  0  0  0  0  0  0  0  0  0  0
   91.0875   -4.5193   36.0779 O   0  0  0  0  0  0  0  0  0  0  0  0
   89.9490   -2.7598   35.3648 O   0  0  0  0  0  0  0  0  0  0  0  0
   87.7542   -3.4959   39.1891 C   0  0  0  0  0  0  0  0  0  0  0  0
   86.2742   -3.8185   39.3429 C   0  0  0  0  0  0  0  0  0  0  0  0
   85.9446   -4.8007   40.0173 O   0  0  0  0  0  0  0  0  0  0  0  0
   85.4065   -3.0979   38.8130 O   0  0  0  0  0  0  0  0  0  0  0  0
  8  7  1  0  0  0
  8  9  2  0  0  0
  8 10  1  0  0  0
  7  1  1  0  0  0
  1  4  1  0  0  0
  1 11  1  0  0  0
  1  2  1  0  0  0
  4  5  2  0  0  0
  4  6  1  0  0  0
 11 12  1  0  0  0
 12 13  2  0  0  0
 12 14  1  0  0  0
  2  3  1  0  0  0
M  CHG 1   6  -1
M  CHG 1  10  -1
M  CHG 1  14  -1
M  END
> <minimizedAffinity>
-4.96355

$$$$
2BO4_FLC_A_1382


 14 13  0  0  0  0  0  0  0  0999 V2000
   86.7394   -3.5806   39.3072 C   0  0  0  0  0  0  0  0  0  0  0  0
   86.0018   -4.7488   39.6859 O   0  0  0  0  0  0  0  0  0  0  0  0
   86.3241   -5.0711   40.5422 H   0  0  0  0  0  0  0  0  0  0  0  0
   86.5448   -2.5667   40.4378 C   0  0  0  0  0  0  0  0  0  0  0  0
   85.4204   -2.2994   40.9689 O   0  0  0  0  0  0  0  0  0  0  0  0
   87.5854   -1.9917   40.8223 O   0  0  0  0  0  0  0  0  0  0  0  0
   88.1778   -4.1104   39.2300 C   0  0  0  0  0  0  0  0  0  0  0  0
   88.2295   -5.5766   38.9269 C   0  0  0  0  0  0  0  0  0  0  0  0
   88.2546   -6.3997   39.8721 O   0  0  0  0  0  0  0  0  0  0  0  0
   88.2431   -5.8962   37.7164 O   0  0  0  0  0  0  0  0  0  0  0  0
   86.2772   -3.0098   37.9462 C   0  0  0  0  0  0  0  0  0  0  0  0
   84.9842   -3.6273   37.4314 C   0  0  0  0  0  0  0  0  0  0  0  0
   85.0467   -4.6379   36.7221 O   0  0  0  0  0  0  0  0  0  0  0  0
   83.8794   -3.1348   37.7309 O   0  0  0  0  0  0  0  0  0  0  0  0
  8  7  1  0  0  0
  8  9  2  0  0  0
  8 10  1  0  0  0
  7  1  1  0  0  0
  1  4  1  0  0  0
  1 11  1  0  0  0
  1  2  1  0  0  0
  4  5  2  0  0  0
  4  6  1  0  0  0
 11 12  1  0  0  0
 12 13  2  0  0  0
 12 14  1  0  0  0
  2  3  1  0  0  0
M  CHG 1   6  -1
M  CHG 1  10  -1
M  CHG 1  14  -1
M  END
> <minimizedAffinity>
-4.94182

$$$$
2BO4_FLC_A_1382


 14 13  0  0  0  0  0  0  0  0999 V2000
   85.7039   -4.3997   43.8248 C   0  0  0  0  0  0  0  0  0  0  0  0
   84.4121   -4.4181   43.2061 O   0  0  0  0  0  0  0  0  0  0  0  0
   84.1814   -5.3293   42.9663 H   0  0  0  0  0  0  0  0  0  0  0  0
   85.6107   -5.3301   45.0372 C   0  0  0  0  0  0  0  0  0  0  0  0
   85.9932   -5.0140   46.2083 O   0  0  0  0  0  0  0  0  0  0  0  0
   85.1258   -6.4584   44.8065 O   0  0  0  0  0  0  0  0  0  0  0  0
   86.6069   -4.9606   42.7177 C   0  0  0  0  0  0  0  0  0  0  0  0
   88.0549   -4.6597   42.9565 C   0  0  0  0  0  0  0  0  0  0  0  0
   88.6795   -5.2992   43.8354 O   0  0  0  0  0  0  0  0  0  0  0  0
   88.5643   -3.7657   42.2431 O   0  0  0  0  0  0  0  0  0  0  0  0
   86.1383   -2.9733   44.2352 C   0  0  0  0  0  0  0  0  0  0  0  0
   84.9750   -2.0602   44.5974 C   0  0  0  0  0  0  0  0  0  0  0  0
   84.8211   -1.7300   45.7788 O   0  0  0  0  0  0  0  0  0  0  0  0
   84.1988   -1.6379   43.7187 O   0  0  0  0  0  0  0  0  0  0  0  0
  8  7  1  0  0  0
  8  9  2  0  0  0
  8 10  1  0  0  0
  7  1  1  0  0  0
  1  4  1  0  0  0
  1 11  1  0  0  0
  1  2  1  0  0  0
  4  5  2  0  0  0
  4  6  1  0  0  0
 11 12  1  0  0  0
 12 13  2  0  0  0
 12 14  1  0  0  0
  2  3  1  0  0  0
M  CHG 1   6  -1
M  CHG 1  10  -1
M  CHG 1  14  -1
M  END
> <minimizedAffinity>
-4.91918

$$$$
