3UEX_STE_A_163


 21 20  0  0  0  0  0  0  0  0999 V2000
   -2.3437   13.0863   19.1283 C   0  0  0  0  0  0  0  0  0  0  0  0
   -3.7195   13.1575   18.4866 C   0  0  0  0  0  0  0  0  0  0  0  0
   -3.9884   14.5884   18.0418 C   0  0  0  0  0  0  0  0  0  0  0  0
   -2.7124   15.3621   18.3058 C   0  0  0  0  0  0  0  0  0  0  0  0
   -3.0354   16.8380   18.2599 C   0  0  0  0  0  0  0  0  0  0  0  0
   -4.4456   16.9957   17.7705 C   0  0  0  0  0  0  0  0  0  0  0  0
   -4.5619   18.1408   16.7801 C   0  0  0  0  0  0  0  0  0  0  0  0
   -3.9898   17.7601   15.4153 C   0  0  0  0  0  0  0  0  0  0  0  0
   -5.1454   17.7028   14.4376 C   0  0  0  0  0  0  0  0  0  0  0  0
   -5.2864   16.3538   13.7811 C   0  0  0  0  0  0  0  0  0  0  0  0
   -4.4636   15.2842   14.4671 C   0  0  0  0  0  0  0  0  0  0  0  0
   -2.1053   11.6670   19.5815 C   0  0  0  0  0  0  0  0  0  0  0  0
   -1.8660   10.7391   18.3976 C   0  0  0  0  0  0  0  0  0  0  0  0
   -2.3024    9.3195   18.7421 C   0  0  0  0  0  0  0  0  0  0  0  0
   -2.6005    9.1531   20.2228 C   0  0  0  0  0  0  0  0  0  0  0  0
   -2.8434    7.6918   20.5910 C   0  0  0  0  0  0  0  0  0  0  0  0
   -1.6381    6.8192   20.2505 C   0  0  0  0  0  0  0  0  0  0  0  0
   -1.7246    5.5354   21.0330 C   0  0  0  0  0  0  0  0  0  0  0  0
   -0.7982    4.6989   20.8961 O   0  0  0  0  0  0  0  0  0  0  0  0
   -2.7217    5.3430   21.7626 O   0  0  0  0  0  0  0  0  0  0  0  0
   -3.3863    6.0000   21.8305 H   0  0  0  0  0  0  0  0  0  0  0  0
 18 19  2  0  0  0
 18 20  1  0  0  0
 18 17  1  0  0  0
 17 16  1  0  0  0
 16 15  1  0  0  0
 15 14  1  0  0  0
 14 13  1  0  0  0
 13 12  1  0  0  0
 12  1  1  0  0  0
  1  2  1  0  0  0
  2  3  1  0  0  0
  3  4  1  0  0  0
  4  5  1  0  0  0
  5  6  1  0  0  0
  6  7  1  0  0  0
  7  8  1  0  0  0
  8  9  1  0  0  0
  9 10  1  0  0  0
 10 11  1  0  0  0
 20 21  1  0  0  0
M  END
> <minimizedAffinity>
-7.05280

$$$$
3UEX_STE_A_163


 21 20  0  0  0  0  0  0  0  0999 V2000
   -1.1432   11.5868   20.1169 C   0  0  0  0  0  0  0  0  0  0  0  0
   -2.4585   12.3476   20.1437 C   0  0  0  0  0  0  0  0  0  0  0  0
   -2.4056   13.4703   19.1167 C   0  0  0  0  0  0  0  0  0  0  0  0
   -3.7216   13.4222   18.3668 C   0  0  0  0  0  0  0  0  0  0  0  0
   -4.0435   14.8184   17.8855 C   0  0  0  0  0  0  0  0  0  0  0  0
   -2.9269   15.7296   18.3051 C   0  0  0  0  0  0  0  0  0  0  0  0
   -3.3400   17.1879   18.2141 C   0  0  0  0  0  0  0  0  0  0  0  0
   -4.6616   17.3491   17.4641 C   0  0  0  0  0  0  0  0  0  0  0  0
   -4.4866   18.4808   16.4724 C   0  0  0  0  0  0  0  0  0  0  0  0
   -4.1517   17.9937   15.0862 C   0  0  0  0  0  0  0  0  0  0  0  0
   -4.9825   16.7974   14.6735 C   0  0  0  0  0  0  0  0  0  0  0  0
   -1.0460   10.8549   18.8010 C   0  0  0  0  0  0  0  0  0  0  0  0
   -2.0209    9.6861   18.7426 C   0  0  0  0  0  0  0  0  0  0  0  0
   -1.7187    8.6898   19.8564 C   0  0  0  0  0  0  0  0  0  0  0  0
   -2.9738    8.0054   20.3715 C   0  0  0  0  0  0  0  0  0  0  0  0
   -4.2077    8.4044   19.5662 C   0  0  0  0  0  0  0  0  0  0  0  0
   -4.8331    7.2018   18.8643 C   0  0  0  0  0  0  0  0  0  0  0  0
   -6.3181    7.2047   19.1149 C   0  0  0  0  0  0  0  0  0  0  0  0
   -6.9487    8.2697   18.9036 O   0  0  0  0  0  0  0  0  0  0  0  0
   -6.8563    6.1615   19.5458 O   0  0  0  0  0  0  0  0  0  0  0  0
   -6.3405    5.3921   19.6868 H   0  0  0  0  0  0  0  0  0  0  0  0
 18 19  2  0  0  0
 18 20  1  0  0  0
 18 17  1  0  0  0
 17 16  1  0  0  0
 16 15  1  0  0  0
 15 14  1  0  0  0
 14 13  1  0  0  0
 13 12  1  0  0  0
 12  1  1  0  0  0
  1  2  1  0  0  0
  2  3  1  0  0  0
  3  4  1  0  0  0
  4  5  1  0  0  0
  5  6  1  0  0  0
  6  7  1  0  0  0
  7  8  1  0  0  0
  8  9  1  0  0  0
  9 10  1  0  0  0
 10 11  1  0  0  0
 20 21  1  0  0  0
M  END
> <minimizedAffinity>
-7.04002

$$$$
3UEX_STE_A_163


 21 20  0  0  0  0  0  0  0  0999 V2000
   -3.5061   12.0328   18.7778 C   0  0  0  0  0  0  0  0  0  0  0  0
   -3.9451   12.9549   17.6524 C   0  0  0  0  0  0  0  0  0  0  0  0
   -4.3658   14.2943   18.2412 C   0  0  0  0  0  0  0  0  0  0  0  0
   -3.6830   15.3586   17.4061 C   0  0  0  0  0  0  0  0  0  0  0  0
   -2.9306   16.2810   18.3376 C   0  0  0  0  0  0  0  0  0  0  0  0
   -3.4366   17.6782   18.1258 C   0  0  0  0  0  0  0  0  0  0  0  0
   -4.6457   17.6947   17.2073 C   0  0  0  0  0  0  0  0  0  0  0  0
   -4.5066   18.7579   16.1187 C   0  0  0  0  0  0  0  0  0  0  0  0
   -4.2873   18.0373   14.8044 C   0  0  0  0  0  0  0  0  0  0  0  0
   -5.4562   17.1700   14.4139 C   0  0  0  0  0  0  0  0  0  0  0  0
   -5.0312   15.7873   13.9677 C   0  0  0  0  0  0  0  0  0  0  0  0
   -2.2104   12.5597   19.3438 C   0  0  0  0  0  0  0  0  0  0  0  0
   -1.2832   11.4244   19.7576 C   0  0  0  0  0  0  0  0  0  0  0  0
   -1.7124   10.1220   19.0913 C   0  0  0  0  0  0  0  0  0  0  0  0
   -1.4227    8.9093   19.9599 C   0  0  0  0  0  0  0  0  0  0  0  0
   -2.5803    7.9143   19.9478 C   0  0  0  0  0  0  0  0  0  0  0  0
   -3.8527    8.5402   19.3828 C   0  0  0  0  0  0  0  0  0  0  0  0
   -4.9668    7.5287   19.4448 C   0  0  0  0  0  0  0  0  0  0  0  0
   -6.0034    7.7528   18.7727 O   0  0  0  0  0  0  0  0  0  0  0  0
   -4.8272    6.5260   20.1788 O   0  0  0  0  0  0  0  0  0  0  0  0
   -4.0326    6.4050   20.6604 H   0  0  0  0  0  0  0  0  0  0  0  0
 18 19  2  0  0  0
 18 20  1  0  0  0
 18 17  1  0  0  0
 17 16  1  0  0  0
 16 15  1  0  0  0
 15 14  1  0  0  0
 14 13  1  0  0  0
 13 12  1  0  0  0
 12  1  1  0  0  0
  1  2  1  0  0  0
  2  3  1  0  0  0
  3  4  1  0  0  0
  4  5  1  0  0  0
  5  6  1  0  0  0
  6  7  1  0  0  0
  7  8  1  0  0  0
  8  9  1  0  0  0
  9 10  1  0  0  0
 10 11  1  0  0  0
 20 21  1  0  0  0
M  END
> <minimizedAffinity>
-7.02882

$$$$
3UEX_STE_A_163


 21 20  0  0  0  0  0  0  0  0999 V2000
   -3.6815   16.3200   18.3160 C   0  0  0  0  0  0  0  0  0  0  0  0
   -2.2670   15.8681   18.6395 C   0  0  0  0  0  0  0  0  0  0  0  0
   -2.2891   14.3932   19.0161 C   0  0  0  0  0  0  0  0  0  0  0  0
   -3.3364   13.7450   18.1332 C   0  0  0  0  0  0  0  0  0  0  0  0
   -3.4300   12.2829   18.5049 C   0  0  0  0  0  0  0  0  0  0  0  0
   -2.0625   11.8111   18.9055 C   0  0  0  0  0  0  0  0  0  0  0  0
   -1.7698   10.4290   18.3489 C   0  0  0  0  0  0  0  0  0  0  0  0
   -2.4512    9.3381   19.1738 C   0  0  0  0  0  0  0  0  0  0  0  0
   -1.4174    8.7774   20.1287 C   0  0  0  0  0  0  0  0  0  0  0  0
   -1.3577    7.2719   20.1038 C   0  0  0  0  0  0  0  0  0  0  0  0
   -2.5424    6.6311   20.7949 C   0  0  0  0  0  0  0  0  0  0  0  0
   -3.6485   17.7973   18.0105 C   0  0  0  0  0  0  0  0  0  0  0  0
   -4.8602   18.2217   17.1911 C   0  0  0  0  0  0  0  0  0  0  0  0
   -4.4449   19.2085   16.1057 C   0  0  0  0  0  0  0  0  0  0  0  0
   -4.4356   18.5740   14.7249 C   0  0  0  0  0  0  0  0  0  0  0  0
   -5.5397   17.5309   14.5735 C   0  0  0  0  0  0  0  0  0  0  0  0
   -5.0623   16.3198   13.7763 C   0  0  0  0  0  0  0  0  0  0  0  0
   -4.4143   15.3376   14.7162 C   0  0  0  0  0  0  0  0  0  0  0  0
   -3.3483   15.6815   15.2838 O   0  0  0  0  0  0  0  0  0  0  0  0
   -4.9452   14.2164   14.8727 O   0  0  0  0  0  0  0  0  0  0  0  0
   -5.7421   14.0089   14.4256 H   0  0  0  0  0  0  0  0  0  0  0  0
 18 19  2  0  0  0
 18 20  1  0  0  0
 18 17  1  0  0  0
 17 16  1  0  0  0
 16 15  1  0  0  0
 15 14  1  0  0  0
 14 13  1  0  0  0
 13 12  1  0  0  0
 12  1  1  0  0  0
  1  2  1  0  0  0
  2  3  1  0  0  0
  3  4  1  0  0  0
  4  5  1  0  0  0
  5  6  1  0  0  0
  6  7  1  0  0  0
  7  8  1  0  0  0
  8  9  1  0  0  0
  9 10  1  0  0  0
 10 11  1  0  0  0
 20 21  1  0  0  0
M  END
> <minimizedAffinity>
-6.74467

$$$$
3UEX_STE_A_163


 21 20  0  0  0  0  0  0  0  0999 V2000
   -3.2292   13.8352   18.3533 C   0  0  0  0  0  0  0  0  0  0  0  0
   -2.9733   12.3908   18.7505 C   0  0  0  0  0  0  0  0  0  0  0  0
   -2.1703   12.3644   20.0437 C   0  0  0  0  0  0  0  0  0  0  0  0
   -1.0451   11.3732   19.8247 C   0  0  0  0  0  0  0  0  0  0  0  0
   -1.5666   10.2483   18.9602 C   0  0  0  0  0  0  0  0  0  0  0  0
   -1.5456    8.9846   19.7700 C   0  0  0  0  0  0  0  0  0  0  0  0
   -2.9104    8.6872   20.3655 C   0  0  0  0  0  0  0  0  0  0  0  0
   -3.3962    7.2905   19.9806 C   0  0  0  0  0  0  0  0  0  0  0  0
   -4.1213    7.4101   18.6559 C   0  0  0  0  0  0  0  0  0  0  0  0
   -4.4840    6.0710   18.0677 C   0  0  0  0  0  0  0  0  0  0  0  0
   -4.5763    4.9815   19.1146 C   0  0  0  0  0  0  0  0  0  0  0  0
   -2.1387   14.6907   18.9497 C   0  0  0  0  0  0  0  0  0  0  0  0
   -2.3943   16.1710   18.6979 C   0  0  0  0  0  0  0  0  0  0  0  0
   -3.7900   16.3753   18.1192 C   0  0  0  0  0  0  0  0  0  0  0  0
   -4.0495   17.8244   17.7426 C   0  0  0  0  0  0  0  0  0  0  0  0
   -4.2925   17.9855   16.2442 C   0  0  0  0  0  0  0  0  0  0  0  0
   -4.1758   16.6523   15.5100 C   0  0  0  0  0  0  0  0  0  0  0  0
   -5.0227   16.7013   14.2656 C   0  0  0  0  0  0  0  0  0  0  0  0
   -5.6386   17.7663   14.0144 O   0  0  0  0  0  0  0  0  0  0  0  0
   -5.0998   15.6781   13.5511 O   0  0  0  0  0  0  0  0  0  0  0  0
   -4.6194   14.9077   13.7827 H   0  0  0  0  0  0  0  0  0  0  0  0
 18 19  2  0  0  0
 18 20  1  0  0  0
 18 17  1  0  0  0
 17 16  1  0  0  0
 16 15  1  0  0  0
 15 14  1  0  0  0
 14 13  1  0  0  0
 13 12  1  0  0  0
 12  1  1  0  0  0
  1  2  1  0  0  0
  2  3  1  0  0  0
  3  4  1  0  0  0
  4  5  1  0  0  0
  5  6  1  0  0  0
  6  7  1  0  0  0
  7  8  1  0  0  0
  8  9  1  0  0  0
  9 10  1  0  0  0
 10 11  1  0  0  0
 20 21  1  0  0  0
M  END
> <minimizedAffinity>
-6.64283

$$$$
3UEX_STE_A_163


 21 20  0  0  0  0  0  0  0  0999 V2000
   -1.4129   11.2063   18.5694 C   0  0  0  0  0  0  0  0  0  0  0  0
   -2.7721   11.8854   18.5398 C   0  0  0  0  0  0  0  0  0  0  0  0
   -2.7906   13.0082   19.5677 C   0  0  0  0  0  0  0  0  0  0  0  0
   -2.4424   14.2774   18.8165 C   0  0  0  0  0  0  0  0  0  0  0  0
   -3.6497   14.6961   18.0091 C   0  0  0  0  0  0  0  0  0  0  0  0
   -3.2781   15.9043   17.1996 C   0  0  0  0  0  0  0  0  0  0  0  0
   -3.8808   17.1688   17.7857 C   0  0  0  0  0  0  0  0  0  0  0  0
   -4.7079   17.9269   16.7484 C   0  0  0  0  0  0  0  0  0  0  0  0
   -4.1174   17.6245   15.3866 C   0  0  0  0  0  0  0  0  0  0  0  0
   -5.1642   17.2583   14.3663 C   0  0  0  0  0  0  0  0  0  0  0  0
   -5.0729   15.8106   13.9331 C   0  0  0  0  0  0  0  0  0  0  0  0
   -1.6248    9.7169   18.4527 C   0  0  0  0  0  0  0  0  0  0  0  0
   -1.4912    9.0297   19.8053 C   0  0  0  0  0  0  0  0  0  0  0  0
   -2.8685    8.7787   20.4090 C   0  0  0  0  0  0  0  0  0  0  0  0
   -3.7142    7.8558   19.5475 C   0  0  0  0  0  0  0  0  0  0  0  0
   -3.4015    6.3860   19.8160 C   0  0  0  0  0  0  0  0  0  0  0  0
   -3.1516    6.1270   21.2994 C   0  0  0  0  0  0  0  0  0  0  0  0
   -2.0314    5.1306   21.4420 C   0  0  0  0  0  0  0  0  0  0  0  0
   -0.8844    5.4767   21.0661 O   0  0  0  0  0  0  0  0  0  0  0  0
   -2.2910    3.9969   21.9010 O   0  0  0  0  0  0  0  0  0  0  0  0
   -3.1647    3.7883   22.1679 H   0  0  0  0  0  0  0  0  0  0  0  0
 18 19  2  0  0  0
 18 20  1  0  0  0
 18 17  1  0  0  0
 17 16  1  0  0  0
 16 15  1  0  0  0
 15 14  1  0  0  0
 14 13  1  0  0  0
 13 12  1  0  0  0
 12  1  1  0  0  0
  1  2  1  0  0  0
  2  3  1  0  0  0
  3  4  1  0  0  0
  4  5  1  0  0  0
  5  6  1  0  0  0
  6  7  1  0  0  0
  7  8  1  0  0  0
  8  9  1  0  0  0
  9 10  1  0  0  0
 10 11  1  0  0  0
 20 21  1  0  0  0
M  END
> <minimizedAffinity>
-6.60630

$$$$
3UEX_STE_A_163


 21 20  0  0  0  0  0  0  0  0999 V2000
   -1.9151   12.5565   19.4684 C   0  0  0  0  0  0  0  0  0  0  0  0
   -2.6718   11.5372   18.6330 C   0  0  0  0  0  0  0  0  0  0  0  0
   -1.7423   10.3789   18.2980 C   0  0  0  0  0  0  0  0  0  0  0  0
   -1.5329    9.6151   19.5900 C   0  0  0  0  0  0  0  0  0  0  0  0
   -2.8852    9.1843   20.1099 C   0  0  0  0  0  0  0  0  0  0  0  0
   -2.9015    7.6857   20.1929 C   0  0  0  0  0  0  0  0  0  0  0  0
   -3.8746    7.0875   19.1924 C   0  0  0  0  0  0  0  0  0  0  0  0
   -5.0985    7.9818   18.9993 C   0  0  0  0  0  0  0  0  0  0  0  0
   -6.3245    7.0941   19.0599 C   0  0  0  0  0  0  0  0  0  0  0  0
   -5.9805    5.6272   19.0878 C   0  0  0  0  0  0  0  0  0  0  0  0
   -6.3940    4.9086   17.8213 C   0  0  0  0  0  0  0  0  0  0  0  0
   -2.3933   13.9344   19.0820 C   0  0  0  0  0  0  0  0  0  0  0  0
   -3.6701   13.8668   18.2543 C   0  0  0  0  0  0  0  0  0  0  0  0
   -4.1909   15.2713   17.9704 C   0  0  0  0  0  0  0  0  0  0  0  0
   -3.1033   16.3247   18.0995 C   0  0  0  0  0  0  0  0  0  0  0  0
   -3.6807   17.7377   18.1020 C   0  0  0  0  0  0  0  0  0  0  0  0
   -4.8923   17.8508   17.1805 C   0  0  0  0  0  0  0  0  0  0  0  0
   -4.4451   18.3831   15.8445 C   0  0  0  0  0  0  0  0  0  0  0  0
   -4.3338   19.6269   15.7138 O   0  0  0  0  0  0  0  0  0  0  0  0
   -4.2295   17.5727   14.9170 O   0  0  0  0  0  0  0  0  0  0  0  0
   -4.3268   16.6528   15.0665 H   0  0  0  0  0  0  0  0  0  0  0  0
 18 19  2  0  0  0
 18 20  1  0  0  0
 18 17  1  0  0  0
 17 16  1  0  0  0
 16 15  1  0  0  0
 15 14  1  0  0  0
 14 13  1  0  0  0
 13 12  1  0  0  0
 12  1  1  0  0  0
  1  2  1  0  0  0
  2  3  1  0  0  0
  3  4  1  0  0  0
  4  5  1  0  0  0
  5  6  1  0  0  0
  6  7  1  0  0  0
  7  8  1  0  0  0
  8  9  1  0  0  0
  9 10  1  0  0  0
 10 11  1  0  0  0
 20 21  1  0  0  0
M  END
> <minimizedAffinity>
-6.47947

$$$$
3UEX_STE_A_163


 21 20  0  0  0  0  0  0  0  0999 V2000
   -1.3793    9.5092   18.5246 C   0  0  0  0  0  0  0  0  0  0  0  0
   -1.3838   11.0266   18.4406 C   0  0  0  0  0  0  0  0  0  0  0  0
   -1.5206   11.6029   19.8430 C   0  0  0  0  0  0  0  0  0  0  0  0
   -2.4545   12.7905   19.7250 C   0  0  0  0  0  0  0  0  0  0  0  0
   -3.7553   12.3118   19.1220 C   0  0  0  0  0  0  0  0  0  0  0  0
   -4.2806   13.3905   18.2201 C   0  0  0  0  0  0  0  0  0  0  0  0
   -3.3915   14.6210   18.2544 C   0  0  0  0  0  0  0  0  0  0  0  0
   -4.0781   15.8252   17.6114 C   0  0  0  0  0  0  0  0  0  0  0  0
   -3.3907   16.0871   16.2871 C   0  0  0  0  0  0  0  0  0  0  0  0
   -4.0431   17.1953   15.5016 C   0  0  0  0  0  0  0  0  0  0  0  0
   -4.9717   16.6763   14.4246 C   0  0  0  0  0  0  0  0  0  0  0  0
   -1.4018    9.1155   19.9811 C   0  0  0  0  0  0  0  0  0  0  0  0
   -2.1622    7.8128   20.1921 C   0  0  0  0  0  0  0  0  0  0  0  0
   -3.5473    7.9011   19.5611 C   0  0  0  0  0  0  0  0  0  0  0  0
   -3.8658    6.6890   18.7017 C   0  0  0  0  0  0  0  0  0  0  0  0
   -5.3271    6.6754   18.2609 C   0  0  0  0  0  0  0  0  0  0  0  0
   -6.2696    6.4893   19.4472 C   0  0  0  0  0  0  0  0  0  0  0  0
   -7.1852    7.6815   19.5385 C   0  0  0  0  0  0  0  0  0  0  0  0
   -6.9504    8.6627   18.7910 O   0  0  0  0  0  0  0  0  0  0  0  0
   -8.1205    7.6582   20.3682 O   0  0  0  0  0  0  0  0  0  0  0  0
   -8.2534    6.9004   20.9031 H   0  0  0  0  0  0  0  0  0  0  0  0
 18 19  2  0  0  0
 18 20  1  0  0  0
 18 17  1  0  0  0
 17 16  1  0  0  0
 16 15  1  0  0  0
 15 14  1  0  0  0
 14 13  1  0  0  0
 13 12  1  0  0  0
 12  1  1  0  0  0
  1  2  1  0  0  0
  2  3  1  0  0  0
  3  4  1  0  0  0
  4  5  1  0  0  0
  5  6  1  0  0  0
  6  7  1  0  0  0
  7  8  1  0  0  0
  8  9  1  0  0  0
  9 10  1  0  0  0
 10 11  1  0  0  0
 20 21  1  0  0  0
M  END
> <minimizedAffinity>
-6.46140

$$$$
3UEX_STE_A_163


 21 20  0  0  0  0  0  0  0  0999 V2000
   -1.9064   12.7130   19.3620 C   0  0  0  0  0  0  0  0  0  0  0  0
   -1.4578   11.3170   18.9629 C   0  0  0  0  0  0  0  0  0  0  0  0
   -1.5080   10.4093   20.1841 C   0  0  0  0  0  0  0  0  0  0  0  0
   -1.6379    8.9946   19.6567 C   0  0  0  0  0  0  0  0  0  0  0  0
   -2.8907    8.3842   20.2421 C   0  0  0  0  0  0  0  0  0  0  0  0
   -3.7309    7.8618   19.1132 C   0  0  0  0  0  0  0  0  0  0  0  0
   -3.8432    6.3483   19.1624 C   0  0  0  0  0  0  0  0  0  0  0  0
   -3.4453    5.8023   20.5331 C   0  0  0  0  0  0  0  0  0  0  0  0
   -2.3250    4.8057   20.3179 C   0  0  0  0  0  0  0  0  0  0  0  0
   -1.0716    5.1668   21.0726 C   0  0  0  0  0  0  0  0  0  0  0  0
   -0.0129    5.7811   20.1819 C   0  0  0  0  0  0  0  0  0  0  0  0
   -3.3619   12.8659   18.9949 C   0  0  0  0  0  0  0  0  0  0  0  0
   -3.5966   14.1232   18.1680 C   0  0  0  0  0  0  0  0  0  0  0  0
   -2.5599   15.1857   18.5157 C   0  0  0  0  0  0  0  0  0  0  0  0
   -3.0554   16.5912   18.2187 C   0  0  0  0  0  0  0  0  0  0  0  0
   -4.4533   16.5812   17.6057 C   0  0  0  0  0  0  0  0  0  0  0  0
   -4.8244   17.9460   17.0315 C   0  0  0  0  0  0  0  0  0  0  0  0
   -4.7983   17.8696   15.5277 C   0  0  0  0  0  0  0  0  0  0  0  0
   -5.7362   17.2643   14.9527 O   0  0  0  0  0  0  0  0  0  0  0  0
   -3.8368   18.3852   14.9168 O   0  0  0  0  0  0  0  0  0  0  0  0
   -3.1614   18.8265   15.3934 H   0  0  0  0  0  0  0  0  0  0  0  0
 18 19  2  0  0  0
 18 20  1  0  0  0
 18 17  1  0  0  0
 17 16  1  0  0  0
 16 15  1  0  0  0
 15 14  1  0  0  0
 14 13  1  0  0  0
 13 12  1  0  0  0
 12  1  1  0  0  0
  1  2  1  0  0  0
  2  3  1  0  0  0
  3  4  1  0  0  0
  4  5  1  0  0  0
  5  6  1  0  0  0
  6  7  1  0  0  0
  7  8  1  0  0  0
  8  9  1  0  0  0
  9 10  1  0  0  0
 10 11  1  0  0  0
 20 21  1  0  0  0
M  END
> <minimizedAffinity>
-6.19381

$$$$
3UEX_STE_A_163


 21 20  0  0  0  0  0  0  0  0999 V2000
   -1.4655   10.2172   19.7156 C   0  0  0  0  0  0  0  0  0  0  0  0
   -1.8260   10.6040   18.2908 C   0  0  0  0  0  0  0  0  0  0  0  0
   -3.1711   11.3171   18.2933 C   0  0  0  0  0  0  0  0  0  0  0  0
   -3.0816   12.3888   19.3609 C   0  0  0  0  0  0  0  0  0  0  0  0
   -2.6461   13.6779   18.7025 C   0  0  0  0  0  0  0  0  0  0  0  0
   -3.8753   14.4612   18.3438 C   0  0  0  0  0  0  0  0  0  0  0  0
   -3.8063   14.9747   16.9165 C   0  0  0  0  0  0  0  0  0  0  0  0
   -3.2552   16.3989   16.8606 C   0  0  0  0  0  0  0  0  0  0  0  0
   -4.2165   17.2887   17.6213 C   0  0  0  0  0  0  0  0  0  0  0  0
   -4.5517   18.5549   16.8760 C   0  0  0  0  0  0  0  0  0  0  0  0
   -4.3695   18.4147   15.3798 C   0  0  0  0  0  0  0  0  0  0  0  0
   -1.7379    8.7434   19.8896 C   0  0  0  0  0  0  0  0  0  0  0  0
   -3.0531    8.5045   20.6198 C   0  0  0  0  0  0  0  0  0  0  0  0
   -3.8526    7.4088   19.9236 C   0  0  0  0  0  0  0  0  0  0  0  0
   -4.9744    7.9718   19.0670 C   0  0  0  0  0  0  0  0  0  0  0  0
   -6.0729    6.9404   18.8229 C   0  0  0  0  0  0  0  0  0  0  0  0
   -5.7009    5.5768   19.3994 C   0  0  0  0  0  0  0  0  0  0  0  0
   -6.9021    4.6709   19.3316 C   0  0  0  0  0  0  0  0  0  0  0  0
   -7.2152    4.1911   18.2143 O   0  0  0  0  0  0  0  0  0  0  0  0
   -7.5513    4.4552   20.3783 O   0  0  0  0  0  0  0  0  0  0  0  0
   -7.2752    4.8375   21.1879 H   0  0  0  0  0  0  0  0  0  0  0  0
 18 19  2  0  0  0
 18 20  1  0  0  0
 18 17  1  0  0  0
 17 16  1  0  0  0
 16 15  1  0  0  0
 15 14  1  0  0  0
 14 13  1  0  0  0
 13 12  1  0  0  0
 12  1  1  0  0  0
  1  2  1  0  0  0
  2  3  1  0  0  0
  3  4  1  0  0  0
  4  5  1  0  0  0
  5  6  1  0  0  0
  6  7  1  0  0  0
  7  8  1  0  0  0
  8  9  1  0  0  0
  9 10  1  0  0  0
 10 11  1  0  0  0
 20 21  1  0  0  0
M  END
> <minimizedAffinity>
-6.14947

$$$$
