5SZ0_72D_A_303


 18 19  0  0  0  0  0  0  0  0999 V2000
   -0.2769    3.0148   84.7750 C   0  0  0  0  0  0  0  0  0  0  0  0
   -0.8261    1.8110   85.5136 C   0  0  0  0  0  0  0  0  0  0  0  0
   -2.1005    1.7576   85.8085 C   0  0  0  0  0  0  0  0  0  0  0  0
   -3.0460    2.9046   85.4488 C   0  0  0  0  0  0  0  0  0  0  0  0
   -2.5653    3.9651   84.8193 C   0  0  0  0  0  0  0  0  0  0  0  0
   -1.0775    4.0009   84.4517 C   0  0  0  0  0  0  0  0  0  0  0  0
   -2.6531    0.2711   86.6816 S   0  0  0  0  0  0  0  0  0  0  0  0
   -2.0402   -0.8778   86.0063 O   0  0  0  0  0  0  0  0  0  0  0  0
   -2.1302    0.2256   88.0562 O   0  0  0  0  0  0  0  0  0  0  0  0
   -4.3544    0.1652   86.6819 N   0  0  0  0  0  0  0  0  0  0  0  0
   -4.7456    0.9780   87.1581 H   0  0  0  0  0  0  0  0  0  0  0  0
   -4.6421   -0.6845   87.1675 H   0  0  0  0  0  0  0  0  0  0  0  0
   -0.4170    5.1804   83.7557 C   0  0  0  0  0  0  0  0  0  0  0  0
   -0.6614    5.4739   82.4985 C   0  0  0  0  0  0  0  0  0  0  0  0
    0.0507    6.6567   81.8532 C   0  0  0  0  0  0  0  0  0  0  0  0
    0.9173    7.3632   82.5502 C   0  0  0  0  0  0  0  0  0  0  0  0
    1.2111    7.0020   84.0016 C   0  0  0  0  0  0  0  0  0  0  0  0
    0.5939    5.9832   84.5580 C   0  0  0  0  0  0  0  0  0  0  0  0
 15 14  2  0  0  0
 15 16  1  0  0  0
 14 13  1  0  0  0
 16 17  2  0  0  0
 13  6  1  0  0  0
 13 18  2  0  0  0
 17 18  1  0  0  0
  6  5  2  0  0  0
  6  1  1  0  0  0
  5  4  1  0  0  0
  1  2  2  0  0  0
  4  3  2  0  0  0
  2  3  1  0  0  0
  3  7  1  0  0  0
 10  7  1  0  0  0
  9  7  2  0  0  0
  7  8  2  0  0  0
 10 11  1  0  0  0
 10 12  1  0  0  0
M  END
> <minimizedAffinity>
-7.72277

$$$$
5SZ0_72D_A_303


 18 19  0  0  0  0  0  0  0  0999 V2000
   -0.2493    2.9520   84.7985 C   0  0  0  0  0  0  0  0  0  0  0  0
   -0.8162    1.7536   85.5324 C   0  0  0  0  0  0  0  0  0  0  0  0
   -2.0907    1.7193   85.8300 C   0  0  0  0  0  0  0  0  0  0  0  0
   -3.0184    2.8831   85.4780 C   0  0  0  0  0  0  0  0  0  0  0  0
   -2.5220    3.9389   84.8526 C   0  0  0  0  0  0  0  0  0  0  0  0
   -1.0346    3.9524   84.4818 C   0  0  0  0  0  0  0  0  0  0  0  0
   -2.6652    0.2376   86.6970 S   0  0  0  0  0  0  0  0  0  0  0  0
   -2.0685   -0.9175   86.0177 O   0  0  0  0  0  0  0  0  0  0  0  0
   -2.1440    0.1793   88.0718 O   0  0  0  0  0  0  0  0  0  0  0  0
   -4.3679    0.1562   86.6959 N   0  0  0  0  0  0  0  0  0  0  0  0
   -4.7476    0.9727   87.1750 H   0  0  0  0  0  0  0  0  0  0  0  0
   -4.6681   -0.6910   87.1781 H   0  0  0  0  0  0  0  0  0  0  0  0
   -0.3567    5.1246   83.7900 C   0  0  0  0  0  0  0  0  0  0  0  0
    0.5527    5.8578   84.3915 C   0  0  0  0  0  0  0  0  0  0  0  0
    1.1782    7.0330   83.6498 C   0  0  0  0  0  0  0  0  0  0  0  0
    0.7920    7.3175   82.4226 C   0  0  0  0  0  0  0  0  0  0  0  0
   -0.2795    6.4747   81.7406 C   0  0  0  0  0  0  0  0  0  0  0  0
   -0.8162    5.4595   82.3805 C   0  0  0  0  0  0  0  0  0  0  0  0
 15 14  2  0  0  0
 15 16  1  0  0  0
 14 13  1  0  0  0
 16 17  2  0  0  0
 13  6  1  0  0  0
 13 18  2  0  0  0
 17 18  1  0  0  0
  6  5  2  0  0  0
  6  1  1  0  0  0
  5  4  1  0  0  0
  1  2  2  0  0  0
  4  3  2  0  0  0
  2  3  1  0  0  0
  3  7  1  0  0  0
 10  7  1  0  0  0
  9  7  2  0  0  0
  7  8  2  0  0  0
 10 11  1  0  0  0
 10 12  1  0  0  0
M  END
> <minimizedAffinity>
-7.71285

$$$$
5SZ0_72D_A_303


 18 19  0  0  0  0  0  0  0  0999 V2000
    0.9271    4.0887   84.4635 C   0  0  0  0  0  0  0  0  0  0  0  0
    0.4755    2.6909   84.8355 C   0  0  0  0  0  0  0  0  0  0  0  0
   -0.8033    2.4149   84.8857 C   0  0  0  0  0  0  0  0  0  0  0  0
   -1.8572    3.4871   84.6056 C   0  0  0  0  0  0  0  0  0  0  0  0
   -1.4654    4.7134   84.2976 C   0  0  0  0  0  0  0  0  0  0  0  0
    0.0350    5.0152   84.2112 C   0  0  0  0  0  0  0  0  0  0  0  0
   -1.2326    0.7131   85.3295 S   0  0  0  0  0  0  0  0  0  0  0  0
   -1.2390   -0.0673   84.0875 O   0  0  0  0  0  0  0  0  0  0  0  0
   -0.1901    0.0919   86.1617 O   0  0  0  0  0  0  0  0  0  0  0  0
   -2.7438    0.6543   86.1161 N   0  0  0  0  0  0  0  0  0  0  0  0
   -2.7028    1.2061   86.9730 H   0  0  0  0  0  0  0  0  0  0  0  0
   -2.9703   -0.3134   86.3454 H   0  0  0  0  0  0  0  0  0  0  0  0
    0.5931    6.3939   83.8947 C   0  0  0  0  0  0  0  0  0  0  0  0
    0.6990    6.8368   82.6622 C   0  0  0  0  0  0  0  0  0  0  0  0
    1.2877    8.2198   82.4112 C   0  0  0  0  0  0  0  0  0  0  0  0
    1.7025    8.9524   83.4247 C   0  0  0  0  0  0  0  0  0  0  0  0
    1.5960    8.4215   84.8496 C   0  0  0  0  0  0  0  0  0  0  0  0
    1.0853    7.2294   85.0650 C   0  0  0  0  0  0  0  0  0  0  0  0
 15 14  2  0  0  0
 15 16  1  0  0  0
 14 13  1  0  0  0
 16 17  2  0  0  0
 13  6  1  0  0  0
 13 18  2  0  0  0
 17 18  1  0  0  0
  6  5  2  0  0  0
  6  1  1  0  0  0
  5  4  1  0  0  0
  1  2  2  0  0  0
  4  3  2  0  0  0
  2  3  1  0  0  0
  3  7  1  0  0  0
 10  7  1  0  0  0
  9  7  2  0  0  0
  7  8  2  0  0  0
 10 11  1  0  0  0
 10 12  1  0  0  0
M  END
> <minimizedAffinity>
-7.04886

$$$$
5SZ0_72D_A_303


 18 19  0  0  0  0  0  0  0  0999 V2000
   -0.9421    1.6361   83.2326 C   0  0  0  0  0  0  0  0  0  0  0  0
   -0.0792    2.1996   82.1216 C   0  0  0  0  0  0  0  0  0  0  0  0
    0.7767    3.1542   82.3866 C   0  0  0  0  0  0  0  0  0  0  0  0
    0.9030    3.7370   83.7948 C   0  0  0  0  0  0  0  0  0  0  0  0
    0.1379    3.2586   84.7633 C   0  0  0  0  0  0  0  0  0  0  0  0
   -0.8376    2.1193   84.4464 C   0  0  0  0  0  0  0  0  0  0  0  0
    1.7643    3.7469   80.9900 S   0  0  0  0  0  0  0  0  0  0  0  0
    0.9264    3.6338   79.7912 O   0  0  0  0  0  0  0  0  0  0  0  0
    2.0625    5.1829   81.1094 O   0  0  0  0  0  0  0  0  0  0  0  0
    3.2027    2.8449   80.8382 N   0  0  0  0  0  0  0  0  0  0  0  0
    3.7589    2.9464   81.6872 H   0  0  0  0  0  0  0  0  0  0  0  0
    3.7362    3.1877   80.0393 H   0  0  0  0  0  0  0  0  0  0  0  0
   -1.7813    1.5170   85.4754 C   0  0  0  0  0  0  0  0  0  0  0  0
   -1.6202    0.2985   85.9400 C   0  0  0  0  0  0  0  0  0  0  0  0
   -2.6146   -0.2542   86.9538 C   0  0  0  0  0  0  0  0  0  0  0  0
   -3.6359    0.4818   87.3427 C   0  0  0  0  0  0  0  0  0  0  0  0
   -3.8273    1.8862   86.7818 C   0  0  0  0  0  0  0  0  0  0  0  0
   -2.9671    2.3630   85.9095 C   0  0  0  0  0  0  0  0  0  0  0  0
 15 14  2  0  0  0
 15 16  1  0  0  0
 14 13  1  0  0  0
 16 17  2  0  0  0
 13  6  1  0  0  0
 13 18  2  0  0  0
 17 18  1  0  0  0
  6  5  2  0  0  0
  6  1  1  0  0  0
  5  4  1  0  0  0
  1  2  2  0  0  0
  4  3  2  0  0  0
  2  3  1  0  0  0
  3  7  1  0  0  0
 10  7  1  0  0  0
  9  7  2  0  0  0
  7  8  2  0  0  0
 10 11  1  0  0  0
 10 12  1  0  0  0
M  END
> <minimizedAffinity>
-6.97233

$$$$
5SZ0_72D_A_303


 18 19  0  0  0  0  0  0  0  0999 V2000
    0.1600    2.8226   84.9549 C   0  0  0  0  0  0  0  0  0  0  0  0
    1.1277    3.7297   84.2220 C   0  0  0  0  0  0  0  0  0  0  0  0
    0.6677    4.7245   83.5061 C   0  0  0  0  0  0  0  0  0  0  0  0
   -0.8349    4.9734   83.3679 C   0  0  0  0  0  0  0  0  0  0  0  0
   -1.6829    4.1718   83.9928 C   0  0  0  0  0  0  0  0  0  0  0  0
   -1.1302    3.0299   84.8535 C   0  0  0  0  0  0  0  0  0  0  0  0
    1.9096    5.7517   82.6815 S   0  0  0  0  0  0  0  0  0  0  0  0
    1.2670    6.3405   81.5016 O   0  0  0  0  0  0  0  0  0  0  0  0
    2.2996    6.9010   83.5134 O   0  0  0  0  0  0  0  0  0  0  0  0
    3.2766    4.8264   82.2561 N   0  0  0  0  0  0  0  0  0  0  0  0
    3.6968    4.4335   83.0984 H   0  0  0  0  0  0  0  0  0  0  0  0
    3.9564    5.4218   81.7830 H   0  0  0  0  0  0  0  0  0  0  0  0
   -2.0140    2.0350   85.5890 C   0  0  0  0  0  0  0  0  0  0  0  0
   -3.2000    2.3636   86.0494 C   0  0  0  0  0  0  0  0  0  0  0  0
   -4.0271    1.3253   86.7978 C   0  0  0  0  0  0  0  0  0  0  0  0
   -3.5433    0.1157   86.9946 C   0  0  0  0  0  0  0  0  0  0  0  0
   -2.1573   -0.2501   86.4761 C   0  0  0  0  0  0  0  0  0  0  0  0
   -1.4460    0.6456   85.8281 C   0  0  0  0  0  0  0  0  0  0  0  0
 15 14  2  0  0  0
 15 16  1  0  0  0
 14 13  1  0  0  0
 16 17  2  0  0  0
 13  6  1  0  0  0
 13 18  2  0  0  0
 17 18  1  0  0  0
  6  5  2  0  0  0
  6  1  1  0  0  0
  5  4  1  0  0  0
  1  2  2  0  0  0
  4  3  2  0  0  0
  2  3  1  0  0  0
  3  7  1  0  0  0
 10  7  1  0  0  0
  9  7  2  0  0  0
  7  8  2  0  0  0
 10 11  1  0  0  0
 10 12  1  0  0  0
M  END
> <minimizedAffinity>
-6.72982

$$$$
5SZ0_72D_A_303


 18 19  0  0  0  0  0  0  0  0999 V2000
   -1.4533    1.8821   82.8419 C   0  0  0  0  0  0  0  0  0  0  0  0
   -1.0796    2.5006   81.5099 C   0  0  0  0  0  0  0  0  0  0  0  0
   -1.0598    3.8035   81.3831 C   0  0  0  0  0  0  0  0  0  0  0  0
   -1.4377    4.7190   82.5484 C   0  0  0  0  0  0  0  0  0  0  0  0
   -1.7816    4.1809   83.7078 C   0  0  0  0  0  0  0  0  0  0  0  0
   -1.7701    2.6548   83.8521 C   0  0  0  0  0  0  0  0  0  0  0  0
   -0.5896    4.4368   79.7537 S   0  0  0  0  0  0  0  0  0  0  0  0
   -0.3672    3.2741   78.8875 O   0  0  0  0  0  0  0  0  0  0  0  0
   -1.6943    5.1747   79.1210 O   0  0  0  0  0  0  0  0  0  0  0  0
    0.8023    5.4150   79.8617 N   0  0  0  0  0  0  0  0  0  0  0  0
    0.6119    6.2113   80.4700 H   0  0  0  0  0  0  0  0  0  0  0  0
    1.0554    5.7500   78.9322 H   0  0  0  0  0  0  0  0  0  0  0  0
   -2.1748    1.9331   85.1278 C   0  0  0  0  0  0  0  0  0  0  0  0
   -1.6797    0.7599   85.4519 C   0  0  0  0  0  0  0  0  0  0  0  0
   -2.1437    0.0793   86.7340 C   0  0  0  0  0  0  0  0  0  0  0  0
   -3.0481    0.6592   87.4969 C   0  0  0  0  0  0  0  0  0  0  0  0
   -3.6331    2.0102   87.1017 C   0  0  0  0  0  0  0  0  0  0  0  0
   -3.2298    2.5976   85.9970 C   0  0  0  0  0  0  0  0  0  0  0  0
 15 14  2  0  0  0
 15 16  1  0  0  0
 14 13  1  0  0  0
 16 17  2  0  0  0
 13  6  1  0  0  0
 13 18  2  0  0  0
 17 18  1  0  0  0
  6  5  2  0  0  0
  6  1  1  0  0  0
  5  4  1  0  0  0
  1  2  2  0  0  0
  4  3  2  0  0  0
  2  3  1  0  0  0
  3  7  1  0  0  0
 10  7  1  0  0  0
  9  7  2  0  0  0
  7  8  2  0  0  0
 10 11  1  0  0  0
 10 12  1  0  0  0
M  END
> <minimizedAffinity>
-6.69477

$$$$
5SZ0_72D_A_303


 18 19  0  0  0  0  0  0  0  0999 V2000
   -0.6413    5.2433   84.4674 C   0  0  0  0  0  0  0  0  0  0  0  0
   -1.1286    3.8324   84.7286 C   0  0  0  0  0  0  0  0  0  0  0  0
   -0.2777    2.8378   84.7028 C   0  0  0  0  0  0  0  0  0  0  0  0
    1.2000    3.0669   84.3823 C   0  0  0  0  0  0  0  0  0  0  0  0
    1.6249    4.2962   84.1364 C   0  0  0  0  0  0  0  0  0  0  0  0
    0.6243    5.4558   84.2011 C   0  0  0  0  0  0  0  0  0  0  0  0
   -0.9630    1.1962   85.0387 S   0  0  0  0  0  0  0  0  0  0  0  0
   -0.1593    0.6059   86.1145 O   0  0  0  0  0  0  0  0  0  0  0  0
   -2.3258    1.2811   85.5872 O   0  0  0  0  0  0  0  0  0  0  0  0
   -0.9394    0.2301   83.6346 N   0  0  0  0  0  0  0  0  0  0  0  0
   -1.5068    0.6697   82.9098 H   0  0  0  0  0  0  0  0  0  0  0  0
   -1.3180   -0.6922   83.8500 H   0  0  0  0  0  0  0  0  0  0  0  0
    0.9992    6.9000   83.9080 C   0  0  0  0  0  0  0  0  0  0  0  0
    1.3333    7.7406   84.8610 C   0  0  0  0  0  0  0  0  0  0  0  0
    1.6768    9.1814   84.5026 C   0  0  0  0  0  0  0  0  0  0  0  0
    1.6189    9.5792   83.2479 C   0  0  0  0  0  0  0  0  0  0  0  0
    1.2089    8.6029   82.1515 C   0  0  0  0  0  0  0  0  0  0  0  0
    0.9156    7.3595   82.4616 C   0  0  0  0  0  0  0  0  0  0  0  0
 15 14  2  0  0  0
 15 16  1  0  0  0
 14 13  1  0  0  0
 16 17  2  0  0  0
 13  6  1  0  0  0
 13 18  2  0  0  0
 17 18  1  0  0  0
  6  5  2  0  0  0
  6  1  1  0  0  0
  5  4  1  0  0  0
  1  2  2  0  0  0
  4  3  2  0  0  0
  2  3  1  0  0  0
  3  7  1  0  0  0
 10  7  1  0  0  0
  9  7  2  0  0  0
  7  8  2  0  0  0
 10 11  1  0  0  0
 10 12  1  0  0  0
M  END
> <minimizedAffinity>
-6.60262

$$$$
5SZ0_72D_A_303


 18 19  0  0  0  0  0  0  0  0999 V2000
   -2.0846    4.3884   83.8903 C   0  0  0  0  0  0  0  0  0  0  0  0
   -1.9287    3.1807   84.7923 C   0  0  0  0  0  0  0  0  0  0  0  0
   -1.1930    2.1708   84.4016 C   0  0  0  0  0  0  0  0  0  0  0  0
   -0.5090    2.1708   83.0337 C   0  0  0  0  0  0  0  0  0  0  0  0
   -0.6580    3.2171   82.2366 C   0  0  0  0  0  0  0  0  0  0  0  0
   -1.4961    4.4064   82.7194 C   0  0  0  0  0  0  0  0  0  0  0  0
   -1.0653    0.7851   85.5594 S   0  0  0  0  0  0  0  0  0  0  0  0
    0.2830    0.8280   86.1355 O   0  0  0  0  0  0  0  0  0  0  0  0
   -1.9724    0.9530   86.7058 O   0  0  0  0  0  0  0  0  0  0  0  0
   -1.3636   -0.6954   84.7688 N   0  0  0  0  0  0  0  0  0  0  0  0
   -2.3073   -0.6899   84.3816 H   0  0  0  0  0  0  0  0  0  0  0  0
   -1.2745   -1.4613   85.4364 H   0  0  0  0  0  0  0  0  0  0  0  0
   -1.7555    5.6436   81.8742 C   0  0  0  0  0  0  0  0  0  0  0  0
   -0.7770    6.3799   81.3978 C   0  0  0  0  0  0  0  0  0  0  0  0
   -1.1049    7.6206   80.5759 C   0  0  0  0  0  0  0  0  0  0  0  0
   -2.3611    7.9570   80.3645 C   0  0  0  0  0  0  0  0  0  0  0  0
   -3.4898    7.1091   80.9395 C   0  0  0  0  0  0  0  0  0  0  0  0
   -3.2056    6.0374   81.6459 C   0  0  0  0  0  0  0  0  0  0  0  0
 15 14  2  0  0  0
 15 16  1  0  0  0
 14 13  1  0  0  0
 16 17  2  0  0  0
 13  6  1  0  0  0
 13 18  2  0  0  0
 17 18  1  0  0  0
  6  5  2  0  0  0
  6  1  1  0  0  0
  5  4  1  0  0  0
  1  2  2  0  0  0
  4  3  2  0  0  0
  2  3  1  0  0  0
  3  7  1  0  0  0
 10  7  1  0  0  0
  9  7  2  0  0  0
  7  8  2  0  0  0
 10 11  1  0  0  0
 10 12  1  0  0  0
M  END
> <minimizedAffinity>
-6.59219

$$$$
5SZ0_72D_A_303


 18 19  0  0  0  0  0  0  0  0999 V2000
   -1.9252    3.7872   84.0943 C   0  0  0  0  0  0  0  0  0  0  0  0
   -1.3066    4.9067   83.2817 C   0  0  0  0  0  0  0  0  0  0  0  0
   -0.0056    5.0510   83.2624 C   0  0  0  0  0  0  0  0  0  0  0  0
    0.9064    4.1278   84.0716 C   0  0  0  0  0  0  0  0  0  0  0  0
    0.3674    3.1600   84.7962 C   0  0  0  0  0  0  0  0  0  0  0  0
   -1.1551    2.9822   84.7849 C   0  0  0  0  0  0  0  0  0  0  0  0
    0.6286    6.4127   82.2519 S   0  0  0  0  0  0  0  0  0  0  0  0
    1.0788    7.4604   83.1746 O   0  0  0  0  0  0  0  0  0  0  0  0
    1.8359    6.0180   81.5090 O   0  0  0  0  0  0  0  0  0  0  0  0
   -0.5716    6.9873   81.1865 N   0  0  0  0  0  0  0  0  0  0  0  0
   -0.8601    6.2346   80.5615 H   0  0  0  0  0  0  0  0  0  0  0  0
   -0.1965    7.7605   80.6371 H   0  0  0  0  0  0  0  0  0  0  0  0
   -1.8787    1.9236   85.6022 C   0  0  0  0  0  0  0  0  0  0  0  0
   -1.3975    0.7104   85.7537 C   0  0  0  0  0  0  0  0  0  0  0  0
   -2.1832   -0.3111   86.5671 C   0  0  0  0  0  0  0  0  0  0  0  0
   -3.3438    0.0205   87.0953 C   0  0  0  0  0  0  0  0  0  0  0  0
   -3.9048    1.4237   86.8960 C   0  0  0  0  0  0  0  0  0  0  0  0
   -3.2247    2.3048   86.1965 C   0  0  0  0  0  0  0  0  0  0  0  0
 15 14  2  0  0  0
 15 16  1  0  0  0
 14 13  1  0  0  0
 16 17  2  0  0  0
 13  6  1  0  0  0
 13 18  2  0  0  0
 17 18  1  0  0  0
  6  5  2  0  0  0
  6  1  1  0  0  0
  5  4  1  0  0  0
  1  2  2  0  0  0
  4  3  2  0  0  0
  2  3  1  0  0  0
  3  7  1  0  0  0
 10  7  1  0  0  0
  9  7  2  0  0  0
  7  8  2  0  0  0
 10 11  1  0  0  0
 10 12  1  0  0  0
M  END
> <minimizedAffinity>
-6.53100

$$$$
5SZ0_72D_A_303


 18 19  0  0  0  0  0  0  0  0999 V2000
    1.1336    4.8545   82.8948 C   0  0  0  0  0  0  0  0  0  0  0  0
    0.5844    3.4559   82.6978 C   0  0  0  0  0  0  0  0  0  0  0  0
   -0.4303    3.0506   83.4190 C   0  0  0  0  0  0  0  0  0  0  0  0
   -1.0567    3.9525   84.4835 C   0  0  0  0  0  0  0  0  0  0  0  0
   -0.5674    5.1683   84.6697 C   0  0  0  0  0  0  0  0  0  0  0  0
    0.6003    5.6419   83.7967 C   0  0  0  0  0  0  0  0  0  0  0  0
   -1.0138    1.3677   83.0958 S   0  0  0  0  0  0  0  0  0  0  0  0
   -2.1041    1.4699   82.1198 O   0  0  0  0  0  0  0  0  0  0  0  0
    0.0169    0.5568   82.4284 O   0  0  0  0  0  0  0  0  0  0  0  0
   -1.5291    0.6171   84.5369 N   0  0  0  0  0  0  0  0  0  0  0  0
   -0.7478    0.5631   85.1903 H   0  0  0  0  0  0  0  0  0  0  0  0
   -1.8643   -0.3236   84.3292 H   0  0  0  0  0  0  0  0  0  0  0  0
    1.2560    7.0057   83.9464 C   0  0  0  0  0  0  0  0  0  0  0  0
    1.7697    7.4107   85.0860 C   0  0  0  0  0  0  0  0  0  0  0  0
    2.3929    8.7984   85.1755 C   0  0  0  0  0  0  0  0  0  0  0  0
    2.3963    9.5877   84.1206 C   0  0  0  0  0  0  0  0  0  0  0  0
    1.7784    9.1179   82.8087 C   0  0  0  0  0  0  0  0  0  0  0  0
    1.2437    7.9194   82.7319 C   0  0  0  0  0  0  0  0  0  0  0  0
 15 14  2  0  0  0
 15 16  1  0  0  0
 14 13  1  0  0  0
 16 17  2  0  0  0
 13  6  1  0  0  0
 13 18  2  0  0  0
 17 18  1  0  0  0
  6  5  2  0  0  0
  6  1  1  0  0  0
  5  4  1  0  0  0
  1  2  2  0  0  0
  4  3  2  0  0  0
  2  3  1  0  0  0
  3  7  1  0  0  0
 10  7  1  0  0  0
  9  7  2  0  0  0
  7  8  2  0  0  0
 10 11  1  0  0  0
 10 12  1  0  0  0
M  END
> <minimizedAffinity>
-6.10238

$$$$
