4DDK_0HN_A_401


 13 14  0  0  0  0  0  0  0  0999 V2000
  -14.0892   -0.7833    3.5258 C   0  0  0  0  0  0  0  0  0  0  0  0
  -15.4029   -0.7619    3.0139 C   0  0  0  0  0  0  0  0  0  0  0  0
  -15.6405   -0.5810    1.6740 C   0  0  0  0  0  0  0  0  0  0  0  0
  -16.8439   -0.5541    1.0154 O   0  0  0  0  0  0  0  0  0  0  0  0
  -16.5282   -0.4099   -0.4247 C   0  0  0  0  0  0  0  0  0  0  0  0
  -15.0660   -0.1979   -0.5249 O   0  0  0  0  0  0  0  0  0  0  0  0
  -14.6072   -0.4070    0.7799 C   0  0  0  0  0  0  0  0  0  0  0  0
  -13.3365   -0.3943    1.2313 C   0  0  0  0  0  0  0  0  0  0  0  0
  -13.0557   -0.5791    2.5878 C   0  0  0  0  0  0  0  0  0  0  0  0
  -12.5976   -1.2205    5.2935 O   0  0  0  0  0  0  0  0  0  0  0  0
  -13.7595   -0.9505    4.9080 C   0  0  0  0  0  0  0  0  0  0  0  0
  -14.6544   -0.8919    5.8026 O   0  0  0  0  0  0  0  0  0  0  0  0
  -15.5395   -0.6935    5.5676 H   0  0  0  0  0  0  0  0  0  0  0  0
 10 11  2  0  0  0
 11 12  1  0  0  0
 11  1  1  0  0  0
  2  1  2  0  0  0
  2  3  1  0  0  0
  1  9  1  0  0  0
  3  4  1  0  0  0
  3  7  2  0  0  0
  4  5  1  0  0  0
  9  8  2  0  0  0
  7  8  1  0  0  0
  7  6  1  0  0  0
  5  6  1  0  0  0
 12 13  1  0  0  0
M  END
> <minimizedAffinity>
-6.80041

$$$$
4DDK_0HN_A_401


 13 14  0  0  0  0  0  0  0  0999 V2000
  -14.6798   -0.5350    1.9275 C   0  0  0  0  0  0  0  0  0  0  0  0
  -13.2882   -0.7603    1.8955 C   0  0  0  0  0  0  0  0  0  0  0  0
  -12.5943   -1.0827    3.0351 C   0  0  0  0  0  0  0  0  0  0  0  0
  -11.2556   -1.3503    3.1738 O   0  0  0  0  0  0  0  0  0  0  0  0
  -11.0484   -1.7168    4.5940 C   0  0  0  0  0  0  0  0  0  0  0  0
  -12.3352   -1.4861    5.2896 O   0  0  0  0  0  0  0  0  0  0  0  0
  -13.2278   -1.1921    4.2534 C   0  0  0  0  0  0  0  0  0  0  0  0
  -14.5537   -0.9587    4.3331 C   0  0  0  0  0  0  0  0  0  0  0  0
  -15.2938   -0.6320    3.1936 C   0  0  0  0  0  0  0  0  0  0  0  0
  -15.0439   -0.2864   -0.3847 O   0  0  0  0  0  0  0  0  0  0  0  0
  -15.4708   -0.1803    0.7891 C   0  0  0  0  0  0  0  0  0  0  0  0
  -16.6264    0.3194    0.9293 O   0  0  0  0  0  0  0  0  0  0  0  0
  -16.9922    0.4208    1.7859 H   0  0  0  0  0  0  0  0  0  0  0  0
 10 11  2  0  0  0
 11 12  1  0  0  0
 11  1  1  0  0  0
  2  1  2  0  0  0
  2  3  1  0  0  0
  1  9  1  0  0  0
  3  4  1  0  0  0
  3  7  2  0  0  0
  4  5  1  0  0  0
  9  8  2  0  0  0
  7  8  1  0  0  0
  7  6  1  0  0  0
  5  6  1  0  0  0
 12 13  1  0  0  0
M  END
> <minimizedAffinity>
-6.55369

$$$$
4DDK_0HN_A_401


 13 14  0  0  0  0  0  0  0  0999 V2000
  -14.0981   -1.0191    3.4931 C   0  0  0  0  0  0  0  0  0  0  0  0
  -13.2079   -1.3791    2.4605 C   0  0  0  0  0  0  0  0  0  0  0  0
  -13.6179   -1.4197    1.1510 C   0  0  0  0  0  0  0  0  0  0  0  0
  -12.8823   -1.7274    0.0343 O   0  0  0  0  0  0  0  0  0  0  0  0
  -13.7862   -1.5423   -1.1246 C   0  0  0  0  0  0  0  0  0  0  0  0
  -15.1333   -1.2601   -0.5782 O   0  0  0  0  0  0  0  0  0  0  0  0
  -14.9140   -1.1174    0.7960 C   0  0  0  0  0  0  0  0  0  0  0  0
  -15.8047   -0.7938    1.7555 C   0  0  0  0  0  0  0  0  0  0  0  0
  -15.4229   -0.7383    3.0987 C   0  0  0  0  0  0  0  0  0  0  0  0
  -12.5857   -1.1697    5.2905 O   0  0  0  0  0  0  0  0  0  0  0  0
  -13.7532   -0.9685    4.8809 C   0  0  0  0  0  0  0  0  0  0  0  0
  -14.6393   -0.7763    5.7655 O   0  0  0  0  0  0  0  0  0  0  0  0
  -15.5281   -0.6212    5.5124 H   0  0  0  0  0  0  0  0  0  0  0  0
 10 11  2  0  0  0
 11 12  1  0  0  0
 11  1  1  0  0  0
  2  1  2  0  0  0
  2  3  1  0  0  0
  1  9  1  0  0  0
  3  4  1  0  0  0
  3  7  2  0  0  0
  4  5  1  0  0  0
  9  8  2  0  0  0
  7  8  1  0  0  0
  7  6  1  0  0  0
  5  6  1  0  0  0
 12 13  1  0  0  0
M  END
> <minimizedAffinity>
-6.51366

$$$$
4DDK_0HN_A_401


 13 14  0  0  0  0  0  0  0  0999 V2000
  -15.1270   -0.7721    2.0603 C   0  0  0  0  0  0  0  0  0  0  0  0
  -14.7981   -0.9239    3.4230 C   0  0  0  0  0  0  0  0  0  0  0  0
  -13.5000   -1.1232    3.8227 C   0  0  0  0  0  0  0  0  0  0  0  0
  -13.0107   -1.2688    5.0962 O   0  0  0  0  0  0  0  0  0  0  0  0
  -11.5388   -1.3754    4.9680 C   0  0  0  0  0  0  0  0  0  0  0  0
  -11.2371   -1.4387    3.5195 O   0  0  0  0  0  0  0  0  0  0  0  0
  -12.4709   -1.1890    2.9094 C   0  0  0  0  0  0  0  0  0  0  0  0
  -12.7453   -1.0752    1.5939 C   0  0  0  0  0  0  0  0  0  0  0  0
  -14.0540   -0.8678    1.1499 C   0  0  0  0  0  0  0  0  0  0  0  0
  -16.7442   -0.7145    0.3508 O   0  0  0  0  0  0  0  0  0  0  0  0
  -16.4544   -0.5774    1.5627 C   0  0  0  0  0  0  0  0  0  0  0  0
  -17.3873   -0.1936    2.3289 O   0  0  0  0  0  0  0  0  0  0  0  0
  -17.2233   -0.0754    3.2439 H   0  0  0  0  0  0  0  0  0  0  0  0
 10 11  2  0  0  0
 11 12  1  0  0  0
 11  1  1  0  0  0
  2  1  2  0  0  0
  2  3  1  0  0  0
  1  9  1  0  0  0
  3  4  1  0  0  0
  3  7  2  0  0  0
  4  5  1  0  0  0
  9  8  2  0  0  0
  7  8  1  0  0  0
  7  6  1  0  0  0
  5  6  1  0  0  0
 12 13  1  0  0  0
M  END
> <minimizedAffinity>
-6.50679

$$$$
4DDK_0HN_A_401


 13 14  0  0  0  0  0  0  0  0999 V2000
  -12.6267   -1.2668    3.9152 C   0  0  0  0  0  0  0  0  0  0  0  0
  -12.8422   -1.1003    2.5317 C   0  0  0  0  0  0  0  0  0  0  0  0
  -14.0938   -0.8340    2.0346 C   0  0  0  0  0  0  0  0  0  0  0  0
  -14.4695   -0.6270    0.7313 O   0  0  0  0  0  0  0  0  0  0  0  0
  -15.9145   -0.3024    0.7602 C   0  0  0  0  0  0  0  0  0  0  0  0
  -16.3701   -0.4940    2.1562 O   0  0  0  0  0  0  0  0  0  0  0  0
  -15.1870   -0.7258    2.8657 C   0  0  0  0  0  0  0  0  0  0  0  0
  -15.0295   -0.9042    4.1931 C   0  0  0  0  0  0  0  0  0  0  0  0
  -13.7700   -1.1728    4.7358 C   0  0  0  0  0  0  0  0  0  0  0  0
  -10.3842   -1.9785    3.8401 O   0  0  0  0  0  0  0  0  0  0  0  0
  -11.3587   -1.5612    4.5093 C   0  0  0  0  0  0  0  0  0  0  0  0
  -11.1888   -1.4686    5.7612 O   0  0  0  0  0  0  0  0  0  0  0  0
  -11.8859   -1.1619    6.3071 H   0  0  0  0  0  0  0  0  0  0  0  0
 10 11  2  0  0  0
 11 12  1  0  0  0
 11  1  1  0  0  0
  2  1  2  0  0  0
  2  3  1  0  0  0
  1  9  1  0  0  0
  3  4  1  0  0  0
  3  7  2  0  0  0
  4  5  1  0  0  0
  9  8  2  0  0  0
  7  8  1  0  0  0
  7  6  1  0  0  0
  5  6  1  0  0  0
 12 13  1  0  0  0
M  END
> <minimizedAffinity>
-6.35981

$$$$
4DDK_0HN_A_401


 13 14  0  0  0  0  0  0  0  0999 V2000
  -18.0972   -0.4826    0.3211 C   0  0  0  0  0  0  0  0  0  0  0  0
  -17.1427   -0.3286   -0.7052 C   0  0  0  0  0  0  0  0  0  0  0  0
  -15.8013   -0.4812   -0.4567 C   0  0  0  0  0  0  0  0  0  0  0  0
  -14.7528   -0.3861   -1.3367 O   0  0  0  0  0  0  0  0  0  0  0  0
  -13.5310   -0.7173   -0.5673 C   0  0  0  0  0  0  0  0  0  0  0  0
  -13.9393   -0.8536    0.8496 O   0  0  0  0  0  0  0  0  0  0  0  0
  -15.3357   -0.7836    0.8039 C   0  0  0  0  0  0  0  0  0  0  0  0
  -16.2130   -0.9133    1.8199 C   0  0  0  0  0  0  0  0  0  0  0  0
  -17.5861   -0.7689    1.6042 C   0  0  0  0  0  0  0  0  0  0  0  0
  -20.0278    0.7715   -0.1696 O   0  0  0  0  0  0  0  0  0  0  0  0
  -19.5086   -0.3247    0.1470 C   0  0  0  0  0  0  0  0  0  0  0  0
  -20.3037   -1.2854    0.3694 O   0  0  0  0  0  0  0  0  0  0  0  0
  -19.9670   -2.1262    0.6095 H   0  0  0  0  0  0  0  0  0  0  0  0
 10 11  2  0  0  0
 11 12  1  0  0  0
 11  1  1  0  0  0
  2  1  2  0  0  0
  2  3  1  0  0  0
  1  9  1  0  0  0
  3  4  1  0  0  0
  3  7  2  0  0  0
  4  5  1  0  0  0
  9  8  2  0  0  0
  7  8  1  0  0  0
  7  6  1  0  0  0
  5  6  1  0  0  0
 12 13  1  0  0  0
M  END
> <minimizedAffinity>
-6.11107

$$$$
4DDK_0HN_A_401


 13 14  0  0  0  0  0  0  0  0999 V2000
  -17.9065   -0.5746    0.6432 C   0  0  0  0  0  0  0  0  0  0  0  0
  -17.2441   -0.6981    1.8819 C   0  0  0  0  0  0  0  0  0  0  0  0
  -15.8735   -0.7064    1.9569 C   0  0  0  0  0  0  0  0  0  0  0  0
  -15.0791   -0.7982    3.0719 O   0  0  0  0  0  0  0  0  0  0  0  0
  -13.6804   -0.6797    2.5986 C   0  0  0  0  0  0  0  0  0  0  0  0
  -13.7268   -0.6723    1.1185 O   0  0  0  0  0  0  0  0  0  0  0  0
  -15.0931   -0.6010    0.8267 C   0  0  0  0  0  0  0  0  0  0  0  0
  -15.6863   -0.5076   -0.3807 C   0  0  0  0  0  0  0  0  0  0  0  0
  -17.0789   -0.4921   -0.4960 C   0  0  0  0  0  0  0  0  0  0  0  0
  -19.9505    0.4127    0.0201 O   0  0  0  0  0  0  0  0  0  0  0  0
  -19.3280   -0.5736    0.4797 C   0  0  0  0  0  0  0  0  0  0  0  0
  -20.0274   -1.5604    0.8558 O   0  0  0  0  0  0  0  0  0  0  0  0
  -19.6112   -2.3230    1.2070 H   0  0  0  0  0  0  0  0  0  0  0  0
 10 11  2  0  0  0
 11 12  1  0  0  0
 11  1  1  0  0  0
  2  1  2  0  0  0
  2  3  1  0  0  0
  1  9  1  0  0  0
  3  4  1  0  0  0
  3  7  2  0  0  0
  4  5  1  0  0  0
  9  8  2  0  0  0
  7  8  1  0  0  0
  7  6  1  0  0  0
  5  6  1  0  0  0
 12 13  1  0  0  0
M  END
> <minimizedAffinity>
-6.08938

$$$$
4DDK_0HN_A_401


 13 14  0  0  0  0  0  0  0  0999 V2000
  -16.7312   -0.3201    0.5145 C   0  0  0  0  0  0  0  0  0  0  0  0
  -17.3762    0.5365   -0.4012 C   0  0  0  0  0  0  0  0  0  0  0  0
  -18.7304    0.4601   -0.6128 C   0  0  0  0  0  0  0  0  0  0  0  0
  -19.5098    1.2236   -1.4449 O   0  0  0  0  0  0  0  0  0  0  0  0
  -20.9068    0.7796   -1.2316 C   0  0  0  0  0  0  0  0  0  0  0  0
  -20.8514   -0.3983   -0.3358 O   0  0  0  0  0  0  0  0  0  0  0  0
  -19.5095   -0.4589    0.0549 C   0  0  0  0  0  0  0  0  0  0  0  0
  -18.9285   -1.3148    0.9200 C   0  0  0  0  0  0  0  0  0  0  0  0
  -17.5534   -1.2643    1.1639 C   0  0  0  0  0  0  0  0  0  0  0  0
  -14.4698   -0.2475   -0.1349 O   0  0  0  0  0  0  0  0  0  0  0  0
  -15.3250   -0.3140    0.7792 C   0  0  0  0  0  0  0  0  0  0  0  0
  -14.8842   -0.4394    1.9601 O   0  0  0  0  0  0  0  0  0  0  0  0
  -15.4816   -0.4937    2.6800 H   0  0  0  0  0  0  0  0  0  0  0  0
 10 11  2  0  0  0
 11 12  1  0  0  0
 11  1  1  0  0  0
  2  1  2  0  0  0
  2  3  1  0  0  0
  1  9  1  0  0  0
  3  4  1  0  0  0
  3  7  2  0  0  0
  4  5  1  0  0  0
  9  8  2  0  0  0
  7  8  1  0  0  0
  7  6  1  0  0  0
  5  6  1  0  0  0
 12 13  1  0  0  0
M  END
> <minimizedAffinity>
-6.02280

$$$$
4DDK_0HN_A_401


 13 14  0  0  0  0  0  0  0  0999 V2000
  -14.7942   -0.7425    0.6265 C   0  0  0  0  0  0  0  0  0  0  0  0
  -15.4767   -0.7354    1.8603 C   0  0  0  0  0  0  0  0  0  0  0  0
  -14.7956   -0.8136    3.0496 C   0  0  0  0  0  0  0  0  0  0  0  0
  -15.2996   -0.7996    4.3257 O   0  0  0  0  0  0  0  0  0  0  0  0
  -14.1313   -0.8285    5.2360 C   0  0  0  0  0  0  0  0  0  0  0  0
  -12.9315   -1.0195    4.3893 O   0  0  0  0  0  0  0  0  0  0  0  0
  -13.4218   -0.9085    3.0839 C   0  0  0  0  0  0  0  0  0  0  0  0
  -12.7319   -0.9453    1.9257 C   0  0  0  0  0  0  0  0  0  0  0  0
  -13.3907   -0.8641    0.6960 C   0  0  0  0  0  0  0  0  0  0  0  0
  -14.9095   -0.1015   -1.6355 O   0  0  0  0  0  0  0  0  0  0  0  0
  -15.4308   -0.6805   -0.6534 C   0  0  0  0  0  0  0  0  0  0  0  0
  -16.5893   -1.1620   -0.8285 O   0  0  0  0  0  0  0  0  0  0  0  0
  -17.0236   -1.6049   -0.1262 H   0  0  0  0  0  0  0  0  0  0  0  0
 10 11  2  0  0  0
 11 12  1  0  0  0
 11  1  1  0  0  0
  2  1  2  0  0  0
  2  3  1  0  0  0
  1  9  1  0  0  0
  3  4  1  0  0  0
  3  7  2  0  0  0
  4  5  1  0  0  0
  9  8  2  0  0  0
  7  8  1  0  0  0
  7  6  1  0  0  0
  5  6  1  0  0  0
 12 13  1  0  0  0
M  END
> <minimizedAffinity>
-6.02163

$$$$
4DDK_0HN_A_401


 13 14  0  0  0  0  0  0  0  0999 V2000
  -13.7984   -1.0619    0.4089 C   0  0  0  0  0  0  0  0  0  0  0  0
  -12.9685   -1.0687    1.5488 C   0  0  0  0  0  0  0  0  0  0  0  0
  -13.4959   -0.9700    2.8123 C   0  0  0  0  0  0  0  0  0  0  0  0
  -12.8379   -0.9806    4.0164 O   0  0  0  0  0  0  0  0  0  0  0  0
  -13.8839   -0.9262    5.0638 C   0  0  0  0  0  0  0  0  0  0  0  0
  -15.1767   -0.7244    4.3702 O   0  0  0  0  0  0  0  0  0  0  0  0
  -14.8534   -0.8540    3.0153 C   0  0  0  0  0  0  0  0  0  0  0  0
  -15.6809   -0.8169    1.9511 C   0  0  0  0  0  0  0  0  0  0  0  0
  -15.1807   -0.9186    0.6502 C   0  0  0  0  0  0  0  0  0  0  0  0
  -12.5064   -2.0169   -1.3114 O   0  0  0  0  0  0  0  0  0  0  0  0
  -13.3261   -1.1446   -0.9392 C   0  0  0  0  0  0  0  0  0  0  0  0
  -13.6765   -0.2894   -1.8056 O   0  0  0  0  0  0  0  0  0  0  0  0
  -14.2871    0.3842   -1.5788 H   0  0  0  0  0  0  0  0  0  0  0  0
 10 11  2  0  0  0
 11 12  1  0  0  0
 11  1  1  0  0  0
  2  1  2  0  0  0
  2  3  1  0  0  0
  1  9  1  0  0  0
  3  4  1  0  0  0
  3  7  2  0  0  0
  4  5  1  0  0  0
  9  8  2  0  0  0
  7  8  1  0  0  0
  7  6  1  0  0  0
  5  6  1  0  0  0
 12 13  1  0  0  0
M  END
> <minimizedAffinity>
-5.95588

$$$$
