3ELC_F01_A_901


 23 24  0  0  0  0  0  0  0  0999 V2000
   32.9454    2.8388   42.1836 C   0  0  0  0  0  0  0  0  0  0  0  0
   33.2139    1.4503   41.8725 O   0  0  0  0  0  0  0  0  0  0  0  0
   31.9489    0.7699   41.7639 C   0  0  0  0  0  0  0  0  0  0  0  0
   31.0021    1.8250   41.2104 C   0  0  0  0  0  0  0  0  0  0  0  0
   29.6751    1.5015   41.5413 O   0  0  0  0  0  0  0  0  0  0  0  0
   31.4528    3.0804   41.9337 C   0  0  0  0  0  0  0  0  0  0  0  0
   30.7853    3.1691   43.1879 O   0  0  0  0  0  0  0  0  0  0  0  0
   29.5965    1.4031   42.5031 H   0  0  0  0  0  0  0  0  0  0  0  0
   30.9563    2.3651   43.7028 H   0  0  0  0  0  0  0  0  0  0  0  0
   33.3803    5.6212   42.1744 O   0  0  0  0  0  0  0  0  0  0  0  0
   34.0399    4.9533   41.3808 C   0  0  0  0  0  0  0  0  0  0  0  0
   34.9450    5.6125   40.5594 N   0  0  0  0  0  0  0  0  0  0  0  0
   35.6989    4.9189   39.6520 C   0  0  0  0  0  0  0  0  0  0  0  0
   36.5454    5.5846   38.8913 N   0  0  0  0  0  0  0  0  0  0  0  0
   35.5722    3.5512   39.5462 C   0  0  0  0  0  0  0  0  0  0  0  0
   36.3177    2.8979   38.6407 F   0  0  0  0  0  0  0  0  0  0  0  0
   34.6843    2.8549   40.3540 C   0  0  0  0  0  0  0  0  0  0  0  0
   33.8935    3.5545   41.2900 N   0  0  0  0  0  0  0  0  0  0  0  0
   36.6232    6.5620   38.9801 H   0  0  0  0  0  0  0  0  0  0  0  0
   37.0997    5.1043   38.2346 H   0  0  0  0  0  0  0  0  0  0  0  0
   32.0830   -0.3702   40.7338 C   0  0  0  0  0  0  0  0  0  0  0  0
   31.2692   -0.1124   39.5618 O   0  0  0  0  0  0  0  0  0  0  0  0
   30.3369   -0.0510   39.8226 H   0  0  0  0  0  0  0  0  0  0  0  0
 10 11  2  0  0  0
 11 12  1  0  0  0
 11 18  1  0  0  0
 12 13  2  0  0  0
 13 14  1  0  0  0
 13 15  1  0  0  0
 15 16  1  0  0  0
 15 17  2  0  0  0
 17 18  1  0  0  0
 18  1  1  0  0  0
  1  2  1  0  0  0
  1  6  1  0  0  0
  2  3  1  0  0  0
  3 21  1  0  0  0
  3  4  1  0  0  0
 21 22  1  0  0  0
  4  5  1  0  0  0
  4  6  1  0  0  0
  6  7  1  0  0  0
 14 19  1  0  0  0
 14 20  1  0  0  0
 22 23  1  0  0  0
  5  8  1  0  0  0
  7  9  1  0  0  0
M  END
> <minimizedAffinity>
-7.04388

$$$$
3ELC_F01_A_901


 23 24  0  0  0  0  0  0  0  0999 V2000
   33.9104    1.9925   41.3273 C   0  0  0  0  0  0  0  0  0  0  0  0
   34.5558    3.1006   41.9999 O   0  0  0  0  0  0  0  0  0  0  0  0
   35.6902    3.4982   41.2060 C   0  0  0  0  0  0  0  0  0  0  0  0
   35.2596    3.2228   39.7726 C   0  0  0  0  0  0  0  0  0  0  0  0
   36.3900    3.0513   38.9554 O   0  0  0  0  0  0  0  0  0  0  0  0
   34.4838    1.9257   39.9077 C   0  0  0  0  0  0  0  0  0  0  0  0
   35.3838    0.8258   39.8268 O   0  0  0  0  0  0  0  0  0  0  0  0
   36.9455    2.3429   39.3165 H   0  0  0  0  0  0  0  0  0  0  0  0
   36.0694    0.9183   40.5067 H   0  0  0  0  0  0  0  0  0  0  0  0
   31.8171    0.1449   41.6952 O   0  0  0  0  0  0  0  0  0  0  0  0
   31.5064    1.3330   41.6420 C   0  0  0  0  0  0  0  0  0  0  0  0
   30.1657    1.6689   41.7771 N   0  0  0  0  0  0  0  0  0  0  0  0
   29.7632    2.9755   41.7174 C   0  0  0  0  0  0  0  0  0  0  0  0
   28.4803    3.2497   41.8497 N   0  0  0  0  0  0  0  0  0  0  0  0
   30.6886    3.9782   41.5275 C   0  0  0  0  0  0  0  0  0  0  0  0
   30.2641    5.2504   41.4637 F   0  0  0  0  0  0  0  0  0  0  0  0
   32.0384    3.6843   41.3956 C   0  0  0  0  0  0  0  0  0  0  0  0
   32.4706    2.3421   41.4471 N   0  0  0  0  0  0  0  0  0  0  0  0
   27.8326    2.5208   41.9848 H   0  0  0  0  0  0  0  0  0  0  0  0
   28.1702    4.1834   41.8134 H   0  0  0  0  0  0  0  0  0  0  0  0
   35.9120    5.0148   41.3781 C   0  0  0  0  0  0  0  0  0  0  0  0
   35.6322    5.7258   40.1457 O   0  0  0  0  0  0  0  0  0  0  0  0
   36.2293    5.4119   39.4487 H   0  0  0  0  0  0  0  0  0  0  0  0
 10 11  2  0  0  0
 11 12  1  0  0  0
 11 18  1  0  0  0
 12 13  2  0  0  0
 13 14  1  0  0  0
 13 15  1  0  0  0
 15 16  1  0  0  0
 15 17  2  0  0  0
 17 18  1  0  0  0
 18  1  1  0  0  0
  1  2  1  0  0  0
  1  6  1  0  0  0
  2  3  1  0  0  0
  3 21  1  0  0  0
  3  4  1  0  0  0
 21 22  1  0  0  0
  4  5  1  0  0  0
  4  6  1  0  0  0
  6  7  1  0  0  0
 14 19  1  0  0  0
 14 20  1  0  0  0
 22 23  1  0  0  0
  5  8  1  0  0  0
  7  9  1  0  0  0
M  END
> <minimizedAffinity>
-6.65331

$$$$
3ELC_F01_A_901


 23 24  0  0  0  0  0  0  0  0999 V2000
   35.1166    2.8303   39.8258 C   0  0  0  0  0  0  0  0  0  0  0  0
   36.0787    2.8044   40.9078 O   0  0  0  0  0  0  0  0  0  0  0  0
   37.0579    3.8295   40.6521 C   0  0  0  0  0  0  0  0  0  0  0  0
   36.2762    4.9263   39.9436 C   0  0  0  0  0  0  0  0  0  0  0  0
   37.1475    5.7204   39.1785 O   0  0  0  0  0  0  0  0  0  0  0  0
   35.3372    4.1348   39.0524 C   0  0  0  0  0  0  0  0  0  0  0  0
   35.9911    3.8358   37.8237 O   0  0  0  0  0  0  0  0  0  0  0  0
   37.6381    5.1577   38.5592 H   0  0  0  0  0  0  0  0  0  0  0  0
   36.8168    3.3600   38.0044 H   0  0  0  0  0  0  0  0  0  0  0  0
   33.8690    0.3907   40.4758 O   0  0  0  0  0  0  0  0  0  0  0  0
   33.2965    1.4191   40.8301 C   0  0  0  0  0  0  0  0  0  0  0  0
   32.0998    1.2998   41.5246 N   0  0  0  0  0  0  0  0  0  0  0  0
   31.4164    2.4120   41.9355 C   0  0  0  0  0  0  0  0  0  0  0  0
   30.2836    2.2529   42.5912 N   0  0  0  0  0  0  0  0  0  0  0  0
   31.9129    3.6690   41.6687 C   0  0  0  0  0  0  0  0  0  0  0  0
   31.2165    4.7423   42.0756 F   0  0  0  0  0  0  0  0  0  0  0  0
   33.1091    3.8303   40.9840 C   0  0  0  0  0  0  0  0  0  0  0  0
   33.8234    2.6950   40.5462 N   0  0  0  0  0  0  0  0  0  0  0  0
   29.9432    1.3472   42.7733 H   0  0  0  0  0  0  0  0  0  0  0  0
   29.7782    3.0398   42.8987 H   0  0  0  0  0  0  0  0  0  0  0  0
   37.5726    4.3744   42.0001 C   0  0  0  0  0  0  0  0  0  0  0  0
   38.5987    5.3790   41.7988 O   0  0  0  0  0  0  0  0  0  0  0  0
   39.3493    4.9846   41.3277 H   0  0  0  0  0  0  0  0  0  0  0  0
 10 11  2  0  0  0
 11 12  1  0  0  0
 11 18  1  0  0  0
 12 13  2  0  0  0
 13 14  1  0  0  0
 13 15  1  0  0  0
 15 16  1  0  0  0
 15 17  2  0  0  0
 17 18  1  0  0  0
 18  1  1  0  0  0
  1  2  1  0  0  0
  1  6  1  0  0  0
  2  3  1  0  0  0
  3 21  1  0  0  0
  3  4  1  0  0  0
 21 22  1  0  0  0
  4  5  1  0  0  0
  4  6  1  0  0  0
  6  7  1  0  0  0
 14 19  1  0  0  0
 14 20  1  0  0  0
 22 23  1  0  0  0
  5  8  1  0  0  0
  7  9  1  0  0  0
M  END
> <minimizedAffinity>
-6.62460

$$$$
3ELC_F01_A_901


 23 24  0  0  0  0  0  0  0  0999 V2000
   33.6504    2.7417   41.8389 C   0  0  0  0  0  0  0  0  0  0  0  0
   32.4471    2.3219   42.5265 O   0  0  0  0  0  0  0  0  0  0  0  0
   31.4869    3.3911   42.4280 C   0  0  0  0  0  0  0  0  0  0  0  0
   31.7779    4.0332   41.0792 C   0  0  0  0  0  0  0  0  0  0  0  0
   31.3174    5.3609   41.0693 O   0  0  0  0  0  0  0  0  0  0  0  0
   33.2930    3.9821   41.0130 C   0  0  0  0  0  0  0  0  0  0  0  0
   33.8335    5.1325   41.6540 O   0  0  0  0  0  0  0  0  0  0  0  0
   31.7203    5.8484   41.8048 H   0  0  0  0  0  0  0  0  0  0  0  0
   33.5053    5.1788   42.5656 H   0  0  0  0  0  0  0  0  0  0  0  0
   36.2774    2.0077   41.1385 O   0  0  0  0  0  0  0  0  0  0  0  0
   35.3769    1.2460   40.7924 C   0  0  0  0  0  0  0  0  0  0  0  0
   35.7211    0.0915   40.1016 N   0  0  0  0  0  0  0  0  0  0  0  0
   34.7580   -0.7871   39.6853 C   0  0  0  0  0  0  0  0  0  0  0  0
   35.1290   -1.8705   39.0316 N   0  0  0  0  0  0  0  0  0  0  0  0
   33.4298   -0.5383   39.9530 C   0  0  0  0  0  0  0  0  0  0  0  0
   32.5058   -1.4130   39.5244 F   0  0  0  0  0  0  0  0  0  0  0  0
   33.0456    0.6003   40.6472 C   0  0  0  0  0  0  0  0  0  0  0  0
   34.0244    1.5210   41.0776 N   0  0  0  0  0  0  0  0  0  0  0  0
   36.0826   -2.0327   38.8487 H   0  0  0  0  0  0  0  0  0  0  0  0
   34.4523   -2.5171   38.7264 H   0  0  0  0  0  0  0  0  0  0  0  0
   30.0685    2.7860   42.3971 C   0  0  0  0  0  0  0  0  0  0  0  0
   29.4765    2.9117   41.0795 O   0  0  0  0  0  0  0  0  0  0  0  0
   29.4081    3.8502   40.8440 H   0  0  0  0  0  0  0  0  0  0  0  0
 10 11  2  0  0  0
 11 12  1  0  0  0
 11 18  1  0  0  0
 12 13  2  0  0  0
 13 14  1  0  0  0
 13 15  1  0  0  0
 15 16  1  0  0  0
 15 17  2  0  0  0
 17 18  1  0  0  0
 18  1  1  0  0  0
  1  2  1  0  0  0
  1  6  1  0  0  0
  2  3  1  0  0  0
  3 21  1  0  0  0
  3  4  1  0  0  0
 21 22  1  0  0  0
  4  5  1  0  0  0
  4  6  1  0  0  0
  6  7  1  0  0  0
 14 19  1  0  0  0
 14 20  1  0  0  0
 22 23  1  0  0  0
  5  8  1  0  0  0
  7  9  1  0  0  0
M  END
> <minimizedAffinity>
-6.31260

$$$$
3ELC_F01_A_901


 23 24  0  0  0  0  0  0  0  0999 V2000
   34.6594    2.0644   40.1039 C   0  0  0  0  0  0  0  0  0  0  0  0
   35.6365    2.9164   39.4588 O   0  0  0  0  0  0  0  0  0  0  0  0
   35.2743    4.2846   39.7267 C   0  0  0  0  0  0  0  0  0  0  0  0
   34.6427    4.2411   41.1107 C   0  0  0  0  0  0  0  0  0  0  0  0
   33.7866    5.3420   41.2835 O   0  0  0  0  0  0  0  0  0  0  0  0
   33.8585    2.9426   41.0714 C   0  0  0  0  0  0  0  0  0  0  0  0
   32.5711    3.1844   40.5141 O   0  0  0  0  0  0  0  0  0  0  0  0
   33.1237    5.3504   40.5753 H   0  0  0  0  0  0  0  0  0  0  0  0
   32.6688    3.5832   39.6353 H   0  0  0  0  0  0  0  0  0  0  0  0
   34.6970   -0.6409   39.3226 O   0  0  0  0  0  0  0  0  0  0  0  0
   35.4561   -0.3150   40.2329 C   0  0  0  0  0  0  0  0  0  0  0  0
   36.2712   -1.2911   40.7909 N   0  0  0  0  0  0  0  0  0  0  0  0
   37.1289   -0.9852   41.8124 C   0  0  0  0  0  0  0  0  0  0  0  0
   37.8842   -1.9428   42.3134 N   0  0  0  0  0  0  0  0  0  0  0  0
   37.1983    0.3023   42.2976 C   0  0  0  0  0  0  0  0  0  0  0  0
   38.0421    0.5716   43.3066 F   0  0  0  0  0  0  0  0  0  0  0  0
   36.4058    1.3076   41.7619 C   0  0  0  0  0  0  0  0  0  0  0  0
   35.5102    1.0087   40.7133 N   0  0  0  0  0  0  0  0  0  0  0  0
   37.8218   -2.8575   41.9547 H   0  0  0  0  0  0  0  0  0  0  0  0
   38.5105   -1.7431   43.0463 H   0  0  0  0  0  0  0  0  0  0  0  0
   36.5583    5.1368   39.7905 C   0  0  0  0  0  0  0  0  0  0  0  0
   37.7279    4.3033   39.9902 O   0  0  0  0  0  0  0  0  0  0  0  0
   37.6436    3.8235   40.8290 H   0  0  0  0  0  0  0  0  0  0  0  0
 10 11  2  0  0  0
 11 12  1  0  0  0
 11 18  1  0  0  0
 12 13  2  0  0  0
 13 14  1  0  0  0
 13 15  1  0  0  0
 15 16  1  0  0  0
 15 17  2  0  0  0
 17 18  1  0  0  0
 18  1  1  0  0  0
  1  2  1  0  0  0
  1  6  1  0  0  0
  2  3  1  0  0  0
  3 21  1  0  0  0
  3  4  1  0  0  0
 21 22  1  0  0  0
  4  5  1  0  0  0
  4  6  1  0  0  0
  6  7  1  0  0  0
 14 19  1  0  0  0
 14 20  1  0  0  0
 22 23  1  0  0  0
  5  8  1  0  0  0
  7  9  1  0  0  0
M  END
> <minimizedAffinity>
-6.14517

$$$$
3ELC_F01_A_901


 23 24  0  0  0  0  0  0  0  0999 V2000
   33.3340    1.8051   41.7267 C   0  0  0  0  0  0  0  0  0  0  0  0
   32.2829    2.2864   40.8546 O   0  0  0  0  0  0  0  0  0  0  0  0
   31.0839    2.4213   41.6416 C   0  0  0  0  0  0  0  0  0  0  0  0
   31.5853    2.8088   43.0252 C   0  0  0  0  0  0  0  0  0  0  0  0
   30.6306    2.4634   43.9969 O   0  0  0  0  0  0  0  0  0  0  0  0
   32.8373    1.9635   43.1678 C   0  0  0  0  0  0  0  0  0  0  0  0
   32.4867    0.6811   43.6767 O   0  0  0  0  0  0  0  0  0  0  0  0
   30.4281    1.5172   43.9293 H   0  0  0  0  0  0  0  0  0  0  0  0
   31.8289    0.2707   43.0939 H   0  0  0  0  0  0  0  0  0  0  0  0
   36.0342    1.2167   42.2683 O   0  0  0  0  0  0  0  0  0  0  0  0
   35.8057    2.2484   41.6403 C   0  0  0  0  0  0  0  0  0  0  0  0
   36.8834    3.0282   41.2417 N   0  0  0  0  0  0  0  0  0  0  0  0
   36.6859    4.1908   40.5474 C   0  0  0  0  0  0  0  0  0  0  0  0
   37.7374    4.9011   40.1893 N   0  0  0  0  0  0  0  0  0  0  0  0
   35.4096    4.6003   40.2293 C   0  0  0  0  0  0  0  0  0  0  0  0
   35.2452    5.7500   39.5556 F   0  0  0  0  0  0  0  0  0  0  0  0
   34.3068    3.8453   40.6030 C   0  0  0  0  0  0  0  0  0  0  0  0
   34.4912    2.6476   41.3258 N   0  0  0  0  0  0  0  0  0  0  0  0
   38.6425    4.5937   40.4250 H   0  0  0  0  0  0  0  0  0  0  0  0
   37.6175    5.7388   39.6863 H   0  0  0  0  0  0  0  0  0  0  0  0
   30.2422    3.5817   41.0725 C   0  0  0  0  0  0  0  0  0  0  0  0
   30.0519    3.4354   39.6425 O   0  0  0  0  0  0  0  0  0  0  0  0
   30.9145    3.4441   39.1990 H   0  0  0  0  0  0  0  0  0  0  0  0
 10 11  2  0  0  0
 11 12  1  0  0  0
 11 18  1  0  0  0
 12 13  2  0  0  0
 13 14  1  0  0  0
 13 15  1  0  0  0
 15 16  1  0  0  0
 15 17  2  0  0  0
 17 18  1  0  0  0
 18  1  1  0  0  0
  1  2  1  0  0  0
  1  6  1  0  0  0
  2  3  1  0  0  0
  3 21  1  0  0  0
  3  4  1  0  0  0
 21 22  1  0  0  0
  4  5  1  0  0  0
  4  6  1  0  0  0
  6  7  1  0  0  0
 14 19  1  0  0  0
 14 20  1  0  0  0
 22 23  1  0  0  0
  5  8  1  0  0  0
  7  9  1  0  0  0
M  END
> <minimizedAffinity>
-6.08438

$$$$
3ELC_F01_A_901


 23 24  0  0  0  0  0  0  0  0999 V2000
   31.2251    2.0422   41.3645 C   0  0  0  0  0  0  0  0  0  0  0  0
   32.6212    2.4250   41.3972 O   0  0  0  0  0  0  0  0  0  0  0  0
   32.7165    3.7859   40.9346 C   0  0  0  0  0  0  0  0  0  0  0  0
   31.4202    4.4322   41.4016 C   0  0  0  0  0  0  0  0  0  0  0  0
   31.1252    5.5501   40.6027 O   0  0  0  0  0  0  0  0  0  0  0  0
   30.4059    3.3248   41.1839 C   0  0  0  0  0  0  0  0  0  0  0  0
   29.9264    3.3792   39.8446 O   0  0  0  0  0  0  0  0  0  0  0  0
   31.0891    5.2815   39.6713 H   0  0  0  0  0  0  0  0  0  0  0  0
   30.6749    3.3199   39.2305 H   0  0  0  0  0  0  0  0  0  0  0  0
   32.0795   -0.5917   41.8774 O   0  0  0  0  0  0  0  0  0  0  0  0
   31.5395    0.0076   42.8049 C   0  0  0  0  0  0  0  0  0  0  0  0
   31.4045   -0.6479   44.0216 N   0  0  0  0  0  0  0  0  0  0  0  0
   30.8037   -0.0307   45.0851 C   0  0  0  0  0  0  0  0  0  0  0  0
   30.6955   -0.6901   46.2217 N   0  0  0  0  0  0  0  0  0  0  0  0
   30.3287    1.2566   44.9620 C   0  0  0  0  0  0  0  0  0  0  0  0
   29.7354    1.8338   46.0191 F   0  0  0  0  0  0  0  0  0  0  0  0
   30.4512    1.9482   43.7652 C   0  0  0  0  0  0  0  0  0  0  0  0
   31.0611    1.3249   42.6560 N   0  0  0  0  0  0  0  0  0  0  0  0
   31.0405   -1.6095   46.2921 H   0  0  0  0  0  0  0  0  0  0  0  0
   30.2698   -0.2631   47.0000 H   0  0  0  0  0  0  0  0  0  0  0  0
   33.9008    4.4723   41.6454 C   0  0  0  0  0  0  0  0  0  0  0  0
   33.5264    5.7856   42.1327 O   0  0  0  0  0  0  0  0  0  0  0  0
   33.2599    6.3438   41.3855 H   0  0  0  0  0  0  0  0  0  0  0  0
 10 11  2  0  0  0
 11 12  1  0  0  0
 11 18  1  0  0  0
 12 13  2  0  0  0
 13 14  1  0  0  0
 13 15  1  0  0  0
 15 16  1  0  0  0
 15 17  2  0  0  0
 17 18  1  0  0  0
 18  1  1  0  0  0
  1  2  1  0  0  0
  1  6  1  0  0  0
  2  3  1  0  0  0
  3 21  1  0  0  0
  3  4  1  0  0  0
 21 22  1  0  0  0
  4  5  1  0  0  0
  4  6  1  0  0  0
  6  7  1  0  0  0
 14 19  1  0  0  0
 14 20  1  0  0  0
 22 23  1  0  0  0
  5  8  1  0  0  0
  7  9  1  0  0  0
M  END
> <minimizedAffinity>
-6.01120

$$$$
3ELC_F01_A_901


 23 24  0  0  0  0  0  0  0  0999 V2000
   33.6300    3.8227   40.3450 C   0  0  0  0  0  0  0  0  0  0  0  0
   34.1951    2.5140   40.0906 O   0  0  0  0  0  0  0  0  0  0  0  0
   35.5652    2.5310   40.5352 C   0  0  0  0  0  0  0  0  0  0  0  0
   35.5616    3.4804   41.7246 C   0  0  0  0  0  0  0  0  0  0  0  0
   36.8497    4.0053   41.9248 O   0  0  0  0  0  0  0  0  0  0  0  0
   34.5966    4.5622   41.2764 C   0  0  0  0  0  0  0  0  0  0  0  0
   35.3019    5.5423   40.5225 O   0  0  0  0  0  0  0  0  0  0  0  0
   37.1539    4.4352   41.1102 H   0  0  0  0  0  0  0  0  0  0  0  0
   35.7500    5.1151   39.7758 H   0  0  0  0  0  0  0  0  0  0  0  0
   31.6112    5.6917   40.9465 O   0  0  0  0  0  0  0  0  0  0  0  0
   31.3524    4.5082   41.1548 C   0  0  0  0  0  0  0  0  0  0  0  0
   30.0967    4.1874   41.6535 N   0  0  0  0  0  0  0  0  0  0  0  0
   29.7587    2.8866   41.9114 C   0  0  0  0  0  0  0  0  0  0  0  0
   28.5560    2.6268   42.3852 N   0  0  0  0  0  0  0  0  0  0  0  0
   30.6626    1.8748   41.6727 C   0  0  0  0  0  0  0  0  0  0  0  0
   30.3070    0.6088   41.9438 F   0  0  0  0  0  0  0  0  0  0  0  0
   31.9247    2.1534   41.1677 C   0  0  0  0  0  0  0  0  0  0  0  0
   32.2931    3.4895   40.9029 N   0  0  0  0  0  0  0  0  0  0  0  0
   27.9224    3.3621   42.5500 H   0  0  0  0  0  0  0  0  0  0  0  0
   28.2915    1.6975   42.5742 H   0  0  0  0  0  0  0  0  0  0  0  0
   35.9480    1.1192   41.0245 C   0  0  0  0  0  0  0  0  0  0  0  0
   36.4060    1.1504   42.3999 O   0  0  0  0  0  0  0  0  0  0  0  0
   37.1920    1.7149   42.4662 H   0  0  0  0  0  0  0  0  0  0  0  0
 10 11  2  0  0  0
 11 12  1  0  0  0
 11 18  1  0  0  0
 12 13  2  0  0  0
 13 14  1  0  0  0
 13 15  1  0  0  0
 15 16  1  0  0  0
 15 17  2  0  0  0
 17 18  1  0  0  0
 18  1  1  0  0  0
  1  2  1  0  0  0
  1  6  1  0  0  0
  2  3  1  0  0  0
  3 21  1  0  0  0
  3  4  1  0  0  0
 21 22  1  0  0  0
  4  5  1  0  0  0
  4  6  1  0  0  0
  6  7  1  0  0  0
 14 19  1  0  0  0
 14 20  1  0  0  0
 22 23  1  0  0  0
  5  8  1  0  0  0
  7  9  1  0  0  0
M  END
> <minimizedAffinity>
-5.99794

$$$$
3ELC_F01_A_901


 23 24  0  0  0  0  0  0  0  0999 V2000
   35.1073    3.5390   41.2226 C   0  0  0  0  0  0  0  0  0  0  0  0
   34.6861    4.4056   40.1416 O   0  0  0  0  0  0  0  0  0  0  0  0
   35.8242    5.1899   39.7360 C   0  0  0  0  0  0  0  0  0  0  0  0
   37.0146    4.2699   39.9659 C   0  0  0  0  0  0  0  0  0  0  0  0
   38.1855    5.0300   40.1284 O   0  0  0  0  0  0  0  0  0  0  0  0
   36.6391    3.5660   41.2567 C   0  0  0  0  0  0  0  0  0  0  0  0
   37.0604    4.3540   42.3649 O   0  0  0  0  0  0  0  0  0  0  0  0
   38.0623    5.6626   40.8533 H   0  0  0  0  0  0  0  0  0  0  0  0
   36.6687    5.2390   42.2998 H   0  0  0  0  0  0  0  0  0  0  0  0
   32.3700    2.9386   41.5010 O   0  0  0  0  0  0  0  0  0  0  0  0
   33.0867    2.0580   41.0299 C   0  0  0  0  0  0  0  0  0  0  0  0
   32.4969    0.8547   40.6655 N   0  0  0  0  0  0  0  0  0  0  0  0
   33.2492   -0.1626   40.1439 C   0  0  0  0  0  0  0  0  0  0  0  0
   32.6487   -1.2885   39.8122 N   0  0  0  0  0  0  0  0  0  0  0  0
   34.6060   -0.0019   39.9680 C   0  0  0  0  0  0  0  0  0  0  0  0
   35.3206   -1.0202   39.4628 F   0  0  0  0  0  0  0  0  0  0  0  0
   35.2317    1.1878   40.3127 C   0  0  0  0  0  0  0  0  0  0  0  0
   34.4730    2.2448   40.8588 N   0  0  0  0  0  0  0  0  0  0  0  0
   31.6780   -1.3863   39.9447 H   0  0  0  0  0  0  0  0  0  0  0  0
   33.1709   -2.0315   39.4321 H   0  0  0  0  0  0  0  0  0  0  0  0
   35.7100    5.4909   38.2275 C   0  0  0  0  0  0  0  0  0  0  0  0
   35.9421    4.2967   37.4385 O   0  0  0  0  0  0  0  0  0  0  0  0
   36.8365    3.9635   37.6117 H   0  0  0  0  0  0  0  0  0  0  0  0
 10 11  2  0  0  0
 11 12  1  0  0  0
 11 18  1  0  0  0
 12 13  2  0  0  0
 13 14  1  0  0  0
 13 15  1  0  0  0
 15 16  1  0  0  0
 15 17  2  0  0  0
 17 18  1  0  0  0
 18  1  1  0  0  0
  1  2  1  0  0  0
  1  6  1  0  0  0
  2  3  1  0  0  0
  3 21  1  0  0  0
  3  4  1  0  0  0
 21 22  1  0  0  0
  4  5  1  0  0  0
  4  6  1  0  0  0
  6  7  1  0  0  0
 14 19  1  0  0  0
 14 20  1  0  0  0
 22 23  1  0  0  0
  5  8  1  0  0  0
  7  9  1  0  0  0
M  END
> <minimizedAffinity>
-5.99220

$$$$
3ELC_F01_A_901


 23 24  0  0  0  0  0  0  0  0999 V2000
   34.9117    1.9036   41.6631 C   0  0  0  0  0  0  0  0  0  0  0  0
   33.5479    2.2965   41.9503 O   0  0  0  0  0  0  0  0  0  0  0  0
   33.4453    3.7182   41.7423 C   0  0  0  0  0  0  0  0  0  0  0  0
   34.4239    4.0033   40.6122 C   0  0  0  0  0  0  0  0  0  0  0  0
   34.8276    5.3488   40.6536 O   0  0  0  0  0  0  0  0  0  0  0  0
   35.5806    3.0776   40.9401 C   0  0  0  0  0  0  0  0  0  0  0  0
   36.4665    3.7295   41.8439 O   0  0  0  0  0  0  0  0  0  0  0  0
   35.2030    5.5470   41.5258 H   0  0  0  0  0  0  0  0  0  0  0  0
   35.9771    4.0032   42.6354 H   0  0  0  0  0  0  0  0  0  0  0  0
   36.8742   -0.0779   41.2717 O   0  0  0  0  0  0  0  0  0  0  0  0
   35.7759   -0.2742   40.7555 C   0  0  0  0  0  0  0  0  0  0  0  0
   35.5866   -1.4480   40.0381 N   0  0  0  0  0  0  0  0  0  0  0  0
   34.3866   -1.7133   39.4360 C   0  0  0  0  0  0  0  0  0  0  0  0
   34.2506   -2.8395   38.7639 N   0  0  0  0  0  0  0  0  0  0  0  0
   33.3455   -0.8173   39.5401 C   0  0  0  0  0  0  0  0  0  0  0  0
   32.1825   -1.0993   38.9314 F   0  0  0  0  0  0  0  0  0  0  0  0
   33.4923    0.3634   40.2544 C   0  0  0  0  0  0  0  0  0  0  0  0
   34.7249    0.6569   40.8753 N   0  0  0  0  0  0  0  0  0  0  0  0
   35.0051   -3.4686   38.6997 H   0  0  0  0  0  0  0  0  0  0  0  0
   33.3945   -3.0512   38.3263 H   0  0  0  0  0  0  0  0  0  0  0  0
   32.0176    4.0499   41.2621 C   0  0  0  0  0  0  0  0  0  0  0  0
   31.8355    5.4811   41.1176 O   0  0  0  0  0  0  0  0  0  0  0  0
   31.9719    5.9127   41.9755 H   0  0  0  0  0  0  0  0  0  0  0  0
 10 11  2  0  0  0
 11 12  1  0  0  0
 11 18  1  0  0  0
 12 13  2  0  0  0
 13 14  1  0  0  0
 13 15  1  0  0  0
 15 16  1  0  0  0
 15 17  2  0  0  0
 17 18  1  0  0  0
 18  1  1  0  0  0
  1  2  1  0  0  0
  1  6  1  0  0  0
  2  3  1  0  0  0
  3 21  1  0  0  0
  3  4  1  0  0  0
 21 22  1  0  0  0
  4  5  1  0  0  0
  4  6  1  0  0  0
  6  7  1  0  0  0
 14 19  1  0  0  0
 14 20  1  0  0  0
 22 23  1  0  0  0
  5  8  1  0  0  0
  7  9  1  0  0  0
M  END
> <minimizedAffinity>
-5.93713

$$$$
