1W4O_UA3_A_1125


 26 27  0  0  0  0  0  0  0  0999 V2000
   39.0456   -0.6304   12.2597 C   0  0  0  0  0  0  0  0  0  0  0  0
   38.8713   -1.9455   11.7422 O   0  0  0  0  0  0  0  0  0  0  0  0
   38.1223    0.2338   12.8027 C   0  0  0  0  0  0  0  0  0  0  0  0
   36.9989   -1.0757   13.0620 C   0  0  0  0  0  0  0  0  0  0  0  0
   37.1911   -1.6731   14.5804 O   0  0  0  0  0  0  0  0  0  0  0  0
   37.3169   -1.8887   11.6192 C   0  0  0  0  0  0  0  0  0  0  0  0
   38.1303   -1.8569   14.7391 H   0  0  0  0  0  0  0  0  0  0  0  0
   36.6648   -3.1152   11.8228 N   0  0  0  0  0  0  0  0  0  0  0  0
   35.3327   -3.2120   11.3243 C   0  0  0  0  0  0  0  0  0  0  0  0
   34.8083   -2.3235   10.7545 O   0  0  0  0  0  0  0  0  0  0  0  0
   34.7368   -4.4550   11.5802 N   0  0  0  0  0  0  0  0  0  0  0  0
   35.2943   -5.5645   12.2548 C   0  0  0  0  0  0  0  0  0  0  0  0
   34.6138   -6.5586   12.3771 O   0  0  0  0  0  0  0  0  0  0  0  0
   36.6530   -5.3696   12.7335 C   0  0  0  0  0  0  0  0  0  0  0  0
   37.2816   -4.2006   12.5166 C   0  0  0  0  0  0  0  0  0  0  0  0
   33.8166   -4.5689   11.2491 H   0  0  0  0  0  0  0  0  0  0  0  0
   40.6766    1.2020   12.6922 O   0  0  0  0  0  0  0  0  0  0  0  0
   40.3249   -0.3140   12.4767 C   0  0  0  0  0  0  0  0  0  0  0  0
   41.6310    1.2949   12.8385 H   0  0  0  0  0  0  0  0  0  0  0  0
   37.3763    1.4682   12.2639 O   0  0  0  0  0  0  0  0  0  0  0  0
   35.4086    2.0796   13.6377 O   0  0  0  0  0  0  0  0  0  0  0  0
   36.7547    2.6433   12.9742 P   0  0  0  0  0  0  0  0  0  0  0  0
   36.5125    3.7420   11.9814 O   0  0  0  0  0  0  0  0  0  0  0  0
   37.6777    3.1022   14.0711 O   0  0  0  0  0  0  0  0  0  0  0  0
   34.8049    1.7804   12.9400 H   0  0  0  0  0  0  0  0  0  0  0  0
   37.8191    2.3768   14.6993 H   0  0  0  0  0  0  0  0  0  0  0  0
  8  9  1  0  0  0
  8 15  1  0  0  0
  8  6  1  0  0  0
  9 10  2  0  0  0
  9 11  1  0  0  0
 11 12  1  0  0  0
 12 13  2  0  0  0
 12 14  1  0  0  0
 14 15  2  0  0  0
 17 18  1  0  0  0
 18  1  1  0  0  0
  1  2  1  0  0  0
  1  3  1  0  0  0
  2  6  1  0  0  0
  3 20  1  0  0  0
  3  4  1  0  0  0
 20 22  1  0  0  0
  4  5  1  0  0  0
  4  6  1  0  0  0
 21 22  1  0  0  0
 22 23  2  0  0  0
 22 24  1  0  0  0
 11 16  1  0  0  0
 17 19  1  0  0  0
  5  7  1  0  0  0
 21 25  1  0  0  0
 24 26  1  0  0  0
M  END
> <minimizedAffinity>
-7.38747

$$$$
1W4O_UA3_A_1125


 26 27  0  0  0  0  0  0  0  0999 V2000
   36.2009   -1.0889   11.8908 C   0  0  0  0  0  0  0  0  0  0  0  0
   36.3819   -2.0459   12.9296 O   0  0  0  0  0  0  0  0  0  0  0  0
   37.0479   -0.1002   11.4444 C   0  0  0  0  0  0  0  0  0  0  0  0
   38.4107   -0.8749   12.2103 C   0  0  0  0  0  0  0  0  0  0  0  0
   39.1561   -1.8675   11.1338 O   0  0  0  0  0  0  0  0  0  0  0  0
   37.5994   -1.3473   13.6111 C   0  0  0  0  0  0  0  0  0  0  0  0
   38.4972   -2.4428   10.7146 H   0  0  0  0  0  0  0  0  0  0  0  0
   38.5231   -2.2216   14.2054 N   0  0  0  0  0  0  0  0  0  0  0  0
   39.4628   -1.6331   15.1015 C   0  0  0  0  0  0  0  0  0  0  0  0
   39.4582   -0.4809   15.3500 O   0  0  0  0  0  0  0  0  0  0  0  0
   40.3657   -2.5599   15.6412 N   0  0  0  0  0  0  0  0  0  0  0  0
   40.4383   -3.9492   15.3937 C   0  0  0  0  0  0  0  0  0  0  0  0
   41.2983   -4.5856   15.9608 O   0  0  0  0  0  0  0  0  0  0  0  0
   39.4451   -4.4569   14.4613 C   0  0  0  0  0  0  0  0  0  0  0  0
   38.5481   -3.6192   13.9115 C   0  0  0  0  0  0  0  0  0  0  0  0
   41.0312   -2.1982   16.2702 H   0  0  0  0  0  0  0  0  0  0  0  0
   35.0156   -2.8599   10.6011 O   0  0  0  0  0  0  0  0  0  0  0  0
   35.1753   -1.3735   11.0840 C   0  0  0  0  0  0  0  0  0  0  0  0
   34.2382   -2.9311   10.0254 H   0  0  0  0  0  0  0  0  0  0  0  0
   37.1152    1.4219   11.6658 O   0  0  0  0  0  0  0  0  0  0  0  0
   36.4189    3.7234   12.2583 O   0  0  0  0  0  0  0  0  0  0  0  0
   36.7453    2.2716   12.8545 P   0  0  0  0  0  0  0  0  0  0  0  0
   37.8865    2.2723   13.8286 O   0  0  0  0  0  0  0  0  0  0  0  0
   35.4968    1.7184   13.4878 O   0  0  0  0  0  0  0  0  0  0  0  0
   37.2168    4.0909   11.8470 H   0  0  0  0  0  0  0  0  0  0  0  0
   34.7744    1.7279   12.8405 H   0  0  0  0  0  0  0  0  0  0  0  0
  8  9  1  0  0  0
  8 15  1  0  0  0
  8  6  1  0  0  0
  9 10  2  0  0  0
  9 11  1  0  0  0
 11 12  1  0  0  0
 12 13  2  0  0  0
 12 14  1  0  0  0
 14 15  2  0  0  0
 17 18  1  0  0  0
 18  1  1  0  0  0
  1  2  1  0  0  0
  1  3  1  0  0  0
  2  6  1  0  0  0
  3 20  1  0  0  0
  3  4  1  0  0  0
 20 22  1  0  0  0
  4  5  1  0  0  0
  4  6  1  0  0  0
 21 22  1  0  0  0
 22 23  2  0  0  0
 22 24  1  0  0  0
 11 16  1  0  0  0
 17 19  1  0  0  0
  5  7  1  0  0  0
 21 25  1  0  0  0
 24 26  1  0  0  0
M  END
> <minimizedAffinity>
-6.50952

$$$$
1W4O_UA3_A_1125


 26 27  0  0  0  0  0  0  0  0999 V2000
   38.8296    1.7497   13.8989 C   0  0  0  0  0  0  0  0  0  0  0  0
   38.7614    0.3462   13.6686 O   0  0  0  0  0  0  0  0  0  0  0  0
   38.2055    2.7837   13.2389 C   0  0  0  0  0  0  0  0  0  0  0  0
   37.0435    1.6834   12.5437 C   0  0  0  0  0  0  0  0  0  0  0  0
   35.7095    1.6151   13.5004 O   0  0  0  0  0  0  0  0  0  0  0  0
   38.1263    0.4255   12.2455 C   0  0  0  0  0  0  0  0  0  0  0  0
   35.9779    1.4543   14.4185 H   0  0  0  0  0  0  0  0  0  0  0  0
   37.2641   -0.6352   11.9255 N   0  0  0  0  0  0  0  0  0  0  0  0
   37.8168   -1.9464   12.0135 C   0  0  0  0  0  0  0  0  0  0  0  0
   38.9287   -2.1386   12.3544 O   0  0  0  0  0  0  0  0  0  0  0  0
   36.9074   -2.9534   11.6610 N   0  0  0  0  0  0  0  0  0  0  0  0
   35.5659   -2.8062   11.2420 C   0  0  0  0  0  0  0  0  0  0  0  0
   34.9374   -3.8072   10.9785 O   0  0  0  0  0  0  0  0  0  0  0  0
   35.0932   -1.4331   11.1753 C   0  0  0  0  0  0  0  0  0  0  0  0
   35.9161   -0.4215   11.5042 C   0  0  0  0  0  0  0  0  0  0  0  0
   37.2449   -3.8769   11.7117 H   0  0  0  0  0  0  0  0  0  0  0  0
   39.4883    3.5884   15.4450 O   0  0  0  0  0  0  0  0  0  0  0  0
   39.3700    2.0651   15.0789 C   0  0  0  0  0  0  0  0  0  0  0  0
   39.8945    3.6798   16.3211 H   0  0  0  0  0  0  0  0  0  0  0  0
   38.6668    3.8005   12.1789 O   0  0  0  0  0  0  0  0  0  0  0  0
   39.2366    5.7490   10.7606 O   0  0  0  0  0  0  0  0  0  0  0  0
   38.8646    5.2929   12.2517 P   0  0  0  0  0  0  0  0  0  0  0  0
   39.9420    5.5949   13.2514 O   0  0  0  0  0  0  0  0  0  0  0  0
   37.5662    5.9447   12.6457 O   0  0  0  0  0  0  0  0  0  0  0  0
   40.0726    5.3350   10.4949 H   0  0  0  0  0  0  0  0  0  0  0  0
   36.8864    5.7358   11.9860 H   0  0  0  0  0  0  0  0  0  0  0  0
  8  9  1  0  0  0
  8 15  1  0  0  0
  8  6  1  0  0  0
  9 10  2  0  0  0
  9 11  1  0  0  0
 11 12  1  0  0  0
 12 13  2  0  0  0
 12 14  1  0  0  0
 14 15  2  0  0  0
 17 18  1  0  0  0
 18  1  1  0  0  0
  1  2  1  0  0  0
  1  3  1  0  0  0
  2  6  1  0  0  0
  3 20  1  0  0  0
  3  4  1  0  0  0
 20 22  1  0  0  0
  4  5  1  0  0  0
  4  6  1  0  0  0
 21 22  1  0  0  0
 22 23  2  0  0  0
 22 24  1  0  0  0
 11 16  1  0  0  0
 17 19  1  0  0  0
  5  7  1  0  0  0
 21 25  1  0  0  0
 24 26  1  0  0  0
M  END
> <minimizedAffinity>
-6.39544

$$$$
1W4O_UA3_A_1125


 26 27  0  0  0  0  0  0  0  0999 V2000
   38.7748   -1.7795   13.4559 C   0  0  0  0  0  0  0  0  0  0  0  0
   38.7710   -0.5212   14.1224 O   0  0  0  0  0  0  0  0  0  0  0  0
   38.2320   -2.1372   12.2428 C   0  0  0  0  0  0  0  0  0  0  0  0
   38.1235   -0.4642   11.7598 C   0  0  0  0  0  0  0  0  0  0  0  0
   39.4741   -0.0440   10.9239 O   0  0  0  0  0  0  0  0  0  0  0  0
   37.6486    0.1378   13.2618 C   0  0  0  0  0  0  0  0  0  0  0  0
   40.2606   -0.3105   11.4253 H   0  0  0  0  0  0  0  0  0  0  0  0
   37.7833    1.5232   13.0794 N   0  0  0  0  0  0  0  0  0  0  0  0
   36.5721    2.2729   13.0220 C   0  0  0  0  0  0  0  0  0  0  0  0
   35.5137    1.7678   13.1402 O   0  0  0  0  0  0  0  0  0  0  0  0
   36.7810    3.6442   12.8183 N   0  0  0  0  0  0  0  0  0  0  0  0
   38.0106    4.3235   12.6655 C   0  0  0  0  0  0  0  0  0  0  0  0
   37.9830    5.5222   12.4961 O   0  0  0  0  0  0  0  0  0  0  0  0
   39.1898    3.4757   12.7305 C   0  0  0  0  0  0  0  0  0  0  0  0
   39.0568    2.1520   12.9277 C   0  0  0  0  0  0  0  0  0  0  0  0
   35.9713    4.2027   12.7766 H   0  0  0  0  0  0  0  0  0  0  0  0
   39.4404   -4.1716   13.6549 O   0  0  0  0  0  0  0  0  0  0  0  0
   39.6497   -2.6471   13.9713 C   0  0  0  0  0  0  0  0  0  0  0  0
   40.1382   -4.6900   14.0853 H   0  0  0  0  0  0  0  0  0  0  0  0
   36.9525   -2.8878   11.8306 O   0  0  0  0  0  0  0  0  0  0  0  0
   36.6345   -4.8423   13.3179 O   0  0  0  0  0  0  0  0  0  0  0  0
   35.8981   -3.5829   12.6534 P   0  0  0  0  0  0  0  0  0  0  0  0
   34.7553   -3.9664   11.7600 O   0  0  0  0  0  0  0  0  0  0  0  0
   35.4385   -2.6593   13.7496 O   0  0  0  0  0  0  0  0  0  0  0  0
   36.9357   -5.4456   12.6206 H   0  0  0  0  0  0  0  0  0  0  0  0
   36.1927   -2.4256   14.3129 H   0  0  0  0  0  0  0  0  0  0  0  0
  8  9  1  0  0  0
  8 15  1  0  0  0
  8  6  1  0  0  0
  9 10  2  0  0  0
  9 11  1  0  0  0
 11 12  1  0  0  0
 12 13  2  0  0  0
 12 14  1  0  0  0
 14 15  2  0  0  0
 17 18  1  0  0  0
 18  1  1  0  0  0
  1  2  1  0  0  0
  1  3  1  0  0  0
  2  6  1  0  0  0
  3 20  1  0  0  0
  3  4  1  0  0  0
 20 22  1  0  0  0
  4  5  1  0  0  0
  4  6  1  0  0  0
 21 22  1  0  0  0
 22 23  2  0  0  0
 22 24  1  0  0  0
 11 16  1  0  0  0
 17 19  1  0  0  0
  5  7  1  0  0  0
 21 25  1  0  0  0
 24 26  1  0  0  0
M  END
> <minimizedAffinity>
-6.20253

$$$$
1W4O_UA3_A_1125


 26 27  0  0  0  0  0  0  0  0999 V2000
   39.2656   -2.8021   12.9752 C   0  0  0  0  0  0  0  0  0  0  0  0
   38.6650   -3.9461   12.3767 O   0  0  0  0  0  0  0  0  0  0  0  0
   38.6923   -1.7815   13.6992 C   0  0  0  0  0  0  0  0  0  0  0  0
   37.2650   -2.7426   13.9880 C   0  0  0  0  0  0  0  0  0  0  0  0
   37.4188   -3.5410   15.4157 O   0  0  0  0  0  0  0  0  0  0  0  0
   37.1910   -3.4401   12.4544 C   0  0  0  0  0  0  0  0  0  0  0  0
   38.2737   -3.9987   15.4397 H   0  0  0  0  0  0  0  0  0  0  0  0
   36.2312   -4.4484   12.6359 N   0  0  0  0  0  0  0  0  0  0  0  0
   34.9964   -4.2761   11.9444 C   0  0  0  0  0  0  0  0  0  0  0  0
   34.7926   -3.3517   11.2421 O   0  0  0  0  0  0  0  0  0  0  0  0
   34.0792   -5.3083   12.1873 N   0  0  0  0  0  0  0  0  0  0  0  0
   34.2453   -6.4431   13.0127 C   0  0  0  0  0  0  0  0  0  0  0  0
   33.3273   -7.2285   13.0942 O   0  0  0  0  0  0  0  0  0  0  0  0
   35.5328   -6.5291   13.6823 C   0  0  0  0  0  0  0  0  0  0  0  0
   36.4575   -5.5722   13.4880 C   0  0  0  0  0  0  0  0  0  0  0  0
   33.2128   -5.2332   11.7259 H   0  0  0  0  0  0  0  0  0  0  0  0
   41.3959   -1.5639   13.3402 O   0  0  0  0  0  0  0  0  0  0  0  0
   40.5961   -2.8859   13.0558 C   0  0  0  0  0  0  0  0  0  0  0  0
   42.3450   -1.7611   13.3740 H   0  0  0  0  0  0  0  0  0  0  0  0
   38.2922   -0.3335   13.3620 O   0  0  0  0  0  0  0  0  0  0  0  0
   39.9194    0.4091   11.6493 O   0  0  0  0  0  0  0  0  0  0  0  0
   38.3745    0.4474   12.0755 P   0  0  0  0  0  0  0  0  0  0  0  0
   37.8582    1.8360   12.3130 O   0  0  0  0  0  0  0  0  0  0  0  0
   37.5650   -0.2550   11.0186 O   0  0  0  0  0  0  0  0  0  0  0  0
   40.4521    0.8592   12.3234 H   0  0  0  0  0  0  0  0  0  0  0  0
   37.9167   -1.1487   10.8827 H   0  0  0  0  0  0  0  0  0  0  0  0
  8  9  1  0  0  0
  8 15  1  0  0  0
  8  6  1  0  0  0
  9 10  2  0  0  0
  9 11  1  0  0  0
 11 12  1  0  0  0
 12 13  2  0  0  0
 12 14  1  0  0  0
 14 15  2  0  0  0
 17 18  1  0  0  0
 18  1  1  0  0  0
  1  2  1  0  0  0
  1  3  1  0  0  0
  2  6  1  0  0  0
  3 20  1  0  0  0
  3  4  1  0  0  0
 20 22  1  0  0  0
  4  5  1  0  0  0
  4  6  1  0  0  0
 21 22  1  0  0  0
 22 23  2  0  0  0
 22 24  1  0  0  0
 11 16  1  0  0  0
 17 19  1  0  0  0
  5  7  1  0  0  0
 21 25  1  0  0  0
 24 26  1  0  0  0
M  END
> <minimizedAffinity>
-6.08697

$$$$
1W4O_UA3_A_1125


 26 27  0  0  0  0  0  0  0  0999 V2000
   35.7288   -4.1549   12.0105 C   0  0  0  0  0  0  0  0  0  0  0  0
   35.6664   -2.8619   11.4175 O   0  0  0  0  0  0  0  0  0  0  0  0
   36.6775   -4.6972   12.8472 C   0  0  0  0  0  0  0  0  0  0  0  0
   37.2922   -3.1108   13.2340 C   0  0  0  0  0  0  0  0  0  0  0  0
   36.5539   -2.5502   14.5905 O   0  0  0  0  0  0  0  0  0  0  0  0
   37.1532   -2.4683   11.6810 C   0  0  0  0  0  0  0  0  0  0  0  0
   35.5929   -2.6425   14.4972 H   0  0  0  0  0  0  0  0  0  0  0  0
   37.3687   -1.0999   11.9084 N   0  0  0  0  0  0  0  0  0  0  0  0
   38.7228   -0.6571   11.8567 C   0  0  0  0  0  0  0  0  0  0  0  0
   39.6151   -1.3891   11.6174 O   0  0  0  0  0  0  0  0  0  0  0  0
   38.8653    0.7139   12.1127 N   0  0  0  0  0  0  0  0  0  0  0  0
   37.8520    1.6535   12.4083 C   0  0  0  0  0  0  0  0  0  0  0  0
   38.1790    2.8033   12.6016 O   0  0  0  0  0  0  0  0  0  0  0  0
   36.5049    1.1084   12.4468 C   0  0  0  0  0  0  0  0  0  0  0  0
   36.3010   -0.1991   12.2063 C   0  0  0  0  0  0  0  0  0  0  0  0
   39.7844    1.0654   12.0829 H   0  0  0  0  0  0  0  0  0  0  0  0
   34.4107   -5.8866   10.7985 O   0  0  0  0  0  0  0  0  0  0  0  0
   34.5741   -4.8227   11.9430 C   0  0  0  0  0  0  0  0  0  0  0  0
   33.5339   -6.2966   10.8610 H   0  0  0  0  0  0  0  0  0  0  0  0
   37.8461   -5.6770   12.6357 O   0  0  0  0  0  0  0  0  0  0  0  0
   37.4708   -7.7197   13.9845 O   0  0  0  0  0  0  0  0  0  0  0  0
   37.8774   -7.1803   12.5308 P   0  0  0  0  0  0  0  0  0  0  0  0
   39.2481   -7.6116   12.0991 O   0  0  0  0  0  0  0  0  0  0  0  0
   36.8352   -7.6282   11.5412 O   0  0  0  0  0  0  0  0  0  0  0  0
   38.1357   -7.4372   14.6319 H   0  0  0  0  0  0  0  0  0  0  0  0
   35.9593   -7.3385   11.8409 H   0  0  0  0  0  0  0  0  0  0  0  0
  8  9  1  0  0  0
  8 15  1  0  0  0
  8  6  1  0  0  0
  9 10  2  0  0  0
  9 11  1  0  0  0
 11 12  1  0  0  0
 12 13  2  0  0  0
 12 14  1  0  0  0
 14 15  2  0  0  0
 17 18  1  0  0  0
 18  1  1  0  0  0
  1  2  1  0  0  0
  1  3  1  0  0  0
  2  6  1  0  0  0
  3 20  1  0  0  0
  3  4  1  0  0  0
 20 22  1  0  0  0
  4  5  1  0  0  0
  4  6  1  0  0  0
 21 22  1  0  0  0
 22 23  2  0  0  0
 22 24  1  0  0  0
 11 16  1  0  0  0
 17 19  1  0  0  0
  5  7  1  0  0  0
 21 25  1  0  0  0
 24 26  1  0  0  0
M  END
> <minimizedAffinity>
-5.67280

$$$$
1W4O_UA3_A_1125


 26 27  0  0  0  0  0  0  0  0999 V2000
   37.9925    1.8322   13.0873 C   0  0  0  0  0  0  0  0  0  0  0  0
   36.7664    1.1090   13.0548 O   0  0  0  0  0  0  0  0  0  0  0  0
   39.2893    1.3710   13.0917 C   0  0  0  0  0  0  0  0  0  0  0  0
   38.7714   -0.1912   12.5125 C   0  0  0  0  0  0  0  0  0  0  0  0
   38.8644   -0.2286   10.8726 O   0  0  0  0  0  0  0  0  0  0  0  0
   37.3640   -0.2807   13.4372 C   0  0  0  0  0  0  0  0  0  0  0  0
   38.4180    0.5504   10.5056 H   0  0  0  0  0  0  0  0  0  0  0  0
   36.7064   -1.3818   12.8662 N   0  0  0  0  0  0  0  0  0  0  0  0
   36.8641   -2.6292   13.5382 C   0  0  0  0  0  0  0  0  0  0  0  0
   37.4933   -2.7344   14.5293 O   0  0  0  0  0  0  0  0  0  0  0  0
   36.1982   -3.6866   12.9025 N   0  0  0  0  0  0  0  0  0  0  0  0
   35.4296   -3.6434   11.7176 C   0  0  0  0  0  0  0  0  0  0  0  0
   34.9302   -4.6739   11.3237 O   0  0  0  0  0  0  0  0  0  0  0  0
   35.3318   -2.3313   11.0995 C   0  0  0  0  0  0  0  0  0  0  0  0
   35.9452   -1.2750   11.6623 C   0  0  0  0  0  0  0  0  0  0  0  0
   36.2758   -4.5676   13.3349 H   0  0  0  0  0  0  0  0  0  0  0  0
   36.4856    3.5966   12.1812 O   0  0  0  0  0  0  0  0  0  0  0  0
   37.8464    3.1313   12.8138 C   0  0  0  0  0  0  0  0  0  0  0  0
   36.5089    4.5549   12.0329 H   0  0  0  0  0  0  0  0  0  0  0  0
   40.3524    1.1982   14.1919 O   0  0  0  0  0  0  0  0  0  0  0  0
   41.7561    1.5593   16.1999 O   0  0  0  0  0  0  0  0  0  0  0  0
   40.2572    1.3031   15.6925 P   0  0  0  0  0  0  0  0  0  0  0  0
   39.6548    0.0398   16.2334 O   0  0  0  0  0  0  0  0  0  0  0  0
   39.4154    2.4982   16.0518 O   0  0  0  0  0  0  0  0  0  0  0  0
   42.3090    0.7951   15.9739 H   0  0  0  0  0  0  0  0  0  0  0  0
   39.8238    3.3012   15.6923 H   0  0  0  0  0  0  0  0  0  0  0  0
  8  9  1  0  0  0
  8 15  1  0  0  0
  8  6  1  0  0  0
  9 10  2  0  0  0
  9 11  1  0  0  0
 11 12  1  0  0  0
 12 13  2  0  0  0
 12 14  1  0  0  0
 14 15  2  0  0  0
 17 18  1  0  0  0
 18  1  1  0  0  0
  1  2  1  0  0  0
  1  3  1  0  0  0
  2  6  1  0  0  0
  3 20  1  0  0  0
  3  4  1  0  0  0
 20 22  1  0  0  0
  4  5  1  0  0  0
  4  6  1  0  0  0
 21 22  1  0  0  0
 22 23  2  0  0  0
 22 24  1  0  0  0
 11 16  1  0  0  0
 17 19  1  0  0  0
  5  7  1  0  0  0
 21 25  1  0  0  0
 24 26  1  0  0  0
M  END
> <minimizedAffinity>
-5.59833

$$$$
1W4O_UA3_A_1125


 26 27  0  0  0  0  0  0  0  0999 V2000
   39.2120   -0.2130   12.2624 C   0  0  0  0  0  0  0  0  0  0  0  0
   38.9799   -1.5096   11.7216 O   0  0  0  0  0  0  0  0  0  0  0  0
   38.7234    0.3638   13.4125 C   0  0  0  0  0  0  0  0  0  0  0  0
   38.2854   -1.1997   14.0510 C   0  0  0  0  0  0  0  0  0  0  0  0
   39.5127   -1.7796   14.9767 O   0  0  0  0  0  0  0  0  0  0  0  0
   37.7345   -1.8522   12.5969 C   0  0  0  0  0  0  0  0  0  0  0  0
   40.3458   -1.7198   14.4835 H   0  0  0  0  0  0  0  0  0  0  0  0
   37.5965   -3.2119   12.9181 N   0  0  0  0  0  0  0  0  0  0  0  0
   36.3117   -3.6245   13.3780 C   0  0  0  0  0  0  0  0  0  0  0  0
   35.4055   -2.8760   13.4673 O   0  0  0  0  0  0  0  0  0  0  0  0
   36.2522   -4.9879   13.6990 N   0  0  0  0  0  0  0  0  0  0  0  0
   37.2883   -5.9457   13.6221 C   0  0  0  0  0  0  0  0  0  0  0  0
   37.0376   -7.0847   13.9478 O   0  0  0  0  0  0  0  0  0  0  0  0
   38.5633   -5.4308   13.1502 C   0  0  0  0  0  0  0  0  0  0  0  0
   38.6847   -4.1321   12.8225 C   0  0  0  0  0  0  0  0  0  0  0  0
   35.3812   -5.3188   14.0172 H   0  0  0  0  0  0  0  0  0  0  0  0
   40.8477   -0.1968   10.3839 O   0  0  0  0  0  0  0  0  0  0  0  0
   40.2477    0.4156   11.7004 C   0  0  0  0  0  0  0  0  0  0  0  0
   41.5889    0.3508   10.0810 H   0  0  0  0  0  0  0  0  0  0  0  0
   37.6039    1.3814   13.6988 O   0  0  0  0  0  0  0  0  0  0  0  0
   37.5681    3.4794   12.3836 O   0  0  0  0  0  0  0  0  0  0  0  0
   36.7202    2.1753   12.7712 P   0  0  0  0  0  0  0  0  0  0  0  0
   35.4328    2.4912   13.4741 O   0  0  0  0  0  0  0  0  0  0  0  0
   36.4694    1.3742   11.5218 O   0  0  0  0  0  0  0  0  0  0  0  0
   37.7364    4.0046   13.1816 H   0  0  0  0  0  0  0  0  0  0  0  0
   37.3143    1.1825   11.0855 H   0  0  0  0  0  0  0  0  0  0  0  0
  8  9  1  0  0  0
  8 15  1  0  0  0
  8  6  1  0  0  0
  9 10  2  0  0  0
  9 11  1  0  0  0
 11 12  1  0  0  0
 12 13  2  0  0  0
 12 14  1  0  0  0
 14 15  2  0  0  0
 17 18  1  0  0  0
 18  1  1  0  0  0
  1  2  1  0  0  0
  1  3  1  0  0  0
  2  6  1  0  0  0
  3 20  1  0  0  0
  3  4  1  0  0  0
 20 22  1  0  0  0
  4  5  1  0  0  0
  4  6  1  0  0  0
 21 22  1  0  0  0
 22 23  2  0  0  0
 22 24  1  0  0  0
 11 16  1  0  0  0
 17 19  1  0  0  0
  5  7  1  0  0  0
 21 25  1  0  0  0
 24 26  1  0  0  0
M  END
> <minimizedAffinity>
-5.59232

$$$$
1W4O_UA3_A_1125


 26 27  0  0  0  0  0  0  0  0999 V2000
   37.3125   -1.0464   12.7647 C   0  0  0  0  0  0  0  0  0  0  0  0
   38.1968   -1.6500   13.7035 O   0  0  0  0  0  0  0  0  0  0  0  0
   37.5489   -0.0521   11.8429 C   0  0  0  0  0  0  0  0  0  0  0  0
   39.2707   -0.3112   11.9545 C   0  0  0  0  0  0  0  0  0  0  0  0
   39.7442   -1.3707   10.7915 O   0  0  0  0  0  0  0  0  0  0  0  0
   39.3176   -0.5676   13.6206 C   0  0  0  0  0  0  0  0  0  0  0  0
   39.1752   -2.1558   10.8182 H   0  0  0  0  0  0  0  0  0  0  0  0
   40.6212   -1.0543   13.8068 N   0  0  0  0  0  0  0  0  0  0  0  0
   40.8279   -1.8851   14.9467 C   0  0  0  0  0  0  0  0  0  0  0  0
   39.9540   -2.1684   15.6851 O   0  0  0  0  0  0  0  0  0  0  0  0
   42.1547   -2.3175   15.0811 N   0  0  0  0  0  0  0  0  0  0  0  0
   43.2548   -2.0221   14.2448 C   0  0  0  0  0  0  0  0  0  0  0  0
   44.3323   -2.4944   14.5314 O   0  0  0  0  0  0  0  0  0  0  0  0
   42.9491   -1.1622   13.1132 C   0  0  0  0  0  0  0  0  0  0  0  0
   41.6941   -0.7165   12.9264 C   0  0  0  0  0  0  0  0  0  0  0  0
   42.3432   -2.8986   15.8531 H   0  0  0  0  0  0  0  0  0  0  0  0
   35.6763   -2.6241   13.7837 O   0  0  0  0  0  0  0  0  0  0  0  0
   36.1781   -1.7300   12.5933 C   0  0  0  0  0  0  0  0  0  0  0  0
   34.8490   -3.0634   13.5318 H   0  0  0  0  0  0  0  0  0  0  0  0
   37.2453    1.4569   11.8055 O   0  0  0  0  0  0  0  0  0  0  0  0
   35.4537    1.6986   13.4980 O   0  0  0  0  0  0  0  0  0  0  0  0
   36.7534    2.3994   12.8739 P   0  0  0  0  0  0  0  0  0  0  0  0
   36.4675    3.7352   12.2531 O   0  0  0  0  0  0  0  0  0  0  0  0
   37.8006    2.5178   13.9486 O   0  0  0  0  0  0  0  0  0  0  0  0
   34.7707    1.6165   12.8142 H   0  0  0  0  0  0  0  0  0  0  0  0
   37.9683    1.6437   14.3343 H   0  0  0  0  0  0  0  0  0  0  0  0
  8  9  1  0  0  0
  8 15  1  0  0  0
  8  6  1  0  0  0
  9 10  2  0  0  0
  9 11  1  0  0  0
 11 12  1  0  0  0
 12 13  2  0  0  0
 12 14  1  0  0  0
 14 15  2  0  0  0
 17 18  1  0  0  0
 18  1  1  0  0  0
  1  2  1  0  0  0
  1  3  1  0  0  0
  2  6  1  0  0  0
  3 20  1  0  0  0
  3  4  1  0  0  0
 20 22  1  0  0  0
  4  5  1  0  0  0
  4  6  1  0  0  0
 21 22  1  0  0  0
 22 23  2  0  0  0
 22 24  1  0  0  0
 11 16  1  0  0  0
 17 19  1  0  0  0
  5  7  1  0  0  0
 21 25  1  0  0  0
 24 26  1  0  0  0
M  END
> <minimizedAffinity>
-5.34812

$$$$
1W4O_UA3_A_1125


 26 27  0  0  0  0  0  0  0  0999 V2000
   36.7569   -1.2932   12.5864 C   0  0  0  0  0  0  0  0  0  0  0  0
   37.4210   -2.0209   13.6145 O   0  0  0  0  0  0  0  0  0  0  0  0
   37.2337   -0.3045   11.7560 C   0  0  0  0  0  0  0  0  0  0  0  0
   38.8816   -0.7598   12.1043 C   0  0  0  0  0  0  0  0  0  0  0  0
   39.4072   -1.8304   10.9742 O   0  0  0  0  0  0  0  0  0  0  0  0
   38.6512   -1.0701   13.7457 C   0  0  0  0  0  0  0  0  0  0  0  0
   38.7597   -2.5467   10.8815 H   0  0  0  0  0  0  0  0  0  0  0  0
   39.8525   -1.7063   14.0963 N   0  0  0  0  0  0  0  0  0  0  0  0
   39.7483   -2.7852   15.0223 C   0  0  0  0  0  0  0  0  0  0  0  0
   38.7130   -3.1420   15.4584 O   0  0  0  0  0  0  0  0  0  0  0  0
   40.9867   -3.3595   15.3421 N   0  0  0  0  0  0  0  0  0  0  0  0
   42.2653   -2.9905   14.8668 C   0  0  0  0  0  0  0  0  0  0  0  0
   43.2238   -3.6140   15.2654 O   0  0  0  0  0  0  0  0  0  0  0  0
   42.2726   -1.8760   13.9335 C   0  0  0  0  0  0  0  0  0  0  0  0
   41.1169   -1.2839   13.5835 C   0  0  0  0  0  0  0  0  0  0  0  0
   40.9625   -4.1126   15.9757 H   0  0  0  0  0  0  0  0  0  0  0  0
   34.9821   -1.3992   10.8418 O   0  0  0  0  0  0  0  0  0  0  0  0
   35.5941   -1.8388   12.2204 C   0  0  0  0  0  0  0  0  0  0  0  0
   34.1439   -1.8653   10.6968 H   0  0  0  0  0  0  0  0  0  0  0  0
   37.1028    1.2295   11.7452 O   0  0  0  0  0  0  0  0  0  0  0  0
   36.4130    3.5827   12.0906 O   0  0  0  0  0  0  0  0  0  0  0  0
   36.7504    2.2055   12.8384 P   0  0  0  0  0  0  0  0  0  0  0  0
   37.9067    2.3134   13.7885 O   0  0  0  0  0  0  0  0  0  0  0  0
   35.5126    1.7263   13.5484 O   0  0  0  0  0  0  0  0  0  0  0  0
   37.2039    3.9021   11.6287 H   0  0  0  0  0  0  0  0  0  0  0  0
   34.7802    1.6646   12.9154 H   0  0  0  0  0  0  0  0  0  0  0  0
  8  9  1  0  0  0
  8 15  1  0  0  0
  8  6  1  0  0  0
  9 10  2  0  0  0
  9 11  1  0  0  0
 11 12  1  0  0  0
 12 13  2  0  0  0
 12 14  1  0  0  0
 14 15  2  0  0  0
 17 18  1  0  0  0
 18  1  1  0  0  0
  1  2  1  0  0  0
  1  3  1  0  0  0
  2  6  1  0  0  0
  3 20  1  0  0  0
  3  4  1  0  0  0
 20 22  1  0  0  0
  4  5  1  0  0  0
  4  6  1  0  0  0
 21 22  1  0  0  0
 22 23  2  0  0  0
 22 24  1  0  0  0
 11 16  1  0  0  0
 17 19  1  0  0  0
  5  7  1  0  0  0
 21 25  1  0  0  0
 24 26  1  0  0  0
M  END
> <minimizedAffinity>
-5.33435

$$$$
