3LEA_Z93_A_1


 34 38  0  0  0  0  0  0  0  0999 V2000
   18.4205   12.6689   -4.7356 N   0  0  0  0  0  0  0  0  0  0  0  0
   17.5188   13.4741   -5.3935 C   0  0  0  0  0  0  0  0  0  0  0  0
   17.7224   13.3454   -6.9389 C   0  0  0  0  0  0  0  0  0  0  0  0
   18.7671   12.3067   -6.9262 N   0  0  0  0  0  0  0  0  0  0  0  0
   19.1691   11.9248   -5.6053 C   0  0  0  0  0  0  0  0  0  0  0  0
   20.0211   11.0875   -5.2322 O   0  0  0  0  0  0  0  0  0  0  0  0
   16.7264   14.2338   -4.8576 O   0  0  0  0  0  0  0  0  0  0  0  0
   18.5152   12.6328   -3.7563 H   0  0  0  0  0  0  0  0  0  0  0  0
   19.1505   11.9143   -7.7437 H   0  0  0  0  0  0  0  0  0  0  0  0
   16.4838   12.7607   -7.5801 C   0  0  0  0  0  0  0  0  0  0  0  0
   15.5048   12.0872   -6.7941 C   0  0  0  0  0  0  0  0  0  0  0  0
   14.3670   11.5272   -7.3995 C   0  0  0  0  0  0  0  0  0  0  0  0
   14.1663   11.6112   -8.8047 C   0  0  0  0  0  0  0  0  0  0  0  0
   15.1460   12.2602   -9.6123 C   0  0  0  0  0  0  0  0  0  0  0  0
   16.2887   12.8369   -9.0129 C   0  0  0  0  0  0  0  0  0  0  0  0
   12.9613   11.0286   -9.4369 C   0  0  0  0  0  0  0  0  0  0  0  0
   12.8942   10.6961  -10.8318 C   0  0  0  0  0  0  0  0  0  0  0  0
   11.7385   10.1314  -11.3979 C   0  0  0  0  0  0  0  0  0  0  0  0
   10.6516    9.8866  -10.5648 C   0  0  0  0  0  0  0  0  0  0  0  0
   10.6409   10.1573   -9.2248 N   0  0  0  0  0  0  0  0  0  0  0  0
   11.7932   10.7197   -8.6880 C   0  0  0  0  0  0  0  0  0  0  0  0
   18.1804   14.7981   -7.4664 C   0  0  0  0  0  0  0  0  0  0  0  0
   19.6287   14.8942   -7.2527 N   0  0  0  0  0  0  0  0  0  0  0  0
   20.6382   14.3936   -8.2107 C   0  0  0  0  0  0  0  0  0  0  0  0
   20.1711   15.6522   -6.1994 C   0  0  0  0  0  0  0  0  0  0  0  0
   21.6416   15.6493   -6.3932 C   0  0  0  0  0  0  0  0  0  0  0  0
   21.9058   14.8985   -7.5985 C   0  0  0  0  0  0  0  0  0  0  0  0
   23.1992   14.6909   -8.0643 C   0  0  0  0  0  0  0  0  0  0  0  0
   24.2397   15.2804   -7.2960 C   0  0  0  0  0  0  0  0  0  0  0  0
   23.9963   16.0316   -6.0890 C   0  0  0  0  0  0  0  0  0  0  0  0
   22.6784   16.2381   -5.6054 C   0  0  0  0  0  0  0  0  0  0  0  0
   19.5625   16.1744   -5.2852 O   0  0  0  0  0  0  0  0  0  0  0  0
   25.0253   16.5476   -5.2857 O   0  0  0  0  0  0  0  0  0  0  0  0
   26.3849   16.5156   -5.8030 C   0  0  0  0  0  0  0  0  0  0  0  0
  1  2  1  0  0  0
  1  5  1  0  0  0
  2  3  1  0  0  0
  2  7  2  0  0  0
  3  4  1  0  0  0
  3 10  1  0  0  0
  3 22  1  0  0  0
  4  5  1  0  0  0
  5  6  2  0  0  0
 10 11  2  0  0  0
 10 15  1  0  0  0
 11 12  1  0  0  0
 12 13  2  0  0  0
 13 14  1  0  0  0
 13 16  1  0  0  0
 14 15  2  0  0  0
 16 17  2  0  0  0
 16 21  1  0  0  0
 17 18  1  0  0  0
 18 19  2  0  0  0
 19 20  1  0  0  0
 20 21  2  0  0  0
 23 24  2  0  0  0
 23 25  1  0  0  0
 23 22  1  0  0  0
 24 27  1  0  0  0
 25 26  1  0  0  0
 25 32  2  0  0  0
 26 27  2  0  0  0
 26 31  1  0  0  0
 27 28  1  0  0  0
 28 29  2  0  0  0
 29 30  1  0  0  0
 30 31  2  0  0  0
 30 33  1  0  0  0
 33 34  1  0  0  0
  1  8  1  0  0  0
  4  9  1  0  0  0
M  CHG 1  23   1
M  END
> <minimizedAffinity>
-8.94959

$$$$
3LEA_Z93_A_1


 34 38  0  0  0  0  0  0  0  0999 V2000
   15.9330   14.7446   -8.6347 N   0  0  0  0  0  0  0  0  0  0  0  0
   16.4401   15.3096   -7.4868 C   0  0  0  0  0  0  0  0  0  0  0  0
   17.1863   14.2224   -6.6457 C   0  0  0  0  0  0  0  0  0  0  0  0
   17.0491   13.0985   -7.5883 N   0  0  0  0  0  0  0  0  0  0  0  0
   16.2958   13.4319   -8.7604 C   0  0  0  0  0  0  0  0  0  0  0  0
   15.9882   12.7282   -9.7485 O   0  0  0  0  0  0  0  0  0  0  0  0
   16.2730   16.4673   -7.1346 O   0  0  0  0  0  0  0  0  0  0  0  0
   15.3758   15.2274   -9.2872 H   0  0  0  0  0  0  0  0  0  0  0  0
   17.4363   12.2076   -7.4288 H   0  0  0  0  0  0  0  0  0  0  0  0
   18.6545   14.5676   -6.5340 C   0  0  0  0  0  0  0  0  0  0  0  0
   19.1260   15.4187   -5.4932 C   0  0  0  0  0  0  0  0  0  0  0  0
   20.4883   15.7529   -5.4082 C   0  0  0  0  0  0  0  0  0  0  0  0
   21.4260   15.2594   -6.3563 C   0  0  0  0  0  0  0  0  0  0  0  0
   20.9708   14.4255   -7.4196 C   0  0  0  0  0  0  0  0  0  0  0  0
   19.6048   14.0736   -7.5085 C   0  0  0  0  0  0  0  0  0  0  0  0
   22.8617   15.6060   -6.2571 C   0  0  0  0  0  0  0  0  0  0  0  0
   23.8470   15.1267   -7.1846 C   0  0  0  0  0  0  0  0  0  0  0  0
   25.2008   15.4859   -7.0696 C   0  0  0  0  0  0  0  0  0  0  0  0
   25.5683   16.3369   -6.0322 C   0  0  0  0  0  0  0  0  0  0  0  0
   24.6903   16.8506   -5.1190 N   0  0  0  0  0  0  0  0  0  0  0  0
   23.3577   16.4778   -5.2498 C   0  0  0  0  0  0  0  0  0  0  0  0
   16.3798   14.0793   -5.2574 C   0  0  0  0  0  0  0  0  0  0  0  0
   16.4819   12.6747   -4.8458 N   0  0  0  0  0  0  0  0  0  0  0  0
   17.4692   12.1726   -3.8658 C   0  0  0  0  0  0  0  0  0  0  0  0
   15.5104   11.7256   -5.2114 C   0  0  0  0  0  0  0  0  0  0  0  0
   15.8532   10.4747   -4.4919 C   0  0  0  0  0  0  0  0  0  0  0  0
   17.0210   10.7567   -3.6901 C   0  0  0  0  0  0  0  0  0  0  0  0
   17.6159    9.7847   -2.8940 C   0  0  0  0  0  0  0  0  0  0  0  0
   16.9926    8.5072   -2.9007 C   0  0  0  0  0  0  0  0  0  0  0  0
   15.8276    8.2056   -3.6958 C   0  0  0  0  0  0  0  0  0  0  0  0
   15.2227    9.1923   -4.5166 C   0  0  0  0  0  0  0  0  0  0  0  0
   14.5928   11.8824   -5.9938 O   0  0  0  0  0  0  0  0  0  0  0  0
   15.2568    6.9251   -3.7656 O   0  0  0  0  0  0  0  0  0  0  0  0
   15.5776    6.0895   -4.9129 C   0  0  0  0  0  0  0  0  0  0  0  0
  1  2  1  0  0  0
  1  5  1  0  0  0
  2  3  1  0  0  0
  2  7  2  0  0  0
  3  4  1  0  0  0
  3 10  1  0  0  0
  3 22  1  0  0  0
  4  5  1  0  0  0
  5  6  2  0  0  0
 10 11  2  0  0  0
 10 15  1  0  0  0
 11 12  1  0  0  0
 12 13  2  0  0  0
 13 14  1  0  0  0
 13 16  1  0  0  0
 14 15  2  0  0  0
 16 17  2  0  0  0
 16 21  1  0  0  0
 17 18  1  0  0  0
 18 19  2  0  0  0
 19 20  1  0  0  0
 20 21  2  0  0  0
 23 24  2  0  0  0
 23 25  1  0  0  0
 23 22  1  0  0  0
 24 27  1  0  0  0
 25 26  1  0  0  0
 25 32  2  0  0  0
 26 27  2  0  0  0
 26 31  1  0  0  0
 27 28  1  0  0  0
 28 29  2  0  0  0
 29 30  1  0  0  0
 30 31  2  0  0  0
 30 33  1  0  0  0
 33 34  1  0  0  0
  1  8  1  0  0  0
  4  9  1  0  0  0
M  CHG 1  23   1
M  END
> <minimizedAffinity>
-8.44096

$$$$
3LEA_Z93_A_1


 34 38  0  0  0  0  0  0  0  0999 V2000
   17.9858   17.5801   -9.3171 N   0  0  0  0  0  0  0  0  0  0  0  0
   17.2726   16.7867   -8.4476 C   0  0  0  0  0  0  0  0  0  0  0  0
   17.9814   16.7578   -7.0537 C   0  0  0  0  0  0  0  0  0  0  0  0
   19.0630   17.7133   -7.3494 N   0  0  0  0  0  0  0  0  0  0  0  0
   19.0478   18.1840   -8.7024 C   0  0  0  0  0  0  0  0  0  0  0  0
   19.8104   18.9869   -9.2855 O   0  0  0  0  0  0  0  0  0  0  0  0
   16.2769   16.1398   -8.7347 O   0  0  0  0  0  0  0  0  0  0  0  0
   17.7587   17.6988  -10.2677 H   0  0  0  0  0  0  0  0  0  0  0  0
   19.7295   17.9998   -6.6839 H   0  0  0  0  0  0  0  0  0  0  0  0
   17.0852   17.3709   -6.0012 C   0  0  0  0  0  0  0  0  0  0  0  0
   16.6363   18.7179   -6.1208 C   0  0  0  0  0  0  0  0  0  0  0  0
   15.8214   19.2882   -5.1281 C   0  0  0  0  0  0  0  0  0  0  0  0
   15.4307   18.5436   -3.9814 C   0  0  0  0  0  0  0  0  0  0  0  0
   15.8888   17.2017   -3.8309 C   0  0  0  0  0  0  0  0  0  0  0  0
   16.6994   16.6140   -4.8285 C   0  0  0  0  0  0  0  0  0  0  0  0
   14.5640   19.1452   -2.9431 C   0  0  0  0  0  0  0  0  0  0  0  0
   14.8269   20.4269   -2.3525 C   0  0  0  0  0  0  0  0  0  0  0  0
   13.9758   20.9756   -1.3781 C   0  0  0  0  0  0  0  0  0  0  0  0
   12.8520   20.2467   -1.0024 C   0  0  0  0  0  0  0  0  0  0  0  0
   12.5211   19.0289   -1.5284 N   0  0  0  0  0  0  0  0  0  0  0  0
   13.3800   18.5042   -2.4870 C   0  0  0  0  0  0  0  0  0  0  0  0
   18.4389   15.2330   -6.8004 C   0  0  0  0  0  0  0  0  0  0  0  0
   19.9060   15.2208   -6.7990 N   0  0  0  0  0  0  0  0  0  0  0  0
   20.7276   14.7693   -7.9429 C   0  0  0  0  0  0  0  0  0  0  0  0
   20.6487   15.8271   -5.7698 C   0  0  0  0  0  0  0  0  0  0  0  0
   22.0717   15.7598   -6.1825 C   0  0  0  0  0  0  0  0  0  0  0  0
   22.1038   15.1302   -7.4820 C   0  0  0  0  0  0  0  0  0  0  0  0
   23.2979   14.8996   -8.1557 C   0  0  0  0  0  0  0  0  0  0  0  0
   24.4786   15.3406   -7.4986 C   0  0  0  0  0  0  0  0  0  0  0  0
   24.4673   15.9692   -6.2005 C   0  0  0  0  0  0  0  0  0  0  0  0
   23.2516   16.1982   -5.5057 C   0  0  0  0  0  0  0  0  0  0  0  0
   20.2180   16.2814   -4.7273 O   0  0  0  0  0  0  0  0  0  0  0  0
   25.6363   16.3341   -5.5145 O   0  0  0  0  0  0  0  0  0  0  0  0
   26.7471   16.8732   -6.2845 C   0  0  0  0  0  0  0  0  0  0  0  0
  1  2  1  0  0  0
  1  5  1  0  0  0
  2  3  1  0  0  0
  2  7  2  0  0  0
  3  4  1  0  0  0
  3 10  1  0  0  0
  3 22  1  0  0  0
  4  5  1  0  0  0
  5  6  2  0  0  0
 10 11  2  0  0  0
 10 15  1  0  0  0
 11 12  1  0  0  0
 12 13  2  0  0  0
 13 14  1  0  0  0
 13 16  1  0  0  0
 14 15  2  0  0  0
 16 17  2  0  0  0
 16 21  1  0  0  0
 17 18  1  0  0  0
 18 19  2  0  0  0
 19 20  1  0  0  0
 20 21  2  0  0  0
 23 24  2  0  0  0
 23 25  1  0  0  0
 23 22  1  0  0  0
 24 27  1  0  0  0
 25 26  1  0  0  0
 25 32  2  0  0  0
 26 27  2  0  0  0
 26 31  1  0  0  0
 27 28  1  0  0  0
 28 29  2  0  0  0
 29 30  1  0  0  0
 30 31  2  0  0  0
 30 33  1  0  0  0
 33 34  1  0  0  0
  1  8  1  0  0  0
  4  9  1  0  0  0
M  CHG 1  23   1
M  END
> <minimizedAffinity>
-8.19235

$$$$
3LEA_Z93_A_1


 34 38  0  0  0  0  0  0  0  0999 V2000
   16.0369   18.3090   -7.9591 N   0  0  0  0  0  0  0  0  0  0  0  0
   16.6467   17.1918   -8.4825 C   0  0  0  0  0  0  0  0  0  0  0  0
   18.0016   16.9329   -7.7451 C   0  0  0  0  0  0  0  0  0  0  0  0
   17.9050   18.0113   -6.7461 N   0  0  0  0  0  0  0  0  0  0  0  0
   16.7314   18.8188   -6.8969 C   0  0  0  0  0  0  0  0  0  0  0  0
   16.3413   19.8061   -6.2342 O   0  0  0  0  0  0  0  0  0  0  0  0
   16.2350   16.5392   -9.4296 O   0  0  0  0  0  0  0  0  0  0  0  0
   15.2009   18.6950   -8.3075 H   0  0  0  0  0  0  0  0  0  0  0  0
   18.5796   18.1619   -6.0450 H   0  0  0  0  0  0  0  0  0  0  0  0
   17.9526   15.6088   -7.0160 C   0  0  0  0  0  0  0  0  0  0  0  0
   18.2652   15.5289   -5.6282 C   0  0  0  0  0  0  0  0  0  0  0  0
   18.2389   14.2920   -4.9620 C   0  0  0  0  0  0  0  0  0  0  0  0
   17.9084   13.0932   -5.6516 C   0  0  0  0  0  0  0  0  0  0  0  0
   17.6156   13.1481   -7.0461 C   0  0  0  0  0  0  0  0  0  0  0  0
   17.6279   14.3881   -7.7240 C   0  0  0  0  0  0  0  0  0  0  0  0
   17.8722   11.7938   -4.9435 C   0  0  0  0  0  0  0  0  0  0  0  0
   18.9640   10.8621   -4.9643 C   0  0  0  0  0  0  0  0  0  0  0  0
   18.9024    9.6420   -4.2696 C   0  0  0  0  0  0  0  0  0  0  0  0
   17.7512    9.3585   -3.5418 C   0  0  0  0  0  0  0  0  0  0  0  0
   16.6760   10.1984   -3.4562 N   0  0  0  0  0  0  0  0  0  0  0  0
   16.7578   11.3971   -4.1552 C   0  0  0  0  0  0  0  0  0  0  0  0
   19.1657   17.0970   -8.8480 C   0  0  0  0  0  0  0  0  0  0  0  0
   20.3923   16.5461   -8.2609 N   0  0  0  0  0  0  0  0  0  0  0  0
   21.0256   15.2860   -8.7065 C   0  0  0  0  0  0  0  0  0  0  0  0
   21.1719   17.2838   -7.3519 C   0  0  0  0  0  0  0  0  0  0  0  0
   22.3969   16.4852   -7.1040 C   0  0  0  0  0  0  0  0  0  0  0  0
   22.2982   15.2983   -7.9211 C   0  0  0  0  0  0  0  0  0  0  0  0
   23.2864   14.3205   -7.9161 C   0  0  0  0  0  0  0  0  0  0  0  0
   24.4060   14.5711   -7.0770 C   0  0  0  0  0  0  0  0  0  0  0  0
   24.5219   15.7488   -6.2524 C   0  0  0  0  0  0  0  0  0  0  0  0
   23.5114   16.7449   -6.2479 C   0  0  0  0  0  0  0  0  0  0  0  0
   20.8844   18.3472   -6.8368 O   0  0  0  0  0  0  0  0  0  0  0  0
   25.5877   15.9616   -5.3640 O   0  0  0  0  0  0  0  0  0  0  0  0
   26.6504   16.8698   -5.7680 C   0  0  0  0  0  0  0  0  0  0  0  0
  1  2  1  0  0  0
  1  5  1  0  0  0
  2  3  1  0  0  0
  2  7  2  0  0  0
  3  4  1  0  0  0
  3 10  1  0  0  0
  3 22  1  0  0  0
  4  5  1  0  0  0
  5  6  2  0  0  0
 10 11  2  0  0  0
 10 15  1  0  0  0
 11 12  1  0  0  0
 12 13  2  0  0  0
 13 14  1  0  0  0
 13 16  1  0  0  0
 14 15  2  0  0  0
 16 17  2  0  0  0
 16 21  1  0  0  0
 17 18  1  0  0  0
 18 19  2  0  0  0
 19 20  1  0  0  0
 20 21  2  0  0  0
 23 24  2  0  0  0
 23 25  1  0  0  0
 23 22  1  0  0  0
 24 27  1  0  0  0
 25 26  1  0  0  0
 25 32  2  0  0  0
 26 27  2  0  0  0
 26 31  1  0  0  0
 27 28  1  0  0  0
 28 29  2  0  0  0
 29 30  1  0  0  0
 30 31  2  0  0  0
 30 33  1  0  0  0
 33 34  1  0  0  0
  1  8  1  0  0  0
  4  9  1  0  0  0
M  CHG 1  23   1
M  END
> <minimizedAffinity>
-8.05611

$$$$
3LEA_Z93_A_1


 34 38  0  0  0  0  0  0  0  0999 V2000
   16.9802   16.4647   -6.9331 N   0  0  0  0  0  0  0  0  0  0  0  0
   17.7750   15.7393   -6.0751 C   0  0  0  0  0  0  0  0  0  0  0  0
   18.7373   14.8184   -6.8950 C   0  0  0  0  0  0  0  0  0  0  0  0
   18.3617   15.2731   -8.2451 N   0  0  0  0  0  0  0  0  0  0  0  0
   17.3118   16.2478   -8.2420 C   0  0  0  0  0  0  0  0  0  0  0  0
   16.7544   16.8355   -9.1960 O   0  0  0  0  0  0  0  0  0  0  0  0
   17.6957   15.7517   -4.8562 O   0  0  0  0  0  0  0  0  0  0  0  0
   16.2593   17.0676   -6.6397 H   0  0  0  0  0  0  0  0  0  0  0  0
   18.7895   14.9406   -9.0670 H   0  0  0  0  0  0  0  0  0  0  0  0
   20.1752   15.2156   -6.6466 C   0  0  0  0  0  0  0  0  0  0  0  0
   21.2399   14.3106   -6.9247 C   0  0  0  0  0  0  0  0  0  0  0  0
   22.5722   14.6783   -6.6710 C   0  0  0  0  0  0  0  0  0  0  0  0
   22.8915   15.9527   -6.1272 C   0  0  0  0  0  0  0  0  0  0  0  0
   21.8390   16.8641   -5.8195 C   0  0  0  0  0  0  0  0  0  0  0  0
   20.4961   16.5095   -6.0810 C   0  0  0  0  0  0  0  0  0  0  0  0
   24.2972   16.3396   -5.8709 C   0  0  0  0  0  0  0  0  0  0  0  0
   25.3458   16.1572   -6.8342 C   0  0  0  0  0  0  0  0  0  0  0  0
   26.6683   16.5482   -6.5638 C   0  0  0  0  0  0  0  0  0  0  0  0
   26.9407   17.1348   -5.3321 C   0  0  0  0  0  0  0  0  0  0  0  0
   25.9973   17.3597   -4.3685 N   0  0  0  0  0  0  0  0  0  0  0  0
   24.6974   16.9606   -4.6564 C   0  0  0  0  0  0  0  0  0  0  0  0
   18.3441   13.2984   -6.5294 C   0  0  0  0  0  0  0  0  0  0  0  0
   17.0354   13.0364   -7.1386 N   0  0  0  0  0  0  0  0  0  0  0  0
   16.8403   12.7267   -8.5716 C   0  0  0  0  0  0  0  0  0  0  0  0
   15.8778   12.8673   -6.3577 C   0  0  0  0  0  0  0  0  0  0  0  0
   14.7971   12.4637   -7.2899 C   0  0  0  0  0  0  0  0  0  0  0  0
   15.3860   12.3799   -8.6061 C   0  0  0  0  0  0  0  0  0  0  0  0
   14.6357   12.0350   -9.7245 C   0  0  0  0  0  0  0  0  0  0  0  0
   13.2633   11.7492   -9.4895 C   0  0  0  0  0  0  0  0  0  0  0  0
   12.6564   11.8292   -8.1834 C   0  0  0  0  0  0  0  0  0  0  0  0
   13.4167   12.1896   -7.0409 C   0  0  0  0  0  0  0  0  0  0  0  0
   15.7694   13.0535   -5.1609 O   0  0  0  0  0  0  0  0  0  0  0  0
   11.2858   11.6247   -7.9603 O   0  0  0  0  0  0  0  0  0  0  0  0
   10.4473   11.2756   -9.0972 C   0  0  0  0  0  0  0  0  0  0  0  0
  1  2  1  0  0  0
  1  5  1  0  0  0
  2  3  1  0  0  0
  2  7  2  0  0  0
  3  4  1  0  0  0
  3 10  1  0  0  0
  3 22  1  0  0  0
  4  5  1  0  0  0
  5  6  2  0  0  0
 10 11  2  0  0  0
 10 15  1  0  0  0
 11 12  1  0  0  0
 12 13  2  0  0  0
 13 14  1  0  0  0
 13 16  1  0  0  0
 14 15  2  0  0  0
 16 17  2  0  0  0
 16 21  1  0  0  0
 17 18  1  0  0  0
 18 19  2  0  0  0
 19 20  1  0  0  0
 20 21  2  0  0  0
 23 24  2  0  0  0
 23 25  1  0  0  0
 23 22  1  0  0  0
 24 27  1  0  0  0
 25 26  1  0  0  0
 25 32  2  0  0  0
 26 27  2  0  0  0
 26 31  1  0  0  0
 27 28  1  0  0  0
 28 29  2  0  0  0
 29 30  1  0  0  0
 30 31  2  0  0  0
 30 33  1  0  0  0
 33 34  1  0  0  0
  1  8  1  0  0  0
  4  9  1  0  0  0
M  CHG 1  23   1
M  END
> <minimizedAffinity>
-7.64940

$$$$
3LEA_Z93_A_1


 34 38  0  0  0  0  0  0  0  0999 V2000
   15.4945   17.8582   -7.6912 N   0  0  0  0  0  0  0  0  0  0  0  0
   16.0561   17.0325   -6.7440 C   0  0  0  0  0  0  0  0  0  0  0  0
   16.6516   15.7618   -7.4346 C   0  0  0  0  0  0  0  0  0  0  0  0
   16.3849   16.1399   -8.8333 N   0  0  0  0  0  0  0  0  0  0  0  0
   15.6917   17.3871   -8.9599 C   0  0  0  0  0  0  0  0  0  0  0  0
   15.3090   17.9968   -9.9837 O   0  0  0  0  0  0  0  0  0  0  0  0
   16.0313   17.2206   -5.5373 O   0  0  0  0  0  0  0  0  0  0  0  0
   15.0091   18.6884   -7.4806 H   0  0  0  0  0  0  0  0  0  0  0  0
   16.6560   15.5904   -9.6039 H   0  0  0  0  0  0  0  0  0  0  0  0
   18.1501   15.7154   -7.2362 C   0  0  0  0  0  0  0  0  0  0  0  0
   18.7091   15.2486   -6.0115 C   0  0  0  0  0  0  0  0  0  0  0  0
   20.1018   15.2286   -5.8258 C   0  0  0  0  0  0  0  0  0  0  0  0
   20.9852   15.6771   -6.8458 C   0  0  0  0  0  0  0  0  0  0  0  0
   20.4452   16.1705   -8.0698 C   0  0  0  0  0  0  0  0  0  0  0  0
   19.0465   16.1846   -8.2721 C   0  0  0  0  0  0  0  0  0  0  0  0
   22.4520   15.6450   -6.6496 C   0  0  0  0  0  0  0  0  0  0  0  0
   23.3364   14.8891   -7.4907 C   0  0  0  0  0  0  0  0  0  0  0  0
   24.7266   14.8911   -7.2851 C   0  0  0  0  0  0  0  0  0  0  0  0
   25.2352   15.6609   -6.2438 C   0  0  0  0  0  0  0  0  0  0  0  0
   24.4640   16.4217   -5.4099 N   0  0  0  0  0  0  0  0  0  0  0  0
   23.0916   16.4005   -5.6294 C   0  0  0  0  0  0  0  0  0  0  0  0
   15.8188   14.4999   -6.8755 C   0  0  0  0  0  0  0  0  0  0  0  0
   14.8713   14.1125   -7.9265 N   0  0  0  0  0  0  0  0  0  0  0  0
   13.4664   14.5716   -7.9798 C   0  0  0  0  0  0  0  0  0  0  0  0
   15.2887   13.4242   -9.0800 C   0  0  0  0  0  0  0  0  0  0  0  0
   14.1085   13.3499   -9.9752 C   0  0  0  0  0  0  0  0  0  0  0  0
   13.0300   14.0415   -9.3083 C   0  0  0  0  0  0  0  0  0  0  0  0
   11.7651   14.1471   -9.8755 C   0  0  0  0  0  0  0  0  0  0  0  0
   11.6061   13.5539  -11.1574 C   0  0  0  0  0  0  0  0  0  0  0  0
   12.6699   12.8575  -11.8383 C   0  0  0  0  0  0  0  0  0  0  0  0
   13.9597   12.7397  -11.2590 C   0  0  0  0  0  0  0  0  0  0  0  0
   16.3873   12.9467   -9.2892 O   0  0  0  0  0  0  0  0  0  0  0  0
   12.4948   12.2030  -13.0677 O   0  0  0  0  0  0  0  0  0  0  0  0
   13.6274   12.1336  -13.9786 C   0  0  0  0  0  0  0  0  0  0  0  0
  1  2  1  0  0  0
  1  5  1  0  0  0
  2  3  1  0  0  0
  2  7  2  0  0  0
  3  4  1  0  0  0
  3 10  1  0  0  0
  3 22  1  0  0  0
  4  5  1  0  0  0
  5  6  2  0  0  0
 10 11  2  0  0  0
 10 15  1  0  0  0
 11 12  1  0  0  0
 12 13  2  0  0  0
 13 14  1  0  0  0
 13 16  1  0  0  0
 14 15  2  0  0  0
 16 17  2  0  0  0
 16 21  1  0  0  0
 17 18  1  0  0  0
 18 19  2  0  0  0
 19 20  1  0  0  0
 20 21  2  0  0  0
 23 24  2  0  0  0
 23 25  1  0  0  0
 23 22  1  0  0  0
 24 27  1  0  0  0
 25 26  1  0  0  0
 25 32  2  0  0  0
 26 27  2  0  0  0
 26 31  1  0  0  0
 27 28  1  0  0  0
 28 29  2  0  0  0
 29 30  1  0  0  0
 30 31  2  0  0  0
 30 33  1  0  0  0
 33 34  1  0  0  0
  1  8  1  0  0  0
  4  9  1  0  0  0
M  CHG 1  23   1
M  END
> <minimizedAffinity>
-7.64595

$$$$
3LEA_Z93_A_1


 34 38  0  0  0  0  0  0  0  0999 V2000
   15.6499   12.4531   -7.1732 N   0  0  0  0  0  0  0  0  0  0  0  0
   16.3083   13.3909   -7.9356 C   0  0  0  0  0  0  0  0  0  0  0  0
   16.6211   14.6543   -7.0683 C   0  0  0  0  0  0  0  0  0  0  0  0
   16.1134   14.1537   -5.7792 N   0  0  0  0  0  0  0  0  0  0  0  0
   15.5362   12.8455   -5.8680 C   0  0  0  0  0  0  0  0  0  0  0  0
   15.0150   12.1322   -4.9816 O   0  0  0  0  0  0  0  0  0  0  0  0
   16.5491   13.2900   -9.1290 O   0  0  0  0  0  0  0  0  0  0  0  0
   15.3025   11.6018   -7.5252 H   0  0  0  0  0  0  0  0  0  0  0  0
   16.1656   14.6667   -4.9405 H   0  0  0  0  0  0  0  0  0  0  0  0
   18.1164   14.8437   -6.9448 C   0  0  0  0  0  0  0  0  0  0  0  0
   18.8011   14.4789   -5.7497 C   0  0  0  0  0  0  0  0  0  0  0  0
   20.1873   14.6778   -5.6337 C   0  0  0  0  0  0  0  0  0  0  0  0
   20.9385   15.2509   -6.6963 C   0  0  0  0  0  0  0  0  0  0  0  0
   20.2684   15.6450   -7.8917 C   0  0  0  0  0  0  0  0  0  0  0  0
   18.8764   15.4393   -8.0239 C   0  0  0  0  0  0  0  0  0  0  0  0
   22.4002   15.4494   -6.5735 C   0  0  0  0  0  0  0  0  0  0  0  0
   23.3491   14.8363   -7.4592 C   0  0  0  0  0  0  0  0  0  0  0  0
   24.7303   15.0565   -7.3230 C   0  0  0  0  0  0  0  0  0  0  0  0
   25.1633   15.9022   -6.3067 C   0  0  0  0  0  0  0  0  0  0  0  0
   24.3249   16.5379   -5.4338 N   0  0  0  0  0  0  0  0  0  0  0  0
   22.9636   16.3013   -5.5847 C   0  0  0  0  0  0  0  0  0  0  0  0
   15.7990   15.8774   -7.7216 C   0  0  0  0  0  0  0  0  0  0  0  0
   15.8064   16.9697   -6.7422 N   0  0  0  0  0  0  0  0  0  0  0  0
   16.7095   18.1385   -6.8178 C   0  0  0  0  0  0  0  0  0  0  0  0
   14.8107   17.0834   -5.7552 C   0  0  0  0  0  0  0  0  0  0  0  0
   15.0483   18.3747   -5.0653 C   0  0  0  0  0  0  0  0  0  0  0  0
   16.1811   18.9952   -5.7117 C   0  0  0  0  0  0  0  0  0  0  0  0
   16.6798   20.2246   -5.2960 C   0  0  0  0  0  0  0  0  0  0  0  0
   15.9942   20.8409   -4.2141 C   0  0  0  0  0  0  0  0  0  0  0  0
   14.8628   20.2366   -3.5545 C   0  0  0  0  0  0  0  0  0  0  0  0
   14.3563   18.9779   -3.9699 C   0  0  0  0  0  0  0  0  0  0  0  0
   13.9484   16.2684   -5.4890 O   0  0  0  0  0  0  0  0  0  0  0  0
   14.2331   20.8049   -2.4361 O   0  0  0  0  0  0  0  0  0  0  0  0
   14.7229   20.4465   -1.1136 C   0  0  0  0  0  0  0  0  0  0  0  0
  1  2  1  0  0  0
  1  5  1  0  0  0
  2  3  1  0  0  0
  2  7  2  0  0  0
  3  4  1  0  0  0
  3 10  1  0  0  0
  3 22  1  0  0  0
  4  5  1  0  0  0
  5  6  2  0  0  0
 10 11  2  0  0  0
 10 15  1  0  0  0
 11 12  1  0  0  0
 12 13  2  0  0  0
 13 14  1  0  0  0
 13 16  1  0  0  0
 14 15  2  0  0  0
 16 17  2  0  0  0
 16 21  1  0  0  0
 17 18  1  0  0  0
 18 19  2  0  0  0
 19 20  1  0  0  0
 20 21  2  0  0  0
 23 24  2  0  0  0
 23 25  1  0  0  0
 23 22  1  0  0  0
 24 27  1  0  0  0
 25 26  1  0  0  0
 25 32  2  0  0  0
 26 27  2  0  0  0
 26 31  1  0  0  0
 27 28  1  0  0  0
 28 29  2  0  0  0
 29 30  1  0  0  0
 30 31  2  0  0  0
 30 33  1  0  0  0
 33 34  1  0  0  0
  1  8  1  0  0  0
  4  9  1  0  0  0
M  CHG 1  23   1
M  END
> <minimizedAffinity>
-7.52400

$$$$
3LEA_Z93_A_1


 34 38  0  0  0  0  0  0  0  0999 V2000
   15.7380   16.7559   -6.9640 N   0  0  0  0  0  0  0  0  0  0  0  0
   16.0907   15.5267   -7.4726 C   0  0  0  0  0  0  0  0  0  0  0  0
   17.4502   15.0663   -6.8513 C   0  0  0  0  0  0  0  0  0  0  0  0
   17.6429   16.1881   -5.9159 N   0  0  0  0  0  0  0  0  0  0  0  0
   16.6152   17.1821   -6.0053 C   0  0  0  0  0  0  0  0  0  0  0  0
   16.4700   18.2511   -5.3709 O   0  0  0  0  0  0  0  0  0  0  0  0
   15.4781   14.9154   -8.3348 O   0  0  0  0  0  0  0  0  0  0  0  0
   14.9487   17.2672   -7.2555 H   0  0  0  0  0  0  0  0  0  0  0  0
   18.4020   16.2485   -5.2919 H   0  0  0  0  0  0  0  0  0  0  0  0
   17.2515   13.8052   -6.0406 C   0  0  0  0  0  0  0  0  0  0  0  0
   16.0256   13.0820   -6.1062 C   0  0  0  0  0  0  0  0  0  0  0  0
   15.8397   11.9230   -5.3336 C   0  0  0  0  0  0  0  0  0  0  0  0
   16.8608   11.4473   -4.4660 C   0  0  0  0  0  0  0  0  0  0  0  0
   18.0862   12.1698   -4.3676 C   0  0  0  0  0  0  0  0  0  0  0  0
   18.2885   13.3304   -5.1484 C   0  0  0  0  0  0  0  0  0  0  0  0
   16.6644   10.2203   -3.6615 C   0  0  0  0  0  0  0  0  0  0  0  0
   15.4714    9.4247   -3.7286 C   0  0  0  0  0  0  0  0  0  0  0  0
   15.3225    8.2572   -2.9606 C   0  0  0  0  0  0  0  0  0  0  0  0
   16.3743    7.8771   -2.1331 C   0  0  0  0  0  0  0  0  0  0  0  0
   17.5487    8.5685   -2.0251 N   0  0  0  0  0  0  0  0  0  0  0  0
   17.6714    9.7223   -2.7904 C   0  0  0  0  0  0  0  0  0  0  0  0
   18.5051   14.9738   -8.0667 C   0  0  0  0  0  0  0  0  0  0  0  0
   19.8085   15.3867   -7.5345 N   0  0  0  0  0  0  0  0  0  0  0  0
   19.9771   16.2935   -6.3783 C   0  0  0  0  0  0  0  0  0  0  0  0
   21.0060   14.7896   -7.9681 C   0  0  0  0  0  0  0  0  0  0  0  0
   22.0836   15.3360   -7.1080 C   0  0  0  0  0  0  0  0  0  0  0  0
   21.4554   16.2284   -6.1619 C   0  0  0  0  0  0  0  0  0  0  0  0
   22.1918   16.9240   -5.2097 C   0  0  0  0  0  0  0  0  0  0  0  0
   23.5931   16.6859   -5.2105 C   0  0  0  0  0  0  0  0  0  0  0  0
   24.2391   15.8004   -6.1480 C   0  0  0  0  0  0  0  0  0  0  0  0
   23.4923   15.0956   -7.1272 C   0  0  0  0  0  0  0  0  0  0  0  0
   21.1419   14.0102   -8.8916 O   0  0  0  0  0  0  0  0  0  0  0  0
   25.6306   15.6237   -6.2028 O   0  0  0  0  0  0  0  0  0  0  0  0
   26.4742   16.5753   -5.4956 C   0  0  0  0  0  0  0  0  0  0  0  0
  1  2  1  0  0  0
  1  5  1  0  0  0
  2  3  1  0  0  0
  2  7  2  0  0  0
  3  4  1  0  0  0
  3 10  1  0  0  0
  3 22  1  0  0  0
  4  5  1  0  0  0
  5  6  2  0  0  0
 10 11  2  0  0  0
 10 15  1  0  0  0
 11 12  1  0  0  0
 12 13  2  0  0  0
 13 14  1  0  0  0
 13 16  1  0  0  0
 14 15  2  0  0  0
 16 17  2  0  0  0
 16 21  1  0  0  0
 17 18  1  0  0  0
 18 19  2  0  0  0
 19 20  1  0  0  0
 20 21  2  0  0  0
 23 24  2  0  0  0
 23 25  1  0  0  0
 23 22  1  0  0  0
 24 27  1  0  0  0
 25 26  1  0  0  0
 25 32  2  0  0  0
 26 27  2  0  0  0
 26 31  1  0  0  0
 27 28  1  0  0  0
 28 29  2  0  0  0
 29 30  1  0  0  0
 30 31  2  0  0  0
 30 33  1  0  0  0
 33 34  1  0  0  0
  1  8  1  0  0  0
  4  9  1  0  0  0
M  CHG 1  23   1
M  END
> <minimizedAffinity>
-7.49714

$$$$
3LEA_Z93_A_1


 34 38  0  0  0  0  0  0  0  0999 V2000
   15.1192   16.6133   -6.9041 N   0  0  0  0  0  0  0  0  0  0  0  0
   15.8630   15.5737   -6.3940 C   0  0  0  0  0  0  0  0  0  0  0  0
   16.6793   14.8930   -7.5414 C   0  0  0  0  0  0  0  0  0  0  0  0
   16.3002   15.8033   -8.6359 N   0  0  0  0  0  0  0  0  0  0  0  0
   15.3680   16.8141   -8.2338 C   0  0  0  0  0  0  0  0  0  0  0  0
   14.8402   17.7343   -8.8977 O   0  0  0  0  0  0  0  0  0  0  0  0
   15.8378   15.1875   -5.2353 O   0  0  0  0  0  0  0  0  0  0  0  0
   14.4841   17.1482   -6.3752 H   0  0  0  0  0  0  0  0  0  0  0  0
   16.6522   15.7248   -9.5520 H   0  0  0  0  0  0  0  0  0  0  0  0
   18.1622   15.0505   -7.2894 C   0  0  0  0  0  0  0  0  0  0  0  0
   18.7277   16.3354   -7.0457 C   0  0  0  0  0  0  0  0  0  0  0  0
   20.1097   16.4771   -6.8340 C   0  0  0  0  0  0  0  0  0  0  0  0
   20.9765   15.3504   -6.8635 C   0  0  0  0  0  0  0  0  0  0  0  0
   20.4339   14.0588   -7.1294 C   0  0  0  0  0  0  0  0  0  0  0  0
   19.0440   13.9027   -7.3326 C   0  0  0  0  0  0  0  0  0  0  0  0
   22.4302   15.5030   -6.6300 C   0  0  0  0  0  0  0  0  0  0  0  0
   23.4236   14.8505   -7.4351 C   0  0  0  0  0  0  0  0  0  0  0  0
   24.7969   15.0276   -7.1946 C   0  0  0  0  0  0  0  0  0  0  0  0
   25.1781   15.8694   -6.1547 C   0  0  0  0  0  0  0  0  0  0  0  0
   24.2965   16.5408   -5.3540 N   0  0  0  0  0  0  0  0  0  0  0  0
   22.9438   16.3466   -5.6075 C   0  0  0  0  0  0  0  0  0  0  0  0
   16.1332   13.3812   -7.6619 C   0  0  0  0  0  0  0  0  0  0  0  0
   15.1006   13.3809   -8.7041 N   0  0  0  0  0  0  0  0  0  0  0  0
   15.3545   13.0206  -10.1159 C   0  0  0  0  0  0  0  0  0  0  0  0
   13.7377   13.5371   -8.3935 C   0  0  0  0  0  0  0  0  0  0  0  0
   12.9913   13.3239   -9.6573 C   0  0  0  0  0  0  0  0  0  0  0  0
   13.9676   13.0128  -10.6754 C   0  0  0  0  0  0  0  0  0  0  0  0
   13.5998   12.7678  -11.9935 C   0  0  0  0  0  0  0  0  0  0  0  0
   12.2067   12.8201  -12.2711 C   0  0  0  0  0  0  0  0  0  0  0  0
   11.2169   13.1309  -11.2690 C   0  0  0  0  0  0  0  0  0  0  0  0
   11.5890   13.3904   -9.9246 C   0  0  0  0  0  0  0  0  0  0  0  0
   13.2628   13.8294   -7.3128 O   0  0  0  0  0  0  0  0  0  0  0  0
    9.8491   13.2609  -11.5560 O   0  0  0  0  0  0  0  0  0  0  0  0
    9.3255   14.5911  -11.8276 C   0  0  0  0  0  0  0  0  0  0  0  0
  1  2  1  0  0  0
  1  5  1  0  0  0
  2  3  1  0  0  0
  2  7  2  0  0  0
  3  4  1  0  0  0
  3 10  1  0  0  0
  3 22  1  0  0  0
  4  5  1  0  0  0
  5  6  2  0  0  0
 10 11  2  0  0  0
 10 15  1  0  0  0
 11 12  1  0  0  0
 12 13  2  0  0  0
 13 14  1  0  0  0
 13 16  1  0  0  0
 14 15  2  0  0  0
 16 17  2  0  0  0
 16 21  1  0  0  0
 17 18  1  0  0  0
 18 19  2  0  0  0
 19 20  1  0  0  0
 20 21  2  0  0  0
 23 24  2  0  0  0
 23 25  1  0  0  0
 23 22  1  0  0  0
 24 27  1  0  0  0
 25 26  1  0  0  0
 25 32  2  0  0  0
 26 27  2  0  0  0
 26 31  1  0  0  0
 27 28  1  0  0  0
 28 29  2  0  0  0
 29 30  1  0  0  0
 30 31  2  0  0  0
 30 33  1  0  0  0
 33 34  1  0  0  0
  1  8  1  0  0  0
  4  9  1  0  0  0
M  CHG 1  23   1
M  END
> <minimizedAffinity>
-7.14394

$$$$
3LEA_Z93_A_1


 34 38  0  0  0  0  0  0  0  0999 V2000
   21.0660   13.2148   -6.7035 N   0  0  0  0  0  0  0  0  0  0  0  0
   19.9285   13.2036   -5.9289 C   0  0  0  0  0  0  0  0  0  0  0  0
   18.8939   14.2327   -6.4916 C   0  0  0  0  0  0  0  0  0  0  0  0
   19.6492   14.6582   -7.6828 N   0  0  0  0  0  0  0  0  0  0  0  0
   20.9392   14.0435   -7.7841 C   0  0  0  0  0  0  0  0  0  0  0  0
   21.8303   14.1775   -8.6524 O   0  0  0  0  0  0  0  0  0  0  0  0
   19.7722   12.5467   -4.9109 O   0  0  0  0  0  0  0  0  0  0  0  0
   21.8742   12.6893   -6.5038 H   0  0  0  0  0  0  0  0  0  0  0  0
   19.3021   15.3007   -8.3431 H   0  0  0  0  0  0  0  0  0  0  0  0
   17.6460   13.5154   -6.9559 C   0  0  0  0  0  0  0  0  0  0  0  0
   16.7748   12.8880   -6.0192 C   0  0  0  0  0  0  0  0  0  0  0  0
   15.6286   12.2045   -6.4593 C   0  0  0  0  0  0  0  0  0  0  0  0
   15.3126   12.1154   -7.8428 C   0  0  0  0  0  0  0  0  0  0  0  0
   16.1842   12.7160   -8.7981 C   0  0  0  0  0  0  0  0  0  0  0  0
   17.3338   13.4157   -8.3663 C   0  0  0  0  0  0  0  0  0  0  0  0
   14.0987   11.4029   -8.3012 C   0  0  0  0  0  0  0  0  0  0  0  0
   13.0621   10.9706   -7.4072 C   0  0  0  0  0  0  0  0  0  0  0  0
   11.9153   10.3080   -7.8772 C   0  0  0  0  0  0  0  0  0  0  0  0
   11.7986   10.0885   -9.2460 C   0  0  0  0  0  0  0  0  0  0  0  0
   12.7308   10.4837  -10.1646 N   0  0  0  0  0  0  0  0  0  0  0  0
   13.8586   11.1329   -9.6760 C   0  0  0  0  0  0  0  0  0  0  0  0
   18.6896   15.3526   -5.3503 C   0  0  0  0  0  0  0  0  0  0  0  0
   17.6966   16.3056   -5.8585 N   0  0  0  0  0  0  0  0  0  0  0  0
   16.3283   16.4396   -5.3131 C   0  0  0  0  0  0  0  0  0  0  0  0
   18.0403   17.3073   -6.7840 C   0  0  0  0  0  0  0  0  0  0  0  0
   16.8411   18.1663   -6.9385 C   0  0  0  0  0  0  0  0  0  0  0  0
   15.8291   17.6397   -6.0526 C   0  0  0  0  0  0  0  0  0  0  0  0
   14.5649   18.2109   -5.9619 C   0  0  0  0  0  0  0  0  0  0  0  0
   14.3385   19.3544   -6.7752 C   0  0  0  0  0  0  0  0  0  0  0  0
   15.3352   19.8939   -7.6674 C   0  0  0  0  0  0  0  0  0  0  0  0
   16.6237   19.3085   -7.7696 C   0  0  0  0  0  0  0  0  0  0  0  0
   19.0967   17.4261   -7.3745 O   0  0  0  0  0  0  0  0  0  0  0  0
   15.0893   20.9740   -8.5294 O   0  0  0  0  0  0  0  0  0  0  0  0
   15.2168   20.7547   -9.9623 C   0  0  0  0  0  0  0  0  0  0  0  0
  1  2  1  0  0  0
  1  5  1  0  0  0
  2  3  1  0  0  0
  2  7  2  0  0  0
  3  4  1  0  0  0
  3 10  1  0  0  0
  3 22  1  0  0  0
  4  5  1  0  0  0
  5  6  2  0  0  0
 10 11  2  0  0  0
 10 15  1  0  0  0
 11 12  1  0  0  0
 12 13  2  0  0  0
 13 14  1  0  0  0
 13 16  1  0  0  0
 14 15  2  0  0  0
 16 17  2  0  0  0
 16 21  1  0  0  0
 17 18  1  0  0  0
 18 19  2  0  0  0
 19 20  1  0  0  0
 20 21  2  0  0  0
 23 24  2  0  0  0
 23 25  1  0  0  0
 23 22  1  0  0  0
 24 27  1  0  0  0
 25 26  1  0  0  0
 25 32  2  0  0  0
 26 27  2  0  0  0
 26 31  1  0  0  0
 27 28  1  0  0  0
 28 29  2  0  0  0
 29 30  1  0  0  0
 30 31  2  0  0  0
 30 33  1  0  0  0
 33 34  1  0  0  0
  1  8  1  0  0  0
  4  9  1  0  0  0
M  CHG 1  23   1
M  END
> <minimizedAffinity>
-7.09723

$$$$
