6F28_CG8_A_302


 22 23  0  0  0  0  0  0  0  0999 V2000
  -44.7804  -22.9743  -20.9218 O   0  0  0  0  0  0  0  0  0  0  0  0
  -48.2910  -21.5285  -16.4205 N   0  0  0  0  0  0  0  0  0  0  0  0
  -47.0585  -21.0353  -17.0636 C   0  0  0  0  0  0  0  0  0  0  0  0
  -48.7374  -22.7694  -17.0841 C   0  0  0  0  0  0  0  0  0  0  0  0
  -48.2032  -21.6077  -14.9679 C   0  0  0  0  0  0  0  0  0  0  0  0
  -46.6554  -23.9374  -20.0684 N   0  0  0  0  0  0  0  0  0  0  0  0
  -45.7644  -21.9399  -19.0834 N   0  0  0  0  0  0  0  0  0  0  0  0
  -47.7415  -22.9646  -18.1851 C   0  0  0  0  0  0  0  0  0  0  0  0
  -47.7229  -24.0297  -19.1687 C   0  0  0  0  0  0  0  0  0  0  0  0
  -45.6724  -22.9469  -20.0737 C   0  0  0  0  0  0  0  0  0  0  0  0
  -46.8141  -22.0151  -18.1814 C   0  0  0  0  0  0  0  0  0  0  0  0
  -48.5348  -24.9497  -19.2473 O   0  0  0  0  0  0  0  0  0  0  0  0
  -46.5919  -24.6346  -20.7606 H   0  0  0  0  0  0  0  0  0  0  0  0
  -44.7525  -20.9080  -19.0606 C   0  0  0  0  0  0  0  0  0  0  0  0
  -43.4877  -21.2804  -18.2310 C   0  0  0  0  0  0  0  0  0  0  0  0
  -43.7899  -21.3680  -16.7929 N   0  0  0  0  0  0  0  0  0  0  0  0
  -44.0785  -20.4518  -16.4497 H   0  0  0  0  0  0  0  0  0  0  0  0
  -42.9575  -21.6732  -16.2885 H   0  0  0  0  0  0  0  0  0  0  0  0
  -42.3291  -20.2914  -18.4199 C   0  0  0  0  0  0  0  0  0  0  0  0
  -41.8570  -19.7271  -17.4086 O   0  0  0  0  0  0  0  0  0  0  0  0
  -41.9072  -20.0914  -19.5764 O   0  0  0  0  0  0  0  0  0  0  0  0
  -42.2104  -19.9125  -16.5608 H   0  0  0  0  0  0  0  0  0  0  0  0
  1 10  2  0  0  0
 10  6  1  0  0  0
 10  7  1  0  0  0
  6  9  1  0  0  0
 21 19  2  0  0  0
 12  9  2  0  0  0
  9  8  1  0  0  0
  7 14  1  0  0  0
  7 11  1  0  0  0
 14 15  1  0  0  0
 19 15  1  0  0  0
 19 20  1  0  0  0
 15 16  1  0  0  0
 11  8  2  0  0  0
 11  3  1  0  0  0
  8  4  1  0  0  0
  3  2  1  0  0  0
  4  2  1  0  0  0
  2  5  1  0  0  0
  6 13  1  0  0  0
 16 17  1  0  0  0
 16 18  1  0  0  0
 20 22  1  0  0  0
M  END
> <minimizedAffinity>
-9.50281

$$$$
6F28_CG8_A_302


 22 23  0  0  0  0  0  0  0  0999 V2000
  -46.9064  -20.1201  -16.5077 O   0  0  0  0  0  0  0  0  0  0  0  0
  -46.9521  -24.5052  -20.4378 N   0  0  0  0  0  0  0  0  0  0  0  0
  -46.1480  -23.3085  -20.1264 C   0  0  0  0  0  0  0  0  0  0  0  0
  -48.0988  -24.5901  -19.5119 C   0  0  0  0  0  0  0  0  0  0  0  0
  -47.2933  -24.6315  -21.8490 C   0  0  0  0  0  0  0  0  0  0  0  0
  -48.3116  -21.8794  -16.8265 N   0  0  0  0  0  0  0  0  0  0  0  0
  -46.4213  -21.5628  -18.2689 N   0  0  0  0  0  0  0  0  0  0  0  0
  -47.9117  -23.4158  -18.6019 C   0  0  0  0  0  0  0  0  0  0  0  0
  -48.7501  -23.0352  -17.4819 C   0  0  0  0  0  0  0  0  0  0  0  0
  -47.1901  -21.1214  -17.1654 C   0  0  0  0  0  0  0  0  0  0  0  0
  -46.8407  -22.7050  -18.9325 C   0  0  0  0  0  0  0  0  0  0  0  0
  -49.7591  -23.6282  -17.1051 O   0  0  0  0  0  0  0  0  0  0  0  0
  -48.8426  -21.5730  -16.0561 H   0  0  0  0  0  0  0  0  0  0  0  0
  -45.2603  -20.7893  -18.6472 C   0  0  0  0  0  0  0  0  0  0  0  0
  -43.9268  -21.3069  -18.0303 C   0  0  0  0  0  0  0  0  0  0  0  0
  -44.0021  -21.3805  -16.5620 N   0  0  0  0  0  0  0  0  0  0  0  0
  -44.1307  -20.4432  -16.1807 H   0  0  0  0  0  0  0  0  0  0  0  0
  -43.1377  -21.7804  -16.1968 H   0  0  0  0  0  0  0  0  0  0  0  0
  -42.7131  -20.4462  -18.4074 C   0  0  0  0  0  0  0  0  0  0  0  0
  -42.0173  -19.9625  -17.4877 O   0  0  0  0  0  0  0  0  0  0  0  0
  -42.4721  -20.2647  -19.6176 O   0  0  0  0  0  0  0  0  0  0  0  0
  -42.2415  -20.1292  -16.5933 H   0  0  0  0  0  0  0  0  0  0  0  0
  1 10  2  0  0  0
 10  6  1  0  0  0
 10  7  1  0  0  0
  6  9  1  0  0  0
 21 19  2  0  0  0
 12  9  2  0  0  0
  9  8  1  0  0  0
  7 14  1  0  0  0
  7 11  1  0  0  0
 14 15  1  0  0  0
 19 15  1  0  0  0
 19 20  1  0  0  0
 15 16  1  0  0  0
 11  8  2  0  0  0
 11  3  1  0  0  0
  8  4  1  0  0  0
  3  2  1  0  0  0
  4  2  1  0  0  0
  2  5  1  0  0  0
  6 13  1  0  0  0
 16 17  1  0  0  0
 16 18  1  0  0  0
 20 22  1  0  0  0
M  END
> <minimizedAffinity>
-8.89839

$$$$
6F28_CG8_A_302


 22 23  0  0  0  0  0  0  0  0999 V2000
  -47.4143  -21.2790  -15.3666 O   0  0  0  0  0  0  0  0  0  0  0  0
  -45.9265  -21.6620  -21.0513 N   0  0  0  0  0  0  0  0  0  0  0  0
  -47.1141  -21.8752  -20.2029 C   0  0  0  0  0  0  0  0  0  0  0  0
  -44.7740  -21.2840  -20.2097 C   0  0  0  0  0  0  0  0  0  0  0  0
  -45.6714  -22.7498  -21.9871 C   0  0  0  0  0  0  0  0  0  0  0  0
  -45.4538  -20.9324  -16.4656 N   0  0  0  0  0  0  0  0  0  0  0  0
  -47.4176  -21.5962  -17.6726 N   0  0  0  0  0  0  0  0  0  0  0  0
  -45.3431  -21.2324  -18.8257 C   0  0  0  0  0  0  0  0  0  0  0  0
  -44.6429  -20.8843  -17.6047 C   0  0  0  0  0  0  0  0  0  0  0  0
  -46.8065  -21.2740  -16.4372 C   0  0  0  0  0  0  0  0  0  0  0  0
  -46.6302  -21.5562  -18.8125 C   0  0  0  0  0  0  0  0  0  0  0  0
  -43.4558  -20.5754  -17.5200 O   0  0  0  0  0  0  0  0  0  0  0  0
  -45.0317  -20.7046  -15.6058 H   0  0  0  0  0  0  0  0  0  0  0  0
  -48.8155  -21.9638  -17.6693 C   0  0  0  0  0  0  0  0  0  0  0  0
  -49.0671  -23.4937  -17.5179 C   0  0  0  0  0  0  0  0  0  0  0  0
  -48.3690  -24.0437  -16.3444 N   0  0  0  0  0  0  0  0  0  0  0  0
  -47.3616  -23.9465  -16.4716 H   0  0  0  0  0  0  0  0  0  0  0  0
  -48.6048  -25.0306  -16.2402 H   0  0  0  0  0  0  0  0  0  0  0  0
  -48.6420  -24.3004  -18.7527 C   0  0  0  0  0  0  0  0  0  0  0  0
  -47.5529  -24.9141  -18.7170 O   0  0  0  0  0  0  0  0  0  0  0  0
  -49.4019  -24.3091  -19.7416 O   0  0  0  0  0  0  0  0  0  0  0  0
  -47.0181  -24.8752  -17.9485 H   0  0  0  0  0  0  0  0  0  0  0  0
  1 10  2  0  0  0
 10  6  1  0  0  0
 10  7  1  0  0  0
  6  9  1  0  0  0
 21 19  2  0  0  0
 12  9  2  0  0  0
  9  8  1  0  0  0
  7 14  1  0  0  0
  7 11  1  0  0  0
 14 15  1  0  0  0
 19 15  1  0  0  0
 19 20  1  0  0  0
 15 16  1  0  0  0
 11  8  2  0  0  0
 11  3  1  0  0  0
  8  4  1  0  0  0
  3  2  1  0  0  0
  4  2  1  0  0  0
  2  5  1  0  0  0
  6 13  1  0  0  0
 16 17  1  0  0  0
 16 18  1  0  0  0
 20 22  1  0  0  0
M  END
> <minimizedAffinity>
-7.64043

$$$$
6F28_CG8_A_302


 22 23  0  0  0  0  0  0  0  0999 V2000
  -48.7827  -22.5608  -19.8172 O   0  0  0  0  0  0  0  0  0  0  0  0
  -43.3501  -21.2028  -17.9955 N   0  0  0  0  0  0  0  0  0  0  0  0
  -44.7430  -21.0320  -17.5415 C   0  0  0  0  0  0  0  0  0  0  0  0
  -43.3331  -21.8736  -19.3105 C   0  0  0  0  0  0  0  0  0  0  0  0
  -42.5547  -19.9840  -17.9189 C   0  0  0  0  0  0  0  0  0  0  0  0
  -46.7287  -22.8990  -20.7327 N   0  0  0  0  0  0  0  0  0  0  0  0
  -46.9440  -21.7830  -18.6203 N   0  0  0  0  0  0  0  0  0  0  0  0
  -44.7788  -22.1400  -19.5950 C   0  0  0  0  0  0  0  0  0  0  0  0
  -45.3328  -22.8071  -20.7571 C   0  0  0  0  0  0  0  0  0  0  0  0
  -47.5635  -22.4176  -19.7234 C   0  0  0  0  0  0  0  0  0  0  0  0
  -45.5619  -21.6804  -18.6269 C   0  0  0  0  0  0  0  0  0  0  0  0
  -44.6883  -23.2607  -21.7008 O   0  0  0  0  0  0  0  0  0  0  0  0
  -47.1613  -23.3438  -21.4971 H   0  0  0  0  0  0  0  0  0  0  0  0
  -47.7872  -21.2661  -17.5662 C   0  0  0  0  0  0  0  0  0  0  0  0
  -48.5766  -22.3634  -16.7920 C   0  0  0  0  0  0  0  0  0  0  0  0
  -50.0311  -22.1782  -16.9233 N   0  0  0  0  0  0  0  0  0  0  0  0
  -50.3018  -21.2947  -16.4914 H   0  0  0  0  0  0  0  0  0  0  0  0
  -50.5150  -22.9463  -16.4582 H   0  0  0  0  0  0  0  0  0  0  0  0
  -48.2310  -22.4145  -15.2973 C   0  0  0  0  0  0  0  0  0  0  0  0
  -48.2049  -23.5288  -14.7300 O   0  0  0  0  0  0  0  0  0  0  0  0
  -47.9911  -21.3405  -14.7105 O   0  0  0  0  0  0  0  0  0  0  0  0
  -48.3931  -24.3070  -15.2168 H   0  0  0  0  0  0  0  0  0  0  0  0
  1 10  2  0  0  0
 10  6  1  0  0  0
 10  7  1  0  0  0
  6  9  1  0  0  0
 21 19  2  0  0  0
 12  9  2  0  0  0
  9  8  1  0  0  0
  7 14  1  0  0  0
  7 11  1  0  0  0
 14 15  1  0  0  0
 19 15  1  0  0  0
 19 20  1  0  0  0
 15 16  1  0  0  0
 11  8  2  0  0  0
 11  3  1  0  0  0
  8  4  1  0  0  0
  3  2  1  0  0  0
  4  2  1  0  0  0
  2  5  1  0  0  0
  6 13  1  0  0  0
 16 17  1  0  0  0
 16 18  1  0  0  0
 20 22  1  0  0  0
M  END
> <minimizedAffinity>
-6.79748

$$$$
6F28_CG8_A_302


 22 23  0  0  0  0  0  0  0  0999 V2000
  -50.0246  -23.5036  -17.6752 O   0  0  0  0  0  0  0  0  0  0  0  0
  -44.9192  -20.6127  -18.1794 N   0  0  0  0  0  0  0  0  0  0  0  0
  -45.8156  -21.4277  -19.0208 C   0  0  0  0  0  0  0  0  0  0  0  0
  -45.4494  -20.5481  -16.8031 C   0  0  0  0  0  0  0  0  0  0  0  0
  -43.5158  -20.9929  -18.2783 C   0  0  0  0  0  0  0  0  0  0  0  0
  -48.7786  -22.3202  -16.1858 N   0  0  0  0  0  0  0  0  0  0  0  0
  -48.0424  -22.5653  -18.4556 N   0  0  0  0  0  0  0  0  0  0  0  0
  -46.7301  -21.3205  -16.8764 C   0  0  0  0  0  0  0  0  0  0  0  0
  -47.6739  -21.5528  -15.8005 C   0  0  0  0  0  0  0  0  0  0  0  0
  -49.0094  -22.8412  -17.4596 C   0  0  0  0  0  0  0  0  0  0  0  0
  -46.9397  -21.8081  -18.0929 C   0  0  0  0  0  0  0  0  0  0  0  0
  -47.5623  -21.1452  -14.6459 O   0  0  0  0  0  0  0  0  0  0  0  0
  -49.4544  -22.5098  -15.4955 H   0  0  0  0  0  0  0  0  0  0  0  0
  -48.2528  -23.1024  -19.7810 C   0  0  0  0  0  0  0  0  0  0  0  0
  -48.4444  -24.6480  -19.8142 C   0  0  0  0  0  0  0  0  0  0  0  0
  -47.2221  -25.3542  -19.3968 N   0  0  0  0  0  0  0  0  0  0  0  0
  -46.4734  -25.1601  -20.0616 H   0  0  0  0  0  0  0  0  0  0  0  0
  -47.4016  -26.3580  -19.3704 H   0  0  0  0  0  0  0  0  0  0  0  0
  -48.8571  -25.1755  -21.1953 C   0  0  0  0  0  0  0  0  0  0  0  0
  -47.9627  -25.3882  -22.0432 O   0  0  0  0  0  0  0  0  0  0  0  0
  -50.0695  -25.3694  -21.4143 O   0  0  0  0  0  0  0  0  0  0  0  0
  -47.0652  -25.2261  -21.8281 H   0  0  0  0  0  0  0  0  0  0  0  0
  1 10  2  0  0  0
 10  6  1  0  0  0
 10  7  1  0  0  0
  6  9  1  0  0  0
 21 19  2  0  0  0
 12  9  2  0  0  0
  9  8  1  0  0  0
  7 14  1  0  0  0
  7 11  1  0  0  0
 14 15  1  0  0  0
 19 15  1  0  0  0
 19 20  1  0  0  0
 15 16  1  0  0  0
 11  8  2  0  0  0
 11  3  1  0  0  0
  8  4  1  0  0  0
  3  2  1  0  0  0
  4  2  1  0  0  0
  2  5  1  0  0  0
  6 13  1  0  0  0
 16 17  1  0  0  0
 16 18  1  0  0  0
 20 22  1  0  0  0
M  END
> <minimizedAffinity>
-6.72116

$$$$
6F28_CG8_A_302


 22 23  0  0  0  0  0  0  0  0999 V2000
  -46.2268  -20.5154  -15.9933 O   0  0  0  0  0  0  0  0  0  0  0  0
  -46.3531  -22.7509  -21.4397 N   0  0  0  0  0  0  0  0  0  0  0  0
  -47.2725  -22.5582  -20.3025 C   0  0  0  0  0  0  0  0  0  0  0  0
  -45.0027  -22.2792  -21.0745 C   0  0  0  0  0  0  0  0  0  0  0  0
  -46.4005  -24.0905  -22.0117 C   0  0  0  0  0  0  0  0  0  0  0  0
  -44.6274  -20.7486  -17.5930 N   0  0  0  0  0  0  0  0  0  0  0  0
  -46.8674  -21.5033  -18.0014 N   0  0  0  0  0  0  0  0  0  0  0  0
  -45.1725  -21.7498  -19.6842 C   0  0  0  0  0  0  0  0  0  0  0  0
  -44.1551  -21.1394  -18.8507 C   0  0  0  0  0  0  0  0  0  0  0  0
  -45.9328  -20.9025  -17.1245 C   0  0  0  0  0  0  0  0  0  0  0  0
  -46.4182  -21.8991  -19.2513 C   0  0  0  0  0  0  0  0  0  0  0  0
  -42.9794  -20.9630  -19.1644 O   0  0  0  0  0  0  0  0  0  0  0  0
  -43.9798  -20.3267  -16.9831 H   0  0  0  0  0  0  0  0  0  0  0  0
  -48.2241  -21.6837  -17.5363 C   0  0  0  0  0  0  0  0  0  0  0  0
  -48.4963  -23.0825  -16.9070 C   0  0  0  0  0  0  0  0  0  0  0  0
  -49.8255  -23.5943  -17.2793 N   0  0  0  0  0  0  0  0  0  0  0  0
  -50.5453  -22.9809  -16.8972 H   0  0  0  0  0  0  0  0  0  0  0  0
  -49.9453  -24.5348  -16.9031 H   0  0  0  0  0  0  0  0  0  0  0  0
  -48.3908  -23.0865  -15.3757 C   0  0  0  0  0  0  0  0  0  0  0  0
  -48.4196  -21.9905  -14.7740 O   0  0  0  0  0  0  0  0  0  0  0  0
  -48.2797  -24.1848  -14.7952 O   0  0  0  0  0  0  0  0  0  0  0  0
  -48.5046  -21.1926  -15.2577 H   0  0  0  0  0  0  0  0  0  0  0  0
  1 10  2  0  0  0
 10  6  1  0  0  0
 10  7  1  0  0  0
  6  9  1  0  0  0
 21 19  2  0  0  0
 12  9  2  0  0  0
  9  8  1  0  0  0
  7 14  1  0  0  0
  7 11  1  0  0  0
 14 15  1  0  0  0
 19 15  1  0  0  0
 19 20  1  0  0  0
 15 16  1  0  0  0
 11  8  2  0  0  0
 11  3  1  0  0  0
  8  4  1  0  0  0
  3  2  1  0  0  0
  4  2  1  0  0  0
  2  5  1  0  0  0
  6 13  1  0  0  0
 16 17  1  0  0  0
 16 18  1  0  0  0
 20 22  1  0  0  0
M  END
> <minimizedAffinity>
-6.55445

$$$$
