4H3G_10Q_A_502


 35 39  0  0  0  0  0  0  0  0999 V2000
   21.8757   10.7360   21.1138 C   0  0  0  0  0  0  0  0  0  0  0  0
   21.3498   12.1447   21.4395 C   0  0  0  0  0  0  0  0  0  0  0  0
   22.5119   11.9048   23.6554 N   0  0  0  0  0  0  0  0  0  0  0  0
   22.4519   10.5164   23.5442 C   0  0  0  0  0  0  0  0  0  0  0  0
   22.0530   12.7811   22.6674 C   0  0  0  0  0  0  0  0  0  0  0  0
   22.1015    9.9506   22.3455 N   0  0  0  0  0  0  0  0  0  0  0  0
   19.5531   10.7023   20.9424 N   0  0  0  0  0  0  0  0  0  0  0  0
   20.7497   10.0817   20.3787 C   0  0  0  0  0  0  0  0  0  0  0  0
   19.8337   11.9770   21.6107 C   0  0  0  0  0  0  0  0  0  0  0  0
   22.7514    9.7371   24.5867 N   0  0  0  0  0  0  0  0  0  0  0  0
   22.1902   14.0012   22.7264 O   0  0  0  0  0  0  0  0  0  0  0  0
   23.1074   12.5031   24.8886 C   0  0  0  0  0  0  0  0  0  0  0  0
   21.9950    8.9727   22.3030 H   0  0  0  0  0  0  0  0  0  0  0  0
   22.7060    8.7576   24.4981 H   0  0  0  0  0  0  0  0  0  0  0  0
   18.2663   10.1550   20.9029 C   0  0  0  0  0  0  0  0  0  0  0  0
   17.7088    9.3018   19.8744 C   0  0  0  0  0  0  0  0  0  0  0  0
   16.3853    8.8404   20.0177 C   0  0  0  0  0  0  0  0  0  0  0  0
   17.4906   10.5050   21.9800 N   0  0  0  0  0  0  0  0  0  0  0  0
   16.2216   10.0342   22.1050 C   0  0  0  0  0  0  0  0  0  0  0  0
   15.6256    9.2078   21.1464 C   0  0  0  0  0  0  0  0  0  0  0  0
   18.4172    8.8789   18.6812 C   0  0  0  0  0  0  0  0  0  0  0  0
   18.9924    8.4851   17.7496 N   0  0  0  0  0  0  0  0  0  0  0  0
   23.1176   10.9042   20.2532 C   0  0  0  0  0  0  0  0  0  0  0  0
   24.4843   10.9176   20.7187 C   0  0  0  0  0  0  0  0  0  0  0  0
   25.4378   11.0987   19.6913 C   0  0  0  0  0  0  0  0  0  0  0  0
   23.1158   11.1252   18.5552 S   0  0  0  0  0  0  0  0  0  0  0  0
   24.8211   11.2322   18.4235 C   0  0  0  0  0  0  0  0  0  0  0  0
   26.9190   11.1536   19.9635 C   0  0  0  0  0  0  0  0  0  0  0  0
   27.4636   10.5484   21.1224 C   0  0  0  0  0  0  0  0  0  0  0  0
   28.8487   10.6023   21.3952 C   0  0  0  0  0  0  0  0  0  0  0  0
   27.8151   11.8211   19.0849 C   0  0  0  0  0  0  0  0  0  0  0  0
   29.2053   11.8757   19.3528 C   0  0  0  0  0  0  0  0  0  0  0  0
   29.7370   11.2665   20.5152 C   0  0  0  0  0  0  0  0  0  0  0  0
   29.7706    9.4754   23.5292 N   0  0  0  0  0  0  0  0  0  0  0  0
   29.3498    9.9748   22.5787 C   0  0  0  0  0  0  0  0  0  0  0  0
 22 21  3  0  0  0
 27 26  1  0  0  0
 27 25  2  0  0  0
 26 23  1  0  0  0
 21 16  1  0  0  0
 31 32  2  0  0  0
 31 28  1  0  0  0
 32 33  1  0  0  0
 25 28  1  0  0  0
 25 24  1  0  0  0
 28 29  2  0  0  0
 16 17  2  0  0  0
 16 15  1  0  0  0
 17 20  1  0  0  0
 23 24  2  0  0  0
 23  1  1  0  0  0
  8  7  1  0  0  0
  8  1  1  0  0  0
 33 30  2  0  0  0
 15  7  1  0  0  0
 15 18  2  0  0  0
  7  9  1  0  0  0
 29 30  1  0  0  0
  1  2  1  0  0  0
  1  6  1  0  0  0
 20 19  2  0  0  0
 30 35  1  0  0  0
  2  9  1  0  0  0
  2  5  1  0  0  0
 18 19  1  0  0  0
  6  4  1  0  0  0
 35 34  3  0  0  0
  5 11  2  0  0  0
  5  3  1  0  0  0
  4  3  1  0  0  0
  4 10  2  0  0  0
  3 12  1  0  0  0
  6 13  1  0  0  0
 10 14  1  0  0  0
M  END
> <minimizedAffinity>
-10.63577

$$$$
4H3G_10Q_A_502


 35 39  0  0  0  0  0  0  0  0999 V2000
   24.1925   13.1487   21.8328 C   0  0  0  0  0  0  0  0  0  0  0  0
   24.4131   13.9720   20.5519 C   0  0  0  0  0  0  0  0  0  0  0  0
   25.2027   11.8343   19.4913 N   0  0  0  0  0  0  0  0  0  0  0  0
   25.5231   11.3214   20.7475 C   0  0  0  0  0  0  0  0  0  0  0  0
   24.6131   13.0864   19.2937 C   0  0  0  0  0  0  0  0  0  0  0  0
   25.0847   11.9708   21.8726 N   0  0  0  0  0  0  0  0  0  0  0  0
   25.6658   14.8833   22.3285 N   0  0  0  0  0  0  0  0  0  0  0  0
   24.6231   14.0604   22.9372 C   0  0  0  0  0  0  0  0  0  0  0  0
   25.6062   14.8861   20.8634 C   0  0  0  0  0  0  0  0  0  0  0  0
   26.2337   10.1964   20.8617 N   0  0  0  0  0  0  0  0  0  0  0  0
   24.2475   13.4979   18.1947 O   0  0  0  0  0  0  0  0  0  0  0  0
   25.4894   11.0058   18.2810 C   0  0  0  0  0  0  0  0  0  0  0  0
   25.3787   11.6359   22.7505 H   0  0  0  0  0  0  0  0  0  0  0  0
   26.4549    9.8423   21.7533 H   0  0  0  0  0  0  0  0  0  0  0  0
   26.6554   15.5797   23.0303 C   0  0  0  0  0  0  0  0  0  0  0  0
   27.8961   15.0479   23.5540 C   0  0  0  0  0  0  0  0  0  0  0  0
   28.7756   15.9159   24.2309 C   0  0  0  0  0  0  0  0  0  0  0  0
   26.3599   16.9070   23.2185 N   0  0  0  0  0  0  0  0  0  0  0  0
   27.2315   17.7290   23.8605 C   0  0  0  0  0  0  0  0  0  0  0  0
   28.4449   17.2766   24.3898 C   0  0  0  0  0  0  0  0  0  0  0  0
   28.3127   13.6631   23.4390 C   0  0  0  0  0  0  0  0  0  0  0  0
   28.6581   12.5624   23.2880 N   0  0  0  0  0  0  0  0  0  0  0  0
   22.7133   12.8046   21.9006 C   0  0  0  0  0  0  0  0  0  0  0  0
   21.9994   11.9226   21.0076 C   0  0  0  0  0  0  0  0  0  0  0  0
   20.6241   11.7948   21.3068 C   0  0  0  0  0  0  0  0  0  0  0  0
   21.6112   13.4218   23.0565 S   0  0  0  0  0  0  0  0  0  0  0  0
   20.2581   12.5781   22.4284 C   0  0  0  0  0  0  0  0  0  0  0  0
   19.6962   10.9312   20.4916 C   0  0  0  0  0  0  0  0  0  0  0  0
   18.4270   10.5573   20.9966 C   0  0  0  0  0  0  0  0  0  0  0  0
   17.5523    9.7391   20.2474 C   0  0  0  0  0  0  0  0  0  0  0  0
   20.0616   10.4512   19.2045 C   0  0  0  0  0  0  0  0  0  0  0  0
   19.1868    9.6325   18.4482 C   0  0  0  0  0  0  0  0  0  0  0  0
   17.9205    9.2658   18.9648 C   0  0  0  0  0  0  0  0  0  0  0  0
   15.2599    9.1171   21.2630 N   0  0  0  0  0  0  0  0  0  0  0  0
   16.2807    9.3898   20.8011 C   0  0  0  0  0  0  0  0  0  0  0  0
 22 21  3  0  0  0
 27 26  1  0  0  0
 27 25  2  0  0  0
 26 23  1  0  0  0
 21 16  1  0  0  0
 31 32  2  0  0  0
 31 28  1  0  0  0
 32 33  1  0  0  0
 25 28  1  0  0  0
 25 24  1  0  0  0
 28 29  2  0  0  0
 16 17  2  0  0  0
 16 15  1  0  0  0
 17 20  1  0  0  0
 23 24  2  0  0  0
 23  1  1  0  0  0
  8  7  1  0  0  0
  8  1  1  0  0  0
 33 30  2  0  0  0
 15  7  1  0  0  0
 15 18  2  0  0  0
  7  9  1  0  0  0
 29 30  1  0  0  0
  1  2  1  0  0  0
  1  6  1  0  0  0
 20 19  2  0  0  0
 30 35  1  0  0  0
  2  9  1  0  0  0
  2  5  1  0  0  0
 18 19  1  0  0  0
  6  4  1  0  0  0
 35 34  3  0  0  0
  5 11  2  0  0  0
  5  3  1  0  0  0
  4  3  1  0  0  0
  4 10  2  0  0  0
  3 12  1  0  0  0
  6 13  1  0  0  0
 10 14  1  0  0  0
M  END
> <minimizedAffinity>
-10.26670

$$$$
4H3G_10Q_A_502


 35 39  0  0  0  0  0  0  0  0999 V2000
   21.2612   10.9375   21.2566 C   0  0  0  0  0  0  0  0  0  0  0  0
   20.4999   12.1624   21.7925 C   0  0  0  0  0  0  0  0  0  0  0  0
   21.6361   11.7212   23.9909 N   0  0  0  0  0  0  0  0  0  0  0  0
   21.8118   10.3836   23.6393 C   0  0  0  0  0  0  0  0  0  0  0  0
   21.0592   12.6742   23.1462 C   0  0  0  0  0  0  0  0  0  0  0  0
   21.5878    9.9917   22.3447 N   0  0  0  0  0  0  0  0  0  0  0  0
   18.9814   10.5619   20.9628 N   0  0  0  0  0  0  0  0  0  0  0  0
   20.2772   10.2524   20.3629 C   0  0  0  0  0  0  0  0  0  0  0  0
   19.0298   11.7252   21.8541 C   0  0  0  0  0  0  0  0  0  0  0  0
   22.2142    9.4893   24.5460 N   0  0  0  0  0  0  0  0  0  0  0  0
   20.9889   13.8701   23.4214 O   0  0  0  0  0  0  0  0  0  0  0  0
   22.0956   12.1778   25.3376 C   0  0  0  0  0  0  0  0  0  0  0  0
   21.6475    9.0329   22.1290 H   0  0  0  0  0  0  0  0  0  0  0  0
   22.3354    8.5470   24.2879 H   0  0  0  0  0  0  0  0  0  0  0  0
   17.8056    9.8307   20.7634 C   0  0  0  0  0  0  0  0  0  0  0  0
   17.4915    8.9649   19.6462 C   0  0  0  0  0  0  0  0  0  0  0  0
   16.2482    8.3023   19.6283 C   0  0  0  0  0  0  0  0  0  0  0  0
   16.8826    9.9969   21.7659 N   0  0  0  0  0  0  0  0  0  0  0  0
   15.6961    9.3343   21.7352 C   0  0  0  0  0  0  0  0  0  0  0  0
   15.3331    8.4851   20.6844 C   0  0  0  0  0  0  0  0  0  0  0  0
   18.3711    8.7235   18.5182 C   0  0  0  0  0  0  0  0  0  0  0  0
   19.0880    8.4747   17.6362 N   0  0  0  0  0  0  0  0  0  0  0  0
   22.4763   11.4539   20.5029 C   0  0  0  0  0  0  0  0  0  0  0  0
   23.5124   12.3075   21.0347 C   0  0  0  0  0  0  0  0  0  0  0  0
   24.5202   12.6359   20.0997 C   0  0  0  0  0  0  0  0  0  0  0  0
   22.8302   11.1219   18.8608 S   0  0  0  0  0  0  0  0  0  0  0  0
   24.2732   12.0460   18.8362 C   0  0  0  0  0  0  0  0  0  0  0  0
   25.6871   13.5239   20.4474 C   0  0  0  0  0  0  0  0  0  0  0  0
   26.3626   13.3783   21.6837 C   0  0  0  0  0  0  0  0  0  0  0  0
   27.4507   14.2115   22.0266 C   0  0  0  0  0  0  0  0  0  0  0  0
   26.1403   14.5410   19.5639 C   0  0  0  0  0  0  0  0  0  0  0  0
   27.2327   15.3774   19.9022 C   0  0  0  0  0  0  0  0  0  0  0  0
   27.8994   15.2215   21.1416 C   0  0  0  0  0  0  0  0  0  0  0  0
   28.6229   13.8912   24.3063 N   0  0  0  0  0  0  0  0  0  0  0  0
   28.1004   14.0242   23.2870 C   0  0  0  0  0  0  0  0  0  0  0  0
 22 21  3  0  0  0
 27 26  1  0  0  0
 27 25  2  0  0  0
 26 23  1  0  0  0
 21 16  1  0  0  0
 31 32  2  0  0  0
 31 28  1  0  0  0
 32 33  1  0  0  0
 25 28  1  0  0  0
 25 24  1  0  0  0
 28 29  2  0  0  0
 16 17  2  0  0  0
 16 15  1  0  0  0
 17 20  1  0  0  0
 23 24  2  0  0  0
 23  1  1  0  0  0
  8  7  1  0  0  0
  8  1  1  0  0  0
 33 30  2  0  0  0
 15  7  1  0  0  0
 15 18  2  0  0  0
  7  9  1  0  0  0
 29 30  1  0  0  0
  1  2  1  0  0  0
  1  6  1  0  0  0
 20 19  2  0  0  0
 30 35  1  0  0  0
  2  9  1  0  0  0
  2  5  1  0  0  0
 18 19  1  0  0  0
  6  4  1  0  0  0
 35 34  3  0  0  0
  5 11  2  0  0  0
  5  3  1  0  0  0
  4  3  1  0  0  0
  4 10  2  0  0  0
  3 12  1  0  0  0
  6 13  1  0  0  0
 10 14  1  0  0  0
M  END
> <minimizedAffinity>
-10.03841

$$$$
4H3G_10Q_A_502


 35 39  0  0  0  0  0  0  0  0999 V2000
   24.1439   12.4793   21.2934 C   0  0  0  0  0  0  0  0  0  0  0  0
   24.6148   13.6295   20.3865 C   0  0  0  0  0  0  0  0  0  0  0  0
   26.2564   11.9930   19.4142 N   0  0  0  0  0  0  0  0  0  0  0  0
   26.1989   11.2318   20.5807 C   0  0  0  0  0  0  0  0  0  0  0  0
   25.4895   13.1424   19.2012 C   0  0  0  0  0  0  0  0  0  0  0  0
   25.2212   11.4899   21.5066 N   0  0  0  0  0  0  0  0  0  0  0  0
   24.8340   14.2404   22.6525 N   0  0  0  0  0  0  0  0  0  0  0  0
   23.8827   13.1321   22.6132 C   0  0  0  0  0  0  0  0  0  0  0  0
   25.3313   14.6114   21.3239 C   0  0  0  0  0  0  0  0  0  0  0  0
   27.0730   10.2444   20.7923 N   0  0  0  0  0  0  0  0  0  0  0  0
   25.4732   13.7593   18.1381 O   0  0  0  0  0  0  0  0  0  0  0  0
   27.1760   11.5618   18.3178 C   0  0  0  0  0  0  0  0  0  0  0  0
   25.2375   10.9916   22.3556 H   0  0  0  0  0  0  0  0  0  0  0  0
   27.0241    9.7125   21.6193 H   0  0  0  0  0  0  0  0  0  0  0  0
   25.2771   14.8817   23.8142 C   0  0  0  0  0  0  0  0  0  0  0  0
   26.5656   14.7353   24.4581 C   0  0  0  0  0  0  0  0  0  0  0  0
   26.8303   15.4781   25.6257 C   0  0  0  0  0  0  0  0  0  0  0  0
   24.3429   15.7247   24.3628 N   0  0  0  0  0  0  0  0  0  0  0  0
   24.6268   16.4436   25.4808 C   0  0  0  0  0  0  0  0  0  0  0  0
   25.8516   16.3463   26.1497 C   0  0  0  0  0  0  0  0  0  0  0  0
   27.6264   13.8636   23.9899 C   0  0  0  0  0  0  0  0  0  0  0  0
   28.4395   13.1175   23.6211 N   0  0  0  0  0  0  0  0  0  0  0  0
   22.8861   11.8967   20.6691 C   0  0  0  0  0  0  0  0  0  0  0  0
   21.5798   11.8318   21.2809 C   0  0  0  0  0  0  0  0  0  0  0  0
   20.5951   11.2279   20.4666 C   0  0  0  0  0  0  0  0  0  0  0  0
   22.7965   11.1906   19.1118 S   0  0  0  0  0  0  0  0  0  0  0  0
   21.1278   10.8154   19.2210 C   0  0  0  0  0  0  0  0  0  0  0  0
   19.1686   11.0513   20.9195 C   0  0  0  0  0  0  0  0  0  0  0  0
   18.3475   10.0495   20.3467 C   0  0  0  0  0  0  0  0  0  0  0  0
   17.0053    9.8807   20.7542 C   0  0  0  0  0  0  0  0  0  0  0  0
   18.5938   11.8843   21.9175 C   0  0  0  0  0  0  0  0  0  0  0  0
   17.2491   11.7173   22.3314 C   0  0  0  0  0  0  0  0  0  0  0  0
   16.4387   10.7118   21.7506 C   0  0  0  0  0  0  0  0  0  0  0  0
   15.5972    8.0173   19.6503 N   0  0  0  0  0  0  0  0  0  0  0  0
   16.2172    8.8539   20.1457 C   0  0  0  0  0  0  0  0  0  0  0  0
 22 21  3  0  0  0
 27 26  1  0  0  0
 27 25  2  0  0  0
 26 23  1  0  0  0
 21 16  1  0  0  0
 31 32  2  0  0  0
 31 28  1  0  0  0
 32 33  1  0  0  0
 25 28  1  0  0  0
 25 24  1  0  0  0
 28 29  2  0  0  0
 16 17  2  0  0  0
 16 15  1  0  0  0
 17 20  1  0  0  0
 23 24  2  0  0  0
 23  1  1  0  0  0
  8  7  1  0  0  0
  8  1  1  0  0  0
 33 30  2  0  0  0
 15  7  1  0  0  0
 15 18  2  0  0  0
  7  9  1  0  0  0
 29 30  1  0  0  0
  1  2  1  0  0  0
  1  6  1  0  0  0
 20 19  2  0  0  0
 30 35  1  0  0  0
  2  9  1  0  0  0
  2  5  1  0  0  0
 18 19  1  0  0  0
  6  4  1  0  0  0
 35 34  3  0  0  0
  5 11  2  0  0  0
  5  3  1  0  0  0
  4  3  1  0  0  0
  4 10  2  0  0  0
  3 12  1  0  0  0
  6 13  1  0  0  0
 10 14  1  0  0  0
M  END
> <minimizedAffinity>
-9.92963

$$$$
4H3G_10Q_A_502


 35 39  0  0  0  0  0  0  0  0999 V2000
   24.1934   12.5985   21.2112 C   0  0  0  0  0  0  0  0  0  0  0  0
   24.3848   13.9238   20.4535 C   0  0  0  0  0  0  0  0  0  0  0  0
   25.8128   12.6252   18.8433 N   0  0  0  0  0  0  0  0  0  0  0  0
   26.0683   11.6720   19.8280 C   0  0  0  0  0  0  0  0  0  0  0  0
   24.9698   13.7247   19.0303 C   0  0  0  0  0  0  0  0  0  0  0  0
   25.3309   11.6824   20.9839 N   0  0  0  0  0  0  0  0  0  0  0  0
   25.1145   14.1509   22.6832 N   0  0  0  0  0  0  0  0  0  0  0  0
   24.2287   12.9892   22.6543 C   0  0  0  0  0  0  0  0  0  0  0  0
   25.2631   14.7865   21.3703 C   0  0  0  0  0  0  0  0  0  0  0  0
   27.0082   10.7409   19.6457 N   0  0  0  0  0  0  0  0  0  0  0  0
   24.6735   14.5121   18.1341 O   0  0  0  0  0  0  0  0  0  0  0  0
   26.4603   12.4695   17.5054 C   0  0  0  0  0  0  0  0  0  0  0  0
   25.5709   11.0483   21.6977 H   0  0  0  0  0  0  0  0  0  0  0  0
   27.1812   10.0720   20.3471 H   0  0  0  0  0  0  0  0  0  0  0  0
   25.7955   14.6173   23.8126 C   0  0  0  0  0  0  0  0  0  0  0  0
   27.1294   14.2540   24.2430 C   0  0  0  0  0  0  0  0  0  0  0  0
   27.6498   14.8418   25.4130 C   0  0  0  0  0  0  0  0  0  0  0  0
   25.0674   15.5096   24.5597 N   0  0  0  0  0  0  0  0  0  0  0  0
   25.5966   16.0763   25.6760 C   0  0  0  0  0  0  0  0  0  0  0  0
   26.8780   15.7667   26.1444 C   0  0  0  0  0  0  0  0  0  0  0  0
   27.9890   13.3102   23.5541 C   0  0  0  0  0  0  0  0  0  0  0  0
   28.7008   12.5366   23.0553 N   0  0  0  0  0  0  0  0  0  0  0  0
   22.8482   12.0276   20.7919 C   0  0  0  0  0  0  0  0  0  0  0  0
   21.6004   12.1689   21.5046 C   0  0  0  0  0  0  0  0  0  0  0  0
   20.5082   11.5242   20.8810 C   0  0  0  0  0  0  0  0  0  0  0  0
   22.5722   11.0897   19.3862 S   0  0  0  0  0  0  0  0  0  0  0  0
   20.8983   10.8744   19.6848 C   0  0  0  0  0  0  0  0  0  0  0  0
   19.1192   11.5397   21.4655 C   0  0  0  0  0  0  0  0  0  0  0  0
   18.9095   11.8942   22.8206 C   0  0  0  0  0  0  0  0  0  0  0  0
   17.6139   11.9019   23.3838 C   0  0  0  0  0  0  0  0  0  0  0  0
   17.9798   11.1882   20.6917 C   0  0  0  0  0  0  0  0  0  0  0  0
   16.6783   11.1969   21.2513 C   0  0  0  0  0  0  0  0  0  0  0  0
   16.4823   11.5532   22.6076 C   0  0  0  0  0  0  0  0  0  0  0  0
   17.3438   12.5649   25.8660 N   0  0  0  0  0  0  0  0  0  0  0  0
   17.4543   12.2680   24.7572 C   0  0  0  0  0  0  0  0  0  0  0  0
 22 21  3  0  0  0
 27 26  1  0  0  0
 27 25  2  0  0  0
 26 23  1  0  0  0
 21 16  1  0  0  0
 31 32  2  0  0  0
 31 28  1  0  0  0
 32 33  1  0  0  0
 25 28  1  0  0  0
 25 24  1  0  0  0
 28 29  2  0  0  0
 16 17  2  0  0  0
 16 15  1  0  0  0
 17 20  1  0  0  0
 23 24  2  0  0  0
 23  1  1  0  0  0
  8  7  1  0  0  0
  8  1  1  0  0  0
 33 30  2  0  0  0
 15  7  1  0  0  0
 15 18  2  0  0  0
  7  9  1  0  0  0
 29 30  1  0  0  0
  1  2  1  0  0  0
  1  6  1  0  0  0
 20 19  2  0  0  0
 30 35  1  0  0  0
  2  9  1  0  0  0
  2  5  1  0  0  0
 18 19  1  0  0  0
  6  4  1  0  0  0
 35 34  3  0  0  0
  5 11  2  0  0  0
  5  3  1  0  0  0
  4  3  1  0  0  0
  4 10  2  0  0  0
  3 12  1  0  0  0
  6 13  1  0  0  0
 10 14  1  0  0  0
M  END
> <minimizedAffinity>
-9.83919

$$$$
4H3G_10Q_A_502


 35 39  0  0  0  0  0  0  0  0999 V2000
   21.1270   11.0875   21.3960 C   0  0  0  0  0  0  0  0  0  0  0  0
   20.2140   12.1863   21.9671 C   0  0  0  0  0  0  0  0  0  0  0  0
   21.1811   11.6144   24.2156 N   0  0  0  0  0  0  0  0  0  0  0  0
   21.5066   10.3382   23.7585 C   0  0  0  0  0  0  0  0  0  0  0  0
   20.6004   12.5998   23.4117 C   0  0  0  0  0  0  0  0  0  0  0  0
   21.4367   10.0644   22.4169 N   0  0  0  0  0  0  0  0  0  0  0  0
   18.9258   10.5631   20.8437 N   0  0  0  0  0  0  0  0  0  0  0  0
   20.2931   10.4212   20.3486 C   0  0  0  0  0  0  0  0  0  0  0  0
   18.7892   11.6292   21.8412 C   0  0  0  0  0  0  0  0  0  0  0  0
   21.9034    9.3907   24.6121 N   0  0  0  0  0  0  0  0  0  0  0  0
   20.3989   13.7518   23.7902 O   0  0  0  0  0  0  0  0  0  0  0  0
   21.4740   11.9659   25.6383 C   0  0  0  0  0  0  0  0  0  0  0  0
   21.6010    9.1406   22.1187 H   0  0  0  0  0  0  0  0  0  0  0  0
   22.1311    8.4925   24.2795 H   0  0  0  0  0  0  0  0  0  0  0  0
   17.8429    9.7647   20.4608 C   0  0  0  0  0  0  0  0  0  0  0  0
   16.5718    9.6283   21.1408 C   0  0  0  0  0  0  0  0  0  0  0  0
   15.5951    8.7745   20.5910 C   0  0  0  0  0  0  0  0  0  0  0  0
   18.0706    9.0504   19.3109 N   0  0  0  0  0  0  0  0  0  0  0  0
   17.1071    8.2454   18.7903 C   0  0  0  0  0  0  0  0  0  0  0  0
   15.8599    8.0703   19.3993 C   0  0  0  0  0  0  0  0  0  0  0  0
   16.2178   10.3112   22.3707 C   0  0  0  0  0  0  0  0  0  0  0  0
   15.9113   10.9042   23.3237 N   0  0  0  0  0  0  0  0  0  0  0  0
   22.3544   11.7739   20.8183 C   0  0  0  0  0  0  0  0  0  0  0  0
   23.1494   12.7902   21.4664 C   0  0  0  0  0  0  0  0  0  0  0  0
   24.2323   13.2547   20.6861 C   0  0  0  0  0  0  0  0  0  0  0  0
   23.0140   11.4694   19.2678 S   0  0  0  0  0  0  0  0  0  0  0  0
   24.2845   12.6085   19.4270 C   0  0  0  0  0  0  0  0  0  0  0  0
   25.1792   14.3220   21.1713 C   0  0  0  0  0  0  0  0  0  0  0  0
   24.8951   15.0600   22.3462 C   0  0  0  0  0  0  0  0  0  0  0  0
   25.7687   16.0708   22.8058 C   0  0  0  0  0  0  0  0  0  0  0  0
   26.3736   14.6362   20.4676 C   0  0  0  0  0  0  0  0  0  0  0  0
   27.2541   15.6472   20.9258 C   0  0  0  0  0  0  0  0  0  0  0  0
   26.9582   16.3779   22.1020 C   0  0  0  0  0  0  0  0  0  0  0  0
   25.1735   17.3812   24.9511 N   0  0  0  0  0  0  0  0  0  0  0  0
   25.4375   16.7875   23.9984 C   0  0  0  0  0  0  0  0  0  0  0  0
 22 21  3  0  0  0
 27 26  1  0  0  0
 27 25  2  0  0  0
 26 23  1  0  0  0
 21 16  1  0  0  0
 31 32  2  0  0  0
 31 28  1  0  0  0
 32 33  1  0  0  0
 25 28  1  0  0  0
 25 24  1  0  0  0
 28 29  2  0  0  0
 16 17  2  0  0  0
 16 15  1  0  0  0
 17 20  1  0  0  0
 23 24  2  0  0  0
 23  1  1  0  0  0
  8  7  1  0  0  0
  8  1  1  0  0  0
 33 30  2  0  0  0
 15  7  1  0  0  0
 15 18  2  0  0  0
  7  9  1  0  0  0
 29 30  1  0  0  0
  1  2  1  0  0  0
  1  6  1  0  0  0
 20 19  2  0  0  0
 30 35  1  0  0  0
  2  9  1  0  0  0
  2  5  1  0  0  0
 18 19  1  0  0  0
  6  4  1  0  0  0
 35 34  3  0  0  0
  5 11  2  0  0  0
  5  3  1  0  0  0
  4  3  1  0  0  0
  4 10  2  0  0  0
  3 12  1  0  0  0
  6 13  1  0  0  0
 10 14  1  0  0  0
M  END
> <minimizedAffinity>
-9.72257

$$$$
4H3G_10Q_A_502


 35 39  0  0  0  0  0  0  0  0999 V2000
   20.4796   11.3022   22.5323 C   0  0  0  0  0  0  0  0  0  0  0  0
   19.5372   12.5180   22.5056 C   0  0  0  0  0  0  0  0  0  0  0  0
   19.7411   12.5442   25.0108 N   0  0  0  0  0  0  0  0  0  0  0  0
   20.0755   11.1908   25.0045 C   0  0  0  0  0  0  0  0  0  0  0  0
   19.5124   13.2905   23.8509 C   0  0  0  0  0  0  0  0  0  0  0  0
   20.3830   10.5778   23.8172 N   0  0  0  0  0  0  0  0  0  0  0  0
   18.5043   10.6673   21.4741 N   0  0  0  0  0  0  0  0  0  0  0  0
   19.9392   10.3921   21.4760 C   0  0  0  0  0  0  0  0  0  0  0  0
   18.1711   11.9571   22.0868 C   0  0  0  0  0  0  0  0  0  0  0  0
   20.1179   10.4954   26.1439 N   0  0  0  0  0  0  0  0  0  0  0  0
   19.3085   14.5026   23.8538 O   0  0  0  0  0  0  0  0  0  0  0  0
   19.6285   13.2518   26.3223 C   0  0  0  0  0  0  0  0  0  0  0  0
   20.5476    9.6071   23.8207 H   0  0  0  0  0  0  0  0  0  0  0  0
   20.3551    9.5400   26.1291 H   0  0  0  0  0  0  0  0  0  0  0  0
   17.5185    9.8042   20.9838 C   0  0  0  0  0  0  0  0  0  0  0  0
   17.5194    9.1036   19.7167 C   0  0  0  0  0  0  0  0  0  0  0  0
   16.4312    8.2655   19.4028 C   0  0  0  0  0  0  0  0  0  0  0  0
   16.4553    9.6482   21.8380 N   0  0  0  0  0  0  0  0  0  0  0  0
   15.4242    8.8213   21.5207 C   0  0  0  0  0  0  0  0  0  0  0  0
   15.3655    8.1177   20.3130 C   0  0  0  0  0  0  0  0  0  0  0  0
   18.5708    9.2010   18.7220 C   0  0  0  0  0  0  0  0  0  0  0  0
   19.3941    9.3347   17.9109 N   0  0  0  0  0  0  0  0  0  0  0  0
   21.8777   11.8061   22.2120 C   0  0  0  0  0  0  0  0  0  0  0  0
   22.4346   12.0008   20.8940 C   0  0  0  0  0  0  0  0  0  0  0  0
   23.7662   12.4745   20.8990 C   0  0  0  0  0  0  0  0  0  0  0  0
   23.0632   12.2252   23.3742 S   0  0  0  0  0  0  0  0  0  0  0  0
   24.2550   12.6464   22.2169 C   0  0  0  0  0  0  0  0  0  0  0  0
   24.5367   12.7338   19.6300 C   0  0  0  0  0  0  0  0  0  0  0  0
   25.5133   13.7580   19.5742 C   0  0  0  0  0  0  0  0  0  0  0  0
   26.2346   14.0188   18.3878 C   0  0  0  0  0  0  0  0  0  0  0  0
   24.3045   11.9787   18.4483 C   0  0  0  0  0  0  0  0  0  0  0  0
   25.0271   12.2348   17.2568 C   0  0  0  0  0  0  0  0  0  0  0  0
   26.0009   13.2618   17.2144 C   0  0  0  0  0  0  0  0  0  0  0  0
   27.9987   15.9060   18.3967 N   0  0  0  0  0  0  0  0  0  0  0  0
   27.2112   15.0637   18.3826 C   0  0  0  0  0  0  0  0  0  0  0  0
 22 21  3  0  0  0
 27 26  1  0  0  0
 27 25  2  0  0  0
 26 23  1  0  0  0
 21 16  1  0  0  0
 31 32  2  0  0  0
 31 28  1  0  0  0
 32 33  1  0  0  0
 25 28  1  0  0  0
 25 24  1  0  0  0
 28 29  2  0  0  0
 16 17  2  0  0  0
 16 15  1  0  0  0
 17 20  1  0  0  0
 23 24  2  0  0  0
 23  1  1  0  0  0
  8  7  1  0  0  0
  8  1  1  0  0  0
 33 30  2  0  0  0
 15  7  1  0  0  0
 15 18  2  0  0  0
  7  9  1  0  0  0
 29 30  1  0  0  0
  1  2  1  0  0  0
  1  6  1  0  0  0
 20 19  2  0  0  0
 30 35  1  0  0  0
  2  9  1  0  0  0
  2  5  1  0  0  0
 18 19  1  0  0  0
  6  4  1  0  0  0
 35 34  3  0  0  0
  5 11  2  0  0  0
  5  3  1  0  0  0
  4  3  1  0  0  0
  4 10  2  0  0  0
  3 12  1  0  0  0
  6 13  1  0  0  0
 10 14  1  0  0  0
M  END
> <minimizedAffinity>
-9.67368

$$$$
4H3G_10Q_A_502


 35 39  0  0  0  0  0  0  0  0999 V2000
   21.9695   14.3287   24.1805 C   0  0  0  0  0  0  0  0  0  0  0  0
   22.8486   13.3760   25.0091 C   0  0  0  0  0  0  0  0  0  0  0  0
   21.6237   14.2394   27.0271 N   0  0  0  0  0  0  0  0  0  0  0  0
   21.3103   15.4131   26.3431 C   0  0  0  0  0  0  0  0  0  0  0  0
   22.3196   13.1713   26.4532 C   0  0  0  0  0  0  0  0  0  0  0  0
   21.5179   15.4805   24.9895 N   0  0  0  0  0  0  0  0  0  0  0  0
   24.2003   14.8674   23.7825 N   0  0  0  0  0  0  0  0  0  0  0  0
   22.8916   14.8655   23.1327 C   0  0  0  0  0  0  0  0  0  0  0  0
   24.2603   13.9751   24.9445 C   0  0  0  0  0  0  0  0  0  0  0  0
   20.7928   16.4602   26.9907 N   0  0  0  0  0  0  0  0  0  0  0  0
   22.5145   12.1022   27.0277 O   0  0  0  0  0  0  0  0  0  0  0  0
   21.1881   14.0970   28.4496 C   0  0  0  0  0  0  0  0  0  0  0  0
   21.3583   16.3385   24.5338 H   0  0  0  0  0  0  0  0  0  0  0  0
   20.5748   17.2846   26.4988 H   0  0  0  0  0  0  0  0  0  0  0  0
   25.2930   15.6487   23.3921 C   0  0  0  0  0  0  0  0  0  0  0  0
   25.8617   16.7756   24.1013 C   0  0  0  0  0  0  0  0  0  0  0  0
   26.9764   17.4354   23.5468 C   0  0  0  0  0  0  0  0  0  0  0  0
   25.8410   15.2617   22.1944 N   0  0  0  0  0  0  0  0  0  0  0  0
   26.9266   15.9032   21.6871 C   0  0  0  0  0  0  0  0  0  0  0  0
   27.5214   16.9982   22.3230 C   0  0  0  0  0  0  0  0  0  0  0  0
   25.3626   17.2932   25.3612 C   0  0  0  0  0  0  0  0  0  0  0  0
   25.0086   17.6809   26.3996 N   0  0  0  0  0  0  0  0  0  0  0  0
   20.8349   13.5035   23.5950 C   0  0  0  0  0  0  0  0  0  0  0  0
   20.8920   12.7022   22.3951 C   0  0  0  0  0  0  0  0  0  0  0  0
   19.6789   12.0463   22.0859 C   0  0  0  0  0  0  0  0  0  0  0  0
   19.2598   13.3868   24.2563 S   0  0  0  0  0  0  0  0  0  0  0  0
   18.6708   12.3358   23.0374 C   0  0  0  0  0  0  0  0  0  0  0  0
   19.5210   11.1694   20.8704 C   0  0  0  0  0  0  0  0  0  0  0  0
   18.3895   10.3297   20.7273 C   0  0  0  0  0  0  0  0  0  0  0  0
   18.2349    9.4946   19.5984 C   0  0  0  0  0  0  0  0  0  0  0  0
   20.4988   11.1402   19.8391 C   0  0  0  0  0  0  0  0  0  0  0  0
   20.3470   10.3063   18.7038 C   0  0  0  0  0  0  0  0  0  0  0  0
   19.2109    9.4714   18.5729 C   0  0  0  0  0  0  0  0  0  0  0  0
   16.1293    8.0071   19.4333 N   0  0  0  0  0  0  0  0  0  0  0  0
   17.0737    8.6654   19.5000 C   0  0  0  0  0  0  0  0  0  0  0  0
 22 21  3  0  0  0
 27 26  1  0  0  0
 27 25  2  0  0  0
 26 23  1  0  0  0
 21 16  1  0  0  0
 31 32  2  0  0  0
 31 28  1  0  0  0
 32 33  1  0  0  0
 25 28  1  0  0  0
 25 24  1  0  0  0
 28 29  2  0  0  0
 16 17  2  0  0  0
 16 15  1  0  0  0
 17 20  1  0  0  0
 23 24  2  0  0  0
 23  1  1  0  0  0
  8  7  1  0  0  0
  8  1  1  0  0  0
 33 30  2  0  0  0
 15  7  1  0  0  0
 15 18  2  0  0  0
  7  9  1  0  0  0
 29 30  1  0  0  0
  1  2  1  0  0  0
  1  6  1  0  0  0
 20 19  2  0  0  0
 30 35  1  0  0  0
  2  9  1  0  0  0
  2  5  1  0  0  0
 18 19  1  0  0  0
  6  4  1  0  0  0
 35 34  3  0  0  0
  5 11  2  0  0  0
  5  3  1  0  0  0
  4  3  1  0  0  0
  4 10  2  0  0  0
  3 12  1  0  0  0
  6 13  1  0  0  0
 10 14  1  0  0  0
M  END
> <minimizedAffinity>
-9.56639

$$$$
4H3G_10Q_A_502


 35 39  0  0  0  0  0  0  0  0999 V2000
   25.5445   13.1077   21.2601 C   0  0  0  0  0  0  0  0  0  0  0  0
   26.1961   14.1895   20.3814 C   0  0  0  0  0  0  0  0  0  0  0  0
   28.1649   12.6384   20.1905 N   0  0  0  0  0  0  0  0  0  0  0  0
   27.7981   12.0152   21.3824 C   0  0  0  0  0  0  0  0  0  0  0  0
   27.4271   13.6661   19.5953 C   0  0  0  0  0  0  0  0  0  0  0  0
   26.5656   12.2715   21.9257 N   0  0  0  0  0  0  0  0  0  0  0  0
   25.6571   15.0780   22.4970 N   0  0  0  0  0  0  0  0  0  0  0  0
   24.8420   13.8765   22.3332 C   0  0  0  0  0  0  0  0  0  0  0  0
   26.5173   15.3446   21.3399 C   0  0  0  0  0  0  0  0  0  0  0  0
   28.6270   11.1590   21.9853 N   0  0  0  0  0  0  0  0  0  0  0  0
   27.7014   14.1507   18.4995 O   0  0  0  0  0  0  0  0  0  0  0  0
   29.4070   12.1853   19.4939 C   0  0  0  0  0  0  0  0  0  0  0  0
   26.3501   11.8792   22.8026 H   0  0  0  0  0  0  0  0  0  0  0  0
   28.3588   10.7240   22.8268 H   0  0  0  0  0  0  0  0  0  0  0  0
   25.6721   15.8931   23.6338 C   0  0  0  0  0  0  0  0  0  0  0  0
   24.5558   16.6132   24.2099 C   0  0  0  0  0  0  0  0  0  0  0  0
   24.7692   17.3813   25.3717 C   0  0  0  0  0  0  0  0  0  0  0  0
   26.9091   15.9881   24.2214 N   0  0  0  0  0  0  0  0  0  0  0  0
   27.0874   16.7222   25.3514 C   0  0  0  0  0  0  0  0  0  0  0  0
   26.0504   17.4409   25.9557 C   0  0  0  0  0  0  0  0  0  0  0  0
   23.2082   16.6104   23.6730 C   0  0  0  0  0  0  0  0  0  0  0  0
   22.1266   16.5480   23.2487 N   0  0  0  0  0  0  0  0  0  0  0  0
   24.5858   12.3246   20.3774 C   0  0  0  0  0  0  0  0  0  0  0  0
   23.1659   12.1672   20.5876 C   0  0  0  0  0  0  0  0  0  0  0  0
   22.5257   11.3767   19.6065 C   0  0  0  0  0  0  0  0  0  0  0  0
   25.0281   11.4656   18.9638 S   0  0  0  0  0  0  0  0  0  0  0  0
   23.4411   10.9106   18.6317 C   0  0  0  0  0  0  0  0  0  0  0  0
   21.0488   11.0794   19.6453 C   0  0  0  0  0  0  0  0  0  0  0  0
   20.2610   11.4751   20.7537 C   0  0  0  0  0  0  0  0  0  0  0  0
   18.8778   11.1927   20.8077 C   0  0  0  0  0  0  0  0  0  0  0  0
   20.3994   10.3842   18.5891 C   0  0  0  0  0  0  0  0  0  0  0  0
   19.0120   10.1010   18.6374 C   0  0  0  0  0  0  0  0  0  0  0  0
   18.2357   10.5021   19.7516 C   0  0  0  0  0  0  0  0  0  0  0  0
   17.5187   11.9365   22.8749 N   0  0  0  0  0  0  0  0  0  0  0  0
   18.1255   11.6141   21.9489 C   0  0  0  0  0  0  0  0  0  0  0  0
 22 21  3  0  0  0
 27 26  1  0  0  0
 27 25  2  0  0  0
 26 23  1  0  0  0
 21 16  1  0  0  0
 31 32  2  0  0  0
 31 28  1  0  0  0
 32 33  1  0  0  0
 25 28  1  0  0  0
 25 24  1  0  0  0
 28 29  2  0  0  0
 16 17  2  0  0  0
 16 15  1  0  0  0
 17 20  1  0  0  0
 23 24  2  0  0  0
 23  1  1  0  0  0
  8  7  1  0  0  0
  8  1  1  0  0  0
 33 30  2  0  0  0
 15  7  1  0  0  0
 15 18  2  0  0  0
  7  9  1  0  0  0
 29 30  1  0  0  0
  1  2  1  0  0  0
  1  6  1  0  0  0
 20 19  2  0  0  0
 30 35  1  0  0  0
  2  9  1  0  0  0
  2  5  1  0  0  0
 18 19  1  0  0  0
  6  4  1  0  0  0
 35 34  3  0  0  0
  5 11  2  0  0  0
  5  3  1  0  0  0
  4  3  1  0  0  0
  4 10  2  0  0  0
  3 12  1  0  0  0
  6 13  1  0  0  0
 10 14  1  0  0  0
M  END
> <minimizedAffinity>
-9.48228

$$$$
4H3G_10Q_A_502


 35 39  0  0  0  0  0  0  0  0999 V2000
   24.9364   13.5436   21.7143 C   0  0  0  0  0  0  0  0  0  0  0  0
   24.9592   14.1711   20.3097 C   0  0  0  0  0  0  0  0  0  0  0  0
   25.2975   11.8388   19.4353 N   0  0  0  0  0  0  0  0  0  0  0  0
   25.8254   11.4472   20.6648 C   0  0  0  0  0  0  0  0  0  0  0  0
   24.8026   13.1209   19.1784 C   0  0  0  0  0  0  0  0  0  0  0  0
   25.6993   12.2780   21.7481 N   0  0  0  0  0  0  0  0  0  0  0  0
   26.6409   15.1298   21.6545 N   0  0  0  0  0  0  0  0  0  0  0  0
   25.6763   14.5228   22.5688 C   0  0  0  0  0  0  0  0  0  0  0  0
   26.2735   14.9614   20.2450 C   0  0  0  0  0  0  0  0  0  0  0  0
   26.4325   10.2652   20.7987 N   0  0  0  0  0  0  0  0  0  0  0  0
   24.2542   13.4374   18.1248 O   0  0  0  0  0  0  0  0  0  0  0  0
   25.2408   10.8399   18.3252 C   0  0  0  0  0  0  0  0  0  0  0  0
   26.1386   12.0189   22.5902 H   0  0  0  0  0  0  0  0  0  0  0  0
   26.8021    9.9977   21.6711 H   0  0  0  0  0  0  0  0  0  0  0  0
   27.8188   15.7786   22.0399 C   0  0  0  0  0  0  0  0  0  0  0  0
   29.1560   15.2239   22.0654 C   0  0  0  0  0  0  0  0  0  0  0  0
   30.2242   16.0439   22.4796 C   0  0  0  0  0  0  0  0  0  0  0  0
   27.6225   17.0791   22.4330 N   0  0  0  0  0  0  0  0  0  0  0  0
   28.6709   17.8563   22.8131 C   0  0  0  0  0  0  0  0  0  0  0  0
   29.9853   17.3797   22.8601 C   0  0  0  0  0  0  0  0  0  0  0  0
   29.4902   13.8618   21.6949 C   0  0  0  0  0  0  0  0  0  0  0  0
   29.7235   12.7499   21.4436 N   0  0  0  0  0  0  0  0  0  0  0  0
   23.4788   13.3962   22.1205 C   0  0  0  0  0  0  0  0  0  0  0  0
   22.4930   12.5598   21.4774 C   0  0  0  0  0  0  0  0  0  0  0  0
   21.2109   12.6274   22.0684 C   0  0  0  0  0  0  0  0  0  0  0  0
   22.7322   14.2188   23.4235 S   0  0  0  0  0  0  0  0  0  0  0  0
   21.1890   13.5181   23.1691 C   0  0  0  0  0  0  0  0  0  0  0  0
   20.0368   11.8413   21.5443 C   0  0  0  0  0  0  0  0  0  0  0  0
   20.1560   11.0628   20.3672 C   0  0  0  0  0  0  0  0  0  0  0  0
   19.0600   10.3303   19.8591 C   0  0  0  0  0  0  0  0  0  0  0  0
   18.7736   11.8629   22.1958 C   0  0  0  0  0  0  0  0  0  0  0  0
   17.6723   11.1279   21.6916 C   0  0  0  0  0  0  0  0  0  0  0  0
   17.8047   10.3535   20.5136 C   0  0  0  0  0  0  0  0  0  0  0  0
   19.3877    8.9363   17.7090 N   0  0  0  0  0  0  0  0  0  0  0  0
   19.2314    9.5586   18.6671 C   0  0  0  0  0  0  0  0  0  0  0  0
 22 21  3  0  0  0
 27 26  1  0  0  0
 27 25  2  0  0  0
 26 23  1  0  0  0
 21 16  1  0  0  0
 31 32  2  0  0  0
 31 28  1  0  0  0
 32 33  1  0  0  0
 25 28  1  0  0  0
 25 24  1  0  0  0
 28 29  2  0  0  0
 16 17  2  0  0  0
 16 15  1  0  0  0
 17 20  1  0  0  0
 23 24  2  0  0  0
 23  1  1  0  0  0
  8  7  1  0  0  0
  8  1  1  0  0  0
 33 30  2  0  0  0
 15  7  1  0  0  0
 15 18  2  0  0  0
  7  9  1  0  0  0
 29 30  1  0  0  0
  1  2  1  0  0  0
  1  6  1  0  0  0
 20 19  2  0  0  0
 30 35  1  0  0  0
  2  9  1  0  0  0
  2  5  1  0  0  0
 18 19  1  0  0  0
  6  4  1  0  0  0
 35 34  3  0  0  0
  5 11  2  0  0  0
  5  3  1  0  0  0
  4  3  1  0  0  0
  4 10  2  0  0  0
  3 12  1  0  0  0
  6 13  1  0  0  0
 10 14  1  0  0  0
M  END
> <minimizedAffinity>
-9.38505

$$$$
