3EFT_3BS_A_300


 31 32  0  0  0  0  0  0  0  0999 V2000
   -3.9457    5.0399   12.0612 C   0  0  0  0  0  0  0  0  0  0  0  0
   -4.1489    3.4090   11.5546 S   0  0  0  0  0  0  0  0  0  0  0  0
   -3.7487    5.9968   11.1587 N   0  0  0  0  0  0  0  0  0  0  0  0
   -2.8328    6.2665   10.9187 H   0  0  0  0  0  0  0  0  0  0  0  0
   -4.7668    6.5463    8.9990 C   0  0  0  0  0  0  0  0  0  0  0  0
   -5.9205    7.2999    8.3339 C   0  0  0  0  0  0  0  0  0  0  0  0
   -7.2615    6.7074    8.7720 C   0  0  0  0  0  0  0  0  0  0  0  0
   -5.7860    7.2284    6.8114 C   0  0  0  0  0  0  0  0  0  0  0  0
   -5.8667    8.7108    8.7443 N   0  0  0  0  0  0  0  0  0  0  0  0
   -4.5609    9.2682    8.4043 O   0  0  0  0  0  0  0  0  0  0  0  0
   -6.0866    8.8257   10.1940 C   0  0  0  0  0  0  0  0  0  0  0  0
   -7.4206    8.1626   10.5463 C   0  0  0  0  0  0  0  0  0  0  0  0
   -6.1219   10.3083   10.5680 C   0  0  0  0  0  0  0  0  0  0  0  0
   -4.9397    8.1255   10.9253 C   0  0  0  0  0  0  0  0  0  0  0  0
   -4.8994    6.6513   10.5198 C   0  0  0  0  0  0  0  0  0  0  0  0
   -4.4160    9.1924    7.4482 H   0  0  0  0  0  0  0  0  0  0  0  0
   -3.9856    5.3440   13.3551 N   0  0  0  0  0  0  0  0  0  0  0  0
   -3.6314    6.2071   13.6693 H   0  0  0  0  0  0  0  0  0  0  0  0
   -4.5043    4.4812   14.2247 C   0  0  0  0  0  0  0  0  0  0  0  0
   -5.8602    4.5310   14.5278 C   0  0  0  0  0  0  0  0  0  0  0  0
   -6.4036    3.6309   15.4360 C   0  0  0  0  0  0  0  0  0  0  0  0
   -6.8720    5.7148   13.7735 Cl  0  0  0  0  0  0  0  0  0  0  0  0
   -3.6920    3.5314   14.8308 C   0  0  0  0  0  0  0  0  0  0  0  0
   -4.2346    2.6305   15.7401 C   0  0  0  0  0  0  0  0  0  0  0  0
   -5.5903    2.6802   16.0422 C   0  0  0  0  0  0  0  0  0  0  0  0
   -6.2730    1.5459   17.1864 S   0  0  0  0  0  0  0  0  0  0  0  0
   -7.7087    1.2867   16.8374 O   0  0  0  0  0  0  0  0  0  0  0  0
   -6.1907    2.1196   18.5697 O   0  0  0  0  0  0  0  0  0  0  0  0
   -5.4390    0.1468   17.1291 N   0  0  0  0  0  0  0  0  0  0  0  0
   -5.4946   -0.2439   16.1886 H   0  0  0  0  0  0  0  0  0  0  0  0
   -5.8375   -0.5141   17.7960 H   0  0  0  0  0  0  0  0  0  0  0  0
  5  6  1  0  0  0
  5 15  1  0  0  0
  6  7  1  0  0  0
  6  8  1  0  0  0
  6  9  1  0  0  0
  9 10  1  0  0  0
  9 11  1  0  0  0
 11 12  1  0  0  0
 11 13  1  0  0  0
 11 14  1  0  0  0
 14 15  1  0  0  0
 15  3  1  0  0  0
  3  1  1  0  0  0
  1  2  2  0  0  0
  1 17  1  0  0  0
 17 19  1  0  0  0
 19 20  2  0  0  0
 19 23  1  0  0  0
 20 21  1  0  0  0
 20 22  1  0  0  0
 21 25  2  0  0  0
 23 24  2  0  0  0
 24 25  1  0  0  0
 25 26  1  0  0  0
 26 27  2  0  0  0
 26 28  2  0  0  0
 26 29  1  0  0  0
 10 16  1  0  0  0
  3  4  1  0  0  0
 17 18  1  0  0  0
 29 30  1  0  0  0
 29 31  1  0  0  0
M  END
> <minimizedAffinity>
-7.92881

$$$$
3EFT_3BS_A_300


 31 32  0  0  0  0  0  0  0  0999 V2000
   -2.7449    5.5204   13.6642 C   0  0  0  0  0  0  0  0  0  0  0  0
   -2.8600    7.0223   14.4941 S   0  0  0  0  0  0  0  0  0  0  0  0
   -1.5531    5.0395   13.3220 N   0  0  0  0  0  0  0  0  0  0  0  0
   -0.8526    4.9275   14.0046 H   0  0  0  0  0  0  0  0  0  0  0  0
   -2.2884    5.3777   11.0095 C   0  0  0  0  0  0  0  0  0  0  0  0
   -2.0595    4.9329    9.5634 C   0  0  0  0  0  0  0  0  0  0  0  0
   -0.6367    5.2821    9.1217 C   0  0  0  0  0  0  0  0  0  0  0  0
   -3.0771    5.6053    8.6397 C   0  0  0  0  0  0  0  0  0  0  0  0
   -2.2399    3.4760    9.4795 N   0  0  0  0  0  0  0  0  0  0  0  0
   -3.5664    3.1195    9.9740 O   0  0  0  0  0  0  0  0  0  0  0  0
   -1.2164    2.7913   10.2836 C   0  0  0  0  0  0  0  0  0  0  0  0
    0.1681    3.2394    9.8082 C   0  0  0  0  0  0  0  0  0  0  0  0
   -1.3736    1.2818   10.0943 C   0  0  0  0  0  0  0  0  0  0  0  0
   -1.4144    3.1608   11.7549 C   0  0  0  0  0  0  0  0  0  0  0  0
   -1.2825    4.6752   11.9238 C   0  0  0  0  0  0  0  0  0  0  0  0
   -4.2414    3.5712    9.4435 H   0  0  0  0  0  0  0  0  0  0  0  0
   -3.8476    4.8402   13.3647 N   0  0  0  0  0  0  0  0  0  0  0  0
   -4.2358    4.9041   12.4622 H   0  0  0  0  0  0  0  0  0  0  0  0
   -4.4261    4.0735   14.2852 C   0  0  0  0  0  0  0  0  0  0  0  0
   -5.7516    4.2953   14.6407 C   0  0  0  0  0  0  0  0  0  0  0  0
   -6.3573    3.4957   15.6020 C   0  0  0  0  0  0  0  0  0  0  0  0
   -6.6482    5.5681   13.8856 Cl  0  0  0  0  0  0  0  0  0  0  0  0
   -3.7063    3.0522   14.8919 C   0  0  0  0  0  0  0  0  0  0  0  0
   -4.3111    2.2517   15.8543 C   0  0  0  0  0  0  0  0  0  0  0  0
   -5.6366    2.4734   16.2089 C   0  0  0  0  0  0  0  0  0  0  0  0
   -6.3977    1.4655   17.4199 S   0  0  0  0  0  0  0  0  0  0  0  0
   -7.8276    1.2195   17.0390 O   0  0  0  0  0  0  0  0  0  0  0  0
   -6.3467    2.1563   18.7501 O   0  0  0  0  0  0  0  0  0  0  0  0
   -5.6092    0.0425   17.5174 N   0  0  0  0  0  0  0  0  0  0  0  0
   -5.6435   -0.4279   16.6129 H   0  0  0  0  0  0  0  0  0  0  0  0
   -6.0534   -0.5448   18.2231 H   0  0  0  0  0  0  0  0  0  0  0  0
  5  6  1  0  0  0
  5 15  1  0  0  0
  6  7  1  0  0  0
  6  8  1  0  0  0
  6  9  1  0  0  0
  9 10  1  0  0  0
  9 11  1  0  0  0
 11 12  1  0  0  0
 11 13  1  0  0  0
 11 14  1  0  0  0
 14 15  1  0  0  0
 15  3  1  0  0  0
  3  1  1  0  0  0
  1  2  2  0  0  0
  1 17  1  0  0  0
 17 19  1  0  0  0
 19 20  2  0  0  0
 19 23  1  0  0  0
 20 21  1  0  0  0
 20 22  1  0  0  0
 21 25  2  0  0  0
 23 24  2  0  0  0
 24 25  1  0  0  0
 25 26  1  0  0  0
 26 27  2  0  0  0
 26 28  2  0  0  0
 26 29  1  0  0  0
 10 16  1  0  0  0
  3  4  1  0  0  0
 17 18  1  0  0  0
 29 30  1  0  0  0
 29 31  1  0  0  0
M  END
> <minimizedAffinity>
-7.90075

$$$$
3EFT_3BS_A_300


 31 32  0  0  0  0  0  0  0  0999 V2000
   -3.7490    5.9630   13.6916 C   0  0  0  0  0  0  0  0  0  0  0  0
   -2.6460    7.2731   13.8497 S   0  0  0  0  0  0  0  0  0  0  0  0
   -4.9168    6.1468   13.0823 N   0  0  0  0  0  0  0  0  0  0  0  0
   -5.7314    5.7264   13.4414 H   0  0  0  0  0  0  0  0  0  0  0  0
   -6.4559    7.2680   11.5406 C   0  0  0  0  0  0  0  0  0  0  0  0
   -6.5351    8.0625   10.2353 C   0  0  0  0  0  0  0  0  0  0  0  0
   -5.7717    9.3815   10.3718 C   0  0  0  0  0  0  0  0  0  0  0  0
   -7.9968    8.3355    9.8745 C   0  0  0  0  0  0  0  0  0  0  0  0
   -5.9257    7.2692    9.1576 N   0  0  0  0  0  0  0  0  0  0  0  0
   -6.5929    5.9736    9.0687 O   0  0  0  0  0  0  0  0  0  0  0  0
   -4.4939    7.0661    9.4251 C   0  0  0  0  0  0  0  0  0  0  0  0
   -3.8243    8.4318    9.5989 C   0  0  0  0  0  0  0  0  0  0  0  0
   -3.8745    6.3244    8.2396 C   0  0  0  0  0  0  0  0  0  0  0  0
   -4.3419    6.2375   10.7021 C   0  0  0  0  0  0  0  0  0  0  0  0
   -4.9905    6.9784   11.8724 C   0  0  0  0  0  0  0  0  0  0  0  0
   -7.5372    6.1077    8.8922 H   0  0  0  0  0  0  0  0  0  0  0  0
   -3.4340    4.7664   14.1788 N   0  0  0  0  0  0  0  0  0  0  0  0
   -3.1734    4.6723   15.1235 H   0  0  0  0  0  0  0  0  0  0  0  0
   -3.4712    3.6966   13.3889 C   0  0  0  0  0  0  0  0  0  0  0  0
   -4.4107    2.6975   13.6166 C   0  0  0  0  0  0  0  0  0  0  0  0
   -4.4510    1.5794   12.7928 C   0  0  0  0  0  0  0  0  0  0  0  0
   -5.5312    2.8464   14.9268 Cl  0  0  0  0  0  0  0  0  0  0  0  0
   -2.5714    3.5767   12.3376 C   0  0  0  0  0  0  0  0  0  0  0  0
   -2.6103    2.4581   11.5129 C   0  0  0  0  0  0  0  0  0  0  0  0
   -3.5503    1.4599   11.7405 C   0  0  0  0  0  0  0  0  0  0  0  0
   -3.5993    0.0523   10.7022 S   0  0  0  0  0  0  0  0  0  0  0  0
   -4.7576    0.1689    9.7562 O   0  0  0  0  0  0  0  0  0  0  0  0
   -3.7600   -1.1818   11.5392 O   0  0  0  0  0  0  0  0  0  0  0  0
   -2.2120   -0.0456    9.8526 N   0  0  0  0  0  0  0  0  0  0  0  0
   -2.1021    0.7934    9.2830 H   0  0  0  0  0  0  0  0  0  0  0  0
   -2.2412   -0.8661    9.2472 H   0  0  0  0  0  0  0  0  0  0  0  0
  5  6  1  0  0  0
  5 15  1  0  0  0
  6  7  1  0  0  0
  6  8  1  0  0  0
  6  9  1  0  0  0
  9 10  1  0  0  0
  9 11  1  0  0  0
 11 12  1  0  0  0
 11 13  1  0  0  0
 11 14  1  0  0  0
 14 15  1  0  0  0
 15  3  1  0  0  0
  3  1  1  0  0  0
  1  2  2  0  0  0
  1 17  1  0  0  0
 17 19  1  0  0  0
 19 20  2  0  0  0
 19 23  1  0  0  0
 20 21  1  0  0  0
 20 22  1  0  0  0
 21 25  2  0  0  0
 23 24  2  0  0  0
 24 25  1  0  0  0
 25 26  1  0  0  0
 26 27  2  0  0  0
 26 28  2  0  0  0
 26 29  1  0  0  0
 10 16  1  0  0  0
  3  4  1  0  0  0
 17 18  1  0  0  0
 29 30  1  0  0  0
 29 31  1  0  0  0
M  END
> <minimizedAffinity>
-7.82434

$$$$
3EFT_3BS_A_300


 31 32  0  0  0  0  0  0  0  0999 V2000
   -4.7308    6.0717   12.5018 C   0  0  0  0  0  0  0  0  0  0  0  0
   -3.3701    6.9479   13.0836 S   0  0  0  0  0  0  0  0  0  0  0  0
   -5.8133    6.7235   12.0867 N   0  0  0  0  0  0  0  0  0  0  0  0
   -6.6183    6.7522   12.6528 H   0  0  0  0  0  0  0  0  0  0  0  0
   -7.2443    7.7214   10.3665 C   0  0  0  0  0  0  0  0  0  0  0  0
   -7.2429    8.3505    8.9717 C   0  0  0  0  0  0  0  0  0  0  0  0
   -6.4123    9.6356    8.9720 C   0  0  0  0  0  0  0  0  0  0  0  0
   -8.6765    8.6508    8.5295 C   0  0  0  0  0  0  0  0  0  0  0  0
   -6.6478    7.3994    8.0213 N   0  0  0  0  0  0  0  0  0  0  0  0
   -7.3823    6.1385    8.0686 O   0  0  0  0  0  0  0  0  0  0  0  0
   -5.2374    7.1583    8.3613 C   0  0  0  0  0  0  0  0  0  0  0  0
   -4.4990    8.4991    8.3896 C   0  0  0  0  0  0  0  0  0  0  0  0
   -4.6264    6.2444    7.2980 C   0  0  0  0  0  0  0  0  0  0  0  0
   -5.1673    6.4882    9.7348 C   0  0  0  0  0  0  0  0  0  0  0  0
   -5.8070    7.4008   10.7821 C   0  0  0  0  0  0  0  0  0  0  0  0
   -8.3125    6.2976    7.8443 H   0  0  0  0  0  0  0  0  0  0  0  0
   -4.7005    4.7427   12.4673 N   0  0  0  0  0  0  0  0  0  0  0  0
   -4.4149    4.2778   11.6478 H   0  0  0  0  0  0  0  0  0  0  0  0
   -5.0562    4.0418   13.5405 C   0  0  0  0  0  0  0  0  0  0  0  0
   -4.6040    2.7368   13.6990 C   0  0  0  0  0  0  0  0  0  0  0  0
   -4.9746    2.0032   14.8192 C   0  0  0  0  0  0  0  0  0  0  0  0
   -3.5787    2.0253   12.5005 Cl  0  0  0  0  0  0  0  0  0  0  0  0
   -5.8798    4.6126   14.5023 C   0  0  0  0  0  0  0  0  0  0  0  0
   -6.2518    3.8794   15.6234 C   0  0  0  0  0  0  0  0  0  0  0  0
   -5.7989    2.5750   15.7818 C   0  0  0  0  0  0  0  0  0  0  0  0
   -6.2669    1.6524   17.1931 S   0  0  0  0  0  0  0  0  0  0  0  0
   -7.6571    1.1215   17.0049 O   0  0  0  0  0  0  0  0  0  0  0  0
   -6.2292    2.5365   18.4040 O   0  0  0  0  0  0  0  0  0  0  0  0
   -5.2335    0.4088   17.3974 N   0  0  0  0  0  0  0  0  0  0  0  0
   -5.2587   -0.1929   16.5742 H   0  0  0  0  0  0  0  0  0  0  0  0
   -5.5070   -0.1288   18.2200 H   0  0  0  0  0  0  0  0  0  0  0  0
  5  6  1  0  0  0
  5 15  1  0  0  0
  6  7  1  0  0  0
  6  8  1  0  0  0
  6  9  1  0  0  0
  9 10  1  0  0  0
  9 11  1  0  0  0
 11 12  1  0  0  0
 11 13  1  0  0  0
 11 14  1  0  0  0
 14 15  1  0  0  0
 15  3  1  0  0  0
  3  1  1  0  0  0
  1  2  2  0  0  0
  1 17  1  0  0  0
 17 19  1  0  0  0
 19 20  2  0  0  0
 19 23  1  0  0  0
 20 21  1  0  0  0
 20 22  1  0  0  0
 21 25  2  0  0  0
 23 24  2  0  0  0
 24 25  1  0  0  0
 25 26  1  0  0  0
 26 27  2  0  0  0
 26 28  2  0  0  0
 26 29  1  0  0  0
 10 16  1  0  0  0
  3  4  1  0  0  0
 17 18  1  0  0  0
 29 30  1  0  0  0
 29 31  1  0  0  0
M  END
> <minimizedAffinity>
-7.73841

$$$$
3EFT_3BS_A_300


 31 32  0  0  0  0  0  0  0  0999 V2000
   -3.4684    5.4264   12.9359 C   0  0  0  0  0  0  0  0  0  0  0  0
   -3.0727    5.9496   14.5257 S   0  0  0  0  0  0  0  0  0  0  0  0
   -2.8532    5.9643   11.8866 N   0  0  0  0  0  0  0  0  0  0  0  0
   -1.9217    5.7193   11.6827 H   0  0  0  0  0  0  0  0  0  0  0  0
   -4.9430    7.2171   11.6293 C   0  0  0  0  0  0  0  0  0  0  0  0
   -5.7155    8.1515   10.6958 C   0  0  0  0  0  0  0  0  0  0  0  0
   -4.9506    9.4636   10.5092 C   0  0  0  0  0  0  0  0  0  0  0  0
   -7.1076    8.4306   11.2661 C   0  0  0  0  0  0  0  0  0  0  0  0
   -5.8665    7.4984    9.3870 N   0  0  0  0  0  0  0  0  0  0  0  0
   -6.5242    6.2065    9.5597 O   0  0  0  0  0  0  0  0  0  0  0  0
   -4.5488    7.2987    8.7651 C   0  0  0  0  0  0  0  0  0  0  0  0
   -3.8376    8.6508    8.6675 C   0  0  0  0  0  0  0  0  0  0  0  0
   -4.7507    6.7093    7.3683 C   0  0  0  0  0  0  0  0  0  0  0  0
   -3.7343    6.3352    9.6304 C   0  0  0  0  0  0  0  0  0  0  0  0
   -3.5651    6.9249   11.0314 C   0  0  0  0  0  0  0  0  0  0  0  0
   -7.3932    6.3383    9.9699 H   0  0  0  0  0  0  0  0  0  0  0  0
   -4.3894    4.4842   12.7560 N   0  0  0  0  0  0  0  0  0  0  0  0
   -4.7399    4.3040   11.8539 H   0  0  0  0  0  0  0  0  0  0  0  0
   -4.8368    3.7853   13.7957 C   0  0  0  0  0  0  0  0  0  0  0  0
   -5.9805    4.1982   14.4698 C   0  0  0  0  0  0  0  0  0  0  0  0
   -6.4492    3.4696   15.5559 C   0  0  0  0  0  0  0  0  0  0  0  0
   -6.8212    5.6206   13.9557 Cl  0  0  0  0  0  0  0  0  0  0  0  0
   -4.1617    2.6439   14.2088 C   0  0  0  0  0  0  0  0  0  0  0  0
   -4.6294    1.9143   15.2959 C   0  0  0  0  0  0  0  0  0  0  0  0
   -5.7733    2.3271   15.9690 C   0  0  0  0  0  0  0  0  0  0  0  0
   -6.3620    1.4084   17.3369 S   0  0  0  0  0  0  0  0  0  0  0  0
   -7.8294    1.1464   17.1690 O   0  0  0  0  0  0  0  0  0  0  0  0
   -6.1345    2.1873   18.5982 O   0  0  0  0  0  0  0  0  0  0  0  0
   -5.5636   -0.0098   17.4241 N   0  0  0  0  0  0  0  0  0  0  0  0
   -5.7178   -0.5401   16.5665 H   0  0  0  0  0  0  0  0  0  0  0  0
   -5.9073   -0.5451   18.2214 H   0  0  0  0  0  0  0  0  0  0  0  0
  5  6  1  0  0  0
  5 15  1  0  0  0
  6  7  1  0  0  0
  6  8  1  0  0  0
  6  9  1  0  0  0
  9 10  1  0  0  0
  9 11  1  0  0  0
 11 12  1  0  0  0
 11 13  1  0  0  0
 11 14  1  0  0  0
 14 15  1  0  0  0
 15  3  1  0  0  0
  3  1  1  0  0  0
  1  2  2  0  0  0
  1 17  1  0  0  0
 17 19  1  0  0  0
 19 20  2  0  0  0
 19 23  1  0  0  0
 20 21  1  0  0  0
 20 22  1  0  0  0
 21 25  2  0  0  0
 23 24  2  0  0  0
 24 25  1  0  0  0
 25 26  1  0  0  0
 26 27  2  0  0  0
 26 28  2  0  0  0
 26 29  1  0  0  0
 10 16  1  0  0  0
  3  4  1  0  0  0
 17 18  1  0  0  0
 29 30  1  0  0  0
 29 31  1  0  0  0
M  END
> <minimizedAffinity>
-7.66303

$$$$
3EFT_3BS_A_300


 31 32  0  0  0  0  0  0  0  0999 V2000
   -4.6738    6.2236   12.5875 C   0  0  0  0  0  0  0  0  0  0  0  0
   -3.2843    6.7719   13.4400 S   0  0  0  0  0  0  0  0  0  0  0  0
   -5.5469    7.1026   12.1038 N   0  0  0  0  0  0  0  0  0  0  0  0
   -6.0163    7.7169   12.7133 H   0  0  0  0  0  0  0  0  0  0  0  0
   -4.7691    8.0508    9.9828 C   0  0  0  0  0  0  0  0  0  0  0  0
   -5.0934    8.1735    8.4925 C   0  0  0  0  0  0  0  0  0  0  0  0
   -5.0851    6.7923    7.8340 C   0  0  0  0  0  0  0  0  0  0  0  0
   -4.0768    9.0891    7.8074 C   0  0  0  0  0  0  0  0  0  0  0  0
   -6.4320    8.7637    8.3437 N   0  0  0  0  0  0  0  0  0  0  0  0
   -6.4786   10.0478    9.0368 O   0  0  0  0  0  0  0  0  0  0  0  0
   -7.4484    7.8639    8.9095 C   0  0  0  0  0  0  0  0  0  0  0  0
   -7.3315    6.4964    8.2313 C   0  0  0  0  0  0  0  0  0  0  0  0
   -8.8317    8.4625    8.6497 C   0  0  0  0  0  0  0  0  0  0  0  0
   -7.2072    7.7290   10.4142 C   0  0  0  0  0  0  0  0  0  0  0  0
   -5.8104    7.1562   10.6587 C   0  0  0  0  0  0  0  0  0  0  0  0
   -5.8081   10.6412    8.6636 H   0  0  0  0  0  0  0  0  0  0  0  0
   -4.8749    4.9209   12.4122 N   0  0  0  0  0  0  0  0  0  0  0  0
   -4.8107    4.5295   11.5111 H   0  0  0  0  0  0  0  0  0  0  0  0
   -5.1630    4.1468   13.4549 C   0  0  0  0  0  0  0  0  0  0  0  0
   -4.5172    2.9259   13.6131 C   0  0  0  0  0  0  0  0  0  0  0  0
   -4.8169    2.1159   14.7014 C   0  0  0  0  0  0  0  0  0  0  0  0
   -3.3389    2.4143   12.4537 Cl  0  0  0  0  0  0  0  0  0  0  0  0
   -6.1093    4.5570   14.3853 C   0  0  0  0  0  0  0  0  0  0  0  0
   -6.4105    3.7472   15.4745 C   0  0  0  0  0  0  0  0  0  0  0  0
   -5.7639    2.5270   15.6326 C   0  0  0  0  0  0  0  0  0  0  0  0
   -6.1429    1.5082   17.0038 S   0  0  0  0  0  0  0  0  0  0  0  0
   -7.5938    1.1302   16.9600 O   0  0  0  0  0  0  0  0  0  0  0  0
   -5.8586    2.2528   18.2743 O   0  0  0  0  0  0  0  0  0  0  0  0
   -5.2285    0.1602   16.9492 N   0  0  0  0  0  0  0  0  0  0  0  0
   -5.4214   -0.3467   16.0853 H   0  0  0  0  0  0  0  0  0  0  0  0
   -5.4500   -0.4335   17.7484 H   0  0  0  0  0  0  0  0  0  0  0  0
  5  6  1  0  0  0
  5 15  1  0  0  0
  6  7  1  0  0  0
  6  8  1  0  0  0
  6  9  1  0  0  0
  9 10  1  0  0  0
  9 11  1  0  0  0
 11 12  1  0  0  0
 11 13  1  0  0  0
 11 14  1  0  0  0
 14 15  1  0  0  0
 15  3  1  0  0  0
  3  1  1  0  0  0
  1  2  2  0  0  0
  1 17  1  0  0  0
 17 19  1  0  0  0
 19 20  2  0  0  0
 19 23  1  0  0  0
 20 21  1  0  0  0
 20 22  1  0  0  0
 21 25  2  0  0  0
 23 24  2  0  0  0
 24 25  1  0  0  0
 25 26  1  0  0  0
 26 27  2  0  0  0
 26 28  2  0  0  0
 26 29  1  0  0  0
 10 16  1  0  0  0
  3  4  1  0  0  0
 17 18  1  0  0  0
 29 30  1  0  0  0
 29 31  1  0  0  0
M  END
> <minimizedAffinity>
-7.64940

$$$$
3EFT_3BS_A_300


 31 32  0  0  0  0  0  0  0  0999 V2000
   -4.7563    5.9201   12.1911 C   0  0  0  0  0  0  0  0  0  0  0  0
   -5.6947    7.1931   11.5153 S   0  0  0  0  0  0  0  0  0  0  0  0
   -4.3406    4.9191   11.4203 N   0  0  0  0  0  0  0  0  0  0  0  0
   -4.9960    4.3254   10.9878 H   0  0  0  0  0  0  0  0  0  0  0  0
   -2.3670    5.7261   10.2134 C   0  0  0  0  0  0  0  0  0  0  0  0
   -0.8887    5.4449    9.9363 C   0  0  0  0  0  0  0  0  0  0  0  0
   -0.0821    5.5287   11.2339 C   0  0  0  0  0  0  0  0  0  0  0  0
   -0.3462    6.4459    8.9141 C   0  0  0  0  0  0  0  0  0  0  0  0
   -0.7579    4.0896    9.3813 N   0  0  0  0  0  0  0  0  0  0  0  0
   -1.5867    3.9702    8.1854 O   0  0  0  0  0  0  0  0  0  0  0  0
   -1.1835    3.0919   10.3745 C   0  0  0  0  0  0  0  0  0  0  0  0
   -0.3628    3.2843   11.6524 C   0  0  0  0  0  0  0  0  0  0  0  0
   -0.9419    1.6951    9.8003 C   0  0  0  0  0  0  0  0  0  0  0  0
   -2.6718    3.2901   10.6683 C   0  0  0  0  0  0  0  0  0  0  0  0
   -2.9016    4.6999   11.2147 C   0  0  0  0  0  0  0  0  0  0  0  0
   -1.3059    4.6283    7.5304 H   0  0  0  0  0  0  0  0  0  0  0  0
   -4.4467    5.9367   13.4842 N   0  0  0  0  0  0  0  0  0  0  0  0
   -3.9806    6.7139   13.8691 H   0  0  0  0  0  0  0  0  0  0  0  0
   -4.7670    4.9028   14.2576 C   0  0  0  0  0  0  0  0  0  0  0  0
   -3.7657    4.1484   14.8584 C   0  0  0  0  0  0  0  0  0  0  0  0
   -4.0983    3.0681   15.6662 C   0  0  0  0  0  0  0  0  0  0  0  0
   -2.1037    4.5549   14.6001 Cl  0  0  0  0  0  0  0  0  0  0  0  0
   -6.1010    4.5760   14.4644 C   0  0  0  0  0  0  0  0  0  0  0  0
   -6.4351    3.4948   15.2721 C   0  0  0  0  0  0  0  0  0  0  0  0
   -5.4337    2.7414   15.8731 C   0  0  0  0  0  0  0  0  0  0  0  0
   -5.8545    1.3810   16.8901 S   0  0  0  0  0  0  0  0  0  0  0  0
   -7.3245    1.1058   16.7740 O   0  0  0  0  0  0  0  0  0  0  0  0
   -5.5167    1.6989   18.3163 O   0  0  0  0  0  0  0  0  0  0  0  0
   -5.0166    0.0665   16.4145 N   0  0  0  0  0  0  0  0  0  0  0  0
   -5.2458   -0.1503   15.4445 H   0  0  0  0  0  0  0  0  0  0  0  0
   -5.2625   -0.7263   17.0073 H   0  0  0  0  0  0  0  0  0  0  0  0
  5  6  1  0  0  0
  5 15  1  0  0  0
  6  7  1  0  0  0
  6  8  1  0  0  0
  6  9  1  0  0  0
  9 10  1  0  0  0
  9 11  1  0  0  0
 11 12  1  0  0  0
 11 13  1  0  0  0
 11 14  1  0  0  0
 14 15  1  0  0  0
 15  3  1  0  0  0
  3  1  1  0  0  0
  1  2  2  0  0  0
  1 17  1  0  0  0
 17 19  1  0  0  0
 19 20  2  0  0  0
 19 23  1  0  0  0
 20 21  1  0  0  0
 20 22  1  0  0  0
 21 25  2  0  0  0
 23 24  2  0  0  0
 24 25  1  0  0  0
 25 26  1  0  0  0
 26 27  2  0  0  0
 26 28  2  0  0  0
 26 29  1  0  0  0
 10 16  1  0  0  0
  3  4  1  0  0  0
 17 18  1  0  0  0
 29 30  1  0  0  0
 29 31  1  0  0  0
M  END
> <minimizedAffinity>
-7.59141

$$$$
3EFT_3BS_A_300


 31 32  0  0  0  0  0  0  0  0999 V2000
   -2.6502    4.9378   13.3327 C   0  0  0  0  0  0  0  0  0  0  0  0
   -2.5135    6.4223   14.1902 S   0  0  0  0  0  0  0  0  0  0  0  0
   -1.5588    4.3329   12.8725 N   0  0  0  0  0  0  0  0  0  0  0  0
   -1.0528    3.7205   13.4540 H   0  0  0  0  0  0  0  0  0  0  0  0
   -0.7691    3.2473   10.8230 C   0  0  0  0  0  0  0  0  0  0  0  0
   -0.2214    3.5103    9.4187 C   0  0  0  0  0  0  0  0  0  0  0  0
   -1.2589    4.2571    8.5777 C   0  0  0  0  0  0  0  0  0  0  0  0
    0.1501    2.1884    8.7437 C   0  0  0  0  0  0  0  0  0  0  0  0
    0.9887    4.3385    9.5272 N   0  0  0  0  0  0  0  0  0  0  0  0
    1.9582    3.6744   10.3934 O   0  0  0  0  0  0  0  0  0  0  0  0
    0.6526    5.6562   10.0872 C   0  0  0  0  0  0  0  0  0  0  0  0
   -0.4257    6.3043    9.2148 C   0  0  0  0  0  0  0  0  0  0  0  0
    1.9135    6.5219   10.0936 C   0  0  0  0  0  0  0  0  0  0  0  0
    0.1348    5.4696   11.5146 C   0  0  0  0  0  0  0  0  0  0  0  0
   -1.1086    4.5793   11.4950 C   0  0  0  0  0  0  0  0  0  0  0  0
    2.1798    2.8053   10.0240 H   0  0  0  0  0  0  0  0  0  0  0  0
   -3.8471    4.3951   13.1298 N   0  0  0  0  0  0  0  0  0  0  0  0
   -4.2935    4.4986   12.2585 H   0  0  0  0  0  0  0  0  0  0  0  0
   -4.4410    3.7123   14.1049 C   0  0  0  0  0  0  0  0  0  0  0  0
   -5.6563    4.1502   14.6189 C   0  0  0  0  0  0  0  0  0  0  0  0
   -6.2780    3.4385   15.6373 C   0  0  0  0  0  0  0  0  0  0  0  0
   -6.3955    5.5827   13.9899 Cl  0  0  0  0  0  0  0  0  0  0  0  0
   -3.8474    2.5628   14.6103 C   0  0  0  0  0  0  0  0  0  0  0  0
   -4.4683    1.8500   15.6298 C   0  0  0  0  0  0  0  0  0  0  0  0
   -5.6836    2.2878   16.1428 C   0  0  0  0  0  0  0  0  0  0  0  0
   -6.4650    1.3903   17.4257 S   0  0  0  0  0  0  0  0  0  0  0  0
   -7.9074    1.1723   17.0765 O   0  0  0  0  0  0  0  0  0  0  0  0
   -6.3725    2.1649   18.7066 O   0  0  0  0  0  0  0  0  0  0  0  0
   -5.7267   -0.0510   17.6091 N   0  0  0  0  0  0  0  0  0  0  0  0
   -5.7892   -0.5784   16.7383 H   0  0  0  0  0  0  0  0  0  0  0  0
   -6.1828   -0.5740   18.3568 H   0  0  0  0  0  0  0  0  0  0  0  0
  5  6  1  0  0  0
  5 15  1  0  0  0
  6  7  1  0  0  0
  6  8  1  0  0  0
  6  9  1  0  0  0
  9 10  1  0  0  0
  9 11  1  0  0  0
 11 12  1  0  0  0
 11 13  1  0  0  0
 11 14  1  0  0  0
 14 15  1  0  0  0
 15  3  1  0  0  0
  3  1  1  0  0  0
  1  2  2  0  0  0
  1 17  1  0  0  0
 17 19  1  0  0  0
 19 20  2  0  0  0
 19 23  1  0  0  0
 20 21  1  0  0  0
 20 22  1  0  0  0
 21 25  2  0  0  0
 23 24  2  0  0  0
 24 25  1  0  0  0
 25 26  1  0  0  0
 26 27  2  0  0  0
 26 28  2  0  0  0
 26 29  1  0  0  0
 10 16  1  0  0  0
  3  4  1  0  0  0
 17 18  1  0  0  0
 29 30  1  0  0  0
 29 31  1  0  0  0
M  END
> <minimizedAffinity>
-7.55812

$$$$
3EFT_3BS_A_300


 31 32  0  0  0  0  0  0  0  0999 V2000
   -3.4811    4.2406    9.9748 C   0  0  0  0  0  0  0  0  0  0  0  0
   -1.8653    4.2164   10.5636 S   0  0  0  0  0  0  0  0  0  0  0  0
   -3.8729    5.2055    9.1477 N   0  0  0  0  0  0  0  0  0  0  0  0
   -3.7543    5.0998    8.1761 H   0  0  0  0  0  0  0  0  0  0  0  0
   -5.9132    6.5619    9.1566 C   0  0  0  0  0  0  0  0  0  0  0  0
   -6.5188    7.8781    9.6487 C   0  0  0  0  0  0  0  0  0  0  0  0
   -6.5341    7.9140   11.1783 C   0  0  0  0  0  0  0  0  0  0  0  0
   -7.9397    8.0385    9.1045 C   0  0  0  0  0  0  0  0  0  0  0  0
   -5.6980    8.9936    9.1546 N   0  0  0  0  0  0  0  0  0  0  0  0
   -5.6081    8.9257    7.6991 O   0  0  0  0  0  0  0  0  0  0  0  0
   -4.3477    8.9245    9.7332 C   0  0  0  0  0  0  0  0  0  0  0  0
   -4.4633    8.9123   11.2596 C   0  0  0  0  0  0  0  0  0  0  0  0
   -3.5556   10.1505    9.2762 C   0  0  0  0  0  0  0  0  0  0  0  0
   -3.6654    7.6451    9.2453 C   0  0  0  0  0  0  0  0  0  0  0  0
   -4.4834    6.4299    9.6852 C   0  0  0  0  0  0  0  0  0  0  0  0
   -6.4987    8.9712    7.3176 H   0  0  0  0  0  0  0  0  0  0  0  0
   -4.3383    3.2945   10.3469 N   0  0  0  0  0  0  0  0  0  0  0  0
   -4.9454    2.8919    9.6846 H   0  0  0  0  0  0  0  0  0  0  0  0
   -4.3752    2.8924   11.6144 C   0  0  0  0  0  0  0  0  0  0  0  0
   -4.1965    1.5485   11.9221 C   0  0  0  0  0  0  0  0  0  0  0  0
   -4.2349    1.1266   13.2453 C   0  0  0  0  0  0  0  0  0  0  0  0
   -3.9260    0.4000   10.6565 Cl  0  0  0  0  0  0  0  0  0  0  0  0
   -4.5931    3.8141   12.6303 C   0  0  0  0  0  0  0  0  0  0  0  0
   -4.6323    3.3931   13.9548 C   0  0  0  0  0  0  0  0  0  0  0  0
   -4.4528    2.0495   14.2620 C   0  0  0  0  0  0  0  0  0  0  0  0
   -4.5017    1.5200   15.9291 S   0  0  0  0  0  0  0  0  0  0  0  0
   -5.5153    2.3303   16.6815 O   0  0  0  0  0  0  0  0  0  0  0  0
   -3.1506    1.7055   16.5530 O   0  0  0  0  0  0  0  0  0  0  0  0
   -4.9142   -0.0557   15.9875 N   0  0  0  0  0  0  0  0  0  0  0  0
   -5.8331   -0.1825   15.5633 H   0  0  0  0  0  0  0  0  0  0  0  0
   -4.9430   -0.3637   16.9595 H   0  0  0  0  0  0  0  0  0  0  0  0
  5  6  1  0  0  0
  5 15  1  0  0  0
  6  7  1  0  0  0
  6  8  1  0  0  0
  6  9  1  0  0  0
  9 10  1  0  0  0
  9 11  1  0  0  0
 11 12  1  0  0  0
 11 13  1  0  0  0
 11 14  1  0  0  0
 14 15  1  0  0  0
 15  3  1  0  0  0
  3  1  1  0  0  0
  1  2  2  0  0  0
  1 17  1  0  0  0
 17 19  1  0  0  0
 19 20  2  0  0  0
 19 23  1  0  0  0
 20 21  1  0  0  0
 20 22  1  0  0  0
 21 25  2  0  0  0
 23 24  2  0  0  0
 24 25  1  0  0  0
 25 26  1  0  0  0
 26 27  2  0  0  0
 26 28  2  0  0  0
 26 29  1  0  0  0
 10 16  1  0  0  0
  3  4  1  0  0  0
 17 18  1  0  0  0
 29 30  1  0  0  0
 29 31  1  0  0  0
M  END
> <minimizedAffinity>
-7.20090

$$$$
3EFT_3BS_A_300


 31 32  0  0  0  0  0  0  0  0999 V2000
   -1.9926    8.1669   11.4270 C   0  0  0  0  0  0  0  0  0  0  0  0
   -1.9918    9.8474   11.7930 S   0  0  0  0  0  0  0  0  0  0  0  0
   -2.6106    7.7245   10.3356 N   0  0  0  0  0  0  0  0  0  0  0  0
   -2.1762    7.0529    9.7616 H   0  0  0  0  0  0  0  0  0  0  0  0
   -4.9467    7.8296   11.0665 C   0  0  0  0  0  0  0  0  0  0  0  0
   -6.3476    8.2931   10.6614 C   0  0  0  0  0  0  0  0  0  0  0  0
   -6.3727    9.8135   10.4905 C   0  0  0  0  0  0  0  0  0  0  0  0
   -7.3683    7.8656   11.7180 C   0  0  0  0  0  0  0  0  0  0  0  0
   -6.7053    7.6643    9.3813 N   0  0  0  0  0  0  0  0  0  0  0  0
   -6.6078    6.2131    9.5067 O   0  0  0  0  0  0  0  0  0  0  0  0
   -5.7997    8.1267    8.3188 C   0  0  0  0  0  0  0  0  0  0  0  0
   -5.8503    9.6555    8.2559 C   0  0  0  0  0  0  0  0  0  0  0  0
   -6.2612    7.5307    6.9880 C   0  0  0  0  0  0  0  0  0  0  0  0
   -4.3793    7.6585    8.6410 C   0  0  0  0  0  0  0  0  0  0  0  0
   -3.9427    8.2391    9.9869 C   0  0  0  0  0  0  0  0  0  0  0  0
   -7.2051    5.9082   10.2075 H   0  0  0  0  0  0  0  0  0  0  0  0
   -1.3754    7.3102   12.2353 N   0  0  0  0  0  0  0  0  0  0  0  0
   -0.4191    7.4264   12.4385 H   0  0  0  0  0  0  0  0  0  0  0  0
   -2.0508    6.2962   12.7694 C   0  0  0  0  0  0  0  0  0  0  0  0
   -2.6029    6.4214   14.0392 C   0  0  0  0  0  0  0  0  0  0  0  0
   -3.3084    5.3634   14.5986 C   0  0  0  0  0  0  0  0  0  0  0  0
   -2.4113    7.8962   14.9238 Cl  0  0  0  0  0  0  0  0  0  0  0  0
   -2.2040    5.1121   12.0597 C   0  0  0  0  0  0  0  0  0  0  0  0
   -2.9094    4.0524   12.6186 C   0  0  0  0  0  0  0  0  0  0  0  0
   -3.4617    4.1784   13.8878 C   0  0  0  0  0  0  0  0  0  0  0  0
   -4.3498    2.8447   14.5909 S   0  0  0  0  0  0  0  0  0  0  0  0
   -5.7861    3.2390   14.7690 O   0  0  0  0  0  0  0  0  0  0  0  0
   -3.7580    2.4970   15.9244 O   0  0  0  0  0  0  0  0  0  0  0  0
   -4.2601    1.5509   13.6039 N   0  0  0  0  0  0  0  0  0  0  0  0
   -4.6625    1.7867   12.6968 H   0  0  0  0  0  0  0  0  0  0  0  0
   -4.7783    0.7738   14.0140 H   0  0  0  0  0  0  0  0  0  0  0  0
  5  6  1  0  0  0
  5 15  1  0  0  0
  6  7  1  0  0  0
  6  8  1  0  0  0
  6  9  1  0  0  0
  9 10  1  0  0  0
  9 11  1  0  0  0
 11 12  1  0  0  0
 11 13  1  0  0  0
 11 14  1  0  0  0
 14 15  1  0  0  0
 15  3  1  0  0  0
  3  1  1  0  0  0
  1  2  2  0  0  0
  1 17  1  0  0  0
 17 19  1  0  0  0
 19 20  2  0  0  0
 19 23  1  0  0  0
 20 21  1  0  0  0
 20 22  1  0  0  0
 21 25  2  0  0  0
 23 24  2  0  0  0
 24 25  1  0  0  0
 25 26  1  0  0  0
 26 27  2  0  0  0
 26 28  2  0  0  0
 26 29  1  0  0  0
 10 16  1  0  0  0
  3  4  1  0  0  0
 17 18  1  0  0  0
 29 30  1  0  0  0
 29 31  1  0  0  0
M  END
> <minimizedAffinity>
-6.89076

$$$$
