3ZV7_NHG_A_1541


 17 19  0  0  0  0  0  0  0  0999 V2000
    3.4681   68.0680   62.1986 C   0  0  0  0  0  0  0  0  0  0  0  0
    2.8281   67.8740   63.4178 C   0  0  0  0  0  0  0  0  0  0  0  0
    3.3952   67.6476   64.8191 C   0  0  0  0  0  0  0  0  0  0  0  0
    4.2793   68.8099   65.2782 C   0  0  0  0  0  0  0  0  0  0  0  0
    4.1175   66.3023   64.8944 C   0  0  0  0  0  0  0  0  0  0  0  0
    2.9079   65.3704   64.9145 C   0  0  0  0  0  0  0  0  0  0  0  0
    2.1015   66.0015   65.9690 N   0  0  0  0  0  0  0  0  0  0  0  0
    2.1359   67.4415   65.6632 C   0  0  0  0  0  0  0  0  0  0  0  0
    1.0314   67.8061   64.7620 N   0  0  0  0  0  0  0  0  0  0  0  0
    1.4417   67.9775   63.5056 C   0  0  0  0  0  0  0  0  0  0  0  0
    0.7148   68.2903   62.3620 C   0  0  0  0  0  0  0  0  0  0  0  0
    1.3505   68.4849   61.1409 C   0  0  0  0  0  0  0  0  0  0  0  0
    2.7334   68.3679   61.0572 C   0  0  0  0  0  0  0  0  0  0  0  0
    3.3644   68.5046   59.8592 O   0  0  0  0  0  0  0  0  0  0  0  0
    2.5067   65.8200   66.8873 H   0  0  0  0  0  0  0  0  0  0  0  0
    0.0969   67.9114   65.0535 H   0  0  0  0  0  0  0  0  0  0  0  0
    4.2967   68.4247   59.8089 H   0  0  0  0  0  0  0  0  0  0  0  0
  1  2  1  0  0  0
  1 13  2  0  0  0
  2  3  1  0  0  0
  2 10  2  0  0  0
  3  4  1  0  0  0
  3  5  1  0  0  0
  3  8  1  0  0  0
  5  6  1  0  0  0
  6  7  1  0  0  0
  7  8  1  0  0  0
  8  9  1  0  0  0
  9 10  1  0  0  0
 10 11  1  0  0  0
 11 12  2  0  0  0
 12 13  1  0  0  0
 13 14  1  0  0  0
  7 15  1  0  0  0
  9 16  1  0  0  0
 14 17  1  0  0  0
M  END
> <minimizedAffinity>
-8.04896

$$$$
3ZV7_NHG_A_1541


 17 19  0  0  0  0  0  0  0  0999 V2000
    4.0900   68.7317   65.8403 C   0  0  0  0  0  0  0  0  0  0  0  0
    2.8179   68.3101   66.2111 C   0  0  0  0  0  0  0  0  0  0  0  0
    2.1278   68.2963   67.5749 C   0  0  0  0  0  0  0  0  0  0  0  0
    2.0224   69.6976   68.1821 C   0  0  0  0  0  0  0  0  0  0  0  0
    2.8160   67.3056   68.5141 C   0  0  0  0  0  0  0  0  0  0  0  0
    2.3050   65.9972   67.9148 C   0  0  0  0  0  0  0  0  0  0  0  0
    0.8658   66.2846   67.8330 N   0  0  0  0  0  0  0  0  0  0  0  0
    0.7807   67.6404   67.2647 C   0  0  0  0  0  0  0  0  0  0  0  0
    0.7347   67.5841   65.7950 N   0  0  0  0  0  0  0  0  0  0  0  0
    1.9049   67.9014   65.2416 C   0  0  0  0  0  0  0  0  0  0  0  0
    2.2813   67.9358   63.9032 C   0  0  0  0  0  0  0  0  0  0  0  0
    3.5523   68.3564   63.5279 C   0  0  0  0  0  0  0  0  0  0  0  0
    4.4633   68.7513   64.5013 C   0  0  0  0  0  0  0  0  0  0  0  0
    5.7273   69.1161   64.1534 O   0  0  0  0  0  0  0  0  0  0  0  0
    0.4413   66.2570   68.7600 H   0  0  0  0  0  0  0  0  0  0  0  0
   -0.0680   67.3402   65.2799 H   0  0  0  0  0  0  0  0  0  0  0  0
    6.3369   69.3813   64.8137 H   0  0  0  0  0  0  0  0  0  0  0  0
  1  2  1  0  0  0
  1 13  2  0  0  0
  2  3  1  0  0  0
  2 10  2  0  0  0
  3  4  1  0  0  0
  3  5  1  0  0  0
  3  8  1  0  0  0
  5  6  1  0  0  0
  6  7  1  0  0  0
  7  8  1  0  0  0
  8  9  1  0  0  0
  9 10  1  0  0  0
 10 11  1  0  0  0
 11 12  2  0  0  0
 12 13  1  0  0  0
 13 14  1  0  0  0
  7 15  1  0  0  0
  9 16  1  0  0  0
 14 17  1  0  0  0
M  END
> <minimizedAffinity>
-7.94108

$$$$
3ZV7_NHG_A_1541


 17 19  0  0  0  0  0  0  0  0999 V2000
    1.6001   67.5309   63.6592 C   0  0  0  0  0  0  0  0  0  0  0  0
    2.8389   67.5312   63.0276 C   0  0  0  0  0  0  0  0  0  0  0  0
    4.1842   66.9527   63.4660 C   0  0  0  0  0  0  0  0  0  0  0  0
    4.1146   65.4408   63.6954 C   0  0  0  0  0  0  0  0  0  0  0  0
    4.7180   67.7024   64.6868 C   0  0  0  0  0  0  0  0  0  0  0  0
    5.1631   68.9968   64.0098 C   0  0  0  0  0  0  0  0  0  0  0  0
    5.9481   68.4570   62.8905 N   0  0  0  0  0  0  0  0  0  0  0  0
    5.1191   67.3761   62.3313 C   0  0  0  0  0  0  0  0  0  0  0  0
    4.2165   67.8994   61.2938 N   0  0  0  0  0  0  0  0  0  0  0  0
    2.9660   68.0337   61.7346 C   0  0  0  0  0  0  0  0  0  0  0  0
    1.8359   68.5191   61.0854 C   0  0  0  0  0  0  0  0  0  0  0  0
    0.5954   68.5209   61.7132 C   0  0  0  0  0  0  0  0  0  0  0  0
    0.4774   68.0294   63.0085 C   0  0  0  0  0  0  0  0  0  0  0  0
   -0.7196   68.0722   63.6545 O   0  0  0  0  0  0  0  0  0  0  0  0
    6.8402   68.0900   63.2220 H   0  0  0  0  0  0  0  0  0  0  0  0
    4.5033   68.1245   60.3792 H   0  0  0  0  0  0  0  0  0  0  0  0
   -0.7931   67.7395   64.5274 H   0  0  0  0  0  0  0  0  0  0  0  0
  1  2  1  0  0  0
  1 13  2  0  0  0
  2  3  1  0  0  0
  2 10  2  0  0  0
  3  4  1  0  0  0
  3  5  1  0  0  0
  3  8  1  0  0  0
  5  6  1  0  0  0
  6  7  1  0  0  0
  7  8  1  0  0  0
  8  9  1  0  0  0
  9 10  1  0  0  0
 10 11  1  0  0  0
 11 12  2  0  0  0
 12 13  1  0  0  0
 13 14  1  0  0  0
  7 15  1  0  0  0
  9 16  1  0  0  0
 14 17  1  0  0  0
M  END
> <minimizedAffinity>
-7.89768

$$$$
3ZV7_NHG_A_1541


 17 19  0  0  0  0  0  0  0  0999 V2000
    4.3455   65.2965   62.8430 C   0  0  0  0  0  0  0  0  0  0  0  0
    3.8488   66.3120   63.6526 C   0  0  0  0  0  0  0  0  0  0  0  0
    3.6452   67.8014   63.3757 C   0  0  0  0  0  0  0  0  0  0  0  0
    2.6943   68.0448   62.2010 C   0  0  0  0  0  0  0  0  0  0  0  0
    4.9915   68.5011   63.1889 C   0  0  0  0  0  0  0  0  0  0  0  0
    5.4588   68.5353   64.6423 C   0  0  0  0  0  0  0  0  0  0  0  0
    4.2611   69.0822   65.2956 N   0  0  0  0  0  0  0  0  0  0  0  0
    3.1357   68.3276   64.7190 C   0  0  0  0  0  0  0  0  0  0  0  0
    2.8686   67.1136   65.5064 N   0  0  0  0  0  0  0  0  0  0  0  0
    3.3357   66.0153   64.9133 C   0  0  0  0  0  0  0  0  0  0  0  0
    3.3163   64.6916   65.3393 C   0  0  0  0  0  0  0  0  0  0  0  0
    3.8121   63.6731   64.5331 C   0  0  0  0  0  0  0  0  0  0  0  0
    4.3343   63.9772   63.2810 C   0  0  0  0  0  0  0  0  0  0  0  0
    4.8702   62.9980   62.5024 O   0  0  0  0  0  0  0  0  0  0  0  0
    4.1658   70.0777   65.0946 H   0  0  0  0  0  0  0  0  0  0  0  0
    2.3989   67.1127   66.3716 H   0  0  0  0  0  0  0  0  0  0  0  0
    5.2206   63.2090   61.6594 H   0  0  0  0  0  0  0  0  0  0  0  0
  1  2  1  0  0  0
  1 13  2  0  0  0
  2  3  1  0  0  0
  2 10  2  0  0  0
  3  4  1  0  0  0
  3  5  1  0  0  0
  3  8  1  0  0  0
  5  6  1  0  0  0
  6  7  1  0  0  0
  7  8  1  0  0  0
  8  9  1  0  0  0
  9 10  1  0  0  0
 10 11  1  0  0  0
 11 12  2  0  0  0
 12 13  1  0  0  0
 13 14  1  0  0  0
  7 15  1  0  0  0
  9 16  1  0  0  0
 14 17  1  0  0  0
M  END
> <minimizedAffinity>
-7.84665

$$$$
3ZV7_NHG_A_1541


 17 19  0  0  0  0  0  0  0  0999 V2000
    2.3606   68.6930   66.6463 C   0  0  0  0  0  0  0  0  0  0  0  0
    3.3409   67.7655   66.3112 C   0  0  0  0  0  0  0  0  0  0  0  0
    4.2498   67.6708   65.0859 C   0  0  0  0  0  0  0  0  0  0  0  0
    5.1323   68.9113   64.9253 C   0  0  0  0  0  0  0  0  0  0  0  0
    3.4287   67.3745   63.8308 C   0  0  0  0  0  0  0  0  0  0  0  0
    3.1175   65.9001   64.0784 C   0  0  0  0  0  0  0  0  0  0  0  0
    4.4599   65.3933   64.3972 N   0  0  0  0  0  0  0  0  0  0  0  0
    5.0231   66.3751   65.3390 C   0  0  0  0  0  0  0  0  0  0  0  0
    4.6852   66.0160   66.7254 N   0  0  0  0  0  0  0  0  0  0  0  0
    3.7001   66.7683   67.2151 C   0  0  0  0  0  0  0  0  0  0  0  0
    3.0747   66.7258   68.4565 C   0  0  0  0  0  0  0  0  0  0  0  0
    2.0938   67.6510   68.7957 C   0  0  0  0  0  0  0  0  0  0  0  0
    1.7308   68.6364   67.8844 C   0  0  0  0  0  0  0  0  0  0  0  0
    0.7366   69.5167   68.1821 O   0  0  0  0  0  0  0  0  0  0  0  0
    5.0312   65.3362   63.5542 H   0  0  0  0  0  0  0  0  0  0  0  0
    5.1350   65.3022   67.2327 H   0  0  0  0  0  0  0  0  0  0  0  0
    0.4963   70.1786   67.5640 H   0  0  0  0  0  0  0  0  0  0  0  0
  1  2  1  0  0  0
  1 13  2  0  0  0
  2  3  1  0  0  0
  2 10  2  0  0  0
  3  4  1  0  0  0
  3  5  1  0  0  0
  3  8  1  0  0  0
  5  6  1  0  0  0
  6  7  1  0  0  0
  7  8  1  0  0  0
  8  9  1  0  0  0
  9 10  1  0  0  0
 10 11  1  0  0  0
 11 12  2  0  0  0
 12 13  1  0  0  0
 13 14  1  0  0  0
  7 15  1  0  0  0
  9 16  1  0  0  0
 14 17  1  0  0  0
M  END
> <minimizedAffinity>
-7.84576

$$$$
3ZV7_NHG_A_1541


 17 19  0  0  0  0  0  0  0  0999 V2000
    2.7822   68.0691   67.3741 C   0  0  0  0  0  0  0  0  0  0  0  0
    2.9692   66.9644   66.5506 C   0  0  0  0  0  0  0  0  0  0  0  0
    4.1846   66.0585   66.3546 C   0  0  0  0  0  0  0  0  0  0  0  0
    4.6063   65.3699   67.6552 C   0  0  0  0  0  0  0  0  0  0  0  0
    5.3327   66.8339   65.7082 C   0  0  0  0  0  0  0  0  0  0  0  0
    4.8008   66.9224   64.2794 C   0  0  0  0  0  0  0  0  0  0  0  0
    4.4377   65.5180   64.0417 N   0  0  0  0  0  0  0  0  0  0  0  0
    3.7178   65.1007   65.2566 C   0  0  0  0  0  0  0  0  0  0  0  0
    2.2780   65.3739   65.1250 N   0  0  0  0  0  0  0  0  0  0  0  0
    1.9059   66.4565   65.8074 C   0  0  0  0  0  0  0  0  0  0  0  0
    0.6584   67.0618   65.9141 C   0  0  0  0  0  0  0  0  0  0  0  0
    0.4669   68.1666   66.7361 C   0  0  0  0  0  0  0  0  0  0  0  0
    1.5350   68.6765   67.4658 C   0  0  0  0  0  0  0  0  0  0  0  0
    1.3753   69.7881   68.2344 O   0  0  0  0  0  0  0  0  0  0  0  0
    5.2737   64.9493   63.9070 H   0  0  0  0  0  0  0  0  0  0  0  0
    1.6605   64.8207   64.5940 H   0  0  0  0  0  0  0  0  0  0  0  0
    2.0988   70.1272   68.7239 H   0  0  0  0  0  0  0  0  0  0  0  0
  1  2  1  0  0  0
  1 13  2  0  0  0
  2  3  1  0  0  0
  2 10  2  0  0  0
  3  4  1  0  0  0
  3  5  1  0  0  0
  3  8  1  0  0  0
  5  6  1  0  0  0
  6  7  1  0  0  0
  7  8  1  0  0  0
  8  9  1  0  0  0
  9 10  1  0  0  0
 10 11  1  0  0  0
 11 12  2  0  0  0
 12 13  1  0  0  0
 13 14  1  0  0  0
  7 15  1  0  0  0
  9 16  1  0  0  0
 14 17  1  0  0  0
M  END
> <minimizedAffinity>
-7.81873

$$$$
3ZV7_NHG_A_1541


 17 19  0  0  0  0  0  0  0  0999 V2000
    3.8492   68.6807   65.2031 C   0  0  0  0  0  0  0  0  0  0  0  0
    3.1421   67.8324   66.0481 C   0  0  0  0  0  0  0  0  0  0  0  0
    1.6824   67.8620   66.5006 C   0  0  0  0  0  0  0  0  0  0  0  0
    0.7110   67.7697   65.3211 C   0  0  0  0  0  0  0  0  0  0  0  0
    1.4176   69.0858   67.3779 C   0  0  0  0  0  0  0  0  0  0  0  0
    2.1116   68.6292   68.6592 C   0  0  0  0  0  0  0  0  0  0  0  0
    1.5313   67.2877   68.8143 N   0  0  0  0  0  0  0  0  0  0  0  0
    1.6070   66.6836   67.4735 C   0  0  0  0  0  0  0  0  0  0  0  0
    2.8876   65.9818   67.2931 N   0  0  0  0  0  0  0  0  0  0  0  0
    3.7435   66.6788   66.5463 C   0  0  0  0  0  0  0  0  0  0  0  0
    5.0510   66.3851   66.1742 C   0  0  0  0  0  0  0  0  0  0  0  0
    5.7618   67.2305   65.3298 C   0  0  0  0  0  0  0  0  0  0  0  0
    5.1602   68.3869   64.8458 C   0  0  0  0  0  0  0  0  0  0  0  0
    5.8603   69.2500   64.0604 O   0  0  0  0  0  0  0  0  0  0  0  0
    0.5619   67.3499   69.1254 H   0  0  0  0  0  0  0  0  0  0  0  0
    3.0890   65.0990   67.6796 H   0  0  0  0  0  0  0  0  0  0  0  0
    5.4496   70.0277   63.7372 H   0  0  0  0  0  0  0  0  0  0  0  0
  1  2  1  0  0  0
  1 13  2  0  0  0
  2  3  1  0  0  0
  2 10  2  0  0  0
  3  4  1  0  0  0
  3  5  1  0  0  0
  3  8  1  0  0  0
  5  6  1  0  0  0
  6  7  1  0  0  0
  7  8  1  0  0  0
  8  9  1  0  0  0
  9 10  1  0  0  0
 10 11  1  0  0  0
 11 12  2  0  0  0
 12 13  1  0  0  0
 13 14  1  0  0  0
  7 15  1  0  0  0
  9 16  1  0  0  0
 14 17  1  0  0  0
M  END
> <minimizedAffinity>
-7.80957

$$$$
3ZV7_NHG_A_1541


 17 19  0  0  0  0  0  0  0  0999 V2000
    2.6430   68.6653   67.0035 C   0  0  0  0  0  0  0  0  0  0  0  0
    2.8043   67.7326   65.9849 C   0  0  0  0  0  0  0  0  0  0  0  0
    4.0674   67.1993   65.3092 C   0  0  0  0  0  0  0  0  0  0  0  0
    5.0127   66.5230   66.3056 C   0  0  0  0  0  0  0  0  0  0  0  0
    4.7575   68.3064   64.5122 C   0  0  0  0  0  0  0  0  0  0  0  0
    3.8030   68.3899   63.3231 C   0  0  0  0  0  0  0  0  0  0  0  0
    3.7035   66.9691   62.9597 N   0  0  0  0  0  0  0  0  0  0  0  0
    3.5066   66.2631   64.2369 C   0  0  0  0  0  0  0  0  0  0  0  0
    2.0741   66.1616   64.5572 N   0  0  0  0  0  0  0  0  0  0  0  0
    1.7028   67.0384   65.4897 C   0  0  0  0  0  0  0  0  0  0  0  0
    0.4486   67.2831   66.0386 C   0  0  0  0  0  0  0  0  0  0  0  0
    0.2827   68.2150   67.0570 C   0  0  0  0  0  0  0  0  0  0  0  0
    1.3841   68.9137   67.5384 C   0  0  0  0  0  0  0  0  0  0  0  0
    1.2294   69.8656   68.4987 O   0  0  0  0  0  0  0  0  0  0  0  0
    4.5603   66.6545   62.5043 H   0  0  0  0  0  0  0  0  0  0  0  0
    1.4605   65.5200   64.1316 H   0  0  0  0  0  0  0  0  0  0  0  0
    1.9754   70.3332   68.8193 H   0  0  0  0  0  0  0  0  0  0  0  0
  1  2  1  0  0  0
  1 13  2  0  0  0
  2  3  1  0  0  0
  2 10  2  0  0  0
  3  4  1  0  0  0
  3  5  1  0  0  0
  3  8  1  0  0  0
  5  6  1  0  0  0
  6  7  1  0  0  0
  7  8  1  0  0  0
  8  9  1  0  0  0
  9 10  1  0  0  0
 10 11  1  0  0  0
 11 12  2  0  0  0
 12 13  1  0  0  0
 13 14  1  0  0  0
  7 15  1  0  0  0
  9 16  1  0  0  0
 14 17  1  0  0  0
M  END
> <minimizedAffinity>
-7.79332

$$$$
3ZV7_NHG_A_1541


 17 19  0  0  0  0  0  0  0  0999 V2000
    2.3476   68.3268   61.3402 C   0  0  0  0  0  0  0  0  0  0  0  0
    2.9275   67.8815   62.5229 C   0  0  0  0  0  0  0  0  0  0  0  0
    4.3932   67.6581   62.8949 C   0  0  0  0  0  0  0  0  0  0  0  0
    5.2202   68.9409   62.7766 C   0  0  0  0  0  0  0  0  0  0  0  0
    4.9840   66.5078   62.0796 C   0  0  0  0  0  0  0  0  0  0  0  0
    4.3195   65.3309   62.7904 C   0  0  0  0  0  0  0  0  0  0  0  0
    4.6134   65.6642   64.1915 N   0  0  0  0  0  0  0  0  0  0  0  0
    4.2989   67.0974   64.3153 C   0  0  0  0  0  0  0  0  0  0  0  0
    2.8881   67.2878   64.6876 N   0  0  0  0  0  0  0  0  0  0  0  0
    2.1395   67.6632   63.6508 C   0  0  0  0  0  0  0  0  0  0  0  0
    0.7730   67.9106   63.5772 C   0  0  0  0  0  0  0  0  0  0  0  0
    0.1889   68.3556   62.3965 C   0  0  0  0  0  0  0  0  0  0  0  0
    0.9788   68.5597   61.2707 C   0  0  0  0  0  0  0  0  0  0  0  0
    0.4139   68.9454   60.0942 O   0  0  0  0  0  0  0  0  0  0  0  0
    5.5966   65.4932   64.4022 H   0  0  0  0  0  0  0  0  0  0  0  0
    2.5375   67.1534   65.5977 H   0  0  0  0  0  0  0  0  0  0  0  0
    0.9513   69.0814   59.3388 H   0  0  0  0  0  0  0  0  0  0  0  0
  1  2  1  0  0  0
  1 13  2  0  0  0
  2  3  1  0  0  0
  2 10  2  0  0  0
  3  4  1  0  0  0
  3  5  1  0  0  0
  3  8  1  0  0  0
  5  6  1  0  0  0
  6  7  1  0  0  0
  7  8  1  0  0  0
  8  9  1  0  0  0
  9 10  1  0  0  0
 10 11  1  0  0  0
 11 12  2  0  0  0
 12 13  1  0  0  0
 13 14  1  0  0  0
  7 15  1  0  0  0
  9 16  1  0  0  0
 14 17  1  0  0  0
M  END
> <minimizedAffinity>
-7.72362

$$$$
3ZV7_NHG_A_1541


 17 19  0  0  0  0  0  0  0  0999 V2000
    3.7521   65.5809   65.2670 C   0  0  0  0  0  0  0  0  0  0  0  0
    4.1335   66.1536   64.0587 C   0  0  0  0  0  0  0  0  0  0  0  0
    4.4087   67.6103   63.6862 C   0  0  0  0  0  0  0  0  0  0  0  0
    5.5397   68.2155   64.5217 C   0  0  0  0  0  0  0  0  0  0  0  0
    3.1237   68.4352   63.7622 C   0  0  0  0  0  0  0  0  0  0  0  0
    2.4311   67.9356   62.4962 C   0  0  0  0  0  0  0  0  0  0  0  0
    3.5200   68.0826   61.5199 N   0  0  0  0  0  0  0  0  0  0  0  0
    4.7076   67.5245   62.1881 C   0  0  0  0  0  0  0  0  0  0  0  0
    4.8210   66.0817   61.9229 N   0  0  0  0  0  0  0  0  0  0  0  0
    4.4326   65.3458   62.9640 C   0  0  0  0  0  0  0  0  0  0  0  0
    4.3571   63.9642   63.1044 C   0  0  0  0  0  0  0  0  0  0  0  0
    3.9760   63.3873   64.3106 C   0  0  0  0  0  0  0  0  0  0  0  0
    3.6666   64.1993   65.3960 C   0  0  0  0  0  0  0  0  0  0  0  0
    3.2424   63.6509   66.5670 O   0  0  0  0  0  0  0  0  0  0  0  0
    3.6661   69.0658   61.2909 H   0  0  0  0  0  0  0  0  0  0  0  0
    5.1464   65.7034   61.0742 H   0  0  0  0  0  0  0  0  0  0  0  0
    3.0354   64.2032   67.2951 H   0  0  0  0  0  0  0  0  0  0  0  0
  1  2  1  0  0  0
  1 13  2  0  0  0
  2  3  1  0  0  0
  2 10  2  0  0  0
  3  4  1  0  0  0
  3  5  1  0  0  0
  3  8  1  0  0  0
  5  6  1  0  0  0
  6  7  1  0  0  0
  7  8  1  0  0  0
  8  9  1  0  0  0
  9 10  1  0  0  0
 10 11  1  0  0  0
 11 12  2  0  0  0
 12 13  1  0  0  0
 13 14  1  0  0  0
  7 15  1  0  0  0
  9 16  1  0  0  0
 14 17  1  0  0  0
M  END
> <minimizedAffinity>
-7.56297

$$$$
