5WYZ_7VF_A_901


 21 23  0  0  0  0  0  0  0  0999 V2000
   61.3180  -29.5778   33.8259 C   0  0  0  0  0  0  0  0  0  0  0  0
   62.5849  -29.8255   33.3340 C   0  0  0  0  0  0  0  0  0  0  0  0
   63.5231  -30.5648   34.1023 C   0  0  0  0  0  0  0  0  0  0  0  0
   63.2707  -31.0716   35.3144 N   0  0  0  0  0  0  0  0  0  0  0  0
   61.0185  -30.1354   35.1624 C   0  0  0  0  0  0  0  0  0  0  0  0
   59.7736  -29.9914   35.7466 C   0  0  0  0  0  0  0  0  0  0  0  0
   59.5070  -30.5014   36.9892 C   0  0  0  0  0  0  0  0  0  0  0  0
   60.5102  -31.1693   37.6801 C   0  0  0  0  0  0  0  0  0  0  0  0
   60.1415  -31.5880   38.9003 O   0  0  0  0  0  0  0  0  0  0  0  0
   61.7723  -31.3614   37.1644 C   0  0  0  0  0  0  0  0  0  0  0  0
   62.0667  -30.8743   35.8973 C   0  0  0  0  0  0  0  0  0  0  0  0
   59.2693  -31.4324   39.2053 H   0  0  0  0  0  0  0  0  0  0  0  0
   57.4238  -26.7155   30.8784 O   0  0  0  0  0  0  0  0  0  0  0  0
   58.3223  -27.3968   31.6014 C   0  0  0  0  0  0  0  0  0  0  0  0
   59.0001  -28.5239   30.9769 C   0  0  0  0  0  0  0  0  0  0  0  0
   58.6034  -28.9184   29.5782 C   0  0  0  0  0  0  0  0  0  0  0  0
   59.9496  -29.2390   31.7278 C   0  0  0  0  0  0  0  0  0  0  0  0
   58.7048  -26.9913   32.9031 C   0  0  0  0  0  0  0  0  0  0  0  0
   59.6772  -27.7153   33.6059 C   0  0  0  0  0  0  0  0  0  0  0  0
   60.2880  -28.8383   33.0324 C   0  0  0  0  0  0  0  0  0  0  0  0
   57.1924  -27.0107   30.0198 H   0  0  0  0  0  0  0  0  0  0  0  0
 16 15  1  0  0  0
 13 14  1  0  0  0
 15 14  1  0  0  0
 15 17  2  0  0  0
 14 18  2  0  0  0
 17 20  1  0  0  0
 18 19  1  0  0  0
 20 19  2  0  0  0
 20  1  1  0  0  0
  2  1  2  0  0  0
  2  3  1  0  0  0
  1  5  1  0  0  0
  3  4  2  0  0  0
  5  6  2  0  0  0
  5 11  1  0  0  0
  4 11  1  0  0  0
  6  7  1  0  0  0
 11 10  2  0  0  0
  7  8  2  0  0  0
 10  8  1  0  0  0
  8  9  1  0  0  0
 13 21  1  0  0  0
  9 12  1  0  0  0
M  END
> <minimizedAffinity>
-13.91925

$$$$
5WYZ_7VF_A_901


 21 23  0  0  0  0  0  0  0  0999 V2000
   61.5477  -29.7181   33.7404 C   0  0  0  0  0  0  0  0  0  0  0  0
   62.8381  -29.9713   33.3173 C   0  0  0  0  0  0  0  0  0  0  0  0
   63.7779  -30.5738   34.1953 C   0  0  0  0  0  0  0  0  0  0  0  0
   63.5056  -30.9408   35.4527 N   0  0  0  0  0  0  0  0  0  0  0  0
   61.2262  -30.1224   35.1262 C   0  0  0  0  0  0  0  0  0  0  0  0
   59.9587  -29.9600   35.6541 C   0  0  0  0  0  0  0  0  0  0  0  0
   59.6714  -30.3271   36.9418 C   0  0  0  0  0  0  0  0  0  0  0  0
   60.6760  -30.8653   37.7361 C   0  0  0  0  0  0  0  0  0  0  0  0
   60.2840  -31.1486   38.9875 O   0  0  0  0  0  0  0  0  0  0  0  0
   61.9603  -31.0665   37.2823 C   0  0  0  0  0  0  0  0  0  0  0  0
   62.2770  -30.7240   35.9740 C   0  0  0  0  0  0  0  0  0  0  0  0
   59.3973  -30.9932   39.2472 H   0  0  0  0  0  0  0  0  0  0  0  0
   57.6538  -27.5303   30.2625 O   0  0  0  0  0  0  0  0  0  0  0  0
   58.5992  -28.0427   31.0611 C   0  0  0  0  0  0  0  0  0  0  0  0
   58.7274  -27.5100   32.4100 C   0  0  0  0  0  0  0  0  0  0  0  0
   57.8462  -26.3577   32.8165 C   0  0  0  0  0  0  0  0  0  0  0  0
   59.7129  -28.0483   33.2560 C   0  0  0  0  0  0  0  0  0  0  0  0
   59.3960  -29.1468   30.6722 C   0  0  0  0  0  0  0  0  0  0  0  0
   60.3470  -29.6719   31.5574 C   0  0  0  0  0  0  0  0  0  0  0  0
   60.5169  -29.1223   32.8350 C   0  0  0  0  0  0  0  0  0  0  0  0
   57.1435  -26.7989   30.5500 H   0  0  0  0  0  0  0  0  0  0  0  0
 16 15  1  0  0  0
 13 14  1  0  0  0
 15 14  1  0  0  0
 15 17  2  0  0  0
 14 18  2  0  0  0
 17 20  1  0  0  0
 18 19  1  0  0  0
 20 19  2  0  0  0
 20  1  1  0  0  0
  2  1  2  0  0  0
  2  3  1  0  0  0
  1  5  1  0  0  0
  3  4  2  0  0  0
  5  6  2  0  0  0
  5 11  1  0  0  0
  4 11  1  0  0  0
  6  7  1  0  0  0
 11 10  2  0  0  0
  7  8  2  0  0  0
 10  8  1  0  0  0
  8  9  1  0  0  0
 13 21  1  0  0  0
  9 12  1  0  0  0
M  END
> <minimizedAffinity>
-12.16674

$$$$
5WYZ_7VF_A_901


 21 23  0  0  0  0  0  0  0  0999 V2000
   59.5479  -28.8573   31.7241 C   0  0  0  0  0  0  0  0  0  0  0  0
   59.4485  -29.4307   30.4712 C   0  0  0  0  0  0  0  0  0  0  0  0
   58.5533  -28.8986   29.5055 C   0  0  0  0  0  0  0  0  0  0  0  0
   57.7673  -27.8360   29.7125 N   0  0  0  0  0  0  0  0  0  0  0  0
   58.6905  -27.6775   31.9696 C   0  0  0  0  0  0  0  0  0  0  0  0
   58.7278  -26.9901   33.1687 C   0  0  0  0  0  0  0  0  0  0  0  0
   57.9232  -25.9049   33.3924 C   0  0  0  0  0  0  0  0  0  0  0  0
   57.0458  -25.4918   32.3978 C   0  0  0  0  0  0  0  0  0  0  0  0
   56.2837  -24.4447   32.7481 O   0  0  0  0  0  0  0  0  0  0  0  0
   56.9547  -26.1175   31.1746 C   0  0  0  0  0  0  0  0  0  0  0  0
   57.7733  -27.2080   30.9099 C   0  0  0  0  0  0  0  0  0  0  0  0
   56.3846  -24.0539   33.5937 H   0  0  0  0  0  0  0  0  0  0  0  0
   63.2402  -30.7355   35.5822 O   0  0  0  0  0  0  0  0  0  0  0  0
   62.3790  -30.3141   34.6468 C   0  0  0  0  0  0  0  0  0  0  0  0
   60.9656  -30.2465   34.9891 C   0  0  0  0  0  0  0  0  0  0  0  0
   60.5297  -30.7265   36.3490 C   0  0  0  0  0  0  0  0  0  0  0  0
   60.0570  -29.7983   34.0143 C   0  0  0  0  0  0  0  0  0  0  0  0
   62.8113  -29.8370   33.3856 C   0  0  0  0  0  0  0  0  0  0  0  0
   61.8746  -29.3712   32.4532 C   0  0  0  0  0  0  0  0  0  0  0  0
   60.5065  -29.3621   32.7554 C   0  0  0  0  0  0  0  0  0  0  0  0
   62.9214  -31.0454   36.4069 H   0  0  0  0  0  0  0  0  0  0  0  0
 16 15  1  0  0  0
 13 14  1  0  0  0
 15 14  1  0  0  0
 15 17  2  0  0  0
 14 18  2  0  0  0
 17 20  1  0  0  0
 18 19  1  0  0  0
 20 19  2  0  0  0
 20  1  1  0  0  0
  2  1  2  0  0  0
  2  3  1  0  0  0
  1  5  1  0  0  0
  3  4  2  0  0  0
  5  6  2  0  0  0
  5 11  1  0  0  0
  4 11  1  0  0  0
  6  7  1  0  0  0
 11 10  2  0  0  0
  7  8  2  0  0  0
 10  8  1  0  0  0
  8  9  1  0  0  0
 13 21  1  0  0  0
  9 12  1  0  0  0
M  END
> <minimizedAffinity>
-12.03209

$$$$
5WYZ_7VF_A_901


 21 23  0  0  0  0  0  0  0  0999 V2000
   59.5106  -29.4669   34.3051 C   0  0  0  0  0  0  0  0  0  0  0  0
   58.7585  -29.8080   35.4125 C   0  0  0  0  0  0  0  0  0  0  0  0
   59.3444  -30.5313   36.4851 C   0  0  0  0  0  0  0  0  0  0  0  0
   60.6234  -30.9221   36.5196 N   0  0  0  0  0  0  0  0  0  0  0  0
   60.9289  -29.8855   34.3278 C   0  0  0  0  0  0  0  0  0  0  0  0
   61.7956  -29.5692   33.2980 C   0  0  0  0  0  0  0  0  0  0  0  0
   63.1049  -29.9695   33.3212 C   0  0  0  0  0  0  0  0  0  0  0  0
   63.5693  -30.7158   34.3969 C   0  0  0  0  0  0  0  0  0  0  0  0
   64.8554  -31.0818   34.2876 O   0  0  0  0  0  0  0  0  0  0  0  0
   62.7722  -31.0644   35.4642 C   0  0  0  0  0  0  0  0  0  0  0  0
   61.4451  -30.6546   35.4797 C   0  0  0  0  0  0  0  0  0  0  0  0
   65.3556  -30.8184   33.5403 H   0  0  0  0  0  0  0  0  0  0  0  0
   57.3548  -26.3892   30.0712 O   0  0  0  0  0  0  0  0  0  0  0  0
   57.8342  -27.1164   31.0888 C   0  0  0  0  0  0  0  0  0  0  0  0
   58.5104  -28.3693   30.7845 C   0  0  0  0  0  0  0  0  0  0  0  0
   58.5697  -28.8263   29.3502 C   0  0  0  0  0  0  0  0  0  0  0  0
   59.0223  -29.1341   31.8474 C   0  0  0  0  0  0  0  0  0  0  0  0
   57.7972  -26.6549   32.4271 C   0  0  0  0  0  0  0  0  0  0  0  0
   58.3456  -27.4354   33.4536 C   0  0  0  0  0  0  0  0  0  0  0  0
   58.9426  -28.6715   33.1728 C   0  0  0  0  0  0  0  0  0  0  0  0
   57.3946  -26.7237   29.1968 H   0  0  0  0  0  0  0  0  0  0  0  0
 16 15  1  0  0  0
 13 14  1  0  0  0
 15 14  1  0  0  0
 15 17  2  0  0  0
 14 18  2  0  0  0
 17 20  1  0  0  0
 18 19  1  0  0  0
 20 19  2  0  0  0
 20  1  1  0  0  0
  2  1  2  0  0  0
  2  3  1  0  0  0
  1  5  1  0  0  0
  3  4  2  0  0  0
  5  6  2  0  0  0
  5 11  1  0  0  0
  4 11  1  0  0  0
  6  7  1  0  0  0
 11 10  2  0  0  0
  7  8  2  0  0  0
 10  8  1  0  0  0
  8  9  1  0  0  0
 13 21  1  0  0  0
  9 12  1  0  0  0
M  END
> <minimizedAffinity>
-11.75732

$$$$
5WYZ_7VF_A_901


 21 23  0  0  0  0  0  0  0  0999 V2000
   61.8701  -30.4590   35.0414 C   0  0  0  0  0  0  0  0  0  0  0  0
   63.1454  -30.6870   34.5619 C   0  0  0  0  0  0  0  0  0  0  0  0
   63.5470  -30.1586   33.3063 C   0  0  0  0  0  0  0  0  0  0  0  0
   62.7621  -29.4185   32.5152 N   0  0  0  0  0  0  0  0  0  0  0  0
   60.9895  -29.6376   34.1830 C   0  0  0  0  0  0  0  0  0  0  0  0
   59.7044  -29.3046   34.5696 C   0  0  0  0  0  0  0  0  0  0  0  0
   58.8912  -28.5524   33.7646 C   0  0  0  0  0  0  0  0  0  0  0  0
   59.3639  -28.1228   32.5310 C   0  0  0  0  0  0  0  0  0  0  0  0
   58.4641  -27.4290   31.8175 O   0  0  0  0  0  0  0  0  0  0  0  0
   60.6329  -28.4054   32.0774 C   0  0  0  0  0  0  0  0  0  0  0  0
   61.4887  -29.1482   32.8807 C   0  0  0  0  0  0  0  0  0  0  0  0
   57.6127  -27.2632   32.1717 H   0  0  0  0  0  0  0  0  0  0  0  0
   60.0893  -32.3578   40.0682 O   0  0  0  0  0  0  0  0  0  0  0  0
   60.4991  -31.8770   38.8871 C   0  0  0  0  0  0  0  0  0  0  0  0
   61.8763  -32.1205   38.4823 C   0  0  0  0  0  0  0  0  0  0  0  0
   62.7947  -32.8312   39.4420 C   0  0  0  0  0  0  0  0  0  0  0  0
   62.3110  -31.6248   37.2405 C   0  0  0  0  0  0  0  0  0  0  0  0
   59.6128  -31.2396   37.9852 C   0  0  0  0  0  0  0  0  0  0  0  0
   60.0807  -30.7865   36.7444 C   0  0  0  0  0  0  0  0  0  0  0  0
   61.4208  -30.9635   36.3760 C   0  0  0  0  0  0  0  0  0  0  0  0
   60.7015  -32.7744   40.6424 H   0  0  0  0  0  0  0  0  0  0  0  0
 16 15  1  0  0  0
 13 14  1  0  0  0
 15 14  1  0  0  0
 15 17  2  0  0  0
 14 18  2  0  0  0
 17 20  1  0  0  0
 18 19  1  0  0  0
 20 19  2  0  0  0
 20  1  1  0  0  0
  2  1  2  0  0  0
  2  3  1  0  0  0
  1  5  1  0  0  0
  3  4  2  0  0  0
  5  6  2  0  0  0
  5 11  1  0  0  0
  4 11  1  0  0  0
  6  7  1  0  0  0
 11 10  2  0  0  0
  7  8  2  0  0  0
 10  8  1  0  0  0
  8  9  1  0  0  0
 13 21  1  0  0  0
  9 12  1  0  0  0
M  END
> <minimizedAffinity>
-11.15322

$$$$
5WYZ_7VF_A_901


 21 23  0  0  0  0  0  0  0  0999 V2000
   59.9685  -28.0963   33.1411 C   0  0  0  0  0  0  0  0  0  0  0  0
   59.4013  -27.1815   34.0071 C   0  0  0  0  0  0  0  0  0  0  0  0
   58.2815  -26.4070   33.6030 C   0  0  0  0  0  0  0  0  0  0  0  0
   57.6974  -26.4972   32.4028 N   0  0  0  0  0  0  0  0  0  0  0  0
   59.3326  -28.2141   31.8111 C   0  0  0  0  0  0  0  0  0  0  0  0
   59.7813  -29.1223   30.8701 C   0  0  0  0  0  0  0  0  0  0  0  0
   59.1940  -29.2182   29.6367 C   0  0  0  0  0  0  0  0  0  0  0  0
   58.1318  -28.3802   29.3218 C   0  0  0  0  0  0  0  0  0  0  0  0
   57.6667  -28.5403   28.0737 O   0  0  0  0  0  0  0  0  0  0  0  0
   57.6217  -27.4559   30.2059 C   0  0  0  0  0  0  0  0  0  0  0  0
   58.1824  -27.3498   31.4723 C   0  0  0  0  0  0  0  0  0  0  0  0
   58.0487  -29.1844   27.5104 H   0  0  0  0  0  0  0  0  0  0  0  0
   64.3857  -31.3218   34.6004 O   0  0  0  0  0  0  0  0  0  0  0  0
   63.3403  -30.5738   34.2240 C   0  0  0  0  0  0  0  0  0  0  0  0
   62.1673  -30.5423   35.0859 C   0  0  0  0  0  0  0  0  0  0  0  0
   62.1537  -31.4110   36.3166 C   0  0  0  0  0  0  0  0  0  0  0  0
   61.0691  -29.7534   34.7005 C   0  0  0  0  0  0  0  0  0  0  0  0
   63.3842  -29.7394   33.0808 C   0  0  0  0  0  0  0  0  0  0  0  0
   62.2778  -28.9461   32.7485 C   0  0  0  0  0  0  0  0  0  0  0  0
   61.1227  -28.9595   33.5412 C   0  0  0  0  0  0  0  0  0  0  0  0
   64.3240  -31.8635   35.3624 H   0  0  0  0  0  0  0  0  0  0  0  0
 16 15  1  0  0  0
 13 14  1  0  0  0
 15 14  1  0  0  0
 15 17  2  0  0  0
 14 18  2  0  0  0
 17 20  1  0  0  0
 18 19  1  0  0  0
 20 19  2  0  0  0
 20  1  1  0  0  0
  2  1  2  0  0  0
  2  3  1  0  0  0
  1  5  1  0  0  0
  3  4  2  0  0  0
  5  6  2  0  0  0
  5 11  1  0  0  0
  4 11  1  0  0  0
  6  7  1  0  0  0
 11 10  2  0  0  0
  7  8  2  0  0  0
 10  8  1  0  0  0
  8  9  1  0  0  0
 13 21  1  0  0  0
  9 12  1  0  0  0
M  END
> <minimizedAffinity>
-11.11369

$$$$
