4IBI_1D8_A_401


 40 44  0  0  0  0  0  0  0  0999 V2000
    3.2506   20.5834    0.8323 C   0  0  0  0  0  0  0  0  0  0  0  0
    2.9880   19.2536    0.4865 C   0  0  0  0  0  0  0  0  0  0  0  0
    3.7110   18.0951    0.7355 O   0  0  0  0  0  0  0  0  0  0  0  0
    1.8101   19.2762   -0.2371 C   0  0  0  0  0  0  0  0  0  0  0  0
    1.2299   18.1453   -0.7866 O   0  0  0  0  0  0  0  0  0  0  0  0
    1.3726   20.5330   -0.3255 N   0  0  0  0  0  0  0  0  0  0  0  0
    2.1882   21.3536    0.3624 C   0  0  0  0  0  0  0  0  0  0  0  0
    3.3915   17.2688    0.4302 H   0  0  0  0  0  0  0  0  0  0  0  0
    1.5875   22.2353    1.3987 C   0  0  0  0  0  0  0  0  0  0  0  0
    0.8514   21.5634    2.3604 C   0  0  0  0  0  0  0  0  0  0  0  0
    0.2466   22.2542    3.4028 C   0  0  0  0  0  0  0  0  0  0  0  0
   -0.5398   21.8573    4.4717 O   0  0  0  0  0  0  0  0  0  0  0  0
   -0.6601   22.9435    5.3273 C   0  0  0  0  0  0  0  0  0  0  0  0
   -0.2976   24.0425    4.5617 O   0  0  0  0  0  0  0  0  0  0  0  0
    0.3815   23.5900    3.4533 C   0  0  0  0  0  0  0  0  0  0  0  0
    1.1392   24.2389    2.4842 C   0  0  0  0  0  0  0  0  0  0  0  0
    1.2744   25.9216    2.6089 Cl  0  0  0  0  0  0  0  0  0  0  0  0
    1.7562   23.6015    1.4386 C   0  0  0  0  0  0  0  0  0  0  0  0
    0.2549   20.9201   -1.1298 C   0  0  0  0  0  0  0  0  0  0  0  0
   -1.0046   20.4020   -0.8439 C   0  0  0  0  0  0  0  0  0  0  0  0
   -2.0992   20.7539   -1.6150 C   0  0  0  0  0  0  0  0  0  0  0  0
   -1.9318   21.6294   -2.6765 C   0  0  0  0  0  0  0  0  0  0  0  0
   -0.6764   22.1485   -2.9684 C   0  0  0  0  0  0  0  0  0  0  0  0
    0.4180   21.7956   -2.1981 C   0  0  0  0  0  0  0  0  0  0  0  0
   -3.4413   20.1937   -1.2896 C   0  0  0  0  0  0  0  0  0  0  0  0
   -3.6921   18.9823   -1.5304 O   0  0  0  0  0  0  0  0  0  0  0  0
   -4.3287   20.9245   -0.7862 O   0  0  0  0  0  0  0  0  0  0  0  0
   -3.0326   18.4330   -1.9062 H   0  0  0  0  0  0  0  0  0  0  0  0
    4.4440   21.1440    1.5235 C   0  0  0  0  0  0  0  0  0  0  0  0
    4.9104   22.2011    1.1143 O   0  0  0  0  0  0  0  0  0  0  0  0
    7.0413   20.0047    4.0116 C   0  0  0  0  0  0  0  0  0  0  0  0
    6.4521   20.6031    2.8977 C   0  0  0  0  0  0  0  0  0  0  0  0
    6.2525   19.3107    4.9180 C   0  0  0  0  0  0  0  0  0  0  0  0
    4.8824   19.2281    4.7331 C   0  0  0  0  0  0  0  0  0  0  0  0
    4.2894   19.8156    3.6261 C   0  0  0  0  0  0  0  0  0  0  0  0
    5.0748   20.5064    2.7065 C   0  0  0  0  0  0  0  0  0  0  0  0
    8.8221   20.1410    5.5189 F   0  0  0  0  0  0  0  0  0  0  0  0
    8.5150   20.0806    4.2276 C   0  0  0  0  0  0  0  0  0  0  0  0
    9.1004   19.0154    3.7175 F   0  0  0  0  0  0  0  0  0  0  0  0
    8.9967   21.1188    3.5869 F   0  0  0  0  0  0  0  0  0  0  0  0
 23 22  2  0  0  0
 23 24  1  0  0  0
 22 21  1  0  0  0
 24 19  2  0  0  0
 27 25  2  0  0  0
 21 25  1  0  0  0
 21 20  2  0  0  0
 25 26  1  0  0  0
 19 20  1  0  0  0
 19  6  1  0  0  0
  6  4  1  0  0  0
  6  7  1  0  0  0
  5  4  2  0  0  0
  4  2  1  0  0  0
  7  1  1  0  0  0
  7  9  1  0  0  0
  2  1  2  0  0  0
  2  3  1  0  0  0
  1 29  1  0  0  0
 18  9  2  0  0  0
 18 16  1  0  0  0
  9 10  1  0  0  0
 30 29  2  0  0  0
 29 36  1  0  0  0
 17 16  1  0  0  0
 16 15  2  0  0  0
 36 32  2  0  0  0
 36 35  1  0  0  0
 10 11  2  0  0  0
 32 31  1  0  0  0
 39 38  1  0  0  0
 40 38  1  0  0  0
 15 11  1  0  0  0
 15 14  1  0  0  0
 11 12  1  0  0  0
 35 34  2  0  0  0
 31 38  1  0  0  0
 31 33  2  0  0  0
 38 37  1  0  0  0
 14 13  1  0  0  0
 34 33  1  0  0  0
 12 13  1  0  0  0
  3  8  1  0  0  0
 26 28  1  0  0  0
M  END
> <minimizedAffinity>
-9.16277

$$$$
4IBI_1D8_A_401


 40 44  0  0  0  0  0  0  0  0999 V2000
    3.5966   20.2148    1.0402 C   0  0  0  0  0  0  0  0  0  0  0  0
    3.3109   18.8545    0.8825 C   0  0  0  0  0  0  0  0  0  0  0  0
    4.0241   17.7297    1.2738 O   0  0  0  0  0  0  0  0  0  0  0  0
    2.1198   18.7965    0.1830 C   0  0  0  0  0  0  0  0  0  0  0  0
    1.5152   17.6104   -0.1980 O   0  0  0  0  0  0  0  0  0  0  0  0
    1.6963   20.0361   -0.0675 N   0  0  0  0  0  0  0  0  0  0  0  0
    2.5350   20.9300    0.4885 C   0  0  0  0  0  0  0  0  0  0  0  0
    3.6887   16.8745    1.0890 H   0  0  0  0  0  0  0  0  0  0  0  0
    1.9652   21.9527    1.4059 C   0  0  0  0  0  0  0  0  0  0  0  0
    1.3698   21.4298    2.5418 C   0  0  0  0  0  0  0  0  0  0  0  0
    0.8106   22.2660    3.4996 C   0  0  0  0  0  0  0  0  0  0  0  0
    0.1544   22.0299    4.6963 O   0  0  0  0  0  0  0  0  0  0  0  0
    0.0305   23.2471    5.3517 C   0  0  0  0  0  0  0  0  0  0  0  0
    0.2405   24.2042    4.3692 O   0  0  0  0  0  0  0  0  0  0  0  0
    0.8499   23.5936    3.2966 C   0  0  0  0  0  0  0  0  0  0  0  0
    1.4678   24.0939    2.1555 C   0  0  0  0  0  0  0  0  0  0  0  0
    1.4880   25.7755    1.9630 Cl  0  0  0  0  0  0  0  0  0  0  0  0
    2.0347   23.3101    1.1837 C   0  0  0  0  0  0  0  0  0  0  0  0
    0.5683   20.3273   -0.8974 C   0  0  0  0  0  0  0  0  0  0  0  0
    0.7097   20.2876   -2.2812 C   0  0  0  0  0  0  0  0  0  0  0  0
   -0.3652   20.5762   -3.1045 C   0  0  0  0  0  0  0  0  0  0  0  0
   -1.5875   20.9047   -2.5394 C   0  0  0  0  0  0  0  0  0  0  0  0
   -1.7346   20.9481   -1.1585 C   0  0  0  0  0  0  0  0  0  0  0  0
   -0.6595   20.6609   -0.3355 C   0  0  0  0  0  0  0  0  0  0  0  0
   -0.1961   20.5223   -4.5842 C   0  0  0  0  0  0  0  0  0  0  0  0
    0.4274   21.4416   -5.1795 O   0  0  0  0  0  0  0  0  0  0  0  0
   -0.6808   19.5711   -5.2439 O   0  0  0  0  0  0  0  0  0  0  0  0
    0.7910   22.1537   -4.6909 H   0  0  0  0  0  0  0  0  0  0  0  0
    4.8099   20.8460    1.6282 C   0  0  0  0  0  0  0  0  0  0  0  0
    5.2409   21.8709    1.1121 O   0  0  0  0  0  0  0  0  0  0  0  0
    7.5325   19.9419    4.0787 C   0  0  0  0  0  0  0  0  0  0  0  0
    6.8857   20.4376    2.9464 C   0  0  0  0  0  0  0  0  0  0  0  0
    6.7938   19.3258    5.0789 C   0  0  0  0  0  0  0  0  0  0  0  0
    5.4174   19.2205    4.9677 C   0  0  0  0  0  0  0  0  0  0  0  0
    4.7672   19.7058    3.8435 C   0  0  0  0  0  0  0  0  0  0  0  0
    5.5018   20.3175    2.8307 C   0  0  0  0  0  0  0  0  0  0  0  0
    9.4045   19.8866    5.4765 F   0  0  0  0  0  0  0  0  0  0  0  0
    9.0139   20.0439    4.2163 C   0  0  0  0  0  0  0  0  0  0  0  0
    9.5990   19.1140    3.4878 F   0  0  0  0  0  0  0  0  0  0  0  0
    9.4169   21.2002    3.7464 F   0  0  0  0  0  0  0  0  0  0  0  0
 23 22  2  0  0  0
 23 24  1  0  0  0
 22 21  1  0  0  0
 24 19  2  0  0  0
 27 25  2  0  0  0
 21 25  1  0  0  0
 21 20  2  0  0  0
 25 26  1  0  0  0
 19 20  1  0  0  0
 19  6  1  0  0  0
  6  4  1  0  0  0
  6  7  1  0  0  0
  5  4  2  0  0  0
  4  2  1  0  0  0
  7  1  1  0  0  0
  7  9  1  0  0  0
  2  1  2  0  0  0
  2  3  1  0  0  0
  1 29  1  0  0  0
 18  9  2  0  0  0
 18 16  1  0  0  0
  9 10  1  0  0  0
 30 29  2  0  0  0
 29 36  1  0  0  0
 17 16  1  0  0  0
 16 15  2  0  0  0
 36 32  2  0  0  0
 36 35  1  0  0  0
 10 11  2  0  0  0
 32 31  1  0  0  0
 39 38  1  0  0  0
 40 38  1  0  0  0
 15 11  1  0  0  0
 15 14  1  0  0  0
 11 12  1  0  0  0
 35 34  2  0  0  0
 31 38  1  0  0  0
 31 33  2  0  0  0
 38 37  1  0  0  0
 14 13  1  0  0  0
 34 33  1  0  0  0
 12 13  1  0  0  0
  3  8  1  0  0  0
 26 28  1  0  0  0
M  END
> <minimizedAffinity>
-8.95341

$$$$
4IBI_1D8_A_401


 40 44  0  0  0  0  0  0  0  0999 V2000
    3.2701   20.5957    0.8589 C   0  0  0  0  0  0  0  0  0  0  0  0
    2.9872   19.2643    0.5361 C   0  0  0  0  0  0  0  0  0  0  0  0
    3.6877   18.0985    0.8134 O   0  0  0  0  0  0  0  0  0  0  0  0
    1.8162   19.2935   -0.1982 C   0  0  0  0  0  0  0  0  0  0  0  0
    1.2210   18.1625   -0.7314 O   0  0  0  0  0  0  0  0  0  0  0  0
    1.4015   20.5557   -0.3144 N   0  0  0  0  0  0  0  0  0  0  0  0
    2.2253   21.3751    0.3650 C   0  0  0  0  0  0  0  0  0  0  0  0
    3.3565   17.2721    0.5211 H   0  0  0  0  0  0  0  0  0  0  0  0
    1.6312   22.2867    1.3790 C   0  0  0  0  0  0  0  0  0  0  0  0
    0.8932   21.6441    2.3590 C   0  0  0  0  0  0  0  0  0  0  0  0
    0.2939   22.3651    3.3841 C   0  0  0  0  0  0  0  0  0  0  0  0
   -0.4927   22.0005    4.4642 O   0  0  0  0  0  0  0  0  0  0  0  0
   -0.6056   23.1092    5.2915 C   0  0  0  0  0  0  0  0  0  0  0  0
   -0.2384   24.1859    4.4970 O   0  0  0  0  0  0  0  0  0  0  0  0
    0.4363   23.7010    3.3997 C   0  0  0  0  0  0  0  0  0  0  0  0
    1.1959   24.3203    2.4128 C   0  0  0  0  0  0  0  0  0  0  0  0
    1.3404   26.0049    2.4935 Cl  0  0  0  0  0  0  0  0  0  0  0  0
    1.8075   23.6526    1.3832 C   0  0  0  0  0  0  0  0  0  0  0  0
    0.2976   20.9466   -1.1358 C   0  0  0  0  0  0  0  0  0  0  0  0
   -0.9562   20.3880   -0.9064 C   0  0  0  0  0  0  0  0  0  0  0  0
   -2.0370   20.7430   -1.6954 C   0  0  0  0  0  0  0  0  0  0  0  0
   -1.8616   21.6624   -2.7178 C   0  0  0  0  0  0  0  0  0  0  0  0
   -0.6118   22.2221   -2.9531 C   0  0  0  0  0  0  0  0  0  0  0  0
    0.4689   21.8661   -2.1651 C   0  0  0  0  0  0  0  0  0  0  0  0
   -3.3733   20.1389   -1.4306 C   0  0  0  0  0  0  0  0  0  0  0  0
   -3.6789   19.0343   -1.9548 O   0  0  0  0  0  0  0  0  0  0  0  0
   -4.2022   20.7293   -0.6962 O   0  0  0  0  0  0  0  0  0  0  0  0
   -3.0632   18.5899   -2.5038 H   0  0  0  0  0  0  0  0  0  0  0  0
    4.4671   21.1488    1.5499 C   0  0  0  0  0  0  0  0  0  0  0  0
    4.9473   22.1968    1.1332 O   0  0  0  0  0  0  0  0  0  0  0  0
    4.8775   19.2146    4.7633 C   0  0  0  0  0  0  0  0  0  0  0  0
    4.2925   19.8113    3.6461 C   0  0  0  0  0  0  0  0  0  0  0  0
    6.2447   19.3318    4.9694 C   0  0  0  0  0  0  0  0  0  0  0  0
    7.0326   20.0191    4.0611 C   0  0  0  0  0  0  0  0  0  0  0  0
    6.4586   20.6194    2.9510 C   0  0  0  0  0  0  0  0  0  0  0  0
    5.0859   20.5145    2.7411 C   0  0  0  0  0  0  0  0  0  0  0  0
    3.0265   19.2038    6.1898 F   0  0  0  0  0  0  0  0  0  0  0  0
    4.0461   18.4719    5.7538 C   0  0  0  0  0  0  0  0  0  0  0  0
    3.5581   17.3785    5.2025 F   0  0  0  0  0  0  0  0  0  0  0  0
    4.8011   18.0852    6.7542 F   0  0  0  0  0  0  0  0  0  0  0  0
 23 22  2  0  0  0
 23 24  1  0  0  0
 22 21  1  0  0  0
 24 19  2  0  0  0
 27 25  2  0  0  0
 21 25  1  0  0  0
 21 20  2  0  0  0
 25 26  1  0  0  0
 19 20  1  0  0  0
 19  6  1  0  0  0
  6  4  1  0  0  0
  6  7  1  0  0  0
  5  4  2  0  0  0
  4  2  1  0  0  0
  7  1  1  0  0  0
  7  9  1  0  0  0
  2  1  2  0  0  0
  2  3  1  0  0  0
  1 29  1  0  0  0
 18  9  2  0  0  0
 18 16  1  0  0  0
  9 10  1  0  0  0
 30 29  2  0  0  0
 29 36  1  0  0  0
 17 16  1  0  0  0
 16 15  2  0  0  0
 36 32  2  0  0  0
 36 35  1  0  0  0
 10 11  2  0  0  0
 32 31  1  0  0  0
 39 38  1  0  0  0
 40 38  1  0  0  0
 15 11  1  0  0  0
 15 14  1  0  0  0
 11 12  1  0  0  0
 35 34  2  0  0  0
 31 38  1  0  0  0
 31 33  2  0  0  0
 38 37  1  0  0  0
 14 13  1  0  0  0
 34 33  1  0  0  0
 12 13  1  0  0  0
  3  8  1  0  0  0
 26 28  1  0  0  0
M  END
> <minimizedAffinity>
-8.66034

$$$$
4IBI_1D8_A_401


 40 44  0  0  0  0  0  0  0  0999 V2000
    1.3400   19.3409    1.3796 C   0  0  0  0  0  0  0  0  0  0  0  0
    2.2089   18.8475    0.4006 C   0  0  0  0  0  0  0  0  0  0  0  0
    1.9448   18.2402   -0.8193 O   0  0  0  0  0  0  0  0  0  0  0  0
    3.4854   19.0426    0.8943 C   0  0  0  0  0  0  0  0  0  0  0  0
    4.6318   18.6535    0.2219 O   0  0  0  0  0  0  0  0  0  0  0  0
    3.4093   19.6230    2.0926 N   0  0  0  0  0  0  0  0  0  0  0  0
    2.1238   19.8766    2.4003 C   0  0  0  0  0  0  0  0  0  0  0  0
    2.6523   17.9627   -1.3675 H   0  0  0  0  0  0  0  0  0  0  0  0
    1.7505   21.2680    2.7702 C   0  0  0  0  0  0  0  0  0  0  0  0
    2.1604   22.2282    1.8603 C   0  0  0  0  0  0  0  0  0  0  0  0
    1.8665   23.5705    2.0635 C   0  0  0  0  0  0  0  0  0  0  0  0
    2.1524   24.7216    1.3481 O   0  0  0  0  0  0  0  0  0  0  0  0
    1.4016   25.7517    1.8972 C   0  0  0  0  0  0  0  0  0  0  0  0
    1.0172   25.2860    3.1466 O   0  0  0  0  0  0  0  0  0  0  0  0
    1.1849   23.9200    3.1672 C   0  0  0  0  0  0  0  0  0  0  0  0
    0.7709   22.9347    4.0572 C   0  0  0  0  0  0  0  0  0  0  0  0
   -0.0886   23.4413    5.4246 Cl  0  0  0  0  0  0  0  0  0  0  0  0
    1.0347   21.5984    3.8995 C   0  0  0  0  0  0  0  0  0  0  0  0
    4.5449   19.8320    2.9369 C   0  0  0  0  0  0  0  0  0  0  0  0
    4.8349   18.9055    3.9339 C   0  0  0  0  0  0  0  0  0  0  0  0
    5.9224   19.0922    4.7699 C   0  0  0  0  0  0  0  0  0  0  0  0
    6.7239   20.2112    4.6059 C   0  0  0  0  0  0  0  0  0  0  0  0
    6.4384   21.1410    3.6136 C   0  0  0  0  0  0  0  0  0  0  0  0
    5.3503   20.9549    2.7788 C   0  0  0  0  0  0  0  0  0  0  0  0
    6.2207   18.0859    5.8278 C   0  0  0  0  0  0  0  0  0  0  0  0
    7.3702   17.5746    5.9030 O   0  0  0  0  0  0  0  0  0  0  0  0
    5.3299   17.7354    6.6393 O   0  0  0  0  0  0  0  0  0  0  0  0
    8.0384   17.8333    5.2992 H   0  0  0  0  0  0  0  0  0  0  0  0
   -0.1474   19.2881    1.4120 C   0  0  0  0  0  0  0  0  0  0  0  0
   -0.6906   18.7804    2.3865 O   0  0  0  0  0  0  0  0  0  0  0  0
   -1.2401   21.0917   -1.7166 C   0  0  0  0  0  0  0  0  0  0  0  0
   -0.4303   20.5642   -0.7105 C   0  0  0  0  0  0  0  0  0  0  0  0
   -2.6146   20.9108   -1.6593 C   0  0  0  0  0  0  0  0  0  0  0  0
   -3.1828   20.1917   -0.6210 C   0  0  0  0  0  0  0  0  0  0  0  0
   -2.3859   19.6684    0.3856 C   0  0  0  0  0  0  0  0  0  0  0  0
   -1.0062   19.8530    0.3409 C   0  0  0  0  0  0  0  0  0  0  0  0
    0.3282   22.6715   -2.4279 F   0  0  0  0  0  0  0  0  0  0  0  0
   -0.6477   21.8706   -2.8420 C   0  0  0  0  0  0  0  0  0  0  0  0
   -0.1477   21.0495   -3.7439 F   0  0  0  0  0  0  0  0  0  0  0  0
   -1.5906   22.5587   -3.4400 F   0  0  0  0  0  0  0  0  0  0  0  0
 23 22  2  0  0  0
 23 24  1  0  0  0
 22 21  1  0  0  0
 24 19  2  0  0  0
 27 25  2  0  0  0
 21 25  1  0  0  0
 21 20  2  0  0  0
 25 26  1  0  0  0
 19 20  1  0  0  0
 19  6  1  0  0  0
  6  4  1  0  0  0
  6  7  1  0  0  0
  5  4  2  0  0  0
  4  2  1  0  0  0
  7  1  1  0  0  0
  7  9  1  0  0  0
  2  1  2  0  0  0
  2  3  1  0  0  0
  1 29  1  0  0  0
 18  9  2  0  0  0
 18 16  1  0  0  0
  9 10  1  0  0  0
 30 29  2  0  0  0
 29 36  1  0  0  0
 17 16  1  0  0  0
 16 15  2  0  0  0
 36 32  2  0  0  0
 36 35  1  0  0  0
 10 11  2  0  0  0
 32 31  1  0  0  0
 39 38  1  0  0  0
 40 38  1  0  0  0
 15 11  1  0  0  0
 15 14  1  0  0  0
 11 12  1  0  0  0
 35 34  2  0  0  0
 31 38  1  0  0  0
 31 33  2  0  0  0
 38 37  1  0  0  0
 14 13  1  0  0  0
 34 33  1  0  0  0
 12 13  1  0  0  0
  3  8  1  0  0  0
 26 28  1  0  0  0
M  END
> <minimizedAffinity>
-8.18638

$$$$
4IBI_1D8_A_401


 40 44  0  0  0  0  0  0  0  0999 V2000
    3.2145   20.3056    2.9885 C   0  0  0  0  0  0  0  0  0  0  0  0
    4.5708   20.6222    3.1199 C   0  0  0  0  0  0  0  0  0  0  0  0
    5.3083   21.6748    2.5956 O   0  0  0  0  0  0  0  0  0  0  0  0
    5.1212   19.6162    3.8922 C   0  0  0  0  0  0  0  0  0  0  0  0
    6.4645   19.5560    4.2231 O   0  0  0  0  0  0  0  0  0  0  0  0
    4.1683   18.7427    4.2205 N   0  0  0  0  0  0  0  0  0  0  0  0
    2.9805   19.1557    3.7408 C   0  0  0  0  0  0  0  0  0  0  0  0
    6.2239   21.7440    2.7821 H   0  0  0  0  0  0  0  0  0  0  0  0
    1.8451   19.2874    4.6925 C   0  0  0  0  0  0  0  0  0  0  0  0
    2.1187   20.0734    5.7995 C   0  0  0  0  0  0  0  0  0  0  0  0
    1.1473   20.3022    6.7657 C   0  0  0  0  0  0  0  0  0  0  0  0
    1.1415   21.0160    7.9527 O   0  0  0  0  0  0  0  0  0  0  0  0
   -0.1749   21.0965    8.3850 C   0  0  0  0  0  0  0  0  0  0  0  0
   -0.8427   20.1045    7.6812 O   0  0  0  0  0  0  0  0  0  0  0  0
   -0.0613   19.7364    6.6096 C   0  0  0  0  0  0  0  0  0  0  0  0
   -0.3155   18.9645    5.4809 C   0  0  0  0  0  0  0  0  0  0  0  0
   -1.8597   18.2853    5.3421 Cl  0  0  0  0  0  0  0  0  0  0  0  0
    0.6089   18.7117    4.5002 C   0  0  0  0  0  0  0  0  0  0  0  0
    4.4328   17.5094    4.8950 C   0  0  0  0  0  0  0  0  0  0  0  0
    4.9685   17.5342    6.1792 C   0  0  0  0  0  0  0  0  0  0  0  0
    5.2429   16.3532    6.8474 C   0  0  0  0  0  0  0  0  0  0  0  0
    4.9785   15.1420    6.2274 C   0  0  0  0  0  0  0  0  0  0  0  0
    4.4456   15.1106    4.9445 C   0  0  0  0  0  0  0  0  0  0  0  0
    4.1726   16.2914    4.2761 C   0  0  0  0  0  0  0  0  0  0  0  0
    5.8105   16.3999    8.2246 C   0  0  0  0  0  0  0  0  0  0  0  0
    5.0410   16.4794    9.2194 O   0  0  0  0  0  0  0  0  0  0  0  0
    7.0529   16.3714    8.4000 O   0  0  0  0  0  0  0  0  0  0  0  0
    4.1128   16.5009    9.0931 H   0  0  0  0  0  0  0  0  0  0  0  0
    2.1759   20.9933    2.1732 C   0  0  0  0  0  0  0  0  0  0  0  0
    1.4877   20.3172    1.4170 O   0  0  0  0  0  0  0  0  0  0  0  0
    0.7805   24.3122    3.3012 C   0  0  0  0  0  0  0  0  0  0  0  0
    1.0295   22.9417    3.2232 C   0  0  0  0  0  0  0  0  0  0  0  0
    1.4027   25.1764    2.4117 C   0  0  0  0  0  0  0  0  0  0  0  0
    2.2847   24.6874    1.4625 C   0  0  0  0  0  0  0  0  0  0  0  0
    2.5339   23.3264    1.3748 C   0  0  0  0  0  0  0  0  0  0  0  0
    1.9068   22.4508    2.2576 C   0  0  0  0  0  0  0  0  0  0  0  0
    0.4704   25.3600    5.3670 F   0  0  0  0  0  0  0  0  0  0  0  0
   -0.1674   24.8582    4.3149 C   0  0  0  0  0  0  0  0  0  0  0  0
   -0.8938   25.8196    3.7804 F   0  0  0  0  0  0  0  0  0  0  0  0
   -1.0017   23.9159    4.6839 F   0  0  0  0  0  0  0  0  0  0  0  0
 23 22  2  0  0  0
 23 24  1  0  0  0
 22 21  1  0  0  0
 24 19  2  0  0  0
 27 25  2  0  0  0
 21 25  1  0  0  0
 21 20  2  0  0  0
 25 26  1  0  0  0
 19 20  1  0  0  0
 19  6  1  0  0  0
  6  4  1  0  0  0
  6  7  1  0  0  0
  5  4  2  0  0  0
  4  2  1  0  0  0
  7  1  1  0  0  0
  7  9  1  0  0  0
  2  1  2  0  0  0
  2  3  1  0  0  0
  1 29  1  0  0  0
 18  9  2  0  0  0
 18 16  1  0  0  0
  9 10  1  0  0  0
 30 29  2  0  0  0
 29 36  1  0  0  0
 17 16  1  0  0  0
 16 15  2  0  0  0
 36 32  2  0  0  0
 36 35  1  0  0  0
 10 11  2  0  0  0
 32 31  1  0  0  0
 39 38  1  0  0  0
 40 38  1  0  0  0
 15 11  1  0  0  0
 15 14  1  0  0  0
 11 12  1  0  0  0
 35 34  2  0  0  0
 31 38  1  0  0  0
 31 33  2  0  0  0
 38 37  1  0  0  0
 14 13  1  0  0  0
 34 33  1  0  0  0
 12 13  1  0  0  0
  3  8  1  0  0  0
 26 28  1  0  0  0
M  END
> <minimizedAffinity>
-8.18441

$$$$
4IBI_1D8_A_401


 40 44  0  0  0  0  0  0  0  0999 V2000
    2.7486   19.8467    1.9225 C   0  0  0  0  0  0  0  0  0  0  0  0
    2.4474   20.2042    0.6040 C   0  0  0  0  0  0  0  0  0  0  0  0
    2.6413   19.5163   -0.5859 O   0  0  0  0  0  0  0  0  0  0  0  0
    1.9114   21.4769    0.6700 C   0  0  0  0  0  0  0  0  0  0  0  0
    1.5117   22.1956   -0.4441 O   0  0  0  0  0  0  0  0  0  0  0  0
    1.8779   21.8743    1.9427 N   0  0  0  0  0  0  0  0  0  0  0  0
    2.3230   20.8890    2.7443 C   0  0  0  0  0  0  0  0  0  0  0  0
    2.3793   19.9025   -1.3984 H   0  0  0  0  0  0  0  0  0  0  0  0
    1.4510   20.4461    3.8648 C   0  0  0  0  0  0  0  0  0  0  0  0
    1.9787   20.6808    5.1236 C   0  0  0  0  0  0  0  0  0  0  0  0
    1.2685   20.3370    6.2668 C   0  0  0  0  0  0  0  0  0  0  0  0
    1.5451   20.4388    7.6201 O   0  0  0  0  0  0  0  0  0  0  0  0
    0.3719   20.1613    8.3080 C   0  0  0  0  0  0  0  0  0  0  0  0
   -0.4391   19.5171    7.3846 O   0  0  0  0  0  0  0  0  0  0  0  0
    0.0623   19.7621    6.1264 C   0  0  0  0  0  0  0  0  0  0  0  0
   -0.4519   19.5519    4.8513 C   0  0  0  0  0  0  0  0  0  0  0  0
   -1.9787   18.8290    4.7443 Cl  0  0  0  0  0  0  0  0  0  0  0  0
    0.2093   19.8753    3.6944 C   0  0  0  0  0  0  0  0  0  0  0  0
    1.5128   23.1985    2.3419 C   0  0  0  0  0  0  0  0  0  0  0  0
    0.6165   23.3729    3.3920 C   0  0  0  0  0  0  0  0  0  0  0  0
    0.2402   24.6446    3.7889 C   0  0  0  0  0  0  0  0  0  0  0  0
    0.7649   25.7467    3.1320 C   0  0  0  0  0  0  0  0  0  0  0  0
    1.6587   25.5791    2.0815 C   0  0  0  0  0  0  0  0  0  0  0  0
    2.0337   24.3076    1.6839 C   0  0  0  0  0  0  0  0  0  0  0  0
   -0.7160   24.8116    4.9197 C   0  0  0  0  0  0  0  0  0  0  0  0
   -0.3665   25.4479    5.9498 O   0  0  0  0  0  0  0  0  0  0  0  0
   -1.8658   24.3123    4.8572 O   0  0  0  0  0  0  0  0  0  0  0  0
    0.4909   25.8223    6.0008 H   0  0  0  0  0  0  0  0  0  0  0  0
    3.4395   18.6245    2.4177 C   0  0  0  0  0  0  0  0  0  0  0  0
    3.0939   17.5379    1.9677 O   0  0  0  0  0  0  0  0  0  0  0  0
    6.7251   19.4624    4.0724 C   0  0  0  0  0  0  0  0  0  0  0  0
    5.6833   19.4306    3.1451 C   0  0  0  0  0  0  0  0  0  0  0  0
    6.6298   18.7192    5.2403 C   0  0  0  0  0  0  0  0  0  0  0  0
    5.4977   17.9645    5.4986 C   0  0  0  0  0  0  0  0  0  0  0  0
    4.4600   17.9233    4.5802 C   0  0  0  0  0  0  0  0  0  0  0  0
    4.5511   18.6589    3.4011 C   0  0  0  0  0  0  0  0  0  0  0  0
    8.7407   20.3261    4.8803 F   0  0  0  0  0  0  0  0  0  0  0  0
    7.9532   20.2674    3.8118 C   0  0  0  0  0  0  0  0  0  0  0  0
    8.6426   19.7305    2.8248 F   0  0  0  0  0  0  0  0  0  0  0  0
    7.6105   21.4716    3.4211 F   0  0  0  0  0  0  0  0  0  0  0  0
 23 22  2  0  0  0
 23 24  1  0  0  0
 22 21  1  0  0  0
 24 19  2  0  0  0
 27 25  2  0  0  0
 21 25  1  0  0  0
 21 20  2  0  0  0
 25 26  1  0  0  0
 19 20  1  0  0  0
 19  6  1  0  0  0
  6  4  1  0  0  0
  6  7  1  0  0  0
  5  4  2  0  0  0
  4  2  1  0  0  0
  7  1  1  0  0  0
  7  9  1  0  0  0
  2  1  2  0  0  0
  2  3  1  0  0  0
  1 29  1  0  0  0
 18  9  2  0  0  0
 18 16  1  0  0  0
  9 10  1  0  0  0
 30 29  2  0  0  0
 29 36  1  0  0  0
 17 16  1  0  0  0
 16 15  2  0  0  0
 36 32  2  0  0  0
 36 35  1  0  0  0
 10 11  2  0  0  0
 32 31  1  0  0  0
 39 38  1  0  0  0
 40 38  1  0  0  0
 15 11  1  0  0  0
 15 14  1  0  0  0
 11 12  1  0  0  0
 35 34  2  0  0  0
 31 38  1  0  0  0
 31 33  2  0  0  0
 38 37  1  0  0  0
 14 13  1  0  0  0
 34 33  1  0  0  0
 12 13  1  0  0  0
  3  8  1  0  0  0
 26 28  1  0  0  0
M  END
> <minimizedAffinity>
-8.09608

$$$$
4IBI_1D8_A_401


 40 44  0  0  0  0  0  0  0  0999 V2000
    1.5374   19.5740    0.6737 C   0  0  0  0  0  0  0  0  0  0  0  0
    2.5998   19.1173   -0.1136 C   0  0  0  0  0  0  0  0  0  0  0  0
    2.6390   18.7430   -1.4497 O   0  0  0  0  0  0  0  0  0  0  0  0
    3.6954   19.0565    0.7274 C   0  0  0  0  0  0  0  0  0  0  0  0
    4.9448   18.6172    0.3230 O   0  0  0  0  0  0  0  0  0  0  0  0
    3.3351   19.4551    1.9481 N   0  0  0  0  0  0  0  0  0  0  0  0
    2.0441   19.8358    1.9455 C   0  0  0  0  0  0  0  0  0  0  0  0
    3.4446   18.4554   -1.8322 H   0  0  0  0  0  0  0  0  0  0  0  0
    1.7106   21.1940    2.4517 C   0  0  0  0  0  0  0  0  0  0  0  0
    2.1479   22.2272    1.6397 C   0  0  0  0  0  0  0  0  0  0  0  0
    1.8924   23.5508    1.9748 C   0  0  0  0  0  0  0  0  0  0  0  0
    2.2112   24.7582    1.3756 O   0  0  0  0  0  0  0  0  0  0  0  0
    1.4899   25.7501    2.0254 C   0  0  0  0  0  0  0  0  0  0  0  0
    1.0921   25.1747    3.2238 O   0  0  0  0  0  0  0  0  0  0  0  0
    1.2207   23.8091    3.1094 C   0  0  0  0  0  0  0  0  0  0  0  0
    0.7786   22.7530    3.8991 C   0  0  0  0  0  0  0  0  0  0  0  0
   -0.0664   23.1467    5.3119 Cl  0  0  0  0  0  0  0  0  0  0  0  0
    1.0043   21.4318    3.6098 C   0  0  0  0  0  0  0  0  0  0  0  0
    4.1977   19.3747    3.0863 C   0  0  0  0  0  0  0  0  0  0  0  0
    5.4546   19.9698    3.0344 C   0  0  0  0  0  0  0  0  0  0  0  0
    6.3108   19.8959    4.1198 C   0  0  0  0  0  0  0  0  0  0  0  0
    5.9060   19.2239    5.2626 C   0  0  0  0  0  0  0  0  0  0  0  0
    4.6532   18.6259    5.3198 C   0  0  0  0  0  0  0  0  0  0  0  0
    3.7978   18.6988    4.2342 C   0  0  0  0  0  0  0  0  0  0  0  0
    7.6504   20.5448    4.0478 C   0  0  0  0  0  0  0  0  0  0  0  0
    7.8758   21.4265    3.1760 O   0  0  0  0  0  0  0  0  0  0  0  0
    8.5608   20.2107    4.8444 O   0  0  0  0  0  0  0  0  0  0  0  0
    7.1990   21.6791    2.5792 H   0  0  0  0  0  0  0  0  0  0  0  0
    0.1040   19.7245    0.3009 C   0  0  0  0  0  0  0  0  0  0  0  0
   -0.7476   19.4144    1.1264 O   0  0  0  0  0  0  0  0  0  0  0  0
   -1.5413   19.9910   -3.0838 C   0  0  0  0  0  0  0  0  0  0  0  0
   -1.1187   19.4781   -1.8572 C   0  0  0  0  0  0  0  0  0  0  0  0
   -1.1824   21.2800   -3.4513 C   0  0  0  0  0  0  0  0  0  0  0  0
   -0.4260   22.0657   -2.5976 C   0  0  0  0  0  0  0  0  0  0  0  0
    0.0024   21.5620   -1.3790 C   0  0  0  0  0  0  0  0  0  0  0  0
   -0.3455   20.2661   -1.0061 C   0  0  0  0  0  0  0  0  0  0  0  0
   -1.8158   19.1109   -5.2313 F   0  0  0  0  0  0  0  0  0  0  0  0
   -2.3548   19.1603   -4.0178 C   0  0  0  0  0  0  0  0  0  0  0  0
   -2.4463   17.9274   -3.5606 F   0  0  0  0  0  0  0  0  0  0  0  0
   -3.5765   19.6344   -4.0716 F   0  0  0  0  0  0  0  0  0  0  0  0
 23 22  2  0  0  0
 23 24  1  0  0  0
 22 21  1  0  0  0
 24 19  2  0  0  0
 27 25  2  0  0  0
 21 25  1  0  0  0
 21 20  2  0  0  0
 25 26  1  0  0  0
 19 20  1  0  0  0
 19  6  1  0  0  0
  6  4  1  0  0  0
  6  7  1  0  0  0
  5  4  2  0  0  0
  4  2  1  0  0  0
  7  1  1  0  0  0
  7  9  1  0  0  0
  2  1  2  0  0  0
  2  3  1  0  0  0
  1 29  1  0  0  0
 18  9  2  0  0  0
 18 16  1  0  0  0
  9 10  1  0  0  0
 30 29  2  0  0  0
 29 36  1  0  0  0
 17 16  1  0  0  0
 16 15  2  0  0  0
 36 32  2  0  0  0
 36 35  1  0  0  0
 10 11  2  0  0  0
 32 31  1  0  0  0
 39 38  1  0  0  0
 40 38  1  0  0  0
 15 11  1  0  0  0
 15 14  1  0  0  0
 11 12  1  0  0  0
 35 34  2  0  0  0
 31 38  1  0  0  0
 31 33  2  0  0  0
 38 37  1  0  0  0
 14 13  1  0  0  0
 34 33  1  0  0  0
 12 13  1  0  0  0
  3  8  1  0  0  0
 26 28  1  0  0  0
M  END
> <minimizedAffinity>
-8.09065

$$$$
4IBI_1D8_A_401


 40 44  0  0  0  0  0  0  0  0999 V2000
    0.4036   18.9793    1.5082 C   0  0  0  0  0  0  0  0  0  0  0  0
    1.2279   18.1375    0.7540 C   0  0  0  0  0  0  0  0  0  0  0  0
    0.9645   17.4100   -0.3985 O   0  0  0  0  0  0  0  0  0  0  0  0
    2.4440   18.1106    1.4111 C   0  0  0  0  0  0  0  0  0  0  0  0
    3.5247   17.3560    0.9863 O   0  0  0  0  0  0  0  0  0  0  0  0
    2.3766   18.8880    2.4926 N   0  0  0  0  0  0  0  0  0  0  0  0
    1.1710   19.4830    2.5572 C   0  0  0  0  0  0  0  0  0  0  0  0
    1.6378   16.8859   -0.7858 H   0  0  0  0  0  0  0  0  0  0  0  0
    1.1237   20.9652    2.6716 C   0  0  0  0  0  0  0  0  0  0  0  0
    0.3425   21.4306    3.7162 C   0  0  0  0  0  0  0  0  0  0  0  0
    0.2187   22.7928    3.9583 C   0  0  0  0  0  0  0  0  0  0  0  0
   -0.4857   23.5278    4.8975 O   0  0  0  0  0  0  0  0  0  0  0  0
   -0.0448   24.8414    4.8158 C   0  0  0  0  0  0  0  0  0  0  0  0
    0.5913   24.9282    3.5857 O   0  0  0  0  0  0  0  0  0  0  0  0
    0.8645   23.6511    3.1511 C   0  0  0  0  0  0  0  0  0  0  0  0
    1.6553   23.1574    2.1190 C   0  0  0  0  0  0  0  0  0  0  0  0
    2.4464   24.2915    1.1427 Cl  0  0  0  0  0  0  0  0  0  0  0  0
    1.8103   21.8235    1.8418 C   0  0  0  0  0  0  0  0  0  0  0  0
    3.4193   18.9669    3.4686 C   0  0  0  0  0  0  0  0  0  0  0  0
    4.5802   19.6748    3.1724 C   0  0  0  0  0  0  0  0  0  0  0  0
    5.6073   19.7558    4.0972 C   0  0  0  0  0  0  0  0  0  0  0  0
    5.4706   19.1262    5.3245 C   0  0  0  0  0  0  0  0  0  0  0  0
    4.3148   18.4161    5.6253 C   0  0  0  0  0  0  0  0  0  0  0  0
    3.2886   18.3340    4.7002 C   0  0  0  0  0  0  0  0  0  0  0  0
    6.8404   20.5238    3.7644 C   0  0  0  0  0  0  0  0  0  0  0  0
    6.7987   21.4327    2.8925 O   0  0  0  0  0  0  0  0  0  0  0  0
    7.9246   20.2634    4.3402 O   0  0  0  0  0  0  0  0  0  0  0  0
    5.9913   21.6305    2.4601 H   0  0  0  0  0  0  0  0  0  0  0  0
   -1.0410   19.2813    1.3133 C   0  0  0  0  0  0  0  0  0  0  0  0
   -1.8243   18.9800    2.2068 O   0  0  0  0  0  0  0  0  0  0  0  0
   -1.2078   21.2085   -1.9260 C   0  0  0  0  0  0  0  0  0  0  0  0
   -0.7023   20.5710   -0.7927 C   0  0  0  0  0  0  0  0  0  0  0  0
   -2.5776   21.2389   -2.1451 C   0  0  0  0  0  0  0  0  0  0  0  0
   -3.4419   20.6216   -1.2564 C   0  0  0  0  0  0  0  0  0  0  0  0
   -2.9484   19.9902   -0.1250 C   0  0  0  0  0  0  0  0  0  0  0  0
   -1.5755   19.9627    0.1075 C   0  0  0  0  0  0  0  0  0  0  0  0
   -0.9639   22.6002   -3.7875 F   0  0  0  0  0  0  0  0  0  0  0  0
   -0.2937   21.8807   -2.8939 C   0  0  0  0  0  0  0  0  0  0  0  0
    0.5273   22.6878   -2.2520 F   0  0  0  0  0  0  0  0  0  0  0  0
    0.4513   20.9795   -3.4881 F   0  0  0  0  0  0  0  0  0  0  0  0
 23 22  2  0  0  0
 23 24  1  0  0  0
 22 21  1  0  0  0
 24 19  2  0  0  0
 27 25  2  0  0  0
 21 25  1  0  0  0
 21 20  2  0  0  0
 25 26  1  0  0  0
 19 20  1  0  0  0
 19  6  1  0  0  0
  6  4  1  0  0  0
  6  7  1  0  0  0
  5  4  2  0  0  0
  4  2  1  0  0  0
  7  1  1  0  0  0
  7  9  1  0  0  0
  2  1  2  0  0  0
  2  3  1  0  0  0
  1 29  1  0  0  0
 18  9  2  0  0  0
 18 16  1  0  0  0
  9 10  1  0  0  0
 30 29  2  0  0  0
 29 36  1  0  0  0
 17 16  1  0  0  0
 16 15  2  0  0  0
 36 32  2  0  0  0
 36 35  1  0  0  0
 10 11  2  0  0  0
 32 31  1  0  0  0
 39 38  1  0  0  0
 40 38  1  0  0  0
 15 11  1  0  0  0
 15 14  1  0  0  0
 11 12  1  0  0  0
 35 34  2  0  0  0
 31 38  1  0  0  0
 31 33  2  0  0  0
 38 37  1  0  0  0
 14 13  1  0  0  0
 34 33  1  0  0  0
 12 13  1  0  0  0
  3  8  1  0  0  0
 26 28  1  0  0  0
M  END
> <minimizedAffinity>
-8.00777

$$$$
4IBI_1D8_A_401


 40 44  0  0  0  0  0  0  0  0999 V2000
    2.1511   18.9484    0.4983 C   0  0  0  0  0  0  0  0  0  0  0  0
    3.2592   18.4414   -0.1889 C   0  0  0  0  0  0  0  0  0  0  0  0
    3.3626   17.8995   -1.4626 O   0  0  0  0  0  0  0  0  0  0  0  0
    4.3246   18.5390    0.6868 C   0  0  0  0  0  0  0  0  0  0  0  0
    5.6047   18.1072    0.3826 O   0  0  0  0  0  0  0  0  0  0  0  0
    3.9039   19.0757    1.8329 N   0  0  0  0  0  0  0  0  0  0  0  0
    2.5997   19.3949    1.7401 C   0  0  0  0  0  0  0  0  0  0  0  0
    4.1927   17.6009   -1.7787 H   0  0  0  0  0  0  0  0  0  0  0  0
    2.1935   20.7910    2.0534 C   0  0  0  0  0  0  0  0  0  0  0  0
    1.2609   20.8974    3.0718 C   0  0  0  0  0  0  0  0  0  0  0  0
    0.8013   22.1408    3.4868 C   0  0  0  0  0  0  0  0  0  0  0  0
   -0.1147   22.5402    4.4460 O   0  0  0  0  0  0  0  0  0  0  0  0
    0.0046   23.9155    4.5899 C   0  0  0  0  0  0  0  0  0  0  0  0
    0.6764   24.3363    3.4511 O   0  0  0  0  0  0  0  0  0  0  0  0
    1.2724   23.2388    2.8725 C   0  0  0  0  0  0  0  0  0  0  0  0
    2.2204   23.1055    1.8636 C   0  0  0  0  0  0  0  0  0  0  0  0
    2.7771   24.5282    1.1348 Cl  0  0  0  0  0  0  0  0  0  0  0  0
    2.7056   21.9019    1.4208 C   0  0  0  0  0  0  0  0  0  0  0  0
    4.7266   19.1819    2.9982 C   0  0  0  0  0  0  0  0  0  0  0  0
    4.5644   18.2677    4.0348 C   0  0  0  0  0  0  0  0  0  0  0  0
    5.3417   18.3573    5.1768 C   0  0  0  0  0  0  0  0  0  0  0  0
    6.2866   19.3661    5.2807 C   0  0  0  0  0  0  0  0  0  0  0  0
    6.4520   20.2832    4.2500 C   0  0  0  0  0  0  0  0  0  0  0  0
    5.6738   20.1943    3.1090 C   0  0  0  0  0  0  0  0  0  0  0  0
    5.1579   17.3653    6.2737 C   0  0  0  0  0  0  0  0  0  0  0  0
    5.2847   17.7253    7.4747 O   0  0  0  0  0  0  0  0  0  0  0  0
    4.8876   16.1688    6.0083 O   0  0  0  0  0  0  0  0  0  0  0  0
    5.4865   18.6176    7.6775 H   0  0  0  0  0  0  0  0  0  0  0  0
    0.7275   18.9851    0.0644 C   0  0  0  0  0  0  0  0  0  0  0  0
   -0.0918   18.3320    0.7005 O   0  0  0  0  0  0  0  0  0  0  0  0
   -0.1884   20.0476   -3.4381 C   0  0  0  0  0  0  0  0  0  0  0  0
    0.2684   19.2777   -2.3681 C   0  0  0  0  0  0  0  0  0  0  0  0
   -0.6568   21.3337   -3.2100 C   0  0  0  0  0  0  0  0  0  0  0  0
   -0.6927   21.8473   -1.9243 C   0  0  0  0  0  0  0  0  0  0  0  0
   -0.2359   21.0908   -0.8560 C   0  0  0  0  0  0  0  0  0  0  0  0
    0.2444   19.8024   -1.0769 C   0  0  0  0  0  0  0  0  0  0  0  0
    0.4437   18.3294   -4.8905 F   0  0  0  0  0  0  0  0  0  0  0  0
   -0.1562   19.5134   -4.8301 C   0  0  0  0  0  0  0  0  0  0  0  0
   -1.3847   19.3731   -5.2871 F   0  0  0  0  0  0  0  0  0  0  0  0
    0.4418   20.3773   -5.6150 F   0  0  0  0  0  0  0  0  0  0  0  0
 23 22  2  0  0  0
 23 24  1  0  0  0
 22 21  1  0  0  0
 24 19  2  0  0  0
 27 25  2  0  0  0
 21 25  1  0  0  0
 21 20  2  0  0  0
 25 26  1  0  0  0
 19 20  1  0  0  0
 19  6  1  0  0  0
  6  4  1  0  0  0
  6  7  1  0  0  0
  5  4  2  0  0  0
  4  2  1  0  0  0
  7  1  1  0  0  0
  7  9  1  0  0  0
  2  1  2  0  0  0
  2  3  1  0  0  0
  1 29  1  0  0  0
 18  9  2  0  0  0
 18 16  1  0  0  0
  9 10  1  0  0  0
 30 29  2  0  0  0
 29 36  1  0  0  0
 17 16  1  0  0  0
 16 15  2  0  0  0
 36 32  2  0  0  0
 36 35  1  0  0  0
 10 11  2  0  0  0
 32 31  1  0  0  0
 39 38  1  0  0  0
 40 38  1  0  0  0
 15 11  1  0  0  0
 15 14  1  0  0  0
 11 12  1  0  0  0
 35 34  2  0  0  0
 31 38  1  0  0  0
 31 33  2  0  0  0
 38 37  1  0  0  0
 14 13  1  0  0  0
 34 33  1  0  0  0
 12 13  1  0  0  0
  3  8  1  0  0  0
 26 28  1  0  0  0
M  END
> <minimizedAffinity>
-7.98655

$$$$
4IBI_1D8_A_401


 40 44  0  0  0  0  0  0  0  0999 V2000
    2.8585   19.8803    1.7640 C   0  0  0  0  0  0  0  0  0  0  0  0
    2.5215   20.2312    0.4525 C   0  0  0  0  0  0  0  0  0  0  0  0
    2.6967   19.5438   -0.7407 O   0  0  0  0  0  0  0  0  0  0  0  0
    1.9697   21.4966    0.5291 C   0  0  0  0  0  0  0  0  0  0  0  0
    1.5340   22.2077   -0.5764 O   0  0  0  0  0  0  0  0  0  0  0  0
    1.9607   21.8958    1.8016 N   0  0  0  0  0  0  0  0  0  0  0  0
    2.4381   20.9182    2.5940 C   0  0  0  0  0  0  0  0  0  0  0  0
    2.4104   19.9249   -1.5473 H   0  0  0  0  0  0  0  0  0  0  0  0
    1.5989   20.4655    3.7354 C   0  0  0  0  0  0  0  0  0  0  0  0
    0.4262   19.8299    3.3627 C   0  0  0  0  0  0  0  0  0  0  0  0
   -0.4494   19.3358    4.3212 C   0  0  0  0  0  0  0  0  0  0  0  0
   -1.6693   18.6845    4.2437 O   0  0  0  0  0  0  0  0  0  0  0  0
   -1.9715   18.2117    5.5131 C   0  0  0  0  0  0  0  0  0  0  0  0
   -1.1479   18.9312    6.3671 O   0  0  0  0  0  0  0  0  0  0  0  0
   -0.1404   19.4964    5.6188 C   0  0  0  0  0  0  0  0  0  0  0  0
    1.0511   20.1241    5.9664 C   0  0  0  0  0  0  0  0  0  0  0  0
    1.3832   20.2892    7.6180 Cl  0  0  0  0  0  0  0  0  0  0  0  0
    1.9473   20.6261    5.0582 C   0  0  0  0  0  0  0  0  0  0  0  0
    1.5870   23.2156    2.2073 C   0  0  0  0  0  0  0  0  0  0  0  0
    0.6847   23.3789    3.2541 C   0  0  0  0  0  0  0  0  0  0  0  0
    0.3001   24.6462    3.6571 C   0  0  0  0  0  0  0  0  0  0  0  0
    0.8222   25.7551    3.0097 C   0  0  0  0  0  0  0  0  0  0  0  0
    1.7219   25.5986    1.9624 C   0  0  0  0  0  0  0  0  0  0  0  0
    2.1053   24.3315    1.5588 C   0  0  0  0  0  0  0  0  0  0  0  0
   -0.6625   24.8012    4.7843 C   0  0  0  0  0  0  0  0  0  0  0  0
   -0.3352   24.4357    5.9451 O   0  0  0  0  0  0  0  0  0  0  0  0
   -1.8030   25.2844    4.5827 O   0  0  0  0  0  0  0  0  0  0  0  0
    0.5153   24.0745    6.1003 H   0  0  0  0  0  0  0  0  0  0  0  0
    3.5776   18.6687    2.2447 C   0  0  0  0  0  0  0  0  0  0  0  0
    3.3057   17.5889    1.7322 O   0  0  0  0  0  0  0  0  0  0  0  0
    6.7882   19.4793    4.0531 C   0  0  0  0  0  0  0  0  0  0  0  0
    5.7985   19.4427    3.0705 C   0  0  0  0  0  0  0  0  0  0  0  0
    6.6091   18.7776    5.2367 C   0  0  0  0  0  0  0  0  0  0  0  0
    5.4449   18.0599    5.4550 C   0  0  0  0  0  0  0  0  0  0  0  0
    4.4586   18.0141    4.4818 C   0  0  0  0  0  0  0  0  0  0  0  0
    4.6339   18.7080    3.2871 C   0  0  0  0  0  0  0  0  0  0  0  0
    7.8111   21.4715    3.3849 F   0  0  0  0  0  0  0  0  0  0  0  0
    8.0496   20.2448    3.8363 C   0  0  0  0  0  0  0  0  0  0  0  0
    8.7140   20.3483    4.9701 F   0  0  0  0  0  0  0  0  0  0  0  0
    8.8218   19.5864    3.0054 F   0  0  0  0  0  0  0  0  0  0  0  0
 23 22  2  0  0  0
 23 24  1  0  0  0
 22 21  1  0  0  0
 24 19  2  0  0  0
 27 25  2  0  0  0
 21 25  1  0  0  0
 21 20  2  0  0  0
 25 26  1  0  0  0
 19 20  1  0  0  0
 19  6  1  0  0  0
  6  4  1  0  0  0
  6  7  1  0  0  0
  5  4  2  0  0  0
  4  2  1  0  0  0
  7  1  1  0  0  0
  7  9  1  0  0  0
  2  1  2  0  0  0
  2  3  1  0  0  0
  1 29  1  0  0  0
 18  9  2  0  0  0
 18 16  1  0  0  0
  9 10  1  0  0  0
 30 29  2  0  0  0
 29 36  1  0  0  0
 17 16  1  0  0  0
 16 15  2  0  0  0
 36 32  2  0  0  0
 36 35  1  0  0  0
 10 11  2  0  0  0
 32 31  1  0  0  0
 39 38  1  0  0  0
 40 38  1  0  0  0
 15 11  1  0  0  0
 15 14  1  0  0  0
 11 12  1  0  0  0
 35 34  2  0  0  0
 31 38  1  0  0  0
 31 33  2  0  0  0
 38 37  1  0  0  0
 14 13  1  0  0  0
 34 33  1  0  0  0
 12 13  1  0  0  0
  3  8  1  0  0  0
 26 28  1  0  0  0
M  END
> <minimizedAffinity>
-7.98292

$$$$
