3FV2_NDZ_A_791


 26 27  0  0  0  0  0  0  0  0999 V2000
   -7.3372   15.3132   20.2340 C   0  0  0  0  0  0  0  0  0  0  0  0
   -7.4575   15.2328   21.7635 C   0  0  0  0  0  0  0  0  0  0  0  0
   -8.1140   14.2244   19.7207 O   0  0  0  0  0  0  0  0  0  0  0  0
   -8.3980   13.2855   20.7526 C   0  0  0  0  0  0  0  0  0  0  0  0
   -8.5117   14.1581   21.9971 C   0  0  0  0  0  0  0  0  0  0  0  0
   -9.7916   14.7984   22.1221 O   0  0  0  0  0  0  0  0  0  0  0  0
  -10.9238   13.9420   21.9294 C   0  0  0  0  0  0  0  0  0  0  0  0
  -10.8955   13.3425   20.5249 C   0  0  0  0  0  0  0  0  0  0  0  0
  -10.9148   14.4077   19.5602 O   0  0  0  0  0  0  0  0  0  0  0  0
   -9.6407   12.4938   20.3627 C   0  0  0  0  0  0  0  0  0  0  0  0
   -9.5201   12.0047   19.0142 O   0  0  0  0  0  0  0  0  0  0  0  0
  -10.1413   14.9779   19.6927 H   0  0  0  0  0  0  0  0  0  0  0  0
   -9.4409   12.7547   18.4042 H   0  0  0  0  0  0  0  0  0  0  0  0
   -7.9554   16.6021   19.7276 C   0  0  0  0  0  0  0  0  0  0  0  0
   -7.1705   17.5164   19.3507 O   0  0  0  0  0  0  0  0  0  0  0  0
   -9.2120   16.7128   19.7302 O   0  0  0  0  0  0  0  0  0  0  0  0
   -9.7445   15.9990   20.0216 H   0  0  0  0  0  0  0  0  0  0  0  0
   -5.8736   15.1636   19.8176 C   0  0  0  0  0  0  0  0  0  0  0  0
   -5.6546   14.7950   18.3497 C   0  0  0  0  0  0  0  0  0  0  0  0
   -6.0651   13.4293   18.0459 N   0  0  0  0  0  0  0  0  0  0  0  0
   -5.5042   12.7760   18.5927 H   0  0  0  0  0  0  0  0  0  0  0  0
   -5.9277   13.2461   17.0519 H   0  0  0  0  0  0  0  0  0  0  0  0
   -3.6260   16.0764   18.2888 O   0  0  0  0  0  0  0  0  0  0  0  0
   -4.2017   14.9965   18.0043 C   0  0  0  0  0  0  0  0  0  0  0  0
   -3.6341   14.0561   17.4089 O   0  0  0  0  0  0  0  0  0  0  0  0
   -4.1059   13.2693   17.2187 H   0  0  0  0  0  0  0  0  0  0  0  0
 23 24  2  0  0  0
 24 25  1  0  0  0
 24 19  1  0  0  0
 19 20  1  0  0  0
 19 18  1  0  0  0
 18  1  1  0  0  0
  1 14  1  0  0  0
  1  2  1  0  0  0
  1  3  1  0  0  0
 14 15  2  0  0  0
 14 16  1  0  0  0
  2  5  1  0  0  0
  3  4  1  0  0  0
  4  5  1  0  0  0
  4 10  1  0  0  0
  5  6  1  0  0  0
  6  7  1  0  0  0
  7  8  1  0  0  0
  8  9  1  0  0  0
  8 10  1  0  0  0
 10 11  1  0  0  0
 25 26  1  0  0  0
 20 21  1  0  0  0
 20 22  1  0  0  0
 16 17  1  0  0  0
  9 12  1  0  0  0
 11 13  1  0  0  0
M  END
> <minimizedAffinity>
-11.05925

$$$$
