3Q6W_Q6W_A_1


 41 46  0  0  0  0  0  0  0  0999 V2000
   -5.7473   -6.9638  -15.1066 C   0  0  0  0  0  0  0  0  0  0  0  0
   -6.6202   -8.4772  -16.7500 N   0  0  0  0  0  0  0  0  0  0  0  0
   -4.9404   -6.0931  -13.1320 O   0  0  0  0  0  0  0  0  0  0  0  0
   -6.8039   -7.5963  -15.7424 C   0  0  0  0  0  0  0  0  0  0  0  0
   -8.2166   -7.4112  -15.4714 C   0  0  0  0  0  0  0  0  0  0  0  0
   -8.8290   -6.3899  -14.8447 C   0  0  0  0  0  0  0  0  0  0  0  0
   -8.3583   -5.2261  -14.1449 C   0  0  0  0  0  0  0  0  0  0  0  0
   -6.9592   -5.0933  -13.7144 C   0  0  0  0  0  0  0  0  0  0  0  0
   -5.8472   -6.0638  -13.9559 C   0  0  0  0  0  0  0  0  0  0  0  0
   -4.4555   -7.2227  -15.5330 C   0  0  0  0  0  0  0  0  0  0  0  0
   -4.2515   -8.0981  -16.5813 C   0  0  0  0  0  0  0  0  0  0  0  0
   -5.3593   -8.7095  -17.1357 C   0  0  0  0  0  0  0  0  0  0  0  0
   -9.2066   -4.2426  -13.7977 C   0  0  0  0  0  0  0  0  0  0  0  0
   -8.7915   -3.0820  -13.0418 C   0  0  0  0  0  0  0  0  0  0  0  0
   -7.5298   -2.9343  -12.6072 C   0  0  0  0  0  0  0  0  0  0  0  0
   -6.5183   -3.9527  -12.8734 C   0  0  0  0  0  0  0  0  0  0  0  0
   -2.9142   -8.3464  -17.0812 C   0  0  0  0  0  0  0  0  0  0  0  0
   -1.7671   -8.3397  -16.3157 C   0  0  0  0  0  0  0  0  0  0  0  0
   -0.7583   -8.6954  -17.1724 N   0  0  0  0  0  0  0  0  0  0  0  0
   -1.1640   -8.9683  -18.4194 N   0  0  0  0  0  0  0  0  0  0  0  0
   -2.4909   -8.7485  -18.3704 C   0  0  0  0  0  0  0  0  0  0  0  0
    0.6537   -8.8357  -16.8397 C   0  0  0  0  0  0  0  0  0  0  0  0
    0.9979  -10.2869  -16.5393 C   0  0  0  0  0  0  0  0  0  0  0  0
    2.4083  -10.4272  -15.9779 C   0  0  0  0  0  0  0  0  0  0  0  0
    2.5047   -9.5609  -14.7779 N   0  0  0  0  0  0  0  0  0  0  0  0
    2.3287   -8.1203  -15.1051 C   0  0  0  0  0  0  0  0  0  0  0  0
    0.9184   -7.9640  -15.6259 C   0  0  0  0  0  0  0  0  0  0  0  0
    3.4227   -9.6908  -14.3526 H   0  0  0  0  0  0  0  0  0  0  0  0
   -6.9842   -1.7947  -11.8353 C   0  0  0  0  0  0  0  0  0  0  0  0
   -6.7588   -0.5940  -12.7388 C   0  0  0  0  0  0  0  0  0  0  0  0
   -5.3375   -0.0771  -12.7533 C   0  0  0  0  0  0  0  0  0  0  0  0
   -4.4392   -1.1265  -12.6972 N   0  0  0  0  0  0  0  0  0  0  0  0
   -5.0137    1.1078  -12.8035 O   0  0  0  0  0  0  0  0  0  0  0  0
   -4.7800   -2.0344  -12.5277 H   0  0  0  0  0  0  0  0  0  0  0  0
   -3.0225   -0.9393  -12.8779 C   0  0  0  0  0  0  0  0  0  0  0  0
   -2.4224   -1.9246  -13.8406 C   0  0  0  0  0  0  0  0  0  0  0  0
   -1.0830   -1.9460  -13.9210 N   0  0  0  0  0  0  0  0  0  0  0  0
   -0.5456   -2.8254  -14.7789 C   0  0  0  0  0  0  0  0  0  0  0  0
   -1.2733   -3.6905  -15.5696 C   0  0  0  0  0  0  0  0  0  0  0  0
   -2.6488   -3.6480  -15.4695 C   0  0  0  0  0  0  0  0  0  0  0  0
   -3.2291   -2.7531  -14.5937 C   0  0  0  0  0  0  0  0  0  0  0  0
  4  1  2  0  0  0
 10  1  1  0  0  0
  1  9  1  0  0  0
 12  2  2  0  0  0
  2  4  1  0  0  0
  9  3  2  0  0  0
  4  5  1  0  0  0
  5  6  2  0  0  0
  6  7  1  0  0  0
  7  8  2  0  0  0
  7 13  1  0  0  0
  8  9  1  0  0  0
  8 16  1  0  0  0
 11 10  2  0  0  0
 12 11  1  0  0  0
 17 11  1  0  0  0
 13 14  2  0  0  0
 14 15  1  0  0  0
 16 15  2  0  0  0
 15 29  1  0  0  0
 18 17  2  0  0  0
 17 21  1  0  0  0
 30 29  1  0  0  0
 31 30  1  0  0  0
 32 31  1  0  0  0
 31 33  2  0  0  0
 35 32  1  0  0  0
 19 18  1  0  0  0
 22 19  1  0  0  0
 19 20  1  0  0  0
 20 21  2  0  0  0
 27 22  1  0  0  0
 22 23  1  0  0  0
 24 23  1  0  0  0
 25 24  1  0  0  0
 26 25  1  0  0  0
 26 27  1  0  0  0
 35 36  1  0  0  0
 37 36  2  0  0  0
 36 41  1  0  0  0
 37 38  1  0  0  0
 38 39  2  0  0  0
 39 40  1  0  0  0
 41 40  2  0  0  0
 32 34  1  0  0  0
 25 28  1  0  0  0
M  END
> <minimizedAffinity>
-11.44219

$$$$
3Q6W_Q6W_A_1


 41 46  0  0  0  0  0  0  0  0999 V2000
   -5.3434   -7.2238  -15.3431 C   0  0  0  0  0  0  0  0  0  0  0  0
   -5.6649   -8.6735  -17.2267 N   0  0  0  0  0  0  0  0  0  0  0  0
   -5.0268   -6.4506  -13.1960 O   0  0  0  0  0  0  0  0  0  0  0  0
   -6.1580   -7.9449  -16.2017 C   0  0  0  0  0  0  0  0  0  0  0  0
   -7.6063   -8.0162  -16.1690 C   0  0  0  0  0  0  0  0  0  0  0  0
   -8.4795   -7.1774  -15.5820 C   0  0  0  0  0  0  0  0  0  0  0  0
   -8.3370   -6.0346  -14.7221 C   0  0  0  0  0  0  0  0  0  0  0  0
   -7.0696   -5.7279  -14.0439 C   0  0  0  0  0  0  0  0  0  0  0  0
   -5.7812   -6.4784  -14.1614 C   0  0  0  0  0  0  0  0  0  0  0  0
   -3.9749   -7.2276  -15.5552 C   0  0  0  0  0  0  0  0  0  0  0  0
   -3.4565   -7.9433  -16.6163 C   0  0  0  0  0  0  0  0  0  0  0  0
   -4.3376   -8.6604  -17.4022 C   0  0  0  0  0  0  0  0  0  0  0  0
   -9.3882   -5.2407  -14.4537 C   0  0  0  0  0  0  0  0  0  0  0  0
   -9.3081   -4.1158  -13.5487 C   0  0  0  0  0  0  0  0  0  0  0  0
   -8.1774   -3.8167  -12.8895 C   0  0  0  0  0  0  0  0  0  0  0  0
   -6.9745   -4.6275  -13.0525 C   0  0  0  0  0  0  0  0  0  0  0  0
   -2.0340   -7.9216  -16.8917 C   0  0  0  0  0  0  0  0  0  0  0  0
   -1.2292   -9.0366  -16.9970 C   0  0  0  0  0  0  0  0  0  0  0  0
    0.0092   -8.5581  -17.3373 N   0  0  0  0  0  0  0  0  0  0  0  0
    0.0623   -7.2295  -17.4978 N   0  0  0  0  0  0  0  0  0  0  0  0
   -1.1926   -6.8315  -17.2181 C   0  0  0  0  0  0  0  0  0  0  0  0
    1.2111   -9.3489  -17.5700 C   0  0  0  0  0  0  0  0  0  0  0  0
    1.0580  -10.7492  -16.9952 C   0  0  0  0  0  0  0  0  0  0  0  0
    2.3730  -11.5198  -17.0301 C   0  0  0  0  0  0  0  0  0  0  0  0
    3.3865  -10.7162  -16.3045 N   0  0  0  0  0  0  0  0  0  0  0  0
    3.6520   -9.4104  -16.9663 C   0  0  0  0  0  0  0  0  0  0  0  0
    2.3638   -8.6226  -16.9013 C   0  0  0  0  0  0  0  0  0  0  0  0
    4.2572  -11.2461  -16.2636 H   0  0  0  0  0  0  0  0  0  0  0  0
   -7.9694   -2.6933  -11.9476 C   0  0  0  0  0  0  0  0  0  0  0  0
   -6.5345   -2.1979  -12.0126 C   0  0  0  0  0  0  0  0  0  0  0  0
   -6.3470   -0.9178  -12.7960 C   0  0  0  0  0  0  0  0  0  0  0  0
   -5.2039   -0.2591  -12.3826 N   0  0  0  0  0  0  0  0  0  0  0  0
   -7.1007   -0.5076  -13.6764 O   0  0  0  0  0  0  0  0  0  0  0  0
   -4.7290   -0.5878  -11.5853 H   0  0  0  0  0  0  0  0  0  0  0  0
   -4.6828    0.8904  -13.0764 C   0  0  0  0  0  0  0  0  0  0  0  0
   -3.2744    0.6904  -13.5601 C   0  0  0  0  0  0  0  0  0  0  0  0
   -2.9327   -0.5581  -13.9142 N   0  0  0  0  0  0  0  0  0  0  0  0
   -1.6764   -0.7383  -14.3470 C   0  0  0  0  0  0  0  0  0  0  0  0
   -0.7325    0.2630  -14.4459 C   0  0  0  0  0  0  0  0  0  0  0  0
   -1.1082    1.5376  -14.0744 C   0  0  0  0  0  0  0  0  0  0  0  0
   -2.3956    1.7523  -13.6259 C   0  0  0  0  0  0  0  0  0  0  0  0
  4  1  2  0  0  0
 10  1  1  0  0  0
  1  9  1  0  0  0
 12  2  2  0  0  0
  2  4  1  0  0  0
  9  3  2  0  0  0
  4  5  1  0  0  0
  5  6  2  0  0  0
  6  7  1  0  0  0
  7  8  2  0  0  0
  7 13  1  0  0  0
  8  9  1  0  0  0
  8 16  1  0  0  0
 11 10  2  0  0  0
 12 11  1  0  0  0
 17 11  1  0  0  0
 13 14  2  0  0  0
 14 15  1  0  0  0
 16 15  2  0  0  0
 15 29  1  0  0  0
 18 17  2  0  0  0
 17 21  1  0  0  0
 30 29  1  0  0  0
 31 30  1  0  0  0
 32 31  1  0  0  0
 31 33  2  0  0  0
 35 32  1  0  0  0
 19 18  1  0  0  0
 22 19  1  0  0  0
 19 20  1  0  0  0
 20 21  2  0  0  0
 27 22  1  0  0  0
 22 23  1  0  0  0
 24 23  1  0  0  0
 25 24  1  0  0  0
 26 25  1  0  0  0
 26 27  1  0  0  0
 35 36  1  0  0  0
 37 36  2  0  0  0
 36 41  1  0  0  0
 37 38  1  0  0  0
 38 39  2  0  0  0
 39 40  1  0  0  0
 41 40  2  0  0  0
 32 34  1  0  0  0
 25 28  1  0  0  0
M  END
> <minimizedAffinity>
-10.33753

$$$$
3Q6W_Q6W_A_1


 41 46  0  0  0  0  0  0  0  0999 V2000
   -1.9106   -6.5051  -16.9962 C   0  0  0  0  0  0  0  0  0  0  0  0
   -2.6145   -8.7785  -17.2945 N   0  0  0  0  0  0  0  0  0  0  0  0
   -1.5208   -4.2623  -17.3517 O   0  0  0  0  0  0  0  0  0  0  0  0
   -1.6966   -7.7989  -17.4446 C   0  0  0  0  0  0  0  0  0  0  0  0
   -0.5025   -8.3068  -18.0924 C   0  0  0  0  0  0  0  0  0  0  0  0
    0.7419   -7.7948  -18.0898 C   0  0  0  0  0  0  0  0  0  0  0  0
    1.3157   -6.5773  -17.5856 C   0  0  0  0  0  0  0  0  0  0  0  0
    0.4821   -5.4350  -17.1850 C   0  0  0  0  0  0  0  0  0  0  0  0
   -1.0119   -5.3654  -17.1898 C   0  0  0  0  0  0  0  0  0  0  0  0
   -3.0974   -6.2072  -16.3479 C   0  0  0  0  0  0  0  0  0  0  0  0
   -4.0345   -7.2040  -16.1598 C   0  0  0  0  0  0  0  0  0  0  0  0
   -3.7534   -8.4574  -16.6680 C   0  0  0  0  0  0  0  0  0  0  0  0
    2.6494   -6.4178  -17.5287 C   0  0  0  0  0  0  0  0  0  0  0  0
    3.2723   -5.1903  -17.0858 C   0  0  0  0  0  0  0  0  0  0  0  0
    2.5482   -4.1152  -16.7360 C   0  0  0  0  0  0  0  0  0  0  0  0
    1.0899   -4.1374  -16.7983 C   0  0  0  0  0  0  0  0  0  0  0  0
   -5.2616   -6.9318  -15.4387 C   0  0  0  0  0  0  0  0  0  0  0  0
   -5.4244   -5.9379  -14.4966 C   0  0  0  0  0  0  0  0  0  0  0  0
   -6.7457   -5.9932  -14.1370 N   0  0  0  0  0  0  0  0  0  0  0  0
   -7.4589   -6.9153  -14.7965 N   0  0  0  0  0  0  0  0  0  0  0  0
   -6.5478   -7.5011  -15.5953 C   0  0  0  0  0  0  0  0  0  0  0  0
   -7.4176   -5.1375  -13.1671 C   0  0  0  0  0  0  0  0  0  0  0  0
   -8.6408   -4.4760  -13.7841 C   0  0  0  0  0  0  0  0  0  0  0  0
   -9.2309   -3.4128  -12.8645 C   0  0  0  0  0  0  0  0  0  0  0  0
   -8.1563   -2.4395  -12.5520 N   0  0  0  0  0  0  0  0  0  0  0  0
   -7.0317   -3.0607  -11.8017 C   0  0  0  0  0  0  0  0  0  0  0  0
   -6.4145   -4.0897  -12.7208 C   0  0  0  0  0  0  0  0  0  0  0  0
   -8.5500   -1.6861  -11.9882 H   0  0  0  0  0  0  0  0  0  0  0  0
    3.0664   -2.8117  -16.2618 C   0  0  0  0  0  0  0  0  0  0  0  0
    2.9940   -2.7251  -14.7466 C   0  0  0  0  0  0  0  0  0  0  0  0
    1.9554   -1.7589  -14.2218 C   0  0  0  0  0  0  0  0  0  0  0  0
    1.1344   -2.3826  -13.3007 N   0  0  0  0  0  0  0  0  0  0  0  0
    1.8440   -0.5828  -14.5619 O   0  0  0  0  0  0  0  0  0  0  0  0
    1.2083   -3.3572  -13.1825 H   0  0  0  0  0  0  0  0  0  0  0  0
    0.1749   -1.6578  -12.5078 C   0  0  0  0  0  0  0  0  0  0  0  0
   -1.2243   -1.7638  -13.0452 C   0  0  0  0  0  0  0  0  0  0  0  0
   -2.1736   -1.0807  -12.3871 N   0  0  0  0  0  0  0  0  0  0  0  0
   -3.4228   -1.1733  -12.8657 C   0  0  0  0  0  0  0  0  0  0  0  0
   -3.7832   -1.9161  -13.9711 C   0  0  0  0  0  0  0  0  0  0  0  0
   -2.7890   -2.6104  -14.6294 C   0  0  0  0  0  0  0  0  0  0  0  0
   -1.4938   -2.5324  -14.1591 C   0  0  0  0  0  0  0  0  0  0  0  0
  4  1  2  0  0  0
 10  1  1  0  0  0
  1  9  1  0  0  0
 12  2  2  0  0  0
  2  4  1  0  0  0
  9  3  2  0  0  0
  4  5  1  0  0  0
  5  6  2  0  0  0
  6  7  1  0  0  0
  7  8  2  0  0  0
  7 13  1  0  0  0
  8  9  1  0  0  0
  8 16  1  0  0  0
 11 10  2  0  0  0
 12 11  1  0  0  0
 17 11  1  0  0  0
 13 14  2  0  0  0
 14 15  1  0  0  0
 16 15  2  0  0  0
 15 29  1  0  0  0
 18 17  2  0  0  0
 17 21  1  0  0  0
 30 29  1  0  0  0
 31 30  1  0  0  0
 32 31  1  0  0  0
 31 33  2  0  0  0
 35 32  1  0  0  0
 19 18  1  0  0  0
 22 19  1  0  0  0
 19 20  1  0  0  0
 20 21  2  0  0  0
 27 22  1  0  0  0
 22 23  1  0  0  0
 24 23  1  0  0  0
 25 24  1  0  0  0
 26 25  1  0  0  0
 26 27  1  0  0  0
 35 36  1  0  0  0
 37 36  2  0  0  0
 36 41  1  0  0  0
 37 38  1  0  0  0
 38 39  2  0  0  0
 39 40  1  0  0  0
 41 40  2  0  0  0
 32 34  1  0  0  0
 25 28  1  0  0  0
M  END
> <minimizedAffinity>
-9.54989

$$$$
3Q6W_Q6W_A_1


 41 46  0  0  0  0  0  0  0  0999 V2000
   -1.0041   -1.8731  -14.3951 C   0  0  0  0  0  0  0  0  0  0  0  0
    1.2420   -1.0336  -14.3387 N   0  0  0  0  0  0  0  0  0  0  0  0
   -3.0676   -2.5761  -15.1407 O   0  0  0  0  0  0  0  0  0  0  0  0
   -0.0935   -0.8303  -14.3326 C   0  0  0  0  0  0  0  0  0  0  0  0
   -0.3987    0.5837  -14.2263 C   0  0  0  0  0  0  0  0  0  0  0  0
   -1.5377    1.1729  -13.8189 C   0  0  0  0  0  0  0  0  0  0  0  0
   -2.8419    0.6812  -13.4678 C   0  0  0  0  0  0  0  0  0  0  0  0
   -3.2712   -0.6844  -13.8012 C   0  0  0  0  0  0  0  0  0  0  0  0
   -2.4601   -1.7429  -14.4783 C   0  0  0  0  0  0  0  0  0  0  0  0
   -0.5323   -3.1742  -14.4405 C   0  0  0  0  0  0  0  0  0  0  0  0
    0.8297   -3.4014  -14.4178 C   0  0  0  0  0  0  0  0  0  0  0  0
    1.6662   -2.3025  -14.3882 C   0  0  0  0  0  0  0  0  0  0  0  0
   -3.7441    1.4851  -12.8786 C   0  0  0  0  0  0  0  0  0  0  0  0
   -5.0871    1.0534  -12.5613 C   0  0  0  0  0  0  0  0  0  0  0  0
   -5.5275   -0.1762  -12.8718 C   0  0  0  0  0  0  0  0  0  0  0  0
   -4.6647   -1.1335  -13.5576 C   0  0  0  0  0  0  0  0  0  0  0  0
    1.3485   -4.7544  -14.4115 C   0  0  0  0  0  0  0  0  0  0  0  0
    1.2466   -5.6480  -15.4569 C   0  0  0  0  0  0  0  0  0  0  0  0
    1.9342   -6.7614  -15.0496 N   0  0  0  0  0  0  0  0  0  0  0  0
    2.5042   -6.6470  -13.8429 N   0  0  0  0  0  0  0  0  0  0  0  0
    2.1410   -5.4145  -13.4424 C   0  0  0  0  0  0  0  0  0  0  0  0
    2.1226   -7.9911  -15.8089 C   0  0  0  0  0  0  0  0  0  0  0  0
    0.8041   -8.4732  -16.3951 C   0  0  0  0  0  0  0  0  0  0  0  0
    0.9333   -9.8648  -17.0042 C   0  0  0  0  0  0  0  0  0  0  0  0
    1.4519  -10.7719  -15.9516 N   0  0  0  0  0  0  0  0  0  0  0  0
    2.8157  -10.3887  -15.4969 C   0  0  0  0  0  0  0  0  0  0  0  0
    2.6908   -9.0259  -14.8552 C   0  0  0  0  0  0  0  0  0  0  0  0
    1.4850  -11.7210  -16.3238 H   0  0  0  0  0  0  0  0  0  0  0  0
   -6.8703   -0.7349  -12.5942 C   0  0  0  0  0  0  0  0  0  0  0  0
   -6.7597   -2.1411  -12.0293 C   0  0  0  0  0  0  0  0  0  0  0  0
   -7.7117   -3.1420  -12.6453 C   0  0  0  0  0  0  0  0  0  0  0  0
   -7.0804   -4.3568  -12.8379 N   0  0  0  0  0  0  0  0  0  0  0  0
   -8.8835   -2.9176  -12.9416 O   0  0  0  0  0  0  0  0  0  0  0  0
   -6.1080   -4.4141  -12.6951 H   0  0  0  0  0  0  0  0  0  0  0  0
   -7.7942   -5.5415  -13.2398 C   0  0  0  0  0  0  0  0  0  0  0  0
   -7.0549   -6.3455  -14.2717 C   0  0  0  0  0  0  0  0  0  0  0  0
   -7.8028   -6.9756  -15.1908 N   0  0  0  0  0  0  0  0  0  0  0  0
   -7.1448   -7.6929  -16.1131 C   0  0  0  0  0  0  0  0  0  0  0  0
   -5.7723   -7.8207  -16.1709 C   0  0  0  0  0  0  0  0  0  0  0  0
   -5.0260   -7.1641  -15.2139 C   0  0  0  0  0  0  0  0  0  0  0  0
   -5.6771   -6.4178  -14.2528 C   0  0  0  0  0  0  0  0  0  0  0  0
  4  1  2  0  0  0
 10  1  1  0  0  0
  1  9  1  0  0  0
 12  2  2  0  0  0
  2  4  1  0  0  0
  9  3  2  0  0  0
  4  5  1  0  0  0
  5  6  2  0  0  0
  6  7  1  0  0  0
  7  8  2  0  0  0
  7 13  1  0  0  0
  8  9  1  0  0  0
  8 16  1  0  0  0
 11 10  2  0  0  0
 12 11  1  0  0  0
 17 11  1  0  0  0
 13 14  2  0  0  0
 14 15  1  0  0  0
 16 15  2  0  0  0
 15 29  1  0  0  0
 18 17  2  0  0  0
 17 21  1  0  0  0
 30 29  1  0  0  0
 31 30  1  0  0  0
 32 31  1  0  0  0
 31 33  2  0  0  0
 35 32  1  0  0  0
 19 18  1  0  0  0
 22 19  1  0  0  0
 19 20  1  0  0  0
 20 21  2  0  0  0
 27 22  1  0  0  0
 22 23  1  0  0  0
 24 23  1  0  0  0
 25 24  1  0  0  0
 26 25  1  0  0  0
 26 27  1  0  0  0
 35 36  1  0  0  0
 37 36  2  0  0  0
 36 41  1  0  0  0
 37 38  1  0  0  0
 38 39  2  0  0  0
 39 40  1  0  0  0
 41 40  2  0  0  0
 32 34  1  0  0  0
 25 28  1  0  0  0
M  END
> <minimizedAffinity>
-9.25951

$$$$
3Q6W_Q6W_A_1


 41 46  0  0  0  0  0  0  0  0999 V2000
   -1.6236   -6.3024  -16.8156 C   0  0  0  0  0  0  0  0  0  0  0  0
   -1.6383   -8.6308  -17.3912 N   0  0  0  0  0  0  0  0  0  0  0  0
   -1.7269   -4.0050  -16.9555 O   0  0  0  0  0  0  0  0  0  0  0  0
   -0.9865   -7.4571  -17.2418 C   0  0  0  0  0  0  0  0  0  0  0  0
    0.4213   -7.6060  -17.5571 C   0  0  0  0  0  0  0  0  0  0  0  0
    1.4552   -6.8266  -17.1909 C   0  0  0  0  0  0  0  0  0  0  0  0
    1.5587   -5.5717  -16.4977 C   0  0  0  0  0  0  0  0  0  0  0  0
    0.3929   -4.7001  -16.2941 C   0  0  0  0  0  0  0  0  0  0  0  0
   -1.0185   -4.9736  -16.7065 C   0  0  0  0  0  0  0  0  0  0  0  0
   -2.9724   -6.3552  -16.5067 C   0  0  0  0  0  0  0  0  0  0  0  0
   -3.6476   -7.5539  -16.6255 C   0  0  0  0  0  0  0  0  0  0  0  0
   -2.9426   -8.6477  -17.0891 C   0  0  0  0  0  0  0  0  0  0  0  0
    2.7499   -5.1189  -16.0695 C   0  0  0  0  0  0  0  0  0  0  0  0
    2.9124   -3.8367  -15.4212 C   0  0  0  0  0  0  0  0  0  0  0  0
    1.8787   -2.9995  -15.2391 C   0  0  0  0  0  0  0  0  0  0  0  0
    0.5383   -3.3474  -15.7009 C   0  0  0  0  0  0  0  0  0  0  0  0
   -5.0463   -7.6486  -16.2589 C   0  0  0  0  0  0  0  0  0  0  0  0
   -5.6617   -6.8996  -15.2780 C   0  0  0  0  0  0  0  0  0  0  0  0
   -6.9838   -7.2575  -15.3256 N   0  0  0  0  0  0  0  0  0  0  0  0
   -7.2803   -8.1477  -16.2813 N   0  0  0  0  0  0  0  0  0  0  0  0
   -6.0889   -8.3971  -16.8553 C   0  0  0  0  0  0  0  0  0  0  0  0
   -8.0543   -6.7379  -14.4839 C   0  0  0  0  0  0  0  0  0  0  0  0
   -8.8473   -5.6658  -15.2163 C   0  0  0  0  0  0  0  0  0  0  0  0
   -9.8261   -4.9556  -14.2880 C   0  0  0  0  0  0  0  0  0  0  0  0
   -9.0509   -4.4088  -13.1478 N   0  0  0  0  0  0  0  0  0  0  0  0
   -8.4090   -5.4778  -12.3362 C   0  0  0  0  0  0  0  0  0  0  0  0
   -7.4074   -6.1627  -13.2374 C   0  0  0  0  0  0  0  0  0  0  0  0
   -9.6811   -3.8758  -12.5485 H   0  0  0  0  0  0  0  0  0  0  0  0
    1.9164   -1.6710  -14.5863 C   0  0  0  0  0  0  0  0  0  0  0  0
    0.7238   -1.4939  -13.6618 C   0  0  0  0  0  0  0  0  0  0  0  0
   -0.3936   -0.6496  -14.2330 C   0  0  0  0  0  0  0  0  0  0  0  0
   -1.5844   -0.9176  -13.5837 N   0  0  0  0  0  0  0  0  0  0  0  0
   -0.2732    0.1615  -15.1489 O   0  0  0  0  0  0  0  0  0  0  0  0
   -1.6215   -1.6723  -12.9526 H   0  0  0  0  0  0  0  0  0  0  0  0
   -2.7728   -0.1322  -13.7974 C   0  0  0  0  0  0  0  0  0  0  0  0
   -4.0222   -0.8283  -13.3366 C   0  0  0  0  0  0  0  0  0  0  0  0
   -3.9435   -2.1581  -13.1739 N   0  0  0  0  0  0  0  0  0  0  0  0
   -5.0572   -2.7809  -12.7618 C   0  0  0  0  0  0  0  0  0  0  0  0
   -6.2558   -2.1488  -12.5025 C   0  0  0  0  0  0  0  0  0  0  0  0
   -6.3111   -0.7814  -12.6786 C   0  0  0  0  0  0  0  0  0  0  0  0
   -5.1793   -0.1143  -13.1012 C   0  0  0  0  0  0  0  0  0  0  0  0
  4  1  2  0  0  0
 10  1  1  0  0  0
  1  9  1  0  0  0
 12  2  2  0  0  0
  2  4  1  0  0  0
  9  3  2  0  0  0
  4  5  1  0  0  0
  5  6  2  0  0  0
  6  7  1  0  0  0
  7  8  2  0  0  0
  7 13  1  0  0  0
  8  9  1  0  0  0
  8 16  1  0  0  0
 11 10  2  0  0  0
 12 11  1  0  0  0
 17 11  1  0  0  0
 13 14  2  0  0  0
 14 15  1  0  0  0
 16 15  2  0  0  0
 15 29  1  0  0  0
 18 17  2  0  0  0
 17 21  1  0  0  0
 30 29  1  0  0  0
 31 30  1  0  0  0
 32 31  1  0  0  0
 31 33  2  0  0  0
 35 32  1  0  0  0
 19 18  1  0  0  0
 22 19  1  0  0  0
 19 20  1  0  0  0
 20 21  2  0  0  0
 27 22  1  0  0  0
 22 23  1  0  0  0
 24 23  1  0  0  0
 25 24  1  0  0  0
 26 25  1  0  0  0
 26 27  1  0  0  0
 35 36  1  0  0  0
 37 36  2  0  0  0
 36 41  1  0  0  0
 37 38  1  0  0  0
 38 39  2  0  0  0
 39 40  1  0  0  0
 41 40  2  0  0  0
 32 34  1  0  0  0
 25 28  1  0  0  0
M  END
> <minimizedAffinity>
-9.24919

$$$$
3Q6W_Q6W_A_1


 41 46  0  0  0  0  0  0  0  0999 V2000
   -1.9549   -6.6194  -17.0515 C   0  0  0  0  0  0  0  0  0  0  0  0
   -2.6778   -8.8599  -17.5102 N   0  0  0  0  0  0  0  0  0  0  0  0
   -1.5110   -4.3686  -17.2628 O   0  0  0  0  0  0  0  0  0  0  0  0
   -1.7377   -7.8911  -17.5579 C   0  0  0  0  0  0  0  0  0  0  0  0
   -0.5187   -8.3859  -18.1685 C   0  0  0  0  0  0  0  0  0  0  0  0
    0.7317   -7.8982  -18.0722 C   0  0  0  0  0  0  0  0  0  0  0  0
    1.2968   -6.7205  -17.4727 C   0  0  0  0  0  0  0  0  0  0  0  0
    0.4611   -5.5859  -17.0549 C   0  0  0  0  0  0  0  0  0  0  0  0
   -1.0291   -5.4881  -17.1348 C   0  0  0  0  0  0  0  0  0  0  0  0
   -3.1700   -6.3346  -16.4515 C   0  0  0  0  0  0  0  0  0  0  0  0
   -4.1316   -7.3222  -16.3678 C   0  0  0  0  0  0  0  0  0  0  0  0
   -3.8435   -8.5516  -16.9282 C   0  0  0  0  0  0  0  0  0  0  0  0
    2.6280   -6.5893  -17.3367 C   0  0  0  0  0  0  0  0  0  0  0  0
    3.2455   -5.3994  -16.7952 C   0  0  0  0  0  0  0  0  0  0  0  0
    2.5209   -4.3311  -16.4259 C   0  0  0  0  0  0  0  0  0  0  0  0
    1.0679   -4.3226  -16.5663 C   0  0  0  0  0  0  0  0  0  0  0  0
   -5.3912   -7.0661  -15.6988 C   0  0  0  0  0  0  0  0  0  0  0  0
   -5.5737   -6.1688  -14.6676 C   0  0  0  0  0  0  0  0  0  0  0  0
   -6.9172   -6.1957  -14.3981 N   0  0  0  0  0  0  0  0  0  0  0  0
   -7.6236   -7.0079  -15.1952 N   0  0  0  0  0  0  0  0  0  0  0  0
   -6.6872   -7.5517  -15.9944 C   0  0  0  0  0  0  0  0  0  0  0  0
   -7.6150   -5.4134  -13.3856 C   0  0  0  0  0  0  0  0  0  0  0  0
   -8.8887   -4.8053  -13.9534 C   0  0  0  0  0  0  0  0  0  0  0  0
   -9.5180   -3.8094  -12.9858 C   0  0  0  0  0  0  0  0  0  0  0  0
   -8.4949   -2.7852  -12.6633 N   0  0  0  0  0  0  0  0  0  0  0  0
   -7.3189   -3.3633  -11.9588 C   0  0  0  0  0  0  0  0  0  0  0  0
   -6.6644   -4.3234  -12.9254 C   0  0  0  0  0  0  0  0  0  0  0  0
   -8.9186   -2.0752  -12.0659 H   0  0  0  0  0  0  0  0  0  0  0  0
    3.0335   -3.0650  -15.8545 C   0  0  0  0  0  0  0  0  0  0  0  0
    4.4936   -2.8627  -16.2232 C   0  0  0  0  0  0  0  0  0  0  0  0
    4.7162   -2.1329  -17.5291 C   0  0  0  0  0  0  0  0  0  0  0  0
    4.4563   -2.9666  -18.6010 N   0  0  0  0  0  0  0  0  0  0  0  0
    5.0810   -0.9638  -17.6356 O   0  0  0  0  0  0  0  0  0  0  0  0
    4.2961   -3.9229  -18.4304 H   0  0  0  0  0  0  0  0  0  0  0  0
    4.4116   -2.4864  -19.9581 C   0  0  0  0  0  0  0  0  0  0  0  0
    3.3285   -3.1371  -20.7713 C   0  0  0  0  0  0  0  0  0  0  0  0
    3.3028   -2.8445  -22.0808 N   0  0  0  0  0  0  0  0  0  0  0  0
    2.3375   -3.4250  -22.8083 C   0  0  0  0  0  0  0  0  0  0  0  0
    1.3868   -4.2861  -22.3004 C   0  0  0  0  0  0  0  0  0  0  0  0
    1.4339   -4.5698  -20.9509 C   0  0  0  0  0  0  0  0  0  0  0  0
    2.4175   -3.9870  -20.1780 C   0  0  0  0  0  0  0  0  0  0  0  0
  4  1  2  0  0  0
 10  1  1  0  0  0
  1  9  1  0  0  0
 12  2  2  0  0  0
  2  4  1  0  0  0
  9  3  2  0  0  0
  4  5  1  0  0  0
  5  6  2  0  0  0
  6  7  1  0  0  0
  7  8  2  0  0  0
  7 13  1  0  0  0
  8  9  1  0  0  0
  8 16  1  0  0  0
 11 10  2  0  0  0
 12 11  1  0  0  0
 17 11  1  0  0  0
 13 14  2  0  0  0
 14 15  1  0  0  0
 16 15  2  0  0  0
 15 29  1  0  0  0
 18 17  2  0  0  0
 17 21  1  0  0  0
 30 29  1  0  0  0
 31 30  1  0  0  0
 32 31  1  0  0  0
 31 33  2  0  0  0
 35 32  1  0  0  0
 19 18  1  0  0  0
 22 19  1  0  0  0
 19 20  1  0  0  0
 20 21  2  0  0  0
 27 22  1  0  0  0
 22 23  1  0  0  0
 24 23  1  0  0  0
 25 24  1  0  0  0
 26 25  1  0  0  0
 26 27  1  0  0  0
 35 36  1  0  0  0
 37 36  2  0  0  0
 36 41  1  0  0  0
 37 38  1  0  0  0
 38 39  2  0  0  0
 39 40  1  0  0  0
 41 40  2  0  0  0
 32 34  1  0  0  0
 25 28  1  0  0  0
M  END
> <minimizedAffinity>
-8.97246

$$$$
3Q6W_Q6W_A_1


 41 46  0  0  0  0  0  0  0  0999 V2000
   -1.5139   -1.9133  -14.1716 C   0  0  0  0  0  0  0  0  0  0  0  0
    0.1626   -0.2092  -14.3683 N   0  0  0  0  0  0  0  0  0  0  0  0
   -3.1059   -3.4973  -14.6859 O   0  0  0  0  0  0  0  0  0  0  0  0
   -1.1316   -0.5852  -14.2756 C   0  0  0  0  0  0  0  0  0  0  0  0
   -2.0053    0.5725  -14.2741 C   0  0  0  0  0  0  0  0  0  0  0  0
   -3.2728    0.6726  -13.8333 C   0  0  0  0  0  0  0  0  0  0  0  0
   -4.2318   -0.2764  -13.3377 C   0  0  0  0  0  0  0  0  0  0  0  0
   -4.0504   -1.7246  -13.5113 C   0  0  0  0  0  0  0  0  0  0  0  0
   -2.8889   -2.4159  -14.1515 C   0  0  0  0  0  0  0  0  0  0  0  0
   -0.5353   -2.8924  -14.1361 C   0  0  0  0  0  0  0  0  0  0  0  0
    0.7939   -2.5235  -14.2000 C   0  0  0  0  0  0  0  0  0  0  0  0
    1.0842   -1.1799  -14.3359 C   0  0  0  0  0  0  0  0  0  0  0  0
   -5.3703    0.1374  -12.7545 C   0  0  0  0  0  0  0  0  0  0  0  0
   -6.3910   -0.7777  -12.2948 C   0  0  0  0  0  0  0  0  0  0  0  0
   -6.2767   -2.1055  -12.4571 C   0  0  0  0  0  0  0  0  0  0  0  0
   -5.1118   -2.6850  -13.1193 C   0  0  0  0  0  0  0  0  0  0  0  0
    1.8387   -3.5238  -14.1121 C   0  0  0  0  0  0  0  0  0  0  0  0
    2.4129   -3.9703  -12.9405 C   0  0  0  0  0  0  0  0  0  0  0  0
    3.2860   -4.9568  -13.3185 N   0  0  0  0  0  0  0  0  0  0  0  0
    3.2957   -5.2108  -14.6335 N   0  0  0  0  0  0  0  0  0  0  0  0
    2.4103   -4.3261  -15.1282 C   0  0  0  0  0  0  0  0  0  0  0  0
    4.1371   -5.7467  -12.4376 C   0  0  0  0  0  0  0  0  0  0  0  0
    4.3382   -7.1488  -12.9929 C   0  0  0  0  0  0  0  0  0  0  0  0
    5.0378   -8.0578  -11.9888 C   0  0  0  0  0  0  0  0  0  0  0  0
    4.2377   -8.0514  -10.7401 N   0  0  0  0  0  0  0  0  0  0  0  0
    4.1810   -6.7038  -10.1120 C   0  0  0  0  0  0  0  0  0  0  0  0
    3.4532   -5.8037  -11.0840 C   0  0  0  0  0  0  0  0  0  0  0  0
    4.6575   -8.7042  -10.0782 H   0  0  0  0  0  0  0  0  0  0  0  0
   -7.2446   -3.1395  -12.0254 C   0  0  0  0  0  0  0  0  0  0  0  0
   -8.4853   -3.1119  -12.9021 C   0  0  0  0  0  0  0  0  0  0  0  0
   -8.7819   -4.4144  -13.6115 C   0  0  0  0  0  0  0  0  0  0  0  0
   -7.6772   -5.2451  -13.5823 N   0  0  0  0  0  0  0  0  0  0  0  0
   -9.8502   -4.7039  -14.1466 O   0  0  0  0  0  0  0  0  0  0  0  0
   -6.8228   -4.8869  -13.2491 H   0  0  0  0  0  0  0  0  0  0  0  0
   -7.7312   -6.6157  -14.0216 C   0  0  0  0  0  0  0  0  0  0  0  0
   -6.5805   -6.9878  -14.9134 C   0  0  0  0  0  0  0  0  0  0  0  0
   -5.4202   -6.3504  -14.6938 N   0  0  0  0  0  0  0  0  0  0  0  0
   -4.3918   -6.6819  -15.4880 C   0  0  0  0  0  0  0  0  0  0  0  0
   -4.4552   -7.6189  -16.4986 C   0  0  0  0  0  0  0  0  0  0  0  0
   -5.6598   -8.2593  -16.7051 C   0  0  0  0  0  0  0  0  0  0  0  0
   -6.7351   -7.9384  -15.9016 C   0  0  0  0  0  0  0  0  0  0  0  0
  4  1  2  0  0  0
 10  1  1  0  0  0
  1  9  1  0  0  0
 12  2  2  0  0  0
  2  4  1  0  0  0
  9  3  2  0  0  0
  4  5  1  0  0  0
  5  6  2  0  0  0
  6  7  1  0  0  0
  7  8  2  0  0  0
  7 13  1  0  0  0
  8  9  1  0  0  0
  8 16  1  0  0  0
 11 10  2  0  0  0
 12 11  1  0  0  0
 17 11  1  0  0  0
 13 14  2  0  0  0
 14 15  1  0  0  0
 16 15  2  0  0  0
 15 29  1  0  0  0
 18 17  2  0  0  0
 17 21  1  0  0  0
 30 29  1  0  0  0
 31 30  1  0  0  0
 32 31  1  0  0  0
 31 33  2  0  0  0
 35 32  1  0  0  0
 19 18  1  0  0  0
 22 19  1  0  0  0
 19 20  1  0  0  0
 20 21  2  0  0  0
 27 22  1  0  0  0
 22 23  1  0  0  0
 24 23  1  0  0  0
 25 24  1  0  0  0
 26 25  1  0  0  0
 26 27  1  0  0  0
 35 36  1  0  0  0
 37 36  2  0  0  0
 36 41  1  0  0  0
 37 38  1  0  0  0
 38 39  2  0  0  0
 39 40  1  0  0  0
 41 40  2  0  0  0
 32 34  1  0  0  0
 25 28  1  0  0  0
M  END
> <minimizedAffinity>
-8.92854

$$$$
3Q6W_Q6W_A_1


 41 46  0  0  0  0  0  0  0  0999 V2000
   -0.7572   -8.2452  -17.4081 C   0  0  0  0  0  0  0  0  0  0  0  0
   -1.0602   -5.8760  -17.1891 N   0  0  0  0  0  0  0  0  0  0  0  0
   -0.2246  -10.4416  -16.9605 O   0  0  0  0  0  0  0  0  0  0  0  0
   -0.2945   -6.9425  -17.5068 C   0  0  0  0  0  0  0  0  0  0  0  0
    1.0125   -6.5183  -17.9708 C   0  0  0  0  0  0  0  0  0  0  0  0
    1.9051   -7.1967  -18.7149 C   0  0  0  0  0  0  0  0  0  0  0  0
    1.9689   -8.5452  -19.2081 C   0  0  0  0  0  0  0  0  0  0  0  0
    1.0943   -9.6043  -18.6850 C   0  0  0  0  0  0  0  0  0  0  0  0
    0.0254   -9.4590  -17.6490 C   0  0  0  0  0  0  0  0  0  0  0  0
   -2.0598   -8.4650  -16.9927 C   0  0  0  0  0  0  0  0  0  0  0  0
   -2.8658   -7.3846  -16.6923 C   0  0  0  0  0  0  0  0  0  0  0  0
   -2.3131   -6.1221  -16.7863 C   0  0  0  0  0  0  0  0  0  0  0  0
    2.8870   -8.8996  -20.1241 C   0  0  0  0  0  0  0  0  0  0  0  0
    3.0287  -10.2556  -20.6057 C   0  0  0  0  0  0  0  0  0  0  0  0
    2.2680  -11.2569  -20.1355 C   0  0  0  0  0  0  0  0  0  0  0  0
    1.2645  -11.0183  -19.1024 C   0  0  0  0  0  0  0  0  0  0  0  0
   -4.2480   -7.5845  -16.3059 C   0  0  0  0  0  0  0  0  0  0  0  0
   -4.9227   -6.8415  -15.3600 C   0  0  0  0  0  0  0  0  0  0  0  0
   -6.2073   -7.3189  -15.3739 N   0  0  0  0  0  0  0  0  0  0  0  0
   -6.4279   -8.2829  -16.2772 N   0  0  0  0  0  0  0  0  0  0  0  0
   -5.2222   -8.4551  -16.8499 C   0  0  0  0  0  0  0  0  0  0  0  0
   -7.3153   -6.8526  -14.5498 C   0  0  0  0  0  0  0  0  0  0  0  0
   -8.3989   -6.2172  -15.4082 C   0  0  0  0  0  0  0  0  0  0  0  0
   -9.4604   -5.5286  -14.5577 C   0  0  0  0  0  0  0  0  0  0  0  0
   -8.7729   -4.5421  -13.6894 N   0  0  0  0  0  0  0  0  0  0  0  0
   -7.8307   -5.1879  -12.7361 C   0  0  0  0  0  0  0  0  0  0  0  0
   -6.7517   -5.8405  -13.5694 C   0  0  0  0  0  0  0  0  0  0  0  0
   -9.4752   -4.0273  -13.1583 H   0  0  0  0  0  0  0  0  0  0  0  0
    2.3129  -12.6771  -20.5520 C   0  0  0  0  0  0  0  0  0  0  0  0
    1.1188  -13.0169  -21.4280 C   0  0  0  0  0  0  0  0  0  0  0  0
    1.1280  -12.3531  -22.7870 C   0  0  0  0  0  0  0  0  0  0  0  0
    0.1068  -11.4258  -22.8806 N   0  0  0  0  0  0  0  0  0  0  0  0
    1.9240  -12.5980  -23.6912 O   0  0  0  0  0  0  0  0  0  0  0  0
   -0.5640  -11.3843  -22.1612 H   0  0  0  0  0  0  0  0  0  0  0  0
   -0.0109  -10.5182  -23.9928 C   0  0  0  0  0  0  0  0  0  0  0  0
    0.7423   -9.2355  -23.7808 C   0  0  0  0  0  0  0  0  0  0  0  0
    1.7794   -9.0055  -24.6009 N   0  0  0  0  0  0  0  0  0  0  0  0
    2.4522   -7.8608  -24.4137 C   0  0  0  0  0  0  0  0  0  0  0  0
    2.1491   -6.9252  -23.4462 C   0  0  0  0  0  0  0  0  0  0  0  0
    1.0791   -7.1857  -22.6149 C   0  0  0  0  0  0  0  0  0  0  0  0
    0.3680   -8.3561  -22.7855 C   0  0  0  0  0  0  0  0  0  0  0  0
  4  1  2  0  0  0
 10  1  1  0  0  0
  1  9  1  0  0  0
 12  2  2  0  0  0
  2  4  1  0  0  0
  9  3  2  0  0  0
  4  5  1  0  0  0
  5  6  2  0  0  0
  6  7  1  0  0  0
  7  8  2  0  0  0
  7 13  1  0  0  0
  8  9  1  0  0  0
  8 16  1  0  0  0
 11 10  2  0  0  0
 12 11  1  0  0  0
 17 11  1  0  0  0
 13 14  2  0  0  0
 14 15  1  0  0  0
 16 15  2  0  0  0
 15 29  1  0  0  0
 18 17  2  0  0  0
 17 21  1  0  0  0
 30 29  1  0  0  0
 31 30  1  0  0  0
 32 31  1  0  0  0
 31 33  2  0  0  0
 35 32  1  0  0  0
 19 18  1  0  0  0
 22 19  1  0  0  0
 19 20  1  0  0  0
 20 21  2  0  0  0
 27 22  1  0  0  0
 22 23  1  0  0  0
 24 23  1  0  0  0
 25 24  1  0  0  0
 26 25  1  0  0  0
 26 27  1  0  0  0
 35 36  1  0  0  0
 37 36  2  0  0  0
 36 41  1  0  0  0
 37 38  1  0  0  0
 38 39  2  0  0  0
 39 40  1  0  0  0
 41 40  2  0  0  0
 32 34  1  0  0  0
 25 28  1  0  0  0
M  END
> <minimizedAffinity>
-8.58661

$$$$
