5JA0_FPP_F_402


 27 26  0  0  0  0  0  0  0  0999 V2000
    3.9257   76.7868   28.9344 C   0  0  0  0  0  0  0  0  0  0  0  0
    2.9773   77.6762   28.5911 C   0  0  0  0  0  0  0  0  0  0  0  0
    3.2949   78.9997   27.9516 C   0  0  0  0  0  0  0  0  0  0  0  0
    5.4100   76.9930   28.6354 C   0  0  0  0  0  0  0  0  0  0  0  0
    5.5547   76.3483   27.3335 O   0  0  0  0  0  0  0  0  0  0  0  0
    6.2358   74.9265   27.0604 P   0  0  0  0  0  0  0  0  0  0  0  0
    5.6313   74.0723   28.1353 O   0  0  0  0  0  0  0  0  0  0  0  0
    6.1054   74.4723   25.6123 O   0  0  0  0  0  0  0  0  0  0  0  0
    5.1763   74.2722   25.4186 H   0  0  0  0  0  0  0  0  0  0  0  0
    7.6934   75.3249   27.6457 O   0  0  0  0  0  0  0  0  0  0  0  0
    9.0627   74.5991   27.2261 P   0  0  0  0  0  0  0  0  0  0  0  0
    8.8014   73.1166   27.5133 O   0  0  0  0  0  0  0  0  0  0  0  0
   10.0910   75.2216   28.0992 O   0  0  0  0  0  0  0  0  0  0  0  0
    9.0637   74.7286   25.7660 O   0  0  0  0  0  0  0  0  0  0  0  0
    9.8995   75.0096   29.0261 H   0  0  0  0  0  0  0  0  0  0  0  0
    8.3069   74.2462   25.3981 H   0  0  0  0  0  0  0  0  0  0  0  0
    1.5353   77.3454   28.9110 C   0  0  0  0  0  0  0  0  0  0  0  0
    0.6742   77.1716   27.6737 C   0  0  0  0  0  0  0  0  0  0  0  0
   -0.8083   77.4824   27.9598 C   0  0  0  0  0  0  0  0  0  0  0  0
   -1.7930   77.0559   27.1432 C   0  0  0  0  0  0  0  0  0  0  0  0
   -1.5547   76.2131   25.9066 C   0  0  0  0  0  0  0  0  0  0  0  0
   -3.2346   77.3947   27.5345 C   0  0  0  0  0  0  0  0  0  0  0  0
   -3.9642   78.2587   26.5083 C   0  0  0  0  0  0  0  0  0  0  0  0
   -3.7032   79.7134   26.7501 C   0  0  0  0  0  0  0  0  0  0  0  0
   -4.3598   80.5732   27.5727 C   0  0  0  0  0  0  0  0  0  0  0  0
   -5.5461   80.2547   28.4263 C   0  0  0  0  0  0  0  0  0  0  0  0
   -3.8759   81.9821   27.6371 C   0  0  0  0  0  0  0  0  0  0  0  0
  4  5  1  0  0  0
  4  1  1  0  0  0
  5  6  1  0  0  0
  1  2  2  0  0  0
  2  3  1  0  0  0
  2 17  1  0  0  0
 17 18  1  0  0  0
 18 19  1  0  0  0
 19 20  2  0  0  0
 20 21  1  0  0  0
 20 22  1  0  0  0
 22 23  1  0  0  0
 23 24  1  0  0  0
 24 25  2  0  0  0
 25 26  1  0  0  0
 25 27  1  0  0  0
  6  7  2  0  0  0
  6  8  1  0  0  0
  6 10  1  0  0  0
 10 11  1  0  0  0
 11 12  2  0  0  0
 11 13  1  0  0  0
 11 14  1  0  0  0
  8  9  1  0  0  0
 13 15  1  0  0  0
 14 16  1  0  0  0
M  END
> <minimizedAffinity>
-8.58838

$$$$
5JA0_FPP_F_402


 27 26  0  0  0  0  0  0  0  0999 V2000
    4.5256   77.4881   27.9773 C   0  0  0  0  0  0  0  0  0  0  0  0
    3.3679   77.3041   28.6364 C   0  0  0  0  0  0  0  0  0  0  0  0
    3.2017   76.2735   29.7188 C   0  0  0  0  0  0  0  0  0  0  0  0
    5.8081   76.7296   28.3162 C   0  0  0  0  0  0  0  0  0  0  0  0
    6.0371   75.9529   27.1015 O   0  0  0  0  0  0  0  0  0  0  0  0
    5.9287   74.3620   26.9698 P   0  0  0  0  0  0  0  0  0  0  0  0
    7.3114   73.9168   27.3446 O   0  0  0  0  0  0  0  0  0  0  0  0
    4.7462   73.7806   27.7340 O   0  0  0  0  0  0  0  0  0  0  0  0
    4.8983   73.8771   28.6871 H   0  0  0  0  0  0  0  0  0  0  0  0
    5.9287   74.3286   25.3497 O   0  0  0  0  0  0  0  0  0  0  0  0
    6.9285   75.1845   24.4301 P   0  0  0  0  0  0  0  0  0  0  0  0
    6.9122   74.4543   23.0828 O   0  0  0  0  0  0  0  0  0  0  0  0
    8.2289   75.1235   25.1458 O   0  0  0  0  0  0  0  0  0  0  0  0
    6.1864   76.4306   24.2177 O   0  0  0  0  0  0  0  0  0  0  0  0
    8.5411   74.2055   25.1715 H   0  0  0  0  0  0  0  0  0  0  0  0
    5.3690   76.2412   23.7309 H   0  0  0  0  0  0  0  0  0  0  0  0
    2.1722   78.1392   28.2313 C   0  0  0  0  0  0  0  0  0  0  0  0
    0.8512   77.4123   28.4024 C   0  0  0  0  0  0  0  0  0  0  0  0
    0.0126   77.4368   27.1092 C   0  0  0  0  0  0  0  0  0  0  0  0
   -1.3331   77.3546   27.1346 C   0  0  0  0  0  0  0  0  0  0  0  0
   -2.1470   77.2694   28.4099 C   0  0  0  0  0  0  0  0  0  0  0  0
   -2.0721   77.4171   25.7944 C   0  0  0  0  0  0  0  0  0  0  0  0
   -3.4761   78.0096   25.8926 C   0  0  0  0  0  0  0  0  0  0  0  0
   -3.4188   79.4872   26.1299 C   0  0  0  0  0  0  0  0  0  0  0  0
   -3.9726   80.2120   27.1374 C   0  0  0  0  0  0  0  0  0  0  0  0
   -4.8143   79.6819   28.2545 C   0  0  0  0  0  0  0  0  0  0  0  0
   -3.7432   81.6853   27.1430 C   0  0  0  0  0  0  0  0  0  0  0  0
  4  5  1  0  0  0
  4  1  1  0  0  0
  5  6  1  0  0  0
  1  2  2  0  0  0
  2  3  1  0  0  0
  2 17  1  0  0  0
 17 18  1  0  0  0
 18 19  1  0  0  0
 19 20  2  0  0  0
 20 21  1  0  0  0
 20 22  1  0  0  0
 22 23  1  0  0  0
 23 24  1  0  0  0
 24 25  2  0  0  0
 25 26  1  0  0  0
 25 27  1  0  0  0
  6  7  2  0  0  0
  6  8  1  0  0  0
  6 10  1  0  0  0
 10 11  1  0  0  0
 11 12  2  0  0  0
 11 13  1  0  0  0
 11 14  1  0  0  0
  8  9  1  0  0  0
 13 15  1  0  0  0
 14 16  1  0  0  0
M  END
> <minimizedAffinity>
-8.54040

$$$$
5JA0_FPP_F_402


 27 26  0  0  0  0  0  0  0  0999 V2000
   -1.6716   77.0776   27.9999 C   0  0  0  0  0  0  0  0  0  0  0  0
   -0.9113   76.9194   26.9019 C   0  0  0  0  0  0  0  0  0  0  0  0
   -1.4601   76.4105   25.5976 C   0  0  0  0  0  0  0  0  0  0  0  0
   -3.1806   76.8369   28.0114 C   0  0  0  0  0  0  0  0  0  0  0  0
   -3.6951   78.1269   28.4615 O   0  0  0  0  0  0  0  0  0  0  0  0
   -4.6417   79.1052   27.6208 P   0  0  0  0  0  0  0  0  0  0  0  0
   -4.1944   78.8478   26.2121 O   0  0  0  0  0  0  0  0  0  0  0  0
   -6.1181   78.9384   27.9561 O   0  0  0  0  0  0  0  0  0  0  0  0
   -6.4246   78.0724   27.6448 H   0  0  0  0  0  0  0  0  0  0  0  0
   -3.8769   80.4728   28.0341 O   0  0  0  0  0  0  0  0  0  0  0  0
   -4.4473   81.9463   27.7492 P   0  0  0  0  0  0  0  0  0  0  0  0
   -5.9656   81.7908   27.8870 O   0  0  0  0  0  0  0  0  0  0  0  0
   -3.9846   82.2594   26.3726 O   0  0  0  0  0  0  0  0  0  0  0  0
   -4.0138   82.6957   28.9320 O   0  0  0  0  0  0  0  0  0  0  0  0
   -4.3937   81.6424   25.7458 H   0  0  0  0  0  0  0  0  0  0  0  0
   -4.4358   82.3244   29.7226 H   0  0  0  0  0  0  0  0  0  0  0  0
    0.5685   77.2206   27.0055 C   0  0  0  0  0  0  0  0  0  0  0  0
    0.9817   77.7167   28.3786 C   0  0  0  0  0  0  0  0  0  0  0  0
    2.5122   77.6889   28.5606 C   0  0  0  0  0  0  0  0  0  0  0  0
    3.2844   78.7459   28.2370 C   0  0  0  0  0  0  0  0  0  0  0  0
    2.7381   80.0565   27.7076 C   0  0  0  0  0  0  0  0  0  0  0  0
    4.7912   78.6246   28.4841 C   0  0  0  0  0  0  0  0  0  0  0  0
    5.1995   77.3241   29.1726 C   0  0  0  0  0  0  0  0  0  0  0  0
    5.8182   76.3721   28.1960 C   0  0  0  0  0  0  0  0  0  0  0  0
    5.4578   75.0946   27.9041 C   0  0  0  0  0  0  0  0  0  0  0  0
    4.3443   74.3197   28.5342 C   0  0  0  0  0  0  0  0  0  0  0  0
    6.2442   74.3692   26.8656 C   0  0  0  0  0  0  0  0  0  0  0  0
  4  5  1  0  0  0
  4  1  1  0  0  0
  5  6  1  0  0  0
  1  2  2  0  0  0
  2  3  1  0  0  0
  2 17  1  0  0  0
 17 18  1  0  0  0
 18 19  1  0  0  0
 19 20  2  0  0  0
 20 21  1  0  0  0
 20 22  1  0  0  0
 22 23  1  0  0  0
 23 24  1  0  0  0
 24 25  2  0  0  0
 25 26  1  0  0  0
 25 27  1  0  0  0
  6  7  2  0  0  0
  6  8  1  0  0  0
  6 10  1  0  0  0
 10 11  1  0  0  0
 11 12  2  0  0  0
 11 13  1  0  0  0
 11 14  1  0  0  0
  8  9  1  0  0  0
 13 15  1  0  0  0
 14 16  1  0  0  0
M  END
> <minimizedAffinity>
-8.39651

$$$$
5JA0_FPP_F_402


 27 26  0  0  0  0  0  0  0  0999 V2000
    6.9107   75.0514   27.6300 C   0  0  0  0  0  0  0  0  0  0  0  0
    5.8851   74.2885   28.0482 C   0  0  0  0  0  0  0  0  0  0  0  0
    6.0106   72.8069   28.2727 C   0  0  0  0  0  0  0  0  0  0  0  0
    8.3236   74.5079   27.4211 C   0  0  0  0  0  0  0  0  0  0  0  0
    8.4870   74.6220   25.9749 O   0  0  0  0  0  0  0  0  0  0  0  0
    9.8748   74.7947   25.1976 P   0  0  0  0  0  0  0  0  0  0  0  0
   10.5330   75.9036   25.9643 O   0  0  0  0  0  0  0  0  0  0  0  0
   10.6289   73.4823   25.0269 O   0  0  0  0  0  0  0  0  0  0  0  0
   10.9392   73.1728   25.8923 H   0  0  0  0  0  0  0  0  0  0  0  0
    9.2472   75.5316   23.8980 O   0  0  0  0  0  0  0  0  0  0  0  0
    9.2382   74.9021   22.4210 P   0  0  0  0  0  0  0  0  0  0  0  0
   10.7111   74.5822   22.1438 O   0  0  0  0  0  0  0  0  0  0  0  0
    8.6722   75.9776   21.5667 O   0  0  0  0  0  0  0  0  0  0  0  0
    8.5802   73.6082   22.6245 O   0  0  0  0  0  0  0  0  0  0  0  0
    9.2680   76.7431   21.5734 H   0  0  0  0  0  0  0  0  0  0  0  0
    9.1204   73.0600   23.2149 H   0  0  0  0  0  0  0  0  0  0  0  0
    4.5378   74.9479   28.2509 C   0  0  0  0  0  0  0  0  0  0  0  0
    4.6160   76.2283   29.0616 C   0  0  0  0  0  0  0  0  0  0  0  0
    3.2204   76.8329   29.3127 C   0  0  0  0  0  0  0  0  0  0  0  0
    2.8185   77.9669   28.7037 C   0  0  0  0  0  0  0  0  0  0  0  0
    3.6626   78.7288   27.7021 C   0  0  0  0  0  0  0  0  0  0  0  0
    1.4016   78.4669   29.0010 C   0  0  0  0  0  0  0  0  0  0  0  0
    0.3215   77.4038   28.8135 C   0  0  0  0  0  0  0  0  0  0  0  0
   -0.0004   77.2171   27.3628 C   0  0  0  0  0  0  0  0  0  0  0  0
   -1.2011   76.9572   26.7815 C   0  0  0  0  0  0  0  0  0  0  0  0
   -2.5063   76.7652   27.4863 C   0  0  0  0  0  0  0  0  0  0  0  0
   -1.2435   76.8338   25.2961 C   0  0  0  0  0  0  0  0  0  0  0  0
  4  5  1  0  0  0
  4  1  1  0  0  0
  5  6  1  0  0  0
  1  2  2  0  0  0
  2  3  1  0  0  0
  2 17  1  0  0  0
 17 18  1  0  0  0
 18 19  1  0  0  0
 19 20  2  0  0  0
 20 21  1  0  0  0
 20 22  1  0  0  0
 22 23  1  0  0  0
 23 24  1  0  0  0
 24 25  2  0  0  0
 25 26  1  0  0  0
 25 27  1  0  0  0
  6  7  2  0  0  0
  6  8  1  0  0  0
  6 10  1  0  0  0
 10 11  1  0  0  0
 11 12  2  0  0  0
 11 13  1  0  0  0
 11 14  1  0  0  0
  8  9  1  0  0  0
 13 15  1  0  0  0
 14 16  1  0  0  0
M  END
> <minimizedAffinity>
-8.35036

$$$$
5JA0_FPP_F_402


 27 26  0  0  0  0  0  0  0  0999 V2000
    2.2320   76.3561   29.2716 C   0  0  0  0  0  0  0  0  0  0  0  0
    1.6581   77.4835   28.8154 C   0  0  0  0  0  0  0  0  0  0  0  0
    2.4491   78.6225   28.2338 C   0  0  0  0  0  0  0  0  0  0  0  0
    3.7321   76.0835   29.1696 C   0  0  0  0  0  0  0  0  0  0  0  0
    3.7787   74.9597   28.2388 O   0  0  0  0  0  0  0  0  0  0  0  0
    4.2666   73.4753   28.5827 P   0  0  0  0  0  0  0  0  0  0  0  0
    3.9547   73.3689   30.0463 O   0  0  0  0  0  0  0  0  0  0  0  0
    3.6921   72.4263   27.6394 O   0  0  0  0  0  0  0  0  0  0  0  0
    2.7369   72.3459   27.7884 H   0  0  0  0  0  0  0  0  0  0  0  0
    5.8522   73.8070   28.5400 O   0  0  0  0  0  0  0  0  0  0  0  0
    6.5949   74.5018   27.2976 P   0  0  0  0  0  0  0  0  0  0  0  0
    7.9233   73.7457   27.1878 O   0  0  0  0  0  0  0  0  0  0  0  0
    6.7303   75.9255   27.7000 O   0  0  0  0  0  0  0  0  0  0  0  0
    5.7905   74.0638   26.1532 O   0  0  0  0  0  0  0  0  0  0  0  0
    7.3050   75.9881   28.4789 H   0  0  0  0  0  0  0  0  0  0  0  0
    5.8421   73.0985   26.0723 H   0  0  0  0  0  0  0  0  0  0  0  0
    0.1564   77.6252   28.9426 C   0  0  0  0  0  0  0  0  0  0  0  0
   -0.5817   77.3392   27.6481 C   0  0  0  0  0  0  0  0  0  0  0  0
   -2.0179   77.8988   27.6724 C   0  0  0  0  0  0  0  0  0  0  0  0
   -2.8305   77.8140   26.5997 C   0  0  0  0  0  0  0  0  0  0  0  0
   -2.4399   77.1416   25.2990 C   0  0  0  0  0  0  0  0  0  0  0  0
   -4.2486   78.3760   26.7389 C   0  0  0  0  0  0  0  0  0  0  0  0
   -4.5829   78.8614   28.1476 C   0  0  0  0  0  0  0  0  0  0  0  0
   -5.4071   80.1110   28.1023 C   0  0  0  0  0  0  0  0  0  0  0  0
   -5.0056   81.3909   27.8831 C   0  0  0  0  0  0  0  0  0  0  0  0
   -3.6015   81.8554   27.6594 C   0  0  0  0  0  0  0  0  0  0  0  0
   -6.0489   82.4561   27.8735 C   0  0  0  0  0  0  0  0  0  0  0  0
  4  5  1  0  0  0
  4  1  1  0  0  0
  5  6  1  0  0  0
  1  2  2  0  0  0
  2  3  1  0  0  0
  2 17  1  0  0  0
 17 18  1  0  0  0
 18 19  1  0  0  0
 19 20  2  0  0  0
 20 21  1  0  0  0
 20 22  1  0  0  0
 22 23  1  0  0  0
 23 24  1  0  0  0
 24 25  2  0  0  0
 25 26  1  0  0  0
 25 27  1  0  0  0
  6  7  2  0  0  0
  6  8  1  0  0  0
  6 10  1  0  0  0
 10 11  1  0  0  0
 11 12  2  0  0  0
 11 13  1  0  0  0
 11 14  1  0  0  0
  8  9  1  0  0  0
 13 15  1  0  0  0
 14 16  1  0  0  0
M  END
> <minimizedAffinity>
-8.23323

$$$$
5JA0_FPP_F_402


 27 26  0  0  0  0  0  0  0  0999 V2000
    5.3625   74.9918   27.7327 C   0  0  0  0  0  0  0  0  0  0  0  0
    4.7926   73.9849   28.4182 C   0  0  0  0  0  0  0  0  0  0  0  0
    5.1022   72.5382   28.1486 C   0  0  0  0  0  0  0  0  0  0  0  0
    6.4401   74.7735   26.6714 C   0  0  0  0  0  0  0  0  0  0  0  0
    6.1308   75.8173   25.6988 O   0  0  0  0  0  0  0  0  0  0  0  0
    6.5023   75.7907   24.1427 P   0  0  0  0  0  0  0  0  0  0  0  0
    5.7369   74.5968   23.6533 O   0  0  0  0  0  0  0  0  0  0  0  0
    6.2768   77.1304   23.4538 O   0  0  0  0  0  0  0  0  0  0  0  0
    5.3258   77.3172   23.4135 H   0  0  0  0  0  0  0  0  0  0  0  0
    8.0123   75.2373   24.3414 O   0  0  0  0  0  0  0  0  0  0  0  0
    9.0001   74.8588   23.1335 P   0  0  0  0  0  0  0  0  0  0  0  0
    8.9218   76.0682   22.1957 O   0  0  0  0  0  0  0  0  0  0  0  0
    8.4298   73.6076   22.5709 O   0  0  0  0  0  0  0  0  0  0  0  0
   10.3222   74.9267   23.7629 O   0  0  0  0  0  0  0  0  0  0  0  0
    7.5496   73.7890   22.2059 H   0  0  0  0  0  0  0  0  0  0  0  0
   10.4932   75.8346   24.0586 H   0  0  0  0  0  0  0  0  0  0  0  0
    3.7594   74.3286   29.4696 C   0  0  0  0  0  0  0  0  0  0  0  0
    3.6328   75.8203   29.7166 C   0  0  0  0  0  0  0  0  0  0  0  0
    2.2643   76.3623   29.2585 C   0  0  0  0  0  0  0  0  0  0  0  0
    2.1580   77.4783   28.5091 C   0  0  0  0  0  0  0  0  0  0  0  0
    3.3474   78.2783   28.0176 C   0  0  0  0  0  0  0  0  0  0  0  0
    0.7529   77.9147   28.0834 C   0  0  0  0  0  0  0  0  0  0  0  0
   -0.0015   76.8600   27.2769 C   0  0  0  0  0  0  0  0  0  0  0  0
   -1.2125   77.4504   26.6229 C   0  0  0  0  0  0  0  0  0  0  0  0
   -2.1412   76.8423   25.8388 C   0  0  0  0  0  0  0  0  0  0  0  0
   -2.1452   75.4072   25.4170 C   0  0  0  0  0  0  0  0  0  0  0  0
   -3.2696   77.6707   25.3254 C   0  0  0  0  0  0  0  0  0  0  0  0
  4  5  1  0  0  0
  4  1  1  0  0  0
  5  6  1  0  0  0
  1  2  2  0  0  0
  2  3  1  0  0  0
  2 17  1  0  0  0
 17 18  1  0  0  0
 18 19  1  0  0  0
 19 20  2  0  0  0
 20 21  1  0  0  0
 20 22  1  0  0  0
 22 23  1  0  0  0
 23 24  1  0  0  0
 24 25  2  0  0  0
 25 26  1  0  0  0
 25 27  1  0  0  0
  6  7  2  0  0  0
  6  8  1  0  0  0
  6 10  1  0  0  0
 10 11  1  0  0  0
 11 12  2  0  0  0
 11 13  1  0  0  0
 11 14  1  0  0  0
  8  9  1  0  0  0
 13 15  1  0  0  0
 14 16  1  0  0  0
M  END
> <minimizedAffinity>
-8.17108

$$$$
5JA0_FPP_F_402


 27 26  0  0  0  0  0  0  0  0999 V2000
    2.9700   75.9296   28.6963 C   0  0  0  0  0  0  0  0  0  0  0  0
    3.0862   77.2608   28.5442 C   0  0  0  0  0  0  0  0  0  0  0  0
    4.4062   77.9417   28.3091 C   0  0  0  0  0  0  0  0  0  0  0  0
    4.1507   74.9687   28.5634 C   0  0  0  0  0  0  0  0  0  0  0  0
    3.4845   73.6958   28.3045 O   0  0  0  0  0  0  0  0  0  0  0  0
    4.1729   72.2519   28.3378 P   0  0  0  0  0  0  0  0  0  0  0  0
    3.7658   71.6746   27.0143 O   0  0  0  0  0  0  0  0  0  0  0  0
    5.6560   72.3072   28.6808 O   0  0  0  0  0  0  0  0  0  0  0  0
    6.1409   72.7262   27.9527 H   0  0  0  0  0  0  0  0  0  0  0  0
    3.1319   71.5952   29.3919 O   0  0  0  0  0  0  0  0  0  0  0  0
    3.1658   71.8583   30.9754 P   0  0  0  0  0  0  0  0  0  0  0  0
    4.6598   71.9344   31.3082 O   0  0  0  0  0  0  0  0  0  0  0  0
    2.4661   70.6844   31.5579 O   0  0  0  0  0  0  0  0  0  0  0  0
    2.6618   73.2302   31.0867 O   0  0  0  0  0  0  0  0  0  0  0  0
    2.9718   69.8790   31.3668 H   0  0  0  0  0  0  0  0  0  0  0  0
    3.2715   73.8361   30.6371 H   0  0  0  0  0  0  0  0  0  0  0  0
    1.8375   78.1076   28.6663 C   0  0  0  0  0  0  0  0  0  0  0  0
    0.5573   77.2954   28.6045 C   0  0  0  0  0  0  0  0  0  0  0  0
   -0.0740   77.3281   27.1985 C   0  0  0  0  0  0  0  0  0  0  0  0
   -1.3924   77.1189   27.0078 C   0  0  0  0  0  0  0  0  0  0  0  0
   -2.3768   76.8725   28.1332 C   0  0  0  0  0  0  0  0  0  0  0  0
   -1.9227   77.2018   25.5732 C   0  0  0  0  0  0  0  0  0  0  0  0
   -3.2935   77.8653   25.4609 C   0  0  0  0  0  0  0  0  0  0  0  0
   -3.2361   79.2931   25.9091 C   0  0  0  0  0  0  0  0  0  0  0  0
   -3.9474   79.9093   26.8897 C   0  0  0  0  0  0  0  0  0  0  0  0
   -5.0011   79.2853   27.7486 C   0  0  0  0  0  0  0  0  0  0  0  0
   -3.6774   81.3536   27.1433 C   0  0  0  0  0  0  0  0  0  0  0  0
  4  5  1  0  0  0
  4  1  1  0  0  0
  5  6  1  0  0  0
  1  2  2  0  0  0
  2  3  1  0  0  0
  2 17  1  0  0  0
 17 18  1  0  0  0
 18 19  1  0  0  0
 19 20  2  0  0  0
 20 21  1  0  0  0
 20 22  1  0  0  0
 22 23  1  0  0  0
 23 24  1  0  0  0
 24 25  2  0  0  0
 25 26  1  0  0  0
 25 27  1  0  0  0
  6  7  2  0  0  0
  6  8  1  0  0  0
  6 10  1  0  0  0
 10 11  1  0  0  0
 11 12  2  0  0  0
 11 13  1  0  0  0
 11 14  1  0  0  0
  8  9  1  0  0  0
 13 15  1  0  0  0
 14 16  1  0  0  0
M  END
> <minimizedAffinity>
-7.90670

$$$$
5JA0_FPP_F_402


 27 26  0  0  0  0  0  0  0  0999 V2000
    2.5601   75.5876   29.4586 C   0  0  0  0  0  0  0  0  0  0  0  0
    2.8512   76.7958   28.9448 C   0  0  0  0  0  0  0  0  0  0  0  0
    4.2593   77.3067   28.8116 C   0  0  0  0  0  0  0  0  0  0  0  0
    3.6297   74.5811   29.8807 C   0  0  0  0  0  0  0  0  0  0  0  0
    2.9753   73.3043   29.6103 O   0  0  0  0  0  0  0  0  0  0  0  0
    3.3450   71.8993   30.2805 P   0  0  0  0  0  0  0  0  0  0  0  0
    4.8422   71.9635   30.3488 O   0  0  0  0  0  0  0  0  0  0  0  0
    2.5701   71.6296   31.5639 O   0  0  0  0  0  0  0  0  0  0  0  0
    2.8625   72.2458   32.2536 H   0  0  0  0  0  0  0  0  0  0  0  0
    3.0479   71.0032   28.9633 O   0  0  0  0  0  0  0  0  0  0  0  0
    4.0811   70.8154   27.7488 P   0  0  0  0  0  0  0  0  0  0  0  0
    3.2155   70.2795   26.6033 O   0  0  0  0  0  0  0  0  0  0  0  0
    5.0834   69.8482   28.2653 O   0  0  0  0  0  0  0  0  0  0  0  0
    4.4105   72.1972   27.3872 O   0  0  0  0  0  0  0  0  0  0  0  0
    4.6517   68.9971   28.4391 H   0  0  0  0  0  0  0  0  0  0  0  0
    3.6110   72.6492   27.0751 H   0  0  0  0  0  0  0  0  0  0  0  0
    1.7048   77.6939   28.5319 C   0  0  0  0  0  0  0  0  0  0  0  0
    0.6996   77.0018   27.6302 C   0  0  0  0  0  0  0  0  0  0  0  0
   -0.7438   77.4524   27.9303 C   0  0  0  0  0  0  0  0  0  0  0  0
   -1.7811   77.0711   27.1577 C   0  0  0  0  0  0  0  0  0  0  0  0
   -1.6460   76.1497   25.9623 C   0  0  0  0  0  0  0  0  0  0  0  0
   -3.1787   77.5514   27.5605 C   0  0  0  0  0  0  0  0  0  0  0  0
   -3.8687   78.4005   26.4952 C   0  0  0  0  0  0  0  0  0  0  0  0
   -3.6638   79.8606   26.7580 C   0  0  0  0  0  0  0  0  0  0  0  0
   -4.3449   80.6798   27.6019 C   0  0  0  0  0  0  0  0  0  0  0  0
   -5.5075   80.2998   28.4630 C   0  0  0  0  0  0  0  0  0  0  0  0
   -3.9175   82.1059   27.6842 C   0  0  0  0  0  0  0  0  0  0  0  0
  4  5  1  0  0  0
  4  1  1  0  0  0
  5  6  1  0  0  0
  1  2  2  0  0  0
  2  3  1  0  0  0
  2 17  1  0  0  0
 17 18  1  0  0  0
 18 19  1  0  0  0
 19 20  2  0  0  0
 20 21  1  0  0  0
 20 22  1  0  0  0
 22 23  1  0  0  0
 23 24  1  0  0  0
 24 25  2  0  0  0
 25 26  1  0  0  0
 25 27  1  0  0  0
  6  7  2  0  0  0
  6  8  1  0  0  0
  6 10  1  0  0  0
 10 11  1  0  0  0
 11 12  2  0  0  0
 11 13  1  0  0  0
 11 14  1  0  0  0
  8  9  1  0  0  0
 13 15  1  0  0  0
 14 16  1  0  0  0
M  END
> <minimizedAffinity>
-7.57659

$$$$
5JA0_FPP_F_402


 27 26  0  0  0  0  0  0  0  0999 V2000
    7.9548   73.4036   28.0011 C   0  0  0  0  0  0  0  0  0  0  0  0
    7.6059   72.3779   28.7979 C   0  0  0  0  0  0  0  0  0  0  0  0
    8.6109   71.4321   29.3952 C   0  0  0  0  0  0  0  0  0  0  0  0
    9.4074   73.7615   27.6900 C   0  0  0  0  0  0  0  0  0  0  0  0
    9.3869   73.8975   26.2366 O   0  0  0  0  0  0  0  0  0  0  0  0
   10.3551   74.8281   25.3668 P   0  0  0  0  0  0  0  0  0  0  0  0
   10.5419   76.0174   26.2620 O   0  0  0  0  0  0  0  0  0  0  0  0
   11.5926   74.0951   24.8651 O   0  0  0  0  0  0  0  0  0  0  0  0
   12.1680   73.8806   25.6159 H   0  0  0  0  0  0  0  0  0  0  0  0
    9.2233   75.3038   24.3093 O   0  0  0  0  0  0  0  0  0  0  0  0
    9.0791   74.7215   22.8200 P   0  0  0  0  0  0  0  0  0  0  0  0
   10.1661   75.4548   22.0267 O   0  0  0  0  0  0  0  0  0  0  0  0
    7.6901   75.0679   22.4230 O   0  0  0  0  0  0  0  0  0  0  0  0
    9.5526   73.3418   22.9645 O   0  0  0  0  0  0  0  0  0  0  0  0
    7.5946   76.0326   22.3889 H   0  0  0  0  0  0  0  0  0  0  0  0
   10.4857   73.3463   23.2295 H   0  0  0  0  0  0  0  0  0  0  0  0
    6.1337   72.1419   29.0590 C   0  0  0  0  0  0  0  0  0  0  0  0
    5.2293   72.9233   28.1242 C   0  0  0  0  0  0  0  0  0  0  0  0
    4.3010   73.8827   28.8951 C   0  0  0  0  0  0  0  0  0  0  0  0
    4.4069   75.2216   28.7750 C   0  0  0  0  0  0  0  0  0  0  0  0
    5.4020   75.9085   27.8615 C   0  0  0  0  0  0  0  0  0  0  0  0
    3.4164   76.0842   29.5629 C   0  0  0  0  0  0  0  0  0  0  0  0
    2.2084   76.5368   28.7457 C   0  0  0  0  0  0  0  0  0  0  0  0
    1.9441   77.9975   28.9440 C   0  0  0  0  0  0  0  0  0  0  0  0
    2.6115   79.0634   28.4287 C   0  0  0  0  0  0  0  0  0  0  0  0
    3.8156   79.0137   27.5426 C   0  0  0  0  0  0  0  0  0  0  0  0
    2.1212   80.4275   28.7782 C   0  0  0  0  0  0  0  0  0  0  0  0
  4  5  1  0  0  0
  4  1  1  0  0  0
  5  6  1  0  0  0
  1  2  2  0  0  0
  2  3  1  0  0  0
  2 17  1  0  0  0
 17 18  1  0  0  0
 18 19  1  0  0  0
 19 20  2  0  0  0
 20 21  1  0  0  0
 20 22  1  0  0  0
 22 23  1  0  0  0
 23 24  1  0  0  0
 24 25  2  0  0  0
 25 26  1  0  0  0
 25 27  1  0  0  0
  6  7  2  0  0  0
  6  8  1  0  0  0
  6 10  1  0  0  0
 10 11  1  0  0  0
 11 12  2  0  0  0
 11 13  1  0  0  0
 11 14  1  0  0  0
  8  9  1  0  0  0
 13 15  1  0  0  0
 14 16  1  0  0  0
M  END
> <minimizedAffinity>
-7.49654

$$$$
5JA0_FPP_F_402


 27 26  0  0  0  0  0  0  0  0999 V2000
    1.2797   76.8770   28.2257 C   0  0  0  0  0  0  0  0  0  0  0  0
    2.5393   76.8779   28.6969 C   0  0  0  0  0  0  0  0  0  0  0  0
    3.4924   78.0192   28.4719 C   0  0  0  0  0  0  0  0  0  0  0  0
    0.6641   78.0656   27.4884 C   0  0  0  0  0  0  0  0  0  0  0  0
   -0.7252   77.6453   27.3320 O   0  0  0  0  0  0  0  0  0  0  0  0
   -1.4203   77.1903   25.9647 P   0  0  0  0  0  0  0  0  0  0  0  0
   -1.1474   78.3591   25.0647 O   0  0  0  0  0  0  0  0  0  0  0  0
   -0.9842   75.8042   25.5077 O   0  0  0  0  0  0  0  0  0  0  0  0
   -0.0519   75.8300   25.2412 H   0  0  0  0  0  0  0  0  0  0  0  0
   -2.9434   77.4250   26.4658 O   0  0  0  0  0  0  0  0  0  0  0  0
   -3.3868   78.5747   27.4951 P   0  0  0  0  0  0  0  0  0  0  0  0
   -4.9021   78.6881   27.2962 O   0  0  0  0  0  0  0  0  0  0  0  0
   -2.6197   79.7711   27.0624 O   0  0  0  0  0  0  0  0  0  0  0  0
   -3.2025   77.9308   28.7989 O   0  0  0  0  0  0  0  0  0  0  0  0
   -2.8995   80.0293   26.1702 H   0  0  0  0  0  0  0  0  0  0  0  0
   -3.8017   77.1716   28.8722 H   0  0  0  0  0  0  0  0  0  0  0  0
    3.0268   75.6533   29.4410 C   0  0  0  0  0  0  0  0  0  0  0  0
    3.0718   74.4078   28.5755 C   0  0  0  0  0  0  0  0  0  0  0  0
    4.2897   73.5232   28.9081 C   0  0  0  0  0  0  0  0  0  0  0  0
    5.4617   73.6548   28.2544 C   0  0  0  0  0  0  0  0  0  0  0  0
    5.7115   74.6879   27.1743 C   0  0  0  0  0  0  0  0  0  0  0  0
    6.6176   72.7455   28.6824 C   0  0  0  0  0  0  0  0  0  0  0  0
    6.1654   71.4307   29.3138 C   0  0  0  0  0  0  0  0  0  0  0  0
    6.7947   71.2379   30.6590 C   0  0  0  0  0  0  0  0  0  0  0  0
    6.2366   71.3770   31.8904 C   0  0  0  0  0  0  0  0  0  0  0  0
    4.8314   71.7951   32.1866 C   0  0  0  0  0  0  0  0  0  0  0  0
    7.0947   71.1041   33.0789 C   0  0  0  0  0  0  0  0  0  0  0  0
  4  5  1  0  0  0
  4  1  1  0  0  0
  5  6  1  0  0  0
  1  2  2  0  0  0
  2  3  1  0  0  0
  2 17  1  0  0  0
 17 18  1  0  0  0
 18 19  1  0  0  0
 19 20  2  0  0  0
 20 21  1  0  0  0
 20 22  1  0  0  0
 22 23  1  0  0  0
 23 24  1  0  0  0
 24 25  2  0  0  0
 25 26  1  0  0  0
 25 27  1  0  0  0
  6  7  2  0  0  0
  6  8  1  0  0  0
  6 10  1  0  0  0
 10 11  1  0  0  0
 11 12  2  0  0  0
 11 13  1  0  0  0
 11 14  1  0  0  0
  8  9  1  0  0  0
 13 15  1  0  0  0
 14 16  1  0  0  0
M  END
> <minimizedAffinity>
-7.42468

$$$$
