3DX1_YHO_A_1050


 14 14  0  0  0  0  0  0  0  0999 V2000
   33.4323   65.8945    7.4786 O   0  0  0  0  0  0  0  0  0  0  0  0
   32.4612   66.8042    8.0587 C   0  0  0  0  0  0  0  0  0  0  0  0
   31.8426   66.1935    9.3298 C   0  0  0  0  0  0  0  0  0  0  0  0
   32.6742   65.1506    9.8726 O   0  0  0  0  0  0  0  0  0  0  0  0
   30.4525   65.6494    8.9068 C   0  0  0  0  0  0  0  0  0  0  0  0
   30.3245   64.2659    9.3889 N   0  0  0  0  0  0  0  0  0  0  0  0
   30.4331   65.7455    7.3819 C   0  0  0  0  0  0  0  0  0  0  0  0
   31.2218   67.0407    7.1802 C   0  0  0  0  0  0  0  0  0  0  0  0
   31.5625   67.2830    5.8175 O   0  0  0  0  0  0  0  0  0  0  0  0
   33.8121   66.2933    6.6801 H   0  0  0  0  0  0  0  0  0  0  0  0
   32.7928   64.4533    9.2089 H   0  0  0  0  0  0  0  0  0  0  0  0
   31.0926   63.7050    9.0204 H   0  0  0  0  0  0  0  0  0  0  0  0
   29.4366   63.8763    9.0723 H   0  0  0  0  0  0  0  0  0  0  0  0
   32.0784   66.5361    5.4755 H   0  0  0  0  0  0  0  0  0  0  0  0
  1  2  1  0  0  0
  8  2  1  0  0  0
  2  3  1  0  0  0
  5  3  1  0  0  0
  3  4  1  0  0  0
  7  5  1  0  0  0
  5  6  1  0  0  0
  8  7  1  0  0  0
  9  8  1  0  0  0
  1 10  1  0  0  0
  4 11  1  0  0  0
  6 12  1  0  0  0
  6 13  1  0  0  0
  9 14  1  0  0  0
M  END
> <minimizedAffinity>
-7.71795

$$$$
3DX1_YHO_A_1050


 14 14  0  0  0  0  0  0  0  0999 V2000
   30.4273   64.9593    6.5802 O   0  0  0  0  0  0  0  0  0  0  0  0
   30.4458   66.2872    7.1663 C   0  0  0  0  0  0  0  0  0  0  0  0
   31.8569   66.6310    7.6781 C   0  0  0  0  0  0  0  0  0  0  0  0
   32.8597   65.8070    7.0543 O   0  0  0  0  0  0  0  0  0  0  0  0
   31.8169   66.4128    9.2137 C   0  0  0  0  0  0  0  0  0  0  0  0
   32.9684   65.5832    9.5990 N   0  0  0  0  0  0  0  0  0  0  0  0
   30.4793   65.7255    9.4848 C   0  0  0  0  0  0  0  0  0  0  0  0
   29.5998   66.4199    8.4433 C   0  0  0  0  0  0  0  0  0  0  0  0
   28.3143   65.8199    8.3057 O   0  0  0  0  0  0  0  0  0  0  0  0
   29.5330   64.7582    6.2632 H   0  0  0  0  0  0  0  0  0  0  0  0
   32.6719   64.8734    7.2393 H   0  0  0  0  0  0  0  0  0  0  0  0
   32.9449   64.7061    9.0788 H   0  0  0  0  0  0  0  0  0  0  0  0
   32.9264   65.3865   10.5990 H   0  0  0  0  0  0  0  0  0  0  0  0
   28.4174   64.8853    8.0674 H   0  0  0  0  0  0  0  0  0  0  0  0
  1  2  1  0  0  0
  8  2  1  0  0  0
  2  3  1  0  0  0
  5  3  1  0  0  0
  3  4  1  0  0  0
  7  5  1  0  0  0
  5  6  1  0  0  0
  8  7  1  0  0  0
  9  8  1  0  0  0
  1 10  1  0  0  0
  4 11  1  0  0  0
  6 12  1  0  0  0
  6 13  1  0  0  0
  9 14  1  0  0  0
M  END
> <minimizedAffinity>
-6.77160

$$$$
3DX1_YHO_A_1050


 14 14  0  0  0  0  0  0  0  0999 V2000
   31.4641   64.9140    9.5040 O   0  0  0  0  0  0  0  0  0  0  0  0
   31.3102   66.3159    9.1606 C   0  0  0  0  0  0  0  0  0  0  0  0
   29.8701   66.6022    8.6961 C   0  0  0  0  0  0  0  0  0  0  0  0
   28.9573   65.5850    9.1499 O   0  0  0  0  0  0  0  0  0  0  0  0
   29.9276   66.6638    7.1469 C   0  0  0  0  0  0  0  0  0  0  0  0
   28.8645   65.8046    6.6042 N   0  0  0  0  0  0  0  0  0  0  0  0
   31.3269   66.1723    6.7792 C   0  0  0  0  0  0  0  0  0  0  0  0
   32.1348   66.7559    7.9398 C   0  0  0  0  0  0  0  0  0  0  0  0
   33.4747   66.2725    7.9890 O   0  0  0  0  0  0  0  0  0  0  0  0
   32.3752   64.7503    9.7941 H   0  0  0  0  0  0  0  0  0  0  0  0
   29.2378   64.7223    8.8063 H   0  0  0  0  0  0  0  0  0  0  0  0
   28.9779   64.8562    6.9622 H   0  0  0  0  0  0  0  0  0  0  0  0
   28.9234   65.7929    5.5860 H   0  0  0  0  0  0  0  0  0  0  0  0
   33.4670   65.3049    8.0574 H   0  0  0  0  0  0  0  0  0  0  0  0
  1  2  1  0  0  0
  8  2  1  0  0  0
  2  3  1  0  0  0
  5  3  1  0  0  0
  3  4  1  0  0  0
  7  5  1  0  0  0
  5  6  1  0  0  0
  8  7  1  0  0  0
  9  8  1  0  0  0
  1 10  1  0  0  0
  4 11  1  0  0  0
  6 12  1  0  0  0
  6 13  1  0  0  0
  9 14  1  0  0  0
M  END
> <minimizedAffinity>
-6.51094

$$$$
3DX1_YHO_A_1050


 14 14  0  0  0  0  0  0  0  0999 V2000
   29.9416   64.2933    9.0377 O   0  0  0  0  0  0  0  0  0  0  0  0
   29.7467   65.6774    8.6457 C   0  0  0  0  0  0  0  0  0  0  0  0
   30.4486   65.9619    7.3049 C   0  0  0  0  0  0  0  0  0  0  0  0
   30.6974   64.7478    6.5716 O   0  0  0  0  0  0  0  0  0  0  0  0
   31.7710   66.6900    7.6636 C   0  0  0  0  0  0  0  0  0  0  0  0
   32.8771   66.0279    6.9559 N   0  0  0  0  0  0  0  0  0  0  0  0
   31.8911   66.5748    9.1825 C   0  0  0  0  0  0  0  0  0  0  0  0
   30.4194   66.6942    9.5825 C   0  0  0  0  0  0  0  0  0  0  0  0
   30.1866   66.3999   10.9575 O   0  0  0  0  0  0  0  0  0  0  0  0
   29.4941   64.1305    9.8828 H   0  0  0  0  0  0  0  0  0  0  0  0
   31.2531   64.1568    7.1035 H   0  0  0  0  0  0  0  0  0  0  0  0
   32.8958   65.0387    7.2041 H   0  0  0  0  0  0  0  0  0  0  0  0
   33.7604   66.4623    7.2235 H   0  0  0  0  0  0  0  0  0  0  0  0
   30.5012   65.5037   11.1541 H   0  0  0  0  0  0  0  0  0  0  0  0
  1  2  1  0  0  0
  8  2  1  0  0  0
  2  3  1  0  0  0
  5  3  1  0  0  0
  3  4  1  0  0  0
  7  5  1  0  0  0
  5  6  1  0  0  0
  8  7  1  0  0  0
  9  8  1  0  0  0
  1 10  1  0  0  0
  4 11  1  0  0  0
  6 12  1  0  0  0
  6 13  1  0  0  0
  9 14  1  0  0  0
M  END
> <minimizedAffinity>
-6.00839

$$$$
3DX1_YHO_A_1050


 14 14  0  0  0  0  0  0  0  0999 V2000
   31.6084   67.7057    6.3956 O   0  0  0  0  0  0  0  0  0  0  0  0
   31.3388   66.3239    6.7492 C   0  0  0  0  0  0  0  0  0  0  0  0
   29.8897   66.1675    7.2465 C   0  0  0  0  0  0  0  0  0  0  0  0
   29.0606   67.2601    6.8076 O   0  0  0  0  0  0  0  0  0  0  0  0
   29.9759   66.1059    8.7944 C   0  0  0  0  0  0  0  0  0  0  0  0
   29.0052   67.0575    9.3558 N   0  0  0  0  0  0  0  0  0  0  0  0
   31.4210   66.4729    9.1290 C   0  0  0  0  0  0  0  0  0  0  0  0
   32.1482   65.8165    7.9540 C   0  0  0  0  0  0  0  0  0  0  0  0
   33.5242   66.1794    7.8731 O   0  0  0  0  0  0  0  0  0  0  0  0
   32.5236   67.7873    6.0848 H   0  0  0  0  0  0  0  0  0  0  0  0
   29.4237   68.0957    7.1406 H   0  0  0  0  0  0  0  0  0  0  0  0
   29.1940   67.9910    8.9906 H   0  0  0  0  0  0  0  0  0  0  0  0
   29.0875   67.0670   10.3725 H   0  0  0  0  0  0  0  0  0  0  0  0
   33.6005   67.1436    7.8000 H   0  0  0  0  0  0  0  0  0  0  0  0
  1  2  1  0  0  0
  8  2  1  0  0  0
  2  3  1  0  0  0
  5  3  1  0  0  0
  3  4  1  0  0  0
  7  5  1  0  0  0
  5  6  1  0  0  0
  8  7  1  0  0  0
  9  8  1  0  0  0
  1 10  1  0  0  0
  4 11  1  0  0  0
  6 12  1  0  0  0
  6 13  1  0  0  0
  9 14  1  0  0  0
M  END
> <minimizedAffinity>
-5.75223

$$$$
3DX1_YHO_A_1050


 14 14  0  0  0  0  0  0  0  0999 V2000
   29.7246   63.8491    9.4838 O   0  0  0  0  0  0  0  0  0  0  0  0
   29.8595   65.2231    9.9324 C   0  0  0  0  0  0  0  0  0  0  0  0
   28.8196   66.1216    9.2377 C   0  0  0  0  0  0  0  0  0  0  0  0
   27.7207   65.3507    8.7161 O   0  0  0  0  0  0  0  0  0  0  0  0
   29.5833   66.8594    8.1065 C   0  0  0  0  0  0  0  0  0  0  0  0
   28.8195   66.7203    6.8575 N   0  0  0  0  0  0  0  0  0  0  0  0
   30.9507   66.1807    8.0391 C   0  0  0  0  0  0  0  0  0  0  0  0
   31.1836   65.8885    9.5226 C   0  0  0  0  0  0  0  0  0  0  0  0
   32.3086   65.0454    9.7579 O   0  0  0  0  0  0  0  0  0  0  0  0
   30.3856   63.2969    9.9299 H   0  0  0  0  0  0  0  0  0  0  0  0
   28.0557   64.6997    8.0798 H   0  0  0  0  0  0  0  0  0  0  0  0
   28.6790   65.7308    6.6534 H   0  0  0  0  0  0  0  0  0  0  0  0
   29.3360   67.1551    6.0929 H   0  0  0  0  0  0  0  0  0  0  0  0
   32.1916   64.2093    9.2802 H   0  0  0  0  0  0  0  0  0  0  0  0
  1  2  1  0  0  0
  8  2  1  0  0  0
  2  3  1  0  0  0
  5  3  1  0  0  0
  3  4  1  0  0  0
  7  5  1  0  0  0
  5  6  1  0  0  0
  8  7  1  0  0  0
  9  8  1  0  0  0
  1 10  1  0  0  0
  4 11  1  0  0  0
  6 12  1  0  0  0
  6 13  1  0  0  0
  9 14  1  0  0  0
M  END
> <minimizedAffinity>
-5.68676

$$$$
3DX1_YHO_A_1050


 14 14  0  0  0  0  0  0  0  0999 V2000
   30.6938   65.0114    7.2696 O   0  0  0  0  0  0  0  0  0  0  0  0
   30.6486   66.2769    7.9792 C   0  0  0  0  0  0  0  0  0  0  0  0
   31.0168   66.0775    9.4611 C   0  0  0  0  0  0  0  0  0  0  0  0
   31.7436   64.8509    9.6637 O   0  0  0  0  0  0  0  0  0  0  0  0
   29.6729   66.0762   10.2365 C   0  0  0  0  0  0  0  0  0  0  0  0
   29.6446   64.9030   11.1228 N   0  0  0  0  0  0  0  0  0  0  0  0
   28.5902   66.0265    9.1593 C   0  0  0  0  0  0  0  0  0  0  0  0
   29.2419   66.8898    8.0775 C   0  0  0  0  0  0  0  0  0  0  0  0
   28.5461   66.8501    6.8342 O   0  0  0  0  0  0  0  0  0  0  0  0
   30.4598   65.1539    6.3391 H   0  0  0  0  0  0  0  0  0  0  0  0
   31.2038   64.1022    9.3656 H   0  0  0  0  0  0  0  0  0  0  0  0
   29.7779   64.0561   10.5701 H   0  0  0  0  0  0  0  0  0  0  0  0
   28.7443   64.8592   11.6003 H   0  0  0  0  0  0  0  0  0  0  0  0
   28.4913   65.9329    6.5235 H   0  0  0  0  0  0  0  0  0  0  0  0
  1  2  1  0  0  0
  8  2  1  0  0  0
  2  3  1  0  0  0
  5  3  1  0  0  0
  3  4  1  0  0  0
  7  5  1  0  0  0
  5  6  1  0  0  0
  8  7  1  0  0  0
  9  8  1  0  0  0
  1 10  1  0  0  0
  4 11  1  0  0  0
  6 12  1  0  0  0
  6 13  1  0  0  0
  9 14  1  0  0  0
M  END
> <minimizedAffinity>
-5.41505

$$$$
3DX1_YHO_A_1050


 14 14  0  0  0  0  0  0  0  0999 V2000
   29.6053   67.3387    7.9739 O   0  0  0  0  0  0  0  0  0  0  0  0
   30.2988   66.0812    7.7617 C   0  0  0  0  0  0  0  0  0  0  0  0
   30.8778   65.5544    9.0879 C   0  0  0  0  0  0  0  0  0  0  0  0
   30.2177   66.1450   10.2233 O   0  0  0  0  0  0  0  0  0  0  0  0
   32.3885   65.9073    9.0621 C   0  0  0  0  0  0  0  0  0  0  0  0
   32.7375   66.5655   10.3301 N   0  0  0  0  0  0  0  0  0  0  0  0
   32.5634   66.8266    7.8541 C   0  0  0  0  0  0  0  0  0  0  0  0
   31.5574   66.2002    6.8866 C   0  0  0  0  0  0  0  0  0  0  0  0
   31.3338   66.9900    5.7214 O   0  0  0  0  0  0  0  0  0  0  0  0
   29.2470   67.6567    7.1305 H   0  0  0  0  0  0  0  0  0  0  0  0
   30.3198   67.1091   10.1913 H   0  0  0  0  0  0  0  0  0  0  0  0
   32.1464   67.3864   10.4610 H   0  0  0  0  0  0  0  0  0  0  0  0
   33.7163   66.8515   10.3065 H   0  0  0  0  0  0  0  0  0  0  0  0
   31.0226   67.8708    5.9827 H   0  0  0  0  0  0  0  0  0  0  0  0
  1  2  1  0  0  0
  8  2  1  0  0  0
  2  3  1  0  0  0
  5  3  1  0  0  0
  3  4  1  0  0  0
  7  5  1  0  0  0
  5  6  1  0  0  0
  8  7  1  0  0  0
  9  8  1  0  0  0
  1 10  1  0  0  0
  4 11  1  0  0  0
  6 12  1  0  0  0
  6 13  1  0  0  0
  9 14  1  0  0  0
M  END
> <minimizedAffinity>
-5.04903

$$$$
3DX1_YHO_A_1050


 14 14  0  0  0  0  0  0  0  0999 V2000
   31.9622   66.4830    9.8341 O   0  0  0  0  0  0  0  0  0  0  0  0
   31.3022   65.4255    9.0903 C   0  0  0  0  0  0  0  0  0  0  0  0
   30.9611   65.9003    7.6656 C   0  0  0  0  0  0  0  0  0  0  0  0
   31.7621   67.0337    7.2813 O   0  0  0  0  0  0  0  0  0  0  0  0
   29.4503   66.2530    7.6855 C   0  0  0  0  0  0  0  0  0  0  0  0
   29.2731   67.5877    7.0939 N   0  0  0  0  0  0  0  0  0  0  0  0
   29.0479   66.2039    9.1588 C   0  0  0  0  0  0  0  0  0  0  0  0
   29.9187   65.0421    9.6408 C   0  0  0  0  0  0  0  0  0  0  0  0
   29.9222   64.8949   11.0585 O   0  0  0  0  0  0  0  0  0  0  0  0
   32.1700   66.1685   10.7278 H   0  0  0  0  0  0  0  0  0  0  0  0
   31.6124   67.7616    7.9046 H   0  0  0  0  0  0  0  0  0  0  0  0
   29.8392   68.2643    7.6058 H   0  0  0  0  0  0  0  0  0  0  0  0
   28.2905   67.8560    7.1485 H   0  0  0  0  0  0  0  0  0  0  0  0
   30.2297   65.7185   11.4684 H   0  0  0  0  0  0  0  0  0  0  0  0
  1  2  1  0  0  0
  8  2  1  0  0  0
  2  3  1  0  0  0
  5  3  1  0  0  0
  3  4  1  0  0  0
  7  5  1  0  0  0
  5  6  1  0  0  0
  8  7  1  0  0  0
  9  8  1  0  0  0
  1 10  1  0  0  0
  4 11  1  0  0  0
  6 12  1  0  0  0
  6 13  1  0  0  0
  9 14  1  0  0  0
M  END
> <minimizedAffinity>
-4.73067

$$$$
