6GNM_27M_B_201


 22 23  0  0  0  0  0  0  0  0999 V2000
  -14.4850   -2.6497  -39.4647 C   0  0  0  0  0  0  0  0  0  0  0  0
  -14.2447   -2.5920  -40.6565 O   0  0  0  0  0  0  0  0  0  0  0  0
  -12.1867   -0.9828  -39.8481 O   0  0  0  0  0  0  0  0  0  0  0  0
  -12.2525   -1.7204  -38.7072 C   0  0  0  0  0  0  0  0  0  0  0  0
  -11.2203   -1.6387  -37.7805 C   0  0  0  0  0  0  0  0  0  0  0  0
  -11.2718   -2.3933  -36.6167 C   0  0  0  0  0  0  0  0  0  0  0  0
  -10.2292   -2.3205  -35.6759 O   0  0  0  0  0  0  0  0  0  0  0  0
  -12.3592   -3.2175  -36.3765 C   0  0  0  0  0  0  0  0  0  0  0  0
  -13.3900   -3.2930  -37.3011 C   0  0  0  0  0  0  0  0  0  0  0  0
  -13.3438   -2.5495  -38.4731 C   0  0  0  0  0  0  0  0  0  0  0  0
  -11.4501   -0.4248  -40.0035 H   0  0  0  0  0  0  0  0  0  0  0  0
   -9.4924   -1.7641  -35.8353 H   0  0  0  0  0  0  0  0  0  0  0  0
  -15.9209   -2.8074  -39.0011 C   0  0  0  0  0  0  0  0  0  0  0  0
  -16.5829   -1.7634  -38.3714 C   0  0  0  0  0  0  0  0  0  0  0  0
  -17.8965   -1.9086  -37.9529 C   0  0  0  0  0  0  0  0  0  0  0  0
  -18.5600   -3.1060  -38.1635 C   0  0  0  0  0  0  0  0  0  0  0  0
  -19.8925   -3.2604  -37.7391 O   0  0  0  0  0  0  0  0  0  0  0  0
  -17.9058   -4.1538  -38.7921 C   0  0  0  0  0  0  0  0  0  0  0  0
  -16.5910   -4.0058  -39.2094 C   0  0  0  0  0  0  0  0  0  0  0  0
  -15.9555   -5.0410  -39.8288 O   0  0  0  0  0  0  0  0  0  0  0  0
  -20.3340   -2.5516  -37.3142 H   0  0  0  0  0  0  0  0  0  0  0  0
  -15.0675   -4.9437  -40.1116 H   0  0  0  0  0  0  0  0  0  0  0  0
  7  6  1  0  0  0
  5  6  2  0  0  0
  5  4  1  0  0  0
  6  8  1  0  0  0
  3  4  1  0  0  0
  4 10  2  0  0  0
  8  9  2  0  0  0
 10  9  1  0  0  0
 10  1  1  0  0  0
  2  1  2  0  0  0
  1 13  1  0  0  0
 13 14  2  0  0  0
 13 19  1  0  0  0
 20 19  1  0  0  0
 14 15  1  0  0  0
 19 18  2  0  0  0
 15 16  2  0  0  0
 18 16  1  0  0  0
 16 17  1  0  0  0
  3 11  1  0  0  0
  7 12  1  0  0  0
 17 21  1  0  0  0
 20 22  1  0  0  0
M  END
> <minimizedAffinity>
-7.52418

$$$$
6GNM_27M_B_201


 22 23  0  0  0  0  0  0  0  0999 V2000
  -14.3941   -2.6436  -39.4317 C   0  0  0  0  0  0  0  0  0  0  0  0
  -14.1366   -2.6058  -40.6208 O   0  0  0  0  0  0  0  0  0  0  0  0
  -15.9249   -5.0329  -39.8260 O   0  0  0  0  0  0  0  0  0  0  0  0
  -16.5308   -3.9865  -39.2030 C   0  0  0  0  0  0  0  0  0  0  0  0
  -17.8495   -4.1120  -38.7835 C   0  0  0  0  0  0  0  0  0  0  0  0
  -18.4814   -3.0481  -38.1547 C   0  0  0  0  0  0  0  0  0  0  0  0
  -19.8173   -3.1648  -37.7313 O   0  0  0  0  0  0  0  0  0  0  0  0
  -17.7909   -1.8671  -37.9361 C   0  0  0  0  0  0  0  0  0  0  0  0
  -16.4733   -1.7468  -38.3517 C   0  0  0  0  0  0  0  0  0  0  0  0
  -15.8348   -2.8019  -38.9903 C   0  0  0  0  0  0  0  0  0  0  0  0
  -16.3962   -5.8302  -39.9681 H   0  0  0  0  0  0  0  0  0  0  0  0
  -20.2872   -3.9621  -37.8776 H   0  0  0  0  0  0  0  0  0  0  0  0
  -13.2663   -2.5444  -38.4219 C   0  0  0  0  0  0  0  0  0  0  0  0
  -13.2875   -3.2975  -37.2568 C   0  0  0  0  0  0  0  0  0  0  0  0
  -12.2534   -3.2084  -36.3379 C   0  0  0  0  0  0  0  0  0  0  0  0
  -11.1850   -2.3609  -36.5805 C   0  0  0  0  0  0  0  0  0  0  0  0
  -10.1336   -2.2643  -35.6507 O   0  0  0  0  0  0  0  0  0  0  0  0
  -11.1561   -1.6054  -37.7421 C   0  0  0  0  0  0  0  0  0  0  0  0
  -12.1928   -1.6962  -38.6597 C   0  0  0  0  0  0  0  0  0  0  0  0
  -12.1555   -0.9509  -39.8009 O   0  0  0  0  0  0  0  0  0  0  0  0
  -10.1539   -2.7755  -34.8657 H   0  0  0  0  0  0  0  0  0  0  0  0
  -12.8542   -1.0102  -40.4223 H   0  0  0  0  0  0  0  0  0  0  0  0
  7  6  1  0  0  0
  5  6  2  0  0  0
  5  4  1  0  0  0
  6  8  1  0  0  0
  3  4  1  0  0  0
  4 10  2  0  0  0
  8  9  2  0  0  0
 10  9  1  0  0  0
 10  1  1  0  0  0
  2  1  2  0  0  0
  1 13  1  0  0  0
 13 14  2  0  0  0
 13 19  1  0  0  0
 20 19  1  0  0  0
 14 15  1  0  0  0
 19 18  2  0  0  0
 15 16  2  0  0  0
 18 16  1  0  0  0
 16 17  1  0  0  0
  3 11  1  0  0  0
  7 12  1  0  0  0
 17 21  1  0  0  0
 20 22  1  0  0  0
M  END
> <minimizedAffinity>
-7.51538

$$$$
6GNM_27M_B_201


 22 23  0  0  0  0  0  0  0  0999 V2000
  -14.2860   -3.3141  -37.9014 C   0  0  0  0  0  0  0  0  0  0  0  0
  -14.0542   -3.2613  -36.7077 O   0  0  0  0  0  0  0  0  0  0  0  0
  -11.7897   -4.6839  -37.5856 O   0  0  0  0  0  0  0  0  0  0  0  0
  -11.9479   -3.8984  -38.6847 C   0  0  0  0  0  0  0  0  0  0  0  0
  -10.9107   -3.7916  -39.6031 C   0  0  0  0  0  0  0  0  0  0  0  0
  -11.0570   -2.9860  -40.7239 C   0  0  0  0  0  0  0  0  0  0  0  0
  -10.0105   -2.8684  -41.6558 O   0  0  0  0  0  0  0  0  0  0  0  0
  -12.2425   -2.2995  -40.9301 C   0  0  0  0  0  0  0  0  0  0  0  0
  -13.2776   -2.4120  -40.0141 C   0  0  0  0  0  0  0  0  0  0  0  0
  -13.1380   -3.2078  -38.8845 C   0  0  0  0  0  0  0  0  0  0  0  0
  -10.9866   -5.1482  -37.4533 H   0  0  0  0  0  0  0  0  0  0  0  0
   -9.2074   -3.3314  -41.5194 H   0  0  0  0  0  0  0  0  0  0  0  0
  -15.7155   -3.4979  -38.3752 C   0  0  0  0  0  0  0  0  0  0  0  0
  -16.1030   -4.6573  -39.0314 C   0  0  0  0  0  0  0  0  0  0  0  0
  -17.4110   -4.8246  -39.4592 C   0  0  0  0  0  0  0  0  0  0  0  0
  -18.3450   -3.8276  -39.2314 C   0  0  0  0  0  0  0  0  0  0  0  0
  -19.6734   -3.9904  -39.6651 O   0  0  0  0  0  0  0  0  0  0  0  0
  -17.9660   -2.6664  -38.5764 C   0  0  0  0  0  0  0  0  0  0  0  0
  -16.6561   -2.5015  -38.1498 C   0  0  0  0  0  0  0  0  0  0  0  0
  -16.2921   -1.3569  -37.5044 O   0  0  0  0  0  0  0  0  0  0  0  0
  -19.9288   -4.7757  -40.1079 H   0  0  0  0  0  0  0  0  0  0  0  0
  -15.4082   -1.2429  -37.2153 H   0  0  0  0  0  0  0  0  0  0  0  0
  7  6  1  0  0  0
  5  6  2  0  0  0
  5  4  1  0  0  0
  6  8  1  0  0  0
  3  4  1  0  0  0
  4 10  2  0  0  0
  8  9  2  0  0  0
 10  9  1  0  0  0
 10  1  1  0  0  0
  2  1  2  0  0  0
  1 13  1  0  0  0
 13 14  2  0  0  0
 13 19  1  0  0  0
 20 19  1  0  0  0
 14 15  1  0  0  0
 19 18  2  0  0  0
 15 16  2  0  0  0
 18 16  1  0  0  0
 16 17  1  0  0  0
  3 11  1  0  0  0
  7 12  1  0  0  0
 17 21  1  0  0  0
 20 22  1  0  0  0
M  END
> <minimizedAffinity>
-7.46540

$$$$
6GNM_27M_B_201


 22 23  0  0  0  0  0  0  0  0999 V2000
  -14.3091   -3.3146  -37.9015 C   0  0  0  0  0  0  0  0  0  0  0  0
  -14.0695   -3.2685  -36.7091 O   0  0  0  0  0  0  0  0  0  0  0  0
  -16.3277   -1.3115  -37.5539 O   0  0  0  0  0  0  0  0  0  0  0  0
  -16.6827   -2.4696  -38.1729 C   0  0  0  0  0  0  0  0  0  0  0  0
  -17.9907   -2.6368  -38.6109 C   0  0  0  0  0  0  0  0  0  0  0  0
  -18.3672   -3.8177  -39.2358 C   0  0  0  0  0  0  0  0  0  0  0  0
  -19.6900   -3.9973  -39.6777 O   0  0  0  0  0  0  0  0  0  0  0  0
  -17.4336   -4.8223  -39.4322 C   0  0  0  0  0  0  0  0  0  0  0  0
  -16.1278   -4.6502  -38.9983 C   0  0  0  0  0  0  0  0  0  0  0  0
  -15.7430   -3.4765  -38.3633 C   0  0  0  0  0  0  0  0  0  0  0  0
  -16.9629   -0.6345  -37.4268 H   0  0  0  0  0  0  0  0  0  0  0  0
  -20.3238   -3.3198  -39.5465 H   0  0  0  0  0  0  0  0  0  0  0  0
  -13.1692   -3.1960  -38.8955 C   0  0  0  0  0  0  0  0  0  0  0  0
  -13.2963   -2.4103  -40.0320 C   0  0  0  0  0  0  0  0  0  0  0  0
  -12.2514   -2.3000  -40.9363 C   0  0  0  0  0  0  0  0  0  0  0  0
  -11.0657   -2.9784  -40.7077 C   0  0  0  0  0  0  0  0  0  0  0  0
  -10.0024   -2.8723  -41.6228 O   0  0  0  0  0  0  0  0  0  0  0  0
  -10.9306   -3.7652  -39.5747 C   0  0  0  0  0  0  0  0  0  0  0  0
  -11.9782   -3.8741  -38.6716 C   0  0  0  0  0  0  0  0  0  0  0  0
  -11.8362   -4.6487  -37.5585 O   0  0  0  0  0  0  0  0  0  0  0  0
  -10.0946   -2.3402  -42.3886 H   0  0  0  0  0  0  0  0  0  0  0  0
  -12.5421   -4.7241  -36.9470 H   0  0  0  0  0  0  0  0  0  0  0  0
  7  6  1  0  0  0
  5  6  2  0  0  0
  5  4  1  0  0  0
  6  8  1  0  0  0
  3  4  1  0  0  0
  4 10  2  0  0  0
  8  9  2  0  0  0
 10  9  1  0  0  0
 10  1  1  0  0  0
  2  1  2  0  0  0
  1 13  1  0  0  0
 13 14  2  0  0  0
 13 19  1  0  0  0
 20 19  1  0  0  0
 14 15  1  0  0  0
 19 18  2  0  0  0
 15 16  2  0  0  0
 18 16  1  0  0  0
 16 17  1  0  0  0
  3 11  1  0  0  0
  7 12  1  0  0  0
 17 21  1  0  0  0
 20 22  1  0  0  0
M  END
> <minimizedAffinity>
-7.45736

$$$$
6GNM_27M_B_201


 22 23  0  0  0  0  0  0  0  0999 V2000
  -16.1168   -3.0164  -37.7973 C   0  0  0  0  0  0  0  0  0  0  0  0
  -16.6072   -2.1381  -37.1120 O   0  0  0  0  0  0  0  0  0  0  0  0
  -18.7061   -2.3278  -38.8119 O   0  0  0  0  0  0  0  0  0  0  0  0
  -18.2744   -3.6056  -38.9887 C   0  0  0  0  0  0  0  0  0  0  0  0
  -19.0902   -4.5172  -39.6474 C   0  0  0  0  0  0  0  0  0  0  0  0
  -18.6645   -5.8262  -39.8260 C   0  0  0  0  0  0  0  0  0  0  0  0
  -19.4858   -6.7566  -40.4871 O   0  0  0  0  0  0  0  0  0  0  0  0
  -17.4209   -6.2172  -39.3569 C   0  0  0  0  0  0  0  0  0  0  0  0
  -16.6070   -5.3036  -38.7042 C   0  0  0  0  0  0  0  0  0  0  0  0
  -17.0274   -3.9940  -38.5119 C   0  0  0  0  0  0  0  0  0  0  0  0
  -19.5468   -2.0685  -39.1341 H   0  0  0  0  0  0  0  0  0  0  0  0
  -20.3275   -6.4954  -40.8056 H   0  0  0  0  0  0  0  0  0  0  0  0
  -14.6080   -3.1030  -37.9296 C   0  0  0  0  0  0  0  0  0  0  0  0
  -13.9714   -2.6860  -39.0896 C   0  0  0  0  0  0  0  0  0  0  0  0
  -12.5921   -2.7620  -39.2061 C   0  0  0  0  0  0  0  0  0  0  0  0
  -11.8366   -3.2579  -38.1565 C   0  0  0  0  0  0  0  0  0  0  0  0
  -10.4366   -3.3396  -38.2694 O   0  0  0  0  0  0  0  0  0  0  0  0
  -12.4649   -3.6763  -36.9941 C   0  0  0  0  0  0  0  0  0  0  0  0
  -13.8455   -3.5996  -36.8805 C   0  0  0  0  0  0  0  0  0  0  0  0
  -14.4554   -4.0116  -35.7327 O   0  0  0  0  0  0  0  0  0  0  0  0
  -10.0127   -3.0565  -39.0556 H   0  0  0  0  0  0  0  0  0  0  0  0
  -15.3877   -3.9609  -35.6534 H   0  0  0  0  0  0  0  0  0  0  0  0
  7  6  1  0  0  0
  5  6  2  0  0  0
  5  4  1  0  0  0
  6  8  1  0  0  0
  3  4  1  0  0  0
  4 10  2  0  0  0
  8  9  2  0  0  0
 10  9  1  0  0  0
 10  1  1  0  0  0
  2  1  2  0  0  0
  1 13  1  0  0  0
 13 14  2  0  0  0
 13 19  1  0  0  0
 20 19  1  0  0  0
 14 15  1  0  0  0
 19 18  2  0  0  0
 15 16  2  0  0  0
 18 16  1  0  0  0
 16 17  1  0  0  0
  3 11  1  0  0  0
  7 12  1  0  0  0
 17 21  1  0  0  0
 20 22  1  0  0  0
M  END
> <minimizedAffinity>
-7.25492

$$$$
6GNM_27M_B_201


 22 23  0  0  0  0  0  0  0  0999 V2000
  -16.1136   -3.0459  -37.7651 C   0  0  0  0  0  0  0  0  0  0  0  0
  -16.6051   -2.1806  -37.0643 O   0  0  0  0  0  0  0  0  0  0  0  0
  -14.4228   -3.9847  -35.6514 O   0  0  0  0  0  0  0  0  0  0  0  0
  -13.8319   -3.6102  -36.8179 C   0  0  0  0  0  0  0  0  0  0  0  0
  -12.4509   -3.6974  -36.9428 C   0  0  0  0  0  0  0  0  0  0  0  0
  -11.8355   -3.3098  -38.1251 C   0  0  0  0  0  0  0  0  0  0  0  0
  -10.4380   -3.3901  -38.2583 O   0  0  0  0  0  0  0  0  0  0  0  0
  -12.6022   -2.8479  -39.1826 C   0  0  0  0  0  0  0  0  0  0  0  0
  -13.9808   -2.7667  -39.0564 C   0  0  0  0  0  0  0  0  0  0  0  0
  -14.6056   -3.1430  -37.8745 C   0  0  0  0  0  0  0  0  0  0  0  0
  -13.8992   -4.2992  -34.9408 H   0  0  0  0  0  0  0  0  0  0  0  0
   -9.9166   -3.7020  -37.5450 H   0  0  0  0  0  0  0  0  0  0  0  0
  -17.0215   -4.0132  -38.5011 C   0  0  0  0  0  0  0  0  0  0  0  0
  -16.6696   -5.3474  -38.6462 C   0  0  0  0  0  0  0  0  0  0  0  0
  -17.5032   -6.2302  -39.3152 C   0  0  0  0  0  0  0  0  0  0  0  0
  -18.7013   -5.7813  -39.8457 C   0  0  0  0  0  0  0  0  0  0  0  0
  -19.5507   -6.6718  -40.5277 O   0  0  0  0  0  0  0  0  0  0  0  0
  -19.0603   -4.4501  -39.7048 C   0  0  0  0  0  0  0  0  0  0  0  0
  -18.2238   -3.5687  -39.0353 C   0  0  0  0  0  0  0  0  0  0  0  0
  -18.5855   -2.2611  -38.8994 O   0  0  0  0  0  0  0  0  0  0  0  0
  -19.3072   -7.5716  -40.6225 H   0  0  0  0  0  0  0  0  0  0  0  0
  -18.0224   -1.6637  -38.4477 H   0  0  0  0  0  0  0  0  0  0  0  0
  7  6  1  0  0  0
  5  6  2  0  0  0
  5  4  1  0  0  0
  6  8  1  0  0  0
  3  4  1  0  0  0
  4 10  2  0  0  0
  8  9  2  0  0  0
 10  9  1  0  0  0
 10  1  1  0  0  0
  2  1  2  0  0  0
  1 13  1  0  0  0
 13 14  2  0  0  0
 13 19  1  0  0  0
 20 19  1  0  0  0
 14 15  1  0  0  0
 19 18  2  0  0  0
 15 16  2  0  0  0
 18 16  1  0  0  0
 16 17  1  0  0  0
  3 11  1  0  0  0
  7 12  1  0  0  0
 17 21  1  0  0  0
 20 22  1  0  0  0
M  END
> <minimizedAffinity>
-7.24741

$$$$
6GNM_27M_B_201


 22 23  0  0  0  0  0  0  0  0999 V2000
  -14.2801   -2.6429  -39.6120 C   0  0  0  0  0  0  0  0  0  0  0  0
  -13.9960   -2.3191  -40.7504 O   0  0  0  0  0  0  0  0  0  0  0  0
  -16.1974   -1.1685  -38.0764 O   0  0  0  0  0  0  0  0  0  0  0  0
  -16.5721   -2.3822  -38.5628 C   0  0  0  0  0  0  0  0  0  0  0  0
  -17.8525   -2.8559  -38.3046 C   0  0  0  0  0  0  0  0  0  0  0  0
  -18.2435   -4.0969  -38.7880 C   0  0  0  0  0  0  0  0  0  0  0  0
  -19.5357   -4.5862  -38.5271 O   0  0  0  0  0  0  0  0  0  0  0  0
  -17.3589   -4.8552  -39.5376 C   0  0  0  0  0  0  0  0  0  0  0  0
  -16.0833   -4.3773  -39.7978 C   0  0  0  0  0  0  0  0  0  0  0  0
  -15.6789   -3.1412  -39.3107 C   0  0  0  0  0  0  0  0  0  0  0  0
  -16.8012   -0.6589  -37.5727 H   0  0  0  0  0  0  0  0  0  0  0  0
  -20.1364   -4.0759  -38.0204 H   0  0  0  0  0  0  0  0  0  0  0  0
  -13.2245   -2.5521  -38.5262 C   0  0  0  0  0  0  0  0  0  0  0  0
  -13.3017   -3.3472  -37.3918 C   0  0  0  0  0  0  0  0  0  0  0  0
  -12.3332   -3.2655  -36.4034 C   0  0  0  0  0  0  0  0  0  0  0  0
  -11.2749   -2.3833  -36.5447 C   0  0  0  0  0  0  0  0  0  0  0  0
  -10.2900   -2.2941  -35.5440 O   0  0  0  0  0  0  0  0  0  0  0  0
  -11.1902   -1.5858  -37.6751 C   0  0  0  0  0  0  0  0  0  0  0  0
  -12.1613   -1.6692  -38.6625 C   0  0  0  0  0  0  0  0  0  0  0  0
  -12.0693   -0.8824  -39.7722 O   0  0  0  0  0  0  0  0  0  0  0  0
  -10.3480   -2.8337  -34.7801 H   0  0  0  0  0  0  0  0  0  0  0  0
  -12.7237   -0.9367  -40.4406 H   0  0  0  0  0  0  0  0  0  0  0  0
  7  6  1  0  0  0
  5  6  2  0  0  0
  5  4  1  0  0  0
  6  8  1  0  0  0
  3  4  1  0  0  0
  4 10  2  0  0  0
  8  9  2  0  0  0
 10  9  1  0  0  0
 10  1  1  0  0  0
  2  1  2  0  0  0
  1 13  1  0  0  0
 13 14  2  0  0  0
 13 19  1  0  0  0
 20 19  1  0  0  0
 14 15  1  0  0  0
 19 18  2  0  0  0
 15 16  2  0  0  0
 18 16  1  0  0  0
 16 17  1  0  0  0
  3 11  1  0  0  0
  7 12  1  0  0  0
 17 21  1  0  0  0
 20 22  1  0  0  0
M  END
> <minimizedAffinity>
-7.18448

$$$$
6GNM_27M_B_201


 22 23  0  0  0  0  0  0  0  0999 V2000
  -15.8778   -3.1657  -39.7165 C   0  0  0  0  0  0  0  0  0  0  0  0
  -16.0894   -4.0785  -40.4934 O   0  0  0  0  0  0  0  0  0  0  0  0
  -14.1843   -2.0375  -41.7333 O   0  0  0  0  0  0  0  0  0  0  0  0
  -13.6733   -2.1766  -40.4805 C   0  0  0  0  0  0  0  0  0  0  0  0
  -12.3692   -1.7703  -40.2258 C   0  0  0  0  0  0  0  0  0  0  0  0
  -11.8335   -1.9154  -38.9535 C   0  0  0  0  0  0  0  0  0  0  0  0
  -10.5130   -1.5115  -38.6882 O   0  0  0  0  0  0  0  0  0  0  0  0
  -12.6057   -2.4544  -37.9373 C   0  0  0  0  0  0  0  0  0  0  0  0
  -13.9085   -2.8544  -38.1936 C   0  0  0  0  0  0  0  0  0  0  0  0
  -14.4509   -2.7224  -39.4653 C   0  0  0  0  0  0  0  0  0  0  0  0
  -13.6582   -1.6693  -42.4157 H   0  0  0  0  0  0  0  0  0  0  0  0
   -9.9881   -1.1466  -39.3732 H   0  0  0  0  0  0  0  0  0  0  0  0
  -17.0472   -2.4861  -39.0293 C   0  0  0  0  0  0  0  0  0  0  0  0
  -17.0960   -1.1047  -38.9098 C   0  0  0  0  0  0  0  0  0  0  0  0
  -18.1680   -0.4861  -38.2854 C   0  0  0  0  0  0  0  0  0  0  0  0
  -19.2042   -1.2499  -37.7743 C   0  0  0  0  0  0  0  0  0  0  0  0
  -20.2938   -0.6282  -37.1376 O   0  0  0  0  0  0  0  0  0  0  0  0
  -19.1632   -2.6305  -37.8899 C   0  0  0  0  0  0  0  0  0  0  0  0
  -18.0887   -3.2469  -38.5148 C   0  0  0  0  0  0  0  0  0  0  0  0
  -18.0573   -4.6055  -38.6260 O   0  0  0  0  0  0  0  0  0  0  0  0
  -20.3208    0.3052  -37.0599 H   0  0  0  0  0  0  0  0  0  0  0  0
  -17.3328   -5.0245  -39.0475 H   0  0  0  0  0  0  0  0  0  0  0  0
  7  6  1  0  0  0
  5  6  2  0  0  0
  5  4  1  0  0  0
  6  8  1  0  0  0
  3  4  1  0  0  0
  4 10  2  0  0  0
  8  9  2  0  0  0
 10  9  1  0  0  0
 10  1  1  0  0  0
  2  1  2  0  0  0
  1 13  1  0  0  0
 13 14  2  0  0  0
 13 19  1  0  0  0
 20 19  1  0  0  0
 14 15  1  0  0  0
 19 18  2  0  0  0
 15 16  2  0  0  0
 18 16  1  0  0  0
 16 17  1  0  0  0
  3 11  1  0  0  0
  7 12  1  0  0  0
 17 21  1  0  0  0
 20 22  1  0  0  0
M  END
> <minimizedAffinity>
-7.17015

$$$$
6GNM_27M_B_201


 22 23  0  0  0  0  0  0  0  0999 V2000
  -16.0142   -3.2554  -39.6226 C   0  0  0  0  0  0  0  0  0  0  0  0
  -16.2414   -4.1944  -40.3630 O   0  0  0  0  0  0  0  0  0  0  0  0
  -18.3374   -4.6095  -38.6343 O   0  0  0  0  0  0  0  0  0  0  0  0
  -18.2737   -3.2602  -38.4753 C   0  0  0  0  0  0  0  0  0  0  0  0
  -19.3198   -2.5964  -37.8463 C   0  0  0  0  0  0  0  0  0  0  0  0
  -19.2703   -1.2185  -37.6861 C   0  0  0  0  0  0  0  0  0  0  0  0
  -20.3269   -0.5381  -37.0551 O   0  0  0  0  0  0  0  0  0  0  0  0
  -18.1713   -0.5098  -38.1436 C   0  0  0  0  0  0  0  0  0  0  0  0
  -17.1267   -1.1760  -38.7666 C   0  0  0  0  0  0  0  0  0  0  0  0
  -17.1706   -2.5532  -38.9404 C   0  0  0  0  0  0  0  0  0  0  0  0
  -19.0820   -5.0837  -38.3200 H   0  0  0  0  0  0  0  0  0  0  0  0
  -21.0716   -1.0144  -36.7445 H   0  0  0  0  0  0  0  0  0  0  0  0
  -14.5797   -2.8196  -39.3909 C   0  0  0  0  0  0  0  0  0  0  0  0
  -13.9701   -3.0078  -38.1589 C   0  0  0  0  0  0  0  0  0  0  0  0
  -12.6576   -2.6128  -37.9513 C   0  0  0  0  0  0  0  0  0  0  0  0
  -11.9424   -2.0242  -38.9810 C   0  0  0  0  0  0  0  0  0  0  0  0
  -10.6108   -1.6191  -38.7759 O   0  0  0  0  0  0  0  0  0  0  0  0
  -12.5440   -1.8328  -40.2149 C   0  0  0  0  0  0  0  0  0  0  0  0
  -13.8579   -2.2286  -40.4196 C   0  0  0  0  0  0  0  0  0  0  0  0
  -14.4415   -2.0384  -41.6372 O   0  0  0  0  0  0  0  0  0  0  0  0
  -10.2048   -1.7489  -37.9415 H   0  0  0  0  0  0  0  0  0  0  0  0
  -15.3287   -2.3048  -41.7782 H   0  0  0  0  0  0  0  0  0  0  0  0
  7  6  1  0  0  0
  5  6  2  0  0  0
  5  4  1  0  0  0
  6  8  1  0  0  0
  3  4  1  0  0  0
  4 10  2  0  0  0
  8  9  2  0  0  0
 10  9  1  0  0  0
 10  1  1  0  0  0
  2  1  2  0  0  0
  1 13  1  0  0  0
 13 14  2  0  0  0
 13 19  1  0  0  0
 20 19  1  0  0  0
 14 15  1  0  0  0
 19 18  2  0  0  0
 15 16  2  0  0  0
 18 16  1  0  0  0
 16 17  1  0  0  0
  3 11  1  0  0  0
  7 12  1  0  0  0
 17 21  1  0  0  0
 20 22  1  0  0  0
M  END
> <minimizedAffinity>
-7.15141

$$$$
6GNM_27M_B_201


 22 23  0  0  0  0  0  0  0  0999 V2000
  -15.8737   -3.5469  -37.9153 C   0  0  0  0  0  0  0  0  0  0  0  0
  -16.2711   -4.6951  -37.9880 O   0  0  0  0  0  0  0  0  0  0  0  0
  -18.4129   -3.6437  -39.2386 O   0  0  0  0  0  0  0  0  0  0  0  0
  -18.1015   -2.5161  -38.5446 C   0  0  0  0  0  0  0  0  0  0  0  0
  -19.0127   -1.4681  -38.4999 C   0  0  0  0  0  0  0  0  0  0  0  0
  -18.7026   -0.3088  -37.8024 C   0  0  0  0  0  0  0  0  0  0  0  0
  -19.6169    0.7586  -37.7561 O   0  0  0  0  0  0  0  0  0  0  0  0
  -17.4892   -0.2046  -37.1420 C   0  0  0  0  0  0  0  0  0  0  0  0
  -16.5840   -1.2544  -37.1845 C   0  0  0  0  0  0  0  0  0  0  0  0
  -16.8804   -2.4149  -37.8875 C   0  0  0  0  0  0  0  0  0  0  0  0
  -19.2365   -3.7094  -39.6806 H   0  0  0  0  0  0  0  0  0  0  0  0
  -20.4385    0.6915  -38.2017 H   0  0  0  0  0  0  0  0  0  0  0  0
  -14.3825   -3.2780  -37.8412 C   0  0  0  0  0  0  0  0  0  0  0  0
  -13.7064   -2.7223  -38.9178 C   0  0  0  0  0  0  0  0  0  0  0  0
  -12.3446   -2.4734  -38.8458 C   0  0  0  0  0  0  0  0  0  0  0  0
  -11.6467   -2.7800  -37.6894 C   0  0  0  0  0  0  0  0  0  0  0  0
  -10.2641   -2.5318  -37.6109 O   0  0  0  0  0  0  0  0  0  0  0  0
  -12.3147   -3.3351  -36.6093 C   0  0  0  0  0  0  0  0  0  0  0  0
  -13.6776   -3.5837  -36.6845 C   0  0  0  0  0  0  0  0  0  0  0  0
  -14.3274   -4.1283  -35.6166 O   0  0  0  0  0  0  0  0  0  0  0  0
   -9.8132   -2.1565  -38.3415 H   0  0  0  0  0  0  0  0  0  0  0  0
  -15.2478   -4.2972  -35.6646 H   0  0  0  0  0  0  0  0  0  0  0  0
  7  6  1  0  0  0
  5  6  2  0  0  0
  5  4  1  0  0  0
  6  8  1  0  0  0
  3  4  1  0  0  0
  4 10  2  0  0  0
  8  9  2  0  0  0
 10  9  1  0  0  0
 10  1  1  0  0  0
  2  1  2  0  0  0
  1 13  1  0  0  0
 13 14  2  0  0  0
 13 19  1  0  0  0
 20 19  1  0  0  0
 14 15  1  0  0  0
 19 18  2  0  0  0
 15 16  2  0  0  0
 18 16  1  0  0  0
 16 17  1  0  0  0
  3 11  1  0  0  0
  7 12  1  0  0  0
 17 21  1  0  0  0
 20 22  1  0  0  0
M  END
> <minimizedAffinity>
-7.01659

$$$$
