6BM6_SAH_A_1301


 33 35  0  0  0  0  0  0  0  0999 V2000
   -8.7181   14.8820  -16.2072 C   0  0  0  0  0  0  0  0  0  0  0  0
   -8.5558   13.5273  -15.7965 O   0  0  0  0  0  0  0  0  0  0  0  0
   -9.1931   14.7453  -17.6344 C   0  0  0  0  0  0  0  0  0  0  0  0
   -8.8951   15.8806  -18.4158 O   0  0  0  0  0  0  0  0  0  0  0  0
   -8.4456   13.5436  -18.1580 C   0  0  0  0  0  0  0  0  0  0  0  0
   -7.0962   13.8737  -18.4233 O   0  0  0  0  0  0  0  0  0  0  0  0
   -8.4107   12.6882  -16.9328 C   0  0  0  0  0  0  0  0  0  0  0  0
   -7.9368   16.0308  -18.4156 H   0  0  0  0  0  0  0  0  0  0  0  0
   -6.6925   14.2499  -17.6255 H   0  0  0  0  0  0  0  0  0  0  0  0
   -9.4668   11.6793  -16.8411 N   0  0  0  0  0  0  0  0  0  0  0  0
  -10.6386   11.7156  -16.1350 C   0  0  0  0  0  0  0  0  0  0  0  0
  -11.2925   10.5298  -16.3012 N   0  0  0  0  0  0  0  0  0  0  0  0
  -10.5482    9.7450  -17.1175 C   0  0  0  0  0  0  0  0  0  0  0  0
  -10.7257    8.4606  -17.6241 C   0  0  0  0  0  0  0  0  0  0  0  0
  -11.8000    7.6978  -17.3412 N   0  0  0  0  0  0  0  0  0  0  0  0
   -9.7261    7.9683  -18.4272 N   0  0  0  0  0  0  0  0  0  0  0  0
   -8.6098    8.7189  -18.7550 C   0  0  0  0  0  0  0  0  0  0  0  0
   -8.4352    9.9930  -18.2766 N   0  0  0  0  0  0  0  0  0  0  0  0
   -9.3980   10.4664  -17.4606 C   0  0  0  0  0  0  0  0  0  0  0  0
  -12.5165    8.0508  -16.7656 H   0  0  0  0  0  0  0  0  0  0  0  0
  -11.8684    6.7876  -17.7100 H   0  0  0  0  0  0  0  0  0  0  0  0
   -9.7567   15.6474  -15.3958 C   0  0  0  0  0  0  0  0  0  0  0  0
   -9.0916   16.7437  -14.1202 S   0  0  0  0  0  0  0  0  0  0  0  0
  -10.2342   18.1244  -14.4525 C   0  0  0  0  0  0  0  0  0  0  0  0
  -10.0044   18.8157  -15.7961 C   0  0  0  0  0  0  0  0  0  0  0  0
  -12.4068   18.4796  -15.9155 N   0  0  0  0  0  0  0  0  0  0  0  0
  -11.2890   19.2245  -16.5072 C   0  0  0  0  0  0  0  0  0  0  0  0
  -12.4433   18.6612  -14.9125 H   0  0  0  0  0  0  0  0  0  0  0  0
  -12.2726   17.4813  -16.0756 H   0  0  0  0  0  0  0  0  0  0  0  0
  -11.1665   19.0045  -18.0130 C   0  0  0  0  0  0  0  0  0  0  0  0
  -10.6473   17.9557  -18.4556 O   0  0  0  0  0  0  0  0  0  0  0  0
  -11.6280   19.8471  -18.8132 O   0  0  0  0  0  0  0  0  0  0  0  0
  -12.0185   20.6352  -18.4902 H   0  0  0  0  0  0  0  0  0  0  0  0
 26 27  1  0  0  0
 27 25  1  0  0  0
 27 30  1  0  0  0
 25 24  1  0  0  0
 24 23  1  0  0  0
 23 22  1  0  0  0
 30 31  2  0  0  0
 30 32  1  0  0  0
 22  1  1  0  0  0
  1  2  1  0  0  0
  1  3  1  0  0  0
  2  7  1  0  0  0
  3  4  1  0  0  0
  3  5  1  0  0  0
  5  6  1  0  0  0
  5  7  1  0  0  0
  7 10  1  0  0  0
 10 11  1  0  0  0
 10 19  1  0  0  0
 11 12  2  0  0  0
 12 13  1  0  0  0
 13 14  1  0  0  0
 13 19  2  0  0  0
 14 15  1  0  0  0
 14 16  2  0  0  0
 16 17  1  0  0  0
 17 18  2  0  0  0
 18 19  1  0  0  0
 26 28  1  0  0  0
 26 29  1  0  0  0
 32 33  1  0  0  0
  4  8  1  0  0  0
  6  9  1  0  0  0
 15 20  1  0  0  0
 15 21  1  0  0  0
M  END
> <minimizedAffinity>
-8.19603

$$$$
6BM6_SAH_A_1301


 33 35  0  0  0  0  0  0  0  0999 V2000
   -8.8605   14.9545  -16.4756 C   0  0  0  0  0  0  0  0  0  0  0  0
   -8.7234   13.6574  -15.9024 O   0  0  0  0  0  0  0  0  0  0  0  0
   -9.2029   14.6509  -17.9150 C   0  0  0  0  0  0  0  0  0  0  0  0
   -8.8459   15.6978  -18.7895 O   0  0  0  0  0  0  0  0  0  0  0  0
   -8.3999   13.4131  -18.2315 C   0  0  0  0  0  0  0  0  0  0  0  0
   -7.0351   13.7378  -18.4111 O   0  0  0  0  0  0  0  0  0  0  0  0
   -8.4682   12.7001  -16.9196 C   0  0  0  0  0  0  0  0  0  0  0  0
   -7.8930   15.8656  -18.7209 H   0  0  0  0  0  0  0  0  0  0  0  0
   -6.7089   14.2081  -17.6280 H   0  0  0  0  0  0  0  0  0  0  0  0
   -9.5188   11.6873  -16.8093 N   0  0  0  0  0  0  0  0  0  0  0  0
  -10.6852   11.7255  -16.0946 C   0  0  0  0  0  0  0  0  0  0  0  0
  -11.3348   10.5351  -16.2435 N   0  0  0  0  0  0  0  0  0  0  0  0
  -10.5933    9.7454  -17.0575 C   0  0  0  0  0  0  0  0  0  0  0  0
  -10.7686    8.4550  -17.5495 C   0  0  0  0  0  0  0  0  0  0  0  0
  -11.8371    7.6902  -17.2504 N   0  0  0  0  0  0  0  0  0  0  0  0
   -9.7729    7.9590  -18.3552 N   0  0  0  0  0  0  0  0  0  0  0  0
   -8.6627    8.7114  -18.6994 C   0  0  0  0  0  0  0  0  0  0  0  0
   -8.4904    9.9912  -18.2355 N   0  0  0  0  0  0  0  0  0  0  0  0
   -9.4491   10.4684  -17.4169 C   0  0  0  0  0  0  0  0  0  0  0  0
  -12.5508    8.0458  -16.6729 H   0  0  0  0  0  0  0  0  0  0  0  0
  -11.9040    6.7759  -17.6093 H   0  0  0  0  0  0  0  0  0  0  0  0
   -9.9754   15.7852  -15.8512 C   0  0  0  0  0  0  0  0  0  0  0  0
   -9.9121   17.5584  -16.2016 S   0  0  0  0  0  0  0  0  0  0  0  0
   -8.3655   17.8697  -15.2888 C   0  0  0  0  0  0  0  0  0  0  0  0
   -8.5448   18.7090  -14.0241 C   0  0  0  0  0  0  0  0  0  0  0  0
   -7.9758   20.6984  -12.7525 N   0  0  0  0  0  0  0  0  0  0  0  0
   -7.7440   20.0058  -14.0256 C   0  0  0  0  0  0  0  0  0  0  0  0
   -7.7190   20.0843  -11.9796 H   0  0  0  0  0  0  0  0  0  0  0  0
   -8.9619   20.9476  -12.6756 H   0  0  0  0  0  0  0  0  0  0  0  0
   -8.1058   20.8627  -15.2362 C   0  0  0  0  0  0  0  0  0  0  0  0
   -9.2287   21.4103  -15.3067 O   0  0  0  0  0  0  0  0  0  0  0  0
   -7.2663   21.0631  -16.1408 O   0  0  0  0  0  0  0  0  0  0  0  0
   -6.4231   20.6569  -16.0958 H   0  0  0  0  0  0  0  0  0  0  0  0
 26 27  1  0  0  0
 27 25  1  0  0  0
 27 30  1  0  0  0
 25 24  1  0  0  0
 24 23  1  0  0  0
 23 22  1  0  0  0
 30 31  2  0  0  0
 30 32  1  0  0  0
 22  1  1  0  0  0
  1  2  1  0  0  0
  1  3  1  0  0  0
  2  7  1  0  0  0
  3  4  1  0  0  0
  3  5  1  0  0  0
  5  6  1  0  0  0
  5  7  1  0  0  0
  7 10  1  0  0  0
 10 11  1  0  0  0
 10 19  1  0  0  0
 11 12  2  0  0  0
 12 13  1  0  0  0
 13 14  1  0  0  0
 13 19  2  0  0  0
 14 15  1  0  0  0
 14 16  2  0  0  0
 16 17  1  0  0  0
 17 18  2  0  0  0
 18 19  1  0  0  0
 26 28  1  0  0  0
 26 29  1  0  0  0
 32 33  1  0  0  0
  4  8  1  0  0  0
  6  9  1  0  0  0
 15 20  1  0  0  0
 15 21  1  0  0  0
M  END
> <minimizedAffinity>
-8.03363

$$$$
6BM6_SAH_A_1301


 33 35  0  0  0  0  0  0  0  0999 V2000
  -10.0558   18.5230  -15.3225 C   0  0  0  0  0  0  0  0  0  0  0  0
   -9.0219   17.8380  -16.0239 O   0  0  0  0  0  0  0  0  0  0  0  0
  -11.3044   18.0774  -16.0461 C   0  0  0  0  0  0  0  0  0  0  0  0
  -12.3601   19.0044  -15.9265 O   0  0  0  0  0  0  0  0  0  0  0  0
  -10.8739   17.9637  -17.4879 C   0  0  0  0  0  0  0  0  0  0  0  0
  -10.7468   19.2455  -18.0718 O   0  0  0  0  0  0  0  0  0  0  0  0
   -9.4750   17.4657  -17.3171 C   0  0  0  0  0  0  0  0  0  0  0  0
  -12.0791   19.8621  -16.2819 H   0  0  0  0  0  0  0  0  0  0  0  0
  -10.1410   19.7847  -17.5396 H   0  0  0  0  0  0  0  0  0  0  0  0
   -9.3088   16.0149  -17.4132 N   0  0  0  0  0  0  0  0  0  0  0  0
  -10.2527   15.0283  -17.3210 C   0  0  0  0  0  0  0  0  0  0  0  0
   -9.6360   13.8151  -17.4165 N   0  0  0  0  0  0  0  0  0  0  0  0
   -8.3074   14.0257  -17.5798 C   0  0  0  0  0  0  0  0  0  0  0  0
   -7.2204   13.1701  -17.7354 C   0  0  0  0  0  0  0  0  0  0  0  0
   -7.3336   11.8273  -17.7432 N   0  0  0  0  0  0  0  0  0  0  0  0
   -5.9842   13.7559  -17.8585 N   0  0  0  0  0  0  0  0  0  0  0  0
   -5.8198   15.1307  -17.8677 C   0  0  0  0  0  0  0  0  0  0  0  0
   -6.8872   15.9825  -17.7349 N   0  0  0  0  0  0  0  0  0  0  0  0
   -8.0978   15.4103  -17.5795 C   0  0  0  0  0  0  0  0  0  0  0  0
   -8.2197   11.4075  -17.6550 H   0  0  0  0  0  0  0  0  0  0  0  0
   -6.5302   11.2661  -17.8371 H   0  0  0  0  0  0  0  0  0  0  0  0
  -10.1555   18.1391  -13.8509 C   0  0  0  0  0  0  0  0  0  0  0  0
   -9.6620   19.4244  -12.6780 S   0  0  0  0  0  0  0  0  0  0  0  0
   -7.9867   19.6577  -13.3572 C   0  0  0  0  0  0  0  0  0  0  0  0
   -7.6570   21.1046  -13.7231 C   0  0  0  0  0  0  0  0  0  0  0  0
   -7.2924   20.7551  -16.0987 N   0  0  0  0  0  0  0  0  0  0  0  0
   -8.0992   21.5021  -15.1264 C   0  0  0  0  0  0  0  0  0  0  0  0
   -7.3945   19.7547  -15.9281 H   0  0  0  0  0  0  0  0  0  0  0  0
   -6.3119   21.0184  -16.0006 H   0  0  0  0  0  0  0  0  0  0  0  0
   -7.9994   23.0137  -15.3164 C   0  0  0  0  0  0  0  0  0  0  0  0
   -8.8561   23.6204  -15.9972 O   0  0  0  0  0  0  0  0  0  0  0  0
   -7.0904   23.6616  -14.7531 O   0  0  0  0  0  0  0  0  0  0  0  0
   -6.4448   23.2151  -14.2414 H   0  0  0  0  0  0  0  0  0  0  0  0
 26 27  1  0  0  0
 27 25  1  0  0  0
 27 30  1  0  0  0
 25 24  1  0  0  0
 24 23  1  0  0  0
 23 22  1  0  0  0
 30 31  2  0  0  0
 30 32  1  0  0  0
 22  1  1  0  0  0
  1  2  1  0  0  0
  1  3  1  0  0  0
  2  7  1  0  0  0
  3  4  1  0  0  0
  3  5  1  0  0  0
  5  6  1  0  0  0
  5  7  1  0  0  0
  7 10  1  0  0  0
 10 11  1  0  0  0
 10 19  1  0  0  0
 11 12  2  0  0  0
 12 13  1  0  0  0
 13 14  1  0  0  0
 13 19  2  0  0  0
 14 15  1  0  0  0
 14 16  2  0  0  0
 16 17  1  0  0  0
 17 18  2  0  0  0
 18 19  1  0  0  0
 26 28  1  0  0  0
 26 29  1  0  0  0
 32 33  1  0  0  0
  4  8  1  0  0  0
  6  9  1  0  0  0
 15 20  1  0  0  0
 15 21  1  0  0  0
M  END
> <minimizedAffinity>
-7.79836

$$$$
6BM6_SAH_A_1301


 33 35  0  0  0  0  0  0  0  0999 V2000
   -9.9298   19.0373  -13.3464 C   0  0  0  0  0  0  0  0  0  0  0  0
   -8.9760   18.0781  -13.7937 O   0  0  0  0  0  0  0  0  0  0  0  0
  -10.3918   19.6770  -14.6343 C   0  0  0  0  0  0  0  0  0  0  0  0
  -10.8863   20.9837  -14.4435 O   0  0  0  0  0  0  0  0  0  0  0  0
   -9.1521   19.7112  -15.4940 C   0  0  0  0  0  0  0  0  0  0  0  0
   -8.2751   20.7333  -15.0622 O   0  0  0  0  0  0  0  0  0  0  0  0
   -8.4999   18.4302  -15.0843 C   0  0  0  0  0  0  0  0  0  0  0  0
  -10.1946   21.5365  -14.0474 H   0  0  0  0  0  0  0  0  0  0  0  0
   -8.0768   20.6126  -14.1204 H   0  0  0  0  0  0  0  0  0  0  0  0
   -8.7681   17.2832  -15.9527 N   0  0  0  0  0  0  0  0  0  0  0  0
   -9.9449   16.6192  -16.1697 C   0  0  0  0  0  0  0  0  0  0  0  0
   -9.7148   15.5763  -17.0186 N   0  0  0  0  0  0  0  0  0  0  0  0
   -8.4010   15.5808  -17.3506 C   0  0  0  0  0  0  0  0  0  0  0  0
   -7.6245   14.7687  -18.1724 C   0  0  0  0  0  0  0  0  0  0  0  0
   -8.1203   13.7132  -18.8478 N   0  0  0  0  0  0  0  0  0  0  0  0
   -6.2871   15.0707  -18.2558 N   0  0  0  0  0  0  0  0  0  0  0  0
   -5.7348   16.1516  -17.5897 C   0  0  0  0  0  0  0  0  0  0  0  0
   -6.4957   16.9696  -16.7931 N   0  0  0  0  0  0  0  0  0  0  0  0
   -7.8018   16.6554  -16.6820 C   0  0  0  0  0  0  0  0  0  0  0  0
   -9.0789   13.4968  -18.7880 H   0  0  0  0  0  0  0  0  0  0  0  0
   -7.5240   13.1585  -19.4010 H   0  0  0  0  0  0  0  0  0  0  0  0
  -11.1241   18.4231  -12.6258 C   0  0  0  0  0  0  0  0  0  0  0  0
  -10.8538   16.7695  -11.9449 S   0  0  0  0  0  0  0  0  0  0  0  0
  -10.2656   17.3369  -10.3157 C   0  0  0  0  0  0  0  0  0  0  0  0
   -8.9721   16.6684   -9.8510 C   0  0  0  0  0  0  0  0  0  0  0  0
   -7.2190   15.2987  -10.8252 N   0  0  0  0  0  0  0  0  0  0  0  0
   -7.8934   16.5984  -10.9255 C   0  0  0  0  0  0  0  0  0  0  0  0
   -7.9067   14.5509  -10.9159 H   0  0  0  0  0  0  0  0  0  0  0  0
   -6.7546   15.2255   -9.9199 H   0  0  0  0  0  0  0  0  0  0  0  0
   -6.9276   17.7740  -10.7987 C   0  0  0  0  0  0  0  0  0  0  0  0
   -5.7991   17.6088  -10.2840 O   0  0  0  0  0  0  0  0  0  0  0  0
   -7.2379   18.8971  -11.2522 O   0  0  0  0  0  0  0  0  0  0  0  0
   -8.0809   19.0295  -11.6392 H   0  0  0  0  0  0  0  0  0  0  0  0
 26 27  1  0  0  0
 27 25  1  0  0  0
 27 30  1  0  0  0
 25 24  1  0  0  0
 24 23  1  0  0  0
 23 22  1  0  0  0
 30 31  2  0  0  0
 30 32  1  0  0  0
 22  1  1  0  0  0
  1  2  1  0  0  0
  1  3  1  0  0  0
  2  7  1  0  0  0
  3  4  1  0  0  0
  3  5  1  0  0  0
  5  6  1  0  0  0
  5  7  1  0  0  0
  7 10  1  0  0  0
 10 11  1  0  0  0
 10 19  1  0  0  0
 11 12  2  0  0  0
 12 13  1  0  0  0
 13 14  1  0  0  0
 13 19  2  0  0  0
 14 15  1  0  0  0
 14 16  2  0  0  0
 16 17  1  0  0  0
 17 18  2  0  0  0
 18 19  1  0  0  0
 26 28  1  0  0  0
 26 29  1  0  0  0
 32 33  1  0  0  0
  4  8  1  0  0  0
  6  9  1  0  0  0
 15 20  1  0  0  0
 15 21  1  0  0  0
M  END
> <minimizedAffinity>
-6.72643

$$$$
6BM6_SAH_A_1301


 33 35  0  0  0  0  0  0  0  0999 V2000
   -9.0260   13.5103  -17.6749 C   0  0  0  0  0  0  0  0  0  0  0  0
   -9.5765   14.8147  -17.8349 O   0  0  0  0  0  0  0  0  0  0  0  0
   -7.7794   13.7694  -16.8625 C   0  0  0  0  0  0  0  0  0  0  0  0
   -6.7977   12.7735  -17.0437 O   0  0  0  0  0  0  0  0  0  0  0  0
   -7.2745   15.0957  -17.3754 C   0  0  0  0  0  0  0  0  0  0  0  0
   -6.6637   14.9398  -18.6414 O   0  0  0  0  0  0  0  0  0  0  0  0
   -8.5679   15.7956  -17.6430 C   0  0  0  0  0  0  0  0  0  0  0  0
   -6.5575   12.7232  -17.9821 H   0  0  0  0  0  0  0  0  0  0  0  0
   -7.2864   14.5131  -19.2506 H   0  0  0  0  0  0  0  0  0  0  0  0
   -9.0407   16.6727  -16.5713 N   0  0  0  0  0  0  0  0  0  0  0  0
   -8.7530   16.6365  -15.2338 C   0  0  0  0  0  0  0  0  0  0  0  0
   -9.4616   17.6161  -14.6018 N   0  0  0  0  0  0  0  0  0  0  0  0
  -10.1890   18.2813  -15.5316 C   0  0  0  0  0  0  0  0  0  0  0  0
  -11.0706   19.3562  -15.4596 C   0  0  0  0  0  0  0  0  0  0  0  0
  -11.3823   19.9789  -14.3058 N   0  0  0  0  0  0  0  0  0  0  0  0
  -11.6528   19.7593  -16.6366 N   0  0  0  0  0  0  0  0  0  0  0  0
  -11.3549   19.1580  -17.8477 C   0  0  0  0  0  0  0  0  0  0  0  0
  -10.4723   18.1108  -17.9317 N   0  0  0  0  0  0  0  0  0  0  0  0
   -9.9254   17.6906  -16.7736 C   0  0  0  0  0  0  0  0  0  0  0  0
  -10.9650   19.6899  -13.4622 H   0  0  0  0  0  0  0  0  0  0  0  0
  -12.0272   20.7227  -14.3064 H   0  0  0  0  0  0  0  0  0  0  0  0
   -9.9364   12.5501  -16.9185 C   0  0  0  0  0  0  0  0  0  0  0  0
  -11.2137   13.3293  -15.9022 S   0  0  0  0  0  0  0  0  0  0  0  0
  -11.9730   11.7715  -15.3375 C   0  0  0  0  0  0  0  0  0  0  0  0
  -11.1224   10.5297  -15.6032 C   0  0  0  0  0  0  0  0  0  0  0  0
  -12.5571    8.5763  -15.4471 N   0  0  0  0  0  0  0  0  0  0  0  0
  -11.8450    9.4443  -16.3924 C   0  0  0  0  0  0  0  0  0  0  0  0
  -13.1961    9.1381  -14.8846 H   0  0  0  0  0  0  0  0  0  0  0  0
  -11.8835    8.1138  -14.8365 H   0  0  0  0  0  0  0  0  0  0  0  0
  -10.8650    8.6749  -17.2747 C   0  0  0  0  0  0  0  0  0  0  0  0
  -11.1234    7.5029  -17.6287 O   0  0  0  0  0  0  0  0  0  0  0  0
   -9.8225    9.2266  -17.6895 O   0  0  0  0  0  0  0  0  0  0  0  0
   -9.6214   10.1040  -17.4293 H   0  0  0  0  0  0  0  0  0  0  0  0
 26 27  1  0  0  0
 27 25  1  0  0  0
 27 30  1  0  0  0
 25 24  1  0  0  0
 24 23  1  0  0  0
 23 22  1  0  0  0
 30 31  2  0  0  0
 30 32  1  0  0  0
 22  1  1  0  0  0
  1  2  1  0  0  0
  1  3  1  0  0  0
  2  7  1  0  0  0
  3  4  1  0  0  0
  3  5  1  0  0  0
  5  6  1  0  0  0
  5  7  1  0  0  0
  7 10  1  0  0  0
 10 11  1  0  0  0
 10 19  1  0  0  0
 11 12  2  0  0  0
 12 13  1  0  0  0
 13 14  1  0  0  0
 13 19  2  0  0  0
 14 15  1  0  0  0
 14 16  2  0  0  0
 16 17  1  0  0  0
 17 18  2  0  0  0
 18 19  1  0  0  0
 26 28  1  0  0  0
 26 29  1  0  0  0
 32 33  1  0  0  0
  4  8  1  0  0  0
  6  9  1  0  0  0
 15 20  1  0  0  0
 15 21  1  0  0  0
M  END
> <minimizedAffinity>
-6.72492

$$$$
6BM6_SAH_A_1301


 33 35  0  0  0  0  0  0  0  0999 V2000
   -9.6360   13.8179  -17.5185 C   0  0  0  0  0  0  0  0  0  0  0  0
  -10.2514   15.0942  -17.3690 O   0  0  0  0  0  0  0  0  0  0  0  0
   -8.3547   13.9691  -16.7333 C   0  0  0  0  0  0  0  0  0  0  0  0
   -7.3434   13.0895  -17.1716 O   0  0  0  0  0  0  0  0  0  0  0  0
   -7.9401   15.3995  -16.9766 C   0  0  0  0  0  0  0  0  0  0  0  0
   -7.4013   15.5474  -18.2758 O   0  0  0  0  0  0  0  0  0  0  0  0
   -9.2766   16.0672  -17.0236 C   0  0  0  0  0  0  0  0  0  0  0  0
   -7.1588   13.2511  -18.1101 H   0  0  0  0  0  0  0  0  0  0  0  0
   -8.0408   15.2244  -18.9297 H   0  0  0  0  0  0  0  0  0  0  0  0
   -9.7210   16.6718  -15.7671 N   0  0  0  0  0  0  0  0  0  0  0  0
  -10.7172   16.2704  -14.9190 C   0  0  0  0  0  0  0  0  0  0  0  0
  -10.8157   17.1674  -13.8957 N   0  0  0  0  0  0  0  0  0  0  0  0
   -9.8804   18.1299  -14.0831 C   0  0  0  0  0  0  0  0  0  0  0  0
   -9.5281   19.2675  -13.3624 C   0  0  0  0  0  0  0  0  0  0  0  0
  -10.1447   19.6396  -12.2233 N   0  0  0  0  0  0  0  0  0  0  0  0
   -8.5163   20.0392  -13.8793 N   0  0  0  0  0  0  0  0  0  0  0  0
   -7.8459   19.6912  -15.0398 C   0  0  0  0  0  0  0  0  0  0  0  0
   -8.1726   18.5614  -15.7466 N   0  0  0  0  0  0  0  0  0  0  0  0
   -9.1881   17.8203  -15.2604 C   0  0  0  0  0  0  0  0  0  0  0  0
  -10.8700   19.0865  -11.8528 H   0  0  0  0  0  0  0  0  0  0  0  0
   -9.8699   20.4646  -11.7617 H   0  0  0  0  0  0  0  0  0  0  0  0
  -10.4560   12.6712  -16.9392 C   0  0  0  0  0  0  0  0  0  0  0  0
  -10.3721   12.4871  -15.1419 S   0  0  0  0  0  0  0  0  0  0  0  0
  -11.7678   11.3220  -15.0126 C   0  0  0  0  0  0  0  0  0  0  0  0
  -11.3678    9.8520  -15.1352 C   0  0  0  0  0  0  0  0  0  0  0  0
  -12.9731    8.0855  -15.5837 N   0  0  0  0  0  0  0  0  0  0  0  0
  -12.1219    9.0961  -16.2228 C   0  0  0  0  0  0  0  0  0  0  0  0
  -13.6004    8.5398  -14.9200 H   0  0  0  0  0  0  0  0  0  0  0  0
  -12.3881    7.4105  -15.0911 H   0  0  0  0  0  0  0  0  0  0  0  0
  -11.1504    8.4930  -17.2344 C   0  0  0  0  0  0  0  0  0  0  0  0
  -10.0444    9.0381  -17.4470 O   0  0  0  0  0  0  0  0  0  0  0  0
  -11.4321    7.4248  -17.8201 O   0  0  0  0  0  0  0  0  0  0  0  0
  -12.2581    7.0100  -17.6666 H   0  0  0  0  0  0  0  0  0  0  0  0
 26 27  1  0  0  0
 27 25  1  0  0  0
 27 30  1  0  0  0
 25 24  1  0  0  0
 24 23  1  0  0  0
 23 22  1  0  0  0
 30 31  2  0  0  0
 30 32  1  0  0  0
 22  1  1  0  0  0
  1  2  1  0  0  0
  1  3  1  0  0  0
  2  7  1  0  0  0
  3  4  1  0  0  0
  3  5  1  0  0  0
  5  6  1  0  0  0
  5  7  1  0  0  0
  7 10  1  0  0  0
 10 11  1  0  0  0
 10 19  1  0  0  0
 11 12  2  0  0  0
 12 13  1  0  0  0
 13 14  1  0  0  0
 13 19  2  0  0  0
 14 15  1  0  0  0
 14 16  2  0  0  0
 16 17  1  0  0  0
 17 18  2  0  0  0
 18 19  1  0  0  0
 26 28  1  0  0  0
 26 29  1  0  0  0
 32 33  1  0  0  0
  4  8  1  0  0  0
  6  9  1  0  0  0
 15 20  1  0  0  0
 15 21  1  0  0  0
M  END
> <minimizedAffinity>
-6.56718

$$$$
6BM6_SAH_A_1301


 33 35  0  0  0  0  0  0  0  0999 V2000
   -9.6444   18.3709  -14.9290 C   0  0  0  0  0  0  0  0  0  0  0  0
   -9.6193   17.6706  -13.6884 O   0  0  0  0  0  0  0  0  0  0  0  0
   -8.2827   19.0229  -14.9739 C   0  0  0  0  0  0  0  0  0  0  0  0
   -8.2617   20.1788  -15.7812 O   0  0  0  0  0  0  0  0  0  0  0  0
   -8.0013   19.3877  -13.5370 C   0  0  0  0  0  0  0  0  0  0  0  0
   -8.7568   20.5203  -13.1541 O   0  0  0  0  0  0  0  0  0  0  0  0
   -8.6353   18.2319  -12.8324 C   0  0  0  0  0  0  0  0  0  0  0  0
   -8.9071   20.8200  -15.4447 H   0  0  0  0  0  0  0  0  0  0  0  0
   -9.6974   20.3538  -13.3229 H   0  0  0  0  0  0  0  0  0  0  0  0
   -7.7279   17.1417  -12.4723 N   0  0  0  0  0  0  0  0  0  0  0  0
   -7.2552   16.1180  -13.2479 C   0  0  0  0  0  0  0  0  0  0  0  0
   -6.4773   15.3027  -12.4790 N   0  0  0  0  0  0  0  0  0  0  0  0
   -6.4441   15.8087  -11.2224 C   0  0  0  0  0  0  0  0  0  0  0  0
   -5.8137   15.4029  -10.0494 C   0  0  0  0  0  0  0  0  0  0  0  0
   -5.0442   14.2994   -9.9691 N   0  0  0  0  0  0  0  0  0  0  0  0
   -6.0285   16.1731   -8.9327 N   0  0  0  0  0  0  0  0  0  0  0  0
   -6.8014   17.3214   -8.9693 C   0  0  0  0  0  0  0  0  0  0  0  0
   -7.4107   17.7404  -10.1251 N   0  0  0  0  0  0  0  0  0  0  0  0
   -7.2298   16.9679  -11.2147 C   0  0  0  0  0  0  0  0  0  0  0  0
   -4.8903   13.7474  -10.7696 H   0  0  0  0  0  0  0  0  0  0  0  0
   -4.6361   14.0453   -9.1100 H   0  0  0  0  0  0  0  0  0  0  0  0
   -9.8146   17.4629  -16.1412 C   0  0  0  0  0  0  0  0  0  0  0  0
  -10.5241   15.8349  -15.7985 S   0  0  0  0  0  0  0  0  0  0  0  0
   -9.0640   14.8835  -16.3325 C   0  0  0  0  0  0  0  0  0  0  0  0
   -7.9884   15.7236  -17.0205 C   0  0  0  0  0  0  0  0  0  0  0  0
   -8.2148   13.8913  -18.5986 N   0  0  0  0  0  0  0  0  0  0  0  0
   -7.4237   15.0871  -18.2851 C   0  0  0  0  0  0  0  0  0  0  0  0
   -9.1964   14.1497  -18.6989 H   0  0  0  0  0  0  0  0  0  0  0  0
   -8.1175   13.2118  -17.8441 H   0  0  0  0  0  0  0  0  0  0  0  0
   -5.9370   14.7824  -18.1188 C   0  0  0  0  0  0  0  0  0  0  0  0
   -5.5131   14.2774  -17.0553 O   0  0  0  0  0  0  0  0  0  0  0  0
   -5.1414   14.9893  -19.0609 O   0  0  0  0  0  0  0  0  0  0  0  0
   -5.4505   15.3671  -19.8607 H   0  0  0  0  0  0  0  0  0  0  0  0
 26 27  1  0  0  0
 27 25  1  0  0  0
 27 30  1  0  0  0
 25 24  1  0  0  0
 24 23  1  0  0  0
 23 22  1  0  0  0
 30 31  2  0  0  0
 30 32  1  0  0  0
 22  1  1  0  0  0
  1  2  1  0  0  0
  1  3  1  0  0  0
  2  7  1  0  0  0
  3  4  1  0  0  0
  3  5  1  0  0  0
  5  6  1  0  0  0
  5  7  1  0  0  0
  7 10  1  0  0  0
 10 11  1  0  0  0
 10 19  1  0  0  0
 11 12  2  0  0  0
 12 13  1  0  0  0
 13 14  1  0  0  0
 13 19  2  0  0  0
 14 15  1  0  0  0
 14 16  2  0  0  0
 16 17  1  0  0  0
 17 18  2  0  0  0
 18 19  1  0  0  0
 26 28  1  0  0  0
 26 29  1  0  0  0
 32 33  1  0  0  0
  4  8  1  0  0  0
  6  9  1  0  0  0
 15 20  1  0  0  0
 15 21  1  0  0  0
M  END
> <minimizedAffinity>
-6.38585

$$$$
6BM6_SAH_A_1301


 33 35  0  0  0  0  0  0  0  0999 V2000
   -9.0102   14.3100  -13.3241 C   0  0  0  0  0  0  0  0  0  0  0  0
   -8.9696   14.8101  -14.6577 O   0  0  0  0  0  0  0  0  0  0  0  0
   -8.5738   15.5018  -12.5054 C   0  0  0  0  0  0  0  0  0  0  0  0
   -8.0051   15.1313  -11.2694 O   0  0  0  0  0  0  0  0  0  0  0  0
   -7.5409   16.1836  -13.3687 C   0  0  0  0  0  0  0  0  0  0  0  0
   -6.3227   15.4655  -13.3482 O   0  0  0  0  0  0  0  0  0  0  0  0
   -8.1187   15.9448  -14.7264 C   0  0  0  0  0  0  0  0  0  0  0  0
   -7.2382   14.5582  -11.4252 H   0  0  0  0  0  0  0  0  0  0  0  0
   -6.4849   14.5459  -13.6107 H   0  0  0  0  0  0  0  0  0  0  0  0
   -8.9282   17.0383  -15.2655 N   0  0  0  0  0  0  0  0  0  0  0  0
   -9.3835   18.1671  -14.6400 C   0  0  0  0  0  0  0  0  0  0  0  0
  -10.1474   18.8814  -15.5161 N   0  0  0  0  0  0  0  0  0  0  0  0
  -10.1707   18.2184  -16.6977 C   0  0  0  0  0  0  0  0  0  0  0  0
  -10.7751   18.4803  -17.9240 C   0  0  0  0  0  0  0  0  0  0  0  0
  -11.5327   19.5705  -18.1553 N   0  0  0  0  0  0  0  0  0  0  0  0
  -10.5910   17.5487  -18.9164 N   0  0  0  0  0  0  0  0  0  0  0  0
   -9.8119   16.4195  -18.7293 C   0  0  0  0  0  0  0  0  0  0  0  0
   -9.1959   16.1625  -17.5305 N   0  0  0  0  0  0  0  0  0  0  0  0
   -9.4027   17.0574  -16.5439 C   0  0  0  0  0  0  0  0  0  0  0  0
  -11.6646   20.2382  -17.4439 H   0  0  0  0  0  0  0  0  0  0  0  0
  -11.9542   19.6993  -19.0356 H   0  0  0  0  0  0  0  0  0  0  0  0
  -10.3986   13.8667  -12.8785 C   0  0  0  0  0  0  0  0  0  0  0  0
  -11.7018   14.0287  -14.1221 S   0  0  0  0  0  0  0  0  0  0  0  0
  -11.9219   12.2392  -14.3899 C   0  0  0  0  0  0  0  0  0  0  0  0
  -10.7121   11.5483  -15.0183 C   0  0  0  0  0  0  0  0  0  0  0  0
  -11.0063   10.0366  -16.8963 N   0  0  0  0  0  0  0  0  0  0  0  0
  -10.7824   11.4420  -16.5371 C   0  0  0  0  0  0  0  0  0  0  0  0
  -11.8567    9.7013  -16.4436 H   0  0  0  0  0  0  0  0  0  0  0  0
  -10.2125    9.4759  -16.5866 H   0  0  0  0  0  0  0  0  0  0  0  0
   -9.5230   12.0199  -17.1780 C   0  0  0  0  0  0  0  0  0  0  0  0
   -8.8425   11.3258  -17.9660 O   0  0  0  0  0  0  0  0  0  0  0  0
   -9.1906   13.2051  -16.9588 O   0  0  0  0  0  0  0  0  0  0  0  0
   -9.6947   13.7318  -16.3702 H   0  0  0  0  0  0  0  0  0  0  0  0
 26 27  1  0  0  0
 27 25  1  0  0  0
 27 30  1  0  0  0
 25 24  1  0  0  0
 24 23  1  0  0  0
 23 22  1  0  0  0
 30 31  2  0  0  0
 30 32  1  0  0  0
 22  1  1  0  0  0
  1  2  1  0  0  0
  1  3  1  0  0  0
  2  7  1  0  0  0
  3  4  1  0  0  0
  3  5  1  0  0  0
  5  6  1  0  0  0
  5  7  1  0  0  0
  7 10  1  0  0  0
 10 11  1  0  0  0
 10 19  1  0  0  0
 11 12  2  0  0  0
 12 13  1  0  0  0
 13 14  1  0  0  0
 13 19  2  0  0  0
 14 15  1  0  0  0
 14 16  2  0  0  0
 16 17  1  0  0  0
 17 18  2  0  0  0
 18 19  1  0  0  0
 26 28  1  0  0  0
 26 29  1  0  0  0
 32 33  1  0  0  0
  4  8  1  0  0  0
  6  9  1  0  0  0
 15 20  1  0  0  0
 15 21  1  0  0  0
M  END
> <minimizedAffinity>
-6.27681

$$$$
6BM6_SAH_A_1301


 33 35  0  0  0  0  0  0  0  0999 V2000
   -8.4208   13.8497  -17.7835 C   0  0  0  0  0  0  0  0  0  0  0  0
   -8.4753   15.0681  -17.0469 O   0  0  0  0  0  0  0  0  0  0  0  0
   -7.0259   13.3464  -17.4970 C   0  0  0  0  0  0  0  0  0  0  0  0
   -6.5387   12.4943  -18.5093 O   0  0  0  0  0  0  0  0  0  0  0  0
   -6.1892   14.6002  -17.4262 C   0  0  0  0  0  0  0  0  0  0  0  0
   -5.9569   15.1172  -18.7219 O   0  0  0  0  0  0  0  0  0  0  0  0
   -7.1613   15.5421  -16.7921 C   0  0  0  0  0  0  0  0  0  0  0  0
   -6.5352   12.9672  -19.3562 H   0  0  0  0  0  0  0  0  0  0  0  0
   -6.8051   15.2557  -19.1716 H   0  0  0  0  0  0  0  0  0  0  0  0
   -7.0447   15.6813  -15.3400 N   0  0  0  0  0  0  0  0  0  0  0  0
   -6.2429   14.9971  -14.4671 C   0  0  0  0  0  0  0  0  0  0  0  0
   -6.5067   15.4217  -13.1977 N   0  0  0  0  0  0  0  0  0  0  0  0
   -7.4633   16.3793  -13.2603 C   0  0  0  0  0  0  0  0  0  0  0  0
   -8.1007   17.1523  -12.2938 C   0  0  0  0  0  0  0  0  0  0  0  0
   -7.8358   17.0519  -10.9763 N   0  0  0  0  0  0  0  0  0  0  0  0
   -9.0587   18.0312  -12.7368 N   0  0  0  0  0  0  0  0  0  0  0  0
   -9.3568   18.1774  -14.0810 C   0  0  0  0  0  0  0  0  0  0  0  0
   -8.7202   17.4343  -15.0429 N   0  0  0  0  0  0  0  0  0  0  0  0
   -7.8038   16.5464  -14.6084 C   0  0  0  0  0  0  0  0  0  0  0  0
   -7.1491   16.4220  -10.6588 H   0  0  0  0  0  0  0  0  0  0  0  0
   -8.3290   17.6087  -10.3313 H   0  0  0  0  0  0  0  0  0  0  0  0
   -9.4402   12.8125  -17.3275 C   0  0  0  0  0  0  0  0  0  0  0  0
  -10.9937   13.4805  -16.6858 S   0  0  0  0  0  0  0  0  0  0  0  0
  -11.3740   12.0581  -15.6114 C   0  0  0  0  0  0  0  0  0  0  0  0
  -10.5921   10.7902  -15.9536 C   0  0  0  0  0  0  0  0  0  0  0  0
  -12.1884    8.9902  -15.6214 N   0  0  0  0  0  0  0  0  0  0  0  0
  -11.4271    9.7179  -16.6437 C   0  0  0  0  0  0  0  0  0  0  0  0
  -12.7611    9.6474  -15.0919 H   0  0  0  0  0  0  0  0  0  0  0  0
  -11.5428    8.5162  -14.9899 H   0  0  0  0  0  0  0  0  0  0  0  0
  -10.5412    8.8001  -17.4825 C   0  0  0  0  0  0  0  0  0  0  0  0
  -10.8663    7.6055  -17.6642 O   0  0  0  0  0  0  0  0  0  0  0  0
   -9.5121    9.2478  -18.0337 O   0  0  0  0  0  0  0  0  0  0  0  0
   -9.2615   10.1411  -17.9029 H   0  0  0  0  0  0  0  0  0  0  0  0
 26 27  1  0  0  0
 27 25  1  0  0  0
 27 30  1  0  0  0
 25 24  1  0  0  0
 24 23  1  0  0  0
 23 22  1  0  0  0
 30 31  2  0  0  0
 30 32  1  0  0  0
 22  1  1  0  0  0
  1  2  1  0  0  0
  1  3  1  0  0  0
  2  7  1  0  0  0
  3  4  1  0  0  0
  3  5  1  0  0  0
  5  6  1  0  0  0
  5  7  1  0  0  0
  7 10  1  0  0  0
 10 11  1  0  0  0
 10 19  1  0  0  0
 11 12  2  0  0  0
 12 13  1  0  0  0
 13 14  1  0  0  0
 13 19  2  0  0  0
 14 15  1  0  0  0
 14 16  2  0  0  0
 16 17  1  0  0  0
 17 18  2  0  0  0
 18 19  1  0  0  0
 26 28  1  0  0  0
 26 29  1  0  0  0
 32 33  1  0  0  0
  4  8  1  0  0  0
  6  9  1  0  0  0
 15 20  1  0  0  0
 15 21  1  0  0  0
M  END
> <minimizedAffinity>
-6.19323

$$$$
6BM6_SAH_A_1301


 33 35  0  0  0  0  0  0  0  0999 V2000
   -9.4945   17.9583  -12.4783 C   0  0  0  0  0  0  0  0  0  0  0  0
   -8.6088   17.6934  -13.5625 O   0  0  0  0  0  0  0  0  0  0  0  0
  -10.7586   18.3990  -13.1776 C   0  0  0  0  0  0  0  0  0  0  0  0
  -11.5654   19.2255  -12.3688 O   0  0  0  0  0  0  0  0  0  0  0  0
  -10.2661   19.1688  -14.3784 C   0  0  0  0  0  0  0  0  0  0  0  0
   -9.7922   20.4440  -13.9919 O   0  0  0  0  0  0  0  0  0  0  0  0
   -9.0445   18.3807  -14.7261 C   0  0  0  0  0  0  0  0  0  0  0  0
  -11.0612   20.0109  -12.1047 H   0  0  0  0  0  0  0  0  0  0  0  0
   -9.1140   20.3426  -13.3058 H   0  0  0  0  0  0  0  0  0  0  0  0
   -9.2267   17.3653  -15.7640 N   0  0  0  0  0  0  0  0  0  0  0  0
  -10.3821   16.7865  -16.2144 C   0  0  0  0  0  0  0  0  0  0  0  0
  -10.0702   15.8496  -17.1558 N   0  0  0  0  0  0  0  0  0  0  0  0
   -8.7245   15.8380  -17.3140 C   0  0  0  0  0  0  0  0  0  0  0  0
   -7.8685   15.1025  -18.1289 C   0  0  0  0  0  0  0  0  0  0  0  0
   -8.2993   14.1634  -18.9942 N   0  0  0  0  0  0  0  0  0  0  0  0
   -6.5242   15.3533  -18.0007 N   0  0  0  0  0  0  0  0  0  0  0  0
   -6.0355   16.3162  -17.1342 C   0  0  0  0  0  0  0  0  0  0  0  0
   -6.8724   17.0601  -16.3412 N   0  0  0  0  0  0  0  0  0  0  0  0
   -8.1898   16.7924  -16.4397 C   0  0  0  0  0  0  0  0  0  0  0  0
   -9.2629   13.9837  -19.0860 H   0  0  0  0  0  0  0  0  0  0  0  0
   -7.6504   13.6571  -19.5344 H   0  0  0  0  0  0  0  0  0  0  0  0
   -9.7889   16.7367  -11.6158 C   0  0  0  0  0  0  0  0  0  0  0  0
   -9.8347   17.0376   -9.8330 S   0  0  0  0  0  0  0  0  0  0  0  0
   -8.4759   15.8951   -9.4201 C   0  0  0  0  0  0  0  0  0  0  0  0
   -7.2463   16.5774   -8.8213 C   0  0  0  0  0  0  0  0  0  0  0  0
   -6.2820   15.9653  -10.9646 N   0  0  0  0  0  0  0  0  0  0  0  0
   -6.1633   16.9042   -9.8427 C   0  0  0  0  0  0  0  0  0  0  0  0
   -7.2201   16.0253  -11.3605 H   0  0  0  0  0  0  0  0  0  0  0  0
   -6.1132   15.0157  -10.6326 H   0  0  0  0  0  0  0  0  0  0  0  0
   -4.7818   16.8742   -9.1936 C   0  0  0  0  0  0  0  0  0  0  0  0
   -4.6725   16.8356   -7.9477 O   0  0  0  0  0  0  0  0  0  0  0  0
   -3.7524   16.8381   -9.9025 O   0  0  0  0  0  0  0  0  0  0  0  0
   -3.8254   16.8665  -10.8362 H   0  0  0  0  0  0  0  0  0  0  0  0
 26 27  1  0  0  0
 27 25  1  0  0  0
 27 30  1  0  0  0
 25 24  1  0  0  0
 24 23  1  0  0  0
 23 22  1  0  0  0
 30 31  2  0  0  0
 30 32  1  0  0  0
 22  1  1  0  0  0
  1  2  1  0  0  0
  1  3  1  0  0  0
  2  7  1  0  0  0
  3  4  1  0  0  0
  3  5  1  0  0  0
  5  6  1  0  0  0
  5  7  1  0  0  0
  7 10  1  0  0  0
 10 11  1  0  0  0
 10 19  1  0  0  0
 11 12  2  0  0  0
 12 13  1  0  0  0
 13 14  1  0  0  0
 13 19  2  0  0  0
 14 15  1  0  0  0
 14 16  2  0  0  0
 16 17  1  0  0  0
 17 18  2  0  0  0
 18 19  1  0  0  0
 26 28  1  0  0  0
 26 29  1  0  0  0
 32 33  1  0  0  0
  4  8  1  0  0  0
  6  9  1  0  0  0
 15 20  1  0  0  0
 15 21  1  0  0  0
M  END
> <minimizedAffinity>
-6.13256

$$$$
