2H4G_694_A_300


 24 25  0  0  0  0  0  0  0  0999 V2000
   45.2211   13.2216    0.9474 C   0  0  0  0  0  0  0  0  0  0  0  0
   45.8443   13.4267    2.1845 C   0  0  0  0  0  0  0  0  0  0  0  0
   45.6784   14.7651    2.7020 C   0  0  0  0  0  0  0  0  0  0  0  0
   44.9387   15.5557    1.8241 C   0  0  0  0  0  0  0  0  0  0  0  0
   44.4423   14.6751    0.4399 S   0  0  0  0  0  0  0  0  0  0  0  0
   46.8238   12.1139    3.1395 Br  0  0  0  0  0  0  0  0  0  0  0  0
   45.5288   12.0543   -1.3185 C   0  0  0  0  0  0  0  0  0  0  0  0
   45.4519   10.9010   -2.1429 C   0  0  0  0  0  0  0  0  0  0  0  0
   44.9784    9.6866   -1.5940 C   0  0  0  0  0  0  0  0  0  0  0  0
   44.5845    9.6111   -0.2275 C   0  0  0  0  0  0  0  0  0  0  0  0
   44.6647   10.7684    0.6008 C   0  0  0  0  0  0  0  0  0  0  0  0
   45.1391   12.0099    0.0724 C   0  0  0  0  0  0  0  0  0  0  0  0
   44.8900    8.5588   -2.3672 O   0  0  0  0  0  0  0  0  0  0  0  0
   45.1443    8.5877   -3.2686 H   0  0  0  0  0  0  0  0  0  0  0  0
   44.5906   17.0816    2.0017 C   0  0  0  0  0  0  0  0  0  0  0  0
   44.3238   17.4944    3.1785 O   0  0  0  0  0  0  0  0  0  0  0  0
   44.6079   17.7784    0.9442 O   0  0  0  0  0  0  0  0  0  0  0  0
   44.3378   16.8959    3.8993 H   0  0  0  0  0  0  0  0  0  0  0  0
   46.1888   15.2339    3.9041 O   0  0  0  0  0  0  0  0  0  0  0  0
   47.4530   15.9427    3.7555 C   0  0  0  0  0  0  0  0  0  0  0  0
   47.4669   17.1300    4.7352 C   0  0  0  0  0  0  0  0  0  0  0  0
   48.6063   17.5739    5.0554 O   0  0  0  0  0  0  0  0  0  0  0  0
   46.3284   17.5181    5.1093 O   0  0  0  0  0  0  0  0  0  0  0  0
   49.3789   17.1841    4.6961 H   0  0  0  0  0  0  0  0  0  0  0  0
  7  8  2  0  0  0
  7 12  1  0  0  0
  8  9  1  0  0  0
  9 10  2  0  0  0
  9 13  1  0  0  0
 10 11  1  0  0  0
 11 12  2  0  0  0
 12  1  1  0  0  0
  1  2  2  0  0  0
  1  5  1  0  0  0
  2  3  1  0  0  0
  2  6  1  0  0  0
  3  4  2  0  0  0
  3 19  1  0  0  0
  4  5  1  0  0  0
  4 15  1  0  0  0
 15 16  1  0  0  0
 15 17  2  0  0  0
 19 20  1  0  0  0
 20 21  1  0  0  0
 21 22  1  0  0  0
 21 23  2  0  0  0
 16 18  1  0  0  0
 22 24  1  0  0  0
 13 14  1  0  0  0
M  END
> <minimizedAffinity>
-7.85868

$$$$
2H4G_694_A_300


 24 25  0  0  0  0  0  0  0  0999 V2000
   45.4185   13.8215    1.3924 C   0  0  0  0  0  0  0  0  0  0  0  0
   45.7152   12.4675    1.1938 C   0  0  0  0  0  0  0  0  0  0  0  0
   45.2687   11.9576   -0.0819 C   0  0  0  0  0  0  0  0  0  0  0  0
   44.6210   12.9467   -0.8201 C   0  0  0  0  0  0  0  0  0  0  0  0
   44.5960   14.4460    0.0102 S   0  0  0  0  0  0  0  0  0  0  0  0
   46.6157   11.3576    2.4396 Br  0  0  0  0  0  0  0  0  0  0  0  0
   47.0052   14.8044    3.1552 C   0  0  0  0  0  0  0  0  0  0  0  0
   47.2642   15.6742    4.2470 C   0  0  0  0  0  0  0  0  0  0  0  0
   46.2197   16.4828    4.7524 C   0  0  0  0  0  0  0  0  0  0  0  0
   44.9187   16.4346    4.1751 C   0  0  0  0  0  0  0  0  0  0  0  0
   44.6596   15.5635    3.0769 C   0  0  0  0  0  0  0  0  0  0  0  0
   45.6968   14.7340    2.5458 C   0  0  0  0  0  0  0  0  0  0  0  0
   46.4401   17.3287    5.8075 O   0  0  0  0  0  0  0  0  0  0  0  0
   47.2890   17.3751    6.2014 H   0  0  0  0  0  0  0  0  0  0  0  0
   43.9457   12.7727   -2.2325 C   0  0  0  0  0  0  0  0  0  0  0  0
   44.2657   11.7465   -2.9188 O   0  0  0  0  0  0  0  0  0  0  0  0
   43.1286   13.6800   -2.5691 O   0  0  0  0  0  0  0  0  0  0  0  0
   44.8839   11.1298   -2.5790 H   0  0  0  0  0  0  0  0  0  0  0  0
   45.4358   10.6562   -0.5333 O   0  0  0  0  0  0  0  0  0  0  0  0
   44.3984    9.7466   -0.0653 C   0  0  0  0  0  0  0  0  0  0  0  0
   44.0207    8.7996   -1.2187 C   0  0  0  0  0  0  0  0  0  0  0  0
   44.7683    8.8374   -2.2372 O   0  0  0  0  0  0  0  0  0  0  0  0
   42.9968    8.0962   -1.0093 O   0  0  0  0  0  0  0  0  0  0  0  0
   45.5051    9.4159   -2.2563 H   0  0  0  0  0  0  0  0  0  0  0  0
  7  8  2  0  0  0
  7 12  1  0  0  0
  8  9  1  0  0  0
  9 10  2  0  0  0
  9 13  1  0  0  0
 10 11  1  0  0  0
 11 12  2  0  0  0
 12  1  1  0  0  0
  1  2  2  0  0  0
  1  5  1  0  0  0
  2  3  1  0  0  0
  2  6  1  0  0  0
  3  4  2  0  0  0
  3 19  1  0  0  0
  4  5  1  0  0  0
  4 15  1  0  0  0
 15 16  1  0  0  0
 15 17  2  0  0  0
 19 20  1  0  0  0
 20 21  1  0  0  0
 21 22  1  0  0  0
 21 23  2  0  0  0
 16 18  1  0  0  0
 22 24  1  0  0  0
 13 14  1  0  0  0
M  END
> <minimizedAffinity>
-6.55912

$$$$
2H4G_694_A_300


 24 25  0  0  0  0  0  0  0  0999 V2000
   46.0047   12.7501    1.7002 C   0  0  0  0  0  0  0  0  0  0  0  0
   45.5042   12.5254    0.4118 C   0  0  0  0  0  0  0  0  0  0  0  0
   45.7227   11.1806   -0.0683 C   0  0  0  0  0  0  0  0  0  0  0  0
   46.4078   10.4153    0.8740 C   0  0  0  0  0  0  0  0  0  0  0  0
   46.7356   11.3072    2.3005 S   0  0  0  0  0  0  0  0  0  0  0  0
   44.6140   13.8197   -0.6500 Br  0  0  0  0  0  0  0  0  0  0  0  0
   47.1063   14.3012    3.4240 C   0  0  0  0  0  0  0  0  0  0  0  0
   47.0902   15.4633    4.2395 C   0  0  0  0  0  0  0  0  0  0  0  0
   45.9589   16.3118    4.2154 C   0  0  0  0  0  0  0  0  0  0  0  0
   44.8440   16.0134    3.3810 C   0  0  0  0  0  0  0  0  0  0  0  0
   44.8617   14.8482    2.5600 C   0  0  0  0  0  0  0  0  0  0  0  0
   45.9921   13.9720    2.5647 C   0  0  0  0  0  0  0  0  0  0  0  0
   45.9144   17.4379    4.9947 O   0  0  0  0  0  0  0  0  0  0  0  0
   46.6377   17.6518    5.5506 H   0  0  0  0  0  0  0  0  0  0  0  0
   46.8812    8.9224    0.7054 C   0  0  0  0  0  0  0  0  0  0  0  0
   46.8812    8.4312   -0.4715 O   0  0  0  0  0  0  0  0  0  0  0  0
   47.2284    8.3300    1.7697 O   0  0  0  0  0  0  0  0  0  0  0  0
   46.6043    8.9546   -1.1976 H   0  0  0  0  0  0  0  0  0  0  0  0
   45.3270   10.6916   -1.3050 O   0  0  0  0  0  0  0  0  0  0  0  0
   43.9301   10.2792   -1.3411 C   0  0  0  0  0  0  0  0  0  0  0  0
   43.8646    8.8109   -1.7988 C   0  0  0  0  0  0  0  0  0  0  0  0
   44.7274    8.4548   -2.6511 O   0  0  0  0  0  0  0  0  0  0  0  0
   42.9449    8.1336   -1.2674 O   0  0  0  0  0  0  0  0  0  0  0  0
   45.3602    9.0714   -2.9630 H   0  0  0  0  0  0  0  0  0  0  0  0
  7  8  2  0  0  0
  7 12  1  0  0  0
  8  9  1  0  0  0
  9 10  2  0  0  0
  9 13  1  0  0  0
 10 11  1  0  0  0
 11 12  2  0  0  0
 12  1  1  0  0  0
  1  2  2  0  0  0
  1  5  1  0  0  0
  2  3  1  0  0  0
  2  6  1  0  0  0
  3  4  2  0  0  0
  3 19  1  0  0  0
  4  5  1  0  0  0
  4 15  1  0  0  0
 15 16  1  0  0  0
 15 17  2  0  0  0
 19 20  1  0  0  0
 20 21  1  0  0  0
 21 22  1  0  0  0
 21 23  2  0  0  0
 16 18  1  0  0  0
 22 24  1  0  0  0
 13 14  1  0  0  0
M  END
> <minimizedAffinity>
-6.38878

$$$$
2H4G_694_A_300


 24 25  0  0  0  0  0  0  0  0999 V2000
   45.4927   13.3713    1.7384 C   0  0  0  0  0  0  0  0  0  0  0  0
   44.8924   13.4478    0.4756 C   0  0  0  0  0  0  0  0  0  0  0  0
   44.7703   12.1697   -0.1863 C   0  0  0  0  0  0  0  0  0  0  0  0
   45.3041   11.1459    0.5945 C   0  0  0  0  0  0  0  0  0  0  0  0
   45.8977   11.7318    2.0919 S   0  0  0  0  0  0  0  0  0  0  0  0
   44.2760   15.0445   -0.3403 Br  0  0  0  0  0  0  0  0  0  0  0  0
   44.8088   15.3879    3.1726 C   0  0  0  0  0  0  0  0  0  0  0  0
   45.1098   16.3887    4.1336 C   0  0  0  0  0  0  0  0  0  0  0  0
   46.4118   16.4543    4.6819 C   0  0  0  0  0  0  0  0  0  0  0  0
   47.4163   15.5269    4.2829 C   0  0  0  0  0  0  0  0  0  0  0  0
   47.1130   14.5203    3.3203 C   0  0  0  0  0  0  0  0  0  0  0  0
   45.8050   14.4307    2.7487 C   0  0  0  0  0  0  0  0  0  0  0  0
   46.7315   17.4119    5.6084 O   0  0  0  0  0  0  0  0  0  0  0  0
   46.0848   18.0314    5.8841 H   0  0  0  0  0  0  0  0  0  0  0  0
   45.4104    9.6242    0.2017 C   0  0  0  0  0  0  0  0  0  0  0  0
   44.4524    9.1188   -0.4716 O   0  0  0  0  0  0  0  0  0  0  0  0
   46.4554    9.0249    0.5928 O   0  0  0  0  0  0  0  0  0  0  0  0
   43.7188    9.6492   -0.7134 H   0  0  0  0  0  0  0  0  0  0  0  0
   44.2131   11.9607   -1.4397 O   0  0  0  0  0  0  0  0  0  0  0  0
   45.1878   12.0226   -2.5209 C   0  0  0  0  0  0  0  0  0  0  0  0
   44.8310   10.9482   -3.5640 C   0  0  0  0  0  0  0  0  0  0  0  0
   44.1614   11.3415   -4.5613 O   0  0  0  0  0  0  0  0  0  0  0  0
   45.2491    9.7911   -3.2931 O   0  0  0  0  0  0  0  0  0  0  0  0
   43.9159   12.2428   -4.6347 H   0  0  0  0  0  0  0  0  0  0  0  0
  7  8  2  0  0  0
  7 12  1  0  0  0
  8  9  1  0  0  0
  9 10  2  0  0  0
  9 13  1  0  0  0
 10 11  1  0  0  0
 11 12  2  0  0  0
 12  1  1  0  0  0
  1  2  2  0  0  0
  1  5  1  0  0  0
  2  3  1  0  0  0
  2  6  1  0  0  0
  3  4  2  0  0  0
  3 19  1  0  0  0
  4  5  1  0  0  0
  4 15  1  0  0  0
 15 16  1  0  0  0
 15 17  2  0  0  0
 19 20  1  0  0  0
 20 21  1  0  0  0
 21 22  1  0  0  0
 21 23  2  0  0  0
 16 18  1  0  0  0
 22 24  1  0  0  0
 13 14  1  0  0  0
M  END
> <minimizedAffinity>
-6.32610

$$$$
2H4G_694_A_300


 24 25  0  0  0  0  0  0  0  0999 V2000
   46.1069   12.2354    1.6380 C   0  0  0  0  0  0  0  0  0  0  0  0
   45.9273   11.5687    0.4197 C   0  0  0  0  0  0  0  0  0  0  0  0
   46.4328   10.2155    0.4199 C   0  0  0  0  0  0  0  0  0  0  0  0
   47.0060    9.8928    1.6488 C   0  0  0  0  0  0  0  0  0  0  0  0
   46.8938   11.1905    2.7630 S   0  0  0  0  0  0  0  0  0  0  0  0
   45.1051   12.3147   -1.1172 Br  0  0  0  0  0  0  0  0  0  0  0  0
   44.5129   14.2480    1.6264 C   0  0  0  0  0  0  0  0  0  0  0  0
   44.1656   15.5606    2.0411 C   0  0  0  0  0  0  0  0  0  0  0  0
   45.0378   16.2704    2.8989 C   0  0  0  0  0  0  0  0  0  0  0  0
   46.2526   15.6803    3.3507 C   0  0  0  0  0  0  0  0  0  0  0  0
   46.5997   14.3611    2.9366 C   0  0  0  0  0  0  0  0  0  0  0  0
   45.7370   13.6203    2.0691 C   0  0  0  0  0  0  0  0  0  0  0  0
   44.7299   17.5400    3.3121 O   0  0  0  0  0  0  0  0  0  0  0  0
   43.9354   17.9461    3.0261 H   0  0  0  0  0  0  0  0  0  0  0  0
   47.7135    8.5372    2.0272 C   0  0  0  0  0  0  0  0  0  0  0  0
   47.1546    7.4537    1.6530 O   0  0  0  0  0  0  0  0  0  0  0  0
   48.7944    8.6420    2.6790 O   0  0  0  0  0  0  0  0  0  0  0  0
   46.3508    7.4829    1.1722 H   0  0  0  0  0  0  0  0  0  0  0  0
   46.3815    9.3354   -0.6516 O   0  0  0  0  0  0  0  0  0  0  0  0
   47.4887    9.4984   -1.5844 C   0  0  0  0  0  0  0  0  0  0  0  0
   48.3026    8.1920   -1.6116 C   0  0  0  0  0  0  0  0  0  0  0  0
   47.6636    7.1329   -1.3511 O   0  0  0  0  0  0  0  0  0  0  0  0
   49.5230    8.3369   -1.8879 O   0  0  0  0  0  0  0  0  0  0  0  0
   46.7470    7.1735   -1.1612 H   0  0  0  0  0  0  0  0  0  0  0  0
  7  8  2  0  0  0
  7 12  1  0  0  0
  8  9  1  0  0  0
  9 10  2  0  0  0
  9 13  1  0  0  0
 10 11  1  0  0  0
 11 12  2  0  0  0
 12  1  1  0  0  0
  1  2  2  0  0  0
  1  5  1  0  0  0
  2  3  1  0  0  0
  2  6  1  0  0  0
  3  4  2  0  0  0
  3 19  1  0  0  0
  4  5  1  0  0  0
  4 15  1  0  0  0
 15 16  1  0  0  0
 15 17  2  0  0  0
 19 20  1  0  0  0
 20 21  1  0  0  0
 21 22  1  0  0  0
 21 23  2  0  0  0
 16 18  1  0  0  0
 22 24  1  0  0  0
 13 14  1  0  0  0
M  END
> <minimizedAffinity>
-5.97377

$$$$
2H4G_694_A_300


 24 25  0  0  0  0  0  0  0  0999 V2000
   44.3421   15.2212   -0.1192 C   0  0  0  0  0  0  0  0  0  0  0  0
   44.5332   15.7602    1.1591 C   0  0  0  0  0  0  0  0  0  0  0  0
   45.1775   14.8528    2.0800 C   0  0  0  0  0  0  0  0  0  0  0  0
   45.4462   13.6270    1.4733 C   0  0  0  0  0  0  0  0  0  0  0  0
   44.9562   13.6096   -0.1691 S   0  0  0  0  0  0  0  0  0  0  0  0
   44.0199   17.5062    1.6908 Br  0  0  0  0  0  0  0  0  0  0  0  0
   44.3755   16.8692   -2.0875 C   0  0  0  0  0  0  0  0  0  0  0  0
   43.7919   17.4160   -3.2606 C   0  0  0  0  0  0  0  0  0  0  0  0
   42.5515   16.9129   -3.7172 C   0  0  0  0  0  0  0  0  0  0  0  0
   41.8893   15.8652   -3.0157 C   0  0  0  0  0  0  0  0  0  0  0  0
   42.4769   15.3143   -1.8396 C   0  0  0  0  0  0  0  0  0  0  0  0
   43.7302   15.8040   -1.3546 C   0  0  0  0  0  0  0  0  0  0  0  0
   41.9632   17.4242   -4.8441 O   0  0  0  0  0  0  0  0  0  0  0  0
   42.3828   18.1138   -5.3199 H   0  0  0  0  0  0  0  0  0  0  0  0
   46.0885   12.3620    2.1577 C   0  0  0  0  0  0  0  0  0  0  0  0
   47.2128   12.5117    2.7407 O   0  0  0  0  0  0  0  0  0  0  0  0
   45.4216   11.2888    2.0702 O   0  0  0  0  0  0  0  0  0  0  0  0
   47.6276   13.3519    2.7498 H   0  0  0  0  0  0  0  0  0  0  0  0
   45.4873   15.1322    3.4034 O   0  0  0  0  0  0  0  0  0  0  0  0
   46.7407   15.8581    3.5606 C   0  0  0  0  0  0  0  0  0  0  0  0
   46.4849   17.0910    4.4462 C   0  0  0  0  0  0  0  0  0  0  0  0
   47.4783   17.8455    4.6500 O   0  0  0  0  0  0  0  0  0  0  0  0
   45.3040   17.1987    4.8713 O   0  0  0  0  0  0  0  0  0  0  0  0
   48.3082   17.6413    4.2659 H   0  0  0  0  0  0  0  0  0  0  0  0
  7  8  2  0  0  0
  7 12  1  0  0  0
  8  9  1  0  0  0
  9 10  2  0  0  0
  9 13  1  0  0  0
 10 11  1  0  0  0
 11 12  2  0  0  0
 12  1  1  0  0  0
  1  2  2  0  0  0
  1  5  1  0  0  0
  2  3  1  0  0  0
  2  6  1  0  0  0
  3  4  2  0  0  0
  3 19  1  0  0  0
  4  5  1  0  0  0
  4 15  1  0  0  0
 15 16  1  0  0  0
 15 17  2  0  0  0
 19 20  1  0  0  0
 20 21  1  0  0  0
 21 22  1  0  0  0
 21 23  2  0  0  0
 16 18  1  0  0  0
 22 24  1  0  0  0
 13 14  1  0  0  0
M  END
> <minimizedAffinity>
-5.96572

$$$$
2H4G_694_A_300


 24 25  0  0  0  0  0  0  0  0999 V2000
   45.1086   12.5326    0.3933 C   0  0  0  0  0  0  0  0  0  0  0  0
   45.8534   11.5445    1.0490 C   0  0  0  0  0  0  0  0  0  0  0  0
   45.9941   10.3247    0.2882 C   0  0  0  0  0  0  0  0  0  0  0  0
   45.3289   10.4142   -0.9334 C   0  0  0  0  0  0  0  0  0  0  0  0
   44.5931   11.9476   -1.1458 S   0  0  0  0  0  0  0  0  0  0  0  0
   46.6301   11.7300    2.7686 Br  0  0  0  0  0  0  0  0  0  0  0  0
   44.4222   14.9422   -0.1671 C   0  0  0  0  0  0  0  0  0  0  0  0
   44.0598   16.2558    0.2315 C   0  0  0  0  0  0  0  0  0  0  0  0
   44.0047   16.5721    1.6089 C   0  0  0  0  0  0  0  0  0  0  0  0
   44.3040   15.5876    2.5935 C   0  0  0  0  0  0  0  0  0  0  0  0
   44.6649   14.2680    2.1932 C   0  0  0  0  0  0  0  0  0  0  0  0
   44.7293   13.9201    0.8073 C   0  0  0  0  0  0  0  0  0  0  0  0
   43.6617   17.8326    2.0223 O   0  0  0  0  0  0  0  0  0  0  0  0
   43.4611   18.4946    1.3902 H   0  0  0  0  0  0  0  0  0  0  0  0
   45.2012    9.2788   -2.0178 C   0  0  0  0  0  0  0  0  0  0  0  0
   44.1401    8.5714   -2.0114 O   0  0  0  0  0  0  0  0  0  0  0  0
   46.1777    9.1660   -2.8164 O   0  0  0  0  0  0  0  0  0  0  0  0
   43.4718    8.7349   -1.3753 H   0  0  0  0  0  0  0  0  0  0  0  0
   46.6824    9.1924    0.6999 O   0  0  0  0  0  0  0  0  0  0  0  0
   48.1135    9.2604    0.4353 C   0  0  0  0  0  0  0  0  0  0  0  0
   48.8674    8.8232    1.7042 C   0  0  0  0  0  0  0  0  0  0  0  0
   50.1258    8.9382    1.6712 O   0  0  0  0  0  0  0  0  0  0  0  0
   48.1323    8.3929    2.6323 O   0  0  0  0  0  0  0  0  0  0  0  0
   50.5452    9.2781    0.9054 H   0  0  0  0  0  0  0  0  0  0  0  0
  7  8  2  0  0  0
  7 12  1  0  0  0
  8  9  1  0  0  0
  9 10  2  0  0  0
  9 13  1  0  0  0
 10 11  1  0  0  0
 11 12  2  0  0  0
 12  1  1  0  0  0
  1  2  2  0  0  0
  1  5  1  0  0  0
  2  3  1  0  0  0
  2  6  1  0  0  0
  3  4  2  0  0  0
  3 19  1  0  0  0
  4  5  1  0  0  0
  4 15  1  0  0  0
 15 16  1  0  0  0
 15 17  2  0  0  0
 19 20  1  0  0  0
 20 21  1  0  0  0
 21 22  1  0  0  0
 21 23  2  0  0  0
 16 18  1  0  0  0
 22 24  1  0  0  0
 13 14  1  0  0  0
M  END
> <minimizedAffinity>
-5.89808

$$$$
2H4G_694_A_300


 24 25  0  0  0  0  0  0  0  0999 V2000
   45.4432   13.6076    1.4590 C   0  0  0  0  0  0  0  0  0  0  0  0
   45.7718   12.2478    1.3952 C   0  0  0  0  0  0  0  0  0  0  0  0
   45.3814   11.6149    0.1569 C   0  0  0  0  0  0  0  0  0  0  0  0
   44.7427   12.5187   -0.6905 C   0  0  0  0  0  0  0  0  0  0  0  0
   44.6600   14.0862   -0.0020 S   0  0  0  0  0  0  0  0  0  0  0  0
   46.6469   11.2752    2.7674 Br  0  0  0  0  0  0  0  0  0  0  0  0
   44.6162   15.5389    2.9345 C   0  0  0  0  0  0  0  0  0  0  0  0
   44.8290   16.5014    3.9563 C   0  0  0  0  0  0  0  0  0  0  0  0
   46.0919   16.5735    4.5889 C   0  0  0  0  0  0  0  0  0  0  0  0
   47.1443   15.6901    4.2141 C   0  0  0  0  0  0  0  0  0  0  0  0
   46.9294   14.7217    3.1904 C   0  0  0  0  0  0  0  0  0  0  0  0
   45.6626   14.6267    2.5331 C   0  0  0  0  0  0  0  0  0  0  0  0
   46.3268   17.4950    5.5754 O   0  0  0  0  0  0  0  0  0  0  0  0
   45.6475   18.0852    5.8365 H   0  0  0  0  0  0  0  0  0  0  0  0
   44.1223   12.2028   -2.1035 C   0  0  0  0  0  0  0  0  0  0  0  0
   44.1910   13.1111   -2.9961 O   0  0  0  0  0  0  0  0  0  0  0  0
   43.6025   11.0552   -2.2340 O   0  0  0  0  0  0  0  0  0  0  0  0
   44.5983   13.9316   -2.7992 H   0  0  0  0  0  0  0  0  0  0  0  0
   45.5888   10.2819   -0.1678 O   0  0  0  0  0  0  0  0  0  0  0  0
   46.8959   10.0300   -0.7599 C   0  0  0  0  0  0  0  0  0  0  0  0
   46.6977    9.6338   -2.2342 C   0  0  0  0  0  0  0  0  0  0  0  0
   45.7711    8.8066   -2.4682 O   0  0  0  0  0  0  0  0  0  0  0  0
   47.4953   10.1834   -3.0396 O   0  0  0  0  0  0  0  0  0  0  0  0
   45.2494    8.4757   -1.7637 H   0  0  0  0  0  0  0  0  0  0  0  0
  7  8  2  0  0  0
  7 12  1  0  0  0
  8  9  1  0  0  0
  9 10  2  0  0  0
  9 13  1  0  0  0
 10 11  1  0  0  0
 11 12  2  0  0  0
 12  1  1  0  0  0
  1  2  2  0  0  0
  1  5  1  0  0  0
  2  3  1  0  0  0
  2  6  1  0  0  0
  3  4  2  0  0  0
  3 19  1  0  0  0
  4  5  1  0  0  0
  4 15  1  0  0  0
 15 16  1  0  0  0
 15 17  2  0  0  0
 19 20  1  0  0  0
 20 21  1  0  0  0
 21 22  1  0  0  0
 21 23  2  0  0  0
 16 18  1  0  0  0
 22 24  1  0  0  0
 13 14  1  0  0  0
M  END
> <minimizedAffinity>
-5.67126

$$$$
2H4G_694_A_300


 24 25  0  0  0  0  0  0  0  0999 V2000
   46.1675   12.3571    1.6286 C   0  0  0  0  0  0  0  0  0  0  0  0
   46.0519   11.7260    0.3839 C   0  0  0  0  0  0  0  0  0  0  0  0
   46.6071   10.3927    0.3566 C   0  0  0  0  0  0  0  0  0  0  0  0
   47.1521   10.0494    1.5927 C   0  0  0  0  0  0  0  0  0  0  0  0
   46.9561   11.3035    2.7444 S   0  0  0  0  0  0  0  0  0  0  0  0
   45.2524   12.4937   -1.1543 Br  0  0  0  0  0  0  0  0  0  0  0  0
   46.5562   14.5103    2.9718 C   0  0  0  0  0  0  0  0  0  0  0  0
   46.1401   15.7964    3.4058 C   0  0  0  0  0  0  0  0  0  0  0  0
   44.8924   16.3039    2.9744 C   0  0  0  0  0  0  0  0  0  0  0  0
   44.0570   15.5408    2.1096 C   0  0  0  0  0  0  0  0  0  0  0  0
   44.4763   14.2507    1.6715 C   0  0  0  0  0  0  0  0  0  0  0  0
   45.7327   13.7122    2.0923 C   0  0  0  0  0  0  0  0  0  0  0  0
   44.4638   17.5403    3.3805 O   0  0  0  0  0  0  0  0  0  0  0  0
   44.9987   18.0581    3.9495 H   0  0  0  0  0  0  0  0  0  0  0  0
   47.8969    8.7081    1.9498 C   0  0  0  0  0  0  0  0  0  0  0  0
   49.1059    8.7906    2.3473 O   0  0  0  0  0  0  0  0  0  0  0  0
   47.2195    7.6469    1.8113 O   0  0  0  0  0  0  0  0  0  0  0  0
   49.5203    9.6282    2.4163 H   0  0  0  0  0  0  0  0  0  0  0  0
   46.6229    9.5482   -0.7443 O   0  0  0  0  0  0  0  0  0  0  0  0
   47.7981    9.7230   -1.5874 C   0  0  0  0  0  0  0  0  0  0  0  0
   48.6553    8.4472   -1.5034 C   0  0  0  0  0  0  0  0  0  0  0  0
   49.8427    8.6003   -1.0978 O   0  0  0  0  0  0  0  0  0  0  0  0
   48.0660    7.3919   -1.8583 O   0  0  0  0  0  0  0  0  0  0  0  0
   50.1518    9.4535   -0.8647 H   0  0  0  0  0  0  0  0  0  0  0  0
  7  8  2  0  0  0
  7 12  1  0  0  0
  8  9  1  0  0  0
  9 10  2  0  0  0
  9 13  1  0  0  0
 10 11  1  0  0  0
 11 12  2  0  0  0
 12  1  1  0  0  0
  1  2  2  0  0  0
  1  5  1  0  0  0
  2  3  1  0  0  0
  2  6  1  0  0  0
  3  4  2  0  0  0
  3 19  1  0  0  0
  4  5  1  0  0  0
  4 15  1  0  0  0
 15 16  1  0  0  0
 15 17  2  0  0  0
 19 20  1  0  0  0
 20 21  1  0  0  0
 21 22  1  0  0  0
 21 23  2  0  0  0
 16 18  1  0  0  0
 22 24  1  0  0  0
 13 14  1  0  0  0
M  END
> <minimizedAffinity>
-5.48380

$$$$
2H4G_694_A_300


 24 25  0  0  0  0  0  0  0  0999 V2000
   47.2138   11.0357    1.2748 C   0  0  0  0  0  0  0  0  0  0  0  0
   48.0916   10.6061    0.2718 C   0  0  0  0  0  0  0  0  0  0  0  0
   48.7652    9.3668    0.5831 C   0  0  0  0  0  0  0  0  0  0  0  0
   48.3890    8.8914    1.8383 C   0  0  0  0  0  0  0  0  0  0  0  0
   47.2305    9.9115    2.5835 S   0  0  0  0  0  0  0  0  0  0  0  0
   48.4070   11.5176   -1.3606 Br  0  0  0  0  0  0  0  0  0  0  0  0
   46.4190   13.1654    2.4680 C   0  0  0  0  0  0  0  0  0  0  0  0
   45.5786   14.3072    2.5442 C   0  0  0  0  0  0  0  0  0  0  0  0
   44.6297   14.5393    1.5216 C   0  0  0  0  0  0  0  0  0  0  0  0
   44.5142   13.6439    0.4201 C   0  0  0  0  0  0  0  0  0  0  0  0
   45.3601   12.4993    0.3422 C   0  0  0  0  0  0  0  0  0  0  0  0
   46.3283   12.2393    1.3624 C   0  0  0  0  0  0  0  0  0  0  0  0
   43.8031   15.6310    1.5711 O   0  0  0  0  0  0  0  0  0  0  0  0
   43.8633   16.2320    2.2874 H   0  0  0  0  0  0  0  0  0  0  0  0
   48.9407    7.6034    2.5579 C   0  0  0  0  0  0  0  0  0  0  0  0
   49.7911    7.7673    3.4941 O   0  0  0  0  0  0  0  0  0  0  0  0
   48.4835    6.4989    2.1395 O   0  0  0  0  0  0  0  0  0  0  0  0
   50.0672    8.6309    3.7303 H   0  0  0  0  0  0  0  0  0  0  0  0
   49.6812    8.7196   -0.2337 O   0  0  0  0  0  0  0  0  0  0  0  0
   50.9913    9.3570   -0.2478 C   0  0  0  0  0  0  0  0  0  0  0  0
   51.8868    8.6590    0.7917 C   0  0  0  0  0  0  0  0  0  0  0  0
   52.0389    9.2641    1.8910 O   0  0  0  0  0  0  0  0  0  0  0  0
   52.3708    7.5583    0.4162 O   0  0  0  0  0  0  0  0  0  0  0  0
   51.6137   10.0864    2.0359 H   0  0  0  0  0  0  0  0  0  0  0  0
  7  8  2  0  0  0
  7 12  1  0  0  0
  8  9  1  0  0  0
  9 10  2  0  0  0
  9 13  1  0  0  0
 10 11  1  0  0  0
 11 12  2  0  0  0
 12  1  1  0  0  0
  1  2  2  0  0  0
  1  5  1  0  0  0
  2  3  1  0  0  0
  2  6  1  0  0  0
  3  4  2  0  0  0
  3 19  1  0  0  0
  4  5  1  0  0  0
  4 15  1  0  0  0
 15 16  1  0  0  0
 15 17  2  0  0  0
 19 20  1  0  0  0
 20 21  1  0  0  0
 21 22  1  0  0  0
 21 23  2  0  0  0
 16 18  1  0  0  0
 22 24  1  0  0  0
 13 14  1  0  0  0
M  END
> <minimizedAffinity>
-5.42191

$$$$
