2BZA_ABN_A_703


 10 10  0  0  0  0  0  0  0  0999 V2000
  -12.6919   27.8688   43.5992 C   0  0  0  0  0  0  0  0  0  0  0  0
  -14.0980   28.1105   43.6616 C   0  0  0  0  0  0  0  0  0  0  0  0
  -14.7939   28.2608   44.8813 C   0  0  0  0  0  0  0  0  0  0  0  0
  -14.1018   28.1724   46.0860 C   0  0  0  0  0  0  0  0  0  0  0  0
  -12.7159   27.9360   46.0685 C   0  0  0  0  0  0  0  0  0  0  0  0
  -12.0177   27.7852   44.8483 C   0  0  0  0  0  0  0  0  0  0  0  0
  -12.4243   28.5831   41.4515 N   0  0  0  0  0  0  0  0  0  0  0  0
  -12.0094   27.7196   42.3709 C   0  0  0  0  0  0  0  0  0  0  0  0
  -11.9036   28.4355   40.5869 H   0  0  0  0  0  0  0  0  0  0  0  0
  -12.2687   29.5347   41.7839 H   0  0  0  0  0  0  0  0  0  0  0  0
  7  8  1  0  0  0
  8  1  1  0  0  0
  1  2  2  0  0  0
  1  6  1  0  0  0
  2  3  1  0  0  0
  3  4  2  0  0  0
  4  5  1  0  0  0
  5  6  2  0  0  0
  7  9  1  0  0  0
  7 10  1  0  0  0
M  END
> <minimizedAffinity>
-5.08104

$$$$
2BZA_ABN_A_703


 10 10  0  0  0  0  0  0  0  0999 V2000
  -12.6973   27.8668   43.6017 C   0  0  0  0  0  0  0  0  0  0  0  0
  -12.0350   27.7582   44.8623 C   0  0  0  0  0  0  0  0  0  0  0  0
  -12.7087   27.9076   46.0945 C   0  0  0  0  0  0  0  0  0  0  0  0
  -14.0753   28.1731   46.1060 C   0  0  0  0  0  0  0  0  0  0  0  0
  -14.7652   28.2868   44.8862 C   0  0  0  0  0  0  0  0  0  0  0  0
  -14.0922   28.1378   43.6516 C   0  0  0  0  0  0  0  0  0  0  0  0
  -12.4241   28.5744   41.4524 N   0  0  0  0  0  0  0  0  0  0  0  0
  -12.0094   27.7158   42.3766 C   0  0  0  0  0  0  0  0  0  0  0  0
  -11.8994   28.4258   40.5905 H   0  0  0  0  0  0  0  0  0  0  0  0
  -12.2735   29.5278   41.7821 H   0  0  0  0  0  0  0  0  0  0  0  0
  7  8  1  0  0  0
  8  1  1  0  0  0
  1  2  2  0  0  0
  1  6  1  0  0  0
  2  3  1  0  0  0
  3  4  2  0  0  0
  4  5  1  0  0  0
  5  6  2  0  0  0
  7  9  1  0  0  0
  7 10  1  0  0  0
M  END
> <minimizedAffinity>
-5.07665

$$$$
2BZA_ABN_A_703


 10 10  0  0  0  0  0  0  0  0999 V2000
  -13.9766   26.9318   45.8563 C   0  0  0  0  0  0  0  0  0  0  0  0
  -12.6719   26.7090   45.3199 C   0  0  0  0  0  0  0  0  0  0  0  0
  -12.2091   27.3452   44.1471 C   0  0  0  0  0  0  0  0  0  0  0  0
  -13.0420   28.2301   43.4676 C   0  0  0  0  0  0  0  0  0  0  0  0
  -14.3343   28.4780   43.9631 C   0  0  0  0  0  0  0  0  0  0  0  0
  -14.7993   27.8416   45.1370 C   0  0  0  0  0  0  0  0  0  0  0  0
  -15.7447   26.3506   47.1717 N   0  0  0  0  0  0  0  0  0  0  0  0
  -14.4260   26.2869   47.0305 C   0  0  0  0  0  0  0  0  0  0  0  0
  -16.0182   25.8727   48.0303 H   0  0  0  0  0  0  0  0  0  0  0  0
  -16.1942   25.9006   46.3742 H   0  0  0  0  0  0  0  0  0  0  0  0
  7  8  1  0  0  0
  8  1  1  0  0  0
  1  2  2  0  0  0
  1  6  1  0  0  0
  2  3  1  0  0  0
  3  4  2  0  0  0
  4  5  1  0  0  0
  5  6  2  0  0  0
  7  9  1  0  0  0
  7 10  1  0  0  0
M  END
> <minimizedAffinity>
-4.52461

$$$$
2BZA_ABN_A_703


 10 10  0  0  0  0  0  0  0  0999 V2000
  -13.9968   26.8877   45.8283 C   0  0  0  0  0  0  0  0  0  0  0  0
  -14.8009   27.8766   45.1841 C   0  0  0  0  0  0  0  0  0  0  0  0
  -14.3640   28.5967   44.0506 C   0  0  0  0  0  0  0  0  0  0  0  0
  -13.0999   28.3502   43.5216 C   0  0  0  0  0  0  0  0  0  0  0  0
  -12.2769   27.3836   44.1259 C   0  0  0  0  0  0  0  0  0  0  0  0
  -12.7127   26.6620   45.2610 C   0  0  0  0  0  0  0  0  0  0  0  0
  -15.7446   26.3485   47.1882 N   0  0  0  0  0  0  0  0  0  0  0  0
  -14.4474   26.1759   46.9628 C   0  0  0  0  0  0  0  0  0  0  0  0
  -16.0199   25.8167   48.0139 H   0  0  0  0  0  0  0  0  0  0  0  0
  -16.2762   26.0226   46.3810 H   0  0  0  0  0  0  0  0  0  0  0  0
  7  8  1  0  0  0
  8  1  1  0  0  0
  1  2  2  0  0  0
  1  6  1  0  0  0
  2  3  1  0  0  0
  3  4  2  0  0  0
  4  5  1  0  0  0
  5  6  2  0  0  0
  7  9  1  0  0  0
  7 10  1  0  0  0
M  END
> <minimizedAffinity>
-4.50967

$$$$
2BZA_ABN_A_703


 10 10  0  0  0  0  0  0  0  0999 V2000
  -12.5534   26.8117   45.3137 C   0  0  0  0  0  0  0  0  0  0  0  0
  -12.1795   27.3384   44.0400 C   0  0  0  0  0  0  0  0  0  0  0  0
  -13.0614   28.0951   43.2374 C   0  0  0  0  0  0  0  0  0  0  0  0
  -14.3547   28.3503   43.6851 C   0  0  0  0  0  0  0  0  0  0  0  0
  -14.7625   27.8503   44.9343 C   0  0  0  0  0  0  0  0  0  0  0  0
  -13.8809   27.0923   45.7390 C   0  0  0  0  0  0  0  0  0  0  0  0
  -10.4376   26.0100   45.5884 N   0  0  0  0  0  0  0  0  0  0  0  0
  -11.6600   26.0553   46.1051 C   0  0  0  0  0  0  0  0  0  0  0  0
   -9.8329   25.4549   46.1938 H   0  0  0  0  0  0  0  0  0  0  0  0
  -10.0656   26.9566   45.5120 H   0  0  0  0  0  0  0  0  0  0  0  0
  7  8  1  0  0  0
  8  1  1  0  0  0
  1  2  2  0  0  0
  1  6  1  0  0  0
  2  3  1  0  0  0
  3  4  2  0  0  0
  4  5  1  0  0  0
  5  6  2  0  0  0
  7  9  1  0  0  0
  7 10  1  0  0  0
M  END
> <minimizedAffinity>
-4.50006

$$$$
2BZA_ABN_A_703


 10 10  0  0  0  0  0  0  0  0999 V2000
  -12.5481   26.8359   45.3031 C   0  0  0  0  0  0  0  0  0  0  0  0
  -13.8865   27.1185   45.7133 C   0  0  0  0  0  0  0  0  0  0  0  0
  -14.7878   27.8620   44.9201 C   0  0  0  0  0  0  0  0  0  0  0  0
  -14.3767   28.3511   43.6831 C   0  0  0  0  0  0  0  0  0  0  0  0
  -13.0668   28.0942   43.2416 C   0  0  0  0  0  0  0  0  0  0  0  0
  -12.1631   27.3502   44.0346 C   0  0  0  0  0  0  0  0  0  0  0  0
  -10.4437   26.0045   45.5767 N   0  0  0  0  0  0  0  0  0  0  0  0
  -11.6573   26.0912   46.1085 C   0  0  0  0  0  0  0  0  0  0  0  0
   -9.8405   25.4599   46.1931 H   0  0  0  0  0  0  0  0  0  0  0  0
  -10.0554   26.9407   45.4613 H   0  0  0  0  0  0  0  0  0  0  0  0
  7  8  1  0  0  0
  8  1  1  0  0  0
  1  2  2  0  0  0
  1  6  1  0  0  0
  2  3  1  0  0  0
  3  4  2  0  0  0
  4  5  1  0  0  0
  5  6  2  0  0  0
  7  9  1  0  0  0
  7 10  1  0  0  0
M  END
> <minimizedAffinity>
-4.49845

$$$$
2BZA_ABN_A_703


 10 10  0  0  0  0  0  0  0  0999 V2000
  -14.5374   28.0679   43.3185 C   0  0  0  0  0  0  0  0  0  0  0  0
  -13.1481   28.0488   42.9884 C   0  0  0  0  0  0  0  0  0  0  0  0
  -12.1299   28.0850   43.9664 C   0  0  0  0  0  0  0  0  0  0  0  0
  -12.4704   28.1429   45.3151 C   0  0  0  0  0  0  0  0  0  0  0  0
  -13.8274   28.1626   45.6827 C   0  0  0  0  0  0  0  0  0  0  0  0
  -14.8480   28.1267   44.7049 C   0  0  0  0  0  0  0  0  0  0  0  0
  -15.0640   27.7456   41.1246 N   0  0  0  0  0  0  0  0  0  0  0  0
  -15.5450   28.0323   42.3285 C   0  0  0  0  0  0  0  0  0  0  0  0
  -15.8271   27.7319   40.4479 H   0  0  0  0  0  0  0  0  0  0  0  0
  -14.6133   26.8309   41.1475 H   0  0  0  0  0  0  0  0  0  0  0  0
  7  8  1  0  0  0
  8  1  1  0  0  0
  1  2  2  0  0  0
  1  6  1  0  0  0
  2  3  1  0  0  0
  3  4  2  0  0  0
  4  5  1  0  0  0
  5  6  2  0  0  0
  7  9  1  0  0  0
  7 10  1  0  0  0
M  END
> <minimizedAffinity>
-4.44774

$$$$
2BZA_ABN_A_703


 10 10  0  0  0  0  0  0  0  0999 V2000
  -13.3773   28.0030   44.0140 C   0  0  0  0  0  0  0  0  0  0  0  0
  -12.0830   28.0218   44.6172 C   0  0  0  0  0  0  0  0  0  0  0  0
  -11.8852   27.8631   46.0065 C   0  0  0  0  0  0  0  0  0  0  0  0
  -12.9829   27.6803   46.8433 C   0  0  0  0  0  0  0  0  0  0  0  0
  -14.2748   27.6547   46.2890 C   0  0  0  0  0  0  0  0  0  0  0  0
  -14.4745   27.8137   44.8983 C   0  0  0  0  0  0  0  0  0  0  0  0
  -12.4228   28.4291   41.9886 N   0  0  0  0  0  0  0  0  0  0  0  0
  -13.5594   28.1642   42.6220 C   0  0  0  0  0  0  0  0  0  0  0  0
  -12.6066   28.5363   40.9911 H   0  0  0  0  0  0  0  0  0  0  0  0
  -11.7664   27.6618   42.1329 H   0  0  0  0  0  0  0  0  0  0  0  0
  7  8  1  0  0  0
  8  1  1  0  0  0
  1  2  2  0  0  0
  1  6  1  0  0  0
  2  3  1  0  0  0
  3  4  2  0  0  0
  4  5  1  0  0  0
  5  6  2  0  0  0
  7  9  1  0  0  0
  7 10  1  0  0  0
M  END
> <minimizedAffinity>
-4.30652

$$$$
2BZA_ABN_A_703


 10 10  0  0  0  0  0  0  0  0999 V2000
  -13.4055   27.9725   44.1441 C   0  0  0  0  0  0  0  0  0  0  0  0
  -14.4672   27.6651   45.0484 C   0  0  0  0  0  0  0  0  0  0  0  0
  -14.2569   27.4470   46.4278 C   0  0  0  0  0  0  0  0  0  0  0  0
  -12.9692   27.5289   46.9508 C   0  0  0  0  0  0  0  0  0  0  0  0
  -11.8957   27.8302   46.0942 C   0  0  0  0  0  0  0  0  0  0  0  0
  -12.1045   28.0486   44.7130 C   0  0  0  0  0  0  0  0  0  0  0  0
  -14.8705   27.8797   42.4007 N   0  0  0  0  0  0  0  0  0  0  0  0
  -13.6315   28.1871   42.7659 C   0  0  0  0  0  0  0  0  0  0  0  0
  -14.9829   28.0512   41.4015 H   0  0  0  0  0  0  0  0  0  0  0  0
  -15.5314   28.4565   42.9211 H   0  0  0  0  0  0  0  0  0  0  0  0
  7  8  1  0  0  0
  8  1  1  0  0  0
  1  2  2  0  0  0
  1  6  1  0  0  0
  2  3  1  0  0  0
  3  4  2  0  0  0
  4  5  1  0  0  0
  5  6  2  0  0  0
  7  9  1  0  0  0
  7 10  1  0  0  0
M  END
> <minimizedAffinity>
-4.24842

$$$$
2BZA_ABN_A_703


 10 10  0  0  0  0  0  0  0  0999 V2000
  -13.5245   27.6080   44.6669 C   0  0  0  0  0  0  0  0  0  0  0  0
  -12.3077   26.8955   44.8931 C   0  0  0  0  0  0  0  0  0  0  0  0
  -12.1275   26.0188   45.9855 C   0  0  0  0  0  0  0  0  0  0  0  0
  -13.1649   25.8257   46.8937 C   0  0  0  0  0  0  0  0  0  0  0  0
  -14.3800   26.5079   46.7066 C   0  0  0  0  0  0  0  0  0  0  0  0
  -14.5620   27.3862   45.6136 C   0  0  0  0  0  0  0  0  0  0  0  0
  -14.3564   29.5842   43.8942 N   0  0  0  0  0  0  0  0  0  0  0  0
  -13.6896   28.4828   43.5696 C   0  0  0  0  0  0  0  0  0  0  0  0
  -14.4489   30.1805   43.0719 H   0  0  0  0  0  0  0  0  0  0  0  0
  -13.8494   30.0863   44.6230 H   0  0  0  0  0  0  0  0  0  0  0  0
  7  8  1  0  0  0
  8  1  1  0  0  0
  1  2  2  0  0  0
  1  6  1  0  0  0
  2  3  1  0  0  0
  3  4  2  0  0  0
  4  5  1  0  0  0
  5  6  2  0  0  0
  7  9  1  0  0  0
  7 10  1  0  0  0
M  END
> <minimizedAffinity>
-4.06885

$$$$
