3R24_SAM_A_302


 33 35  0  0  0  0  0  0  0  0999 V2000
   55.4071   62.6454   65.4757 C   0  0  0  0  0  0  0  0  0  0  0  0
   54.6789   63.7900   65.8971 O   0  0  0  0  0  0  0  0  0  0  0  0
   54.3815   61.5715   65.1262 C   0  0  0  0  0  0  0  0  0  0  0  0
   54.5386   60.4680   65.9941 O   0  0  0  0  0  0  0  0  0  0  0  0
   53.0365   62.2394   65.3540 C   0  0  0  0  0  0  0  0  0  0  0  0
   52.0872   61.3772   65.9310 O   0  0  0  0  0  0  0  0  0  0  0  0
   53.3876   63.3720   66.3022 C   0  0  0  0  0  0  0  0  0  0  0  0
   54.4509   60.7646   66.9134 H   0  0  0  0  0  0  0  0  0  0  0  0
   52.4269   61.0408   66.7751 H   0  0  0  0  0  0  0  0  0  0  0  0
   52.3648   64.4487   66.3121 N   0  0  0  0  0  0  0  0  0  0  0  0
   52.0145   65.3154   65.3054 C   0  0  0  0  0  0  0  0  0  0  0  0
   51.0319   66.1384   65.7623 N   0  0  0  0  0  0  0  0  0  0  0  0
   50.7440   65.8039   67.0397 C   0  0  0  0  0  0  0  0  0  0  0  0
   49.8371   66.2997   67.9717 C   0  0  0  0  0  0  0  0  0  0  0  0
   49.0186   67.3040   67.6712 N   0  0  0  0  0  0  0  0  0  0  0  0
   49.7838   65.7368   69.2249 N   0  0  0  0  0  0  0  0  0  0  0  0
   50.6170   64.6969   69.5595 C   0  0  0  0  0  0  0  0  0  0  0  0
   51.5131   64.2082   68.6302 N   0  0  0  0  0  0  0  0  0  0  0  0
   51.5788   64.7501   67.3948 C   0  0  0  0  0  0  0  0  0  0  0  0
   49.0494   67.7134   66.7764 H   0  0  0  0  0  0  0  0  0  0  0  0
   48.3818   67.6381   68.3437 H   0  0  0  0  0  0  0  0  0  0  0  0
   56.3075   62.9816   64.2906 C   0  0  0  0  0  0  0  0  0  0  0  0
   56.7078   61.5176   63.2945 S   0  0  0  0  0  0  0  0  0  0  0  0
   56.1131   62.0155   61.6661 C   0  0  0  0  0  0  0  0  0  0  0  0
   58.4918   61.6868   63.0106 C   0  0  0  0  0  0  0  0  0  0  0  0
   59.2650   62.2280   64.2116 C   0  0  0  0  0  0  0  0  0  0  0  0
   58.8086   62.1771   66.6359 N   0  0  0  0  0  0  0  0  0  0  0  0
   59.0699   61.3558   65.4563 C   0  0  0  0  0  0  0  0  0  0  0  0
   58.6827   61.5742   67.4489 H   0  0  0  0  0  0  0  0  0  0  0  0
   57.9628   62.7274   66.4865 H   0  0  0  0  0  0  0  0  0  0  0  0
   60.2258   60.3894   65.6893 C   0  0  0  0  0  0  0  0  0  0  0  0
   60.4214   59.4323   64.9348 O   0  0  0  0  0  0  0  0  0  0  0  0
   60.9847   60.5516   66.6521 O   0  0  0  0  0  0  0  0  0  0  0  0
 27 28  1  0  0  0
 28 31  1  0  0  0
 28 26  1  0  0  0
 31 32  2  0  0  0
 31 33  1  0  0  0
 26 25  1  0  0  0
 25 23  1  0  0  0
 23 24  1  0  0  0
 23 22  1  0  0  0
 22  1  1  0  0  0
  1  2  1  0  0  0
  1  3  1  0  0  0
  2  7  1  0  0  0
  3  4  1  0  0  0
  3  5  1  0  0  0
  5  6  1  0  0  0
  5  7  1  0  0  0
  7 10  1  0  0  0
 10 11  1  0  0  0
 10 19  1  0  0  0
 11 12  2  0  0  0
 12 13  1  0  0  0
 13 14  1  0  0  0
 13 19  2  0  0  0
 14 15  1  0  0  0
 14 16  2  0  0  0
 16 17  1  0  0  0
 17 18  2  0  0  0
 18 19  1  0  0  0
 27 29  1  0  0  0
 27 30  1  0  0  0
  4  8  1  0  0  0
  6  9  1  0  0  0
 15 20  1  0  0  0
 15 21  1  0  0  0
M  CHG 1  23   1
M  CHG 1  33  -1
M  END
> <minimizedAffinity>
-9.27269

$$$$
3R24_SAM_A_302


 33 35  0  0  0  0  0  0  0  0999 V2000
   55.5069   62.5836   65.7404 C   0  0  0  0  0  0  0  0  0  0  0  0
   54.7359   63.7008   66.1594 O   0  0  0  0  0  0  0  0  0  0  0  0
   54.5254   61.5371   65.2220 C   0  0  0  0  0  0  0  0  0  0  0  0
   54.5990   60.3797   66.0287 O   0  0  0  0  0  0  0  0  0  0  0  0
   53.1618   62.1926   65.3565 C   0  0  0  0  0  0  0  0  0  0  0  0
   52.1628   61.2978   65.7793 O   0  0  0  0  0  0  0  0  0  0  0  0
   53.4121   63.2611   66.4058 C   0  0  0  0  0  0  0  0  0  0  0  0
   54.4188   60.6170   66.9518 H   0  0  0  0  0  0  0  0  0  0  0  0
   52.4177   60.9070   66.6298 H   0  0  0  0  0  0  0  0  0  0  0  0
   52.3894   64.3377   66.3824 N   0  0  0  0  0  0  0  0  0  0  0  0
   52.0366   65.1704   65.3482 C   0  0  0  0  0  0  0  0  0  0  0  0
   51.0553   66.0083   65.7799 N   0  0  0  0  0  0  0  0  0  0  0  0
   50.7706   65.7167   67.0685 C   0  0  0  0  0  0  0  0  0  0  0  0
   49.8661   66.2434   67.9857 C   0  0  0  0  0  0  0  0  0  0  0  0
   49.0469   67.2373   67.6540 N   0  0  0  0  0  0  0  0  0  0  0  0
   49.8159   65.7227   69.2571 N   0  0  0  0  0  0  0  0  0  0  0  0
   50.6500   64.6944   69.6241 C   0  0  0  0  0  0  0  0  0  0  0  0
   51.5437   64.1747   68.7093 N   0  0  0  0  0  0  0  0  0  0  0  0
   51.6062   64.6752   67.4564 C   0  0  0  0  0  0  0  0  0  0  0  0
   49.0755   67.6166   66.7459 H   0  0  0  0  0  0  0  0  0  0  0  0
   48.4119   67.5937   68.3165 H   0  0  0  0  0  0  0  0  0  0  0  0
   56.5199   62.9927   64.6753 C   0  0  0  0  0  0  0  0  0  0  0  0
   56.6389   61.7733   63.3356 S   0  0  0  0  0  0  0  0  0  0  0  0
   57.7381   62.6142   62.1789 C   0  0  0  0  0  0  0  0  0  0  0  0
   57.8029   60.5477   63.9954 C   0  0  0  0  0  0  0  0  0  0  0  0
   58.7778   61.1081   65.0291 C   0  0  0  0  0  0  0  0  0  0  0  0
   60.9858   60.6019   66.0072 N   0  0  0  0  0  0  0  0  0  0  0  0
   60.2155   60.6474   64.7668 C   0  0  0  0  0  0  0  0  0  0  0  0
   61.9368   60.2930   65.8058 H   0  0  0  0  0  0  0  0  0  0  0  0
   60.5466   59.9491   66.6564 H   0  0  0  0  0  0  0  0  0  0  0  0
   60.9181   61.4784   63.6991 C   0  0  0  0  0  0  0  0  0  0  0  0
   60.9969   61.0855   62.5317 O   0  0  0  0  0  0  0  0  0  0  0  0
   61.4289   62.5649   63.9960 O   0  0  0  0  0  0  0  0  0  0  0  0
 27 28  1  0  0  0
 28 31  1  0  0  0
 28 26  1  0  0  0
 31 32  2  0  0  0
 31 33  1  0  0  0
 26 25  1  0  0  0
 25 23  1  0  0  0
 23 24  1  0  0  0
 23 22  1  0  0  0
 22  1  1  0  0  0
  1  2  1  0  0  0
  1  3  1  0  0  0
  2  7  1  0  0  0
  3  4  1  0  0  0
  3  5  1  0  0  0
  5  6  1  0  0  0
  5  7  1  0  0  0
  7 10  1  0  0  0
 10 11  1  0  0  0
 10 19  1  0  0  0
 11 12  2  0  0  0
 12 13  1  0  0  0
 13 14  1  0  0  0
 13 19  2  0  0  0
 14 15  1  0  0  0
 14 16  2  0  0  0
 16 17  1  0  0  0
 17 18  2  0  0  0
 18 19  1  0  0  0
 27 29  1  0  0  0
 27 30  1  0  0  0
  4  8  1  0  0  0
  6  9  1  0  0  0
 15 20  1  0  0  0
 15 21  1  0  0  0
M  CHG 1  23   1
M  CHG 1  33  -1
M  END
> <minimizedAffinity>
-9.16391

$$$$
3R24_SAM_A_302


 33 35  0  0  0  0  0  0  0  0999 V2000
   52.7041   62.5259   66.0212 C   0  0  0  0  0  0  0  0  0  0  0  0
   53.2900   61.4352   65.3247 O   0  0  0  0  0  0  0  0  0  0  0  0
   53.6994   63.6802   65.9549 C   0  0  0  0  0  0  0  0  0  0  0  0
   54.1317   64.0068   67.2595 O   0  0  0  0  0  0  0  0  0  0  0  0
   54.8561   63.1402   65.1315 C   0  0  0  0  0  0  0  0  0  0  0  0
   56.1110   63.5565   65.6103 O   0  0  0  0  0  0  0  0  0  0  0  0
   54.6911   61.6379   65.2774 C   0  0  0  0  0  0  0  0  0  0  0  0
   54.5177   63.2217   67.6783 H   0  0  0  0  0  0  0  0  0  0  0  0
   56.2141   63.2763   66.5332 H   0  0  0  0  0  0  0  0  0  0  0  0
   55.3892   60.8786   64.2090 N   0  0  0  0  0  0  0  0  0  0  0  0
   54.8743   60.3442   63.0529 C   0  0  0  0  0  0  0  0  0  0  0  0
   55.8792   59.7275   62.3736 N   0  0  0  0  0  0  0  0  0  0  0  0
   57.0270   59.8686   63.0730 C   0  0  0  0  0  0  0  0  0  0  0  0
   58.3351   59.4496   62.8491 C   0  0  0  0  0  0  0  0  0  0  0  0
   58.6634   58.7670   61.7558 N   0  0  0  0  0  0  0  0  0  0  0  0
   59.3065   59.7515   63.7739 N   0  0  0  0  0  0  0  0  0  0  0  0
   58.9937   60.4574   64.9103 C   0  0  0  0  0  0  0  0  0  0  0  0
   57.6948   60.8720   65.1259 N   0  0  0  0  0  0  0  0  0  0  0  0
   56.7283   60.5832   64.2277 C   0  0  0  0  0  0  0  0  0  0  0  0
   57.9746   58.5461   61.0880 H   0  0  0  0  0  0  0  0  0  0  0  0
   59.5952   58.4825   61.6144 H   0  0  0  0  0  0  0  0  0  0  0  0
   51.3567   62.8986   65.4100 C   0  0  0  0  0  0  0  0  0  0  0  0
   51.3748   64.5535   64.6638 S   0  0  0  0  0  0  0  0  0  0  0  0
   50.2064   64.3494   63.3049 C   0  0  0  0  0  0  0  0  0  0  0  0
   50.3356   65.5253   65.7898 C   0  0  0  0  0  0  0  0  0  0  0  0
   50.9669   65.7786   67.1574 C   0  0  0  0  0  0  0  0  0  0  0  0
   49.2273   66.3062   68.8258 N   0  0  0  0  0  0  0  0  0  0  0  0
   50.0894   65.2516   68.2978 C   0  0  0  0  0  0  0  0  0  0  0  0
   48.6547   65.9307   69.5818 H   0  0  0  0  0  0  0  0  0  0  0  0
   48.6224   66.6550   68.0823 H   0  0  0  0  0  0  0  0  0  0  0  0
   50.8957   64.5790   69.4030 C   0  0  0  0  0  0  0  0  0  0  0  0
   51.9750   64.0298   69.1639 O   0  0  0  0  0  0  0  0  0  0  0  0
   50.4689   64.5698   70.5637 O   0  0  0  0  0  0  0  0  0  0  0  0
 27 28  1  0  0  0
 28 31  1  0  0  0
 28 26  1  0  0  0
 31 32  2  0  0  0
 31 33  1  0  0  0
 26 25  1  0  0  0
 25 23  1  0  0  0
 23 24  1  0  0  0
 23 22  1  0  0  0
 22  1  1  0  0  0
  1  2  1  0  0  0
  1  3  1  0  0  0
  2  7  1  0  0  0
  3  4  1  0  0  0
  3  5  1  0  0  0
  5  6  1  0  0  0
  5  7  1  0  0  0
  7 10  1  0  0  0
 10 11  1  0  0  0
 10 19  1  0  0  0
 11 12  2  0  0  0
 12 13  1  0  0  0
 13 14  1  0  0  0
 13 19  2  0  0  0
 14 15  1  0  0  0
 14 16  2  0  0  0
 16 17  1  0  0  0
 17 18  2  0  0  0
 18 19  1  0  0  0
 27 29  1  0  0  0
 27 30  1  0  0  0
  4  8  1  0  0  0
  6  9  1  0  0  0
 15 20  1  0  0  0
 15 21  1  0  0  0
M  CHG 1  23   1
M  CHG 1  33  -1
M  END
> <minimizedAffinity>
-8.22405

$$$$
3R24_SAM_A_302


 33 35  0  0  0  0  0  0  0  0999 V2000
   55.5743   62.6316   65.3737 C   0  0  0  0  0  0  0  0  0  0  0  0
   54.8042   63.7287   65.8443 O   0  0  0  0  0  0  0  0  0  0  0  0
   54.5915   61.5196   65.0199 C   0  0  0  0  0  0  0  0  0  0  0  0
   54.8226   60.4023   65.8529 O   0  0  0  0  0  0  0  0  0  0  0  0
   53.2229   62.1165   65.2990 C   0  0  0  0  0  0  0  0  0  0  0  0
   52.3304   61.1951   65.8752 O   0  0  0  0  0  0  0  0  0  0  0  0
   53.5448   63.2391   66.2693 C   0  0  0  0  0  0  0  0  0  0  0  0
   54.7448   60.6700   66.7820 H   0  0  0  0  0  0  0  0  0  0  0  0
   52.7071   60.8531   66.7010 H   0  0  0  0  0  0  0  0  0  0  0  0
   52.4731   64.2652   66.3341 N   0  0  0  0  0  0  0  0  0  0  0  0
   52.0076   65.0906   65.3395 C   0  0  0  0  0  0  0  0  0  0  0  0
   51.0214   65.8756   65.8518 N   0  0  0  0  0  0  0  0  0  0  0  0
   50.8445   65.5570   67.1533 C   0  0  0  0  0  0  0  0  0  0  0  0
   49.9844   66.0298   68.1401 C   0  0  0  0  0  0  0  0  0  0  0  0
   49.0972   66.9864   67.8816 N   0  0  0  0  0  0  0  0  0  0  0  0
   50.0508   65.4941   69.4044 N   0  0  0  0  0  0  0  0  0  0  0  0
   50.9570   64.5035   69.6965 C   0  0  0  0  0  0  0  0  0  0  0  0
   51.8061   64.0372   68.7130 N   0  0  0  0  0  0  0  0  0  0  0  0
   51.7543   64.5532   67.4659 C   0  0  0  0  0  0  0  0  0  0  0  0
   49.0423   67.3761   66.9792 H   0  0  0  0  0  0  0  0  0  0  0  0
   48.4954   67.3048   68.5928 H   0  0  0  0  0  0  0  0  0  0  0  0
   56.4269   63.0415   64.1766 C   0  0  0  0  0  0  0  0  0  0  0  0
   58.1695   62.5760   64.3826 S   0  0  0  0  0  0  0  0  0  0  0  0
   58.1693   61.9095   66.0586 C   0  0  0  0  0  0  0  0  0  0  0  0
   58.2932   61.0203   63.4571 C   0  0  0  0  0  0  0  0  0  0  0  0
   58.2989   61.1969   61.9399 C   0  0  0  0  0  0  0  0  0  0  0  0
   58.3591   59.5778   60.0790 N   0  0  0  0  0  0  0  0  0  0  0  0
   57.5858   60.0425   61.2280 C   0  0  0  0  0  0  0  0  0  0  0  0
   57.8641   58.8111   59.6236 H   0  0  0  0  0  0  0  0  0  0  0  0
   59.2734   59.2529   60.3935 H   0  0  0  0  0  0  0  0  0  0  0  0
   56.1512   60.3823   60.8395 C   0  0  0  0  0  0  0  0  0  0  0  0
   55.2037   60.0943   61.5761 O   0  0  0  0  0  0  0  0  0  0  0  0
   55.9179   60.9506   59.7662 O   0  0  0  0  0  0  0  0  0  0  0  0
 27 28  1  0  0  0
 28 31  1  0  0  0
 28 26  1  0  0  0
 31 32  2  0  0  0
 31 33  1  0  0  0
 26 25  1  0  0  0
 25 23  1  0  0  0
 23 24  1  0  0  0
 23 22  1  0  0  0
 22  1  1  0  0  0
  1  2  1  0  0  0
  1  3  1  0  0  0
  2  7  1  0  0  0
  3  4  1  0  0  0
  3  5  1  0  0  0
  5  6  1  0  0  0
  5  7  1  0  0  0
  7 10  1  0  0  0
 10 11  1  0  0  0
 10 19  1  0  0  0
 11 12  2  0  0  0
 12 13  1  0  0  0
 13 14  1  0  0  0
 13 19  2  0  0  0
 14 15  1  0  0  0
 14 16  2  0  0  0
 16 17  1  0  0  0
 17 18  2  0  0  0
 18 19  1  0  0  0
 27 29  1  0  0  0
 27 30  1  0  0  0
  4  8  1  0  0  0
  6  9  1  0  0  0
 15 20  1  0  0  0
 15 21  1  0  0  0
M  CHG 1  23   1
M  CHG 1  33  -1
M  END
> <minimizedAffinity>
-8.16954

$$$$
3R24_SAM_A_302


 33 35  0  0  0  0  0  0  0  0999 V2000
   56.0752   61.0095   64.6345 C   0  0  0  0  0  0  0  0  0  0  0  0
   57.1381   60.5888   63.7911 O   0  0  0  0  0  0  0  0  0  0  0  0
   56.6560   62.0380   65.6000 C   0  0  0  0  0  0  0  0  0  0  0  0
   56.5608   61.5510   66.9226 O   0  0  0  0  0  0  0  0  0  0  0  0
   58.1114   62.1710   65.1862 C   0  0  0  0  0  0  0  0  0  0  0  0
   58.9830   62.3009   66.2820 O   0  0  0  0  0  0  0  0  0  0  0  0
   58.3630   60.8704   64.4442 C   0  0  0  0  0  0  0  0  0  0  0  0
   57.0181   60.6979   66.9867 H   0  0  0  0  0  0  0  0  0  0  0  0
   58.8833   61.5337   66.8671 H   0  0  0  0  0  0  0  0  0  0  0  0
   59.5409   60.9439   63.5427 N   0  0  0  0  0  0  0  0  0  0  0  0
   60.0981   62.0449   62.9390 C   0  0  0  0  0  0  0  0  0  0  0  0
   61.1630   61.6405   62.1947 N   0  0  0  0  0  0  0  0  0  0  0  0
   61.2989   60.3019   62.3221 C   0  0  0  0  0  0  0  0  0  0  0  0
   62.2022   59.3831   61.7961 C   0  0  0  0  0  0  0  0  0  0  0  0
   63.1903   59.7687   60.9936 N   0  0  0  0  0  0  0  0  0  0  0  0
   62.0726   58.0524   62.1163 N   0  0  0  0  0  0  0  0  0  0  0  0
   61.0618   57.6286   62.9448 C   0  0  0  0  0  0  0  0  0  0  0  0
   60.1702   58.5450   63.4651 N   0  0  0  0  0  0  0  0  0  0  0  0
   60.2830   59.8559   63.1601 C   0  0  0  0  0  0  0  0  0  0  0  0
   63.2911   60.7194   60.7587 H   0  0  0  0  0  0  0  0  0  0  0  0
   63.8209   59.1034   60.6345 H   0  0  0  0  0  0  0  0  0  0  0  0
   54.9256   61.5844   63.8122 C   0  0  0  0  0  0  0  0  0  0  0  0
   53.3781   60.6681   64.0601 S   0  0  0  0  0  0  0  0  0  0  0  0
   53.8895   59.4108   65.2479 C   0  0  0  0  0  0  0  0  0  0  0  0
   52.4345   61.7456   65.1741 C   0  0  0  0  0  0  0  0  0  0  0  0
   52.4298   63.2164   64.7619 C   0  0  0  0  0  0  0  0  0  0  0  0
   52.8622   65.4626   65.6869 N   0  0  0  0  0  0  0  0  0  0  0  0
   52.2924   64.1478   65.9709 C   0  0  0  0  0  0  0  0  0  0  0  0
   52.7583   66.0623   66.5055 H   0  0  0  0  0  0  0  0  0  0  0  0
   52.3740   65.8808   64.8949 H   0  0  0  0  0  0  0  0  0  0  0  0
   52.8702   63.5490   67.2484 C   0  0  0  0  0  0  0  0  0  0  0  0
   52.1592   63.3396   68.2353 O   0  0  0  0  0  0  0  0  0  0  0  0
   54.0733   63.2698   67.3129 O   0  0  0  0  0  0  0  0  0  0  0  0
 27 28  1  0  0  0
 28 31  1  0  0  0
 28 26  1  0  0  0
 31 32  2  0  0  0
 31 33  1  0  0  0
 26 25  1  0  0  0
 25 23  1  0  0  0
 23 24  1  0  0  0
 23 22  1  0  0  0
 22  1  1  0  0  0
  1  2  1  0  0  0
  1  3  1  0  0  0
  2  7  1  0  0  0
  3  4  1  0  0  0
  3  5  1  0  0  0
  5  6  1  0  0  0
  5  7  1  0  0  0
  7 10  1  0  0  0
 10 11  1  0  0  0
 10 19  1  0  0  0
 11 12  2  0  0  0
 12 13  1  0  0  0
 13 14  1  0  0  0
 13 19  2  0  0  0
 14 15  1  0  0  0
 14 16  2  0  0  0
 16 17  1  0  0  0
 17 18  2  0  0  0
 18 19  1  0  0  0
 27 29  1  0  0  0
 27 30  1  0  0  0
  4  8  1  0  0  0
  6  9  1  0  0  0
 15 20  1  0  0  0
 15 21  1  0  0  0
M  CHG 1  23   1
M  CHG 1  33  -1
M  END
> <minimizedAffinity>
-8.02003

$$$$
3R24_SAM_A_302


 33 35  0  0  0  0  0  0  0  0999 V2000
   51.6529   63.0896   64.0430 C   0  0  0  0  0  0  0  0  0  0  0  0
   53.0012   63.4174   64.3476 O   0  0  0  0  0  0  0  0  0  0  0  0
   51.4731   61.6093   64.3649 C   0  0  0  0  0  0  0  0  0  0  0  0
   51.1618   60.9029   63.1818 O   0  0  0  0  0  0  0  0  0  0  0  0
   52.8223   61.1697   64.9068 C   0  0  0  0  0  0  0  0  0  0  0  0
   53.1936   59.8838   64.4753 O   0  0  0  0  0  0  0  0  0  0  0  0
   53.7615   62.2224   64.3454 C   0  0  0  0  0  0  0  0  0  0  0  0
   51.8616   61.0467   62.5257 H   0  0  0  0  0  0  0  0  0  0  0  0
   53.2130   59.8612   63.5057 H   0  0  0  0  0  0  0  0  0  0  0  0
   55.0425   62.3040   65.0923 N   0  0  0  0  0  0  0  0  0  0  0  0
   55.3765   63.1197   66.1460 C   0  0  0  0  0  0  0  0  0  0  0  0
   56.6604   62.8553   66.5108 N   0  0  0  0  0  0  0  0  0  0  0  0
   57.1462   61.8782   65.7133 C   0  0  0  0  0  0  0  0  0  0  0  0
   58.3750   61.2282   65.6460 C   0  0  0  0  0  0  0  0  0  0  0  0
   59.3611   61.5279   66.4866 N   0  0  0  0  0  0  0  0  0  0  0  0
   58.5706   60.2547   64.6952 N   0  0  0  0  0  0  0  0  0  0  0  0
   57.5672   59.9249   63.8165 C   0  0  0  0  0  0  0  0  0  0  0  0
   56.3499   60.5718   63.8895 N   0  0  0  0  0  0  0  0  0  0  0  0
   56.1414   61.5310   64.8172 C   0  0  0  0  0  0  0  0  0  0  0  0
   59.2303   62.2236   67.1708 H   0  0  0  0  0  0  0  0  0  0  0  0
   60.2219   61.0541   66.4246 H   0  0  0  0  0  0  0  0  0  0  0  0
   50.6890   63.9671   64.8362 C   0  0  0  0  0  0  0  0  0  0  0  0
   50.6095   65.6608   64.1876 S   0  0  0  0  0  0  0  0  0  0  0  0
   49.0125   65.6514   63.3492 C   0  0  0  0  0  0  0  0  0  0  0  0
   50.1596   66.6408   65.6468 C   0  0  0  0  0  0  0  0  0  0  0  0
   50.8984   66.2358   66.9209 C   0  0  0  0  0  0  0  0  0  0  0  0
   49.1267   66.5964   68.6000 N   0  0  0  0  0  0  0  0  0  0  0  0
   49.9589   65.5901   67.9449 C   0  0  0  0  0  0  0  0  0  0  0  0
   48.5119   66.1420   69.2752 H   0  0  0  0  0  0  0  0  0  0  0  0
   48.5643   67.0805   67.9001 H   0  0  0  0  0  0  0  0  0  0  0  0
   50.6952   64.7227   68.9596 C   0  0  0  0  0  0  0  0  0  0  0  0
   51.7294   64.1211   68.6560 O   0  0  0  0  0  0  0  0  0  0  0  0
   50.2555   64.6053   70.1095 O   0  0  0  0  0  0  0  0  0  0  0  0
 27 28  1  0  0  0
 28 31  1  0  0  0
 28 26  1  0  0  0
 31 32  2  0  0  0
 31 33  1  0  0  0
 26 25  1  0  0  0
 25 23  1  0  0  0
 23 24  1  0  0  0
 23 22  1  0  0  0
 22  1  1  0  0  0
  1  2  1  0  0  0
  1  3  1  0  0  0
  2  7  1  0  0  0
  3  4  1  0  0  0
  3  5  1  0  0  0
  5  6  1  0  0  0
  5  7  1  0  0  0
  7 10  1  0  0  0
 10 11  1  0  0  0
 10 19  1  0  0  0
 11 12  2  0  0  0
 12 13  1  0  0  0
 13 14  1  0  0  0
 13 19  2  0  0  0
 14 15  1  0  0  0
 14 16  2  0  0  0
 16 17  1  0  0  0
 17 18  2  0  0  0
 18 19  1  0  0  0
 27 29  1  0  0  0
 27 30  1  0  0  0
  4  8  1  0  0  0
  6  9  1  0  0  0
 15 20  1  0  0  0
 15 21  1  0  0  0
M  CHG 1  23   1
M  CHG 1  33  -1
M  END
> <minimizedAffinity>
-7.90859

$$$$
3R24_SAM_A_302


 33 35  0  0  0  0  0  0  0  0999 V2000
   53.2239   61.8829   64.0623 C   0  0  0  0  0  0  0  0  0  0  0  0
   54.4989   62.2223   63.5355 O   0  0  0  0  0  0  0  0  0  0  0  0
   53.4684   61.1549   65.3804 C   0  0  0  0  0  0  0  0  0  0  0  0
   52.9880   59.8299   65.2845 O   0  0  0  0  0  0  0  0  0  0  0  0
   54.9783   61.1619   65.5461 C   0  0  0  0  0  0  0  0  0  0  0  0
   55.4768   59.9591   66.0774 O   0  0  0  0  0  0  0  0  0  0  0  0
   55.4649   61.3691   64.1229 C   0  0  0  0  0  0  0  0  0  0  0  0
   53.4198   59.3825   64.5400 H   0  0  0  0  0  0  0  0  0  0  0  0
   55.2192   59.2208   65.5034 H   0  0  0  0  0  0  0  0  0  0  0  0
   56.8581   61.8797   64.0625 N   0  0  0  0  0  0  0  0  0  0  0  0
   57.3022   63.1796   64.0787 C   0  0  0  0  0  0  0  0  0  0  0  0
   58.6605   63.1762   63.9981 N   0  0  0  0  0  0  0  0  0  0  0  0
   59.0892   61.8958   63.9406 C   0  0  0  0  0  0  0  0  0  0  0  0
   60.3527   61.3185   63.8559 C   0  0  0  0  0  0  0  0  0  0  0  0
   61.4522   62.0661   63.8250 N   0  0  0  0  0  0  0  0  0  0  0  0
   60.4655   59.9492   63.8078 N   0  0  0  0  0  0  0  0  0  0  0  0
   59.3452   59.1545   63.8404 C   0  0  0  0  0  0  0  0  0  0  0  0
   58.0948   59.7329   63.9266 N   0  0  0  0  0  0  0  0  0  0  0  0
   57.9663   61.0766   63.9740 C   0  0  0  0  0  0  0  0  0  0  0  0
   61.3814   63.0475   63.8590 H   0  0  0  0  0  0  0  0  0  0  0  0
   62.3370   61.6382   63.7682 H   0  0  0  0  0  0  0  0  0  0  0  0
   52.3654   63.1302   64.2501 C   0  0  0  0  0  0  0  0  0  0  0  0
   51.9481   63.4211   65.9929 S   0  0  0  0  0  0  0  0  0  0  0  0
   53.2978   64.4992   66.5119 C   0  0  0  0  0  0  0  0  0  0  0  0
   50.6192   64.6530   65.8989 C   0  0  0  0  0  0  0  0  0  0  0  0
   50.9936   66.0179   66.4732 C   0  0  0  0  0  0  0  0  0  0  0  0
   48.7551   65.8089   67.4899 N   0  0  0  0  0  0  0  0  0  0  0  0
   49.7741   66.7535   67.0386 C   0  0  0  0  0  0  0  0  0  0  0  0
   47.9558   66.3226   67.8609 H   0  0  0  0  0  0  0  0  0  0  0  0
   49.1442   65.2121   68.2198 H   0  0  0  0  0  0  0  0  0  0  0  0
   49.1991   67.7794   66.0684 C   0  0  0  0  0  0  0  0  0  0  0  0
   48.6161   68.7883   66.4755 O   0  0  0  0  0  0  0  0  0  0  0  0
   49.3055   67.6063   64.8485 O   0  0  0  0  0  0  0  0  0  0  0  0
 27 28  1  0  0  0
 28 31  1  0  0  0
 28 26  1  0  0  0
 31 32  2  0  0  0
 31 33  1  0  0  0
 26 25  1  0  0  0
 25 23  1  0  0  0
 23 24  1  0  0  0
 23 22  1  0  0  0
 22  1  1  0  0  0
  1  2  1  0  0  0
  1  3  1  0  0  0
  2  7  1  0  0  0
  3  4  1  0  0  0
  3  5  1  0  0  0
  5  6  1  0  0  0
  5  7  1  0  0  0
  7 10  1  0  0  0
 10 11  1  0  0  0
 10 19  1  0  0  0
 11 12  2  0  0  0
 12 13  1  0  0  0
 13 14  1  0  0  0
 13 19  2  0  0  0
 14 15  1  0  0  0
 14 16  2  0  0  0
 16 17  1  0  0  0
 17 18  2  0  0  0
 18 19  1  0  0  0
 27 29  1  0  0  0
 27 30  1  0  0  0
  4  8  1  0  0  0
  6  9  1  0  0  0
 15 20  1  0  0  0
 15 21  1  0  0  0
M  CHG 1  23   1
M  CHG 1  33  -1
M  END
> <minimizedAffinity>
-7.72548

$$$$
3R24_SAM_A_302


 33 35  0  0  0  0  0  0  0  0999 V2000
   53.6738   63.8912   66.9801 C   0  0  0  0  0  0  0  0  0  0  0  0
   53.1425   64.6818   65.9261 O   0  0  0  0  0  0  0  0  0  0  0  0
   52.5141   63.5619   67.9150 C   0  0  0  0  0  0  0  0  0  0  0  0
   52.7532   64.1346   69.1841 O   0  0  0  0  0  0  0  0  0  0  0  0
   51.3026   64.2045   67.2618 C   0  0  0  0  0  0  0  0  0  0  0  0
   50.4230   64.7866   68.1916 O   0  0  0  0  0  0  0  0  0  0  0  0
   51.9306   65.2631   66.3728 C   0  0  0  0  0  0  0  0  0  0  0  0
   52.8786   65.0917   69.0884 H   0  0  0  0  0  0  0  0  0  0  0  0
   50.8982   65.4519   68.7137 H   0  0  0  0  0  0  0  0  0  0  0  0
   51.0227   65.7104   65.2859 N   0  0  0  0  0  0  0  0  0  0  0  0
   50.9720   65.2939   63.9778 C   0  0  0  0  0  0  0  0  0  0  0  0
   49.9854   65.9809   63.3405 N   0  0  0  0  0  0  0  0  0  0  0  0
   49.4008   66.8208   64.2233 C   0  0  0  0  0  0  0  0  0  0  0  0
   48.3577   67.7361   64.1181 C   0  0  0  0  0  0  0  0  0  0  0  0
   47.7099   67.9151   62.9704 N   0  0  0  0  0  0  0  0  0  0  0  0
   47.9876   68.4652   65.2233 N   0  0  0  0  0  0  0  0  0  0  0  0
   48.6394   68.2975   66.4211 C   0  0  0  0  0  0  0  0  0  0  0  0
   49.6720   67.3866   66.5197 N   0  0  0  0  0  0  0  0  0  0  0  0
   50.0485   66.6627   65.4435 C   0  0  0  0  0  0  0  0  0  0  0  0
   47.9678   67.3974   62.1737 H   0  0  0  0  0  0  0  0  0  0  0  0
   46.9724   68.5652   62.9176 H   0  0  0  0  0  0  0  0  0  0  0  0
   54.3392   62.6326   66.4313 C   0  0  0  0  0  0  0  0  0  0  0  0
   55.6286   63.0132   65.2113 S   0  0  0  0  0  0  0  0  0  0  0  0
   57.0190   62.0547   65.8449 C   0  0  0  0  0  0  0  0  0  0  0  0
   55.1814   61.9667   63.7981 C   0  0  0  0  0  0  0  0  0  0  0  0
   53.8589   61.2219   63.9686 C   0  0  0  0  0  0  0  0  0  0  0  0
   52.9965   59.1975   62.8522 N   0  0  0  0  0  0  0  0  0  0  0  0
   54.0218   59.7131   63.7561 C   0  0  0  0  0  0  0  0  0  0  0  0
   53.1267   58.1935   62.7276 H   0  0  0  0  0  0  0  0  0  0  0  0
   53.0733   59.6649   61.9489 H   0  0  0  0  0  0  0  0  0  0  0  0
   54.0618   58.9318   65.0646 C   0  0  0  0  0  0  0  0  0  0  0  0
   54.7234   59.3301   66.0276 O   0  0  0  0  0  0  0  0  0  0  0  0
   53.4302   57.8743   65.1746 O   0  0  0  0  0  0  0  0  0  0  0  0
 27 28  1  0  0  0
 28 31  1  0  0  0
 28 26  1  0  0  0
 31 32  2  0  0  0
 31 33  1  0  0  0
 26 25  1  0  0  0
 25 23  1  0  0  0
 23 24  1  0  0  0
 23 22  1  0  0  0
 22  1  1  0  0  0
  1  2  1  0  0  0
  1  3  1  0  0  0
  2  7  1  0  0  0
  3  4  1  0  0  0
  3  5  1  0  0  0
  5  6  1  0  0  0
  5  7  1  0  0  0
  7 10  1  0  0  0
 10 11  1  0  0  0
 10 19  1  0  0  0
 11 12  2  0  0  0
 12 13  1  0  0  0
 13 14  1  0  0  0
 13 19  2  0  0  0
 14 15  1  0  0  0
 14 16  2  0  0  0
 16 17  1  0  0  0
 17 18  2  0  0  0
 18 19  1  0  0  0
 27 29  1  0  0  0
 27 30  1  0  0  0
  4  8  1  0  0  0
  6  9  1  0  0  0
 15 20  1  0  0  0
 15 21  1  0  0  0
M  CHG 1  23   1
M  CHG 1  33  -1
M  END
> <minimizedAffinity>
-7.68183

$$$$
3R24_SAM_A_302


 33 35  0  0  0  0  0  0  0  0999 V2000
   55.8254   61.2855   65.5482 C   0  0  0  0  0  0  0  0  0  0  0  0
   56.8135   60.3937   65.0518 O   0  0  0  0  0  0  0  0  0  0  0  0
   56.0705   62.6349   64.8803 C   0  0  0  0  0  0  0  0  0  0  0  0
   56.4054   63.5941   65.8619 O   0  0  0  0  0  0  0  0  0  0  0  0
   57.2473   62.3928   63.9508 C   0  0  0  0  0  0  0  0  0  0  0  0
   58.1501   63.4704   63.9174 O   0  0  0  0  0  0  0  0  0  0  0  0
   57.8961   61.1602   64.5550 C   0  0  0  0  0  0  0  0  0  0  0  0
   57.1818   63.2912   66.3583 H   0  0  0  0  0  0  0  0  0  0  0  0
   58.4780   63.6453   64.8134 H   0  0  0  0  0  0  0  0  0  0  0  0
   58.7703   60.4429   63.5924 N   0  0  0  0  0  0  0  0  0  0  0  0
   58.5555   59.2419   62.9611 C   0  0  0  0  0  0  0  0  0  0  0  0
   59.6283   58.9683   62.1700 N   0  0  0  0  0  0  0  0  0  0  0  0
   60.5181   59.9796   62.2797 C   0  0  0  0  0  0  0  0  0  0  0  0
   61.7612   60.2199   61.7018 C   0  0  0  0  0  0  0  0  0  0  0  0
   62.2986   59.3619   60.8393 N   0  0  0  0  0  0  0  0  0  0  0  0
   62.4437   61.3685   62.0258 N   0  0  0  0  0  0  0  0  0  0  0  0
   61.9094   62.2719   62.9124 C   0  0  0  0  0  0  0  0  0  0  0  0
   60.6751   62.0290   63.4808 N   0  0  0  0  0  0  0  0  0  0  0  0
   59.9917   60.9052   63.1738 C   0  0  0  0  0  0  0  0  0  0  0  0
   61.8173   58.5367   60.6012 H   0  0  0  0  0  0  0  0  0  0  0  0
   63.1777   59.5519   60.4390 H   0  0  0  0  0  0  0  0  0  0  0  0
   54.4236   60.7544   65.2636 C   0  0  0  0  0  0  0  0  0  0  0  0
   53.6609   61.5625   63.8280 S   0  0  0  0  0  0  0  0  0  0  0  0
   53.4012   60.1620   62.7214 C   0  0  0  0  0  0  0  0  0  0  0  0
   51.9472   61.8241   64.3639 C   0  0  0  0  0  0  0  0  0  0  0  0
   51.5392   63.2934   64.4507 C   0  0  0  0  0  0  0  0  0  0  0  0
   50.6680   65.0006   66.0046 N   0  0  0  0  0  0  0  0  0  0  0  0
   51.4652   63.7807   65.9016 C   0  0  0  0  0  0  0  0  0  0  0  0
   50.6344   65.3036   66.9780 H   0  0  0  0  0  0  0  0  0  0  0  0
   49.7211   64.8171   65.6727 H   0  0  0  0  0  0  0  0  0  0  0  0
   52.8392   63.9517   66.5396 C   0  0  0  0  0  0  0  0  0  0  0  0
   53.1797   63.2773   67.5157 O   0  0  0  0  0  0  0  0  0  0  0  0
   53.6343   64.7828   66.0853 O   0  0  0  0  0  0  0  0  0  0  0  0
 27 28  1  0  0  0
 28 31  1  0  0  0
 28 26  1  0  0  0
 31 32  2  0  0  0
 31 33  1  0  0  0
 26 25  1  0  0  0
 25 23  1  0  0  0
 23 24  1  0  0  0
 23 22  1  0  0  0
 22  1  1  0  0  0
  1  2  1  0  0  0
  1  3  1  0  0  0
  2  7  1  0  0  0
  3  4  1  0  0  0
  3  5  1  0  0  0
  5  6  1  0  0  0
  5  7  1  0  0  0
  7 10  1  0  0  0
 10 11  1  0  0  0
 10 19  1  0  0  0
 11 12  2  0  0  0
 12 13  1  0  0  0
 13 14  1  0  0  0
 13 19  2  0  0  0
 14 15  1  0  0  0
 14 16  2  0  0  0
 16 17  1  0  0  0
 17 18  2  0  0  0
 18 19  1  0  0  0
 27 29  1  0  0  0
 27 30  1  0  0  0
  4  8  1  0  0  0
  6  9  1  0  0  0
 15 20  1  0  0  0
 15 21  1  0  0  0
M  CHG 1  23   1
M  CHG 1  33  -1
M  END
> <minimizedAffinity>
-7.53705

$$$$
3R24_SAM_A_302


 33 35  0  0  0  0  0  0  0  0999 V2000
   52.9590   64.5489   66.8680 C   0  0  0  0  0  0  0  0  0  0  0  0
   52.2342   65.6575   66.3542 O   0  0  0  0  0  0  0  0  0  0  0  0
   52.0251   63.8135   67.8241 C   0  0  0  0  0  0  0  0  0  0  0  0
   52.5588   63.8556   69.1315 O   0  0  0  0  0  0  0  0  0  0  0  0
   50.7213   64.5900   67.7572 C   0  0  0  0  0  0  0  0  0  0  0  0
   50.0899   64.7095   69.0080 O   0  0  0  0  0  0  0  0  0  0  0  0
   51.1718   65.9466   67.2453 C   0  0  0  0  0  0  0  0  0  0  0  0
   52.6920   64.7791   69.3967 H   0  0  0  0  0  0  0  0  0  0  0  0
   50.6912   65.1430   69.6337 H   0  0  0  0  0  0  0  0  0  0  0  0
   50.0612   66.7312   66.6483 N   0  0  0  0  0  0  0  0  0  0  0  0
   49.3397   67.7623   67.1991 C   0  0  0  0  0  0  0  0  0  0  0  0
   48.4148   68.1790   66.2923 N   0  0  0  0  0  0  0  0  0  0  0  0
   48.5417   67.4370   65.1699 C   0  0  0  0  0  0  0  0  0  0  0  0
   47.8725   67.4356   63.9496 C   0  0  0  0  0  0  0  0  0  0  0  0
   46.8887   68.2955   63.7012 N   0  0  0  0  0  0  0  0  0  0  0  0
   48.2390   66.5307   62.9816 N   0  0  0  0  0  0  0  0  0  0  0  0
   49.2535   65.6334   63.2126 C   0  0  0  0  0  0  0  0  0  0  0  0
   49.9149   65.6410   64.4242 N   0  0  0  0  0  0  0  0  0  0  0  0
   49.5669   66.5229   65.3861 C   0  0  0  0  0  0  0  0  0  0  0  0
   46.6193   68.9471   64.3882 H   0  0  0  0  0  0  0  0  0  0  0  0
   46.4300   68.2804   62.8302 H   0  0  0  0  0  0  0  0  0  0  0  0
   53.4434   63.6467   65.7369 C   0  0  0  0  0  0  0  0  0  0  0  0
   52.4291   62.1503   65.5692 S   0  0  0  0  0  0  0  0  0  0  0  0
   51.4962   62.5131   64.0686 C   0  0  0  0  0  0  0  0  0  0  0  0
   53.5948   60.9352   64.8934 C   0  0  0  0  0  0  0  0  0  0  0  0
   54.8048   61.5538   64.1962 C   0  0  0  0  0  0  0  0  0  0  0  0
   55.8435   60.7297   66.2772 N   0  0  0  0  0  0  0  0  0  0  0  0
   56.1105   61.2435   64.9360 C   0  0  0  0  0  0  0  0  0  0  0  0
   56.7267   60.5315   66.7474 H   0  0  0  0  0  0  0  0  0  0  0  0
   55.2943   59.8729   66.2100 H   0  0  0  0  0  0  0  0  0  0  0  0
   57.0686   62.4289   64.9687 C   0  0  0  0  0  0  0  0  0  0  0  0
   58.2011   62.3231   65.4481 O   0  0  0  0  0  0  0  0  0  0  0  0
   56.7150   63.5243   64.5164 O   0  0  0  0  0  0  0  0  0  0  0  0
 27 28  1  0  0  0
 28 31  1  0  0  0
 28 26  1  0  0  0
 31 32  2  0  0  0
 31 33  1  0  0  0
 26 25  1  0  0  0
 25 23  1  0  0  0
 23 24  1  0  0  0
 23 22  1  0  0  0
 22  1  1  0  0  0
  1  2  1  0  0  0
  1  3  1  0  0  0
  2  7  1  0  0  0
  3  4  1  0  0  0
  3  5  1  0  0  0
  5  6  1  0  0  0
  5  7  1  0  0  0
  7 10  1  0  0  0
 10 11  1  0  0  0
 10 19  1  0  0  0
 11 12  2  0  0  0
 12 13  1  0  0  0
 13 14  1  0  0  0
 13 19  2  0  0  0
 14 15  1  0  0  0
 14 16  2  0  0  0
 16 17  1  0  0  0
 17 18  2  0  0  0
 18 19  1  0  0  0
 27 29  1  0  0  0
 27 30  1  0  0  0
  4  8  1  0  0  0
  6  9  1  0  0  0
 15 20  1  0  0  0
 15 21  1  0  0  0
M  CHG 1  23   1
M  CHG 1  33  -1
M  END
> <minimizedAffinity>
-7.52258

$$$$
