2OVY_PFJ_A_999


 30 34  0  0  0  0  0  0  0  0999 V2000
   11.7333   16.7609   48.1909 C   0  0  0  0  0  0  0  0  0  0  0  0
   12.4345   18.4555   49.7585 C   0  0  0  0  0  0  0  0  0  0  0  0
   10.4996   17.5926   48.5156 C   0  0  0  0  0  0  0  0  0  0  0  0
   11.0026   18.5819   49.4957 N   0  0  0  0  0  0  0  0  0  0  0  0
   12.9003   17.6561   48.5096 C   0  0  0  0  0  0  0  0  0  0  0  0
    8.5512   22.7700   49.3641 C   0  0  0  0  0  0  0  0  0  0  0  0
   10.0733   19.4799   49.9690 C   0  0  0  0  0  0  0  0  0  0  0  0
    9.7934   20.7034   49.3801 C   0  0  0  0  0  0  0  0  0  0  0  0
    8.3941   19.9418   51.5823 C   0  0  0  0  0  0  0  0  0  0  0  0
   10.2926   22.4645   47.6815 C   0  0  0  0  0  0  0  0  0  0  0  0
   10.5616   21.1723   48.2578 C   0  0  0  0  0  0  0  0  0  0  0  0
    9.3625   19.1213   51.0883 N   0  0  0  0  0  0  0  0  0  0  0  0
    8.1577   21.1509   51.0300 N   0  0  0  0  0  0  0  0  0  0  0  0
    8.8630   21.5119   49.9308 C   0  0  0  0  0  0  0  0  0  0  0  0
    9.2775   23.2577   48.2639 C   0  0  0  0  0  0  0  0  0  0  0  0
   10.5544   22.6613   45.1533 C   0  0  0  0  0  0  0  0  0  0  0  0
   10.8299   23.0524   46.4966 O   0  0  0  0  0  0  0  0  0  0  0  0
    9.0804   24.5228   47.7742 O   0  0  0  0  0  0  0  0  0  0  0  0
    9.5621   25.6834   48.4650 C   0  0  0  0  0  0  0  0  0  0  0  0
   13.1407   18.3922   47.2710 O   0  0  0  0  0  0  0  0  0  0  0  0
   13.1953   17.8245   46.0378 C   0  0  0  0  0  0  0  0  0  0  0  0
   13.4782   16.6123   43.5568 C   0  0  0  0  0  0  0  0  0  0  0  0
   14.0845   16.7903   45.8223 N   0  0  0  0  0  0  0  0  0  0  0  0
   14.2912   16.2031   44.6089 C   0  0  0  0  0  0  0  0  0  0  0  0
   15.2399   15.1964   44.4859 C   0  0  0  0  0  0  0  0  0  0  0  0
   15.3237   14.4943   43.3244 C   0  0  0  0  0  0  0  0  0  0  0  0
   14.5060   14.9123   42.2365 C   0  0  0  0  0  0  0  0  0  0  0  0
   13.5696   15.9491   42.3402 C   0  0  0  0  0  0  0  0  0  0  0  0
   12.5240   17.5939   43.8135 N   0  0  0  0  0  0  0  0  0  0  0  0
   12.3883   18.2643   44.9776 C   0  0  0  0  0  0  0  0  0  0  0  0
  6 15  1  0  0  0
  6 14  2  0  0  0
  7  8  1  0  0  0
  7  4  1  0  0  0
  7 12  2  0  0  0
  8 11  2  0  0  0
  8 14  1  0  0  0
  9 13  2  0  0  0
  9 12  1  0  0  0
 21 23  2  0  0  0
 21 30  1  0  0  0
 21 20  1  0  0  0
  1  5  1  0  0  0
  1  3  1  0  0  0
  2  5  1  0  0  0
  2  4  1  0  0  0
  3  4  1  0  0  0
 22 28  2  0  0  0
 22 24  1  0  0  0
 22 29  1  0  0  0
 16 17  1  0  0  0
 17 10  1  0  0  0
 10 15  2  0  0  0
 10 11  1  0  0  0
 13 14  1  0  0  0
 15 18  1  0  0  0
 18 19  1  0  0  0
  5 20  1  0  0  0
 23 24  1  0  0  0
 24 25  2  0  0  0
 25 26  1  0  0  0
 26 27  2  0  0  0
 27 28  1  0  0  0
 29 30  2  0  0  0
M  END
> <minimizedAffinity>
-8.87321

$$$$
2OVY_PFJ_A_999


 30 34  0  0  0  0  0  0  0  0999 V2000
   13.0606   17.9633   50.5252 C   0  0  0  0  0  0  0  0  0  0  0  0
   13.5931   19.9044   49.1950 C   0  0  0  0  0  0  0  0  0  0  0  0
   11.9464   18.9741   50.7621 C   0  0  0  0  0  0  0  0  0  0  0  0
   12.3585   20.1357   49.9417 N   0  0  0  0  0  0  0  0  0  0  0  0
   13.6625   18.3517   49.2017 C   0  0  0  0  0  0  0  0  0  0  0  0
    9.0819   23.1433   47.9963 C   0  0  0  0  0  0  0  0  0  0  0  0
   11.5113   21.2197   49.9725 C   0  0  0  0  0  0  0  0  0  0  0  0
   10.7069   21.6175   48.9157 C   0  0  0  0  0  0  0  0  0  0  0  0
   10.5942   22.9930   51.2572 C   0  0  0  0  0  0  0  0  0  0  0  0
    9.9841   21.4095   46.5344 C   0  0  0  0  0  0  0  0  0  0  0  0
   10.7915   20.9597   47.6390 C   0  0  0  0  0  0  0  0  0  0  0  0
   11.4470   21.9372   51.1420 N   0  0  0  0  0  0  0  0  0  0  0  0
    9.8466   23.4016   50.2098 N   0  0  0  0  0  0  0  0  0  0  0  0
    9.9139   22.7015   49.0517 C   0  0  0  0  0  0  0  0  0  0  0  0
    9.1342   22.5210   46.7369 C   0  0  0  0  0  0  0  0  0  0  0  0
   10.7958   20.1141   44.4943 C   0  0  0  0  0  0  0  0  0  0  0  0
    9.8106   20.8196   45.2460 O   0  0  0  0  0  0  0  0  0  0  0  0
    8.4325   23.0061   45.6640 O   0  0  0  0  0  0  0  0  0  0  0  0
    6.9988   23.0243   45.6452 C   0  0  0  0  0  0  0  0  0  0  0  0
   12.8692   17.6227   48.2153 O   0  0  0  0  0  0  0  0  0  0  0  0
   13.3855   16.9924   47.1279 C   0  0  0  0  0  0  0  0  0  0  0  0
   14.2821   15.7384   44.8196 C   0  0  0  0  0  0  0  0  0  0  0  0
   12.8825   17.3031   45.8800 N   0  0  0  0  0  0  0  0  0  0  0  0
   13.2578   16.6754   44.7290 C   0  0  0  0  0  0  0  0  0  0  0  0
   12.6617   17.0321   43.5265 C   0  0  0  0  0  0  0  0  0  0  0  0
   13.1553   16.5342   42.3614 C   0  0  0  0  0  0  0  0  0  0  0  0
   14.1947   15.5647   42.4422 C   0  0  0  0  0  0  0  0  0  0  0  0
   14.7800   15.1727   43.6532 C   0  0  0  0  0  0  0  0  0  0  0  0
   14.8409   15.5021   46.0734 N   0  0  0  0  0  0  0  0  0  0  0  0
   14.4005   16.0297   47.2355 C   0  0  0  0  0  0  0  0  0  0  0  0
  6 15  1  0  0  0
  6 14  2  0  0  0
  7  8  1  0  0  0
  7  4  1  0  0  0
  7 12  2  0  0  0
  8 11  2  0  0  0
  8 14  1  0  0  0
  9 13  2  0  0  0
  9 12  1  0  0  0
 21 23  2  0  0  0
 21 30  1  0  0  0
 21 20  1  0  0  0
  1  5  1  0  0  0
  1  3  1  0  0  0
  2  5  1  0  0  0
  2  4  1  0  0  0
  3  4  1  0  0  0
 22 28  2  0  0  0
 22 24  1  0  0  0
 22 29  1  0  0  0
 16 17  1  0  0  0
 17 10  1  0  0  0
 10 15  2  0  0  0
 10 11  1  0  0  0
 13 14  1  0  0  0
 15 18  1  0  0  0
 18 19  1  0  0  0
  5 20  1  0  0  0
 23 24  1  0  0  0
 24 25  2  0  0  0
 25 26  1  0  0  0
 26 27  2  0  0  0
 27 28  1  0  0  0
 29 30  2  0  0  0
M  END
> <minimizedAffinity>
-8.85826

$$$$
2OVY_PFJ_A_999


 30 34  0  0  0  0  0  0  0  0999 V2000
   10.8387   17.4501   48.5840 C   0  0  0  0  0  0  0  0  0  0  0  0
   11.7459   19.0985   50.0941 C   0  0  0  0  0  0  0  0  0  0  0  0
    9.7801   18.5346   48.7337 C   0  0  0  0  0  0  0  0  0  0  0  0
   10.3959   19.4838   49.6888 N   0  0  0  0  0  0  0  0  0  0  0  0
   12.1354   18.1196   48.9514 C   0  0  0  0  0  0  0  0  0  0  0  0
    8.6583   23.9454   48.8879 C   0  0  0  0  0  0  0  0  0  0  0  0
    9.6361   20.5852   50.0105 C   0  0  0  0  0  0  0  0  0  0  0  0
    9.5467   21.7309   49.2349 C   0  0  0  0  0  0  0  0  0  0  0  0
    8.0902   21.5634   51.5236 C   0  0  0  0  0  0  0  0  0  0  0  0
   10.2895   23.0986   47.2820 C   0  0  0  0  0  0  0  0  0  0  0  0
   10.3566   21.8859   48.0559 C   0  0  0  0  0  0  0  0  0  0  0  0
    8.9008   20.5278   51.1693 N   0  0  0  0  0  0  0  0  0  0  0  0
    8.0422   22.6936   50.7865 N   0  0  0  0  0  0  0  0  0  0  0  0
    8.7729   22.7574   49.6472 C   0  0  0  0  0  0  0  0  0  0  0  0
    9.4303   24.1291   47.7277 C   0  0  0  0  0  0  0  0  0  0  0  0
   10.7270   22.6671   44.8079 C   0  0  0  0  0  0  0  0  0  0  0  0
   10.8896   23.3977   46.0216 O   0  0  0  0  0  0  0  0  0  0  0  0
    9.4316   25.3171   47.0438 O   0  0  0  0  0  0  0  0  0  0  0  0
    8.2162   25.9307   46.5939 C   0  0  0  0  0  0  0  0  0  0  0  0
   12.6194   18.6857   47.6949 O   0  0  0  0  0  0  0  0  0  0  0  0
   12.9718   17.9522   46.6067 C   0  0  0  0  0  0  0  0  0  0  0  0
   13.5329   16.5033   44.3066 C   0  0  0  0  0  0  0  0  0  0  0  0
   12.4178   18.2723   45.3830 N   0  0  0  0  0  0  0  0  0  0  0  0
   12.6262   17.5564   44.2413 C   0  0  0  0  0  0  0  0  0  0  0  0
   11.9891   17.9356   43.0670 C   0  0  0  0  0  0  0  0  0  0  0  0
   12.3292   17.3330   41.8965 C   0  0  0  0  0  0  0  0  0  0  0  0
   13.2462   16.2454   41.9527 C   0  0  0  0  0  0  0  0  0  0  0  0
   13.8690   15.8329   43.1378 C   0  0  0  0  0  0  0  0  0  0  0  0
   14.1517   16.2503   45.5285 N   0  0  0  0  0  0  0  0  0  0  0  0
   13.8675   16.8755   46.6910 C   0  0  0  0  0  0  0  0  0  0  0  0
  6 15  1  0  0  0
  6 14  2  0  0  0
  7  8  1  0  0  0
  7  4  1  0  0  0
  7 12  2  0  0  0
  8 11  2  0  0  0
  8 14  1  0  0  0
  9 13  2  0  0  0
  9 12  1  0  0  0
 21 23  2  0  0  0
 21 30  1  0  0  0
 21 20  1  0  0  0
  1  5  1  0  0  0
  1  3  1  0  0  0
  2  5  1  0  0  0
  2  4  1  0  0  0
  3  4  1  0  0  0
 22 28  2  0  0  0
 22 24  1  0  0  0
 22 29  1  0  0  0
 16 17  1  0  0  0
 17 10  1  0  0  0
 10 15  2  0  0  0
 10 11  1  0  0  0
 13 14  1  0  0  0
 15 18  1  0  0  0
 18 19  1  0  0  0
  5 20  1  0  0  0
 23 24  1  0  0  0
 24 25  2  0  0  0
 25 26  1  0  0  0
 26 27  2  0  0  0
 27 28  1  0  0  0
 29 30  2  0  0  0
M  END
> <minimizedAffinity>
-8.48994

$$$$
2OVY_PFJ_A_999


 30 34  0  0  0  0  0  0  0  0999 V2000
   10.0204   19.3228   51.1364 C   0  0  0  0  0  0  0  0  0  0  0  0
   11.9659   20.5361   50.3854 C   0  0  0  0  0  0  0  0  0  0  0  0
    9.5099   20.5238   50.3513 C   0  0  0  0  0  0  0  0  0  0  0  0
   10.7518   21.2254   49.9539 N   0  0  0  0  0  0  0  0  0  0  0  0
   11.4237   19.1018   50.6394 C   0  0  0  0  0  0  0  0  0  0  0  0
   10.1076   23.6703   45.8098 C   0  0  0  0  0  0  0  0  0  0  0  0
   10.5792   22.3744   49.2165 C   0  0  0  0  0  0  0  0  0  0  0  0
   10.4235   22.4072   47.8393 C   0  0  0  0  0  0  0  0  0  0  0  0
   10.3202   24.7341   49.2400 C   0  0  0  0  0  0  0  0  0  0  0  0
   10.4257   21.2576   45.6223 C   0  0  0  0  0  0  0  0  0  0  0  0
   10.5442   21.2060   47.0567 C   0  0  0  0  0  0  0  0  0  0  0  0
   10.5359   23.5637   49.9023 N   0  0  0  0  0  0  0  0  0  0  0  0
   10.2138   24.7632   47.8943 N   0  0  0  0  0  0  0  0  0  0  0  0
   10.2647   23.5928   47.2135 C   0  0  0  0  0  0  0  0  0  0  0  0
   10.2140   22.5163   45.0142 C   0  0  0  0  0  0  0  0  0  0  0  0
   11.4826   19.5158   44.0901 C   0  0  0  0  0  0  0  0  0  0  0  0
   10.3711   20.1837   44.6833 O   0  0  0  0  0  0  0  0  0  0  0  0
   10.1902   22.5804   43.6452 O   0  0  0  0  0  0  0  0  0  0  0  0
   10.4004   23.8130   42.9432 C   0  0  0  0  0  0  0  0  0  0  0  0
   11.2654   18.2122   49.4917 O   0  0  0  0  0  0  0  0  0  0  0  0
   12.2825   17.5334   48.8995 C   0  0  0  0  0  0  0  0  0  0  0  0
   14.2516   16.1224   47.5441 C   0  0  0  0  0  0  0  0  0  0  0  0
   12.3186   17.4621   47.5209 N   0  0  0  0  0  0  0  0  0  0  0  0
   13.2367   16.7383   46.8188 C   0  0  0  0  0  0  0  0  0  0  0  0
   13.1635   16.6962   45.4327 C   0  0  0  0  0  0  0  0  0  0  0  0
   14.1739   16.1223   44.7264 C   0  0  0  0  0  0  0  0  0  0  0  0
   15.2112   15.4775   45.4578 C   0  0  0  0  0  0  0  0  0  0  0  0
   15.2764   15.4850   46.8572 C   0  0  0  0  0  0  0  0  0  0  0  0
   14.2518   16.2794   48.9281 N   0  0  0  0  0  0  0  0  0  0  0  0
   13.2857   16.8940   49.6435 C   0  0  0  0  0  0  0  0  0  0  0  0
  6 15  1  0  0  0
  6 14  2  0  0  0
  7  8  1  0  0  0
  7  4  1  0  0  0
  7 12  2  0  0  0
  8 11  2  0  0  0
  8 14  1  0  0  0
  9 13  2  0  0  0
  9 12  1  0  0  0
 21 23  2  0  0  0
 21 30  1  0  0  0
 21 20  1  0  0  0
  1  5  1  0  0  0
  1  3  1  0  0  0
  2  5  1  0  0  0
  2  4  1  0  0  0
  3  4  1  0  0  0
 22 28  2  0  0  0
 22 24  1  0  0  0
 22 29  1  0  0  0
 16 17  1  0  0  0
 17 10  1  0  0  0
 10 15  2  0  0  0
 10 11  1  0  0  0
 13 14  1  0  0  0
 15 18  1  0  0  0
 18 19  1  0  0  0
  5 20  1  0  0  0
 23 24  1  0  0  0
 24 25  2  0  0  0
 25 26  1  0  0  0
 26 27  2  0  0  0
 27 28  1  0  0  0
 29 30  2  0  0  0
M  END
> <minimizedAffinity>
-8.47170

$$$$
2OVY_PFJ_A_999


 30 34  0  0  0  0  0  0  0  0999 V2000
   10.0380   18.5325   47.8904 C   0  0  0  0  0  0  0  0  0  0  0  0
   11.7832   19.0178   46.2968 C   0  0  0  0  0  0  0  0  0  0  0  0
   11.1108   17.4684   48.0802 C   0  0  0  0  0  0  0  0  0  0  0  0
   12.1222   17.8163   47.0562 N   0  0  0  0  0  0  0  0  0  0  0  0
   10.7491   19.6899   47.2426 C   0  0  0  0  0  0  0  0  0  0  0  0
   15.3849   15.0662   44.7414 C   0  0  0  0  0  0  0  0  0  0  0  0
   13.2265   16.9968   47.0045 C   0  0  0  0  0  0  0  0  0  0  0  0
   13.7421   16.4469   45.8410 C   0  0  0  0  0  0  0  0  0  0  0  0
   14.9967   15.9647   48.2033 C   0  0  0  0  0  0  0  0  0  0  0  0
   13.5849   16.0069   43.3878 C   0  0  0  0  0  0  0  0  0  0  0  0
   13.0655   16.6199   44.5832 C   0  0  0  0  0  0  0  0  0  0  0  0
   13.8697   16.7294   48.1884 N   0  0  0  0  0  0  0  0  0  0  0  0
   15.4675   15.3964   47.0727 N   0  0  0  0  0  0  0  0  0  0  0  0
   14.8305   15.6507   45.9042 C   0  0  0  0  0  0  0  0  0  0  0  0
   14.7536   15.2187   43.4947 C   0  0  0  0  0  0  0  0  0  0  0  0
   12.3264   17.2048   41.5223 C   0  0  0  0  0  0  0  0  0  0  0  0
   13.1576   16.1657   42.0349 O   0  0  0  0  0  0  0  0  0  0  0  0
   15.1987   14.5621   42.3768 O   0  0  0  0  0  0  0  0  0  0  0  0
   15.1545   13.1326   42.2729 C   0  0  0  0  0  0  0  0  0  0  0  0
   11.2526   20.4790   48.3641 O   0  0  0  0  0  0  0  0  0  0  0  0
   10.5803   21.5081   48.9428 C   0  0  0  0  0  0  0  0  0  0  0  0
    9.3065   23.7255   50.0226 C   0  0  0  0  0  0  0  0  0  0  0  0
   10.4914   22.7076   48.2644 N   0  0  0  0  0  0  0  0  0  0  0  0
    9.9209   23.8341   48.7792 C   0  0  0  0  0  0  0  0  0  0  0  0
    9.9181   25.0051   48.0327 C   0  0  0  0  0  0  0  0  0  0  0  0
    9.2007   26.0749   48.4687 C   0  0  0  0  0  0  0  0  0  0  0  0
    8.5786   25.9800   49.7458 C   0  0  0  0  0  0  0  0  0  0  0  0
    8.6039   24.8142   50.5221 C   0  0  0  0  0  0  0  0  0  0  0  0
    9.3268   22.4840   50.6539 N   0  0  0  0  0  0  0  0  0  0  0  0
    9.9876   21.3937   50.2094 C   0  0  0  0  0  0  0  0  0  0  0  0
  6 15  1  0  0  0
  6 14  2  0  0  0
  7  8  1  0  0  0
  7  4  1  0  0  0
  7 12  2  0  0  0
  8 11  2  0  0  0
  8 14  1  0  0  0
  9 13  2  0  0  0
  9 12  1  0  0  0
 21 23  2  0  0  0
 21 30  1  0  0  0
 21 20  1  0  0  0
  1  5  1  0  0  0
  1  3  1  0  0  0
  2  5  1  0  0  0
  2  4  1  0  0  0
  3  4  1  0  0  0
 22 28  2  0  0  0
 22 24  1  0  0  0
 22 29  1  0  0  0
 16 17  1  0  0  0
 17 10  1  0  0  0
 10 15  2  0  0  0
 10 11  1  0  0  0
 13 14  1  0  0  0
 15 18  1  0  0  0
 18 19  1  0  0  0
  5 20  1  0  0  0
 23 24  1  0  0  0
 24 25  2  0  0  0
 25 26  1  0  0  0
 26 27  2  0  0  0
 27 28  1  0  0  0
 29 30  2  0  0  0
M  END
> <minimizedAffinity>
-8.47097

$$$$
2OVY_PFJ_A_999


 30 34  0  0  0  0  0  0  0  0999 V2000
   11.1178   21.2383   50.3014 C   0  0  0  0  0  0  0  0  0  0  0  0
   10.2193   19.0844   49.6898 C   0  0  0  0  0  0  0  0  0  0  0  0
   12.3055   20.3567   49.9392 C   0  0  0  0  0  0  0  0  0  0  0  0
   11.6780   19.0573   49.6071 N   0  0  0  0  0  0  0  0  0  0  0  0
    9.9412   20.6111   49.6035 C   0  0  0  0  0  0  0  0  0  0  0  0
   14.0578   16.3568   46.3497 C   0  0  0  0  0  0  0  0  0  0  0  0
   12.5432   18.0532   49.2369 C   0  0  0  0  0  0  0  0  0  0  0  0
   12.8557   17.7303   47.9253 C   0  0  0  0  0  0  0  0  0  0  0  0
   14.0558   16.3670   49.9473 C   0  0  0  0  0  0  0  0  0  0  0  0
   12.4870   18.0053   45.4708 C   0  0  0  0  0  0  0  0  0  0  0  0
   12.1878   18.3797   46.8289 C   0  0  0  0  0  0  0  0  0  0  0  0
   13.1522   17.3426   50.2423 N   0  0  0  0  0  0  0  0  0  0  0  0
   14.3218   16.0282   48.6677 N   0  0  0  0  0  0  0  0  0  0  0  0
   13.7162   16.7212   47.6732 C   0  0  0  0  0  0  0  0  0  0  0  0
   13.4292   16.9738   45.2541 C   0  0  0  0  0  0  0  0  0  0  0  0
   11.3030   19.8161   44.1224 C   0  0  0  0  0  0  0  0  0  0  0  0
   12.0528   18.6102   44.2527 O   0  0  0  0  0  0  0  0  0  0  0  0
   13.6492   16.5547   43.9676 O   0  0  0  0  0  0  0  0  0  0  0  0
   14.4794   15.4231   43.6737 C   0  0  0  0  0  0  0  0  0  0  0  0
    9.9288   21.2353   48.2829 O   0  0  0  0  0  0  0  0  0  0  0  0
    9.6628   22.5482   48.0558 C   0  0  0  0  0  0  0  0  0  0  0  0
    9.2997   25.2579   47.5756 C   0  0  0  0  0  0  0  0  0  0  0  0
   10.5828   23.2995   47.3517 N   0  0  0  0  0  0  0  0  0  0  0  0
   10.4680   24.6416   47.1388 C   0  0  0  0  0  0  0  0  0  0  0  0
   11.4695   25.3163   46.4530 C   0  0  0  0  0  0  0  0  0  0  0  0
   11.2756   26.6122   46.0897 C   0  0  0  0  0  0  0  0  0  0  0  0
   10.0898   27.2573   46.5422 C   0  0  0  0  0  0  0  0  0  0  0  0
    9.0885   26.5945   47.2638 C   0  0  0  0  0  0  0  0  0  0  0  0
    8.3411   24.4672   48.2046 N   0  0  0  0  0  0  0  0  0  0  0  0
    8.4926   23.1643   48.5248 C   0  0  0  0  0  0  0  0  0  0  0  0
  6 15  1  0  0  0
  6 14  2  0  0  0
  7  8  1  0  0  0
  7  4  1  0  0  0
  7 12  2  0  0  0
  8 11  2  0  0  0
  8 14  1  0  0  0
  9 13  2  0  0  0
  9 12  1  0  0  0
 21 23  2  0  0  0
 21 30  1  0  0  0
 21 20  1  0  0  0
  1  5  1  0  0  0
  1  3  1  0  0  0
  2  5  1  0  0  0
  2  4  1  0  0  0
  3  4  1  0  0  0
 22 28  2  0  0  0
 22 24  1  0  0  0
 22 29  1  0  0  0
 16 17  1  0  0  0
 17 10  1  0  0  0
 10 15  2  0  0  0
 10 11  1  0  0  0
 13 14  1  0  0  0
 15 18  1  0  0  0
 18 19  1  0  0  0
  5 20  1  0  0  0
 23 24  1  0  0  0
 24 25  2  0  0  0
 25 26  1  0  0  0
 26 27  2  0  0  0
 27 28  1  0  0  0
 29 30  2  0  0  0
M  END
> <minimizedAffinity>
-8.36730

$$$$
2OVY_PFJ_A_999


 30 34  0  0  0  0  0  0  0  0999 V2000
    8.4851   21.5398   51.5860 C   0  0  0  0  0  0  0  0  0  0  0  0
   10.7012   22.2231   50.9205 C   0  0  0  0  0  0  0  0  0  0  0  0
    8.3192   22.4198   50.3542 C   0  0  0  0  0  0  0  0  0  0  0  0
    9.7078   22.8177   50.0289 N   0  0  0  0  0  0  0  0  0  0  0  0
    9.8992   21.0303   51.5118 C   0  0  0  0  0  0  0  0  0  0  0  0
   10.5911   23.6691   45.3319 C   0  0  0  0  0  0  0  0  0  0  0  0
    9.8535   23.6362   48.9322 C   0  0  0  0  0  0  0  0  0  0  0  0
   10.1550   23.1904   47.6545 C   0  0  0  0  0  0  0  0  0  0  0  0
    9.7442   25.8450   48.0689 C   0  0  0  0  0  0  0  0  0  0  0  0
   10.8060   21.3583   46.0875 C   0  0  0  0  0  0  0  0  0  0  0  0
   10.4498   21.8036   47.4100 C   0  0  0  0  0  0  0  0  0  0  0  0
    9.6623   24.9833   49.1206 N   0  0  0  0  0  0  0  0  0  0  0  0
   10.0817   25.4092   46.8364 N   0  0  0  0  0  0  0  0  0  0  0  0
   10.2796   24.0820   46.6486 C   0  0  0  0  0  0  0  0  0  0  0  0
   10.8796   22.3214   45.0552 C   0  0  0  0  0  0  0  0  0  0  0  0
   12.2403   19.3683   45.3933 C   0  0  0  0  0  0  0  0  0  0  0  0
   10.9939   20.0279   45.6047 O   0  0  0  0  0  0  0  0  0  0  0  0
   11.3048   21.9153   43.8170 O   0  0  0  0  0  0  0  0  0  0  0  0
   12.2700   22.6648   43.0667 C   0  0  0  0  0  0  0  0  0  0  0  0
    9.8020   19.8062   50.7207 O   0  0  0  0  0  0  0  0  0  0  0  0
   10.8687   19.0916   50.2762 C   0  0  0  0  0  0  0  0  0  0  0  0
   12.9298   17.5152   49.2903 C   0  0  0  0  0  0  0  0  0  0  0  0
   10.7139   18.2928   49.1605 N   0  0  0  0  0  0  0  0  0  0  0  0
   11.6831   17.4655   48.6749 C   0  0  0  0  0  0  0  0  0  0  0  0
   11.4154   16.6689   47.5693 C   0  0  0  0  0  0  0  0  0  0  0  0
   12.4284   15.9781   46.9813 C   0  0  0  0  0  0  0  0  0  0  0  0
   13.7055   16.0109   47.6096 C   0  0  0  0  0  0  0  0  0  0  0  0
   13.9775   16.7848   48.7452 C   0  0  0  0  0  0  0  0  0  0  0  0
   13.0952   18.3935   50.3586 N   0  0  0  0  0  0  0  0  0  0  0  0
   12.1139   19.1302   50.9218 C   0  0  0  0  0  0  0  0  0  0  0  0
  6 15  1  0  0  0
  6 14  2  0  0  0
  7  8  1  0  0  0
  7  4  1  0  0  0
  7 12  2  0  0  0
  8 11  2  0  0  0
  8 14  1  0  0  0
  9 13  2  0  0  0
  9 12  1  0  0  0
 21 23  2  0  0  0
 21 30  1  0  0  0
 21 20  1  0  0  0
  1  5  1  0  0  0
  1  3  1  0  0  0
  2  5  1  0  0  0
  2  4  1  0  0  0
  3  4  1  0  0  0
 22 28  2  0  0  0
 22 24  1  0  0  0
 22 29  1  0  0  0
 16 17  1  0  0  0
 17 10  1  0  0  0
 10 15  2  0  0  0
 10 11  1  0  0  0
 13 14  1  0  0  0
 15 18  1  0  0  0
 18 19  1  0  0  0
  5 20  1  0  0  0
 23 24  1  0  0  0
 24 25  2  0  0  0
 25 26  1  0  0  0
 26 27  2  0  0  0
 27 28  1  0  0  0
 29 30  2  0  0  0
M  END
> <minimizedAffinity>
-8.10519

$$$$
2OVY_PFJ_A_999


 30 34  0  0  0  0  0  0  0  0999 V2000
   10.7951   20.1251   46.0674 C   0  0  0  0  0  0  0  0  0  0  0  0
    9.8837   19.3356   48.1571 C   0  0  0  0  0  0  0  0  0  0  0  0
   10.7662   21.3205   47.0105 C   0  0  0  0  0  0  0  0  0  0  0  0
   10.1729   20.7650   48.2483 N   0  0  0  0  0  0  0  0  0  0  0  0
   10.7942   18.9195   46.9681 C   0  0  0  0  0  0  0  0  0  0  0  0
    7.9667   24.4147   50.5676 C   0  0  0  0  0  0  0  0  0  0  0  0
   10.0262   21.6515   49.2906 C   0  0  0  0  0  0  0  0  0  0  0  0
    9.0214   22.6028   49.3764 C   0  0  0  0  0  0  0  0  0  0  0  0
   10.8122   22.3803   51.4089 C   0  0  0  0  0  0  0  0  0  0  0  0
    7.0876   23.8205   48.3696 C   0  0  0  0  0  0  0  0  0  0  0  0
    8.0997   22.7991   48.2894 C   0  0  0  0  0  0  0  0  0  0  0  0
   10.9275   21.5654   50.3236 N   0  0  0  0  0  0  0  0  0  0  0  0
    9.8580   23.3338   51.4653 N   0  0  0  0  0  0  0  0  0  0  0  0
    8.9724   23.4275   50.4441 C   0  0  0  0  0  0  0  0  0  0  0  0
    7.0460   24.6305   49.5276 C   0  0  0  0  0  0  0  0  0  0  0  0
    5.9697   23.8329   46.0785 C   0  0  0  0  0  0  0  0  0  0  0  0
    6.0012   24.0845   47.4817 O   0  0  0  0  0  0  0  0  0  0  0  0
    6.1422   25.6603   49.5678 O   0  0  0  0  0  0  0  0  0  0  0  0
    6.5584   27.0321   49.5333 C   0  0  0  0  0  0  0  0  0  0  0  0
   12.2076   18.6682   47.2382 O   0  0  0  0  0  0  0  0  0  0  0  0
   12.9642   17.7503   46.5815 C   0  0  0  0  0  0  0  0  0  0  0  0
   14.3814   15.8719   45.1091 C   0  0  0  0  0  0  0  0  0  0  0  0
   12.8161   17.6242   45.2144 N   0  0  0  0  0  0  0  0  0  0  0  0
   13.4534   16.6818   44.4624 C   0  0  0  0  0  0  0  0  0  0  0  0
   13.2055   16.6094   43.0979 C   0  0  0  0  0  0  0  0  0  0  0  0
   13.9656   15.7910   42.3223 C   0  0  0  0  0  0  0  0  0  0  0  0
   14.9094   14.9479   42.9744 C   0  0  0  0  0  0  0  0  0  0  0  0
   15.1433   14.9892   44.3551 C   0  0  0  0  0  0  0  0  0  0  0  0
   14.5847   16.0730   46.4723 N   0  0  0  0  0  0  0  0  0  0  0  0
   13.8777   16.9210   47.2496 C   0  0  0  0  0  0  0  0  0  0  0  0
  6 15  1  0  0  0
  6 14  2  0  0  0
  7  8  1  0  0  0
  7  4  1  0  0  0
  7 12  2  0  0  0
  8 11  2  0  0  0
  8 14  1  0  0  0
  9 13  2  0  0  0
  9 12  1  0  0  0
 21 23  2  0  0  0
 21 30  1  0  0  0
 21 20  1  0  0  0
  1  5  1  0  0  0
  1  3  1  0  0  0
  2  5  1  0  0  0
  2  4  1  0  0  0
  3  4  1  0  0  0
 22 28  2  0  0  0
 22 24  1  0  0  0
 22 29  1  0  0  0
 16 17  1  0  0  0
 17 10  1  0  0  0
 10 15  2  0  0  0
 10 11  1  0  0  0
 13 14  1  0  0  0
 15 18  1  0  0  0
 18 19  1  0  0  0
  5 20  1  0  0  0
 23 24  1  0  0  0
 24 25  2  0  0  0
 25 26  1  0  0  0
 26 27  2  0  0  0
 27 28  1  0  0  0
 29 30  2  0  0  0
M  END
> <minimizedAffinity>
-8.10400

$$$$
2OVY_PFJ_A_999


 30 34  0  0  0  0  0  0  0  0999 V2000
   11.2853   20.7532   47.9441 C   0  0  0  0  0  0  0  0  0  0  0  0
   10.5755   18.4514   47.8076 C   0  0  0  0  0  0  0  0  0  0  0  0
   12.5460   19.9172   47.7678 C   0  0  0  0  0  0  0  0  0  0  0  0
   12.0322   18.5293   47.7221 N   0  0  0  0  0  0  0  0  0  0  0  0
   10.1725   19.8968   47.4028 C   0  0  0  0  0  0  0  0  0  0  0  0
   14.7830   15.5288   45.0770 C   0  0  0  0  0  0  0  0  0  0  0  0
   12.9817   17.5454   47.5661 C   0  0  0  0  0  0  0  0  0  0  0  0
   13.3974   17.0426   46.3428 C   0  0  0  0  0  0  0  0  0  0  0  0
   14.5506   16.1088   48.6200 C   0  0  0  0  0  0  0  0  0  0  0  0
   13.1694   16.8973   43.8603 C   0  0  0  0  0  0  0  0  0  0  0  0
   12.7607   17.4592   45.1218 C   0  0  0  0  0  0  0  0  0  0  0  0
   13.5695   17.0498   48.7044 N   0  0  0  0  0  0  0  0  0  0  0  0
   14.9189   15.5919   47.4283 N   0  0  0  0  0  0  0  0  0  0  0  0
   14.3350   16.0722   46.3039 C   0  0  0  0  0  0  0  0  0  0  0  0
   14.1876   15.9165   43.8641 C   0  0  0  0  0  0  0  0  0  0  0  0
   11.6631   18.0843   42.1807 C   0  0  0  0  0  0  0  0  0  0  0  0
   12.7761   17.2681   42.5389 O   0  0  0  0  0  0  0  0  0  0  0  0
   14.5157   15.3162   42.6763 O   0  0  0  0  0  0  0  0  0  0  0  0
   15.0647   13.9925   42.6255 C   0  0  0  0  0  0  0  0  0  0  0  0
   10.1224   20.2249   45.9803 O   0  0  0  0  0  0  0  0  0  0  0  0
   10.2432   21.4810   45.4766 C   0  0  0  0  0  0  0  0  0  0  0  0
   10.6671   24.0110   44.4160 C   0  0  0  0  0  0  0  0  0  0  0  0
   11.2560   21.7394   44.5741 N   0  0  0  0  0  0  0  0  0  0  0  0
   11.5303   22.9764   44.0697 C   0  0  0  0  0  0  0  0  0  0  0  0
   12.5989   23.1411   43.1982 C   0  0  0  0  0  0  0  0  0  0  0  0
   12.7662   24.3312   42.5621 C   0  0  0  0  0  0  0  0  0  0  0  0
   11.8970   25.4012   42.9180 C   0  0  0  0  0  0  0  0  0  0  0  0
   10.8367   25.2545   43.8217 C   0  0  0  0  0  0  0  0  0  0  0  0
    9.5968   23.7137   45.2563 N   0  0  0  0  0  0  0  0  0  0  0  0
    9.3821   22.5224   45.8543 C   0  0  0  0  0  0  0  0  0  0  0  0
  6 15  1  0  0  0
  6 14  2  0  0  0
  7  8  1  0  0  0
  7  4  1  0  0  0
  7 12  2  0  0  0
  8 11  2  0  0  0
  8 14  1  0  0  0
  9 13  2  0  0  0
  9 12  1  0  0  0
 21 23  2  0  0  0
 21 30  1  0  0  0
 21 20  1  0  0  0
  1  5  1  0  0  0
  1  3  1  0  0  0
  2  5  1  0  0  0
  2  4  1  0  0  0
  3  4  1  0  0  0
 22 28  2  0  0  0
 22 24  1  0  0  0
 22 29  1  0  0  0
 16 17  1  0  0  0
 17 10  1  0  0  0
 10 15  2  0  0  0
 10 11  1  0  0  0
 13 14  1  0  0  0
 15 18  1  0  0  0
 18 19  1  0  0  0
  5 20  1  0  0  0
 23 24  1  0  0  0
 24 25  2  0  0  0
 25 26  1  0  0  0
 26 27  2  0  0  0
 27 28  1  0  0  0
 29 30  2  0  0  0
M  END
> <minimizedAffinity>
-8.05804

$$$$
2OVY_PFJ_A_999


 30 34  0  0  0  0  0  0  0  0999 V2000
    9.9534   21.2878   46.3184 C   0  0  0  0  0  0  0  0  0  0  0  0
   10.7916   20.0196   44.4450 C   0  0  0  0  0  0  0  0  0  0  0  0
   10.8976   20.2381   46.8892 C   0  0  0  0  0  0  0  0  0  0  0  0
   11.3422   19.4906   45.6909 N   0  0  0  0  0  0  0  0  0  0  0  0
   10.3765   21.4517   44.8835 C   0  0  0  0  0  0  0  0  0  0  0  0
   14.1916   15.8162   44.2955 C   0  0  0  0  0  0  0  0  0  0  0  0
   12.2226   18.4585   45.9229 C   0  0  0  0  0  0  0  0  0  0  0  0
   12.7659   17.6531   44.9340 C   0  0  0  0  0  0  0  0  0  0  0  0
   13.5062   17.2587   47.5193 C   0  0  0  0  0  0  0  0  0  0  0  0
   12.8814   16.9120   42.5521 C   0  0  0  0  0  0  0  0  0  0  0  0
   12.3442   17.7838   43.5648 C   0  0  0  0  0  0  0  0  0  0  0  0
   12.6015   18.2330   47.2238 N   0  0  0  0  0  0  0  0  0  0  0  0
   13.9973   16.4495   46.5566 N   0  0  0  0  0  0  0  0  0  0  0  0
   13.6191   16.6633   45.2732 C   0  0  0  0  0  0  0  0  0  0  0  0
   13.8071   15.9193   42.9474 C   0  0  0  0  0  0  0  0  0  0  0  0
   11.5360   17.3678   40.4352 C   0  0  0  0  0  0  0  0  0  0  0  0
   12.7103   16.9632   41.1356 O   0  0  0  0  0  0  0  0  0  0  0  0
   14.2512   15.0318   42.0018 O   0  0  0  0  0  0  0  0  0  0  0  0
   14.6904   13.7124   42.3517 C   0  0  0  0  0  0  0  0  0  0  0  0
   11.4080   22.4851   44.9260 O   0  0  0  0  0  0  0  0  0  0  0  0
   11.7398   23.2833   43.8777 C   0  0  0  0  0  0  0  0  0  0  0  0
   12.5207   24.7767   41.6720 C   0  0  0  0  0  0  0  0  0  0  0  0
   12.1425   22.6934   42.6959 N   0  0  0  0  0  0  0  0  0  0  0  0
   12.5825   23.3884   41.6082 C   0  0  0  0  0  0  0  0  0  0  0  0
   13.0061   22.7001   40.4789 C   0  0  0  0  0  0  0  0  0  0  0  0
   13.2782   23.3888   39.3384 C   0  0  0  0  0  0  0  0  0  0  0  0
   13.2311   24.8106   39.3952 C   0  0  0  0  0  0  0  0  0  0  0  0
   12.8375   25.5159   40.5399 C   0  0  0  0  0  0  0  0  0  0  0  0
   12.0268   25.3547   42.8391 N   0  0  0  0  0  0  0  0  0  0  0  0
   11.6986   24.6832   43.9635 C   0  0  0  0  0  0  0  0  0  0  0  0
  6 15  1  0  0  0
  6 14  2  0  0  0
  7  8  1  0  0  0
  7  4  1  0  0  0
  7 12  2  0  0  0
  8 11  2  0  0  0
  8 14  1  0  0  0
  9 13  2  0  0  0
  9 12  1  0  0  0
 21 23  2  0  0  0
 21 30  1  0  0  0
 21 20  1  0  0  0
  1  5  1  0  0  0
  1  3  1  0  0  0
  2  5  1  0  0  0
  2  4  1  0  0  0
  3  4  1  0  0  0
 22 28  2  0  0  0
 22 24  1  0  0  0
 22 29  1  0  0  0
 16 17  1  0  0  0
 17 10  1  0  0  0
 10 15  2  0  0  0
 10 11  1  0  0  0
 13 14  1  0  0  0
 15 18  1  0  0  0
 18 19  1  0  0  0
  5 20  1  0  0  0
 23 24  1  0  0  0
 24 25  2  0  0  0
 25 26  1  0  0  0
 26 27  2  0  0  0
 27 28  1  0  0  0
 29 30  2  0  0  0
M  END
> <minimizedAffinity>
-7.93580

$$$$
