1FKI_SB1_A_109


 31 32  0  0  0  0  0  0  0  0999 V2000
    8.2502  -38.3766    0.7568 N   0  0  0  0  0  0  0  0  0  0  0  0
    8.8584  -39.4455    1.3075 C   0  0  0  0  0  0  0  0  0  0  0  0
    9.6252  -39.2970    2.2768 O   0  0  0  0  0  0  0  0  0  0  0  0
    8.5952  -40.8598    0.7752 C   0  0  0  0  0  0  0  0  0  0  0  0
    8.9782  -41.1460   -0.3627 O   0  0  0  0  0  0  0  0  0  0  0  0
    7.8286  -41.9038    1.6208 C   0  0  0  0  0  0  0  0  0  0  0  0
    7.1226  -42.9474    0.7724 C   0  0  0  0  0  0  0  0  0  0  0  0
    6.2950  -42.1330   -0.0647 O   0  0  0  0  0  0  0  0  0  0  0  0
    5.3844  -42.6648   -0.8410 C   0  0  0  0  0  0  0  0  0  0  0  0
    5.2286  -43.8780   -0.8965 O   0  0  0  0  0  0  0  0  0  0  0  0
    4.6128  -41.6948   -1.6969 C   0  0  0  0  0  0  0  0  0  0  0  0
    3.2645  -42.1817   -2.1481 C   0  0  0  0  0  0  0  0  0  0  0  0
    2.6450  -41.1839   -3.1355 C   0  0  0  0  0  0  0  0  0  0  0  0
    2.0463  -39.9359   -2.4693 C   0  0  0  0  0  0  0  0  0  0  0  0
    1.2984  -40.2155   -1.1732 C   0  0  0  0  0  0  0  0  0  0  0  0
    1.1005  -38.9263   -0.4145 C   0  0  0  0  0  0  0  0  0  0  0  0
    2.3334  -38.5873    0.3961 C   0  0  0  0  0  0  0  0  0  0  0  0
    2.1187  -37.2377    1.0613 C   0  0  0  0  0  0  0  0  0  0  0  0
    3.3999  -36.7564    1.7147 C   0  0  0  0  0  0  0  0  0  0  0  0
    3.8579  -37.6495    2.8706 C   0  0  0  0  0  0  0  0  0  0  0  0
    5.1416  -37.1400    3.5122 C   0  0  0  0  0  0  0  0  0  0  0  0
    6.2251  -37.4890    2.5922 O   0  0  0  0  0  0  0  0  0  0  0  0
    7.2359  -36.6493    2.3481 C   0  0  0  0  0  0  0  0  0  0  0  0
    7.3098  -35.5353    2.8579 O   0  0  0  0  0  0  0  0  0  0  0  0
    8.3509  -37.0722    1.4081 C   0  0  0  0  0  0  0  0  0  0  0  0
    8.5219  -36.0390    0.3115 C   0  0  0  0  0  0  0  0  0  0  0  0
    7.4447  -36.0941   -0.7385 C   0  0  0  0  0  0  0  0  0  0  0  0
    7.3342  -37.5116   -1.2633 C   0  0  0  0  0  0  0  0  0  0  0  0
    7.0805  -38.4882   -0.1272 C   0  0  0  0  0  0  0  0  0  0  0  0
    6.7082  -41.2748    2.4984 C   0  0  0  0  0  0  0  0  0  0  0  0
    8.7910  -42.6436    2.5916 C   0  0  0  0  0  0  0  0  0  0  0  0
  1  2  1  0  0  0
  1 25  1  0  0  0
  1 29  1  0  0  0
  2  3  2  0  0  0
  2  4  1  0  0  0
  4  5  2  0  0  0
  4  6  1  0  0  0
  6  7  1  0  0  0
  6 30  1  0  0  0
  6 31  1  0  0  0
  7  8  1  0  0  0
  8  9  1  0  0  0
  9 10  2  0  0  0
  9 11  1  0  0  0
 11 12  1  0  0  0
 12 13  1  0  0  0
 13 14  1  0  0  0
 14 15  1  0  0  0
 15 16  1  0  0  0
 16 17  1  0  0  0
 17 18  1  0  0  0
 18 19  1  0  0  0
 19 20  1  0  0  0
 20 21  1  0  0  0
 21 22  1  0  0  0
 22 23  1  0  0  0
 23 24  2  0  0  0
 23 25  1  0  0  0
 25 26  1  0  0  0
 26 27  1  0  0  0
 27 28  1  0  0  0
 28 29  1  0  0  0
M  END
> <minimizedAffinity>
-11.73408

$$$$
1FKI_SB1_A_109


 31 32  0  0  0  0  0  0  0  0999 V2000
    7.3677  -38.7307    0.8754 N   0  0  0  0  0  0  0  0  0  0  0  0
    7.8492  -39.8447    1.4608 C   0  0  0  0  0  0  0  0  0  0  0  0
    8.4723  -39.7660    2.5356 O   0  0  0  0  0  0  0  0  0  0  0  0
    7.6134  -41.2254    0.8354 C   0  0  0  0  0  0  0  0  0  0  0  0
    8.1465  -41.4850   -0.2471 O   0  0  0  0  0  0  0  0  0  0  0  0
    6.6937  -42.2662    1.5161 C   0  0  0  0  0  0  0  0  0  0  0  0
    6.0798  -43.2458    0.5308 C   0  0  0  0  0  0  0  0  0  0  0  0
    5.4135  -42.3655   -0.3803 O   0  0  0  0  0  0  0  0  0  0  0  0
    4.6060  -42.8280   -1.3015 C   0  0  0  0  0  0  0  0  0  0  0  0
    4.4146  -44.0303   -1.4313 O   0  0  0  0  0  0  0  0  0  0  0  0
    4.0035  -41.7940   -2.2164 C   0  0  0  0  0  0  0  0  0  0  0  0
    2.7177  -42.2049   -2.8771 C   0  0  0  0  0  0  0  0  0  0  0  0
    2.2859  -41.1449   -3.8990 C   0  0  0  0  0  0  0  0  0  0  0  0
    1.6438  -39.8981   -3.2720 C   0  0  0  0  0  0  0  0  0  0  0  0
    0.7058  -40.1936   -2.1100 C   0  0  0  0  0  0  0  0  0  0  0  0
    0.4482  -38.9264   -1.3324 C   0  0  0  0  0  0  0  0  0  0  0  0
    1.5623  -38.6716   -0.3394 C   0  0  0  0  0  0  0  0  0  0  0  0
    1.3039  -37.3400    0.3460 C   0  0  0  0  0  0  0  0  0  0  0  0
    2.4938  -36.9393    1.1967 C   0  0  0  0  0  0  0  0  0  0  0  0
    2.7454  -37.8941    2.3666 C   0  0  0  0  0  0  0  0  0  0  0  0
    3.9406  -37.4650    3.2072 C   0  0  0  0  0  0  0  0  0  0  0  0
    5.1323  -37.8258    2.4380 O   0  0  0  0  0  0  0  0  0  0  0  0
    6.1984  -37.0220    2.3781 C   0  0  0  0  0  0  0  0  0  0  0  0
    6.2392  -35.9322    2.9410 O   0  0  0  0  0  0  0  0  0  0  0  0
    7.4216  -37.4572    1.5903 C   0  0  0  0  0  0  0  0  0  0  0  0
    7.7884  -36.3919    0.5755 C   0  0  0  0  0  0  0  0  0  0  0  0
    6.8736  -36.3610   -0.6196 C   0  0  0  0  0  0  0  0  0  0  0  0
    6.7876  -37.7517   -1.2158 C   0  0  0  0  0  0  0  0  0  0  0  0
    6.3354  -38.7583   -0.1713 C   0  0  0  0  0  0  0  0  0  0  0  0
    5.4821  -41.6227    2.2504 C   0  0  0  0  0  0  0  0  0  0  0  0
    7.4768  -43.0829    2.5821 C   0  0  0  0  0  0  0  0  0  0  0  0
  1  2  1  0  0  0
  1 25  1  0  0  0
  1 29  1  0  0  0
  2  3  2  0  0  0
  2  4  1  0  0  0
  4  5  2  0  0  0
  4  6  1  0  0  0
  6  7  1  0  0  0
  6 30  1  0  0  0
  6 31  1  0  0  0
  7  8  1  0  0  0
  8  9  1  0  0  0
  9 10  2  0  0  0
  9 11  1  0  0  0
 11 12  1  0  0  0
 12 13  1  0  0  0
 13 14  1  0  0  0
 14 15  1  0  0  0
 15 16  1  0  0  0
 16 17  1  0  0  0
 17 18  1  0  0  0
 18 19  1  0  0  0
 19 20  1  0  0  0
 20 21  1  0  0  0
 21 22  1  0  0  0
 22 23  1  0  0  0
 23 24  2  0  0  0
 23 25  1  0  0  0
 25 26  1  0  0  0
 26 27  1  0  0  0
 27 28  1  0  0  0
 28 29  1  0  0  0
M  END
> <minimizedAffinity>
-9.37704

$$$$
1FKI_SB1_A_109


 31 32  0  0  0  0  0  0  0  0999 V2000
    7.6737  -40.3721    1.2020 N   0  0  0  0  0  0  0  0  0  0  0  0
    8.0792  -39.2369    0.6000 C   0  0  0  0  0  0  0  0  0  0  0  0
    8.4294  -39.2541   -0.5944 O   0  0  0  0  0  0  0  0  0  0  0  0
    8.0872  -37.9045    1.3599 C   0  0  0  0  0  0  0  0  0  0  0  0
    8.8728  -37.7633    2.3013 O   0  0  0  0  0  0  0  0  0  0  0  0
    7.1059  -36.7669    0.9917 C   0  0  0  0  0  0  0  0  0  0  0  0
    6.8037  -35.8459    2.1613 C   0  0  0  0  0  0  0  0  0  0  0  0
    6.3099  -36.7673    3.1391 O   0  0  0  0  0  0  0  0  0  0  0  0
    5.7706  -36.3463    4.2556 C   0  0  0  0  0  0  0  0  0  0  0  0
    5.6949  -35.1514    4.5121 O   0  0  0  0  0  0  0  0  0  0  0  0
    5.3294  -37.4239    5.2112 C   0  0  0  0  0  0  0  0  0  0  0  0
    4.2621  -37.0093    6.1846 C   0  0  0  0  0  0  0  0  0  0  0  0
    4.0096  -38.1301    7.2017 C   0  0  0  0  0  0  0  0  0  0  0  0
    3.1582  -39.2871    6.6573 C   0  0  0  0  0  0  0  0  0  0  0  0
    1.9981  -38.8498    5.7741 C   0  0  0  0  0  0  0  0  0  0  0  0
    1.4836  -40.0328    4.9914 C   0  0  0  0  0  0  0  0  0  0  0  0
    2.3175  -40.2556    3.7476 C   0  0  0  0  0  0  0  0  0  0  0  0
    1.8193  -41.5106    3.0499 C   0  0  0  0  0  0  0  0  0  0  0  0
    2.7502  -41.8943    1.9157 C   0  0  0  0  0  0  0  0  0  0  0  0
    2.7865  -40.8571    0.7904 C   0  0  0  0  0  0  0  0  0  0  0  0
    3.7229  -41.2702   -0.3372 C   0  0  0  0  0  0  0  0  0  0  0  0
    5.0818  -41.0334    0.1520 O   0  0  0  0  0  0  0  0  0  0  0  0
    6.0769  -41.8894   -0.0991 C   0  0  0  0  0  0  0  0  0  0  0  0
    5.9136  -42.9284   -0.7317 O   0  0  0  0  0  0  0  0  0  0  0  0
    7.4755  -41.5817    0.4060 C   0  0  0  0  0  0  0  0  0  0  0  0
    7.9961  -42.7454    1.2270 C   0  0  0  0  0  0  0  0  0  0  0  0
    7.3834  -42.8335    2.5992 C   0  0  0  0  0  0  0  0  0  0  0  0
    7.5306  -41.4957    3.2961 C   0  0  0  0  0  0  0  0  0  0  0  0
    6.9164  -40.3838    2.4623 C   0  0  0  0  0  0  0  0  0  0  0  0
    5.7171  -37.2871    0.5209 C   0  0  0  0  0  0  0  0  0  0  0  0
    7.6729  -35.9013   -0.1684 C   0  0  0  0  0  0  0  0  0  0  0  0
  1  2  1  0  0  0
  1 25  1  0  0  0
  1 29  1  0  0  0
  2  3  2  0  0  0
  2  4  1  0  0  0
  4  5  2  0  0  0
  4  6  1  0  0  0
  6  7  1  0  0  0
  6 30  1  0  0  0
  6 31  1  0  0  0
  7  8  1  0  0  0
  8  9  1  0  0  0
  9 10  2  0  0  0
  9 11  1  0  0  0
 11 12  1  0  0  0
 12 13  1  0  0  0
 13 14  1  0  0  0
 14 15  1  0  0  0
 15 16  1  0  0  0
 16 17  1  0  0  0
 17 18  1  0  0  0
 18 19  1  0  0  0
 19 20  1  0  0  0
 20 21  1  0  0  0
 21 22  1  0  0  0
 22 23  1  0  0  0
 23 24  2  0  0  0
 23 25  1  0  0  0
 25 26  1  0  0  0
 26 27  1  0  0  0
 27 28  1  0  0  0
 28 29  1  0  0  0
M  END
> <minimizedAffinity>
-8.99859

$$$$
