5EH5_XCZ_A_303


 13 13  0  0  0  0  0  0  0  0999 V2000
   16.6668    2.4205   11.3110 C   0  0  0  0  0  0  0  0  0  0  0  0
   16.4803    3.4582   12.2353 C   0  0  0  0  0  0  0  0  0  0  0  0
   16.8856    1.1039   11.8073 C   0  0  0  0  0  0  0  0  0  0  0  0
   16.7417    1.9184   13.9733 C   0  0  0  0  0  0  0  0  0  0  0  0
   17.0788   -0.0740   10.8920 C   0  0  0  0  0  0  0  0  0  0  0  0
   16.5268    3.1818   13.5620 N   0  0  0  0  0  0  0  0  0  0  0  0
   16.9312    0.9042   13.1465 N   0  0  0  0  0  0  0  0  0  0  0  0
   15.6102    2.5474   16.3499 N   0  0  0  0  0  0  0  0  0  0  0  0
   16.4790    0.2037   15.8403 O   0  0  0  0  0  0  0  0  0  0  0  0
   18.1312    1.9978   16.1928 O   0  0  0  0  0  0  0  0  0  0  0  0
   16.7899    1.6169   15.7009 S   0  0  0  0  0  0  0  0  0  0  0  0
   14.7047    2.2519   15.9850 H   0  0  0  0  0  0  0  0  0  0  0  0
   15.7735    3.5238   16.1042 H   0  0  0  0  0  0  0  0  0  0  0  0
  1  2  1  0  0  0
  1  3  2  0  0  0
  2  6  2  0  0  0
  3  5  1  0  0  0
  3  7  1  0  0  0
  4  6  1  0  0  0
  4  7  2  0  0  0
  4 11  1  0  0  0
  8 11  1  0  0  0
  9 11  2  0  0  0
 10 11  2  0  0  0
  8 12  1  0  0  0
  8 13  1  0  0  0
M  END
> <minimizedAffinity>
-5.81638

$$$$
5EH5_XCZ_A_303


 13 13  0  0  0  0  0  0  0  0999 V2000
   17.5125    4.2409   14.6835 C   0  0  0  0  0  0  0  0  0  0  0  0
   18.1865    3.2682   15.4355 C   0  0  0  0  0  0  0  0  0  0  0  0
   16.0913    4.2890   14.7585 C   0  0  0  0  0  0  0  0  0  0  0  0
   16.1281    2.4918   16.2229 C   0  0  0  0  0  0  0  0  0  0  0  0
   15.2845    5.3077   14.0009 C   0  0  0  0  0  0  0  0  0  0  0  0
   17.4707    2.4018   16.1943 N   0  0  0  0  0  0  0  0  0  0  0  0
   15.4416    3.3835   15.5287 N   0  0  0  0  0  0  0  0  0  0  0  0
   13.6648    1.6351   16.9458 N   0  0  0  0  0  0  0  0  0  0  0  0
   15.6430    0.0401   16.7214 O   0  0  0  0  0  0  0  0  0  0  0  0
   15.6234    1.5959   18.6324 O   0  0  0  0  0  0  0  0  0  0  0  0
   15.2520    1.3472   17.2231 S   0  0  0  0  0  0  0  0  0  0  0  0
   13.4523    1.4518   15.9652 H   0  0  0  0  0  0  0  0  0  0  0  0
   13.4528    2.6088   17.1634 H   0  0  0  0  0  0  0  0  0  0  0  0
  1  2  1  0  0  0
  1  3  2  0  0  0
  2  6  2  0  0  0
  3  5  1  0  0  0
  3  7  1  0  0  0
  4  6  1  0  0  0
  4  7  2  0  0  0
  4 11  1  0  0  0
  8 11  1  0  0  0
  9 11  2  0  0  0
 10 11  2  0  0  0
  8 12  1  0  0  0
  8 13  1  0  0  0
M  END
> <minimizedAffinity>
-5.78780

$$$$
5EH5_XCZ_A_303


 13 13  0  0  0  0  0  0  0  0999 V2000
   17.7227    1.4675   11.0015 C   0  0  0  0  0  0  0  0  0  0  0  0
   17.0687    0.3972   11.6283 C   0  0  0  0  0  0  0  0  0  0  0  0
   18.0685    2.6030   11.7883 C   0  0  0  0  0  0  0  0  0  0  0  0
   17.1233    1.5808   13.6423 C   0  0  0  0  0  0  0  0  0  0  0  0
   18.7857    3.7903   11.2067 C   0  0  0  0  0  0  0  0  0  0  0  0
   16.7760    0.4802   12.9497 N   0  0  0  0  0  0  0  0  0  0  0  0
   17.7337    2.6211   13.1008 N   0  0  0  0  0  0  0  0  0  0  0  0
   18.0641    2.1869   16.1063 N   0  0  0  0  0  0  0  0  0  0  0  0
   15.6339    2.5929   15.4456 O   0  0  0  0  0  0  0  0  0  0  0  0
   16.3680    0.2640   15.7775 O   0  0  0  0  0  0  0  0  0  0  0  0
   16.7223    1.6342   15.3494 S   0  0  0  0  0  0  0  0  0  0  0  0
   18.2721    3.1317   15.7830 H   0  0  0  0  0  0  0  0  0  0  0  0
   18.8512    1.5739   15.8939 H   0  0  0  0  0  0  0  0  0  0  0  0
  1  2  1  0  0  0
  1  3  2  0  0  0
  2  6  2  0  0  0
  3  5  1  0  0  0
  3  7  1  0  0  0
  4  6  1  0  0  0
  4  7  2  0  0  0
  4 11  1  0  0  0
  8 11  1  0  0  0
  9 11  2  0  0  0
 10 11  2  0  0  0
  8 12  1  0  0  0
  8 13  1  0  0  0
M  END
> <minimizedAffinity>
-5.71479

$$$$
5EH5_XCZ_A_303


 13 13  0  0  0  0  0  0  0  0999 V2000
   15.5058    3.5981   15.3088 C   0  0  0  0  0  0  0  0  0  0  0  0
   15.0334    4.3889   14.2517 C   0  0  0  0  0  0  0  0  0  0  0  0
   16.3792    2.5150   15.0055 C   0  0  0  0  0  0  0  0  0  0  0  0
   16.2329    3.0540   12.7552 C   0  0  0  0  0  0  0  0  0  0  0  0
   16.9488    1.6235   16.0747 C   0  0  0  0  0  0  0  0  0  0  0  0
   15.4083    4.0932   12.9825 N   0  0  0  0  0  0  0  0  0  0  0  0
   16.7016    2.2715   13.7124 N   0  0  0  0  0  0  0  0  0  0  0  0
   15.7810    1.4350   10.6341 N   0  0  0  0  0  0  0  0  0  0  0  0
   16.3150    3.9142   10.3577 O   0  0  0  0  0  0  0  0  0  0  0  0
   18.1340    2.4123   11.0708 O   0  0  0  0  0  0  0  0  0  0  0  0
   16.6876    2.7177   11.0944 S   0  0  0  0  0  0  0  0  0  0  0  0
   14.7934    1.6882   10.6647 H   0  0  0  0  0  0  0  0  0  0  0  0
   15.9514    0.6536   11.2671 H   0  0  0  0  0  0  0  0  0  0  0  0
  1  2  1  0  0  0
  1  3  2  0  0  0
  2  6  2  0  0  0
  3  5  1  0  0  0
  3  7  1  0  0  0
  4  6  1  0  0  0
  4  7  2  0  0  0
  4 11  1  0  0  0
  8 11  1  0  0  0
  9 11  2  0  0  0
 10 11  2  0  0  0
  8 12  1  0  0  0
  8 13  1  0  0  0
M  END
> <minimizedAffinity>
-5.57754

$$$$
5EH5_XCZ_A_303


 13 13  0  0  0  0  0  0  0  0999 V2000
   16.0441    3.1587   15.1601 C   0  0  0  0  0  0  0  0  0  0  0  0
   16.6970    1.9865   14.7530 C   0  0  0  0  0  0  0  0  0  0  0  0
   15.6117    4.0745   14.1591 C   0  0  0  0  0  0  0  0  0  0  0  0
   16.4799    2.6720   12.5298 C   0  0  0  0  0  0  0  0  0  0  0  0
   14.8889    5.3489   14.4997 C   0  0  0  0  0  0  0  0  0  0  0  0
   16.9070    1.7684   13.4313 N   0  0  0  0  0  0  0  0  0  0  0  0
   15.8664    3.7963   12.8579 N   0  0  0  0  0  0  0  0  0  0  0  0
   15.7954    1.0862   10.4463 N   0  0  0  0  0  0  0  0  0  0  0  0
   16.3744    3.5517   10.1402 O   0  0  0  0  0  0  0  0  0  0  0  0
   18.2051    1.9925   10.6790 O   0  0  0  0  0  0  0  0  0  0  0  0
   16.7758    2.3384   10.8330 S   0  0  0  0  0  0  0  0  0  0  0  0
   14.8221    1.3669   10.5661 H   0  0  0  0  0  0  0  0  0  0  0  0
   15.9984    0.2945   11.0564 H   0  0  0  0  0  0  0  0  0  0  0  0
  1  2  1  0  0  0
  1  3  2  0  0  0
  2  6  2  0  0  0
  3  5  1  0  0  0
  3  7  1  0  0  0
  4  6  1  0  0  0
  4  7  2  0  0  0
  4 11  1  0  0  0
  8 11  1  0  0  0
  9 11  2  0  0  0
 10 11  2  0  0  0
  8 12  1  0  0  0
  8 13  1  0  0  0
M  END
> <minimizedAffinity>
-5.55238

$$$$
5EH5_XCZ_A_303


 13 13  0  0  0  0  0  0  0  0999 V2000
   16.1641    3.7015   14.2964 C   0  0  0  0  0  0  0  0  0  0  0  0
   15.7115    3.8385   12.9764 C   0  0  0  0  0  0  0  0  0  0  0  0
   16.9639    2.5695   14.6230 C   0  0  0  0  0  0  0  0  0  0  0  0
   16.7906    1.8395   12.4292 C   0  0  0  0  0  0  0  0  0  0  0  0
   17.5079    2.3475   16.0077 C   0  0  0  0  0  0  0  0  0  0  0  0
   16.0349    2.8909   12.0619 N   0  0  0  0  0  0  0  0  0  0  0  0
   17.2375    1.6567   13.6601 N   0  0  0  0  0  0  0  0  0  0  0  0
   16.1377    0.9106    9.9726 N   0  0  0  0  0  0  0  0  0  0  0  0
   18.5467    0.9490   10.8112 O   0  0  0  0  0  0  0  0  0  0  0  0
   17.0031   -0.6956   11.8039 O   0  0  0  0  0  0  0  0  0  0  0  0
   17.1810    0.6446   11.2054 S   0  0  0  0  0  0  0  0  0  0  0  0
   16.2942    1.8431    9.5900 H   0  0  0  0  0  0  0  0  0  0  0  0
   15.1800    0.8405   10.3166 H   0  0  0  0  0  0  0  0  0  0  0  0
  1  2  1  0  0  0
  1  3  2  0  0  0
  2  6  2  0  0  0
  3  5  1  0  0  0
  3  7  1  0  0  0
  4  6  1  0  0  0
  4  7  2  0  0  0
  4 11  1  0  0  0
  8 11  1  0  0  0
  9 11  2  0  0  0
 10 11  2  0  0  0
  8 12  1  0  0  0
  8 13  1  0  0  0
M  END
> <minimizedAffinity>
-5.42501

$$$$
5EH5_XCZ_A_303


 13 13  0  0  0  0  0  0  0  0999 V2000
   15.9356    3.3307   15.1305 C   0  0  0  0  0  0  0  0  0  0  0  0
   16.6506    2.1419   14.9266 C   0  0  0  0  0  0  0  0  0  0  0  0
   15.5398    4.0860   13.9901 C   0  0  0  0  0  0  0  0  0  0  0  0
   16.5558    2.5141   12.6217 C   0  0  0  0  0  0  0  0  0  0  0  0
   14.7561    5.3643   14.1102 C   0  0  0  0  0  0  0  0  0  0  0  0
   16.9524    1.7574   13.6618 N   0  0  0  0  0  0  0  0  0  0  0  0
   15.8868    3.6466   12.7565 N   0  0  0  0  0  0  0  0  0  0  0  0
   18.5741    1.6390   11.0453 N   0  0  0  0  0  0  0  0  0  0  0  0
   16.1918    0.7571   10.8120 O   0  0  0  0  0  0  0  0  0  0  0  0
   16.6512    3.0588   10.0610 O   0  0  0  0  0  0  0  0  0  0  0  0
   16.9713    1.9685   11.0069 S   0  0  0  0  0  0  0  0  0  0  0  0
   18.7501    0.8839   11.7080 H   0  0  0  0  0  0  0  0  0  0  0  0
   19.0856    2.4724   11.3357 H   0  0  0  0  0  0  0  0  0  0  0  0
  1  2  1  0  0  0
  1  3  2  0  0  0
  2  6  2  0  0  0
  3  5  1  0  0  0
  3  7  1  0  0  0
  4  6  1  0  0  0
  4  7  2  0  0  0
  4 11  1  0  0  0
  8 11  1  0  0  0
  9 11  2  0  0  0
 10 11  2  0  0  0
  8 12  1  0  0  0
  8 13  1  0  0  0
M  END
> <minimizedAffinity>
-5.30220

$$$$
5EH5_XCZ_A_303


 13 13  0  0  0  0  0  0  0  0999 V2000
   17.9999    3.8835   15.2108 C   0  0  0  0  0  0  0  0  0  0  0  0
   17.2131    2.7252   15.2838 C   0  0  0  0  0  0  0  0  0  0  0  0
   18.4503    4.3156   13.9309 C   0  0  0  0  0  0  0  0  0  0  0  0
   17.3756    2.5032   12.9634 C   0  0  0  0  0  0  0  0  0  0  0  0
   19.2843    5.5547   13.7530 C   0  0  0  0  0  0  0  0  0  0  0  0
   16.9184    2.0500   14.1454 N   0  0  0  0  0  0  0  0  0  0  0  0
   18.1268    3.5840   12.8376 N   0  0  0  0  0  0  0  0  0  0  0  0
   15.5496    2.2206   10.9862 N   0  0  0  0  0  0  0  0  0  0  0  0
   18.0439    1.8627   10.5890 O   0  0  0  0  0  0  0  0  0  0  0  0
   16.8283    0.1703   11.9046 O   0  0  0  0  0  0  0  0  0  0  0  0
   16.9626    1.5922   11.5221 S   0  0  0  0  0  0  0  0  0  0  0  0
   15.6867    3.1994   10.7340 H   0  0  0  0  0  0  0  0  0  0  0  0
   14.8470    2.1544   11.7227 H   0  0  0  0  0  0  0  0  0  0  0  0
  1  2  1  0  0  0
  1  3  2  0  0  0
  2  6  2  0  0  0
  3  5  1  0  0  0
  3  7  1  0  0  0
  4  6  1  0  0  0
  4  7  2  0  0  0
  4 11  1  0  0  0
  8 11  1  0  0  0
  9 11  2  0  0  0
 10 11  2  0  0  0
  8 12  1  0  0  0
  8 13  1  0  0  0
M  END
> <minimizedAffinity>
-5.27960

$$$$
5EH5_XCZ_A_303


 13 13  0  0  0  0  0  0  0  0999 V2000
   20.3288    4.1585   11.3251 C   0  0  0  0  0  0  0  0  0  0  0  0
   20.2176    3.2246   10.2851 C   0  0  0  0  0  0  0  0  0  0  0  0
   19.3139    4.1829   12.3236 C   0  0  0  0  0  0  0  0  0  0  0  0
   18.2185    2.4609   11.2234 C   0  0  0  0  0  0  0  0  0  0  0  0
   19.3575    5.1378   13.4850 C   0  0  0  0  0  0  0  0  0  0  0  0
   19.1498    2.3893   10.2544 N   0  0  0  0  0  0  0  0  0  0  0  0
   18.2694    3.3261   12.2219 N   0  0  0  0  0  0  0  0  0  0  0  0
   15.5254    2.2959   11.0135 N   0  0  0  0  0  0  0  0  0  0  0  0
   17.0774    0.5942    9.9165 O   0  0  0  0  0  0  0  0  0  0  0  0
   16.8533    0.5414   12.3701 O   0  0  0  0  0  0  0  0  0  0  0  0
   16.8592    1.3552   11.1357 S   0  0  0  0  0  0  0  0  0  0  0  0
   15.5699    2.8385   10.1509 H   0  0  0  0  0  0  0  0  0  0  0  0
   15.4817    2.9293   11.8117 H   0  0  0  0  0  0  0  0  0  0  0  0
  1  2  1  0  0  0
  1  3  2  0  0  0
  2  6  2  0  0  0
  3  5  1  0  0  0
  3  7  1  0  0  0
  4  6  1  0  0  0
  4  7  2  0  0  0
  4 11  1  0  0  0
  8 11  1  0  0  0
  9 11  2  0  0  0
 10 11  2  0  0  0
  8 12  1  0  0  0
  8 13  1  0  0  0
M  END
> <minimizedAffinity>
-5.21820

$$$$
5EH5_XCZ_A_303


 13 13  0  0  0  0  0  0  0  0999 V2000
   15.9936    3.7343   14.5072 C   0  0  0  0  0  0  0  0  0  0  0  0
   15.6662    3.9654   13.1635 C   0  0  0  0  0  0  0  0  0  0  0  0
   16.8132    2.6128   14.8204 C   0  0  0  0  0  0  0  0  0  0  0  0
   16.8924    2.0675   12.5683 C   0  0  0  0  0  0  0  0  0  0  0  0
   17.2293    2.2954   16.2306 C   0  0  0  0  0  0  0  0  0  0  0  0
   16.1247    3.1142   12.2127 N   0  0  0  0  0  0  0  0  0  0  0  0
   17.2250    1.7982   13.8193 N   0  0  0  0  0  0  0  0  0  0  0  0
   19.0873    1.1720   11.2626 N   0  0  0  0  0  0  0  0  0  0  0  0
   17.0838   -0.3341   11.7372 O   0  0  0  0  0  0  0  0  0  0  0  0
   16.8294    1.4243   10.0295 O   0  0  0  0  0  0  0  0  0  0  0  0
   17.4601    0.9994   11.2975 S   0  0  0  0  0  0  0  0  0  0  0  0
   19.4805    0.8686   12.1535 H   0  0  0  0  0  0  0  0  0  0  0  0
   19.3219    2.1518   11.1035 H   0  0  0  0  0  0  0  0  0  0  0  0
  1  2  1  0  0  0
  1  3  2  0  0  0
  2  6  2  0  0  0
  3  5  1  0  0  0
  3  7  1  0  0  0
  4  6  1  0  0  0
  4  7  2  0  0  0
  4 11  1  0  0  0
  8 11  1  0  0  0
  9 11  2  0  0  0
 10 11  2  0  0  0
  8 12  1  0  0  0
  8 13  1  0  0  0
M  END
> <minimizedAffinity>
-5.16433

$$$$
