6AYQ_TDI_A_301


 24 26  0  0  0  0  0  0  0  0999 V2000
   13.7903  -10.4475   31.8731 C   0  0  0  0  0  0  0  0  0  0  0  0
   14.6425   -9.1263   30.2074 C   0  0  0  0  0  0  0  0  0  0  0  0
   15.2076  -10.2912   29.5482 C   0  0  0  0  0  0  0  0  0  0  0  0
   14.9598  -11.5833   30.1776 C   0  0  0  0  0  0  0  0  0  0  0  0
   15.0018   -7.9545   29.4007 C   0  0  0  0  0  0  0  0  0  0  0  0
   15.7198   -8.4919   28.3440 C   0  0  0  0  0  0  0  0  0  0  0  0
   15.8436   -9.8457   28.4509 N   0  0  0  0  0  0  0  0  0  0  0  0
   15.4223  -12.7265   29.6407 N   0  0  0  0  0  0  0  0  0  0  0  0
   14.2691  -11.5954   31.3330 N   0  0  0  0  0  0  0  0  0  0  0  0
   13.9515   -9.2195   31.3622 N   0  0  0  0  0  0  0  0  0  0  0  0
   16.3306  -10.4168   27.8137 H   0  0  0  0  0  0  0  0  0  0  0  0
   15.9262  -12.7047   28.7952 H   0  0  0  0  0  0  0  0  0  0  0  0
   15.2571  -13.5851   30.0932 H   0  0  0  0  0  0  0  0  0  0  0  0
   14.6644   -6.4919   29.5740 C   0  0  0  0  0  0  0  0  0  0  0  0
   17.6179   -5.7301   31.5953 C   0  0  0  0  0  0  0  0  0  0  0  0
   16.9555   -5.6590   30.2263 C   0  0  0  0  0  0  0  0  0  0  0  0
   15.5802   -5.9853   30.5546 N   0  0  0  0  0  0  0  0  0  0  0  0
   15.2645   -5.8654   31.9739 C   0  0  0  0  0  0  0  0  0  0  0  0
   16.5239   -5.2546   32.5398 C   0  0  0  0  0  0  0  0  0  0  0  0
   16.3864   -3.8407   32.4498 O   0  0  0  0  0  0  0  0  0  0  0  0
   16.2017   -3.5916   31.5307 H   0  0  0  0  0  0  0  0  0  0  0  0
   18.1359   -7.1450   31.9068 C   0  0  0  0  0  0  0  0  0  0  0  0
   20.5592   -6.6208   32.9961 C   0  0  0  0  0  0  0  0  0  0  0  0
   18.9858   -7.2878   33.4550 S   0  0  0  0  0  0  0  0  0  0  0  0
  1  9  2  0  0  0
  1 10  1  0  0  0
  2  3  1  0  0  0
  2  5  1  0  0  0
  2 10  2  0  0  0
  3  4  2  0  0  0
  3  7  1  0  0  0
  4  8  1  0  0  0
  4  9  1  0  0  0
 23 24  1  0  0  0
 24 22  1  0  0  0
 22 15  1  0  0  0
 15 16  1  0  0  0
 15 19  1  0  0  0
 16 17  1  0  0  0
 17 14  1  0  0  0
 17 18  1  0  0  0
 14  5  1  0  0  0
  5  6  2  0  0  0
  6  7  1  0  0  0
 18 19  1  0  0  0
 19 20  1  0  0  0
  7 11  1  0  0  0
  8 12  1  0  0  0
  8 13  1  0  0  0
 20 21  1  0  0  0
M  END
> <minimizedAffinity>
-9.26818

$$$$
