5A6X_MFU_A_201


 15 15  0  0  0  0  0  0  0  0999 V2000
   -5.3562    6.7543    9.0842 C   0  0  0  0  0  0  0  0  0  0  0  0
   -4.3154    6.6428    7.9688 C   0  0  0  0  0  0  0  0  0  0  0  0
   -3.9258    8.0020    7.4740 C   0  0  0  0  0  0  0  0  0  0  0  0
   -3.3193    8.7633    8.6339 C   0  0  0  0  0  0  0  0  0  0  0  0
   -4.3240    8.8568    9.7693 C   0  0  0  0  0  0  0  0  0  0  0  0
   -3.8133    9.5389   11.0239 C   0  0  0  0  0  0  0  0  0  0  0  0
   -4.8407    5.8973    6.8799 O   0  0  0  0  0  0  0  0  0  0  0  0
   -2.8858    7.7616    6.4884 O   0  0  0  0  0  0  0  0  0  0  0  0
   -2.0961    8.0856    9.0003 O   0  0  0  0  0  0  0  0  0  0  0  0
   -4.7990    7.5464   10.1133 O   0  0  0  0  0  0  0  0  0  0  0  0
   -5.6193    6.3520    6.5224 H   0  0  0  0  0  0  0  0  0  0  0  0
   -2.1616    7.2627    6.8977 H   0  0  0  0  0  0  0  0  0  0  0  0
   -2.2949    7.1669    9.2400 H   0  0  0  0  0  0  0  0  0  0  0  0
   -6.4688    7.4053    8.5300 O   0  0  0  0  0  0  0  0  0  0  0  0
   -7.6319    7.2359    9.3414 C   0  0  0  0  0  0  0  0  0  0  0  0
  1  2  1  0  0  0
  1 14  1  0  0  0
  1 10  1  0  0  0
  2  3  1  0  0  0
  2  7  1  0  0  0
  3  4  1  0  0  0
  3  8  1  0  0  0
  4  5  1  0  0  0
  4  9  1  0  0  0
  5  6  1  0  0  0
  5 10  1  0  0  0
 14 15  1  0  0  0
  7 11  1  0  0  0
  8 12  1  0  0  0
  9 13  1  0  0  0
M  END
> <minimizedAffinity>
-6.99784

$$$$
5A6X_MFU_A_201


 15 15  0  0  0  0  0  0  0  0999 V2000
   -4.3180    9.4270    9.5601 C   0  0  0  0  0  0  0  0  0  0  0  0
   -3.7388    9.2257    8.1588 C   0  0  0  0  0  0  0  0  0  0  0  0
   -3.3580    7.7925    7.9469 C   0  0  0  0  0  0  0  0  0  0  0  0
   -4.6109    6.9531    8.0830 C   0  0  0  0  0  0  0  0  0  0  0  0
   -5.2243    7.1636    9.4565 C   0  0  0  0  0  0  0  0  0  0  0  0
   -6.5293    6.4288    9.6962 C   0  0  0  0  0  0  0  0  0  0  0  0
   -2.5828   10.0324    7.9848 O   0  0  0  0  0  0  0  0  0  0  0  0
   -2.9051    7.7216    6.5682 O   0  0  0  0  0  0  0  0  0  0  0  0
   -5.4918    7.3165    6.9959 O   0  0  0  0  0  0  0  0  0  0  0  0
   -5.4297    8.5647    9.6928 O   0  0  0  0  0  0  0  0  0  0  0  0
   -1.9074    9.7733    8.6311 H   0  0  0  0  0  0  0  0  0  0  0  0
   -3.6081    8.0393    5.9802 H   0  0  0  0  0  0  0  0  0  0  0  0
   -5.6897    8.2649    7.0433 H   0  0  0  0  0  0  0  0  0  0  0  0
   -3.3135    9.0537   10.4659 O   0  0  0  0  0  0  0  0  0  0  0  0
   -3.2315    9.9661   11.5616 C   0  0  0  0  0  0  0  0  0  0  0  0
  1  2  1  0  0  0
  1 14  1  0  0  0
  1 10  1  0  0  0
  2  3  1  0  0  0
  2  7  1  0  0  0
  3  4  1  0  0  0
  3  8  1  0  0  0
  4  5  1  0  0  0
  4  9  1  0  0  0
  5  6  1  0  0  0
  5 10  1  0  0  0
 14 15  1  0  0  0
  7 11  1  0  0  0
  8 12  1  0  0  0
  9 13  1  0  0  0
M  END
> <minimizedAffinity>
-5.76760

$$$$
5A6X_MFU_A_201


 15 15  0  0  0  0  0  0  0  0999 V2000
   -5.2708    7.3918    9.6885 C   0  0  0  0  0  0  0  0  0  0  0  0
   -4.1407    7.1111    8.6966 C   0  0  0  0  0  0  0  0  0  0  0  0
   -4.2241    8.0415    7.5256 C   0  0  0  0  0  0  0  0  0  0  0  0
   -4.0786    9.4566    8.0443 C   0  0  0  0  0  0  0  0  0  0  0  0
   -5.1711    9.7474    9.0587 C   0  0  0  0  0  0  0  0  0  0  0  0
   -5.0958   11.1156    9.7089 C   0  0  0  0  0  0  0  0  0  0  0  0
   -4.2252    5.7753    8.2213 O   0  0  0  0  0  0  0  0  0  0  0  0
   -3.0622    7.7291    6.7111 O   0  0  0  0  0  0  0  0  0  0  0  0
   -2.7430    9.5817    8.5830 O   0  0  0  0  0  0  0  0  0  0  0  0
   -5.1670    8.7441   10.0856 O   0  0  0  0  0  0  0  0  0  0  0  0
   -5.0697    5.6487    7.7611 H   0  0  0  0  0  0  0  0  0  0  0  0
   -2.2578    7.8285    7.2439 H   0  0  0  0  0  0  0  0  0  0  0  0
   -2.6160    8.9274    9.2878 H   0  0  0  0  0  0  0  0  0  0  0  0
   -6.4729    7.1893    8.9936 O   0  0  0  0  0  0  0  0  0  0  0  0
   -7.4068    6.4392    9.7713 C   0  0  0  0  0  0  0  0  0  0  0  0
  1  2  1  0  0  0
  1 14  1  0  0  0
  1 10  1  0  0  0
  2  3  1  0  0  0
  2  7  1  0  0  0
  3  4  1  0  0  0
  3  8  1  0  0  0
  4  5  1  0  0  0
  4  9  1  0  0  0
  5  6  1  0  0  0
  5 10  1  0  0  0
 14 15  1  0  0  0
  7 11  1  0  0  0
  8 12  1  0  0  0
  9 13  1  0  0  0
M  END
> <minimizedAffinity>
-5.71615

$$$$
5A6X_MFU_A_201


 15 15  0  0  0  0  0  0  0  0999 V2000
   -4.3525    9.4969    7.8700 C   0  0  0  0  0  0  0  0  0  0  0  0
   -4.2418    8.0080    7.5371 C   0  0  0  0  0  0  0  0  0  0  0  0
   -4.0877    7.1984    8.7880 C   0  0  0  0  0  0  0  0  0  0  0  0
   -5.3202    7.4183    9.6395 C   0  0  0  0  0  0  0  0  0  0  0  0
   -5.4708    8.8967    9.9544 C   0  0  0  0  0  0  0  0  0  0  0  0
   -6.7113    9.2611   10.7471 C   0  0  0  0  0  0  0  0  0  0  0  0
   -3.1158    7.7737    6.7037 O   0  0  0  0  0  0  0  0  0  0  0  0
   -4.0770    5.8151    8.3439 O   0  0  0  0  0  0  0  0  0  0  0  0
   -6.4447    6.8645    8.9193 O   0  0  0  0  0  0  0  0  0  0  0  0
   -5.4544    9.6613    8.7394 O   0  0  0  0  0  0  0  0  0  0  0  0
   -2.3078    8.0401    7.1695 H   0  0  0  0  0  0  0  0  0  0  0  0
   -4.8880    5.6293    7.8452 H   0  0  0  0  0  0  0  0  0  0  0  0
   -6.5230    7.3013    8.0568 H   0  0  0  0  0  0  0  0  0  0  0  0
   -3.1660    9.8485    8.5314 O   0  0  0  0  0  0  0  0  0  0  0  0
   -2.9622   11.2620    8.5244 C   0  0  0  0  0  0  0  0  0  0  0  0
  1  2  1  0  0  0
  1 14  1  0  0  0
  1 10  1  0  0  0
  2  3  1  0  0  0
  2  7  1  0  0  0
  3  4  1  0  0  0
  3  8  1  0  0  0
  4  5  1  0  0  0
  4  9  1  0  0  0
  5  6  1  0  0  0
  5 10  1  0  0  0
 14 15  1  0  0  0
  7 11  1  0  0  0
  8 12  1  0  0  0
  9 13  1  0  0  0
M  END
> <minimizedAffinity>
-5.46063

$$$$
5A6X_MFU_A_201


 15 15  0  0  0  0  0  0  0  0999 V2000
   -3.6638    9.6197    8.2230 C   0  0  0  0  0  0  0  0  0  0  0  0
   -3.3190    8.1423    8.0277 C   0  0  0  0  0  0  0  0  0  0  0  0
   -4.4006    7.2703    8.5877 C   0  0  0  0  0  0  0  0  0  0  0  0
   -5.6801    7.5766    7.8382 C   0  0  0  0  0  0  0  0  0  0  0  0
   -6.0247    9.0483    7.9888 C   0  0  0  0  0  0  0  0  0  0  0  0
   -7.2534    9.5015    7.2238 C   0  0  0  0  0  0  0  0  0  0  0  0
   -2.0995    7.8316    8.6864 O   0  0  0  0  0  0  0  0  0  0  0  0
   -3.9948    5.9123    8.2679 O   0  0  0  0  0  0  0  0  0  0  0  0
   -5.4826    7.1679    6.4657 O   0  0  0  0  0  0  0  0  0  0  0  0
   -4.9065    9.8571    7.5934 O   0  0  0  0  0  0  0  0  0  0  0  0
   -2.1946    7.9966    9.6375 H   0  0  0  0  0  0  0  0  0  0  0  0
   -3.8707    5.8292    7.3095 H   0  0  0  0  0  0  0  0  0  0  0  0
   -4.7257    7.6457    6.0918 H   0  0  0  0  0  0  0  0  0  0  0  0
   -3.7829    9.8236    9.6062 O   0  0  0  0  0  0  0  0  0  0  0  0
   -3.5966   11.1971    9.9506 C   0  0  0  0  0  0  0  0  0  0  0  0
  1  2  1  0  0  0
  1 14  1  0  0  0
  1 10  1  0  0  0
  2  3  1  0  0  0
  2  7  1  0  0  0
  3  4  1  0  0  0
  3  8  1  0  0  0
  4  5  1  0  0  0
  4  9  1  0  0  0
  5  6  1  0  0  0
  5 10  1  0  0  0
 14 15  1  0  0  0
  7 11  1  0  0  0
  8 12  1  0  0  0
  9 13  1  0  0  0
M  END
> <minimizedAffinity>
-5.32191

$$$$
5A6X_MFU_A_201


 15 15  0  0  0  0  0  0  0  0999 V2000
   -5.1711    8.8955   10.1979 C   0  0  0  0  0  0  0  0  0  0  0  0
   -4.6841    7.4874    9.8514 C   0  0  0  0  0  0  0  0  0  0  0  0
   -4.5480    7.3271    8.3683 C   0  0  0  0  0  0  0  0  0  0  0  0
   -3.5236    8.3314    7.8837 C   0  0  0  0  0  0  0  0  0  0  0  0
   -3.9693    9.7371    8.2479 C   0  0  0  0  0  0  0  0  0  0  0  0
   -2.9920   10.8365    7.8781 C   0  0  0  0  0  0  0  0  0  0  0  0
   -5.6053    6.5179   10.3296 O   0  0  0  0  0  0  0  0  0  0  0  0
   -4.0067    5.9920    8.1805 O   0  0  0  0  0  0  0  0  0  0  0  0
   -2.2517    7.9613    8.4625 O   0  0  0  0  0  0  0  0  0  0  0  0
   -4.2460    9.8152    9.6545 O   0  0  0  0  0  0  0  0  0  0  0  0
   -6.4667    6.6529    9.9045 H   0  0  0  0  0  0  0  0  0  0  0  0
   -3.1730    5.9094    8.6695 H   0  0  0  0  0  0  0  0  0  0  0  0
   -2.3240    7.9624    9.4298 H   0  0  0  0  0  0  0  0  0  0  0  0
   -6.4198    9.0513    9.5772 O   0  0  0  0  0  0  0  0  0  0  0  0
   -7.1983   10.0648   10.2149 C   0  0  0  0  0  0  0  0  0  0  0  0
  1  2  1  0  0  0
  1 14  1  0  0  0
  1 10  1  0  0  0
  2  3  1  0  0  0
  2  7  1  0  0  0
  3  4  1  0  0  0
  3  8  1  0  0  0
  4  5  1  0  0  0
  4  9  1  0  0  0
  5  6  1  0  0  0
  5 10  1  0  0  0
 14 15  1  0  0  0
  7 11  1  0  0  0
  8 12  1  0  0  0
  9 13  1  0  0  0
M  END
> <minimizedAffinity>
-5.21313

$$$$
5A6X_MFU_A_201


 15 15  0  0  0  0  0  0  0  0999 V2000
   -5.3287    9.4963    7.9447 C   0  0  0  0  0  0  0  0  0  0  0  0
   -3.9038    8.9687    7.7683 C   0  0  0  0  0  0  0  0  0  0  0  0
   -3.4469    8.2610    9.0070 C   0  0  0  0  0  0  0  0  0  0  0  0
   -4.3761    7.0890    9.2430 C   0  0  0  0  0  0  0  0  0  0  0  0
   -5.8043    7.5859    9.3867 C   0  0  0  0  0  0  0  0  0  0  0  0
   -6.8480    6.4989    9.5586 C   0  0  0  0  0  0  0  0  0  0  0  0
   -3.0120   10.0422    7.5043 O   0  0  0  0  0  0  0  0  0  0  0  0
   -2.1286    7.7438    8.6823 O   0  0  0  0  0  0  0  0  0  0  0  0
   -4.1937    6.1677    8.1441 O   0  0  0  0  0  0  0  0  0  0  0  0
   -6.1585    8.3954    8.2552 O   0  0  0  0  0  0  0  0  0  0  0  0
   -3.0158   10.6575    8.2541 H   0  0  0  0  0  0  0  0  0  0  0  0
   -2.1880    7.1771    7.8973 H   0  0  0  0  0  0  0  0  0  0  0  0
   -4.3913    6.6184    7.3082 H   0  0  0  0  0  0  0  0  0  0  0  0
   -5.2941   10.3883    9.0273 O   0  0  0  0  0  0  0  0  0  0  0  0
   -6.1461   11.5130    8.8060 C   0  0  0  0  0  0  0  0  0  0  0  0
  1  2  1  0  0  0
  1 14  1  0  0  0
  1 10  1  0  0  0
  2  3  1  0  0  0
  2  7  1  0  0  0
  3  4  1  0  0  0
  3  8  1  0  0  0
  4  5  1  0  0  0
  4  9  1  0  0  0
  5  6  1  0  0  0
  5 10  1  0  0  0
 14 15  1  0  0  0
  7 11  1  0  0  0
  8 12  1  0  0  0
  9 13  1  0  0  0
M  END
> <minimizedAffinity>
-5.00670

$$$$
5A6X_MFU_A_201


 15 15  0  0  0  0  0  0  0  0999 V2000
   -6.0931    9.5000    8.1013 C   0  0  0  0  0  0  0  0  0  0  0  0
   -5.9660    8.0568    7.6105 C   0  0  0  0  0  0  0  0  0  0  0  0
   -4.5251    7.6608    7.5060 C   0  0  0  0  0  0  0  0  0  0  0  0
   -3.9130    7.7629    8.8872 C   0  0  0  0  0  0  0  0  0  0  0  0
   -4.0587    9.1814    9.4107 C   0  0  0  0  0  0  0  0  0  0  0  0
   -3.5453    9.4010   10.8209 C   0  0  0  0  0  0  0  0  0  0  0  0
   -6.5682    7.9184    6.3316 O   0  0  0  0  0  0  0  0  0  0  0  0
   -4.5451    6.2618    7.1147 O   0  0  0  0  0  0  0  0  0  0  0  0
   -4.5594    6.7721    9.7181 O   0  0  0  0  0  0  0  0  0  0  0  0
   -5.4338    9.5888    9.3481 O   0  0  0  0  0  0  0  0  0  0  0  0
   -6.1148    8.4946    5.6966 H   0  0  0  0  0  0  0  0  0  0  0  0
   -5.0535    5.7516    7.7644 H   0  0  0  0  0  0  0  0  0  0  0  0
   -5.5147    6.9393    9.7368 H   0  0  0  0  0  0  0  0  0  0  0  0
   -5.4374   10.3035    7.1562 O   0  0  0  0  0  0  0  0  0  0  0  0
   -6.2425   11.4173    6.7676 C   0  0  0  0  0  0  0  0  0  0  0  0
  1  2  1  0  0  0
  1 14  1  0  0  0
  1 10  1  0  0  0
  2  3  1  0  0  0
  2  7  1  0  0  0
  3  4  1  0  0  0
  3  8  1  0  0  0
  4  5  1  0  0  0
  4  9  1  0  0  0
  5  6  1  0  0  0
  5 10  1  0  0  0
 14 15  1  0  0  0
  7 11  1  0  0  0
  8 12  1  0  0  0
  9 13  1  0  0  0
M  END
> <minimizedAffinity>
-4.95830

$$$$
5A6X_MFU_A_201


 15 15  0  0  0  0  0  0  0  0999 V2000
   -4.0359    7.5782    9.0431 C   0  0  0  0  0  0  0  0  0  0  0  0
   -3.1695    8.4679    8.1500 C   0  0  0  0  0  0  0  0  0  0  0  0
   -3.8495    9.7777    7.8928 C   0  0  0  0  0  0  0  0  0  0  0  0
   -4.0480   10.4686    9.2255 C   0  0  0  0  0  0  0  0  0  0  0  0
   -4.8777    9.5873   10.1432 C   0  0  0  0  0  0  0  0  0  0  0  0
   -5.0910   10.1368   11.5406 C   0  0  0  0  0  0  0  0  0  0  0  0
   -2.9305    7.8288    6.9043 O   0  0  0  0  0  0  0  0  0  0  0  0
   -2.8985   10.5503    7.1120 O   0  0  0  0  0  0  0  0  0  0  0  0
   -2.7363   10.7748    9.7505 O   0  0  0  0  0  0  0  0  0  0  0  0
   -4.2828    8.2844   10.2420 O   0  0  0  0  0  0  0  0  0  0  0  0
   -3.7748    7.6769    6.4516 H   0  0  0  0  0  0  0  0  0  0  0  0
   -2.0631   10.6228    7.5996 H   0  0  0  0  0  0  0  0  0  0  0  0
   -2.2264    9.9550    9.8449 H   0  0  0  0  0  0  0  0  0  0  0  0
   -5.2406    7.3714    8.3541 O   0  0  0  0  0  0  0  0  0  0  0  0
   -6.1183    6.5109    9.0814 C   0  0  0  0  0  0  0  0  0  0  0  0
  1  2  1  0  0  0
  1 14  1  0  0  0
  1 10  1  0  0  0
  2  3  1  0  0  0
  2  7  1  0  0  0
  3  4  1  0  0  0
  3  8  1  0  0  0
  4  5  1  0  0  0
  4  9  1  0  0  0
  5  6  1  0  0  0
  5 10  1  0  0  0
 14 15  1  0  0  0
  7 11  1  0  0  0
  8 12  1  0  0  0
  9 13  1  0  0  0
M  END
> <minimizedAffinity>
-4.95694

$$$$
5A6X_MFU_A_201


 15 15  0  0  0  0  0  0  0  0999 V2000
   -6.7661    8.8333    8.0459 C   0  0  0  0  0  0  0  0  0  0  0  0
   -6.8915    7.6675    9.0282 C   0  0  0  0  0  0  0  0  0  0  0  0
   -5.9311    6.5740    8.6735 C   0  0  0  0  0  0  0  0  0  0  0  0
   -4.5291    7.1391    8.7624 C   0  0  0  0  0  0  0  0  0  0  0  0
   -4.3907    8.3220    7.8197 C   0  0  0  0  0  0  0  0  0  0  0  0
   -3.0475    9.0250    7.8647 C   0  0  0  0  0  0  0  0  0  0  0  0
   -8.2100    7.1401    8.9984 O   0  0  0  0  0  0  0  0  0  0  0  0
   -6.0914    5.5767    9.7178 O   0  0  0  0  0  0  0  0  0  0  0  0
   -4.2878    7.4741   10.1478 O   0  0  0  0  0  0  0  0  0  0  0  0
   -5.4263    9.2814    8.0807 O   0  0  0  0  0  0  0  0  0  0  0  0
   -8.4053    6.8078    8.1083 H   0  0  0  0  0  0  0  0  0  0  0  0
   -5.9300    5.9853   10.5826 H   0  0  0  0  0  0  0  0  0  0  0  0
   -4.9517    8.1155   10.4457 H   0  0  0  0  0  0  0  0  0  0  0  0
   -7.0648    8.3197    6.7747 O   0  0  0  0  0  0  0  0  0  0  0  0
   -7.7368    9.2853    5.9649 C   0  0  0  0  0  0  0  0  0  0  0  0
  1  2  1  0  0  0
  1 14  1  0  0  0
  1 10  1  0  0  0
  2  3  1  0  0  0
  2  7  1  0  0  0
  3  4  1  0  0  0
  3  8  1  0  0  0
  4  5  1  0  0  0
  4  9  1  0  0  0
  5  6  1  0  0  0
  5 10  1  0  0  0
 14 15  1  0  0  0
  7 11  1  0  0  0
  8 12  1  0  0  0
  9 13  1  0  0  0
M  END
> <minimizedAffinity>
-4.71363

$$$$
