2VH6_GSV_A_1245


 36 39  0  0  0  0  0  0  0  0999 V2000
    6.1217    5.8596   20.3365 N   0  0  0  0  0  0  0  0  0  0  0  0
    6.8311    6.8257   20.9839 C   0  0  0  0  0  0  0  0  0  0  0  0
    8.0423    6.9123   21.0894 O   0  0  0  0  0  0  0  0  0  0  0  0
    4.6798    6.0211   20.4643 C   0  0  0  0  0  0  0  0  0  0  0  0
    4.5579    7.5158   20.7621 C   0  0  0  0  0  0  0  0  0  0  0  0
    5.8484    7.8181   21.5466 C   0  0  0  0  0  0  0  0  0  0  0  0
    7.9497    2.7514   18.1148 C   0  0  0  0  0  0  0  0  0  0  0  0
    7.1155    2.4019   19.1951 C   0  0  0  0  0  0  0  0  0  0  0  0
    6.5112    3.4439   19.9179 C   0  0  0  0  0  0  0  0  0  0  0  0
    5.6956    3.1537   20.9457 F   0  0  0  0  0  0  0  0  0  0  0  0
    8.1781    4.1200   17.7889 C   0  0  0  0  0  0  0  0  0  0  0  0
    7.5752    5.1620   18.5156 C   0  0  0  0  0  0  0  0  0  0  0  0
    6.7265    4.8131   19.5965 C   0  0  0  0  0  0  0  0  0  0  0  0
    8.1078    1.2007   16.0901 C   0  0  0  0  0  0  0  0  0  0  0  0
    8.8186    0.1927   15.3937 C   0  0  0  0  0  0  0  0  0  0  0  0
   10.0373   -0.3187   15.9004 C   0  0  0  0  0  0  0  0  0  0  0  0
   10.5632    0.1742   17.1131 C   0  0  0  0  0  0  0  0  0  0  0  0
    9.8523    1.1740   17.8067 C   0  0  0  0  0  0  0  0  0  0  0  0
    8.6278    1.6929   17.3023 C   0  0  0  0  0  0  0  0  0  0  0  0
    6.1269    0.8344   13.9612 C   0  0  0  0  0  0  0  0  0  0  0  0
    6.5548    1.7864   15.3944 S   0  0  0  0  0  0  0  0  0  0  0  0
    5.4752    1.6332   16.3119 O   0  0  0  0  0  0  0  0  0  0  0  0
    6.8959    3.0982   14.9570 O   0  0  0  0  0  0  0  0  0  0  0  0
    6.3217    9.1754   21.3322 N   0  0  0  0  0  0  0  0  0  0  0  0
    5.5787    9.6531   20.8221 H   0  0  0  0  0  0  0  0  0  0  0  0
    6.7438   10.1707   22.5352 S   0  0  0  0  0  0  0  0  0  0  0  0
    6.8810   11.4098   21.8245 O   0  0  0  0  0  0  0  0  0  0  0  0
    5.8250   10.0351   23.6161 O   0  0  0  0  0  0  0  0  0  0  0  0
    8.2689    9.6194   23.1759 C   0  0  0  0  0  0  0  0  0  0  0  0
    8.2480    8.9037   24.4570 C   0  0  0  0  0  0  0  0  0  0  0  0
    9.4449    8.3335   25.1197 C   0  0  0  0  0  0  0  0  0  0  0  0
   11.0098    8.6674   24.5215 S   0  0  0  0  0  0  0  0  0  0  0  0
    9.3934    7.5396   26.2775 C   0  0  0  0  0  0  0  0  0  0  0  0
   10.7141    7.1838   26.6699 C   0  0  0  0  0  0  0  0  0  0  0  0
   11.6609    7.7377   25.7726 C   0  0  0  0  0  0  0  0  0  0  0  0
   13.3730    7.5302   25.8815 Cl  0  0  0  0  0  0  0  0  0  0  0  0
 20 21  1  0  0  0
 21 22  2  0  0  0
 21 23  2  0  0  0
 21 14  1  0  0  0
 14 15  1  0  0  0
 14 19  2  0  0  0
 15 16  2  0  0  0
 16 17  1  0  0  0
 17 18  2  0  0  0
 18 19  1  0  0  0
 19  7  1  0  0  0
  7  8  1  0  0  0
  7 11  2  0  0  0
  8  9  2  0  0  0
  9 10  1  0  0  0
  9 13  1  0  0  0
 11 12  1  0  0  0
 12 13  2  0  0  0
 13  1  1  0  0  0
  1  2  1  0  0  0
  1  4  1  0  0  0
  2  3  2  0  0  0
  2  6  1  0  0  0
  4  5  1  0  0  0
  5  6  1  0  0  0
  6 24  1  0  0  0
 24 26  1  0  0  0
 26 27  2  0  0  0
 26 28  2  0  0  0
 26 29  1  0  0  0
 29 30  1  0  0  0
 30 31  1  0  0  0
 31 32  1  0  0  0
 31 33  2  0  0  0
 32 35  1  0  0  0
 33 34  1  0  0  0
 34 35  2  0  0  0
 35 36  1  0  0  0
 24 25  1  0  0  0
M  END
> <minimizedAffinity>
-10.59943

$$$$
2VH6_GSV_A_1245


 36 39  0  0  0  0  0  0  0  0999 V2000
    5.9706    5.7670   20.2332 N   0  0  0  0  0  0  0  0  0  0  0  0
    6.6069    6.6231   21.0805 C   0  0  0  0  0  0  0  0  0  0  0  0
    7.7907    6.6375   21.3704 O   0  0  0  0  0  0  0  0  0  0  0  0
    4.5321    5.9861   20.1667 C   0  0  0  0  0  0  0  0  0  0  0  0
    4.4175    7.4455   20.6080 C   0  0  0  0  0  0  0  0  0  0  0  0
    5.5849    7.5988   21.6009 C   0  0  0  0  0  0  0  0  0  0  0  0
    7.9635    2.7821   17.9845 C   0  0  0  0  0  0  0  0  0  0  0  0
    8.1391    4.1299   17.6134 C   0  0  0  0  0  0  0  0  0  0  0  0
    7.4769    5.1085   18.3732 C   0  0  0  0  0  0  0  0  0  0  0  0
    7.6302    6.4070   18.0627 F   0  0  0  0  0  0  0  0  0  0  0  0
    7.1253    2.4366   19.0843 C   0  0  0  0  0  0  0  0  0  0  0  0
    6.4604    3.4172   19.8417 C   0  0  0  0  0  0  0  0  0  0  0  0
    6.6439    4.7751   19.4774 C   0  0  0  0  0  0  0  0  0  0  0  0
    8.1158    1.1461   16.0276 C   0  0  0  0  0  0  0  0  0  0  0  0
    8.8223    0.1063   15.3752 C   0  0  0  0  0  0  0  0  0  0  0  0
   10.0383   -0.3888   15.9042 C   0  0  0  0  0  0  0  0  0  0  0  0
   10.5657    0.1527   17.0952 C   0  0  0  0  0  0  0  0  0  0  0  0
    9.8590    1.1843   17.7452 C   0  0  0  0  0  0  0  0  0  0  0  0
    8.6372    1.6869   17.2182 C   0  0  0  0  0  0  0  0  0  0  0  0
    6.1380    0.7032   13.9103 C   0  0  0  0  0  0  0  0  0  0  0  0
    6.5658    1.7088   15.3064 S   0  0  0  0  0  0  0  0  0  0  0  0
    5.4840    1.5945   16.2268 O   0  0  0  0  0  0  0  0  0  0  0  0
    6.9118    3.0017   14.8192 O   0  0  0  0  0  0  0  0  0  0  0  0
    6.1308    8.9457   21.6102 N   0  0  0  0  0  0  0  0  0  0  0  0
    5.3881    9.5506   21.2594 H   0  0  0  0  0  0  0  0  0  0  0  0
    6.6970    9.6668   22.9426 S   0  0  0  0  0  0  0  0  0  0  0  0
    7.7014   10.5233   22.3796 O   0  0  0  0  0  0  0  0  0  0  0  0
    5.6125   10.1964   23.7005 O   0  0  0  0  0  0  0  0  0  0  0  0
    7.3933    8.4359   23.9626 C   0  0  0  0  0  0  0  0  0  0  0  0
    8.1821    8.8786   25.1185 C   0  0  0  0  0  0  0  0  0  0  0  0
    9.4685    8.2736   25.5382 C   0  0  0  0  0  0  0  0  0  0  0  0
   10.9280    8.7175   24.7694 S   0  0  0  0  0  0  0  0  0  0  0  0
    9.5925    7.3549   26.5936 C   0  0  0  0  0  0  0  0  0  0  0  0
   10.9601    6.9965   26.7546 C   0  0  0  0  0  0  0  0  0  0  0  0
   11.7625    7.6741   25.8031 C   0  0  0  0  0  0  0  0  0  0  0  0
   13.4752    7.5060   25.6475 Cl  0  0  0  0  0  0  0  0  0  0  0  0
 20 21  1  0  0  0
 21 22  2  0  0  0
 21 23  2  0  0  0
 21 14  1  0  0  0
 14 15  1  0  0  0
 14 19  2  0  0  0
 15 16  2  0  0  0
 16 17  1  0  0  0
 17 18  2  0  0  0
 18 19  1  0  0  0
 19  7  1  0  0  0
  7  8  1  0  0  0
  7 11  2  0  0  0
  8  9  2  0  0  0
  9 10  1  0  0  0
  9 13  1  0  0  0
 11 12  1  0  0  0
 12 13  2  0  0  0
 13  1  1  0  0  0
  1  2  1  0  0  0
  1  4  1  0  0  0
  2  3  2  0  0  0
  2  6  1  0  0  0
  4  5  1  0  0  0
  5  6  1  0  0  0
  6 24  1  0  0  0
 24 26  1  0  0  0
 26 27  2  0  0  0
 26 28  2  0  0  0
 26 29  1  0  0  0
 29 30  1  0  0  0
 30 31  1  0  0  0
 31 32  1  0  0  0
 31 33  2  0  0  0
 32 35  1  0  0  0
 33 34  1  0  0  0
 34 35  2  0  0  0
 35 36  1  0  0  0
 24 25  1  0  0  0
M  END
> <minimizedAffinity>
-10.23243

$$$$
2VH6_GSV_A_1245


 36 39  0  0  0  0  0  0  0  0999 V2000
    4.9821    6.0947   20.1939 N   0  0  0  0  0  0  0  0  0  0  0  0
    5.8786    6.8199   20.9192 C   0  0  0  0  0  0  0  0  0  0  0  0
    7.0940    6.7305   20.9006 O   0  0  0  0  0  0  0  0  0  0  0  0
    3.5959    6.4097   20.5112 C   0  0  0  0  0  0  0  0  0  0  0  0
    3.7195    7.8220   21.0837 C   0  0  0  0  0  0  0  0  0  0  0  0
    5.1039    7.8014   21.7583 C   0  0  0  0  0  0  0  0  0  0  0  0
    6.0964    3.2292   17.2809 C   0  0  0  0  0  0  0  0  0  0  0  0
    6.2696    4.5944   16.9787 C   0  0  0  0  0  0  0  0  0  0  0  0
    5.9017    5.5322   17.9577 C   0  0  0  0  0  0  0  0  0  0  0  0
    6.0655    6.8440   17.7161 F   0  0  0  0  0  0  0  0  0  0  0  0
    5.5485    2.8283   18.5341 C   0  0  0  0  0  0  0  0  0  0  0  0
    5.1775    3.7684   19.5117 C   0  0  0  0  0  0  0  0  0  0  0  0
    5.3608    5.1427   19.2148 C   0  0  0  0  0  0  0  0  0  0  0  0
    7.6832    1.4706   16.3224 C   0  0  0  0  0  0  0  0  0  0  0  0
    7.9463    0.4941   15.3308 C   0  0  0  0  0  0  0  0  0  0  0  0
    7.0033    0.2217   14.3111 C   0  0  0  0  0  0  0  0  0  0  0  0
    5.7802    0.9235   14.2710 C   0  0  0  0  0  0  0  0  0  0  0  0
    5.5220    1.8978   15.2559 C   0  0  0  0  0  0  0  0  0  0  0  0
    6.4651    2.1754   16.2838 C   0  0  0  0  0  0  0  0  0  0  0  0
   10.4072    0.8520   17.2096 C   0  0  0  0  0  0  0  0  0  0  0  0
    8.9391    1.7766   17.5745 S   0  0  0  0  0  0  0  0  0  0  0  0
    9.3285    3.1470   17.6067 O   0  0  0  0  0  0  0  0  0  0  0  0
    8.3481    1.2091   18.7395 O   0  0  0  0  0  0  0  0  0  0  0  0
    5.7493    9.1035   21.7382 N   0  0  0  0  0  0  0  0  0  0  0  0
    5.0206    9.7726   21.4895 H   0  0  0  0  0  0  0  0  0  0  0  0
    6.5151    9.7364   23.0144 S   0  0  0  0  0  0  0  0  0  0  0  0
    7.2065   10.8323   22.3977 O   0  0  0  0  0  0  0  0  0  0  0  0
    5.5873    9.9491   24.0750 O   0  0  0  0  0  0  0  0  0  0  0  0
    7.6211    8.5346   23.6251 C   0  0  0  0  0  0  0  0  0  0  0  0
    8.1439    8.7216   24.9837 C   0  0  0  0  0  0  0  0  0  0  0  0
    9.4413    8.1899   25.4644 C   0  0  0  0  0  0  0  0  0  0  0  0
   10.9008    8.6403   24.6994 S   0  0  0  0  0  0  0  0  0  0  0  0
    9.5743    7.3405   26.5754 C   0  0  0  0  0  0  0  0  0  0  0  0
   10.9499    7.0424   26.7847 C   0  0  0  0  0  0  0  0  0  0  0  0
   11.7486    7.6911   25.8102 C   0  0  0  0  0  0  0  0  0  0  0  0
   13.4692    7.5766   25.6990 Cl  0  0  0  0  0  0  0  0  0  0  0  0
 20 21  1  0  0  0
 21 22  2  0  0  0
 21 23  2  0  0  0
 21 14  1  0  0  0
 14 15  1  0  0  0
 14 19  2  0  0  0
 15 16  2  0  0  0
 16 17  1  0  0  0
 17 18  2  0  0  0
 18 19  1  0  0  0
 19  7  1  0  0  0
  7  8  1  0  0  0
  7 11  2  0  0  0
  8  9  2  0  0  0
  9 10  1  0  0  0
  9 13  1  0  0  0
 11 12  1  0  0  0
 12 13  2  0  0  0
 13  1  1  0  0  0
  1  2  1  0  0  0
  1  4  1  0  0  0
  2  3  2  0  0  0
  2  6  1  0  0  0
  4  5  1  0  0  0
  5  6  1  0  0  0
  6 24  1  0  0  0
 24 26  1  0  0  0
 26 27  2  0  0  0
 26 28  2  0  0  0
 26 29  1  0  0  0
 29 30  1  0  0  0
 30 31  1  0  0  0
 31 32  1  0  0  0
 31 33  2  0  0  0
 32 35  1  0  0  0
 33 34  1  0  0  0
 34 35  2  0  0  0
 35 36  1  0  0  0
 24 25  1  0  0  0
M  END
> <minimizedAffinity>
-8.67981

$$$$
2VH6_GSV_A_1245


 36 39  0  0  0  0  0  0  0  0999 V2000
    4.3302    5.4735   20.2149 N   0  0  0  0  0  0  0  0  0  0  0  0
    4.0536    5.3587   21.5438 C   0  0  0  0  0  0  0  0  0  0  0  0
    4.4244    4.4830   22.3063 O   0  0  0  0  0  0  0  0  0  0  0  0
    3.6684    6.6080   19.5851 C   0  0  0  0  0  0  0  0  0  0  0  0
    3.4228    7.5294   20.7802 C   0  0  0  0  0  0  0  0  0  0  0  0
    3.2086    6.5401   21.9410 C   0  0  0  0  0  0  0  0  0  0  0  0
    6.9264    2.8479   18.1404 C   0  0  0  0  0  0  0  0  0  0  0  0
    5.7241    2.3292   18.6605 C   0  0  0  0  0  0  0  0  0  0  0  0
    4.8706    3.2141   19.3400 C   0  0  0  0  0  0  0  0  0  0  0  0
    3.7064    2.7636   19.8378 F   0  0  0  0  0  0  0  0  0  0  0  0
    7.2610    4.2215   18.3207 C   0  0  0  0  0  0  0  0  0  0  0  0
    6.4071    5.1053   19.0042 C   0  0  0  0  0  0  0  0  0  0  0  0
    5.1913    4.5886   19.5192 C   0  0  0  0  0  0  0  0  0  0  0  0
    7.6856    1.5466   16.0764 C   0  0  0  0  0  0  0  0  0  0  0  0
    8.6453    0.7019   15.4672 C   0  0  0  0  0  0  0  0  0  0  0  0
    9.7933    0.2760   16.1772 C   0  0  0  0  0  0  0  0  0  0  0  0
    9.9976    0.6925   17.5095 C   0  0  0  0  0  0  0  0  0  0  0  0
    9.0393    1.5295   18.1155 C   0  0  0  0  0  0  0  0  0  0  0  0
    7.8842    1.9617   17.4069 C   0  0  0  0  0  0  0  0  0  0  0  0
    6.2997    1.2913   13.5065 C   0  0  0  0  0  0  0  0  0  0  0  0
    6.2411    2.0293   15.1175 S   0  0  0  0  0  0  0  0  0  0  0  0
    5.0324    1.5753   15.7205 O   0  0  0  0  0  0  0  0  0  0  0  0
    6.4386    3.4309   14.9593 O   0  0  0  0  0  0  0  0  0  0  0  0
    3.6564    7.0762   23.2155 N   0  0  0  0  0  0  0  0  0  0  0  0
    4.6457    7.2937   23.0950 H   0  0  0  0  0  0  0  0  0  0  0  0
    2.9984    8.3786   23.9131 S   0  0  0  0  0  0  0  0  0  0  0  0
    1.7390    8.4440   23.2281 O   0  0  0  0  0  0  0  0  0  0  0  0
    3.0641    8.2494   25.3308 O   0  0  0  0  0  0  0  0  0  0  0  0
    4.0082    9.7513   23.5441 C   0  0  0  0  0  0  0  0  0  0  0  0
    5.4607    9.5410   23.5299 C   0  0  0  0  0  0  0  0  0  0  0  0
    6.2925    9.5106   22.3036 C   0  0  0  0  0  0  0  0  0  0  0  0
    6.9971    8.0490   21.7690 S   0  0  0  0  0  0  0  0  0  0  0  0
    6.5223   10.6304   21.4872 C   0  0  0  0  0  0  0  0  0  0  0  0
    7.3326   10.2539   20.3797 C   0  0  0  0  0  0  0  0  0  0  0  0
    7.6531    8.8751   20.4496 C   0  0  0  0  0  0  0  0  0  0  0  0
    8.6317    8.0232   19.3084 Cl  0  0  0  0  0  0  0  0  0  0  0  0
 20 21  1  0  0  0
 21 22  2  0  0  0
 21 23  2  0  0  0
 21 14  1  0  0  0
 14 15  1  0  0  0
 14 19  2  0  0  0
 15 16  2  0  0  0
 16 17  1  0  0  0
 17 18  2  0  0  0
 18 19  1  0  0  0
 19  7  1  0  0  0
  7  8  1  0  0  0
  7 11  2  0  0  0
  8  9  2  0  0  0
  9 10  1  0  0  0
  9 13  1  0  0  0
 11 12  1  0  0  0
 12 13  2  0  0  0
 13  1  1  0  0  0
  1  2  1  0  0  0
  1  4  1  0  0  0
  2  3  2  0  0  0
  2  6  1  0  0  0
  4  5  1  0  0  0
  5  6  1  0  0  0
  6 24  1  0  0  0
 24 26  1  0  0  0
 26 27  2  0  0  0
 26 28  2  0  0  0
 26 29  1  0  0  0
 29 30  1  0  0  0
 30 31  1  0  0  0
 31 32  1  0  0  0
 31 33  2  0  0  0
 32 35  1  0  0  0
 33 34  1  0  0  0
 34 35  2  0  0  0
 35 36  1  0  0  0
 24 25  1  0  0  0
M  END
> <minimizedAffinity>
-8.28652

$$$$
2VH6_GSV_A_1245


 36 39  0  0  0  0  0  0  0  0999 V2000
    3.9588    5.3591   19.8919 N   0  0  0  0  0  0  0  0  0  0  0  0
    4.1854    6.0257   21.0580 C   0  0  0  0  0  0  0  0  0  0  0  0
    5.1903    5.9956   21.7472 O   0  0  0  0  0  0  0  0  0  0  0  0
    2.6183    5.5665   19.3613 C   0  0  0  0  0  0  0  0  0  0  0  0
    2.2299    6.8978   20.0051 C   0  0  0  0  0  0  0  0  0  0  0  0
    2.9646    6.8546   21.3581 C   0  0  0  0  0  0  0  0  0  0  0  0
    6.8624    2.9445   17.9743 C   0  0  0  0  0  0  0  0  0  0  0  0
    6.9270    4.3404   17.7945 C   0  0  0  0  0  0  0  0  0  0  0  0
    5.9609    5.1281   18.4426 C   0  0  0  0  0  0  0  0  0  0  0  0
    5.9961    6.4649   18.3104 F   0  0  0  0  0  0  0  0  0  0  0  0
    5.8359    2.3636   18.7744 C   0  0  0  0  0  0  0  0  0  0  0  0
    4.8675    3.1531   19.4196 C   0  0  0  0  0  0  0  0  0  0  0  0
    4.9365    4.5591   19.2494 C   0  0  0  0  0  0  0  0  0  0  0  0
    7.7231    1.5890   15.9865 C   0  0  0  0  0  0  0  0  0  0  0  0
    8.7148    0.7337   15.4470 C   0  0  0  0  0  0  0  0  0  0  0  0
    9.8314    0.3371   16.2210 C   0  0  0  0  0  0  0  0  0  0  0  0
    9.9720    0.7938   17.5483 C   0  0  0  0  0  0  0  0  0  0  0  0
    8.9820    1.6413   18.0849 C   0  0  0  0  0  0  0  0  0  0  0  0
    7.8581    2.0443   17.3119 C   0  0  0  0  0  0  0  0  0  0  0  0
    4.8078    1.4951   15.6993 C   0  0  0  0  0  0  0  0  0  0  0  0
    6.3213    2.0330   14.9488 S   0  0  0  0  0  0  0  0  0  0  0  0
    6.2086    3.4447   14.7908 O   0  0  0  0  0  0  0  0  0  0  0  0
    6.5384    1.2332   13.7904 O   0  0  0  0  0  0  0  0  0  0  0  0
    3.3524    8.1769   21.8202 N   0  0  0  0  0  0  0  0  0  0  0  0
    2.7887    8.8366   21.2841 H   0  0  0  0  0  0  0  0  0  0  0  0
    3.2389    8.6486   23.3631 S   0  0  0  0  0  0  0  0  0  0  0  0
    2.6383    9.9424   23.2059 O   0  0  0  0  0  0  0  0  0  0  0  0
    2.6084    7.6283   24.1326 O   0  0  0  0  0  0  0  0  0  0  0  0
    4.8546    8.7590   24.0094 C   0  0  0  0  0  0  0  0  0  0  0  0
    5.8926    9.3361   23.1469 C   0  0  0  0  0  0  0  0  0  0  0  0
    7.3486    9.1323   23.3345 C   0  0  0  0  0  0  0  0  0  0  0  0
    7.9718    8.6756   24.8581 S   0  0  0  0  0  0  0  0  0  0  0  0
    8.2935    9.2493   22.3016 C   0  0  0  0  0  0  0  0  0  0  0  0
    9.5914    8.9609   22.8087 C   0  0  0  0  0  0  0  0  0  0  0  0
    9.5231    8.6501   24.1897 C   0  0  0  0  0  0  0  0  0  0  0  0
   10.8777    8.2582   25.1884 Cl  0  0  0  0  0  0  0  0  0  0  0  0
 20 21  1  0  0  0
 21 22  2  0  0  0
 21 23  2  0  0  0
 21 14  1  0  0  0
 14 15  1  0  0  0
 14 19  2  0  0  0
 15 16  2  0  0  0
 16 17  1  0  0  0
 17 18  2  0  0  0
 18 19  1  0  0  0
 19  7  1  0  0  0
  7  8  1  0  0  0
  7 11  2  0  0  0
  8  9  2  0  0  0
  9 10  1  0  0  0
  9 13  1  0  0  0
 11 12  1  0  0  0
 12 13  2  0  0  0
 13  1  1  0  0  0
  1  2  1  0  0  0
  1  4  1  0  0  0
  2  3  2  0  0  0
  2  6  1  0  0  0
  4  5  1  0  0  0
  5  6  1  0  0  0
  6 24  1  0  0  0
 24 26  1  0  0  0
 26 27  2  0  0  0
 26 28  2  0  0  0
 26 29  1  0  0  0
 29 30  1  0  0  0
 30 31  1  0  0  0
 31 32  1  0  0  0
 31 33  2  0  0  0
 32 35  1  0  0  0
 33 34  1  0  0  0
 34 35  2  0  0  0
 35 36  1  0  0  0
 24 25  1  0  0  0
M  END
> <minimizedAffinity>
-8.24172

$$$$
2VH6_GSV_A_1245


 36 39  0  0  0  0  0  0  0  0999 V2000
    6.3257    6.4255   20.4349 N   0  0  0  0  0  0  0  0  0  0  0  0
    5.0469    6.8814   20.3241 C   0  0  0  0  0  0  0  0  0  0  0  0
    4.1899    6.5056   19.5430 O   0  0  0  0  0  0  0  0  0  0  0  0
    7.1087    7.1442   21.4309 C   0  0  0  0  0  0  0  0  0  0  0  0
    6.0166    7.7030   22.3434 C   0  0  0  0  0  0  0  0  0  0  0  0
    4.8448    7.9427   21.3729 C   0  0  0  0  0  0  0  0  0  0  0  0
    7.8773    3.2192   18.1435 C   0  0  0  0  0  0  0  0  0  0  0  0
    6.9634    2.9252   19.1748 C   0  0  0  0  0  0  0  0  0  0  0  0
    6.4526    4.0001   19.9213 C   0  0  0  0  0  0  0  0  0  0  0  0
    5.5662    3.7650   20.9036 F   0  0  0  0  0  0  0  0  0  0  0  0
    8.2750    4.5640   17.8893 C   0  0  0  0  0  0  0  0  0  0  0  0
    7.7654    5.6385   18.6397 C   0  0  0  0  0  0  0  0  0  0  0  0
    6.8371    5.3469   19.6710 C   0  0  0  0  0  0  0  0  0  0  0  0
    7.9149    1.7141   16.0789 C   0  0  0  0  0  0  0  0  0  0  0  0
    8.5367    0.6622   15.3627 C   0  0  0  0  0  0  0  0  0  0  0  0
    9.6951    0.0249   15.8678 C   0  0  0  0  0  0  0  0  0  0  0  0
   10.2494    0.4339   17.0989 C   0  0  0  0  0  0  0  0  0  0  0  0
    9.6268    1.4779   17.8122 C   0  0  0  0  0  0  0  0  0  0  0  0
    8.4632    2.1230   17.3095 C   0  0  0  0  0  0  0  0  0  0  0  0
    5.0257    2.0912   16.3962 C   0  0  0  0  0  0  0  0  0  0  0  0
    6.4330    2.4618   15.3835 S   0  0  0  0  0  0  0  0  0  0  0  0
    6.5302    3.8829   15.3402 O   0  0  0  0  0  0  0  0  0  0  0  0
    6.2836    1.7518   14.1578 O   0  0  0  0  0  0  0  0  0  0  0  0
    3.5514    7.7789   22.0152 N   0  0  0  0  0  0  0  0  0  0  0  0
    3.7276    7.2447   22.8661 H   0  0  0  0  0  0  0  0  0  0  0  0
    2.6146    9.0208   22.4580 S   0  0  0  0  0  0  0  0  0  0  0  0
    1.6168    8.3423   23.2348 O   0  0  0  0  0  0  0  0  0  0  0  0
    3.4190   10.0519   23.0243 O   0  0  0  0  0  0  0  0  0  0  0  0
    1.9411    9.7254   21.0122 C   0  0  0  0  0  0  0  0  0  0  0  0
    2.6355   10.8819   20.4338 C   0  0  0  0  0  0  0  0  0  0  0  0
    3.9129   10.8063   19.6859 C   0  0  0  0  0  0  0  0  0  0  0  0
    3.9809   10.0418   18.1597 S   0  0  0  0  0  0  0  0  0  0  0  0
    5.1159   11.3762   20.1344 C   0  0  0  0  0  0  0  0  0  0  0  0
    6.1381   11.1505   19.1705 C   0  0  0  0  0  0  0  0  0  0  0  0
    5.6240   10.4236   18.0679 C   0  0  0  0  0  0  0  0  0  0  0  0
    6.5407    9.9290   16.6892 Cl  0  0  0  0  0  0  0  0  0  0  0  0
 20 21  1  0  0  0
 21 22  2  0  0  0
 21 23  2  0  0  0
 21 14  1  0  0  0
 14 15  1  0  0  0
 14 19  2  0  0  0
 15 16  2  0  0  0
 16 17  1  0  0  0
 17 18  2  0  0  0
 18 19  1  0  0  0
 19  7  1  0  0  0
  7  8  1  0  0  0
  7 11  2  0  0  0
  8  9  2  0  0  0
  9 10  1  0  0  0
  9 13  1  0  0  0
 11 12  1  0  0  0
 12 13  2  0  0  0
 13  1  1  0  0  0
  1  2  1  0  0  0
  1  4  1  0  0  0
  2  3  2  0  0  0
  2  6  1  0  0  0
  4  5  1  0  0  0
  5  6  1  0  0  0
  6 24  1  0  0  0
 24 26  1  0  0  0
 26 27  2  0  0  0
 26 28  2  0  0  0
 26 29  1  0  0  0
 29 30  1  0  0  0
 30 31  1  0  0  0
 31 32  1  0  0  0
 31 33  2  0  0  0
 32 35  1  0  0  0
 33 34  1  0  0  0
 34 35  2  0  0  0
 35 36  1  0  0  0
 24 25  1  0  0  0
M  END
> <minimizedAffinity>
-8.11516

$$$$
2VH6_GSV_A_1245


 36 39  0  0  0  0  0  0  0  0999 V2000
    6.4254    6.4706   20.3485 N   0  0  0  0  0  0  0  0  0  0  0  0
    5.1846    7.0034   20.1689 C   0  0  0  0  0  0  0  0  0  0  0  0
    4.3533    6.6849   19.3363 O   0  0  0  0  0  0  0  0  0  0  0  0
    7.1910    7.1344   21.3948 C   0  0  0  0  0  0  0  0  0  0  0  0
    6.0832    7.7520   22.2486 C   0  0  0  0  0  0  0  0  0  0  0  0
    4.9860    8.0681   21.2149 C   0  0  0  0  0  0  0  0  0  0  0  0
    7.9116    3.1921   18.1167 C   0  0  0  0  0  0  0  0  0  0  0  0
    6.9823    2.9370   19.1444 C   0  0  0  0  0  0  0  0  0  0  0  0
    6.4936    4.0355   19.8710 C   0  0  0  0  0  0  0  0  0  0  0  0
    5.5936    3.8377   20.8492 F   0  0  0  0  0  0  0  0  0  0  0  0
    8.3460    4.5224   17.8463 C   0  0  0  0  0  0  0  0  0  0  0  0
    7.8585    5.6206   18.5768 C   0  0  0  0  0  0  0  0  0  0  0  0
    6.9148    5.3681   19.6045 C   0  0  0  0  0  0  0  0  0  0  0  0
    7.8779    1.6002   16.1182 C   0  0  0  0  0  0  0  0  0  0  0  0
    8.4824    0.5270   15.4190 C   0  0  0  0  0  0  0  0  0  0  0  0
    9.6726   -0.0722   15.8963 C   0  0  0  0  0  0  0  0  0  0  0  0
   10.2764    0.3970   17.0818 C   0  0  0  0  0  0  0  0  0  0  0  0
    9.6711    1.4621   17.7784 C   0  0  0  0  0  0  0  0  0  0  0  0
    8.4757    2.0691   17.3035 C   0  0  0  0  0  0  0  0  0  0  0  0
    5.8436    1.4040   14.0174 C   0  0  0  0  0  0  0  0  0  0  0  0
    6.3541    2.2971   15.4614 S   0  0  0  0  0  0  0  0  0  0  0  0
    5.2820    2.1934   16.3944 O   0  0  0  0  0  0  0  0  0  0  0  0
    6.7708    3.5936   15.0440 O   0  0  0  0  0  0  0  0  0  0  0  0
    3.6500    7.9784   21.7803 N   0  0  0  0  0  0  0  0  0  0  0  0
    3.7553    7.4903   22.6697 H   0  0  0  0  0  0  0  0  0  0  0  0
    2.7268    9.2697   22.0902 S   0  0  0  0  0  0  0  0  0  0  0  0
    1.4667    8.6405   22.3651 O   0  0  0  0  0  0  0  0  0  0  0  0
    3.3673   10.0978   23.0571 O   0  0  0  0  0  0  0  0  0  0  0  0
    2.6633   10.2418   20.6440 C   0  0  0  0  0  0  0  0  0  0  0  0
    3.7899   11.1457   20.3839 C   0  0  0  0  0  0  0  0  0  0  0  0
    4.0167   11.8576   19.1038 C   0  0  0  0  0  0  0  0  0  0  0  0
    3.7792   13.5459   18.9959 S   0  0  0  0  0  0  0  0  0  0  0  0
    4.4725   11.2318   17.9317 C   0  0  0  0  0  0  0  0  0  0  0  0
    4.6132   12.2004   16.8987 C   0  0  0  0  0  0  0  0  0  0  0  0
    4.2491   13.4847   17.3744 C   0  0  0  0  0  0  0  0  0  0  0  0
    4.2615   14.9336   16.4328 Cl  0  0  0  0  0  0  0  0  0  0  0  0
 20 21  1  0  0  0
 21 22  2  0  0  0
 21 23  2  0  0  0
 21 14  1  0  0  0
 14 15  1  0  0  0
 14 19  2  0  0  0
 15 16  2  0  0  0
 16 17  1  0  0  0
 17 18  2  0  0  0
 18 19  1  0  0  0
 19  7  1  0  0  0
  7  8  1  0  0  0
  7 11  2  0  0  0
  8  9  2  0  0  0
  9 10  1  0  0  0
  9 13  1  0  0  0
 11 12  1  0  0  0
 12 13  2  0  0  0
 13  1  1  0  0  0
  1  2  1  0  0  0
  1  4  1  0  0  0
  2  3  2  0  0  0
  2  6  1  0  0  0
  4  5  1  0  0  0
  5  6  1  0  0  0
  6 24  1  0  0  0
 24 26  1  0  0  0
 26 27  2  0  0  0
 26 28  2  0  0  0
 26 29  1  0  0  0
 29 30  1  0  0  0
 30 31  1  0  0  0
 31 32  1  0  0  0
 31 33  2  0  0  0
 32 35  1  0  0  0
 33 34  1  0  0  0
 34 35  2  0  0  0
 35 36  1  0  0  0
 24 25  1  0  0  0
M  END
> <minimizedAffinity>
-7.97413

$$$$
2VH6_GSV_A_1245


 36 39  0  0  0  0  0  0  0  0999 V2000
    4.7742    6.3145   19.2167 N   0  0  0  0  0  0  0  0  0  0  0  0
    4.8244    6.7243   20.5148 C   0  0  0  0  0  0  0  0  0  0  0  0
    5.4800    6.2402   21.4212 O   0  0  0  0  0  0  0  0  0  0  0  0
    3.8309    7.0757   18.4089 C   0  0  0  0  0  0  0  0  0  0  0  0
    3.7316    8.3839   19.1940 C   0  0  0  0  0  0  0  0  0  0  0  0
    3.9299    7.9278   20.6517 C   0  0  0  0  0  0  0  0  0  0  0  0
    7.1874    3.1973   17.6683 C   0  0  0  0  0  0  0  0  0  0  0  0
    6.0560    2.8518   18.4336 C   0  0  0  0  0  0  0  0  0  0  0  0
    5.2619    3.8969   18.9344 C   0  0  0  0  0  0  0  0  0  0  0  0
    4.1649    3.6107   19.6558 F   0  0  0  0  0  0  0  0  0  0  0  0
    7.5134    4.5648   17.4334 C   0  0  0  0  0  0  0  0  0  0  0  0
    6.7194    5.6098   17.9383 C   0  0  0  0  0  0  0  0  0  0  0  0
    5.5740    5.2650   18.6996 C   0  0  0  0  0  0  0  0  0  0  0  0
    7.8575    1.5250   15.8562 C   0  0  0  0  0  0  0  0  0  0  0  0
    8.7539    0.5238   15.4090 C   0  0  0  0  0  0  0  0  0  0  0  0
    9.8624    0.1358   16.1990 C   0  0  0  0  0  0  0  0  0  0  0  0
   10.0902    0.7473   17.4497 C   0  0  0  0  0  0  0  0  0  0  0  0
    9.1946    1.7402   17.8949 C   0  0  0  0  0  0  0  0  0  0  0  0
    8.0795    2.1354   17.1053 C   0  0  0  0  0  0  0  0  0  0  0  0
    4.9466    1.3887   15.5415 C   0  0  0  0  0  0  0  0  0  0  0  0
    6.4590    1.9503   14.8062 S   0  0  0  0  0  0  0  0  0  0  0  0
    6.3270    3.3605   14.6498 O   0  0  0  0  0  0  0  0  0  0  0  0
    6.6987    1.1561   13.6484 O   0  0  0  0  0  0  0  0  0  0  0  0
    4.5721    8.9448   21.4677 N   0  0  0  0  0  0  0  0  0  0  0  0
    5.0014    8.4471   22.2477 H   0  0  0  0  0  0  0  0  0  0  0  0
    5.7073    9.9503   20.9053 S   0  0  0  0  0  0  0  0  0  0  0  0
    6.2969    9.1427   19.8760 O   0  0  0  0  0  0  0  0  0  0  0  0
    5.1242   11.2166   20.6098 O   0  0  0  0  0  0  0  0  0  0  0  0
    6.8297   10.2689   22.2010 C   0  0  0  0  0  0  0  0  0  0  0  0
    8.1482    9.6280   22.1297 C   0  0  0  0  0  0  0  0  0  0  0  0
    8.9044    9.1307   23.3035 C   0  0  0  0  0  0  0  0  0  0  0  0
    8.1146    8.2466   24.5335 S   0  0  0  0  0  0  0  0  0  0  0  0
   10.2888    9.3003   23.4702 C   0  0  0  0  0  0  0  0  0  0  0  0
   10.7019    8.6800   24.6825 C   0  0  0  0  0  0  0  0  0  0  0  0
    9.5919    8.0911   25.3379 C   0  0  0  0  0  0  0  0  0  0  0  0
    9.6591    7.2534   26.8477 Cl  0  0  0  0  0  0  0  0  0  0  0  0
 20 21  1  0  0  0
 21 22  2  0  0  0
 21 23  2  0  0  0
 21 14  1  0  0  0
 14 15  1  0  0  0
 14 19  2  0  0  0
 15 16  2  0  0  0
 16 17  1  0  0  0
 17 18  2  0  0  0
 18 19  1  0  0  0
 19  7  1  0  0  0
  7  8  1  0  0  0
  7 11  2  0  0  0
  8  9  2  0  0  0
  9 10  1  0  0  0
  9 13  1  0  0  0
 11 12  1  0  0  0
 12 13  2  0  0  0
 13  1  1  0  0  0
  1  2  1  0  0  0
  1  4  1  0  0  0
  2  3  2  0  0  0
  2  6  1  0  0  0
  4  5  1  0  0  0
  5  6  1  0  0  0
  6 24  1  0  0  0
 24 26  1  0  0  0
 26 27  2  0  0  0
 26 28  2  0  0  0
 26 29  1  0  0  0
 29 30  1  0  0  0
 30 31  1  0  0  0
 31 32  1  0  0  0
 31 33  2  0  0  0
 32 35  1  0  0  0
 33 34  1  0  0  0
 34 35  2  0  0  0
 35 36  1  0  0  0
 24 25  1  0  0  0
M  END
> <minimizedAffinity>
-7.88240

$$$$
2VH6_GSV_A_1245


 36 39  0  0  0  0  0  0  0  0999 V2000
    5.4712    6.0818   19.9255 N   0  0  0  0  0  0  0  0  0  0  0  0
    5.0783    7.2269   19.3009 C   0  0  0  0  0  0  0  0  0  0  0  0
    5.3071    7.5614   18.1514 O   0  0  0  0  0  0  0  0  0  0  0  0
    5.0847    6.0300   21.3289 C   0  0  0  0  0  0  0  0  0  0  0  0
    3.8999    6.9957   21.3627 C   0  0  0  0  0  0  0  0  0  0  0  0
    4.2666    8.0303   20.2822 C   0  0  0  0  0  0  0  0  0  0  0  0
    7.5833    2.9755   17.9690 C   0  0  0  0  0  0  0  0  0  0  0  0
    6.3448    2.6703   18.5673 C   0  0  0  0  0  0  0  0  0  0  0  0
    5.6533    3.7128   19.2065 C   0  0  0  0  0  0  0  0  0  0  0  0
    4.4610    3.4681   19.7761 F   0  0  0  0  0  0  0  0  0  0  0  0
    8.1131    4.2971   18.0333 C   0  0  0  0  0  0  0  0  0  0  0  0
    7.4213    5.3388   18.6765 C   0  0  0  0  0  0  0  0  0  0  0  0
    6.1694    5.0372   19.2701 C   0  0  0  0  0  0  0  0  0  0  0  0
    8.0176    1.3827   16.0187 C   0  0  0  0  0  0  0  0  0  0  0  0
    8.8269    0.3744   15.4404 C   0  0  0  0  0  0  0  0  0  0  0  0
    9.9829   -0.0996   16.1054 C   0  0  0  0  0  0  0  0  0  0  0  0
   10.3466    0.4318   17.3606 C   0  0  0  0  0  0  0  0  0  0  0  0
    9.5377    1.4320   17.9364 C   0  0  0  0  0  0  0  0  0  0  0  0
    8.3753    1.9132   17.2727 C   0  0  0  0  0  0  0  0  0  0  0  0
    6.4749    1.1254   13.5400 C   0  0  0  0  0  0  0  0  0  0  0  0
    6.5516    1.9194   15.1233 S   0  0  0  0  0  0  0  0  0  0  0  0
    5.3547    1.5602   15.8082 O   0  0  0  0  0  0  0  0  0  0  0  0
    6.8217    3.3004   14.9027 O   0  0  0  0  0  0  0  0  0  0  0  0
    3.0942    8.5895   19.6303 N   0  0  0  0  0  0  0  0  0  0  0  0
    2.3060    8.3750   20.2410 H   0  0  0  0  0  0  0  0  0  0  0  0
    2.9486   10.1554   19.2526 S   0  0  0  0  0  0  0  0  0  0  0  0
    3.4954   10.1647   17.9258 O   0  0  0  0  0  0  0  0  0  0  0  0
    1.6152   10.5894   19.5067 O   0  0  0  0  0  0  0  0  0  0  0  0
    3.9332   11.0683   20.3650 C   0  0  0  0  0  0  0  0  0  0  0  0
    5.2975   11.4071   19.9432 C   0  0  0  0  0  0  0  0  0  0  0  0
    6.5065   10.6322   20.3104 C   0  0  0  0  0  0  0  0  0  0  0  0
    6.8286   10.2487   21.9437 S   0  0  0  0  0  0  0  0  0  0  0  0
    7.4266   10.1300   19.3753 C   0  0  0  0  0  0  0  0  0  0  0  0
    8.4495    9.4097   20.0534 C   0  0  0  0  0  0  0  0  0  0  0  0
    8.2205    9.4274   21.4519 C   0  0  0  0  0  0  0  0  0  0  0  0
    9.2375    8.6845   22.6349 Cl  0  0  0  0  0  0  0  0  0  0  0  0
 20 21  1  0  0  0
 21 22  2  0  0  0
 21 23  2  0  0  0
 21 14  1  0  0  0
 14 15  1  0  0  0
 14 19  2  0  0  0
 15 16  2  0  0  0
 16 17  1  0  0  0
 17 18  2  0  0  0
 18 19  1  0  0  0
 19  7  1  0  0  0
  7  8  1  0  0  0
  7 11  2  0  0  0
  8  9  2  0  0  0
  9 10  1  0  0  0
  9 13  1  0  0  0
 11 12  1  0  0  0
 12 13  2  0  0  0
 13  1  1  0  0  0
  1  2  1  0  0  0
  1  4  1  0  0  0
  2  3  2  0  0  0
  2  6  1  0  0  0
  4  5  1  0  0  0
  5  6  1  0  0  0
  6 24  1  0  0  0
 24 26  1  0  0  0
 26 27  2  0  0  0
 26 28  2  0  0  0
 26 29  1  0  0  0
 29 30  1  0  0  0
 30 31  1  0  0  0
 31 32  1  0  0  0
 31 33  2  0  0  0
 32 35  1  0  0  0
 33 34  1  0  0  0
 34 35  2  0  0  0
 35 36  1  0  0  0
 24 25  1  0  0  0
M  END
> <minimizedAffinity>
-7.79466

$$$$
