1FCX_184_A_450


 31 34  0  0  0  0  0  0  0  0999 V2000
   39.9495   13.4910   84.2223 C   0  0  0  0  0  0  0  0  0  0  0  0
   40.1016   12.5420   85.2769 O   0  0  0  0  0  0  0  0  0  0  0  0
   40.5050   12.9748   86.0456 H   0  0  0  0  0  0  0  0  0  0  0  0
   42.6898   13.7893   81.6953 C   0  0  0  0  0  0  0  0  0  0  0  0
   43.0051   13.1362   80.3662 C   0  0  0  0  0  0  0  0  0  0  0  0
   44.4185   13.5065   79.9115 C   0  0  0  0  0  0  0  0  0  0  0  0
   44.8507   14.8922   80.1726 C   0  0  0  0  0  0  0  0  0  0  0  0
   44.8017   15.2728   81.6319 C   0  0  0  0  0  0  0  0  0  0  0  0
   43.5141   14.7644   82.2656 C   0  0  0  0  0  0  0  0  0  0  0  0
   41.9385   13.5379   79.3487 C   0  0  0  0  0  0  0  0  0  0  0  0
   43.0506   11.6075   80.4653 C   0  0  0  0  0  0  0  0  0  0  0  0
   44.7676   16.7978   81.5395 C   0  0  0  0  0  0  0  0  0  0  0  0
   46.0207   14.8790   82.5130 C   0  0  0  0  0  0  0  0  0  0  0  0
   41.2508   14.0272   83.6155 C   0  0  0  0  0  0  0  0  0  0  0  0
   41.5336   13.4217   82.3948 C   0  0  0  0  0  0  0  0  0  0  0  0
   43.1858   15.3370   83.4859 C   0  0  0  0  0  0  0  0  0  0  0  0
   42.0744   14.9787   84.1593 C   0  0  0  0  0  0  0  0  0  0  0  0
   35.6357   17.3648   87.4940 C   0  0  0  0  0  0  0  0  0  0  0  0
   35.7018   16.0723   88.0953 C   0  0  0  0  0  0  0  0  0  0  0  0
   36.5556   15.1047   87.5726 C   0  0  0  0  0  0  0  0  0  0  0  0
   37.3717   15.3696   86.4346 C   0  0  0  0  0  0  0  0  0  0  0  0
   37.3044   16.6328   85.8523 C   0  0  0  0  0  0  0  0  0  0  0  0
   36.4276   17.6159   86.3987 C   0  0  0  0  0  0  0  0  0  0  0  0
   38.2311   14.3819   85.9048 C   0  0  0  0  0  0  0  0  0  0  0  0
   39.0293   14.6445   84.7943 C   0  0  0  0  0  0  0  0  0  0  0  0
   38.9427   15.9196   84.2150 C   0  0  0  0  0  0  0  0  0  0  0  0
   38.0967   16.9199   84.7277 C   0  0  0  0  0  0  0  0  0  0  0  0
   34.7252   18.3147   88.1045 C   0  0  0  0  0  0  0  0  0  0  0  0
   34.9068   19.4840   88.1421 O   0  0  0  0  0  0  0  0  0  0  0  0
   33.6650   17.7607   88.6325 O   0  0  0  0  0  0  0  0  0  0  0  0
   33.5495   16.8320   88.5865 H   0  0  0  0  0  0  0  0  0  0  0  0
 28 18  1  0  0  0
 28 29  2  0  0  0
 28 30  1  0  0  0
 18 19  2  0  0  0
 18 23  1  0  0  0
 19 20  1  0  0  0
 20 21  2  0  0  0
 21 22  1  0  0  0
 21 24  1  0  0  0
 22 23  2  0  0  0
 22 27  1  0  0  0
  4  5  1  0  0  0
  4  9  2  0  0  0
  4 15  1  0  0  0
  5  6  1  0  0  0
  5 10  1  0  0  0
  5 11  1  0  0  0
  6  7  1  0  0  0
  7  8  1  0  0  0
  8  9  1  0  0  0
  8 12  1  0  0  0
  8 13  1  0  0  0
  9 16  1  0  0  0
 24 25  2  0  0  0
 25 26  1  0  0  0
 25  1  1  0  0  0
 26 27  2  0  0  0
 14 15  2  0  0  0
 14 17  1  0  0  0
 14  1  1  0  0  0
 16 17  2  0  0  0
  1  2  1  0  0  0
 30 31  1  0  0  0
  2  3  1  0  0  0
M  END
> <minimizedAffinity>
-16.07408

$$$$
1FCX_184_A_450


 31 34  0  0  0  0  0  0  0  0999 V2000
   40.1979   13.1418   84.3676 C   0  0  0  0  0  0  0  0  0  0  0  0
   40.8713   12.6783   85.5370 O   0  0  0  0  0  0  0  0  0  0  0  0
   41.4232   13.3906   85.8960 H   0  0  0  0  0  0  0  0  0  0  0  0
   42.7201   15.0595   82.3814 C   0  0  0  0  0  0  0  0  0  0  0  0
   43.5410   16.3120   82.6052 C   0  0  0  0  0  0  0  0  0  0  0  0
   44.2297   16.7377   81.3068 C   0  0  0  0  0  0  0  0  0  0  0  0
   44.7561   15.6538   80.4563 C   0  0  0  0  0  0  0  0  0  0  0  0
   43.7041   14.6603   80.0283 C   0  0  0  0  0  0  0  0  0  0  0  0
   42.8011   14.3107   81.2032 C   0  0  0  0  0  0  0  0  0  0  0  0
   44.5333   16.0607   83.7394 C   0  0  0  0  0  0  0  0  0  0  0  0
   42.6708   17.5221   82.9616 C   0  0  0  0  0  0  0  0  0  0  0  0
   44.5677   13.4542   79.6608 C   0  0  0  0  0  0  0  0  0  0  0  0
   42.8441   15.0234   78.7850 C   0  0  0  0  0  0  0  0  0  0  0  0
   41.0934   13.4616   83.1656 C   0  0  0  0  0  0  0  0  0  0  0  0
   41.8439   14.6139   83.3789 C   0  0  0  0  0  0  0  0  0  0  0  0
   42.0305   13.1685   81.0413 C   0  0  0  0  0  0  0  0  0  0  0  0
   41.1848   12.7437   82.0012 C   0  0  0  0  0  0  0  0  0  0  0  0
   35.9969   17.4762   87.1755 C   0  0  0  0  0  0  0  0  0  0  0  0
   35.9527   16.2238   87.8585 C   0  0  0  0  0  0  0  0  0  0  0  0
   36.7657   15.1740   87.4396 C   0  0  0  0  0  0  0  0  0  0  0  0
   37.6479   15.3141   86.3291 C   0  0  0  0  0  0  0  0  0  0  0  0
   37.6882   16.5385   85.6669 C   0  0  0  0  0  0  0  0  0  0  0  0
   36.8522   17.6067   86.1072 C   0  0  0  0  0  0  0  0  0  0  0  0
   38.4654   14.2434   85.9047 C   0  0  0  0  0  0  0  0  0  0  0  0
   39.3284   14.3840   84.8208 C   0  0  0  0  0  0  0  0  0  0  0  0
   39.3501   15.6216   84.1599 C   0  0  0  0  0  0  0  0  0  0  0  0
   38.5475   16.7029   84.5672 C   0  0  0  0  0  0  0  0  0  0  0  0
   35.1224   18.5175   87.6803 C   0  0  0  0  0  0  0  0  0  0  0  0
   34.0762   18.3182   88.1972 O   0  0  0  0  0  0  0  0  0  0  0  0
   35.5899   19.7261   87.5053 O   0  0  0  0  0  0  0  0  0  0  0  0
   36.4217   19.8515   87.0927 H   0  0  0  0  0  0  0  0  0  0  0  0
 28 18  1  0  0  0
 28 29  2  0  0  0
 28 30  1  0  0  0
 18 19  2  0  0  0
 18 23  1  0  0  0
 19 20  1  0  0  0
 20 21  2  0  0  0
 21 22  1  0  0  0
 21 24  1  0  0  0
 22 23  2  0  0  0
 22 27  1  0  0  0
  4  5  1  0  0  0
  4  9  2  0  0  0
  4 15  1  0  0  0
  5  6  1  0  0  0
  5 10  1  0  0  0
  5 11  1  0  0  0
  6  7  1  0  0  0
  7  8  1  0  0  0
  8  9  1  0  0  0
  8 12  1  0  0  0
  8 13  1  0  0  0
  9 16  1  0  0  0
 24 25  2  0  0  0
 25 26  1  0  0  0
 25  1  1  0  0  0
 26 27  2  0  0  0
 14 15  2  0  0  0
 14 17  1  0  0  0
 14  1  1  0  0  0
 16 17  2  0  0  0
  1  2  1  0  0  0
 30 31  1  0  0  0
  2  3  1  0  0  0
M  END
> <minimizedAffinity>
-14.18608

$$$$
