3ZXZ_KRW_A_2345


 29 33  0  0  0  0  0  0  0  0999 V2000
   18.2319   82.4864    4.7615 C   0  0  0  0  0  0  0  0  0  0  0  0
   18.6443   83.7311    5.1847 N   0  0  0  0  0  0  0  0  0  0  0  0
   18.5697   83.9216    6.5245 C   0  0  0  0  0  0  0  0  0  0  0  0
   18.9009   85.0265    7.2906 N   0  0  0  0  0  0  0  0  0  0  0  0
   18.6668   84.7717    8.5365 N   0  0  0  0  0  0  0  0  0  0  0  0
   18.1984   83.5747    8.6992 N   0  0  0  0  0  0  0  0  0  0  0  0
   18.1246   82.9923    7.4075 C   0  0  0  0  0  0  0  0  0  0  0  0
   17.7057   81.7561    7.0403 N   0  0  0  0  0  0  0  0  0  0  0  0
   17.7681   81.5122    5.6895 C   0  0  0  0  0  0  0  0  0  0  0  0
   18.4743   82.2845    1.0976 N   0  0  0  0  0  0  0  0  0  0  0  0
   18.5358   83.0903    2.2408 C   0  0  0  0  0  0  0  0  0  0  0  0
   18.2331   81.0489    1.3660 N   0  0  0  0  0  0  0  0  0  0  0  0
   18.1097   80.9081    2.6429 C   0  0  0  0  0  0  0  0  0  0  0  0
   18.2946   82.2043    3.2901 C   0  0  0  0  0  0  0  0  0  0  0  0
   18.6566   82.7828   -0.2677 C   0  0  0  0  0  0  0  0  0  0  0  0
   16.4262   83.6943   -0.3289 O   0  0  0  0  0  0  0  0  0  0  0  0
   17.3272   82.8545   -1.0207 C   0  0  0  0  0  0  0  0  0  0  0  0
   15.5861   83.7348   -0.8121 H   0  0  0  0  0  0  0  0  0  0  0  0
   19.4378   86.2939    6.7749 C   0  0  0  0  0  0  0  0  0  0  0  0
   20.8552   86.0856    6.2365 C   0  0  0  0  0  0  0  0  0  0  0  0
   21.0972   85.9820    4.8213 C   0  0  0  0  0  0  0  0  0  0  0  0
   22.4213   85.7864    4.3116 C   0  0  0  0  0  0  0  0  0  0  0  0
   22.6891   85.6777    2.9113 C   0  0  0  0  0  0  0  0  0  0  0  0
   24.0335   85.4820    2.4708 C   0  0  0  0  0  0  0  0  0  0  0  0
   25.0670   85.4021    3.4533 C   0  0  0  0  0  0  0  0  0  0  0  0
   24.8316   85.5030    4.7992 N   0  0  0  0  0  0  0  0  0  0  0  0
   23.5476   85.6892    5.2237 C   0  0  0  0  0  0  0  0  0  0  0  0
   23.2969   85.7923    6.6324 C   0  0  0  0  0  0  0  0  0  0  0  0
   21.9682   85.9882    7.1334 C   0  0  0  0  0  0  0  0  0  0  0  0
 16 17  1  0  0  0
 17 15  1  0  0  0
 15 10  1  0  0  0
 10 11  1  0  0  0
 10 12  1  0  0  0
 11 14  2  0  0  0
 12 13  2  0  0  0
 13 14  1  0  0  0
 14  1  1  0  0  0
  1  2  2  0  0  0
  1  9  1  0  0  0
  2  3  1  0  0  0
  3  4  1  0  0  0
  3  7  2  0  0  0
  4  5  1  0  0  0
  4 19  1  0  0  0
  5  6  2  0  0  0
  6  7  1  0  0  0
  7  8  1  0  0  0
  8  9  2  0  0  0
 19 20  1  0  0  0
 20 21  1  0  0  0
 20 29  2  0  0  0
 21 22  2  0  0  0
 22 23  1  0  0  0
 22 27  1  0  0  0
 23 24  2  0  0  0
 24 25  1  0  0  0
 25 26  2  0  0  0
 26 27  1  0  0  0
 27 28  2  0  0  0
 28 29  1  0  0  0
 16 18  1  0  0  0
M  END
> <minimizedAffinity>
-11.27346

$$$$
3ZXZ_KRW_A_2345


 29 33  0  0  0  0  0  0  0  0999 V2000
   23.6852   85.2471    3.6086 C   0  0  0  0  0  0  0  0  0  0  0  0
   22.3209   85.4342    3.6558 N   0  0  0  0  0  0  0  0  0  0  0  0
   21.8307   85.6813    4.8950 C   0  0  0  0  0  0  0  0  0  0  0  0
   20.5322   85.9209    5.3117 N   0  0  0  0  0  0  0  0  0  0  0  0
   20.5185   86.1056    6.5915 N   0  0  0  0  0  0  0  0  0  0  0  0
   21.7067   86.0136    7.0999 N   0  0  0  0  0  0  0  0  0  0  0  0
   22.5862   85.7397    6.0207 C   0  0  0  0  0  0  0  0  0  0  0  0
   23.9301   85.5597    6.0264 N   0  0  0  0  0  0  0  0  0  0  0  0
   24.4760   85.3118    4.7901 C   0  0  0  0  0  0  0  0  0  0  0  0
   25.4659   84.9888    0.4015 N   0  0  0  0  0  0  0  0  0  0  0  0
   25.3009   85.6829    1.6060 C   0  0  0  0  0  0  0  0  0  0  0  0
   24.6838   83.9719    0.2961 N   0  0  0  0  0  0  0  0  0  0  0  0
   23.9523   83.8874    1.3560 C   0  0  0  0  0  0  0  0  0  0  0  0
   24.2965   84.9762    2.2665 C   0  0  0  0  0  0  0  0  0  0  0  0
   26.4199   85.3722   -0.6419 C   0  0  0  0  0  0  0  0  0  0  0  0
   27.9212   83.8607    0.4853 O   0  0  0  0  0  0  0  0  0  0  0  0
   27.5372   84.3379   -0.7876 C   0  0  0  0  0  0  0  0  0  0  0  0
   28.6296   83.2057    0.3849 H   0  0  0  0  0  0  0  0  0  0  0  0
   19.3493   85.9630    4.4404 C   0  0  0  0  0  0  0  0  0  0  0  0
   18.9718   84.5481    3.9956 C   0  0  0  0  0  0  0  0  0  0  0  0
   18.9111   84.2073    2.5984 C   0  0  0  0  0  0  0  0  0  0  0  0
   18.5578   82.8852    2.1761 C   0  0  0  0  0  0  0  0  0  0  0  0
   18.4876   82.5208    0.7952 C   0  0  0  0  0  0  0  0  0  0  0  0
   18.1276   81.1843    0.4432 C   0  0  0  0  0  0  0  0  0  0  0  0
   17.8498   80.2555    1.4921 C   0  0  0  0  0  0  0  0  0  0  0  0
   17.9106   80.5845    2.8207 N   0  0  0  0  0  0  0  0  0  0  0  0
   18.2534   81.8614    3.1605 C   0  0  0  0  0  0  0  0  0  0  0  0
   18.3152   82.2102    4.5506 C   0  0  0  0  0  0  0  0  0  0  0  0
   18.6699   83.5362    4.9639 C   0  0  0  0  0  0  0  0  0  0  0  0
 16 17  1  0  0  0
 17 15  1  0  0  0
 15 10  1  0  0  0
 10 11  1  0  0  0
 10 12  1  0  0  0
 11 14  2  0  0  0
 12 13  2  0  0  0
 13 14  1  0  0  0
 14  1  1  0  0  0
  1  2  2  0  0  0
  1  9  1  0  0  0
  2  3  1  0  0  0
  3  4  1  0  0  0
  3  7  2  0  0  0
  4  5  1  0  0  0
  4 19  1  0  0  0
  5  6  2  0  0  0
  6  7  1  0  0  0
  7  8  1  0  0  0
  8  9  2  0  0  0
 19 20  1  0  0  0
 20 21  1  0  0  0
 20 29  2  0  0  0
 21 22  2  0  0  0
 22 23  1  0  0  0
 22 27  1  0  0  0
 23 24  2  0  0  0
 24 25  1  0  0  0
 25 26  2  0  0  0
 26 27  1  0  0  0
 27 28  2  0  0  0
 28 29  1  0  0  0
 16 18  1  0  0  0
M  END
> <minimizedAffinity>
-9.29838

$$$$
3ZXZ_KRW_A_2345


 29 33  0  0  0  0  0  0  0  0999 V2000
   21.5000   82.2639   -0.8169 C   0  0  0  0  0  0  0  0  0  0  0  0
   20.6954   81.9802    0.2651 N   0  0  0  0  0  0  0  0  0  0  0  0
   19.4208   82.4260    0.1490 C   0  0  0  0  0  0  0  0  0  0  0  0
   18.3521   82.3170    1.0227 N   0  0  0  0  0  0  0  0  0  0  0  0
   17.3149   82.8919    0.5072 N   0  0  0  0  0  0  0  0  0  0  0  0
   17.5769   83.3932   -0.6584 N   0  0  0  0  0  0  0  0  0  0  0  0
   18.9408   83.1053   -0.9232 C   0  0  0  0  0  0  0  0  0  0  0  0
   19.6928   83.4109   -2.0093 N   0  0  0  0  0  0  0  0  0  0  0  0
   20.9937   82.9739   -1.9417 C   0  0  0  0  0  0  0  0  0  0  0  0
   24.8107   80.6632   -0.8178 N   0  0  0  0  0  0  0  0  0  0  0  0
   23.4355   80.5278   -1.0423 C   0  0  0  0  0  0  0  0  0  0  0  0
   25.1451   81.8494   -0.4466 N   0  0  0  0  0  0  0  0  0  0  0  0
   24.0885   82.5878   -0.3826 C   0  0  0  0  0  0  0  0  0  0  0  0
   22.9224   81.7931   -0.7589 C   0  0  0  0  0  0  0  0  0  0  0  0
   25.7787   79.5754   -0.9779 C   0  0  0  0  0  0  0  0  0  0  0  0
   24.7224   78.0250    0.5353 O   0  0  0  0  0  0  0  0  0  0  0  0
   25.1171   78.2068   -0.8089 C   0  0  0  0  0  0  0  0  0  0  0  0
   24.3040   77.1555    0.6346 H   0  0  0  0  0  0  0  0  0  0  0  0
   18.3838   81.6508    2.3325 C   0  0  0  0  0  0  0  0  0  0  0  0
   18.5935   82.6823    3.4434 C   0  0  0  0  0  0  0  0  0  0  0  0
   18.2820   82.3635    4.8122 C   0  0  0  0  0  0  0  0  0  0  0  0
   18.4755   83.3248    5.8561 C   0  0  0  0  0  0  0  0  0  0  0  0
   18.1718   83.0352    7.2230 C   0  0  0  0  0  0  0  0  0  0  0  0
   18.3875   84.0405    8.2142 C   0  0  0  0  0  0  0  0  0  0  0  0
   18.9026   85.3063    7.7991 C   0  0  0  0  0  0  0  0  0  0  0  0
   19.1991   85.6042    6.4951 N   0  0  0  0  0  0  0  0  0  0  0  0
   18.9932   84.6458    5.5450 C   0  0  0  0  0  0  0  0  0  0  0  0
   19.2998   84.9552    4.1782 C   0  0  0  0  0  0  0  0  0  0  0  0
   19.1031   83.9865    3.1401 C   0  0  0  0  0  0  0  0  0  0  0  0
 16 17  1  0  0  0
 17 15  1  0  0  0
 15 10  1  0  0  0
 10 11  1  0  0  0
 10 12  1  0  0  0
 11 14  2  0  0  0
 12 13  2  0  0  0
 13 14  1  0  0  0
 14  1  1  0  0  0
  1  2  2  0  0  0
  1  9  1  0  0  0
  2  3  1  0  0  0
  3  4  1  0  0  0
  3  7  2  0  0  0
  4  5  1  0  0  0
  4 19  1  0  0  0
  5  6  2  0  0  0
  6  7  1  0  0  0
  7  8  1  0  0  0
  8  9  2  0  0  0
 19 20  1  0  0  0
 20 21  1  0  0  0
 20 29  2  0  0  0
 21 22  2  0  0  0
 22 23  1  0  0  0
 22 27  1  0  0  0
 23 24  2  0  0  0
 24 25  1  0  0  0
 25 26  2  0  0  0
 26 27  1  0  0  0
 27 28  2  0  0  0
 28 29  1  0  0  0
 16 18  1  0  0  0
M  END
> <minimizedAffinity>
-8.98394

$$$$
3ZXZ_KRW_A_2345


 29 33  0  0  0  0  0  0  0  0999 V2000
   22.0943   83.6864    1.8909 C   0  0  0  0  0  0  0  0  0  0  0  0
   21.5906   84.5245    2.8616 N   0  0  0  0  0  0  0  0  0  0  0  0
   22.5294   85.0799    3.6660 C   0  0  0  0  0  0  0  0  0  0  0  0
   22.3916   85.9609    4.7253 N   0  0  0  0  0  0  0  0  0  0  0  0
   23.5578   86.2307    5.2146 N   0  0  0  0  0  0  0  0  0  0  0  0
   24.4984   85.6066    4.5787 N   0  0  0  0  0  0  0  0  0  0  0  0
   23.8625   84.8490    3.5615 C   0  0  0  0  0  0  0  0  0  0  0  0
   24.4059   84.0313    2.6263 N   0  0  0  0  0  0  0  0  0  0  0  0
   23.4931   83.4479    1.7811 C   0  0  0  0  0  0  0  0  0  0  0  0
   19.3311   82.2524   -0.0665 N   0  0  0  0  0  0  0  0  0  0  0  0
   19.7239   82.9599    1.0760 C   0  0  0  0  0  0  0  0  0  0  0  0
   20.3215   81.9262   -0.8210 N   0  0  0  0  0  0  0  0  0  0  0  0
   21.4180   82.3522   -0.2901 C   0  0  0  0  0  0  0  0  0  0  0  0
   21.1110   83.0423    0.9599 C   0  0  0  0  0  0  0  0  0  0  0  0
   17.9425   81.9066   -0.3797 C   0  0  0  0  0  0  0  0  0  0  0  0
   16.4502   83.7847   -0.1445 O   0  0  0  0  0  0  0  0  0  0  0  0
   17.2217   83.0598   -1.0798 C   0  0  0  0  0  0  0  0  0  0  0  0
   15.9965   84.5138   -0.5955 H   0  0  0  0  0  0  0  0  0  0  0  0
   21.1212   86.5100    5.2202 C   0  0  0  0  0  0  0  0  0  0  0  0
   20.2915   85.4063    5.8802 C   0  0  0  0  0  0  0  0  0  0  0  0
   19.6077   84.4226    5.0822 C   0  0  0  0  0  0  0  0  0  0  0  0
   18.8292   83.3877    5.6940 C   0  0  0  0  0  0  0  0  0  0  0  0
   18.1381   82.4000    4.9251 C   0  0  0  0  0  0  0  0  0  0  0  0
   17.3783   81.3961    5.5994 C   0  0  0  0  0  0  0  0  0  0  0  0
   17.3379   81.4170    7.0269 C   0  0  0  0  0  0  0  0  0  0  0  0
   17.9920   82.3546    7.7820 N   0  0  0  0  0  0  0  0  0  0  0  0
   18.7183   83.3162    7.1406 C   0  0  0  0  0  0  0  0  0  0  0  0
   19.4021   84.3013    7.9278 C   0  0  0  0  0  0  0  0  0  0  0  0
   20.1792   85.3334    7.3066 C   0  0  0  0  0  0  0  0  0  0  0  0
 16 17  1  0  0  0
 17 15  1  0  0  0
 15 10  1  0  0  0
 10 11  1  0  0  0
 10 12  1  0  0  0
 11 14  2  0  0  0
 12 13  2  0  0  0
 13 14  1  0  0  0
 14  1  1  0  0  0
  1  2  2  0  0  0
  1  9  1  0  0  0
  2  3  1  0  0  0
  3  4  1  0  0  0
  3  7  2  0  0  0
  4  5  1  0  0  0
  4 19  1  0  0  0
  5  6  2  0  0  0
  6  7  1  0  0  0
  7  8  1  0  0  0
  8  9  2  0  0  0
 19 20  1  0  0  0
 20 21  1  0  0  0
 20 29  2  0  0  0
 21 22  2  0  0  0
 22 23  1  0  0  0
 22 27  1  0  0  0
 23 24  2  0  0  0
 24 25  1  0  0  0
 25 26  2  0  0  0
 26 27  1  0  0  0
 27 28  2  0  0  0
 28 29  1  0  0  0
 16 18  1  0  0  0
M  END
> <minimizedAffinity>
-8.69076

$$$$
3ZXZ_KRW_A_2345


 29 33  0  0  0  0  0  0  0  0999 V2000
   23.2114   82.9342    0.6272 C   0  0  0  0  0  0  0  0  0  0  0  0
   21.8468   83.1091    0.5508 N   0  0  0  0  0  0  0  0  0  0  0  0
   21.2184   82.2585   -0.2969 C   0  0  0  0  0  0  0  0  0  0  0  0
   19.8758   82.1421   -0.6147 N   0  0  0  0  0  0  0  0  0  0  0  0
   19.7190   81.1917   -1.4775 N   0  0  0  0  0  0  0  0  0  0  0  0
   20.8479   80.6359   -1.7859 N   0  0  0  0  0  0  0  0  0  0  0  0
   21.8459   81.3062   -1.0323 C   0  0  0  0  0  0  0  0  0  0  0  0
   23.1851   81.0975   -0.9942 N   0  0  0  0  0  0  0  0  0  0  0  0
   23.8671   81.9329   -0.1428 C   0  0  0  0  0  0  0  0  0  0  0  0
   24.6674   85.1318    3.1911 N   0  0  0  0  0  0  0  0  0  0  0  0
   23.5722   84.3617    2.7820 C   0  0  0  0  0  0  0  0  0  0  0  0
   25.6413   85.1076    2.3499 N   0  0  0  0  0  0  0  0  0  0  0  0
   25.3161   84.3656    1.3453 C   0  0  0  0  0  0  0  0  0  0  0  0
   23.9702   83.8377    1.5525 C   0  0  0  0  0  0  0  0  0  0  0  0
   24.7116   85.8961    4.4400 C   0  0  0  0  0  0  0  0  0  0  0  0
   24.0008   85.7848    6.7404 O   0  0  0  0  0  0  0  0  0  0  0  0
   23.6379   85.4266    5.4230 C   0  0  0  0  0  0  0  0  0  0  0  0
   23.3157   85.4840    7.3576 H   0  0  0  0  0  0  0  0  0  0  0  0
   18.7919   82.9653   -0.0598 C   0  0  0  0  0  0  0  0  0  0  0  0
   18.5510   82.6005    1.4068 C   0  0  0  0  0  0  0  0  0  0  0  0
   18.8266   83.5472    2.4557 C   0  0  0  0  0  0  0  0  0  0  0  0
   18.6039   83.2114    3.8300 C   0  0  0  0  0  0  0  0  0  0  0  0
   18.8716   84.1315    4.8912 C   0  0  0  0  0  0  0  0  0  0  0  0
   18.6279   83.7314    6.2403 C   0  0  0  0  0  0  0  0  0  0  0  0
   18.1219   82.4175    6.4799 C   0  0  0  0  0  0  0  0  0  0  0  0
   17.8595   81.5207    5.4778 N   0  0  0  0  0  0  0  0  0  0  0  0
   18.0923   81.8996    4.1872 C   0  0  0  0  0  0  0  0  0  0  0  0
   17.8216   80.9622    3.1356 C   0  0  0  0  0  0  0  0  0  0  0  0
   18.0475   81.3073    1.7628 C   0  0  0  0  0  0  0  0  0  0  0  0
 16 17  1  0  0  0
 17 15  1  0  0  0
 15 10  1  0  0  0
 10 11  1  0  0  0
 10 12  1  0  0  0
 11 14  2  0  0  0
 12 13  2  0  0  0
 13 14  1  0  0  0
 14  1  1  0  0  0
  1  2  2  0  0  0
  1  9  1  0  0  0
  2  3  1  0  0  0
  3  4  1  0  0  0
  3  7  2  0  0  0
  4  5  1  0  0  0
  4 19  1  0  0  0
  5  6  2  0  0  0
  6  7  1  0  0  0
  7  8  1  0  0  0
  8  9  2  0  0  0
 19 20  1  0  0  0
 20 21  1  0  0  0
 20 29  2  0  0  0
 21 22  2  0  0  0
 22 23  1  0  0  0
 22 27  1  0  0  0
 23 24  2  0  0  0
 24 25  1  0  0  0
 25 26  2  0  0  0
 26 27  1  0  0  0
 27 28  2  0  0  0
 28 29  1  0  0  0
 16 18  1  0  0  0
M  END
> <minimizedAffinity>
-8.61107

$$$$
3ZXZ_KRW_A_2345


 29 33  0  0  0  0  0  0  0  0999 V2000
   19.1747   82.9791   -1.6982 C   0  0  0  0  0  0  0  0  0  0  0  0
   18.8196   82.6344   -0.4124 N   0  0  0  0  0  0  0  0  0  0  0  0
   19.8601   82.2860    0.3831 C   0  0  0  0  0  0  0  0  0  0  0  0
   19.8789   81.8956    1.7115 N   0  0  0  0  0  0  0  0  0  0  0  0
   21.0969   81.6525    2.0711 N   0  0  0  0  0  0  0  0  0  0  0  0
   21.9294   81.8432    1.0968 N   0  0  0  0  0  0  0  0  0  0  0  0
   21.1563   82.2590   -0.0178 C   0  0  0  0  0  0  0  0  0  0  0  0
   21.5553   82.5860   -1.2718 N   0  0  0  0  0  0  0  0  0  0  0  0
   20.5350   82.9529   -2.1159 C   0  0  0  0  0  0  0  0  0  0  0  0
   16.1605   83.7630   -3.6535 N   0  0  0  0  0  0  0  0  0  0  0  0
   16.6979   83.1980   -2.4908 C   0  0  0  0  0  0  0  0  0  0  0  0
   17.0581   84.2507   -4.4366 N   0  0  0  0  0  0  0  0  0  0  0  0
   18.2232   84.0687   -3.9122 C   0  0  0  0  0  0  0  0  0  0  0  0
   18.0728   83.3826   -2.6317 C   0  0  0  0  0  0  0  0  0  0  0  0
   14.7291   83.7964   -3.9631 C   0  0  0  0  0  0  0  0  0  0  0  0
   12.8172   82.6303   -3.0720 O   0  0  0  0  0  0  0  0  0  0  0  0
   14.0673   82.4424   -3.7025 C   0  0  0  0  0  0  0  0  0  0  0  0
   12.4038   81.7679   -2.9101 H   0  0  0  0  0  0  0  0  0  0  0  0
   18.7018   81.7765    2.5837 C   0  0  0  0  0  0  0  0  0  0  0  0
   18.7721   82.8123    3.7081 C   0  0  0  0  0  0  0  0  0  0  0  0
   18.4356   82.4540    5.0611 C   0  0  0  0  0  0  0  0  0  0  0  0
   18.4988   83.4191    6.1174 C   0  0  0  0  0  0  0  0  0  0  0  0
   18.1677   83.0906    7.4690 C   0  0  0  0  0  0  0  0  0  0  0  0
   18.2511   84.1020    8.4738 C   0  0  0  0  0  0  0  0  0  0  0  0
   18.6657   85.4130    8.0874 C   0  0  0  0  0  0  0  0  0  0  0  0
   18.9866   85.7486    6.7983 N   0  0  0  0  0  0  0  0  0  0  0  0
   18.9069   84.7844    5.8353 C   0  0  0  0  0  0  0  0  0  0  0  0
   19.2392   85.1328    4.4840 C   0  0  0  0  0  0  0  0  0  0  0  0
   19.1732   84.1600    3.4332 C   0  0  0  0  0  0  0  0  0  0  0  0
 16 17  1  0  0  0
 17 15  1  0  0  0
 15 10  1  0  0  0
 10 11  1  0  0  0
 10 12  1  0  0  0
 11 14  2  0  0  0
 12 13  2  0  0  0
 13 14  1  0  0  0
 14  1  1  0  0  0
  1  2  2  0  0  0
  1  9  1  0  0  0
  2  3  1  0  0  0
  3  4  1  0  0  0
  3  7  2  0  0  0
  4  5  1  0  0  0
  4 19  1  0  0  0
  5  6  2  0  0  0
  6  7  1  0  0  0
  7  8  1  0  0  0
  8  9  2  0  0  0
 19 20  1  0  0  0
 20 21  1  0  0  0
 20 29  2  0  0  0
 21 22  2  0  0  0
 22 23  1  0  0  0
 22 27  1  0  0  0
 23 24  2  0  0  0
 24 25  1  0  0  0
 25 26  2  0  0  0
 26 27  1  0  0  0
 27 28  2  0  0  0
 28 29  1  0  0  0
 16 18  1  0  0  0
M  END
> <minimizedAffinity>
-8.55719

$$$$
