4YMH_SAH_A_1001


 33 35  0  0  0  0  0  0  0  0999 V2000
   40.0945  272.3373  162.7954 C   0  0  0  0  0  0  0  0  0  0  0  0
   40.3399  272.0175  164.1521 O   0  0  0  0  0  0  0  0  0  0  0  0
   41.1042  273.4018  162.4399 C   0  0  0  0  0  0  0  0  0  0  0  0
   40.4692  274.6307  162.1790 O   0  0  0  0  0  0  0  0  0  0  0  0
   41.9822  273.5146  163.6594 C   0  0  0  0  0  0  0  0  0  0  0  0
   42.5009  274.7912  163.8581 O   0  0  0  0  0  0  0  0  0  0  0  0
   41.0916  273.0279  164.7761 C   0  0  0  0  0  0  0  0  0  0  0  0
   39.9535  274.8994  162.9553 H   0  0  0  0  0  0  0  0  0  0  0  0
   41.7727  275.4255  163.9495 H   0  0  0  0  0  0  0  0  0  0  0  0
   41.8276  272.4617  165.9153 N   0  0  0  0  0  0  0  0  0  0  0  0
   42.8658  271.6464  165.8871 C   0  0  0  0  0  0  0  0  0  0  0  0
   43.2580  271.3392  167.1111 N   0  0  0  0  0  0  0  0  0  0  0  0
   42.4597  271.9587  167.9453 C   0  0  0  0  0  0  0  0  0  0  0  0
   42.3120  272.0562  169.3957 C   0  0  0  0  0  0  0  0  0  0  0  0
   43.1533  271.3990  170.1621 N   0  0  0  0  0  0  0  0  0  0  0  0
   41.3303  272.8000  169.8981 N   0  0  0  0  0  0  0  0  0  0  0  0
   40.4907  273.4390  169.0913 C   0  0  0  0  0  0  0  0  0  0  0  0
   40.5529  273.3964  167.7739 N   0  0  0  0  0  0  0  0  0  0  0  0
   41.5021  272.6841  167.1560 C   0  0  0  0  0  0  0  0  0  0  0  0
   43.8687  270.8576  169.7566 H   0  0  0  0  0  0  0  0  0  0  0  0
   43.0681  271.4480  171.1417 H   0  0  0  0  0  0  0  0  0  0  0  0
   40.2356  271.0825  161.9478 C   0  0  0  0  0  0  0  0  0  0  0  0
   39.6557  271.2427  160.3087 S   0  0  0  0  0  0  0  0  0  0  0  0
   37.9383  271.2237  160.6650 C   0  0  0  0  0  0  0  0  0  0  0  0
   37.1520  271.9553  159.5814 C   0  0  0  0  0  0  0  0  0  0  0  0
   35.1758  271.1109  160.7584 N   0  0  0  0  0  0  0  0  0  0  0  0
   35.6378  271.7648  159.5665 C   0  0  0  0  0  0  0  0  0  0  0  0
   35.4422  271.6626  161.5739 H   0  0  0  0  0  0  0  0  0  0  0  0
   35.5968  270.1840  160.8227 H   0  0  0  0  0  0  0  0  0  0  0  0
   35.2650  270.9822  158.3364 C   0  0  0  0  0  0  0  0  0  0  0  0
   34.3508  271.3562  157.6405 O   0  0  0  0  0  0  0  0  0  0  0  0
   35.9035  269.9795  158.0549 O   0  0  0  0  0  0  0  0  0  0  0  0
   36.6095  269.7037  158.6057 H   0  0  0  0  0  0  0  0  0  0  0  0
 26 27  1  0  0  0
 27 25  1  0  0  0
 27 30  1  0  0  0
 25 24  1  0  0  0
 24 23  1  0  0  0
 23 22  1  0  0  0
 30 31  2  0  0  0
 30 32  1  0  0  0
 22  1  1  0  0  0
  1  2  1  0  0  0
  1  3  1  0  0  0
  2  7  1  0  0  0
  3  4  1  0  0  0
  3  5  1  0  0  0
  5  6  1  0  0  0
  5  7  1  0  0  0
  7 10  1  0  0  0
 10 11  1  0  0  0
 10 19  1  0  0  0
 11 12  2  0  0  0
 12 13  1  0  0  0
 13 14  1  0  0  0
 13 19  2  0  0  0
 14 15  1  0  0  0
 14 16  2  0  0  0
 16 17  1  0  0  0
 17 18  2  0  0  0
 18 19  1  0  0  0
 26 28  1  0  0  0
 26 29  1  0  0  0
 32 33  1  0  0  0
  4  8  1  0  0  0
  6  9  1  0  0  0
 15 20  1  0  0  0
 15 21  1  0  0  0
M  END
> <minimizedAffinity>
-10.46987

$$$$
4YMH_SAH_A_1001


 33 35  0  0  0  0  0  0  0  0999 V2000
   40.8796  271.9295  162.3554 C   0  0  0  0  0  0  0  0  0  0  0  0
   40.9501  271.6142  163.7333 O   0  0  0  0  0  0  0  0  0  0  0  0
   41.6839  273.1958  162.1867 C   0  0  0  0  0  0  0  0  0  0  0  0
   40.8553  274.2732  161.8204 O   0  0  0  0  0  0  0  0  0  0  0  0
   42.2937  273.4416  163.5427 C   0  0  0  0  0  0  0  0  0  0  0  0
   42.4850  274.7897  163.8330 O   0  0  0  0  0  0  0  0  0  0  0  0
   41.3490  272.7342  164.4829 C   0  0  0  0  0  0  0  0  0  0  0  0
   40.1681  274.3961  162.4939 H   0  0  0  0  0  0  0  0  0  0  0  0
   41.6333  275.2525  163.7956 H   0  0  0  0  0  0  0  0  0  0  0  0
   41.9815  272.2901  165.7331 N   0  0  0  0  0  0  0  0  0  0  0  0
   43.0577  271.5385  165.8765 C   0  0  0  0  0  0  0  0  0  0  0  0
   43.3259  271.3375  167.1547 N   0  0  0  0  0  0  0  0  0  0  0  0
   42.4077  271.9618  167.8506 C   0  0  0  0  0  0  0  0  0  0  0  0
   42.0937  272.1463  169.2657 C   0  0  0  0  0  0  0  0  0  0  0  0
   42.8771  271.5932  170.1641 N   0  0  0  0  0  0  0  0  0  0  0  0
   41.0242  272.8614  169.6037 N   0  0  0  0  0  0  0  0  0  0  0  0
   40.2480  273.3939  168.6666 C   0  0  0  0  0  0  0  0  0  0  0  0
   40.4595  273.2678  167.3702 N   0  0  0  0  0  0  0  0  0  0  0  0
   41.5078  272.5743  166.9119 C   0  0  0  0  0  0  0  0  0  0  0  0
   43.6608  271.0701  169.8787 H   0  0  0  0  0  0  0  0  0  0  0  0
   42.6803  271.7019  171.1226 H   0  0  0  0  0  0  0  0  0  0  0  0
   41.4299  270.7674  161.5432 C   0  0  0  0  0  0  0  0  0  0  0  0
   42.9153  270.0879  162.1601 S   0  0  0  0  0  0  0  0  0  0  0  0
   43.4321  269.2818  160.6904 C   0  0  0  0  0  0  0  0  0  0  0  0
   42.2317  268.9112  159.8248 C   0  0  0  0  0  0  0  0  0  0  0  0
   43.4281  268.2082  157.8054 N   0  0  0  0  0  0  0  0  0  0  0  0
   42.4371  267.8260  158.7715 C   0  0  0  0  0  0  0  0  0  0  0  0
   44.3115  268.3945  158.2800 H   0  0  0  0  0  0  0  0  0  0  0  0
   43.1205  269.0493  157.3172 H   0  0  0  0  0  0  0  0  0  0  0  0
   41.1147  267.5413  158.1121 C   0  0  0  0  0  0  0  0  0  0  0  0
   41.0835  266.9501  157.0588 O   0  0  0  0  0  0  0  0  0  0  0  0
   40.0868  267.9075  158.6613 O   0  0  0  0  0  0  0  0  0  0  0  0
   40.1293  268.3649  159.4779 H   0  0  0  0  0  0  0  0  0  0  0  0
 26 27  1  0  0  0
 27 25  1  0  0  0
 27 30  1  0  0  0
 25 24  1  0  0  0
 24 23  1  0  0  0
 23 22  1  0  0  0
 30 31  2  0  0  0
 30 32  1  0  0  0
 22  1  1  0  0  0
  1  2  1  0  0  0
  1  3  1  0  0  0
  2  7  1  0  0  0
  3  4  1  0  0  0
  3  5  1  0  0  0
  5  6  1  0  0  0
  5  7  1  0  0  0
  7 10  1  0  0  0
 10 11  1  0  0  0
 10 19  1  0  0  0
 11 12  2  0  0  0
 12 13  1  0  0  0
 13 14  1  0  0  0
 13 19  2  0  0  0
 14 15  1  0  0  0
 14 16  2  0  0  0
 16 17  1  0  0  0
 17 18  2  0  0  0
 18 19  1  0  0  0
 26 28  1  0  0  0
 26 29  1  0  0  0
 32 33  1  0  0  0
  4  8  1  0  0  0
  6  9  1  0  0  0
 15 20  1  0  0  0
 15 21  1  0  0  0
M  END
> <minimizedAffinity>
-8.99209

$$$$
4YMH_SAH_A_1001


 33 35  0  0  0  0  0  0  0  0999 V2000
   42.6583  270.9123  162.5838 C   0  0  0  0  0  0  0  0  0  0  0  0
   42.6632  270.6699  163.9782 O   0  0  0  0  0  0  0  0  0  0  0  0
   42.4352  272.3975  162.4305 C   0  0  0  0  0  0  0  0  0  0  0  0
   41.1881  272.6600  161.8330 O   0  0  0  0  0  0  0  0  0  0  0  0
   42.4643  272.9330  163.8388 C   0  0  0  0  0  0  0  0  0  0  0  0
   41.6569  274.0514  164.0278 O   0  0  0  0  0  0  0  0  0  0  0  0
   42.0726  271.7388  164.6738 C   0  0  0  0  0  0  0  0  0  0  0  0
   40.4830  272.2656  162.3698 H   0  0  0  0  0  0  0  0  0  0  0  0
   40.7389  273.8283  163.8075 H   0  0  0  0  0  0  0  0  0  0  0  0
   42.5944  271.7808  166.0471 N   0  0  0  0  0  0  0  0  0  0  0  0
   43.7755  271.3792  166.4798 C   0  0  0  0  0  0  0  0  0  0  0  0
   43.8888  271.5649  167.7832 N   0  0  0  0  0  0  0  0  0  0  0  0
   42.7635  272.0885  168.2036 C   0  0  0  0  0  0  0  0  0  0  0  0
   42.2105  272.5233  169.4842 C   0  0  0  0  0  0  0  0  0  0  0  0
   42.9539  272.4162  170.5625 N   0  0  0  0  0  0  0  0  0  0  0  0
   40.9724  273.0082  169.5238 N   0  0  0  0  0  0  0  0  0  0  0  0
   40.2461  273.0884  168.4146 C   0  0  0  0  0  0  0  0  0  0  0  0
   40.6699  272.7113  167.2232 N   0  0  0  0  0  0  0  0  0  0  0  0
   41.9007  272.2125  167.0606 C   0  0  0  0  0  0  0  0  0  0  0  0
   43.8665  272.0527  170.4971 H   0  0  0  0  0  0  0  0  0  0  0  0
   42.5983  272.6995  171.4358 H   0  0  0  0  0  0  0  0  0  0  0  0
   43.9777  270.4482  161.9866 C   0  0  0  0  0  0  0  0  0  0  0  0
   43.8234  269.5113  160.5213 S   0  0  0  0  0  0  0  0  0  0  0  0
   42.2552  268.8026  160.8605 C   0  0  0  0  0  0  0  0  0  0  0  0
   41.2754  269.0867  159.7261 C   0  0  0  0  0  0  0  0  0  0  0  0
   39.0878  268.2316  159.0281 N   0  0  0  0  0  0  0  0  0  0  0  0
   39.7868  268.9703  160.0417 C   0  0  0  0  0  0  0  0  0  0  0  0
   39.4932  267.2991  158.9466 H   0  0  0  0  0  0  0  0  0  0  0  0
   39.1707  268.7176  158.1352 H   0  0  0  0  0  0  0  0  0  0  0  0
   39.2193  270.3556  160.1952 C   0  0  0  0  0  0  0  0  0  0  0  0
   39.8666  271.3126  159.8416 O   0  0  0  0  0  0  0  0  0  0  0  0
   38.1017  270.4898  160.6698 O   0  0  0  0  0  0  0  0  0  0  0  0
   37.6135  269.7367  160.9389 H   0  0  0  0  0  0  0  0  0  0  0  0
 26 27  1  0  0  0
 27 25  1  0  0  0
 27 30  1  0  0  0
 25 24  1  0  0  0
 24 23  1  0  0  0
 23 22  1  0  0  0
 30 31  2  0  0  0
 30 32  1  0  0  0
 22  1  1  0  0  0
  1  2  1  0  0  0
  1  3  1  0  0  0
  2  7  1  0  0  0
  3  4  1  0  0  0
  3  5  1  0  0  0
  5  6  1  0  0  0
  5  7  1  0  0  0
  7 10  1  0  0  0
 10 11  1  0  0  0
 10 19  1  0  0  0
 11 12  2  0  0  0
 12 13  1  0  0  0
 13 14  1  0  0  0
 13 19  2  0  0  0
 14 15  1  0  0  0
 14 16  2  0  0  0
 16 17  1  0  0  0
 17 18  2  0  0  0
 18 19  1  0  0  0
 26 28  1  0  0  0
 26 29  1  0  0  0
 32 33  1  0  0  0
  4  8  1  0  0  0
  6  9  1  0  0  0
 15 20  1  0  0  0
 15 21  1  0  0  0
M  END
> <minimizedAffinity>
-8.98987

$$$$
4YMH_SAH_A_1001


 33 35  0  0  0  0  0  0  0  0999 V2000
   42.9309  272.3786  163.9569 C   0  0  0  0  0  0  0  0  0  0  0  0
   42.5261  271.5921  162.8521 O   0  0  0  0  0  0  0  0  0  0  0  0
   41.9520  273.5262  164.0190 C   0  0  0  0  0  0  0  0  0  0  0  0
   42.5900  274.7478  163.7326 O   0  0  0  0  0  0  0  0  0  0  0  0
   40.9280  273.2093  162.9597 C   0  0  0  0  0  0  0  0  0  0  0  0
   40.3636  274.3387  162.3729 O   0  0  0  0  0  0  0  0  0  0  0  0
   41.6833  272.3246  161.9986 C   0  0  0  0  0  0  0  0  0  0  0  0
   43.0004  274.7004  162.8550 H   0  0  0  0  0  0  0  0  0  0  0  0
   41.0623  274.8758  161.9676 H   0  0  0  0  0  0  0  0  0  0  0  0
   40.8235  271.4014  161.2445 N   0  0  0  0  0  0  0  0  0  0  0  0
   39.5254  271.4983  161.0231 C   0  0  0  0  0  0  0  0  0  0  0  0
   39.0906  270.4742  160.3100 N   0  0  0  0  0  0  0  0  0  0  0  0
   40.1194  269.6987  160.0704 C   0  0  0  0  0  0  0  0  0  0  0  0
   40.3545  268.4353  159.3752 C   0  0  0  0  0  0  0  0  0  0  0  0
   39.3404  267.8368  158.7918 N   0  0  0  0  0  0  0  0  0  0  0  0
   41.5828  267.9249  159.3572 N   0  0  0  0  0  0  0  0  0  0  0  0
   42.5804  268.5522  159.9701 C   0  0  0  0  0  0  0  0  0  0  0  0
   42.4487  269.6909  160.6237 N   0  0  0  0  0  0  0  0  0  0  0  0
   41.2604  270.3003  160.7047 C   0  0  0  0  0  0  0  0  0  0  0  0
   38.4441  268.2428  158.8246 H   0  0  0  0  0  0  0  0  0  0  0  0
   39.4770  266.9825  158.3219 H   0  0  0  0  0  0  0  0  0  0  0  0
   42.9204  271.5244  165.2151 C   0  0  0  0  0  0  0  0  0  0  0  0
   44.4955  271.2337  165.9102 S   0  0  0  0  0  0  0  0  0  0  0  0
   44.0733  271.5422  167.5844 C   0  0  0  0  0  0  0  0  0  0  0  0
   42.5948  271.8956  167.7141 C   0  0  0  0  0  0  0  0  0  0  0  0
   42.1863  271.5889  170.1105 N   0  0  0  0  0  0  0  0  0  0  0  0
   42.1392  272.5287  169.0259 C   0  0  0  0  0  0  0  0  0  0  0  0
   43.1379  271.2366  170.2141 H   0  0  0  0  0  0  0  0  0  0  0  0
   41.5554  270.8117  169.9145 H   0  0  0  0  0  0  0  0  0  0  0  0
   40.7495  273.0745  168.8379 C   0  0  0  0  0  0  0  0  0  0  0  0
   40.2622  273.7828  169.6869 O   0  0  0  0  0  0  0  0  0  0  0  0
   40.1362  272.7977  167.8184 O   0  0  0  0  0  0  0  0  0  0  0  0
   40.5292  272.2469  167.1702 H   0  0  0  0  0  0  0  0  0  0  0  0
 26 27  1  0  0  0
 27 25  1  0  0  0
 27 30  1  0  0  0
 25 24  1  0  0  0
 24 23  1  0  0  0
 23 22  1  0  0  0
 30 31  2  0  0  0
 30 32  1  0  0  0
 22  1  1  0  0  0
  1  2  1  0  0  0
  1  3  1  0  0  0
  2  7  1  0  0  0
  3  4  1  0  0  0
  3  5  1  0  0  0
  5  6  1  0  0  0
  5  7  1  0  0  0
  7 10  1  0  0  0
 10 11  1  0  0  0
 10 19  1  0  0  0
 11 12  2  0  0  0
 12 13  1  0  0  0
 13 14  1  0  0  0
 13 19  2  0  0  0
 14 15  1  0  0  0
 14 16  2  0  0  0
 16 17  1  0  0  0
 17 18  2  0  0  0
 18 19  1  0  0  0
 26 28  1  0  0  0
 26 29  1  0  0  0
 32 33  1  0  0  0
  4  8  1  0  0  0
  6  9  1  0  0  0
 15 20  1  0  0  0
 15 21  1  0  0  0
M  END
> <minimizedAffinity>
-8.95031

$$$$
4YMH_SAH_A_1001


 33 35  0  0  0  0  0  0  0  0999 V2000
   40.3160  272.4521  162.9831 C   0  0  0  0  0  0  0  0  0  0  0  0
   41.1769  271.4022  163.3828 O   0  0  0  0  0  0  0  0  0  0  0  0
   41.2006  273.4627  162.2939 C   0  0  0  0  0  0  0  0  0  0  0  0
   41.2680  274.6591  163.0325 O   0  0  0  0  0  0  0  0  0  0  0  0
   42.5554  272.8052  162.2373 C   0  0  0  0  0  0  0  0  0  0  0  0
   43.6159  273.7058  162.2898 O   0  0  0  0  0  0  0  0  0  0  0  0
   42.5164  271.8275  163.3861 C   0  0  0  0  0  0  0  0  0  0  0  0
   41.6007  274.4704  163.9239 H   0  0  0  0  0  0  0  0  0  0  0  0
   43.5629  274.2201  163.1105 H   0  0  0  0  0  0  0  0  0  0  0  0
   43.4016  270.6682  163.2060 N   0  0  0  0  0  0  0  0  0  0  0  0
   43.2120  269.6137  162.4342 C   0  0  0  0  0  0  0  0  0  0  0  0
   44.2212  268.7666  162.5364 N   0  0  0  0  0  0  0  0  0  0  0  0
   45.0746  269.2752  163.3908 C   0  0  0  0  0  0  0  0  0  0  0  0
   46.3590  268.8826  163.9663 C   0  0  0  0  0  0  0  0  0  0  0  0
   46.8975  267.7439  163.5920 N   0  0  0  0  0  0  0  0  0  0  0  0
   46.9424  269.6831  164.8542 N   0  0  0  0  0  0  0  0  0  0  0  0
   46.3607  270.8203  165.2183 C   0  0  0  0  0  0  0  0  0  0  0  0
   45.2009  271.2415  164.7509 N   0  0  0  0  0  0  0  0  0  0  0  0
   44.5242  270.5216  163.8488 C   0  0  0  0  0  0  0  0  0  0  0  0
   46.4382  267.1755  162.9323 H   0  0  0  0  0  0  0  0  0  0  0  0
   47.7603  267.4591  163.9712 H   0  0  0  0  0  0  0  0  0  0  0  0
   39.2324  271.8966  162.0719 C   0  0  0  0  0  0  0  0  0  0  0  0
   39.8275  271.0808  160.6475 S   0  0  0  0  0  0  0  0  0  0  0  0
   38.5824  271.6158  159.5338 C   0  0  0  0  0  0  0  0  0  0  0  0
   37.1992  271.2046  160.0293 C   0  0  0  0  0  0  0  0  0  0  0  0
   34.9955  272.2136  160.3887 N   0  0  0  0  0  0  0  0  0  0  0  0
   35.9956  271.9057  159.4056 C   0  0  0  0  0  0  0  0  0  0  0  0
   35.4007  272.8091  161.1109 H   0  0  0  0  0  0  0  0  0  0  0  0
   34.6567  271.3493  160.8113 H   0  0  0  0  0  0  0  0  0  0  0  0
   35.4387  271.0266  158.3186 C   0  0  0  0  0  0  0  0  0  0  0  0
   34.4669  271.3839  157.6957 O   0  0  0  0  0  0  0  0  0  0  0  0
   35.9877  269.9625  158.0764 O   0  0  0  0  0  0  0  0  0  0  0  0
   36.7404  269.7009  158.5693 H   0  0  0  0  0  0  0  0  0  0  0  0
 26 27  1  0  0  0
 27 25  1  0  0  0
 27 30  1  0  0  0
 25 24  1  0  0  0
 24 23  1  0  0  0
 23 22  1  0  0  0
 30 31  2  0  0  0
 30 32  1  0  0  0
 22  1  1  0  0  0
  1  2  1  0  0  0
  1  3  1  0  0  0
  2  7  1  0  0  0
  3  4  1  0  0  0
  3  5  1  0  0  0
  5  6  1  0  0  0
  5  7  1  0  0  0
  7 10  1  0  0  0
 10 11  1  0  0  0
 10 19  1  0  0  0
 11 12  2  0  0  0
 12 13  1  0  0  0
 13 14  1  0  0  0
 13 19  2  0  0  0
 14 15  1  0  0  0
 14 16  2  0  0  0
 16 17  1  0  0  0
 17 18  2  0  0  0
 18 19  1  0  0  0
 26 28  1  0  0  0
 26 29  1  0  0  0
 32 33  1  0  0  0
  4  8  1  0  0  0
  6  9  1  0  0  0
 15 20  1  0  0  0
 15 21  1  0  0  0
M  END
> <minimizedAffinity>
-8.80982

$$$$
4YMH_SAH_A_1001


 33 35  0  0  0  0  0  0  0  0999 V2000
   43.9872  270.8573  164.2414 C   0  0  0  0  0  0  0  0  0  0  0  0
   43.1013  269.9825  163.5683 O   0  0  0  0  0  0  0  0  0  0  0  0
   45.0273  271.2477  163.2192 C   0  0  0  0  0  0  0  0  0  0  0  0
   46.2910  270.7336  163.5654 O   0  0  0  0  0  0  0  0  0  0  0  0
   44.5452  270.6297  161.9321 C   0  0  0  0  0  0  0  0  0  0  0  0
   45.5740  270.2663  161.0673 O   0  0  0  0  0  0  0  0  0  0  0  0
   43.6918  269.4757  162.3980 C   0  0  0  0  0  0  0  0  0  0  0  0
   46.2374  269.7681  163.6417 H   0  0  0  0  0  0  0  0  0  0  0  0
   46.1578  269.6297  161.5089 H   0  0  0  0  0  0  0  0  0  0  0  0
   42.6423  269.0932  161.4428 N   0  0  0  0  0  0  0  0  0  0  0  0
   41.3371  269.0600  161.6405 C   0  0  0  0  0  0  0  0  0  0  0  0
   40.7052  268.6561  160.5524 N   0  0  0  0  0  0  0  0  0  0  0  0
   41.6129  268.4179  159.6378 C   0  0  0  0  0  0  0  0  0  0  0  0
   41.6250  267.9493  158.2539 C   0  0  0  0  0  0  0  0  0  0  0  0
   40.4803  267.6745  157.6699 N   0  0  0  0  0  0  0  0  0  0  0  0
   42.7903  267.8088  157.6280 N   0  0  0  0  0  0  0  0  0  0  0  0
   43.9280  268.0836  158.2559 C   0  0  0  0  0  0  0  0  0  0  0  0
   44.0018  268.5041  159.5045 N   0  0  0  0  0  0  0  0  0  0  0  0
   42.8939  268.6870  160.2319 C   0  0  0  0  0  0  0  0  0  0  0  0
   39.6360  267.7898  158.1629 H   0  0  0  0  0  0  0  0  0  0  0  0
   40.4671  267.3533  156.7394 H   0  0  0  0  0  0  0  0  0  0  0  0
   43.2091  272.0490  164.7774 C   0  0  0  0  0  0  0  0  0  0  0  0
   41.4864  271.9762  164.5021 S   0  0  0  0  0  0  0  0  0  0  0  0
   40.9916  272.9898  165.8455 C   0  0  0  0  0  0  0  0  0  0  0  0
   41.5571  272.4612  167.1601 C   0  0  0  0  0  0  0  0  0  0  0  0
   39.2564  272.7094  167.9657 N   0  0  0  0  0  0  0  0  0  0  0  0
   40.5856  272.3034  168.3265 C   0  0  0  0  0  0  0  0  0  0  0  0
   38.9335  272.1520  167.1749 H   0  0  0  0  0  0  0  0  0  0  0  0
   39.2608  273.6961  167.7069 H   0  0  0  0  0  0  0  0  0  0  0  0
   41.1018  273.1028  169.4923 C   0  0  0  0  0  0  0  0  0  0  0  0
   42.1743  272.8321  169.9786 O   0  0  0  0  0  0  0  0  0  0  0  0
   40.4270  274.0246  169.9249 O   0  0  0  0  0  0  0  0  0  0  0  0
   39.5975  274.2209  169.5358 H   0  0  0  0  0  0  0  0  0  0  0  0
 26 27  1  0  0  0
 27 25  1  0  0  0
 27 30  1  0  0  0
 25 24  1  0  0  0
 24 23  1  0  0  0
 23 22  1  0  0  0
 30 31  2  0  0  0
 30 32  1  0  0  0
 22  1  1  0  0  0
  1  2  1  0  0  0
  1  3  1  0  0  0
  2  7  1  0  0  0
  3  4  1  0  0  0
  3  5  1  0  0  0
  5  6  1  0  0  0
  5  7  1  0  0  0
  7 10  1  0  0  0
 10 11  1  0  0  0
 10 19  1  0  0  0
 11 12  2  0  0  0
 12 13  1  0  0  0
 13 14  1  0  0  0
 13 19  2  0  0  0
 14 15  1  0  0  0
 14 16  2  0  0  0
 16 17  1  0  0  0
 17 18  2  0  0  0
 18 19  1  0  0  0
 26 28  1  0  0  0
 26 29  1  0  0  0
 32 33  1  0  0  0
  4  8  1  0  0  0
  6  9  1  0  0  0
 15 20  1  0  0  0
 15 21  1  0  0  0
M  END
> <minimizedAffinity>
-8.79571

$$$$
4YMH_SAH_A_1001


 33 35  0  0  0  0  0  0  0  0999 V2000
   41.5587  271.8617  161.0150 C   0  0  0  0  0  0  0  0  0  0  0  0
   41.5359  272.5090  162.2734 O   0  0  0  0  0  0  0  0  0  0  0  0
   41.9700  270.4370  161.2984 C   0  0  0  0  0  0  0  0  0  0  0  0
   43.2348  270.1592  160.7468 O   0  0  0  0  0  0  0  0  0  0  0  0
   42.0236  270.3494  162.8019 C   0  0  0  0  0  0  0  0  0  0  0  0
   42.9703  269.4449  163.2752 O   0  0  0  0  0  0  0  0  0  0  0  0
   42.2661  271.7773  163.2256 C   0  0  0  0  0  0  0  0  0  0  0  0
   43.8883  270.7782  161.1083 H   0  0  0  0  0  0  0  0  0  0  0  0
   43.8497  269.7002  162.9552 H   0  0  0  0  0  0  0  0  0  0  0  0
   41.7671  272.0870  164.5729 N   0  0  0  0  0  0  0  0  0  0  0  0
   40.5968  272.5986  164.9079 C   0  0  0  0  0  0  0  0  0  0  0  0
   40.5040  272.7466  166.2178 N   0  0  0  0  0  0  0  0  0  0  0  0
   41.6319  272.3313  166.7398 C   0  0  0  0  0  0  0  0  0  0  0  0
   42.2028  272.2245  168.0806 C   0  0  0  0  0  0  0  0  0  0  0  0
   41.4785  272.6073  169.1081 N   0  0  0  0  0  0  0  0  0  0  0  0
   43.4373  271.7499  168.2228 N   0  0  0  0  0  0  0  0  0  0  0  0
   44.1441  271.3855  167.1588 C   0  0  0  0  0  0  0  0  0  0  0  0
   43.7034  271.4573  165.9171 N   0  0  0  0  0  0  0  0  0  0  0  0
   42.4742  271.9144  165.6522 C   0  0  0  0  0  0  0  0  0  0  0  0
   40.5680  272.9540  168.9667 H   0  0  0  0  0  0  0  0  0  0  0  0
   41.8465  272.5475  170.0193 H   0  0  0  0  0  0  0  0  0  0  0  0
   40.1848  271.9630  160.3707 C   0  0  0  0  0  0  0  0  0  0  0  0
   38.8495  271.6565  161.4531 S   0  0  0  0  0  0  0  0  0  0  0  0
   37.7123  271.0590  160.2588 C   0  0  0  0  0  0  0  0  0  0  0  0
   36.4155  271.8619  160.2960 C   0  0  0  0  0  0  0  0  0  0  0  0
   35.8669  270.6415  158.2433 N   0  0  0  0  0  0  0  0  0  0  0  0
   35.3545  271.5261  159.2516 C   0  0  0  0  0  0  0  0  0  0  0  0
   36.1983  269.7821  158.6815 H   0  0  0  0  0  0  0  0  0  0  0  0
   36.6397  271.0940  157.7549 H   0  0  0  0  0  0  0  0  0  0  0  0
   34.8537  272.8098  158.6467 C   0  0  0  0  0  0  0  0  0  0  0  0
   35.3061  273.1949  157.5946 O   0  0  0  0  0  0  0  0  0  0  0  0
   33.9852  273.4411  159.2294 O   0  0  0  0  0  0  0  0  0  0  0  0
   33.6455  273.1279  160.0445 H   0  0  0  0  0  0  0  0  0  0  0  0
 26 27  1  0  0  0
 27 25  1  0  0  0
 27 30  1  0  0  0
 25 24  1  0  0  0
 24 23  1  0  0  0
 23 22  1  0  0  0
 30 31  2  0  0  0
 30 32  1  0  0  0
 22  1  1  0  0  0
  1  2  1  0  0  0
  1  3  1  0  0  0
  2  7  1  0  0  0
  3  4  1  0  0  0
  3  5  1  0  0  0
  5  6  1  0  0  0
  5  7  1  0  0  0
  7 10  1  0  0  0
 10 11  1  0  0  0
 10 19  1  0  0  0
 11 12  2  0  0  0
 12 13  1  0  0  0
 13 14  1  0  0  0
 13 19  2  0  0  0
 14 15  1  0  0  0
 14 16  2  0  0  0
 16 17  1  0  0  0
 17 18  2  0  0  0
 18 19  1  0  0  0
 26 28  1  0  0  0
 26 29  1  0  0  0
 32 33  1  0  0  0
  4  8  1  0  0  0
  6  9  1  0  0  0
 15 20  1  0  0  0
 15 21  1  0  0  0
M  END
> <minimizedAffinity>
-8.51678

$$$$
4YMH_SAH_A_1001


 33 35  0  0  0  0  0  0  0  0999 V2000
   40.1794  271.6421  163.1273 C   0  0  0  0  0  0  0  0  0  0  0  0
   40.9727  270.6793  162.4588 O   0  0  0  0  0  0  0  0  0  0  0  0
   41.1542  272.6293  163.7225 C   0  0  0  0  0  0  0  0  0  0  0  0
   41.1323  272.5725  165.1288 O   0  0  0  0  0  0  0  0  0  0  0  0
   42.4999  272.1948  163.2018 C   0  0  0  0  0  0  0  0  0  0  0  0
   43.5506  272.4671  164.0737 O   0  0  0  0  0  0  0  0  0  0  0  0
   42.3032  270.7275  162.9093 C   0  0  0  0  0  0  0  0  0  0  0  0
   41.3434  271.6715  165.4194 H   0  0  0  0  0  0  0  0  0  0  0  0
   43.3938  272.0183  164.9192 H   0  0  0  0  0  0  0  0  0  0  0  0
   43.1961  270.2082  161.8638 N   0  0  0  0  0  0  0  0  0  0  0  0
   44.5068  270.3413  161.7754 C   0  0  0  0  0  0  0  0  0  0  0  0
   44.9694  269.7463  160.6899 N   0  0  0  0  0  0  0  0  0  0  0  0
   43.9442  269.2252  160.0617 C   0  0  0  0  0  0  0  0  0  0  0  0
   43.7298  268.4645  158.8328 C   0  0  0  0  0  0  0  0  0  0  0  0
   44.7695  268.1578  158.0899 N   0  0  0  0  0  0  0  0  0  0  0  0
   42.4921  268.1099  158.4984 N   0  0  0  0  0  0  0  0  0  0  0  0
   41.4643  268.4501  159.2679 C   0  0  0  0  0  0  0  0  0  0  0  0
   41.5738  269.1404  160.3871 N   0  0  0  0  0  0  0  0  0  0  0  0
   42.7703  269.5474  160.8261 C   0  0  0  0  0  0  0  0  0  0  0  0
   45.6721  268.4363  158.3675 H   0  0  0  0  0  0  0  0  0  0  0  0
   44.6458  267.6496  157.2559 H   0  0  0  0  0  0  0  0  0  0  0  0
   39.2213  272.2829  162.1352 C   0  0  0  0  0  0  0  0  0  0  0  0
   39.4769  271.8167  160.4721 S   0  0  0  0  0  0  0  0  0  0  0  0
   38.0216  270.8584  160.2711 C   0  0  0  0  0  0  0  0  0  0  0  0
   37.0426  271.5512  159.3282 C   0  0  0  0  0  0  0  0  0  0  0  0
   35.1023  271.0281  160.7301 N   0  0  0  0  0  0  0  0  0  0  0  0
   35.7248  272.0396  159.9233 C   0  0  0  0  0  0  0  0  0  0  0  0
   35.7356  270.7551  161.4816 H   0  0  0  0  0  0  0  0  0  0  0  0
   34.8902  270.2149  160.1520 H   0  0  0  0  0  0  0  0  0  0  0  0
   34.8222  272.4722  158.7997 C   0  0  0  0  0  0  0  0  0  0  0  0
   34.8957  271.9247  157.7251 O   0  0  0  0  0  0  0  0  0  0  0  0
   34.0179  273.3704  158.9968 O   0  0  0  0  0  0  0  0  0  0  0  0
   33.9743  273.7842  159.8364 H   0  0  0  0  0  0  0  0  0  0  0  0
 26 27  1  0  0  0
 27 25  1  0  0  0
 27 30  1  0  0  0
 25 24  1  0  0  0
 24 23  1  0  0  0
 23 22  1  0  0  0
 30 31  2  0  0  0
 30 32  1  0  0  0
 22  1  1  0  0  0
  1  2  1  0  0  0
  1  3  1  0  0  0
  2  7  1  0  0  0
  3  4  1  0  0  0
  3  5  1  0  0  0
  5  6  1  0  0  0
  5  7  1  0  0  0
  7 10  1  0  0  0
 10 11  1  0  0  0
 10 19  1  0  0  0
 11 12  2  0  0  0
 12 13  1  0  0  0
 13 14  1  0  0  0
 13 19  2  0  0  0
 14 15  1  0  0  0
 14 16  2  0  0  0
 16 17  1  0  0  0
 17 18  2  0  0  0
 18 19  1  0  0  0
 26 28  1  0  0  0
 26 29  1  0  0  0
 32 33  1  0  0  0
  4  8  1  0  0  0
  6  9  1  0  0  0
 15 20  1  0  0  0
 15 21  1  0  0  0
M  END
> <minimizedAffinity>
-8.51539

$$$$
4YMH_SAH_A_1001


 33 35  0  0  0  0  0  0  0  0999 V2000
   41.8390  272.0639  161.9328 C   0  0  0  0  0  0  0  0  0  0  0  0
   42.2236  272.4898  163.2265 O   0  0  0  0  0  0  0  0  0  0  0  0
   42.2832  270.6247  161.8301 C   0  0  0  0  0  0  0  0  0  0  0  0
   43.3073  270.4811  160.8752 O   0  0  0  0  0  0  0  0  0  0  0  0
   42.7987  270.2876  163.2055 C   0  0  0  0  0  0  0  0  0  0  0  0
   43.8232  269.3449  163.2024 O   0  0  0  0  0  0  0  0  0  0  0  0
   43.1953  271.6306  163.7678 C   0  0  0  0  0  0  0  0  0  0  0  0
   44.0555  271.0498  161.1154 H   0  0  0  0  0  0  0  0  0  0  0  0
   44.5658  269.6762  162.6735 H   0  0  0  0  0  0  0  0  0  0  0  0
   43.1467  271.6947  165.2353 N   0  0  0  0  0  0  0  0  0  0  0  0
   44.0791  271.3283  166.0956 C   0  0  0  0  0  0  0  0  0  0  0  0
   43.6771  271.5244  167.3391 N   0  0  0  0  0  0  0  0  0  0  0  0
   42.4648  272.0191  167.2855 C   0  0  0  0  0  0  0  0  0  0  0  0
   41.4512  272.4456  168.2476 C   0  0  0  0  0  0  0  0  0  0  0  0
   41.7242  272.3651  169.5305 N   0  0  0  0  0  0  0  0  0  0  0  0
   40.2825  272.8963  167.7999 N   0  0  0  0  0  0  0  0  0  0  0  0
   40.0379  272.9502  166.4955 C   0  0  0  0  0  0  0  0  0  0  0  0
   40.8965  272.5782  165.5651 N   0  0  0  0  0  0  0  0  0  0  0  0
   42.1063  272.1128  165.8967 C   0  0  0  0  0  0  0  0  0  0  0  0
   42.5998  272.0266  169.8272 H   0  0  0  0  0  0  0  0  0  0  0  0
   41.0531  272.6434  170.1950 H   0  0  0  0  0  0  0  0  0  0  0  0
   40.3359  272.2312  161.7728 C   0  0  0  0  0  0  0  0  0  0  0  0
   39.6220  271.2378  160.5269 S   0  0  0  0  0  0  0  0  0  0  0  0
   37.9399  271.5383  160.9230 C   0  0  0  0  0  0  0  0  0  0  0  0
   37.0631  271.4329  159.6789 C   0  0  0  0  0  0  0  0  0  0  0  0
   35.0046  271.1085  160.9676 N   0  0  0  0  0  0  0  0  0  0  0  0
   35.5837  271.7739  159.8347 C   0  0  0  0  0  0  0  0  0  0  0  0
   35.5075  271.3772  161.8134 H   0  0  0  0  0  0  0  0  0  0  0  0
   35.0704  270.0988  160.8392 H   0  0  0  0  0  0  0  0  0  0  0  0
   34.8698  271.4047  158.5625 C   0  0  0  0  0  0  0  0  0  0  0  0
   33.9575  272.0898  158.1648 O   0  0  0  0  0  0  0  0  0  0  0  0
   35.2332  270.4161  157.9436 O   0  0  0  0  0  0  0  0  0  0  0  0
   35.9426  269.8959  158.2664 H   0  0  0  0  0  0  0  0  0  0  0  0
 26 27  1  0  0  0
 27 25  1  0  0  0
 27 30  1  0  0  0
 25 24  1  0  0  0
 24 23  1  0  0  0
 23 22  1  0  0  0
 30 31  2  0  0  0
 30 32  1  0  0  0
 22  1  1  0  0  0
  1  2  1  0  0  0
  1  3  1  0  0  0
  2  7  1  0  0  0
  3  4  1  0  0  0
  3  5  1  0  0  0
  5  6  1  0  0  0
  5  7  1  0  0  0
  7 10  1  0  0  0
 10 11  1  0  0  0
 10 19  1  0  0  0
 11 12  2  0  0  0
 12 13  1  0  0  0
 13 14  1  0  0  0
 13 19  2  0  0  0
 14 15  1  0  0  0
 14 16  2  0  0  0
 16 17  1  0  0  0
 17 18  2  0  0  0
 18 19  1  0  0  0
 26 28  1  0  0  0
 26 29  1  0  0  0
 32 33  1  0  0  0
  4  8  1  0  0  0
  6  9  1  0  0  0
 15 20  1  0  0  0
 15 21  1  0  0  0
M  END
> <minimizedAffinity>
-8.49608

$$$$
4YMH_SAH_A_1001


 33 35  0  0  0  0  0  0  0  0999 V2000
   44.3825  271.6838  163.9817 C   0  0  0  0  0  0  0  0  0  0  0  0
   43.1496  271.3665  163.3632 O   0  0  0  0  0  0  0  0  0  0  0  0
   44.6283  273.1411  163.6736 C   0  0  0  0  0  0  0  0  0  0  0  0
   45.7442  273.2958  162.8297 O   0  0  0  0  0  0  0  0  0  0  0  0
   43.3746  273.5977  162.9731 C   0  0  0  0  0  0  0  0  0  0  0  0
   43.5927  274.6069  162.0392 O   0  0  0  0  0  0  0  0  0  0  0  0
   42.8185  272.3228  162.3879 C   0  0  0  0  0  0  0  0  0  0  0  0
   45.6017  272.7962  162.0105 H   0  0  0  0  0  0  0  0  0  0  0  0
   44.2189  274.2956  161.3670 H   0  0  0  0  0  0  0  0  0  0  0  0
   41.3616  272.3466  162.1962 N   0  0  0  0  0  0  0  0  0  0  0  0
   40.4854  273.1766  162.7318 C   0  0  0  0  0  0  0  0  0  0  0  0
   39.2582  272.8875  162.3356 N   0  0  0  0  0  0  0  0  0  0  0  0
   39.3382  271.8518  161.5369 C   0  0  0  0  0  0  0  0  0  0  0  0
   38.4032  271.0257  160.7764 C   0  0  0  0  0  0  0  0  0  0  0  0
   37.1219  271.3134  160.8253 N   0  0  0  0  0  0  0  0  0  0  0  0
   38.8726  270.0058  160.0631 N   0  0  0  0  0  0  0  0  0  0  0  0
   40.1734  269.7375  160.0491 C   0  0  0  0  0  0  0  0  0  0  0  0
   41.0795  270.4302  160.7127 N   0  0  0  0  0  0  0  0  0  0  0  0
   40.7250  271.4815  161.4606 C   0  0  0  0  0  0  0  0  0  0  0  0
   36.8087  272.0759  161.3636 H   0  0  0  0  0  0  0  0  0  0  0  0
   36.4751  270.7664  160.3236 H   0  0  0  0  0  0  0  0  0  0  0  0
   44.2854  271.4034  165.4733 C   0  0  0  0  0  0  0  0  0  0  0  0
   42.6724  271.5187  166.1316 S   0  0  0  0  0  0  0  0  0  0  0  0
   43.1212  271.8508  167.7944 C   0  0  0  0  0  0  0  0  0  0  0  0
   41.8886  271.8798  168.6929 C   0  0  0  0  0  0  0  0  0  0  0  0
   41.1359  273.7879  170.0334 N   0  0  0  0  0  0  0  0  0  0  0  0
   41.0842  273.1761  168.7354 C   0  0  0  0  0  0  0  0  0  0  0  0
   42.1067  273.9806  170.2799 H   0  0  0  0  0  0  0  0  0  0  0  0
   40.7288  273.1565  170.7233 H   0  0  0  0  0  0  0  0  0  0  0  0
   39.6663  272.8742  168.3316 C   0  0  0  0  0  0  0  0  0  0  0  0
   39.4439  272.3470  167.2674 O   0  0  0  0  0  0  0  0  0  0  0  0
   38.7577  273.1611  169.0961 O   0  0  0  0  0  0  0  0  0  0  0  0
   38.9481  273.5696  169.9176 H   0  0  0  0  0  0  0  0  0  0  0  0
 26 27  1  0  0  0
 27 25  1  0  0  0
 27 30  1  0  0  0
 25 24  1  0  0  0
 24 23  1  0  0  0
 23 22  1  0  0  0
 30 31  2  0  0  0
 30 32  1  0  0  0
 22  1  1  0  0  0
  1  2  1  0  0  0
  1  3  1  0  0  0
  2  7  1  0  0  0
  3  4  1  0  0  0
  3  5  1  0  0  0
  5  6  1  0  0  0
  5  7  1  0  0  0
  7 10  1  0  0  0
 10 11  1  0  0  0
 10 19  1  0  0  0
 11 12  2  0  0  0
 12 13  1  0  0  0
 13 14  1  0  0  0
 13 19  2  0  0  0
 14 15  1  0  0  0
 14 16  2  0  0  0
 16 17  1  0  0  0
 17 18  2  0  0  0
 18 19  1  0  0  0
 26 28  1  0  0  0
 26 29  1  0  0  0
 32 33  1  0  0  0
  4  8  1  0  0  0
  6  9  1  0  0  0
 15 20  1  0  0  0
 15 21  1  0  0  0
M  END
> <minimizedAffinity>
-8.40842

$$$$
