4B7J_G39_A_1470


 24 24  0  0  0  0  0  0  0  0999 V2000
   30.5353   -9.6081   15.6587 C   0  0  0  0  0  0  0  0  0  0  0  0
   31.4902   -8.5416   15.2020 C   0  0  0  0  0  0  0  0  0  0  0  0
   31.2870   -8.0300   13.8107 C   0  0  0  0  0  0  0  0  0  0  0  0
   29.8673   -8.1311   13.3735 C   0  0  0  0  0  0  0  0  0  0  0  0
   29.4228   -9.5574   13.3417 C   0  0  0  0  0  0  0  0  0  0  0  0
   29.7588  -10.3197   14.5848 C   0  0  0  0  0  0  0  0  0  0  0  0
   31.7180   -6.6389   13.7346 N   0  0  0  0  0  0  0  0  0  0  0  0
   31.1500   -6.0721   14.3643 H   0  0  0  0  0  0  0  0  0  0  0  0
   31.6068   -6.3003   12.7788 H   0  0  0  0  0  0  0  0  0  0  0  0
   29.7391   -7.5867   12.0252 N   0  0  0  0  0  0  0  0  0  0  0  0
   28.7329   -6.6003   11.7071 C   0  0  0  0  0  0  0  0  0  0  0  0
   27.9707   -6.1994   12.5680 O   0  0  0  0  0  0  0  0  0  0  0  0
   28.6377   -6.0704   10.2988 C   0  0  0  0  0  0  0  0  0  0  0  0
   30.3503   -7.8979   11.3189 H   0  0  0  0  0  0  0  0  0  0  0  0
   31.3017  -10.6708   16.4320 C   0  0  0  0  0  0  0  0  0  0  0  0
   30.7514  -11.7526   16.7441 O   0  0  0  0  0  0  0  0  0  0  0  0
   32.5014  -10.4543   16.7699 O   0  0  0  0  0  0  0  0  0  0  0  0
   32.9150   -9.6462   16.5377 H   0  0  0  0  0  0  0  0  0  0  0  0
   28.0381   -9.6244   13.1037 O   0  0  0  0  0  0  0  0  0  0  0  0
   27.1450   -9.8364   14.1734 C   0  0  0  0  0  0  0  0  0  0  0  0
   26.4453   -8.5713   14.6701 C   0  0  0  0  0  0  0  0  0  0  0  0
   24.9941   -8.6738   15.0473 C   0  0  0  0  0  0  0  0  0  0  0  0
   26.2041  -11.0061   13.9413 C   0  0  0  0  0  0  0  0  0  0  0  0
   26.6269  -12.3448   14.4907 C   0  0  0  0  0  0  0  0  0  0  0  0
 15 16  2  0  0  0
 15 17  1  0  0  0
 15  1  1  0  0  0
  1  2  1  0  0  0
  1  6  2  0  0  0
  2  3  1  0  0  0
  3  4  1  0  0  0
  3  7  1  0  0  0
  4 10  1  0  0  0
  4  5  1  0  0  0
 10 11  1  0  0  0
 11 12  2  0  0  0
 11 13  1  0  0  0
  5  6  1  0  0  0
  5 19  1  0  0  0
 19 20  1  0  0  0
 20 21  1  0  0  0
 20 23  1  0  0  0
 21 22  1  0  0  0
 23 24  1  0  0  0
 17 18  1  0  0  0
 10 14  1  0  0  0
  7  8  1  0  0  0
  7  9  1  0  0  0
M  END
> <minimizedAffinity>
-6.90589

$$$$
4B7J_G39_A_1470


 24 24  0  0  0  0  0  0  0  0999 V2000
   29.4699   -7.0222   12.0297 C   0  0  0  0  0  0  0  0  0  0  0  0
   30.8735   -6.9596   12.5624 C   0  0  0  0  0  0  0  0  0  0  0  0
   31.1459   -7.7668   13.7924 C   0  0  0  0  0  0  0  0  0  0  0  0
   30.2607   -8.9599   13.8924 C   0  0  0  0  0  0  0  0  0  0  0  0
   28.8276   -8.5494   13.9953 C   0  0  0  0  0  0  0  0  0  0  0  0
   28.4164   -7.5395   12.9705 C   0  0  0  0  0  0  0  0  0  0  0  0
   32.5391   -8.1975   13.7947 N   0  0  0  0  0  0  0  0  0  0  0  0
   32.7128   -8.7913   12.9838 H   0  0  0  0  0  0  0  0  0  0  0  0
   32.7314   -8.7224   14.6479 H   0  0  0  0  0  0  0  0  0  0  0  0
   30.6033   -9.7138   15.0945 N   0  0  0  0  0  0  0  0  0  0  0  0
   30.8774  -11.1309   15.0385 C   0  0  0  0  0  0  0  0  0  0  0  0
   30.8312  -11.7248   13.9764 O   0  0  0  0  0  0  0  0  0  0  0  0
   31.2235  -11.8667   16.3081 C   0  0  0  0  0  0  0  0  0  0  0  0
   30.6484   -9.2473   15.9603 H   0  0  0  0  0  0  0  0  0  0  0  0
   29.0346   -5.6303   11.5963 C   0  0  0  0  0  0  0  0  0  0  0  0
   29.7142   -4.9791   10.7688 O   0  0  0  0  0  0  0  0  0  0  0  0
   27.9827   -5.1243   12.0840 O   0  0  0  0  0  0  0  0  0  0  0  0
   27.4730   -5.6092   12.7029 H   0  0  0  0  0  0  0  0  0  0  0  0
   27.9959   -9.6805   13.9073 O   0  0  0  0  0  0  0  0  0  0  0  0
   27.1722  -10.0400   14.9930 C   0  0  0  0  0  0  0  0  0  0  0  0
   26.2506   -8.9227   15.4817 C   0  0  0  0  0  0  0  0  0  0  0  0
   24.8710   -8.8418   14.8910 C   0  0  0  0  0  0  0  0  0  0  0  0
   26.4682  -11.3710   14.7919 C   0  0  0  0  0  0  0  0  0  0  0  0
   27.3296  -12.5534   14.4277 C   0  0  0  0  0  0  0  0  0  0  0  0
 15 16  2  0  0  0
 15 17  1  0  0  0
 15  1  1  0  0  0
  1  2  1  0  0  0
  1  6  2  0  0  0
  2  3  1  0  0  0
  3  4  1  0  0  0
  3  7  1  0  0  0
  4 10  1  0  0  0
  4  5  1  0  0  0
 10 11  1  0  0  0
 11 12  2  0  0  0
 11 13  1  0  0  0
  5  6  1  0  0  0
  5 19  1  0  0  0
 19 20  1  0  0  0
 20 21  1  0  0  0
 20 23  1  0  0  0
 21 22  1  0  0  0
 23 24  1  0  0  0
 17 18  1  0  0  0
 10 14  1  0  0  0
  7  8  1  0  0  0
  7  9  1  0  0  0
M  END
> <minimizedAffinity>
-6.86568

$$$$
4B7J_G39_A_1470


 24 24  0  0  0  0  0  0  0  0999 V2000
   32.2946  -10.1792   14.4113 C   0  0  0  0  0  0  0  0  0  0  0  0
   32.0345  -11.3957   15.2540 C   0  0  0  0  0  0  0  0  0  0  0  0
   30.6027  -11.6641   15.5957 C   0  0  0  0  0  0  0  0  0  0  0  0
   29.6678  -11.1418   14.5613 C   0  0  0  0  0  0  0  0  0  0  0  0
   29.7781   -9.6558   14.4490 C   0  0  0  0  0  0  0  0  0  0  0  0
   31.1869   -9.1644   14.3358 C   0  0  0  0  0  0  0  0  0  0  0  0
   30.3989  -13.0999   15.7502 N   0  0  0  0  0  0  0  0  0  0  0  0
   30.6053  -13.5694   14.8686 H   0  0  0  0  0  0  0  0  0  0  0  0
   29.4296  -13.2794   16.0123 H   0  0  0  0  0  0  0  0  0  0  0  0
   28.2970  -11.4666   14.9436 N   0  0  0  0  0  0  0  0  0  0  0  0
   27.4111  -12.1632   14.0400 C   0  0  0  0  0  0  0  0  0  0  0  0
   27.7987  -12.4983   12.9353 O   0  0  0  0  0  0  0  0  0  0  0  0
   26.0027  -12.4732   14.4794 C   0  0  0  0  0  0  0  0  0  0  0  0
   27.9699  -11.2058   15.8348 H   0  0  0  0  0  0  0  0  0  0  0  0
   33.5250   -9.4564   14.9391 C   0  0  0  0  0  0  0  0  0  0  0  0
   33.4290   -8.6474   15.8913 O   0  0  0  0  0  0  0  0  0  0  0  0
   34.6516   -9.6683   14.4042 O   0  0  0  0  0  0  0  0  0  0  0  0
   34.7259  -10.2728   13.6921 H   0  0  0  0  0  0  0  0  0  0  0  0
   29.0266   -9.1995   13.3510 O   0  0  0  0  0  0  0  0  0  0  0  0
   28.1546   -8.1017   13.4968 C   0  0  0  0  0  0  0  0  0  0  0  0
   28.2243   -7.0859   12.3566 C   0  0  0  0  0  0  0  0  0  0  0  0
   29.1238   -7.3968   11.1934 C   0  0  0  0  0  0  0  0  0  0  0  0
   26.7393   -8.5100   13.8681 C   0  0  0  0  0  0  0  0  0  0  0  0
   26.3758   -8.4688   15.3306 C   0  0  0  0  0  0  0  0  0  0  0  0
 15 16  2  0  0  0
 15 17  1  0  0  0
 15  1  1  0  0  0
  1  2  1  0  0  0
  1  6  2  0  0  0
  2  3  1  0  0  0
  3  4  1  0  0  0
  3  7  1  0  0  0
  4 10  1  0  0  0
  4  5  1  0  0  0
 10 11  1  0  0  0
 11 12  2  0  0  0
 11 13  1  0  0  0
  5  6  1  0  0  0
  5 19  1  0  0  0
 19 20  1  0  0  0
 20 21  1  0  0  0
 20 23  1  0  0  0
 21 22  1  0  0  0
 23 24  1  0  0  0
 17 18  1  0  0  0
 10 14  1  0  0  0
  7  8  1  0  0  0
  7  9  1  0  0  0
M  END
> <minimizedAffinity>
-6.66482

$$$$
4B7J_G39_A_1470


 24 24  0  0  0  0  0  0  0  0999 V2000
   31.7747   -9.7589   15.0503 C   0  0  0  0  0  0  0  0  0  0  0  0
   31.0554   -9.6485   16.3650 C   0  0  0  0  0  0  0  0  0  0  0  0
   29.6883   -9.0423   16.3168 C   0  0  0  0  0  0  0  0  0  0  0  0
   29.0169   -9.2666   15.0069 C   0  0  0  0  0  0  0  0  0  0  0  0
   29.7807   -8.6135   13.9011 C   0  0  0  0  0  0  0  0  0  0  0  0
   31.2460   -8.9163   13.9221 C   0  0  0  0  0  0  0  0  0  0  0  0
   28.8674   -9.6046   17.3830 N   0  0  0  0  0  0  0  0  0  0  0  0
   28.7708  -10.6104   17.2431 H   0  0  0  0  0  0  0  0  0  0  0  0
   27.9453   -9.1691   17.3678 H   0  0  0  0  0  0  0  0  0  0  0  0
   27.6814   -8.6784   15.0438 N   0  0  0  0  0  0  0  0  0  0  0  0
   26.5066   -9.4963   15.2376 C   0  0  0  0  0  0  0  0  0  0  0  0
   26.6125  -10.7010   15.3794 O   0  0  0  0  0  0  0  0  0  0  0  0
   25.1483   -8.8427   15.2648 C   0  0  0  0  0  0  0  0  0  0  0  0
   27.5795   -7.7054   14.9344 H   0  0  0  0  0  0  0  0  0  0  0  0
   33.2350   -9.3786   15.2433 C   0  0  0  0  0  0  0  0  0  0  0  0
   34.0007   -9.2697   14.2572 O   0  0  0  0  0  0  0  0  0  0  0  0
   33.6802   -9.1805   16.4108 O   0  0  0  0  0  0  0  0  0  0  0  0
   33.1096   -9.2613   17.1497 H   0  0  0  0  0  0  0  0  0  0  0  0
   29.2374   -8.9835   12.6575 O   0  0  0  0  0  0  0  0  0  0  0  0
   28.8584   -7.9944   11.7277 C   0  0  0  0  0  0  0  0  0  0  0  0
   27.3766   -7.6218   11.7729 C   0  0  0  0  0  0  0  0  0  0  0  0
   26.4836   -8.1618   10.6915 C   0  0  0  0  0  0  0  0  0  0  0  0
   29.7917   -6.7958   11.7189 C   0  0  0  0  0  0  0  0  0  0  0  0
   29.2178   -5.4842   11.2467 C   0  0  0  0  0  0  0  0  0  0  0  0
 15 16  2  0  0  0
 15 17  1  0  0  0
 15  1  1  0  0  0
  1  2  1  0  0  0
  1  6  2  0  0  0
  2  3  1  0  0  0
  3  4  1  0  0  0
  3  7  1  0  0  0
  4 10  1  0  0  0
  4  5  1  0  0  0
 10 11  1  0  0  0
 11 12  2  0  0  0
 11 13  1  0  0  0
  5  6  1  0  0  0
  5 19  1  0  0  0
 19 20  1  0  0  0
 20 21  1  0  0  0
 20 23  1  0  0  0
 21 22  1  0  0  0
 23 24  1  0  0  0
 17 18  1  0  0  0
 10 14  1  0  0  0
  7  8  1  0  0  0
  7  9  1  0  0  0
M  END
> <minimizedAffinity>
-6.20414

$$$$
4B7J_G39_A_1470


 24 24  0  0  0  0  0  0  0  0999 V2000
   30.5214   -9.0705   15.5485 C   0  0  0  0  0  0  0  0  0  0  0  0
   31.5259   -8.2306   14.8112 C   0  0  0  0  0  0  0  0  0  0  0  0
   31.1729   -7.8698   13.4027 C   0  0  0  0  0  0  0  0  0  0  0  0
   29.7009   -7.8017   13.1891 C   0  0  0  0  0  0  0  0  0  0  0  0
   29.0684   -9.1342   13.4288 C   0  0  0  0  0  0  0  0  0  0  0  0
   29.4936   -9.7798   14.7101 C   0  0  0  0  0  0  0  0  0  0  0  0
   31.7700   -6.5831   13.0645 N   0  0  0  0  0  0  0  0  0  0  0  0
   31.3925   -5.8612   13.6783 H   0  0  0  0  0  0  0  0  0  0  0  0
   31.5536   -6.3522   12.0948 H   0  0  0  0  0  0  0  0  0  0  0  0
   29.4325   -7.4150   11.8074 N   0  0  0  0  0  0  0  0  0  0  0  0
   28.5858   -6.2871   11.4950 C   0  0  0  0  0  0  0  0  0  0  0  0
   28.0807   -5.6313   12.3881 O   0  0  0  0  0  0  0  0  0  0  0  0
   28.3356   -5.9290   10.0521 C   0  0  0  0  0  0  0  0  0  0  0  0
   29.8365   -7.9330   11.0741 H   0  0  0  0  0  0  0  0  0  0  0  0
   31.2513  -10.1357   16.3530 C   0  0  0  0  0  0  0  0  0  0  0  0
   30.6146  -11.0565   16.9164 O   0  0  0  0  0  0  0  0  0  0  0  0
   32.5107  -10.0839   16.4607 O   0  0  0  0  0  0  0  0  0  0  0  0
   32.9890   -9.3965   16.0404 H   0  0  0  0  0  0  0  0  0  0  0  0
   27.6672   -9.0135   13.4003 O   0  0  0  0  0  0  0  0  0  0  0  0
   26.8905   -9.9464   12.6840 C   0  0  0  0  0  0  0  0  0  0  0  0
   27.5871  -10.5375   11.4585 C   0  0  0  0  0  0  0  0  0  0  0  0
   27.3291   -9.8933   10.1254 C   0  0  0  0  0  0  0  0  0  0  0  0
   26.2341  -10.9856   13.5765 C   0  0  0  0  0  0  0  0  0  0  0  0
   25.8573  -10.5520   14.9703 C   0  0  0  0  0  0  0  0  0  0  0  0
 15 16  2  0  0  0
 15 17  1  0  0  0
 15  1  1  0  0  0
  1  2  1  0  0  0
  1  6  2  0  0  0
  2  3  1  0  0  0
  3  4  1  0  0  0
  3  7  1  0  0  0
  4 10  1  0  0  0
  4  5  1  0  0  0
 10 11  1  0  0  0
 11 12  2  0  0  0
 11 13  1  0  0  0
  5  6  1  0  0  0
  5 19  1  0  0  0
 19 20  1  0  0  0
 20 21  1  0  0  0
 20 23  1  0  0  0
 21 22  1  0  0  0
 23 24  1  0  0  0
 17 18  1  0  0  0
 10 14  1  0  0  0
  7  8  1  0  0  0
  7  9  1  0  0  0
M  END
> <minimizedAffinity>
-6.16890

$$$$
4B7J_G39_A_1470


 24 24  0  0  0  0  0  0  0  0999 V2000
   27.0282  -10.7964   13.6452 C   0  0  0  0  0  0  0  0  0  0  0  0
   26.1346   -9.7897   12.9774 C   0  0  0  0  0  0  0  0  0  0  0  0
   26.7400   -8.4472   12.7133 C   0  0  0  0  0  0  0  0  0  0  0  0
   28.2148   -8.5204   12.5221 C   0  0  0  0  0  0  0  0  0  0  0  0
   28.8854   -9.0227   13.7595 C   0  0  0  0  0  0  0  0  0  0  0  0
   28.2576  -10.2580   14.3242 C   0  0  0  0  0  0  0  0  0  0  0  0
   26.1277   -7.8607   11.5268 N   0  0  0  0  0  0  0  0  0  0  0  0
   26.3146   -8.4545   10.7189 H   0  0  0  0  0  0  0  0  0  0  0  0
   26.5199   -6.9331   11.3650 H   0  0  0  0  0  0  0  0  0  0  0  0
   28.7302   -7.1846   12.2382 N   0  0  0  0  0  0  0  0  0  0  0  0
   29.1519   -6.8102   10.9083 C   0  0  0  0  0  0  0  0  0  0  0  0
   29.0795   -7.6093    9.9924 O   0  0  0  0  0  0  0  0  0  0  0  0
   29.6806   -5.4193   10.6656 C   0  0  0  0  0  0  0  0  0  0  0  0
   28.7915   -6.5259   12.9673 H   0  0  0  0  0  0  0  0  0  0  0  0
   26.2330  -11.5529   14.6988 C   0  0  0  0  0  0  0  0  0  0  0  0
   26.2012  -12.8057   14.6952 O   0  0  0  0  0  0  0  0  0  0  0  0
   25.5917  -10.9094   15.5791 O   0  0  0  0  0  0  0  0  0  0  0  0
   25.6139   -9.9727   15.5838 H   0  0  0  0  0  0  0  0  0  0  0  0
   30.2491   -9.2567   13.5061 O   0  0  0  0  0  0  0  0  0  0  0  0
   31.1888   -9.1708   14.5531 C   0  0  0  0  0  0  0  0  0  0  0  0
   32.3417  -10.1691   14.4485 C   0  0  0  0  0  0  0  0  0  0  0  0
   33.7223   -9.6247   14.2108 C   0  0  0  0  0  0  0  0  0  0  0  0
   31.6350   -7.7471   14.8382 C   0  0  0  0  0  0  0  0  0  0  0  0
   31.8183   -7.3631   16.2844 C   0  0  0  0  0  0  0  0  0  0  0  0
 15 16  2  0  0  0
 15 17  1  0  0  0
 15  1  1  0  0  0
  1  2  1  0  0  0
  1  6  2  0  0  0
  2  3  1  0  0  0
  3  4  1  0  0  0
  3  7  1  0  0  0
  4 10  1  0  0  0
  4  5  1  0  0  0
 10 11  1  0  0  0
 11 12  2  0  0  0
 11 13  1  0  0  0
  5  6  1  0  0  0
  5 19  1  0  0  0
 19 20  1  0  0  0
 20 21  1  0  0  0
 20 23  1  0  0  0
 21 22  1  0  0  0
 23 24  1  0  0  0
 17 18  1  0  0  0
 10 14  1  0  0  0
  7  8  1  0  0  0
  7  9  1  0  0  0
M  END
> <minimizedAffinity>
-6.07988

$$$$
4B7J_G39_A_1470


 24 24  0  0  0  0  0  0  0  0999 V2000
   29.8826  -10.5781   15.3959 C   0  0  0  0  0  0  0  0  0  0  0  0
   30.9326   -9.5032   15.3976 C   0  0  0  0  0  0  0  0  0  0  0  0
   31.0107   -8.6595   14.1645 C   0  0  0  0  0  0  0  0  0  0  0  0
   29.6984   -8.5523   13.4694 C   0  0  0  0  0  0  0  0  0  0  0  0
   29.2338   -9.8942   13.0044 C   0  0  0  0  0  0  0  0  0  0  0  0
   29.3081  -10.9544   14.0577 C   0  0  0  0  0  0  0  0  0  0  0  0
   31.4818   -7.3247   14.5156 N   0  0  0  0  0  0  0  0  0  0  0  0
   30.8181   -6.8871   15.1547 H   0  0  0  0  0  0  0  0  0  0  0  0
   31.5631   -6.7596   13.6704 H   0  0  0  0  0  0  0  0  0  0  0  0
   29.8427   -7.6924   12.2987 N   0  0  0  0  0  0  0  0  0  0  0  0
   28.8702   -6.6681   11.9958 C   0  0  0  0  0  0  0  0  0  0  0  0
   27.9070   -6.5007   12.7217 O   0  0  0  0  0  0  0  0  0  0  0  0
   29.0612   -5.8071   10.7730 C   0  0  0  0  0  0  0  0  0  0  0  0
   30.6180   -7.8128   11.7041 H   0  0  0  0  0  0  0  0  0  0  0  0
   30.4617  -11.8467   16.0042 C   0  0  0  0  0  0  0  0  0  0  0  0
   31.2522  -11.7846   16.9747 O   0  0  0  0  0  0  0  0  0  0  0  0
   30.1485  -12.9720   15.5185 O   0  0  0  0  0  0  0  0  0  0  0  0
   29.5576  -13.0210   14.7929 H   0  0  0  0  0  0  0  0  0  0  0  0
   27.9186   -9.8043   12.5136 O   0  0  0  0  0  0  0  0  0  0  0  0
   26.9643  -10.7813   12.8619 C   0  0  0  0  0  0  0  0  0  0  0  0
   25.9154  -10.3072   13.8677 C   0  0  0  0  0  0  0  0  0  0  0  0
   25.5374   -8.8526   13.8548 C   0  0  0  0  0  0  0  0  0  0  0  0
   26.3784  -11.4983   11.6577 C   0  0  0  0  0  0  0  0  0  0  0  0
   27.3323  -11.8713   10.5515 C   0  0  0  0  0  0  0  0  0  0  0  0
 15 16  2  0  0  0
 15 17  1  0  0  0
 15  1  1  0  0  0
  1  2  1  0  0  0
  1  6  2  0  0  0
  2  3  1  0  0  0
  3  4  1  0  0  0
  3  7  1  0  0  0
  4 10  1  0  0  0
  4  5  1  0  0  0
 10 11  1  0  0  0
 11 12  2  0  0  0
 11 13  1  0  0  0
  5  6  1  0  0  0
  5 19  1  0  0  0
 19 20  1  0  0  0
 20 21  1  0  0  0
 20 23  1  0  0  0
 21 22  1  0  0  0
 23 24  1  0  0  0
 17 18  1  0  0  0
 10 14  1  0  0  0
  7  8  1  0  0  0
  7  9  1  0  0  0
M  END
> <minimizedAffinity>
-6.00999

$$$$
4B7J_G39_A_1470


 24 24  0  0  0  0  0  0  0  0999 V2000
   29.2463   -6.1321   11.3622 C   0  0  0  0  0  0  0  0  0  0  0  0
   27.9022   -6.4985   10.7992 C   0  0  0  0  0  0  0  0  0  0  0  0
   27.2427   -7.6988   11.4017 C   0  0  0  0  0  0  0  0  0  0  0  0
   27.6488   -7.9150   12.8178 C   0  0  0  0  0  0  0  0  0  0  0  0
   29.1167   -8.1773   12.9142 C   0  0  0  0  0  0  0  0  0  0  0  0
   29.9540   -7.1943   12.1580 C   0  0  0  0  0  0  0  0  0  0  0  0
   25.7941   -7.5458   11.3325 N   0  0  0  0  0  0  0  0  0  0  0  0
   25.5125   -6.7277   11.8727 H   0  0  0  0  0  0  0  0  0  0  0  0
   25.3456   -8.3776   11.7164 H   0  0  0  0  0  0  0  0  0  0  0  0
   26.9450   -9.0788   13.3478 N   0  0  0  0  0  0  0  0  0  0  0  0
   26.2941   -9.0391   14.6368 C   0  0  0  0  0  0  0  0  0  0  0  0
   26.3182   -8.0226   15.3069 O   0  0  0  0  0  0  0  0  0  0  0  0
   25.5827  -10.2682   15.1429 C   0  0  0  0  0  0  0  0  0  0  0  0
   26.9133   -9.9070   12.8165 H   0  0  0  0  0  0  0  0  0  0  0  0
   30.1757   -5.7345   10.2253 C   0  0  0  0  0  0  0  0  0  0  0  0
   30.0243   -4.6414    9.6312 O   0  0  0  0  0  0  0  0  0  0  0  0
   31.1024   -6.5199    9.8720 O   0  0  0  0  0  0  0  0  0  0  0  0
   31.2175   -7.3377   10.3145 H   0  0  0  0  0  0  0  0  0  0  0  0
   29.5136   -8.1999   14.2635 O   0  0  0  0  0  0  0  0  0  0  0  0
   30.1874   -9.3227   14.7848 C   0  0  0  0  0  0  0  0  0  0  0  0
   31.6043   -9.0333   15.2802 C   0  0  0  0  0  0  0  0  0  0  0  0
   32.7188   -9.0562   14.2722 C   0  0  0  0  0  0  0  0  0  0  0  0
   29.3460  -10.1201   15.7665 C   0  0  0  0  0  0  0  0  0  0  0  0
   29.4834   -9.7723   17.2269 C   0  0  0  0  0  0  0  0  0  0  0  0
 15 16  2  0  0  0
 15 17  1  0  0  0
 15  1  1  0  0  0
  1  2  1  0  0  0
  1  6  2  0  0  0
  2  3  1  0  0  0
  3  4  1  0  0  0
  3  7  1  0  0  0
  4 10  1  0  0  0
  4  5  1  0  0  0
 10 11  1  0  0  0
 11 12  2  0  0  0
 11 13  1  0  0  0
  5  6  1  0  0  0
  5 19  1  0  0  0
 19 20  1  0  0  0
 20 21  1  0  0  0
 20 23  1  0  0  0
 21 22  1  0  0  0
 23 24  1  0  0  0
 17 18  1  0  0  0
 10 14  1  0  0  0
  7  8  1  0  0  0
  7  9  1  0  0  0
M  END
> <minimizedAffinity>
-5.93256

$$$$
4B7J_G39_A_1470


 24 24  0  0  0  0  0  0  0  0999 V2000
   26.8840   -8.4418   14.5860 C   0  0  0  0  0  0  0  0  0  0  0  0
   27.4948   -9.2384   15.7042 C   0  0  0  0  0  0  0  0  0  0  0  0
   28.8356   -9.8410   15.4250 C   0  0  0  0  0  0  0  0  0  0  0  0
   29.6144   -9.0506   14.4322 C   0  0  0  0  0  0  0  0  0  0  0  0
   28.9117   -9.0157   13.1139 C   0  0  0  0  0  0  0  0  0  0  0  0
   27.4628   -8.6555   13.2143 C   0  0  0  0  0  0  0  0  0  0  0  0
   29.5943   -9.9393   16.6665 N   0  0  0  0  0  0  0  0  0  0  0  0
   29.7426   -9.0055   17.0491 H   0  0  0  0  0  0  0  0  0  0  0  0
   30.4963  -10.3774   16.4799 H   0  0  0  0  0  0  0  0  0  0  0  0
   30.9178   -9.6772   14.2342 N   0  0  0  0  0  0  0  0  0  0  0  0
   32.1433   -8.9419   14.4442 C   0  0  0  0  0  0  0  0  0  0  0  0
   32.1088   -7.7771   14.7977 O   0  0  0  0  0  0  0  0  0  0  0  0
   33.4654   -9.6319   14.2233 C   0  0  0  0  0  0  0  0  0  0  0  0
   30.9625  -10.6193   13.9521 H   0  0  0  0  0  0  0  0  0  0  0  0
   25.3987   -8.7590   14.4966 C   0  0  0  0  0  0  0  0  0  0  0  0
   24.9589   -9.4987   13.5855 O   0  0  0  0  0  0  0  0  0  0  0  0
   24.6016   -8.2630   15.3445 O   0  0  0  0  0  0  0  0  0  0  0  0
   24.9280   -7.7097   16.0266 H   0  0  0  0  0  0  0  0  0  0  0  0
   29.5638   -8.1221   12.2450 O   0  0  0  0  0  0  0  0  0  0  0  0
   28.8192   -7.3659   11.3174 C   0  0  0  0  0  0  0  0  0  0  0  0
   29.1702   -5.8784   11.2909 C   0  0  0  0  0  0  0  0  0  0  0  0
   29.3489   -5.2230    9.9502 C   0  0  0  0  0  0  0  0  0  0  0  0
   28.7566   -8.0053    9.9409 C   0  0  0  0  0  0  0  0  0  0  0  0
   27.4171   -8.5296    9.4893 C   0  0  0  0  0  0  0  0  0  0  0  0
 15 16  2  0  0  0
 15 17  1  0  0  0
 15  1  1  0  0  0
  1  2  1  0  0  0
  1  6  2  0  0  0
  2  3  1  0  0  0
  3  4  1  0  0  0
  3  7  1  0  0  0
  4 10  1  0  0  0
  4  5  1  0  0  0
 10 11  1  0  0  0
 11 12  2  0  0  0
 11 13  1  0  0  0
  5  6  1  0  0  0
  5 19  1  0  0  0
 19 20  1  0  0  0
 20 21  1  0  0  0
 20 23  1  0  0  0
 21 22  1  0  0  0
 23 24  1  0  0  0
 17 18  1  0  0  0
 10 14  1  0  0  0
  7  8  1  0  0  0
  7  9  1  0  0  0
M  END
> <minimizedAffinity>
-5.89662

$$$$
4B7J_G39_A_1470


 24 24  0  0  0  0  0  0  0  0999 V2000
   31.5558  -10.8118   14.9300 C   0  0  0  0  0  0  0  0  0  0  0  0
   31.3349  -10.1206   16.2458 C   0  0  0  0  0  0  0  0  0  0  0  0
   30.1438   -9.2184   16.3219 C   0  0  0  0  0  0  0  0  0  0  0  0
   29.0532   -9.6439   15.4018 C   0  0  0  0  0  0  0  0  0  0  0  0
   29.5068   -9.5847   13.9792 C   0  0  0  0  0  0  0  0  0  0  0  0
   30.8291  -10.2436   13.7419 C   0  0  0  0  0  0  0  0  0  0  0  0
   29.6387   -9.1914   17.6897 N   0  0  0  0  0  0  0  0  0  0  0  0
   29.3413  -10.1287   17.9608 H   0  0  0  0  0  0  0  0  0  0  0  0
   28.8452   -8.5531   17.7466 H   0  0  0  0  0  0  0  0  0  0  0  0
   27.9166   -8.7406   15.5527 N   0  0  0  0  0  0  0  0  0  0  0  0
   26.5783   -9.2460   15.7538 C   0  0  0  0  0  0  0  0  0  0  0  0
   26.3753  -10.4455   15.8058 O   0  0  0  0  0  0  0  0  0  0  0  0
   25.4361   -8.2730   15.9008 C   0  0  0  0  0  0  0  0  0  0  0  0
   28.0649   -7.7680   15.5167 H   0  0  0  0  0  0  0  0  0  0  0  0
   33.0398  -10.7921   14.5952 C   0  0  0  0  0  0  0  0  0  0  0  0
   33.6225   -9.7107   14.3471 O   0  0  0  0  0  0  0  0  0  0  0  0
   33.6865  -11.8786   14.5581 O   0  0  0  0  0  0  0  0  0  0  0  0
   33.2530  -12.6885   14.7432 H   0  0  0  0  0  0  0  0  0  0  0  0
   28.5338  -10.1574   13.1401 O   0  0  0  0  0  0  0  0  0  0  0  0
   27.9072   -9.3775   12.1472 C   0  0  0  0  0  0  0  0  0  0  0  0
   28.7128   -8.1566   11.7033 C   0  0  0  0  0  0  0  0  0  0  0  0
   28.7004   -7.8003   10.2433 C   0  0  0  0  0  0  0  0  0  0  0  0
   27.3631  -10.2046   10.9950 C   0  0  0  0  0  0  0  0  0  0  0  0
   27.6228  -11.6890   11.0346 C   0  0  0  0  0  0  0  0  0  0  0  0
 15 16  2  0  0  0
 15 17  1  0  0  0
 15  1  1  0  0  0
  1  2  1  0  0  0
  1  6  2  0  0  0
  2  3  1  0  0  0
  3  4  1  0  0  0
  3  7  1  0  0  0
  4 10  1  0  0  0
  4  5  1  0  0  0
 10 11  1  0  0  0
 11 12  2  0  0  0
 11 13  1  0  0  0
  5  6  1  0  0  0
  5 19  1  0  0  0
 19 20  1  0  0  0
 20 21  1  0  0  0
 20 23  1  0  0  0
 21 22  1  0  0  0
 23 24  1  0  0  0
 17 18  1  0  0  0
 10 14  1  0  0  0
  7  8  1  0  0  0
  7  9  1  0  0  0
M  END
> <minimizedAffinity>
-5.87030

$$$$
