1O2R_CR9_A_246


 33 36  0  0  0  0  0  0  0  0999 V2000
   43.9020   -3.1423   25.9539 C   0  0  0  0  0  0  0  0  0  0  0  0
   43.9652   -1.7275   25.9218 C   0  0  0  0  0  0  0  0  0  0  0  0
   44.1625   -1.0553   24.7387 F   0  0  0  0  0  0  0  0  0  0  0  0
   43.8004   -0.9855   27.0875 C   0  0  0  0  0  0  0  0  0  0  0  0
   43.5635   -1.6648   28.2643 C   0  0  0  0  0  0  0  0  0  0  0  0
   43.4967   -3.0057   28.3306 C   0  0  0  0  0  0  0  0  0  0  0  0
   43.6661   -3.7815   27.1773 C   0  0  0  0  0  0  0  0  0  0  0  0
   43.3801   -1.2612   29.4704 N   0  0  0  0  0  0  0  0  0  0  0  0
   43.2725   -3.4574   29.5530 N   0  0  0  0  0  0  0  0  0  0  0  0
   43.2124   -2.3119   30.2154 C   0  0  0  0  0  0  0  0  0  0  0  0
   43.3689   -0.3250   29.7747 H   0  0  0  0  0  0  0  0  0  0  0  0
   44.0794   -3.9005   24.7873 C   0  0  0  0  0  0  0  0  0  0  0  0
   43.4676   -5.0550   24.6244 N   0  0  0  0  0  0  0  0  0  0  0  0
   44.8868   -3.4247   23.8623 N   0  0  0  0  0  0  0  0  0  0  0  0
   42.8669   -5.3971   25.3254 H   0  0  0  0  0  0  0  0  0  0  0  0
   43.6108   -5.5762   23.8015 H   0  0  0  0  0  0  0  0  0  0  0  0
   45.3368   -2.5599   23.9992 H   0  0  0  0  0  0  0  0  0  0  0  0
   45.0405   -3.9339   23.0338 H   0  0  0  0  0  0  0  0  0  0  0  0
   42.9256   -2.2100   31.5989 C   0  0  0  0  0  0  0  0  0  0  0  0
   42.7224   -3.3709   32.3554 C   0  0  0  0  0  0  0  0  0  0  0  0
   42.4356   -3.2958   33.7209 C   0  0  0  0  0  0  0  0  0  0  0  0
   42.3523   -2.0707   34.3431 C   0  0  0  0  0  0  0  0  0  0  0  0
   42.5466   -0.8812   33.6385 C   0  0  0  0  0  0  0  0  0  0  0  0
   42.8393   -0.9518   32.2494 C   0  0  0  0  0  0  0  0  0  0  0  0
   43.0371    0.2007   31.5001 O   0  0  0  0  0  0  0  0  0  0  0  0
   42.4347    0.3260   34.3357 O   0  0  0  0  0  0  0  0  0  0  0  0
   42.9549    2.1811   35.8892 C   0  0  0  0  0  0  0  0  0  0  0  0
   43.9294    2.6747   37.0375 C   0  0  0  0  0  0  0  0  0  0  0  0
   45.3861    2.5564   36.6063 C   0  0  0  0  0  0  0  0  0  0  0  0
   45.6458    1.1119   36.0823 C   0  0  0  0  0  0  0  0  0  0  0  0
   44.7311    0.7913   34.8600 C   0  0  0  0  0  0  0  0  0  0  0  0
   43.2993    0.7427   35.4135 C   0  0  0  0  0  0  0  0  0  0  0  0
   41.5712    2.1674   36.4870 C   0  0  0  0  0  0  0  0  0  0  0  0
  1  2  2  0  0  0
  1  7  1  0  0  0
  1 12  1  0  0  0
  2  3  1  0  0  0
  2  4  1  0  0  0
  4  5  2  0  0  0
  5  6  1  0  0  0
  5  8  1  0  0  0
  6  7  2  0  0  0
  6  9  1  0  0  0
 12 13  1  0  0  0
 12 14  2  0  0  0
  8 10  1  0  0  0
  9 10  2  0  0  0
 10 19  1  0  0  0
 19 20  2  0  0  0
 19 24  1  0  0  0
 20 21  1  0  0  0
 21 22  2  0  0  0
 22 23  1  0  0  0
 23 24  2  0  0  0
 23 26  1  0  0  0
 24 25  1  0  0  0
 26 32  1  0  0  0
 27 28  1  0  0  0
 27 32  1  0  0  0
 27 33  1  0  0  0
 28 29  1  0  0  0
 29 30  1  0  0  0
 30 31  1  0  0  0
 31 32  1  0  0  0
 13 15  1  0  0  0
 13 16  1  0  0  0
 14 17  1  0  0  0
 14 18  1  0  0  0
  8 11  1  0  0  0
M  CHG 1  14   1
M  CHG 1  25  -1
M  END
> <minimizedAffinity>
-10.09077

$$$$
1O2R_CR9_A_246


 33 36  0  0  0  0  0  0  0  0999 V2000
   43.7300   -2.9222   26.3353 C   0  0  0  0  0  0  0  0  0  0  0  0
   44.2153   -1.5970   26.2125 C   0  0  0  0  0  0  0  0  0  0  0  0
   44.8559   -1.1818   25.0690 F   0  0  0  0  0  0  0  0  0  0  0  0
   44.0279   -0.6771   27.2399 C   0  0  0  0  0  0  0  0  0  0  0  0
   43.3497   -1.0893   28.3680 C   0  0  0  0  0  0  0  0  0  0  0  0
   42.8756   -2.3383   28.5172 C   0  0  0  0  0  0  0  0  0  0  0  0
   43.0545   -3.2897   27.5056 C   0  0  0  0  0  0  0  0  0  0  0  0
   43.0359   -0.4808   29.4553 N   0  0  0  0  0  0  0  0  0  0  0  0
   42.2668   -2.5306   29.6752 N   0  0  0  0  0  0  0  0  0  0  0  0
   42.4060   -1.3278   30.2123 C   0  0  0  0  0  0  0  0  0  0  0  0
   43.2367    0.4577   29.6750 H   0  0  0  0  0  0  0  0  0  0  0  0
   43.9246   -3.8610   25.3116 C   0  0  0  0  0  0  0  0  0  0  0  0
   43.3218   -3.7358   24.1476 N   0  0  0  0  0  0  0  0  0  0  0  0
   44.7233   -4.8791   25.5553 N   0  0  0  0  0  0  0  0  0  0  0  0
   42.7276   -2.9688   23.9810 H   0  0  0  0  0  0  0  0  0  0  0  0
   43.4653   -4.4093   23.4440 H   0  0  0  0  0  0  0  0  0  0  0  0
   45.1666   -4.9584   26.4308 H   0  0  0  0  0  0  0  0  0  0  0  0
   44.8771   -5.5610   24.8621 H   0  0  0  0  0  0  0  0  0  0  0  0
   41.8680   -0.9529   31.4679 C   0  0  0  0  0  0  0  0  0  0  0  0
   40.4807   -0.8460   31.6273 C   0  0  0  0  0  0  0  0  0  0  0  0
   39.9266   -0.4752   32.8553 C   0  0  0  0  0  0  0  0  0  0  0  0
   40.7442   -0.2122   33.9310 C   0  0  0  0  0  0  0  0  0  0  0  0
   42.1336   -0.3039   33.8295 C   0  0  0  0  0  0  0  0  0  0  0  0
   42.7026   -0.6812   32.5830 C   0  0  0  0  0  0  0  0  0  0  0  0
   44.0787   -0.7834   32.4259 O   0  0  0  0  0  0  0  0  0  0  0  0
   42.8999   -0.0103   34.9620 O   0  0  0  0  0  0  0  0  0  0  0  0
   44.7794    1.0299   36.1912 C   0  0  0  0  0  0  0  0  0  0  0  0
   45.5437    2.3874   36.4823 C   0  0  0  0  0  0  0  0  0  0  0  0
   44.5758    3.4730   36.9366 C   0  0  0  0  0  0  0  0  0  0  0  0
   43.4040    3.5701   35.9139 C   0  0  0  0  0  0  0  0  0  0  0  0
   42.6345    2.2163   35.8202 C   0  0  0  0  0  0  0  0  0  0  0  0
   43.6160    1.2236   35.1799 C   0  0  0  0  0  0  0  0  0  0  0  0
   45.7933    0.0975   35.5792 C   0  0  0  0  0  0  0  0  0  0  0  0
  1  2  2  0  0  0
  1  7  1  0  0  0
  1 12  1  0  0  0
  2  3  1  0  0  0
  2  4  1  0  0  0
  4  5  2  0  0  0
  5  6  1  0  0  0
  5  8  1  0  0  0
  6  7  2  0  0  0
  6  9  1  0  0  0
 12 13  1  0  0  0
 12 14  2  0  0  0
  8 10  1  0  0  0
  9 10  2  0  0  0
 10 19  1  0  0  0
 19 20  2  0  0  0
 19 24  1  0  0  0
 20 21  1  0  0  0
 21 22  2  0  0  0
 22 23  1  0  0  0
 23 24  2  0  0  0
 23 26  1  0  0  0
 24 25  1  0  0  0
 26 32  1  0  0  0
 27 28  1  0  0  0
 27 32  1  0  0  0
 27 33  1  0  0  0
 28 29  1  0  0  0
 29 30  1  0  0  0
 30 31  1  0  0  0
 31 32  1  0  0  0
 13 15  1  0  0  0
 13 16  1  0  0  0
 14 17  1  0  0  0
 14 18  1  0  0  0
  8 11  1  0  0  0
M  CHG 1  14   1
M  CHG 1  25  -1
M  END
> <minimizedAffinity>
-9.29247

$$$$
1O2R_CR9_A_246


 33 36  0  0  0  0  0  0  0  0999 V2000
   43.7917   -2.1455   27.2595 C   0  0  0  0  0  0  0  0  0  0  0  0
   43.6681   -3.4384   27.8251 C   0  0  0  0  0  0  0  0  0  0  0  0
   43.8592   -4.5655   27.0612 F   0  0  0  0  0  0  0  0  0  0  0  0
   43.3771   -3.5940   29.1771 C   0  0  0  0  0  0  0  0  0  0  0  0
   43.2256   -2.4589   29.9460 C   0  0  0  0  0  0  0  0  0  0  0  0
   43.3368   -1.2177   29.4421 C   0  0  0  0  0  0  0  0  0  0  0  0
   43.6210   -1.0269   28.0844 C   0  0  0  0  0  0  0  0  0  0  0  0
   42.9560   -2.2912   31.1911 N   0  0  0  0  0  0  0  0  0  0  0  0
   43.1454   -0.2694   30.3436 N   0  0  0  0  0  0  0  0  0  0  0  0
   42.9100   -1.0125   31.4146 C   0  0  0  0  0  0  0  0  0  0  0  0
   42.8107   -3.0030   31.8554 H   0  0  0  0  0  0  0  0  0  0  0  0
   44.0720   -1.9770   25.8956 C   0  0  0  0  0  0  0  0  0  0  0  0
   44.7959   -2.8559   25.2342 N   0  0  0  0  0  0  0  0  0  0  0  0
   43.5956   -0.9045   25.2984 N   0  0  0  0  0  0  0  0  0  0  0  0
   45.1449   -3.6528   25.6952 H   0  0  0  0  0  0  0  0  0  0  0  0
   44.9881   -2.7162   24.2788 H   0  0  0  0  0  0  0  0  0  0  0  0
   43.0560   -0.2567   25.8069 H   0  0  0  0  0  0  0  0  0  0  0  0
   43.7790   -0.7504   24.3435 H   0  0  0  0  0  0  0  0  0  0  0  0
   42.6916   -0.4871   32.7118 C   0  0  0  0  0  0  0  0  0  0  0  0
   41.3956   -0.4569   33.2419 C   0  0  0  0  0  0  0  0  0  0  0  0
   41.1548    0.0589   34.5180 C   0  0  0  0  0  0  0  0  0  0  0  0
   42.1970    0.5436   35.2754 C   0  0  0  0  0  0  0  0  0  0  0  0
   43.5089    0.5374   34.7978 C   0  0  0  0  0  0  0  0  0  0  0  0
   43.7597    0.0133   33.5007 C   0  0  0  0  0  0  0  0  0  0  0  0
   45.0451   -0.0126   32.9754 O   0  0  0  0  0  0  0  0  0  0  0  0
   44.5140    1.0573   35.6197 O   0  0  0  0  0  0  0  0  0  0  0  0
   44.8175    2.9579   37.1756 C   0  0  0  0  0  0  0  0  0  0  0  0
   44.6659    3.4393   38.6780 C   0  0  0  0  0  0  0  0  0  0  0  0
   45.3619    2.4773   39.6329 C   0  0  0  0  0  0  0  0  0  0  0  0
   44.8710    1.0272   39.3414 C   0  0  0  0  0  0  0  0  0  0  0  0
   45.2052    0.6115   37.8754 C   0  0  0  0  0  0  0  0  0  0  0  0
   44.3251    1.4973   36.9811 C   0  0  0  0  0  0  0  0  0  0  0  0
   43.9453    3.8693   36.3505 C   0  0  0  0  0  0  0  0  0  0  0  0
  1  2  2  0  0  0
  1  7  1  0  0  0
  1 12  1  0  0  0
  2  3  1  0  0  0
  2  4  1  0  0  0
  4  5  2  0  0  0
  5  6  1  0  0  0
  5  8  1  0  0  0
  6  7  2  0  0  0
  6  9  1  0  0  0
 12 13  1  0  0  0
 12 14  2  0  0  0
  8 10  1  0  0  0
  9 10  2  0  0  0
 10 19  1  0  0  0
 19 20  2  0  0  0
 19 24  1  0  0  0
 20 21  1  0  0  0
 21 22  2  0  0  0
 22 23  1  0  0  0
 23 24  2  0  0  0
 23 26  1  0  0  0
 24 25  1  0  0  0
 26 32  1  0  0  0
 27 28  1  0  0  0
 27 32  1  0  0  0
 27 33  1  0  0  0
 28 29  1  0  0  0
 29 30  1  0  0  0
 30 31  1  0  0  0
 31 32  1  0  0  0
 13 15  1  0  0  0
 13 16  1  0  0  0
 14 17  1  0  0  0
 14 18  1  0  0  0
  8 11  1  0  0  0
M  CHG 1  14   1
M  CHG 1  25  -1
M  END
> <minimizedAffinity>
-8.96869

$$$$
1O2R_CR9_A_246


 33 36  0  0  0  0  0  0  0  0999 V2000
   44.0460   -2.9396   26.4315 C   0  0  0  0  0  0  0  0  0  0  0  0
   43.9272   -1.5282   26.4532 C   0  0  0  0  0  0  0  0  0  0  0  0
   44.0513   -0.7904   25.2996 F   0  0  0  0  0  0  0  0  0  0  0  0
   43.6538   -0.8596   27.6427 C   0  0  0  0  0  0  0  0  0  0  0  0
   43.4914   -1.6092   28.7891 C   0  0  0  0  0  0  0  0  0  0  0  0
   43.5966   -2.9492   28.8042 C   0  0  0  0  0  0  0  0  0  0  0  0
   43.8788   -3.6511   27.6259 C   0  0  0  0  0  0  0  0  0  0  0  0
   43.2425   -1.2799   30.0059 N   0  0  0  0  0  0  0  0  0  0  0  0
   43.4170   -3.4733   30.0048 N   0  0  0  0  0  0  0  0  0  0  0  0
   43.2018   -2.3718   30.7083 C   0  0  0  0  0  0  0  0  0  0  0  0
   43.1072   -0.3654   30.3446 H   0  0  0  0  0  0  0  0  0  0  0  0
   44.3340   -3.6226   25.2408 C   0  0  0  0  0  0  0  0  0  0  0  0
   44.5530   -4.9210   25.2349 N   0  0  0  0  0  0  0  0  0  0  0  0
   44.3884   -2.9210   24.1279 N   0  0  0  0  0  0  0  0  0  0  0  0
   44.5087   -5.4315   26.0756 H   0  0  0  0  0  0  0  0  0  0  0  0
   44.7611   -5.3813   24.3899 H   0  0  0  0  0  0  0  0  0  0  0  0
   44.2222   -1.9508   24.1490 H   0  0  0  0  0  0  0  0  0  0  0  0
   44.5953   -3.3665   23.2747 H   0  0  0  0  0  0  0  0  0  0  0  0
   42.8870   -2.3617   32.0893 C   0  0  0  0  0  0  0  0  0  0  0  0
   42.1592   -3.4211   32.6456 C   0  0  0  0  0  0  0  0  0  0  0  0
   41.8343   -3.4322   34.0046 C   0  0  0  0  0  0  0  0  0  0  0  0
   42.2319   -2.3957   34.8185 C   0  0  0  0  0  0  0  0  0  0  0  0
   42.9600   -1.3147   34.3182 C   0  0  0  0  0  0  0  0  0  0  0  0
   43.2938   -1.2986   32.9367 C   0  0  0  0  0  0  0  0  0  0  0  0
   44.0126   -0.2454   32.3862 O   0  0  0  0  0  0  0  0  0  0  0  0
   43.3188   -0.2930   35.2032 O   0  0  0  0  0  0  0  0  0  0  0  0
   44.1653    0.3321   37.4433 C   0  0  0  0  0  0  0  0  0  0  0  0
   45.4412    0.3666   38.3829 C   0  0  0  0  0  0  0  0  0  0  0  0
   46.6116    1.0537   37.6902 C   0  0  0  0  0  0  0  0  0  0  0  0
   46.8277    0.4027   36.2909 C   0  0  0  0  0  0  0  0  0  0  0  0
   45.5547    0.5588   35.4028 C   0  0  0  0  0  0  0  0  0  0  0  0
   44.4767   -0.3124   36.0644 C   0  0  0  0  0  0  0  0  0  0  0  0
   43.1441   -0.5225   38.1496 C   0  0  0  0  0  0  0  0  0  0  0  0
  1  2  2  0  0  0
  1  7  1  0  0  0
  1 12  1  0  0  0
  2  3  1  0  0  0
  2  4  1  0  0  0
  4  5  2  0  0  0
  5  6  1  0  0  0
  5  8  1  0  0  0
  6  7  2  0  0  0
  6  9  1  0  0  0
 12 13  1  0  0  0
 12 14  2  0  0  0
  8 10  1  0  0  0
  9 10  2  0  0  0
 10 19  1  0  0  0
 19 20  2  0  0  0
 19 24  1  0  0  0
 20 21  1  0  0  0
 21 22  2  0  0  0
 22 23  1  0  0  0
 23 24  2  0  0  0
 23 26  1  0  0  0
 24 25  1  0  0  0
 26 32  1  0  0  0
 27 28  1  0  0  0
 27 32  1  0  0  0
 27 33  1  0  0  0
 28 29  1  0  0  0
 29 30  1  0  0  0
 30 31  1  0  0  0
 31 32  1  0  0  0
 13 15  1  0  0  0
 13 16  1  0  0  0
 14 17  1  0  0  0
 14 18  1  0  0  0
  8 11  1  0  0  0
M  CHG 1  14   1
M  CHG 1  25  -1
M  END
> <minimizedAffinity>
-8.94216

$$$$
1O2R_CR9_A_246


 33 36  0  0  0  0  0  0  0  0999 V2000
   43.9357   -3.1578   25.9970 C   0  0  0  0  0  0  0  0  0  0  0  0
   43.9906   -1.7423   25.9794 C   0  0  0  0  0  0  0  0  0  0  0  0
   44.1866   -1.0570   24.8037 F   0  0  0  0  0  0  0  0  0  0  0  0
   43.8187   -1.0132   27.1523 C   0  0  0  0  0  0  0  0  0  0  0  0
   43.5832   -1.7059   28.3216 C   0  0  0  0  0  0  0  0  0  0  0  0
   43.5242   -3.0478   28.3740 C   0  0  0  0  0  0  0  0  0  0  0  0
   43.7008   -3.8107   27.2133 C   0  0  0  0  0  0  0  0  0  0  0  0
   43.3947   -1.3157   29.5312 N   0  0  0  0  0  0  0  0  0  0  0  0
   43.2999   -3.5132   29.5913 N   0  0  0  0  0  0  0  0  0  0  0  0
   43.2314   -2.3749   30.2651 C   0  0  0  0  0  0  0  0  0  0  0  0
   43.3771   -0.3827   29.8450 H   0  0  0  0  0  0  0  0  0  0  0  0
   44.1203   -3.9030   24.8232 C   0  0  0  0  0  0  0  0  0  0  0  0
   44.8805   -3.4573   23.8447 N   0  0  0  0  0  0  0  0  0  0  0  0
   43.5001   -5.0604   24.7264 N   0  0  0  0  0  0  0  0  0  0  0  0
   45.3376   -2.5898   23.9325 H   0  0  0  0  0  0  0  0  0  0  0  0
   44.9918   -3.9917   23.0254 H   0  0  0  0  0  0  0  0  0  0  0  0
   42.9352   -5.3797   25.4669 H   0  0  0  0  0  0  0  0  0  0  0  0
   43.6012   -5.6066   23.9136 H   0  0  0  0  0  0  0  0  0  0  0  0
   42.9409   -2.2888   31.6489 C   0  0  0  0  0  0  0  0  0  0  0  0
   42.7033   -3.4565   32.3847 C   0  0  0  0  0  0  0  0  0  0  0  0
   42.4121   -3.3969   33.7500 C   0  0  0  0  0  0  0  0  0  0  0  0
   42.3585   -2.1807   34.3926 C   0  0  0  0  0  0  0  0  0  0  0  0
   42.5876   -0.9851   33.7091 C   0  0  0  0  0  0  0  0  0  0  0  0
   42.8849   -1.0399   32.3204 C   0  0  0  0  0  0  0  0  0  0  0  0
   43.1167    0.1194   31.5916 O   0  0  0  0  0  0  0  0  0  0  0  0
   42.5044    0.2127   34.4263 O   0  0  0  0  0  0  0  0  0  0  0  0
   41.0417   -0.0889   36.3998 C   0  0  0  0  0  0  0  0  0  0  0  0
   39.7136    0.3980   37.1146 C   0  0  0  0  0  0  0  0  0  0  0  0
   38.5272    0.3420   36.1601 C   0  0  0  0  0  0  0  0  0  0  0  0
   38.8954    1.0949   34.8462 C   0  0  0  0  0  0  0  0  0  0  0  0
   40.1293    0.4361   34.1554 C   0  0  0  0  0  0  0  0  0  0  0  0
   41.3190    0.6995   35.0902 C   0  0  0  0  0  0  0  0  0  0  0  0
   42.1653    0.1825   37.3672 C   0  0  0  0  0  0  0  0  0  0  0  0
  1  2  2  0  0  0
  1  7  1  0  0  0
  1 12  1  0  0  0
  2  3  1  0  0  0
  2  4  1  0  0  0
  4  5  2  0  0  0
  5  6  1  0  0  0
  5  8  1  0  0  0
  6  7  2  0  0  0
  6  9  1  0  0  0
 12 13  1  0  0  0
 12 14  2  0  0  0
  8 10  1  0  0  0
  9 10  2  0  0  0
 10 19  1  0  0  0
 19 20  2  0  0  0
 19 24  1  0  0  0
 20 21  1  0  0  0
 21 22  2  0  0  0
 22 23  1  0  0  0
 23 24  2  0  0  0
 23 26  1  0  0  0
 24 25  1  0  0  0
 26 32  1  0  0  0
 27 28  1  0  0  0
 27 32  1  0  0  0
 27 33  1  0  0  0
 28 29  1  0  0  0
 29 30  1  0  0  0
 30 31  1  0  0  0
 31 32  1  0  0  0
 13 15  1  0  0  0
 13 16  1  0  0  0
 14 17  1  0  0  0
 14 18  1  0  0  0
  8 11  1  0  0  0
M  CHG 1  14   1
M  CHG 1  25  -1
M  END
> <minimizedAffinity>
-8.79438

$$$$
1O2R_CR9_A_246


 33 36  0  0  0  0  0  0  0  0999 V2000
   43.0500    2.7168   36.6598 C   0  0  0  0  0  0  0  0  0  0  0  0
   44.4036    2.7576   36.2437 C   0  0  0  0  0  0  0  0  0  0  0  0
   45.2987    3.6188   36.8330 F   0  0  0  0  0  0  0  0  0  0  0  0
   44.8626    1.9037   35.2453 C   0  0  0  0  0  0  0  0  0  0  0  0
   43.9683    1.0149   34.6859 C   0  0  0  0  0  0  0  0  0  0  0  0
   42.6781    0.9491   35.0572 C   0  0  0  0  0  0  0  0  0  0  0  0
   42.1830    1.7997   36.0531 C   0  0  0  0  0  0  0  0  0  0  0  0
   44.0964    0.1287   33.7643 N   0  0  0  0  0  0  0  0  0  0  0  0
   41.9891    0.0380   34.3909 N   0  0  0  0  0  0  0  0  0  0  0  0
   42.9383   -0.4354   33.5976 C   0  0  0  0  0  0  0  0  0  0  0  0
   44.9228   -0.0842   33.2734 H   0  0  0  0  0  0  0  0  0  0  0  0
   42.5737    3.5816   37.6560 C   0  0  0  0  0  0  0  0  0  0  0  0
   42.4386    4.8721   37.4317 N   0  0  0  0  0  0  0  0  0  0  0  0
   42.2745    3.0624   38.8285 N   0  0  0  0  0  0  0  0  0  0  0  0
   42.6666    5.2449   36.5494 H   0  0  0  0  0  0  0  0  0  0  0  0
   42.1096    5.4641   38.1462 H   0  0  0  0  0  0  0  0  0  0  0  0
   42.3810    2.0955   38.9803 H   0  0  0  0  0  0  0  0  0  0  0  0
   41.9443    3.6411   39.5533 H   0  0  0  0  0  0  0  0  0  0  0  0
   42.7513   -1.5052   32.6881 C   0  0  0  0  0  0  0  0  0  0  0  0
   42.6543   -2.8177   33.1672 C   0  0  0  0  0  0  0  0  0  0  0  0
   42.4725   -3.8897   32.2895 C   0  0  0  0  0  0  0  0  0  0  0  0
   42.3825   -3.6655   30.9343 C   0  0  0  0  0  0  0  0  0  0  0  0
   42.4715   -2.3782   30.4015 C   0  0  0  0  0  0  0  0  0  0  0  0
   42.6558   -1.2840   31.2897 C   0  0  0  0  0  0  0  0  0  0  0  0
   42.7551    0.0165   30.8125 O   0  0  0  0  0  0  0  0  0  0  0  0
   42.3829   -2.2296   29.0137 O   0  0  0  0  0  0  0  0  0  0  0  0
   43.6725   -1.4205   27.0623 C   0  0  0  0  0  0  0  0  0  0  0  0
   44.7786   -1.8002   25.9926 C   0  0  0  0  0  0  0  0  0  0  0  0
   44.4331   -3.1072   25.2897 C   0  0  0  0  0  0  0  0  0  0  0  0
   44.1357   -4.1983   26.3620 C   0  0  0  0  0  0  0  0  0  0  0  0
   42.9340   -3.7784   27.2637 C   0  0  0  0  0  0  0  0  0  0  0  0
   43.4257   -2.5714   28.0763 C   0  0  0  0  0  0  0  0  0  0  0  0
   44.2050   -0.2278   27.8147 C   0  0  0  0  0  0  0  0  0  0  0  0
  1  2  2  0  0  0
  1  7  1  0  0  0
  1 12  1  0  0  0
  2  3  1  0  0  0
  2  4  1  0  0  0
  4  5  2  0  0  0
  5  6  1  0  0  0
  5  8  1  0  0  0
  6  7  2  0  0  0
  6  9  1  0  0  0
 12 13  1  0  0  0
 12 14  2  0  0  0
  8 10  1  0  0  0
  9 10  2  0  0  0
 10 19  1  0  0  0
 19 20  2  0  0  0
 19 24  1  0  0  0
 20 21  1  0  0  0
 21 22  2  0  0  0
 22 23  1  0  0  0
 23 24  2  0  0  0
 23 26  1  0  0  0
 24 25  1  0  0  0
 26 32  1  0  0  0
 27 28  1  0  0  0
 27 32  1  0  0  0
 27 33  1  0  0  0
 28 29  1  0  0  0
 29 30  1  0  0  0
 30 31  1  0  0  0
 31 32  1  0  0  0
 13 15  1  0  0  0
 13 16  1  0  0  0
 14 17  1  0  0  0
 14 18  1  0  0  0
  8 11  1  0  0  0
M  CHG 1  14   1
M  CHG 1  25  -1
M  END
> <minimizedAffinity>
-8.60246

$$$$
1O2R_CR9_A_246


 33 36  0  0  0  0  0  0  0  0999 V2000
   43.7152   -2.2974   26.4721 C   0  0  0  0  0  0  0  0  0  0  0  0
   43.2590   -3.5650   26.9104 C   0  0  0  0  0  0  0  0  0  0  0  0
   43.2455   -4.6446   26.0591 F   0  0  0  0  0  0  0  0  0  0  0  0
   42.8399   -3.7502   28.2244 C   0  0  0  0  0  0  0  0  0  0  0  0
   42.8933   -2.6725   29.0835 C   0  0  0  0  0  0  0  0  0  0  0  0
   43.3210   -1.4568   28.7013 C   0  0  0  0  0  0  0  0  0  0  0  0
   43.7419   -1.2354   27.3844 C   0  0  0  0  0  0  0  0  0  0  0  0
   42.5764   -2.5411   30.3219 N   0  0  0  0  0  0  0  0  0  0  0  0
   43.2832   -0.5608   29.6731 N   0  0  0  0  0  0  0  0  0  0  0  0
   42.8056   -1.3074   30.6576 C   0  0  0  0  0  0  0  0  0  0  0  0
   42.2238   -3.2476   30.9098 H   0  0  0  0  0  0  0  0  0  0  0  0
   44.1277   -2.0964   25.1468 C   0  0  0  0  0  0  0  0  0  0  0  0
   43.8247   -0.9912   24.4982 N   0  0  0  0  0  0  0  0  0  0  0  0
   44.8208   -3.0542   24.5670 N   0  0  0  0  0  0  0  0  0  0  0  0
   43.3058   -0.2843   24.9457 H   0  0  0  0  0  0  0  0  0  0  0  0
   44.1171   -0.8717   23.5657 H   0  0  0  0  0  0  0  0  0  0  0  0
   45.0392   -3.8745   25.0655 H   0  0  0  0  0  0  0  0  0  0  0  0
   45.1205   -2.9499   23.6351 H   0  0  0  0  0  0  0  0  0  0  0  0
   42.6159   -0.8451   31.9831 C   0  0  0  0  0  0  0  0  0  0  0  0
   43.7263   -0.5346   32.7781 C   0  0  0  0  0  0  0  0  0  0  0  0
   43.5645   -0.0796   34.0893 C   0  0  0  0  0  0  0  0  0  0  0  0
   42.3023    0.0730   34.6170 C   0  0  0  0  0  0  0  0  0  0  0  0
   41.1601   -0.2205   33.8698 C   0  0  0  0  0  0  0  0  0  0  0  0
   41.3187   -0.6831   32.5353 C   0  0  0  0  0  0  0  0  0  0  0  0
   40.2165   -0.9938   31.7495 O   0  0  0  0  0  0  0  0  0  0  0  0
   39.9115   -0.0522   34.4771 O   0  0  0  0  0  0  0  0  0  0  0  0
   38.8680    0.4507   36.6642 C   0  0  0  0  0  0  0  0  0  0  0  0
   38.4438    1.6066   37.6621 C   0  0  0  0  0  0  0  0  0  0  0  0
   37.5924    2.6539   36.9550 C   0  0  0  0  0  0  0  0  0  0  0  0
   38.3291    3.1208   35.6635 C   0  0  0  0  0  0  0  0  0  0  0  0
   38.5624    1.9222   34.6926 C   0  0  0  0  0  0  0  0  0  0  0  0
   39.5747    1.0072   35.3975 C   0  0  0  0  0  0  0  0  0  0  0  0
   39.8465   -0.4164   37.4143 C   0  0  0  0  0  0  0  0  0  0  0  0
  1  2  2  0  0  0
  1  7  1  0  0  0
  1 12  1  0  0  0
  2  3  1  0  0  0
  2  4  1  0  0  0
  4  5  2  0  0  0
  5  6  1  0  0  0
  5  8  1  0  0  0
  6  7  2  0  0  0
  6  9  1  0  0  0
 12 13  1  0  0  0
 12 14  2  0  0  0
  8 10  1  0  0  0
  9 10  2  0  0  0
 10 19  1  0  0  0
 19 20  2  0  0  0
 19 24  1  0  0  0
 20 21  1  0  0  0
 21 22  2  0  0  0
 22 23  1  0  0  0
 23 24  2  0  0  0
 23 26  1  0  0  0
 24 25  1  0  0  0
 26 32  1  0  0  0
 27 28  1  0  0  0
 27 32  1  0  0  0
 27 33  1  0  0  0
 28 29  1  0  0  0
 29 30  1  0  0  0
 30 31  1  0  0  0
 31 32  1  0  0  0
 13 15  1  0  0  0
 13 16  1  0  0  0
 14 17  1  0  0  0
 14 18  1  0  0  0
  8 11  1  0  0  0
M  CHG 1  14   1
M  CHG 1  25  -1
M  END
> <minimizedAffinity>
-8.19954

$$$$
1O2R_CR9_A_246


 33 36  0  0  0  0  0  0  0  0999 V2000
   42.9196   -3.3578   28.9856 C   0  0  0  0  0  0  0  0  0  0  0  0
   43.1088   -2.0648   28.4386 C   0  0  0  0  0  0  0  0  0  0  0  0
   43.1404   -1.8704   27.0779 F   0  0  0  0  0  0  0  0  0  0  0  0
   43.2391   -0.9569   29.2708 C   0  0  0  0  0  0  0  0  0  0  0  0
   43.1670   -1.1539   30.6340 C   0  0  0  0  0  0  0  0  0  0  0  0
   42.9877   -2.3662   31.1864 C   0  0  0  0  0  0  0  0  0  0  0  0
   42.8610   -3.5018   30.3772 C   0  0  0  0  0  0  0  0  0  0  0  0
   43.2549   -0.3438   31.6276 N   0  0  0  0  0  0  0  0  0  0  0  0
   42.9581   -2.3383   32.5081 N   0  0  0  0  0  0  0  0  0  0  0  0
   43.1332   -1.0420   32.7161 C   0  0  0  0  0  0  0  0  0  0  0  0
   43.3900    0.6299   31.5735 H   0  0  0  0  0  0  0  0  0  0  0  0
   42.8000   -4.4828   28.1567 C   0  0  0  0  0  0  0  0  0  0  0  0
   42.1736   -5.5670   28.5642 N   0  0  0  0  0  0  0  0  0  0  0  0
   43.3437   -4.4240   26.9589 N   0  0  0  0  0  0  0  0  0  0  0  0
   41.7723   -5.5952   29.4628 H   0  0  0  0  0  0  0  0  0  0  0  0
   42.1065   -6.3494   27.9704 H   0  0  0  0  0  0  0  0  0  0  0  0
   43.8087   -3.6061   26.6690 H   0  0  0  0  0  0  0  0  0  0  0  0
   43.2853   -5.1980   26.3532 H   0  0  0  0  0  0  0  0  0  0  0  0
   43.1253   -0.4361   33.9965 C   0  0  0  0  0  0  0  0  0  0  0  0
   42.1153   -0.7565   34.9124 C   0  0  0  0  0  0  0  0  0  0  0  0
   42.0848   -0.1698   36.1803 C   0  0  0  0  0  0  0  0  0  0  0  0
   43.0563    0.7337   36.5471 C   0  0  0  0  0  0  0  0  0  0  0  0
   44.0869    1.0894   35.6750 C   0  0  0  0  0  0  0  0  0  0  0  0
   44.1232    0.4953   34.3844 C   0  0  0  0  0  0  0  0  0  0  0  0
   45.1236    0.8169   33.4762 O   0  0  0  0  0  0  0  0  0  0  0  0
   45.0314    2.0230   36.1136 O   0  0  0  0  0  0  0  0  0  0  0  0
   46.3866    0.4003   37.4003 C   0  0  0  0  0  0  0  0  0  0  0  0
   47.2756    0.1942   38.6961 C   0  0  0  0  0  0  0  0  0  0  0  0
   46.5314    0.6454   39.9469 C   0  0  0  0  0  0  0  0  0  0  0  0
   45.9950    2.0918   39.7255 C   0  0  0  0  0  0  0  0  0  0  0  0
   45.0166    2.1420   38.5116 C   0  0  0  0  0  0  0  0  0  0  0  0
   45.8781    1.8626   37.2713 C   0  0  0  0  0  0  0  0  0  0  0  0
   47.2797    0.1001   36.2238 C   0  0  0  0  0  0  0  0  0  0  0  0
  1  2  2  0  0  0
  1  7  1  0  0  0
  1 12  1  0  0  0
  2  3  1  0  0  0
  2  4  1  0  0  0
  4  5  2  0  0  0
  5  6  1  0  0  0
  5  8  1  0  0  0
  6  7  2  0  0  0
  6  9  1  0  0  0
 12 13  1  0  0  0
 12 14  2  0  0  0
  8 10  1  0  0  0
  9 10  2  0  0  0
 10 19  1  0  0  0
 19 20  2  0  0  0
 19 24  1  0  0  0
 20 21  1  0  0  0
 21 22  2  0  0  0
 22 23  1  0  0  0
 23 24  2  0  0  0
 23 26  1  0  0  0
 24 25  1  0  0  0
 26 32  1  0  0  0
 27 28  1  0  0  0
 27 32  1  0  0  0
 27 33  1  0  0  0
 28 29  1  0  0  0
 29 30  1  0  0  0
 30 31  1  0  0  0
 31 32  1  0  0  0
 13 15  1  0  0  0
 13 16  1  0  0  0
 14 17  1  0  0  0
 14 18  1  0  0  0
  8 11  1  0  0  0
M  CHG 1  14   1
M  CHG 1  25  -1
M  END
> <minimizedAffinity>
-7.78873

$$$$
1O2R_CR9_A_246


 33 36  0  0  0  0  0  0  0  0999 V2000
   44.0045   -2.9469   26.2360 C   0  0  0  0  0  0  0  0  0  0  0  0
   44.4103   -1.5927   26.1439 C   0  0  0  0  0  0  0  0  0  0  0  0
   45.0932   -1.1327   25.0427 F   0  0  0  0  0  0  0  0  0  0  0  0
   44.1004   -0.6910   27.1575 C   0  0  0  0  0  0  0  0  0  0  0  0
   43.3809   -1.1504   28.2409 C   0  0  0  0  0  0  0  0  0  0  0  0
   42.9796   -2.4278   28.3600 C   0  0  0  0  0  0  0  0  0  0  0  0
   43.2822   -3.3616   27.3616 C   0  0  0  0  0  0  0  0  0  0  0  0
   42.9613   -0.5676   29.3064 N   0  0  0  0  0  0  0  0  0  0  0  0
   42.3132   -2.6634   29.4776 N   0  0  0  0  0  0  0  0  0  0  0  0
   42.3410   -1.4563   30.0224 C   0  0  0  0  0  0  0  0  0  0  0  0
   43.0872    0.3809   29.5382 H   0  0  0  0  0  0  0  0  0  0  0  0
   44.3226   -3.8671   25.2264 C   0  0  0  0  0  0  0  0  0  0  0  0
   44.4669   -3.4840   23.9749 N   0  0  0  0  0  0  0  0  0  0  0  0
   44.4629   -5.1307   25.5690 N   0  0  0  0  0  0  0  0  0  0  0  0
   44.3587   -2.5353   23.7349 H   0  0  0  0  0  0  0  0  0  0  0  0
   44.6829   -4.1462   23.2792 H   0  0  0  0  0  0  0  0  0  0  0  0
   44.3518   -5.4012   26.5091 H   0  0  0  0  0  0  0  0  0  0  0  0
   44.6789   -5.8051   24.8850 H   0  0  0  0  0  0  0  0  0  0  0  0
   41.7026   -1.1218   31.2418 C   0  0  0  0  0  0  0  0  0  0  0  0
   40.3122   -1.2440   31.3565 C   0  0  0  0  0  0  0  0  0  0  0  0
   39.6596   -0.9175   32.5481 C   0  0  0  0  0  0  0  0  0  0  0  0
   40.3820   -0.4719   33.6319 C   0  0  0  0  0  0  0  0  0  0  0  0
   41.7698   -0.3317   33.5743 C   0  0  0  0  0  0  0  0  0  0  0  0
   42.4388   -0.6630   32.3649 C   0  0  0  0  0  0  0  0  0  0  0  0
   43.8174   -0.5379   32.2520 O   0  0  0  0  0  0  0  0  0  0  0  0
   42.4345    0.1379   34.7117 O   0  0  0  0  0  0  0  0  0  0  0  0
   43.4797    0.0216   36.9521 C   0  0  0  0  0  0  0  0  0  0  0  0
   43.3821   -0.6265   38.3952 C   0  0  0  0  0  0  0  0  0  0  0  0
   43.2770   -2.1440   38.3068 C   0  0  0  0  0  0  0  0  0  0  0  0
   42.1255   -2.5177   37.3254 C   0  0  0  0  0  0  0  0  0  0  0  0
   42.4034   -1.9482   35.8999 C   0  0  0  0  0  0  0  0  0  0  0  0
   42.3059   -0.4215   36.0358 C   0  0  0  0  0  0  0  0  0  0  0  0
   43.3918    1.5129   37.1525 C   0  0  0  0  0  0  0  0  0  0  0  0
  1  2  2  0  0  0
  1  7  1  0  0  0
  1 12  1  0  0  0
  2  3  1  0  0  0
  2  4  1  0  0  0
  4  5  2  0  0  0
  5  6  1  0  0  0
  5  8  1  0  0  0
  6  7  2  0  0  0
  6  9  1  0  0  0
 12 13  1  0  0  0
 12 14  2  0  0  0
  8 10  1  0  0  0
  9 10  2  0  0  0
 10 19  1  0  0  0
 19 20  2  0  0  0
 19 24  1  0  0  0
 20 21  1  0  0  0
 21 22  2  0  0  0
 22 23  1  0  0  0
 23 24  2  0  0  0
 23 26  1  0  0  0
 24 25  1  0  0  0
 26 32  1  0  0  0
 27 28  1  0  0  0
 27 32  1  0  0  0
 27 33  1  0  0  0
 28 29  1  0  0  0
 29 30  1  0  0  0
 30 31  1  0  0  0
 31 32  1  0  0  0
 13 15  1  0  0  0
 13 16  1  0  0  0
 14 17  1  0  0  0
 14 18  1  0  0  0
  8 11  1  0  0  0
M  CHG 1  14   1
M  CHG 1  25  -1
M  END
> <minimizedAffinity>
-7.67484

$$$$
1O2R_CR9_A_246


 33 36  0  0  0  0  0  0  0  0999 V2000
   43.9238   -2.5435   26.1229 C   0  0  0  0  0  0  0  0  0  0  0  0
   43.9497   -3.9337   26.3941 C   0  0  0  0  0  0  0  0  0  0  0  0
   44.2350   -4.8423   25.4023 F   0  0  0  0  0  0  0  0  0  0  0  0
   43.7134   -4.4079   27.6810 C   0  0  0  0  0  0  0  0  0  0  0  0
   43.4668   -3.4885   28.6791 C   0  0  0  0  0  0  0  0  0  0  0  0
   43.4355   -2.1630   28.4571 C   0  0  0  0  0  0  0  0  0  0  0  0
   43.6613   -1.6543   27.1723 C   0  0  0  0  0  0  0  0  0  0  0  0
   43.2155   -3.6233   29.9320 N   0  0  0  0  0  0  0  0  0  0  0  0
   43.1721   -1.4578   29.5442 N   0  0  0  0  0  0  0  0  0  0  0  0
   43.0440   -2.4354   30.4288 C   0  0  0  0  0  0  0  0  0  0  0  0
   43.1625   -4.4732   30.4261 H   0  0  0  0  0  0  0  0  0  0  0  0
   44.1478   -2.0555   24.8273 C   0  0  0  0  0  0  0  0  0  0  0  0
   43.7825   -0.8378   24.4843 N   0  0  0  0  0  0  0  0  0  0  0  0
   44.7275   -2.8589   23.9599 N   0  0  0  0  0  0  0  0  0  0  0  0
   43.3502   -0.2492   25.1446 H   0  0  0  0  0  0  0  0  0  0  0  0
   43.9417   -0.5159   23.5676 H   0  0  0  0  0  0  0  0  0  0  0  0
   44.9947   -3.7666   24.2319 H   0  0  0  0  0  0  0  0  0  0  0  0
   44.8936   -2.5519   23.0393 H   0  0  0  0  0  0  0  0  0  0  0  0
   42.8081   -2.2291   31.8102 C   0  0  0  0  0  0  0  0  0  0  0  0
   42.5264   -3.3220   32.6395 C   0  0  0  0  0  0  0  0  0  0  0  0
   42.2876   -3.1433   34.0046 C   0  0  0  0  0  0  0  0  0  0  0  0
   42.3303   -1.8820   34.5543 C   0  0  0  0  0  0  0  0  0  0  0  0
   42.6071   -0.7570   33.7753 C   0  0  0  0  0  0  0  0  0  0  0  0
   42.8514   -0.9330   32.3863 C   0  0  0  0  0  0  0  0  0  0  0  0
   43.1272    0.1524   31.5648 O   0  0  0  0  0  0  0  0  0  0  0  0
   42.6219    0.4934   34.4016 O   0  0  0  0  0  0  0  0  0  0  0  0
   44.9182    0.2909   35.3024 C   0  0  0  0  0  0  0  0  0  0  0  0
   45.8663    0.6398   36.5236 C   0  0  0  0  0  0  0  0  0  0  0  0
   45.2520    0.1817   37.8406 C   0  0  0  0  0  0  0  0  0  0  0  0
   43.7979    0.7332   37.9426 C   0  0  0  0  0  0  0  0  0  0  0  0
   42.9195    0.2051   36.7665 C   0  0  0  0  0  0  0  0  0  0  0  0
   43.4858    0.8600   35.4980 C   0  0  0  0  0  0  0  0  0  0  0  0
   45.5310    0.9469   34.0915 C   0  0  0  0  0  0  0  0  0  0  0  0
  1  2  2  0  0  0
  1  7  1  0  0  0
  1 12  1  0  0  0
  2  3  1  0  0  0
  2  4  1  0  0  0
  4  5  2  0  0  0
  5  6  1  0  0  0
  5  8  1  0  0  0
  6  7  2  0  0  0
  6  9  1  0  0  0
 12 13  1  0  0  0
 12 14  2  0  0  0
  8 10  1  0  0  0
  9 10  2  0  0  0
 10 19  1  0  0  0
 19 20  2  0  0  0
 19 24  1  0  0  0
 20 21  1  0  0  0
 21 22  2  0  0  0
 22 23  1  0  0  0
 23 24  2  0  0  0
 23 26  1  0  0  0
 24 25  1  0  0  0
 26 32  1  0  0  0
 27 28  1  0  0  0
 27 32  1  0  0  0
 27 33  1  0  0  0
 28 29  1  0  0  0
 29 30  1  0  0  0
 30 31  1  0  0  0
 31 32  1  0  0  0
 13 15  1  0  0  0
 13 16  1  0  0  0
 14 17  1  0  0  0
 14 18  1  0  0  0
  8 11  1  0  0  0
M  CHG 1  14   1
M  CHG 1  25  -1
M  END
> <minimizedAffinity>
-7.63433

$$$$
