6D2O_4MZ_A_302


  7  7  0  0  0  0  0  0  0  0999 V2000
  -28.6831   10.8138  -15.3473 C   0  0  0  0  0  0  0  0  0  0  0  0
  -27.6836   10.0162  -15.7461 N   0  0  0  0  0  0  0  0  0  0  0  0
  -29.3702   11.2775  -16.4821 C   0  0  0  0  0  0  0  0  0  0  0  0
  -27.7349    9.9894  -17.0699 C   0  0  0  0  0  0  0  0  0  0  0  0
  -28.7338   10.7366  -17.5314 N   0  0  0  0  0  0  0  0  0  0  0  0
  -29.0259   11.1335  -13.9322 C   0  0  0  0  0  0  0  0  0  0  0  0
  -28.9658   10.8696  -18.4789 H   0  0  0  0  0  0  0  0  0  0  0  0
  1  2  1  0  0  0
  1  3  2  0  0  0
  1  6  1  0  0  0
  2  4  2  0  0  0
  3  5  1  0  0  0
  4  5  1  0  0  0
  5  7  1  0  0  0
M  END
> <minimizedAffinity>
-2.85620

$$$$
6D2O_4MZ_A_302


  7  7  0  0  0  0  0  0  0  0999 V2000
  -28.7321   11.6858  -18.0465 C   0  0  0  0  0  0  0  0  0  0  0  0
  -27.6083   11.1234  -17.5826 N   0  0  0  0  0  0  0  0  0  0  0  0
  -29.8292   10.9160  -17.6236 C   0  0  0  0  0  0  0  0  0  0  0  0
  -27.9825   10.0453  -16.9092 C   0  0  0  0  0  0  0  0  0  0  0  0
  -29.3046    9.9010  -16.9215 N   0  0  0  0  0  0  0  0  0  0  0  0
  -28.8069   12.9366  -18.8539 C   0  0  0  0  0  0  0  0  0  0  0  0
  -29.8104    9.1749  -16.4900 H   0  0  0  0  0  0  0  0  0  0  0  0
  1  2  1  0  0  0
  1  3  2  0  0  0
  1  6  1  0  0  0
  2  4  2  0  0  0
  3  5  1  0  0  0
  4  5  1  0  0  0
  5  7  1  0  0  0
M  END
> <minimizedAffinity>
-2.57620

$$$$
6D2O_4MZ_A_302


  7  7  0  0  0  0  0  0  0  0999 V2000
  -28.6247   12.0316  -13.1337 C   0  0  0  0  0  0  0  0  0  0  0  0
  -28.6646   10.9993  -13.9862 N   0  0  0  0  0  0  0  0  0  0  0  0
  -28.4954   13.2208  -13.8714 C   0  0  0  0  0  0  0  0  0  0  0  0
  -28.5547   11.5160  -15.2014 C   0  0  0  0  0  0  0  0  0  0  0  0
  -28.4511   12.8413  -15.1569 N   0  0  0  0  0  0  0  0  0  0  0  0
  -28.7286   11.9358  -11.6497 C   0  0  0  0  0  0  0  0  0  0  0  0
  -28.3582   13.4398  -15.9330 H   0  0  0  0  0  0  0  0  0  0  0  0
  1  2  1  0  0  0
  1  3  2  0  0  0
  1  6  1  0  0  0
  2  4  2  0  0  0
  3  5  1  0  0  0
  4  5  1  0  0  0
  5  7  1  0  0  0
M  END
> <minimizedAffinity>
-2.56949

$$$$
6D2O_4MZ_A_302


  7  7  0  0  0  0  0  0  0  0999 V2000
  -29.6007    9.9701  -16.3109 C   0  0  0  0  0  0  0  0  0  0  0  0
  -30.3241   10.6838  -17.1835 N   0  0  0  0  0  0  0  0  0  0  0  0
  -28.2387   10.1266  -16.6199 C   0  0  0  0  0  0  0  0  0  0  0  0
  -29.4567   11.2529  -18.0079 C   0  0  0  0  0  0  0  0  0  0  0  0
  -28.2052   10.9331  -17.6908 N   0  0  0  0  0  0  0  0  0  0  0  0
  -30.1495    9.1656  -15.1822 C   0  0  0  0  0  0  0  0  0  0  0  0
  -27.3949   11.2359  -18.1608 H   0  0  0  0  0  0  0  0  0  0  0  0
  1  2  1  0  0  0
  1  3  2  0  0  0
  1  6  1  0  0  0
  2  4  2  0  0  0
  3  5  1  0  0  0
  4  5  1  0  0  0
  5  7  1  0  0  0
M  END
> <minimizedAffinity>
-2.52716

$$$$
6D2O_4MZ_A_302


  7  7  0  0  0  0  0  0  0  0999 V2000
  -28.4744   10.7390  -16.5955 C   0  0  0  0  0  0  0  0  0  0  0  0
  -27.7445   10.1518  -15.6381 N   0  0  0  0  0  0  0  0  0  0  0  0
  -29.8182   10.3607  -16.4338 C   0  0  0  0  0  0  0  0  0  0  0  0
  -28.5895    9.4305  -14.9159 C   0  0  0  0  0  0  0  0  0  0  0  0
  -29.8335    9.5393  -15.3739 N   0  0  0  0  0  0  0  0  0  0  0  0
  -27.9508   11.6626  -17.6419 C   0  0  0  0  0  0  0  0  0  0  0  0
  -30.6278    9.0940  -14.9996 H   0  0  0  0  0  0  0  0  0  0  0  0
  1  2  1  0  0  0
  1  3  2  0  0  0
  1  6  1  0  0  0
  2  4  2  0  0  0
  3  5  1  0  0  0
  4  5  1  0  0  0
  5  7  1  0  0  0
M  END
> <minimizedAffinity>
-2.51055

$$$$
6D2O_4MZ_A_302


  7  7  0  0  0  0  0  0  0  0999 V2000
  -28.3916   10.9532  -15.6897 C   0  0  0  0  0  0  0  0  0  0  0  0
  -28.5247   10.4964  -14.4376 N   0  0  0  0  0  0  0  0  0  0  0  0
  -28.5609   12.3483  -15.6811 C   0  0  0  0  0  0  0  0  0  0  0  0
  -28.7764   11.5545  -13.6805 C   0  0  0  0  0  0  0  0  0  0  0  0
  -28.8038   12.6713  -14.4024 N   0  0  0  0  0  0  0  0  0  0  0  0
  -28.0866   10.1215  -16.8887 C   0  0  0  0  0  0  0  0  0  0  0  0
  -28.9731   13.5778  -14.0578 H   0  0  0  0  0  0  0  0  0  0  0  0
  1  2  1  0  0  0
  1  3  2  0  0  0
  1  6  1  0  0  0
  2  4  2  0  0  0
  3  5  1  0  0  0
  4  5  1  0  0  0
  5  7  1  0  0  0
M  END
> <minimizedAffinity>
-2.50255

$$$$
6D2O_4MZ_A_302


  7  7  0  0  0  0  0  0  0  0999 V2000
  -28.2366   11.0178  -16.3031 C   0  0  0  0  0  0  0  0  0  0  0  0
  -27.6554   10.9605  -17.5086 N   0  0  0  0  0  0  0  0  0  0  0  0
  -28.5693   12.3549  -16.0261 C   0  0  0  0  0  0  0  0  0  0  0  0
  -27.6158   12.2050  -17.9619 C   0  0  0  0  0  0  0  0  0  0  0  0
  -28.1551   13.0548  -17.0924 N   0  0  0  0  0  0  0  0  0  0  0  0
  -28.5098    9.8519  -15.4154 C   0  0  0  0  0  0  0  0  0  0  0  0
  -28.2361   14.0288  -17.2111 H   0  0  0  0  0  0  0  0  0  0  0  0
  1  2  1  0  0  0
  1  3  2  0  0  0
  1  6  1  0  0  0
  2  4  2  0  0  0
  3  5  1  0  0  0
  4  5  1  0  0  0
  5  7  1  0  0  0
M  END
> <minimizedAffinity>
-2.45841

$$$$
6D2O_4MZ_A_302


  7  7  0  0  0  0  0  0  0  0999 V2000
  -30.0836   10.5944  -17.3865 C   0  0  0  0  0  0  0  0  0  0  0  0
  -29.2921    9.7674  -16.6909 N   0  0  0  0  0  0  0  0  0  0  0  0
  -29.2770   11.5081  -18.0863 C   0  0  0  0  0  0  0  0  0  0  0  0
  -28.0475   10.1512  -16.9347 C   0  0  0  0  0  0  0  0  0  0  0  0
  -28.0145   11.1900  -17.7647 N   0  0  0  0  0  0  0  0  0  0  0  0
  -31.5725   10.5365  -17.4319 C   0  0  0  0  0  0  0  0  0  0  0  0
  -27.2038   11.6463  -18.0870 H   0  0  0  0  0  0  0  0  0  0  0  0
  1  2  1  0  0  0
  1  3  2  0  0  0
  1  6  1  0  0  0
  2  4  2  0  0  0
  3  5  1  0  0  0
  4  5  1  0  0  0
  5  7  1  0  0  0
M  END
> <minimizedAffinity>
-2.44193

$$$$
6D2O_4MZ_A_302


  7  7  0  0  0  0  0  0  0  0999 V2000
  -30.0773   10.1981  -16.8557 C   0  0  0  0  0  0  0  0  0  0  0  0
  -31.0660    9.3091  -16.6932 N   0  0  0  0  0  0  0  0  0  0  0  0
  -29.2406   10.1530  -15.7274 C   0  0  0  0  0  0  0  0  0  0  0  0
  -30.8647    8.7404  -15.5134 C   0  0  0  0  0  0  0  0  0  0  0  0
  -29.7806    9.2300  -14.9182 N   0  0  0  0  0  0  0  0  0  0  0  0
  -29.8824   11.0705  -18.0486 C   0  0  0  0  0  0  0  0  0  0  0  0
  -29.4347    8.9614  -14.0365 H   0  0  0  0  0  0  0  0  0  0  0  0
  1  2  1  0  0  0
  1  3  2  0  0  0
  1  6  1  0  0  0
  2  4  2  0  0  0
  3  5  1  0  0  0
  4  5  1  0  0  0
  5  7  1  0  0  0
M  END
> <minimizedAffinity>
-2.38164

$$$$
6D2O_4MZ_A_302


  7  7  0  0  0  0  0  0  0  0999 V2000
  -29.1603   10.5479  -17.2683 C   0  0  0  0  0  0  0  0  0  0  0  0
  -29.0955   11.3701  -18.3238 N   0  0  0  0  0  0  0  0  0  0  0  0
  -30.5051   10.2060  -17.0450 C   0  0  0  0  0  0  0  0  0  0  0  0
  -30.3425   11.5442  -18.7367 C   0  0  0  0  0  0  0  0  0  0  0  0
  -31.2013   10.8593  -17.9868 N   0  0  0  0  0  0  0  0  0  0  0  0
  -27.9953   10.0557  -16.4792 C   0  0  0  0  0  0  0  0  0  0  0  0
  -32.1787   10.8359  -18.1030 H   0  0  0  0  0  0  0  0  0  0  0  0
  1  2  1  0  0  0
  1  3  2  0  0  0
  1  6  1  0  0  0
  2  4  2  0  0  0
  3  5  1  0  0  0
  4  5  1  0  0  0
  5  7  1  0  0  0
M  END
> <minimizedAffinity>
-2.31382

$$$$
