3SK2_GRI_A_130


 22 24  0  0  0  0  0  0  0  0999 V2000
    3.4958   82.1267   26.3303 C   0  0  0  0  0  0  0  0  0  0  0  0
    2.2101   81.9516   26.7943 C   0  0  0  0  0  0  0  0  0  0  0  0
    1.2915   88.3148   23.3751 C   0  0  0  0  0  0  0  0  0  0  0  0
   -0.0108   88.0963   23.8530 C   0  0  0  0  0  0  0  0  0  0  0  0
    3.7670   83.1989   25.5215 C   0  0  0  0  0  0  0  0  0  0  0  0
    2.9796   85.2076   24.4671 N   0  0  0  0  0  0  0  0  0  0  0  0
    0.4531   84.8305   25.3935 N   0  0  0  0  0  0  0  0  0  0  0  0
    2.3012   87.3476   23.5746 C   0  0  0  0  0  0  0  0  0  0  0  0
   -0.3044   86.8944   24.5240 C   0  0  0  0  0  0  0  0  0  0  0  0
    1.2143   82.8516   26.4893 C   0  0  0  0  0  0  0  0  0  0  0  0
    2.7536   84.1320   25.2336 C   0  0  0  0  0  0  0  0  0  0  0  0
    2.0184   86.1666   24.2476 C   0  0  0  0  0  0  0  0  0  0  0  0
    1.4487   83.9444   25.6987 C   0  0  0  0  0  0  0  0  0  0  0  0
    0.7101   85.9533   24.7164 C   0  0  0  0  0  0  0  0  0  0  0  0
   -0.3322   83.0755   28.2570 O   0  0  0  0  0  0  0  0  0  0  0  0
   -1.0145   81.9438   26.3960 O   0  0  0  0  0  0  0  0  0  0  0  0
   -0.0906   82.5819   27.0736 C   0  0  0  0  0  0  0  0  0  0  0  0
   -0.8183   81.5977   25.5477 H   0  0  0  0  0  0  0  0  0  0  0  0
   -2.2721   87.2378   26.1559 C   0  0  0  0  0  0  0  0  0  0  0  0
   -1.5899   86.6307   25.0048 O   0  0  0  0  0  0  0  0  0  0  0  0
    4.0830   89.0174   22.6196 O   0  0  0  0  0  0  0  0  0  0  0  0
    3.7257   87.6433   23.0794 C   0  0  0  0  0  0  0  0  0  0  0  0
 20 19  1  0  0  0
 15 17  2  0  0  0
 21 22  2  0  0  0
 17 16  1  0  0  0
  2  1  2  0  0  0
  1  5  1  0  0  0
  2 10  1  0  0  0
  8  3  2  0  0  0
  4  3  1  0  0  0
  9  4  2  0  0  0
  5 11  2  0  0  0
  8 22  1  0  0  0
 11  6  1  0  0  0
  6 12  2  0  0  0
 13  7  1  0  0  0
  7 14  2  0  0  0
 20  9  1  0  0  0
 17 10  1  0  0  0
 12  8  1  0  0  0
 14  9  1  0  0  0
 10 13  2  0  0  0
 13 11  1  0  0  0
 14 12  1  0  0  0
 16 18  1  0  0  0
M  END
> <minimizedAffinity>
-8.74938

$$$$
3SK2_GRI_A_130


 22 24  0  0  0  0  0  0  0  0999 V2000
   -0.1567   88.8528   23.3314 C   0  0  0  0  0  0  0  0  0  0  0  0
    1.1884   88.5821   23.2032 C   0  0  0  0  0  0  0  0  0  0  0  0
   -0.7440   82.7458   27.1055 C   0  0  0  0  0  0  0  0  0  0  0  0
    0.6284   82.4960   26.9431 C   0  0  0  0  0  0  0  0  0  0  0  0
   -0.9619   87.9292   23.9446 C   0  0  0  0  0  0  0  0  0  0  0  0
   -1.1431   85.8407   25.1159 N   0  0  0  0  0  0  0  0  0  0  0  0
    1.5124   85.3344   24.8417 N   0  0  0  0  0  0  0  0  0  0  0  0
   -1.3474   83.8658   26.4922 C   0  0  0  0  0  0  0  0  0  0  0  0
    1.3970   83.3686   26.1501 C   0  0  0  0  0  0  0  0  0  0  0  0
    1.7334   87.4248   23.7115 C   0  0  0  0  0  0  0  0  0  0  0  0
   -0.3977   86.7596   24.4871 C   0  0  0  0  0  0  0  0  0  0  0  0
   -0.5897   84.7359   25.7200 C   0  0  0  0  0  0  0  0  0  0  0  0
    0.9657   86.4853   24.3457 C   0  0  0  0  0  0  0  0  0  0  0  0
    0.7821   84.4741   25.5571 C   0  0  0  0  0  0  0  0  0  0  0  0
    3.7571   88.0127   22.6506 O   0  0  0  0  0  0  0  0  0  0  0  0
    3.8596   86.4885   24.3465 O   0  0  0  0  0  0  0  0  0  0  0  0
    3.1717   87.2731   23.5521 C   0  0  0  0  0  0  0  0  0  0  0  0
    3.4177   85.9662   24.9867 H   0  0  0  0  0  0  0  0  0  0  0  0
    3.5919   82.0507   26.4642 C   0  0  0  0  0  0  0  0  0  0  0  0
    2.7631   83.1505   25.9517 O   0  0  0  0  0  0  0  0  0  0  0  0
   -3.2630   85.1625   27.7268 O   0  0  0  0  0  0  0  0  0  0  0  0
   -2.8417   84.1327   26.7322 C   0  0  0  0  0  0  0  0  0  0  0  0
 20 19  1  0  0  0
 15 17  2  0  0  0
 21 22  2  0  0  0
 17 16  1  0  0  0
  2  1  2  0  0  0
  1  5  1  0  0  0
  2 10  1  0  0  0
  8  3  2  0  0  0
  4  3  1  0  0  0
  9  4  2  0  0  0
  5 11  2  0  0  0
  8 22  1  0  0  0
 11  6  1  0  0  0
  6 12  2  0  0  0
 13  7  1  0  0  0
  7 14  2  0  0  0
 20  9  1  0  0  0
 17 10  1  0  0  0
 12  8  1  0  0  0
 14  9  1  0  0  0
 10 13  2  0  0  0
 13 11  1  0  0  0
 14 12  1  0  0  0
 16 18  1  0  0  0
M  END
> <minimizedAffinity>
-8.18416

$$$$
3SK2_GRI_A_130


 22 24  0  0  0  0  0  0  0  0999 V2000
    2.9418   88.2906   22.7885 C   0  0  0  0  0  0  0  0  0  0  0  0
    1.6103   88.5917   22.9767 C   0  0  0  0  0  0  0  0  0  0  0  0
    1.7894   82.1812   26.4262 C   0  0  0  0  0  0  0  0  0  0  0  0
    0.4409   82.5276   26.6098 C   0  0  0  0  0  0  0  0  0  0  0  0
    3.4552   87.1649   23.3772 C   0  0  0  0  0  0  0  0  0  0  0  0
    3.0618   85.1835   24.6758 N   0  0  0  0  0  0  0  0  0  0  0  0
    0.4417   85.8088   25.0326 N   0  0  0  0  0  0  0  0  0  0  0  0
    2.6773   83.0696   25.7801 C   0  0  0  0  0  0  0  0  0  0  0  0
   -0.0161   83.7781   26.1536 C   0  0  0  0  0  0  0  0  0  0  0  0
    0.7900   87.7645   23.7097 C   0  0  0  0  0  0  0  0  0  0  0  0
    2.6082   86.3069   24.1034 C   0  0  0  0  0  0  0  0  0  0  0  0
    2.2268   84.2985   25.3170 C   0  0  0  0  0  0  0  0  0  0  0  0
    1.2606   86.6222   24.2995 C   0  0  0  0  0  0  0  0  0  0  0  0
    0.8768   84.6398   25.5115 C   0  0  0  0  0  0  0  0  0  0  0  0
   -1.0270   89.0665   22.9548 O   0  0  0  0  0  0  0  0  0  0  0  0
   -1.4234   87.5803   24.6412 O   0  0  0  0  0  0  0  0  0  0  0  0
   -0.6054   88.1668   23.8005 C   0  0  0  0  0  0  0  0  0  0  0  0
   -1.0981   86.9369   25.2397 H   0  0  0  0  0  0  0  0  0  0  0  0
   -2.5643   83.4503   25.9247 C   0  0  0  0  0  0  0  0  0  0  0  0
   -1.3469   84.1682   26.3268 O   0  0  0  0  0  0  0  0  0  0  0  0
    4.8830   81.9484   26.6477 O   0  0  0  0  0  0  0  0  0  0  0  0
    4.1342   82.6355   25.5548 C   0  0  0  0  0  0  0  0  0  0  0  0
 20 19  1  0  0  0
 15 17  2  0  0  0
 21 22  2  0  0  0
 17 16  1  0  0  0
  2  1  2  0  0  0
  1  5  1  0  0  0
  2 10  1  0  0  0
  8  3  2  0  0  0
  4  3  1  0  0  0
  9  4  2  0  0  0
  5 11  2  0  0  0
  8 22  1  0  0  0
 11  6  1  0  0  0
  6 12  2  0  0  0
 13  7  1  0  0  0
  7 14  2  0  0  0
 20  9  1  0  0  0
 17 10  1  0  0  0
 12  8  1  0  0  0
 14  9  1  0  0  0
 10 13  2  0  0  0
 13 11  1  0  0  0
 14 12  1  0  0  0
 16 18  1  0  0  0
M  END
> <minimizedAffinity>
-8.01668

$$$$
3SK2_GRI_A_130


 22 24  0  0  0  0  0  0  0  0999 V2000
    2.1939   83.0732   25.8795 C   0  0  0  0  0  0  0  0  0  0  0  0
    1.0518   82.6422   26.5191 C   0  0  0  0  0  0  0  0  0  0  0  0
   -1.3616   89.1051   24.1886 C   0  0  0  0  0  0  0  0  0  0  0  0
   -2.5111   88.6272   24.8385 C   0  0  0  0  0  0  0  0  0  0  0  0
    2.1594   84.2567   25.1900 C   0  0  0  0  0  0  0  0  0  0  0  0
    0.9180   86.2133   24.5598 N   0  0  0  0  0  0  0  0  0  0  0  0
   -1.3188   85.3324   25.8264 N   0  0  0  0  0  0  0  0  0  0  0  0
   -0.2063   88.2988   24.0879 C   0  0  0  0  0  0  0  0  0  0  0  0
   -2.5053   87.3279   25.3795 C   0  0  0  0  0  0  0  0  0  0  0  0
   -0.0996   83.3962   26.5052 C   0  0  0  0  0  0  0  0  0  0  0  0
    0.9892   85.0384   25.2002 C   0  0  0  0  0  0  0  0  0  0  0  0
   -0.1926   87.0215   24.6319 C   0  0  0  0  0  0  0  0  0  0  0  0
   -0.1695   84.5919   25.8422 C   0  0  0  0  0  0  0  0  0  0  0  0
   -1.3503   86.5488   25.2746 C   0  0  0  0  0  0  0  0  0  0  0  0
   -1.3916   81.5622   27.2357 O   0  0  0  0  0  0  0  0  0  0  0  0
   -1.9849   83.6350   27.9848 O   0  0  0  0  0  0  0  0  0  0  0  0
   -1.2251   82.8562   27.2527 C   0  0  0  0  0  0  0  0  0  0  0  0
   -1.8470   84.5618   27.9813 H   0  0  0  0  0  0  0  0  0  0  0  0
   -4.8186   86.1878   25.4194 C   0  0  0  0  0  0  0  0  0  0  0  0
   -3.6316   86.8083   26.0234 O   0  0  0  0  0  0  0  0  0  0  0  0
    1.3093   88.5951   21.9689 O   0  0  0  0  0  0  0  0  0  0  0  0
    1.0480   88.8740   23.4115 C   0  0  0  0  0  0  0  0  0  0  0  0
 20 19  1  0  0  0
 15 17  2  0  0  0
 21 22  2  0  0  0
 17 16  1  0  0  0
  2  1  2  0  0  0
  1  5  1  0  0  0
  2 10  1  0  0  0
  8  3  2  0  0  0
  4  3  1  0  0  0
  9  4  2  0  0  0
  5 11  2  0  0  0
  8 22  1  0  0  0
 11  6  1  0  0  0
  6 12  2  0  0  0
 13  7  1  0  0  0
  7 14  2  0  0  0
 20  9  1  0  0  0
 17 10  1  0  0  0
 12  8  1  0  0  0
 14  9  1  0  0  0
 10 13  2  0  0  0
 13 11  1  0  0  0
 14 12  1  0  0  0
 16 18  1  0  0  0
M  END
> <minimizedAffinity>
-7.36643

$$$$
3SK2_GRI_A_130


 22 24  0  0  0  0  0  0  0  0999 V2000
    0.7464   83.0127   26.4402 C   0  0  0  0  0  0  0  0  0  0  0  0
   -0.5671   83.4000   26.5943 C   0  0  0  0  0  0  0  0  0  0  0  0
    1.8703   89.2005   22.9285 C   0  0  0  0  0  0  0  0  0  0  0  0
    0.5217   89.5560   23.0930 C   0  0  0  0  0  0  0  0  0  0  0  0
    1.5853   83.7998   25.6959 C   0  0  0  0  0  0  0  0  0  0  0  0
    1.9055   85.8255   24.4467 N   0  0  0  0  0  0  0  0  0  0  0  0
   -0.6918   86.5579   24.7643 N   0  0  0  0  0  0  0  0  0  0  0  0
    2.3424   87.9475   23.3778 C   0  0  0  0  0  0  0  0  0  0  0  0
   -0.3608   88.6434   23.7007 C   0  0  0  0  0  0  0  0  0  0  0  0
   -1.0320   84.5743   26.0470 C   0  0  0  0  0  0  0  0  0  0  0  0
    1.1144   85.0132   25.1605 C   0  0  0  0  0  0  0  0  0  0  0  0
    1.4775   87.0501   23.9894 C   0  0  0  0  0  0  0  0  0  0  0  0
   -0.2215   85.3965   25.3114 C   0  0  0  0  0  0  0  0  0  0  0  0
    0.1276   87.4116   24.1436 C   0  0  0  0  0  0  0  0  0  0  0  0
   -2.7916   84.9830   27.5647 O   0  0  0  0  0  0  0  0  0  0  0  0
   -3.2543   85.1735   25.3377 O   0  0  0  0  0  0  0  0  0  0  0  0
   -2.4255   84.8957   26.3154 C   0  0  0  0  0  0  0  0  0  0  0  0
   -2.9693   85.1038   24.4479 H   0  0  0  0  0  0  0  0  0  0  0  0
   -2.3998   90.2193   23.5906 C   0  0  0  0  0  0  0  0  0  0  0  0
   -1.7131   88.9513   23.8729 O   0  0  0  0  0  0  0  0  0  0  0  0
    4.8057   88.6919   22.8748 O   0  0  0  0  0  0  0  0  0  0  0  0
    3.8345   87.6137   23.2234 C   0  0  0  0  0  0  0  0  0  0  0  0
 20 19  1  0  0  0
 15 17  2  0  0  0
 21 22  2  0  0  0
 17 16  1  0  0  0
  2  1  2  0  0  0
  1  5  1  0  0  0
  2 10  1  0  0  0
  8  3  2  0  0  0
  4  3  1  0  0  0
  9  4  2  0  0  0
  5 11  2  0  0  0
  8 22  1  0  0  0
 11  6  1  0  0  0
  6 12  2  0  0  0
 13  7  1  0  0  0
  7 14  2  0  0  0
 20  9  1  0  0  0
 17 10  1  0  0  0
 12  8  1  0  0  0
 14  9  1  0  0  0
 10 13  2  0  0  0
 13 11  1  0  0  0
 14 12  1  0  0  0
 16 18  1  0  0  0
M  END
> <minimizedAffinity>
-7.20756

$$$$
3SK2_GRI_A_130


 22 24  0  0  0  0  0  0  0  0999 V2000
    2.8716   87.9047   23.1586 C   0  0  0  0  0  0  0  0  0  0  0  0
    1.6099   88.4581   23.1290 C   0  0  0  0  0  0  0  0  0  0  0  0
    0.0396   82.3235   26.7243 C   0  0  0  0  0  0  0  0  0  0  0  0
   -1.2292   82.9242   26.6864 C   0  0  0  0  0  0  0  0  0  0  0  0
    3.0659   86.7369   23.8484 C   0  0  0  0  0  0  0  0  0  0  0  0
    2.1107   84.9370   25.1190 N   0  0  0  0  0  0  0  0  0  0  0  0
   -0.3638   86.0572   25.0466 N   0  0  0  0  0  0  0  0  0  0  0  0
    1.1675   82.9947   26.2026 C   0  0  0  0  0  0  0  0  0  0  0  0
   -1.3646   84.2112   26.1331 C   0  0  0  0  0  0  0  0  0  0  0  0
    0.5463   87.8390   23.7455 C   0  0  0  0  0  0  0  0  0  0  0  0
    1.9716   86.0923   24.4548 C   0  0  0  0  0  0  0  0  0  0  0  0
    1.0354   84.2589   25.6441 C   0  0  0  0  0  0  0  0  0  0  0  0
    0.6957   86.6629   24.4301 C   0  0  0  0  0  0  0  0  0  0  0  0
   -0.2375   84.8554   25.6168 C   0  0  0  0  0  0  0  0  0  0  0  0
   -0.9179   89.2633   22.5648 O   0  0  0  0  0  0  0  0  0  0  0  0
   -1.7178   88.2584   24.4516 O   0  0  0  0  0  0  0  0  0  0  0  0
   -0.7435   88.4982   23.6072 C   0  0  0  0  0  0  0  0  0  0  0  0
   -1.5694   87.7056   25.1935 H   0  0  0  0  0  0  0  0  0  0  0  0
   -3.7315   84.5866   25.1794 C   0  0  0  0  0  0  0  0  0  0  0  0
   -2.6063   84.8508   26.0866 O   0  0  0  0  0  0  0  0  0  0  0  0
    2.7447   81.1050   27.1059 O   0  0  0  0  0  0  0  0  0  0  0  0
    2.5308   82.2856   26.2185 C   0  0  0  0  0  0  0  0  0  0  0  0
 20 19  1  0  0  0
 15 17  2  0  0  0
 21 22  2  0  0  0
 17 16  1  0  0  0
  2  1  2  0  0  0
  1  5  1  0  0  0
  2 10  1  0  0  0
  8  3  2  0  0  0
  4  3  1  0  0  0
  9  4  2  0  0  0
  5 11  2  0  0  0
  8 22  1  0  0  0
 11  6  1  0  0  0
  6 12  2  0  0  0
 13  7  1  0  0  0
  7 14  2  0  0  0
 20  9  1  0  0  0
 17 10  1  0  0  0
 12  8  1  0  0  0
 14  9  1  0  0  0
 10 13  2  0  0  0
 13 11  1  0  0  0
 14 12  1  0  0  0
 16 18  1  0  0  0
M  END
> <minimizedAffinity>
-7.19955

$$$$
3SK2_GRI_A_130


 22 24  0  0  0  0  0  0  0  0999 V2000
   -0.5398   82.7578   26.6783 C   0  0  0  0  0  0  0  0  0  0  0  0
    0.8024   82.4814   26.5329 C   0  0  0  0  0  0  0  0  0  0  0  0
    0.6166   88.8925   23.0849 C   0  0  0  0  0  0  0  0  0  0  0  0
    1.9816   88.5839   22.9678 C   0  0  0  0  0  0  0  0  0  0  0  0
   -1.0186   83.9634   26.2373 C   0  0  0  0  0  0  0  0  0  0  0  0
   -0.5833   86.0447   25.1214 N   0  0  0  0  0  0  0  0  0  0  0  0
    2.0595   85.4718   24.8553 N   0  0  0  0  0  0  0  0  0  0  0  0
   -0.2512   88.0460   23.8097 C   0  0  0  0  0  0  0  0  0  0  0  0
    2.4808   87.4255   23.5922 C   0  0  0  0  0  0  0  0  0  0  0  0
    1.6516   83.3766   25.9228 C   0  0  0  0  0  0  0  0  0  0  0  0
   -0.1536   84.8651   25.5897 C   0  0  0  0  0  0  0  0  0  0  0  0
    0.2353   86.8957   24.4159 C   0  0  0  0  0  0  0  0  0  0  0  0
    1.2090   84.5841   25.4537 C   0  0  0  0  0  0  0  0  0  0  0  0
    1.6045   86.5983   24.2992 C   0  0  0  0  0  0  0  0  0  0  0  0
    3.4736   82.0547   26.6296 O   0  0  0  0  0  0  0  0  0  0  0  0
    3.7860   83.3929   24.8072 O   0  0  0  0  0  0  0  0  0  0  0  0
    3.0372   82.9527   25.7897 C   0  0  0  0  0  0  0  0  0  0  0  0
    3.4514   84.0383   24.2160 H   0  0  0  0  0  0  0  0  0  0  0  0
    4.9528   87.9187   23.0456 C   0  0  0  0  0  0  0  0  0  0  0  0
    3.8344   87.0874   23.5115 O   0  0  0  0  0  0  0  0  0  0  0  0
   -2.1751   89.7978   24.1335 O   0  0  0  0  0  0  0  0  0  0  0  0
   -1.7472   88.3916   23.8754 C   0  0  0  0  0  0  0  0  0  0  0  0
 20 19  1  0  0  0
 15 17  2  0  0  0
 21 22  2  0  0  0
 17 16  1  0  0  0
  2  1  2  0  0  0
  1  5  1  0  0  0
  2 10  1  0  0  0
  8  3  2  0  0  0
  4  3  1  0  0  0
  9  4  2  0  0  0
  5 11  2  0  0  0
  8 22  1  0  0  0
 11  6  1  0  0  0
  6 12  2  0  0  0
 13  7  1  0  0  0
  7 14  2  0  0  0
 20  9  1  0  0  0
 17 10  1  0  0  0
 12  8  1  0  0  0
 14  9  1  0  0  0
 10 13  2  0  0  0
 13 11  1  0  0  0
 14 12  1  0  0  0
 16 18  1  0  0  0
M  END
> <minimizedAffinity>
-7.06210

$$$$
3SK2_GRI_A_130


 22 24  0  0  0  0  0  0  0  0999 V2000
    3.4420   87.1140   23.3623 C   0  0  0  0  0  0  0  0  0  0  0  0
    2.7136   88.2516   23.0895 C   0  0  0  0  0  0  0  0  0  0  0  0
   -2.5009   84.3606   26.3597 C   0  0  0  0  0  0  0  0  0  0  0  0
   -3.2080   85.5406   26.0771 C   0  0  0  0  0  0  0  0  0  0  0  0
    2.8537   86.1088   24.0840 C   0  0  0  0  0  0  0  0  0  0  0  0
    0.8840   85.2565   25.1612 N   0  0  0  0  0  0  0  0  0  0  0  0
   -0.5232   87.5152   24.6119 N   0  0  0  0  0  0  0  0  0  0  0  0
   -1.1250   84.2584   26.0578 C   0  0  0  0  0  0  0  0  0  0  0  0
   -2.5271   86.6287   25.4999 C   0  0  0  0  0  0  0  0  0  0  0  0
    1.4043   88.3732   23.4964 C   0  0  0  0  0  0  0  0  0  0  0  0
    1.5067   86.2245   24.4752 C   0  0  0  0  0  0  0  0  0  0  0  0
   -0.4531   85.3251   25.4763 C   0  0  0  0  0  0  0  0  0  0  0  0
    0.7754   87.3846   24.2044 C   0  0  0  0  0  0  0  0  0  0  0  0
   -1.1674   86.5050   25.2034 C   0  0  0  0  0  0  0  0  0  0  0  0
    0.7859   89.9511   21.8549 O   0  0  0  0  0  0  0  0  0  0  0  0
    0.0150   90.2807   23.9778 O   0  0  0  0  0  0  0  0  0  0  0  0
    0.7278   89.6024   23.1108 C   0  0  0  0  0  0  0  0  0  0  0  0
   -0.0119   90.0116   24.8749 H   0  0  0  0  0  0  0  0  0  0  0  0
   -3.6154   88.8751   26.1499 C   0  0  0  0  0  0  0  0  0  0  0  0
   -3.1892   87.8258   25.2138 O   0  0  0  0  0  0  0  0  0  0  0  0
   -1.1744   81.7307   26.7534 O   0  0  0  0  0  0  0  0  0  0  0  0
   -0.3964   82.9345   26.3375 C   0  0  0  0  0  0  0  0  0  0  0  0
 20 19  1  0  0  0
 15 17  2  0  0  0
 21 22  2  0  0  0
 17 16  1  0  0  0
  2  1  2  0  0  0
  1  5  1  0  0  0
  2 10  1  0  0  0
  8  3  2  0  0  0
  4  3  1  0  0  0
  9  4  2  0  0  0
  5 11  2  0  0  0
  8 22  1  0  0  0
 11  6  1  0  0  0
  6 12  2  0  0  0
 13  7  1  0  0  0
  7 14  2  0  0  0
 20  9  1  0  0  0
 17 10  1  0  0  0
 12  8  1  0  0  0
 14  9  1  0  0  0
 10 13  2  0  0  0
 13 11  1  0  0  0
 14 12  1  0  0  0
 16 18  1  0  0  0
M  END
> <minimizedAffinity>
-6.76729

$$$$
3SK2_GRI_A_130


 22 24  0  0  0  0  0  0  0  0999 V2000
    2.4571   89.2103   22.5305 C   0  0  0  0  0  0  0  0  0  0  0  0
    1.2425   89.8608   22.5082 C   0  0  0  0  0  0  0  0  0  0  0  0
   -0.7770   83.8784   26.1355 C   0  0  0  0  0  0  0  0  0  0  0  0
   -1.9951   84.5766   26.1047 C   0  0  0  0  0  0  0  0  0  0  0  0
    2.5644   88.0328   23.2229 C   0  0  0  0  0  0  0  0  0  0  0  0
    1.4806   86.3169   24.5065 N   0  0  0  0  0  0  0  0  0  0  0  0
   -0.8989   87.6274   24.4481 N   0  0  0  0  0  0  0  0  0  0  0  0
    0.3961   84.4576   25.6034 C   0  0  0  0  0  0  0  0  0  0  0  0
   -2.0332   85.8686   25.5480 C   0  0  0  0  0  0  0  0  0  0  0  0
    0.1382   89.3288   23.1345 C   0  0  0  0  0  0  0  0  0  0  0  0
    1.4275   87.4777   23.8393 C   0  0  0  0  0  0  0  0  0  0  0  0
    0.3594   85.7267   25.0416 C   0  0  0  0  0  0  0  0  0  0  0  0
    0.2001   88.1465   23.8219 C   0  0  0  0  0  0  0  0  0  0  0  0
   -0.8630   86.4211   25.0215 C   0  0  0  0  0  0  0  0  0  0  0  0
   -1.1771   90.9378   22.0175 O   0  0  0  0  0  0  0  0  0  0  0  0
   -2.1180   89.8547   23.7927 O   0  0  0  0  0  0  0  0  0  0  0  0
   -1.0969   90.0866   23.0032 C   0  0  0  0  0  0  0  0  0  0  0  0
   -2.0373   89.2390   24.4944 H   0  0  0  0  0  0  0  0  0  0  0  0
   -4.5499   86.2109   25.9981 C   0  0  0  0  0  0  0  0  0  0  0  0
   -3.2213   86.6035   25.5083 O   0  0  0  0  0  0  0  0  0  0  0  0
    2.0178   82.7608   26.7722 O   0  0  0  0  0  0  0  0  0  0  0  0
    1.6998   83.6438   25.6119 C   0  0  0  0  0  0  0  0  0  0  0  0
 20 19  1  0  0  0
 15 17  2  0  0  0
 21 22  2  0  0  0
 17 16  1  0  0  0
  2  1  2  0  0  0
  1  5  1  0  0  0
  2 10  1  0  0  0
  8  3  2  0  0  0
  4  3  1  0  0  0
  9  4  2  0  0  0
  5 11  2  0  0  0
  8 22  1  0  0  0
 11  6  1  0  0  0
  6 12  2  0  0  0
 13  7  1  0  0  0
  7 14  2  0  0  0
 20  9  1  0  0  0
 17 10  1  0  0  0
 12  8  1  0  0  0
 14  9  1  0  0  0
 10 13  2  0  0  0
 13 11  1  0  0  0
 14 12  1  0  0  0
 16 18  1  0  0  0
M  END
> <minimizedAffinity>
-6.48859

$$$$
3SK2_GRI_A_130


 22 24  0  0  0  0  0  0  0  0999 V2000
    3.0846   86.8425   23.5553 C   0  0  0  0  0  0  0  0  0  0  0  0
    3.0685   88.0669   22.9232 C   0  0  0  0  0  0  0  0  0  0  0  0
   -3.6936   88.1313   25.6241 C   0  0  0  0  0  0  0  0  0  0  0  0
   -3.6687   89.3787   24.9795 C   0  0  0  0  0  0  0  0  0  0  0  0
    1.9984   86.4693   24.3024 C   0  0  0  0  0  0  0  0  0  0  0  0
   -0.2257   86.9698   25.0572 N   0  0  0  0  0  0  0  0  0  0  0  0
   -0.2234   89.3805   23.8034 N   0  0  0  0  0  0  0  0  0  0  0  0
   -2.5398   87.3173   25.6573 C   0  0  0  0  0  0  0  0  0  0  0  0
   -2.4754   89.8172   24.3757 C   0  0  0  0  0  0  0  0  0  0  0  0
    1.9713   88.8943   23.0016 C   0  0  0  0  0  0  0  0  0  0  0  0
    0.8675   87.3051   24.3586 C   0  0  0  0  0  0  0  0  0  0  0  0
   -1.3647   87.7409   25.0514 C   0  0  0  0  0  0  0  0  0  0  0  0
    0.8602   88.5505   23.7237 C   0  0  0  0  0  0  0  0  0  0  0  0
   -1.3470   88.9942   24.4145 C   0  0  0  0  0  0  0  0  0  0  0  0
    2.3030   90.0597   20.9771 O   0  0  0  0  0  0  0  0  0  0  0  0
    1.8088   91.2914   22.8341 O   0  0  0  0  0  0  0  0  0  0  0  0
    2.0575   90.1408   22.2560 C   0  0  0  0  0  0  0  0  0  0  0  0
    1.6352   91.3256   23.7543 H   0  0  0  0  0  0  0  0  0  0  0  0
   -2.2952   92.3900   24.3428 C   0  0  0  0  0  0  0  0  0  0  0  0
   -2.4030   91.0569   23.7345 O   0  0  0  0  0  0  0  0  0  0  0  0
   -2.6478   84.7026   25.4938 O   0  0  0  0  0  0  0  0  0  0  0  0
   -2.6193   85.9381   26.3305 C   0  0  0  0  0  0  0  0  0  0  0  0
 20 19  1  0  0  0
 15 17  2  0  0  0
 21 22  2  0  0  0
 17 16  1  0  0  0
  2  1  2  0  0  0
  1  5  1  0  0  0
  2 10  1  0  0  0
  8  3  2  0  0  0
  4  3  1  0  0  0
  9  4  2  0  0  0
  5 11  2  0  0  0
  8 22  1  0  0  0
 11  6  1  0  0  0
  6 12  2  0  0  0
 13  7  1  0  0  0
  7 14  2  0  0  0
 20  9  1  0  0  0
 17 10  1  0  0  0
 12  8  1  0  0  0
 14  9  1  0  0  0
 10 13  2  0  0  0
 13 11  1  0  0  0
 14 12  1  0  0  0
 16 18  1  0  0  0
M  END
> <minimizedAffinity>
-6.31967

$$$$
