1S38_MAQ_A_900


 16 17  0  0  0  0  0  0  0  0999 V2000
   17.0857   16.8352   18.7295 C   0  0  0  0  0  0  0  0  0  0  0  0
   16.0235   16.5800   19.6586 C   0  0  0  0  0  0  0  0  0  0  0  0
   14.6270   16.0757   19.2189 C   0  0  0  0  0  0  0  0  0  0  0  0
   16.2632   16.8057   21.0745 C   0  0  0  0  0  0  0  0  0  0  0  0
   15.2731   16.5792   22.0266 N   0  0  0  0  0  0  0  0  0  0  0  0
   15.4483   16.7721   23.3185 C   0  0  0  0  0  0  0  0  0  0  0  0
   14.4476   16.5316   24.1413 N   0  0  0  0  0  0  0  0  0  0  0  0
   16.6244   17.2121   23.8136 N   0  0  0  0  0  0  0  0  0  0  0  0
   17.6890   17.4793   23.0387 C   0  0  0  0  0  0  0  0  0  0  0  0
   18.7668   17.8802   23.4725 O   0  0  0  0  0  0  0  0  0  0  0  0
   17.5623   17.2772   21.5100 C   0  0  0  0  0  0  0  0  0  0  0  0
   18.6063   17.5244   20.5626 C   0  0  0  0  0  0  0  0  0  0  0  0
   18.3716   17.3033   19.1649 C   0  0  0  0  0  0  0  0  0  0  0  0
   14.3950   16.2578   21.7183 H   0  0  0  0  0  0  0  0  0  0  0  0
   13.5864   16.2104   23.7884 H   0  0  0  0  0  0  0  0  0  0  0  0
   14.5610   16.6731   25.1089 H   0  0  0  0  0  0  0  0  0  0  0  0
  1  2  2  0  0  0
  1 13  1  0  0  0
  2  3  1  0  0  0
  2  4  1  0  0  0
  4  5  1  0  0  0
  4 11  2  0  0  0
  5  6  1  0  0  0
  6  7  1  0  0  0
  6  8  2  0  0  0
  8  9  1  0  0  0
  9 10  2  0  0  0
  9 11  1  0  0  0
 11 12  1  0  0  0
 12 13  2  0  0  0
  5 14  1  0  0  0
  7 15  1  0  0  0
  7 16  1  0  0  0
M  END
> <minimizedAffinity>
-8.12608

$$$$
1S38_MAQ_A_900


 16 17  0  0  0  0  0  0  0  0999 V2000
   11.9570   16.5179   15.7889 C   0  0  0  0  0  0  0  0  0  0  0  0
   13.2237   17.0958   16.1326 C   0  0  0  0  0  0  0  0  0  0  0  0
   13.7615   18.3905   15.4749 C   0  0  0  0  0  0  0  0  0  0  0  0
   14.0419   16.4398   17.1392 C   0  0  0  0  0  0  0  0  0  0  0  0
   15.2818   16.9488   17.5156 N   0  0  0  0  0  0  0  0  0  0  0  0
   16.0548   16.3852   18.4221 C   0  0  0  0  0  0  0  0  0  0  0  0
   17.2142   16.9424   18.7080 N   0  0  0  0  0  0  0  0  0  0  0  0
   15.6874   15.2526   19.0579 N   0  0  0  0  0  0  0  0  0  0  0  0
   14.5226   14.6265   18.8201 C   0  0  0  0  0  0  0  0  0  0  0  0
   14.1722   13.5952   19.3896 O   0  0  0  0  0  0  0  0  0  0  0  0
   13.5595   15.2272   17.7688 C   0  0  0  0  0  0  0  0  0  0  0  0
   12.2912   14.6703   17.4082 C   0  0  0  0  0  0  0  0  0  0  0  0
   11.4826   15.3154   16.4144 C   0  0  0  0  0  0  0  0  0  0  0  0
   15.5981   17.7739   17.0815 H   0  0  0  0  0  0  0  0  0  0  0  0
   17.4898   17.7686   18.2489 H   0  0  0  0  0  0  0  0  0  0  0  0
   17.8047   16.5327   19.3807 H   0  0  0  0  0  0  0  0  0  0  0  0
  1  2  2  0  0  0
  1 13  1  0  0  0
  2  3  1  0  0  0
  2  4  1  0  0  0
  4  5  1  0  0  0
  4 11  2  0  0  0
  5  6  1  0  0  0
  6  7  1  0  0  0
  6  8  2  0  0  0
  8  9  1  0  0  0
  9 10  2  0  0  0
  9 11  1  0  0  0
 11 12  1  0  0  0
 12 13  2  0  0  0
  5 14  1  0  0  0
  7 15  1  0  0  0
  7 16  1  0  0  0
M  END
> <minimizedAffinity>
-6.42157

$$$$
1S38_MAQ_A_900


 16 17  0  0  0  0  0  0  0  0999 V2000
   17.6302   17.4626   22.8815 C   0  0  0  0  0  0  0  0  0  0  0  0
   16.3756   16.9592   22.4025 C   0  0  0  0  0  0  0  0  0  0  0  0
   15.1987   16.6050   23.3446 C   0  0  0  0  0  0  0  0  0  0  0  0
   16.1981   16.7695   20.9723 C   0  0  0  0  0  0  0  0  0  0  0  0
   15.0057   16.2823   20.4441 N   0  0  0  0  0  0  0  0  0  0  0  0
   14.8039   16.0946   19.1553 C   0  0  0  0  0  0  0  0  0  0  0  0
   13.6399   15.6259   18.7531 N   0  0  0  0  0  0  0  0  0  0  0  0
   15.7610   16.3677   18.2435 N   0  0  0  0  0  0  0  0  0  0  0  0
   16.9714   16.8468   18.5763 C   0  0  0  0  0  0  0  0  0  0  0  0
   17.8540   17.1010   17.7596 O   0  0  0  0  0  0  0  0  0  0  0  0
   17.2851   17.0943   20.0710 C   0  0  0  0  0  0  0  0  0  0  0  0
   18.5278   17.5955   20.5741 C   0  0  0  0  0  0  0  0  0  0  0  0
   18.7055   17.7825   21.9852 C   0  0  0  0  0  0  0  0  0  0  0  0
   14.2741   16.0664   21.0666 H   0  0  0  0  0  0  0  0  0  0  0  0
   12.9364   15.4241   19.4116 H   0  0  0  0  0  0  0  0  0  0  0  0
   13.4738   15.4774   17.7941 H   0  0  0  0  0  0  0  0  0  0  0  0
  1  2  2  0  0  0
  1 13  1  0  0  0
  2  3  1  0  0  0
  2  4  1  0  0  0
  4  5  1  0  0  0
  4 11  2  0  0  0
  5  6  1  0  0  0
  6  7  1  0  0  0
  6  8  2  0  0  0
  8  9  1  0  0  0
  9 10  2  0  0  0
  9 11  1  0  0  0
 11 12  1  0  0  0
 12 13  2  0  0  0
  5 14  1  0  0  0
  7 15  1  0  0  0
  7 16  1  0  0  0
M  END
> <minimizedAffinity>
-6.40011

$$$$
1S38_MAQ_A_900


 16 17  0  0  0  0  0  0  0  0999 V2000
   17.5471   17.3964   19.8851 C   0  0  0  0  0  0  0  0  0  0  0  0
   16.2660   16.8136   20.1609 C   0  0  0  0  0  0  0  0  0  0  0  0
   15.7672   16.5250   21.5983 C   0  0  0  0  0  0  0  0  0  0  0  0
   15.3966   16.4755   19.0461 C   0  0  0  0  0  0  0  0  0  0  0  0
   14.1424   15.9055   19.2466 N   0  0  0  0  0  0  0  0  0  0  0  0
   13.3245   15.5830   18.2648 C   0  0  0  0  0  0  0  0  0  0  0  0
   12.1576   15.0449   18.5568 N   0  0  0  0  0  0  0  0  0  0  0  0
   13.6567   15.7881   16.9727 N   0  0  0  0  0  0  0  0  0  0  0  0
   14.8270   16.3308   16.5968 C   0  0  0  0  0  0  0  0  0  0  0  0
   15.1455   16.5247   15.4256 O   0  0  0  0  0  0  0  0  0  0  0  0
   15.8415   16.7366   17.6920 C   0  0  0  0  0  0  0  0  0  0  0  0
   17.1249   17.3193   17.4431 C   0  0  0  0  0  0  0  0  0  0  0  0
   17.9849   17.6528   18.5417 C   0  0  0  0  0  0  0  0  0  0  0  0
   13.8509   15.7340   20.1712 H   0  0  0  0  0  0  0  0  0  0  0  0
   11.9075   14.8919   19.4966 H   0  0  0  0  0  0  0  0  0  0  0  0
   11.5360   14.7958   17.8352 H   0  0  0  0  0  0  0  0  0  0  0  0
  1  2  2  0  0  0
  1 13  1  0  0  0
  2  3  1  0  0  0
  2  4  1  0  0  0
  4  5  1  0  0  0
  4 11  2  0  0  0
  5  6  1  0  0  0
  6  7  1  0  0  0
  6  8  2  0  0  0
  8  9  1  0  0  0
  9 10  2  0  0  0
  9 11  1  0  0  0
 11 12  1  0  0  0
 12 13  2  0  0  0
  5 14  1  0  0  0
  7 15  1  0  0  0
  7 16  1  0  0  0
M  END
> <minimizedAffinity>
-6.39042

$$$$
1S38_MAQ_A_900


 16 17  0  0  0  0  0  0  0  0999 V2000
   12.8785   17.2241   14.9863 C   0  0  0  0  0  0  0  0  0  0  0  0
   12.6907   16.1378   15.9037 C   0  0  0  0  0  0  0  0  0  0  0  0
   11.4501   15.2118   15.8651 C   0  0  0  0  0  0  0  0  0  0  0  0
   13.7048   15.8938   16.9161 C   0  0  0  0  0  0  0  0  0  0  0  0
   13.5807   14.8573   17.8372 N   0  0  0  0  0  0  0  0  0  0  0  0
   14.4753   14.6028   18.7708 C   0  0  0  0  0  0  0  0  0  0  0  0
   14.2660   13.5993   19.5989 N   0  0  0  0  0  0  0  0  0  0  0  0
   15.5943   15.3469   18.8984 N   0  0  0  0  0  0  0  0  0  0  0  0
   15.8768   16.3849   18.0934 C   0  0  0  0  0  0  0  0  0  0  0  0
   16.8903   17.0727   18.1952 O   0  0  0  0  0  0  0  0  0  0  0  0
   14.8747   16.7470   16.9716 C   0  0  0  0  0  0  0  0  0  0  0  0
   15.0389   17.8248   16.0443 C   0  0  0  0  0  0  0  0  0  0  0  0
   14.0389   18.0680   15.0450 C   0  0  0  0  0  0  0  0  0  0  0  0
   12.7819   14.2839   17.7885 H   0  0  0  0  0  0  0  0  0  0  0  0
   13.4525   13.0516   19.5128 H   0  0  0  0  0  0  0  0  0  0  0  0
   14.9231   13.3974   20.3037 H   0  0  0  0  0  0  0  0  0  0  0  0
  1  2  2  0  0  0
  1 13  1  0  0  0
  2  3  1  0  0  0
  2  4  1  0  0  0
  4  5  1  0  0  0
  4 11  2  0  0  0
  5  6  1  0  0  0
  6  7  1  0  0  0
  6  8  2  0  0  0
  8  9  1  0  0  0
  9 10  2  0  0  0
  9 11  1  0  0  0
 11 12  1  0  0  0
 12 13  2  0  0  0
  5 14  1  0  0  0
  7 15  1  0  0  0
  7 16  1  0  0  0
M  END
> <minimizedAffinity>
-6.26170

$$$$
1S38_MAQ_A_900


 16 17  0  0  0  0  0  0  0  0999 V2000
   16.7581   16.7539   20.6237 C   0  0  0  0  0  0  0  0  0  0  0  0
   17.5001   17.4616   19.6209 C   0  0  0  0  0  0  0  0  0  0  0  0
   18.8051   18.2350   19.9320 C   0  0  0  0  0  0  0  0  0  0  0  0
   17.0079   17.4571   18.2532 C   0  0  0  0  0  0  0  0  0  0  0  0
   17.6804   18.1264   17.2343 N   0  0  0  0  0  0  0  0  0  0  0  0
   17.2682   18.1485   15.9827 C   0  0  0  0  0  0  0  0  0  0  0  0
   17.9735   18.8135   15.0901 N   0  0  0  0  0  0  0  0  0  0  0  0
   16.1424   17.5106   15.5986 N   0  0  0  0  0  0  0  0  0  0  0  0
   15.3713   16.8134   16.4499 C   0  0  0  0  0  0  0  0  0  0  0  0
   14.3437   16.2267   16.1174 O   0  0  0  0  0  0  0  0  0  0  0  0
   15.7890   16.7400   17.9378 C   0  0  0  0  0  0  0  0  0  0  0  0
   15.0667   16.0411   18.9569 C   0  0  0  0  0  0  0  0  0  0  0  0
   15.5500   16.0450   20.3074 C   0  0  0  0  0  0  0  0  0  0  0  0
   18.5080   18.6090   17.4610 H   0  0  0  0  0  0  0  0  0  0  0  0
   18.7959   19.2815   15.3619 H   0  0  0  0  0  0  0  0  0  0  0  0
   17.6781   18.8422   14.1514 H   0  0  0  0  0  0  0  0  0  0  0  0
  1  2  2  0  0  0
  1 13  1  0  0  0
  2  3  1  0  0  0
  2  4  1  0  0  0
  4  5  1  0  0  0
  4 11  2  0  0  0
  5  6  1  0  0  0
  6  7  1  0  0  0
  6  8  2  0  0  0
  8  9  1  0  0  0
  9 10  2  0  0  0
  9 11  1  0  0  0
 11 12  1  0  0  0
 12 13  2  0  0  0
  5 14  1  0  0  0
  7 15  1  0  0  0
  7 16  1  0  0  0
M  END
> <minimizedAffinity>
-5.97214

$$$$
1S38_MAQ_A_900


 16 17  0  0  0  0  0  0  0  0999 V2000
   15.0079   14.7709   19.2047 C   0  0  0  0  0  0  0  0  0  0  0  0
   15.2151   15.9258   18.3800 C   0  0  0  0  0  0  0  0  0  0  0  0
   16.5166   16.7639   18.4213 C   0  0  0  0  0  0  0  0  0  0  0  0
   14.1596   16.3318   17.4667 C   0  0  0  0  0  0  0  0  0  0  0  0
   14.2979   17.4445   16.6414 N   0  0  0  0  0  0  0  0  0  0  0  0
   13.3660   17.8471   15.8010 C   0  0  0  0  0  0  0  0  0  0  0  0
   13.5904   18.9156   15.0631 N   0  0  0  0  0  0  0  0  0  0  0  0
   12.1909   17.1934   15.6833 N   0  0  0  0  0  0  0  0  0  0  0  0
   11.8893   16.0983   16.4010 C   0  0  0  0  0  0  0  0  0  0  0  0
   10.8249   15.4910   16.3065 O   0  0  0  0  0  0  0  0  0  0  0  0
   12.9328   15.5630   17.4101 C   0  0  0  0  0  0  0  0  0  0  0  0
   12.7503   14.4138   18.2437 C   0  0  0  0  0  0  0  0  0  0  0  0
   13.7902   14.0120   19.1464 C   0  0  0  0  0  0  0  0  0  0  0  0
   15.1366   17.9580   16.6882 H   0  0  0  0  0  0  0  0  0  0  0  0
   14.4448   19.3982   15.1427 H   0  0  0  0  0  0  0  0  0  0  0  0
   12.9037   19.2312   14.4322 H   0  0  0  0  0  0  0  0  0  0  0  0
  1  2  2  0  0  0
  1 13  1  0  0  0
  2  3  1  0  0  0
  2  4  1  0  0  0
  4  5  1  0  0  0
  4 11  2  0  0  0
  5  6  1  0  0  0
  6  7  1  0  0  0
  6  8  2  0  0  0
  8  9  1  0  0  0
  9 10  2  0  0  0
  9 11  1  0  0  0
 11 12  1  0  0  0
 12 13  2  0  0  0
  5 14  1  0  0  0
  7 15  1  0  0  0
  7 16  1  0  0  0
M  END
> <minimizedAffinity>
-5.96054

$$$$
1S38_MAQ_A_900


 16 17  0  0  0  0  0  0  0  0999 V2000
   13.4463   15.2439   17.6296 C   0  0  0  0  0  0  0  0  0  0  0  0
   14.0863   16.1489   16.7195 C   0  0  0  0  0  0  0  0  0  0  0  0
   13.4731   16.5367   15.3515 C   0  0  0  0  0  0  0  0  0  0  0  0
   15.3668   16.7271   17.0926 C   0  0  0  0  0  0  0  0  0  0  0  0
   16.0402   17.6100   16.2528 N   0  0  0  0  0  0  0  0  0  0  0  0
   17.2022   18.1552   16.5519 C   0  0  0  0  0  0  0  0  0  0  0  0
   17.7622   18.9782   15.6884 N   0  0  0  0  0  0  0  0  0  0  0  0
   17.8294   17.8868   17.7166 N   0  0  0  0  0  0  0  0  0  0  0  0
   17.3222   17.0588   18.6453 C   0  0  0  0  0  0  0  0  0  0  0  0
   17.8794   16.8034   19.7106 O   0  0  0  0  0  0  0  0  0  0  0  0
   15.9602   16.3793   18.3679 C   0  0  0  0  0  0  0  0  0  0  0  0
   15.3012   15.4735   19.2589 C   0  0  0  0  0  0  0  0  0  0  0  0
   14.0380   14.9010   18.8924 C   0  0  0  0  0  0  0  0  0  0  0  0
   15.6262   17.8394   15.3896 H   0  0  0  0  0  0  0  0  0  0  0  0
   17.3114   19.1794   14.8366 H   0  0  0  0  0  0  0  0  0  0  0  0
   18.6313   19.3919   15.8952 H   0  0  0  0  0  0  0  0  0  0  0  0
  1  2  2  0  0  0
  1 13  1  0  0  0
  2  3  1  0  0  0
  2  4  1  0  0  0
  4  5  1  0  0  0
  4 11  2  0  0  0
  5  6  1  0  0  0
  6  7  1  0  0  0
  6  8  2  0  0  0
  8  9  1  0  0  0
  9 10  2  0  0  0
  9 11  1  0  0  0
 11 12  1  0  0  0
 12 13  2  0  0  0
  5 14  1  0  0  0
  7 15  1  0  0  0
  7 16  1  0  0  0
M  END
> <minimizedAffinity>
-5.76511

$$$$
1S38_MAQ_A_900


 16 17  0  0  0  0  0  0  0  0999 V2000
   17.4703   17.3470   20.1739 C   0  0  0  0  0  0  0  0  0  0  0  0
   17.3512   17.5045   18.7534 C   0  0  0  0  0  0  0  0  0  0  0  0
   18.3881   18.2815   17.9054 C   0  0  0  0  0  0  0  0  0  0  0  0
   16.2083   16.9131   18.0773 C   0  0  0  0  0  0  0  0  0  0  0  0
   16.0337   17.0321   16.7013 N   0  0  0  0  0  0  0  0  0  0  0  0
   15.0124   16.5128   16.0500 C   0  0  0  0  0  0  0  0  0  0  0  0
   14.9342   16.6825   14.7456 N   0  0  0  0  0  0  0  0  0  0  0  0
   14.0476   15.8172   16.6884 N   0  0  0  0  0  0  0  0  0  0  0  0
   14.0579   15.6030   18.0148 C   0  0  0  0  0  0  0  0  0  0  0  0
   13.1883   14.9722   18.6119 O   0  0  0  0  0  0  0  0  0  0  0  0
   15.2250   16.1810   18.8498 C   0  0  0  0  0  0  0  0  0  0  0  0
   15.3667   16.0378   20.2669 C   0  0  0  0  0  0  0  0  0  0  0  0
   16.4932   16.6214   20.9362 C   0  0  0  0  0  0  0  0  0  0  0  0
   16.7092   17.5308   16.1872 H   0  0  0  0  0  0  0  0  0  0  0  0
   15.6336   17.1885   14.2722 H   0  0  0  0  0  0  0  0  0  0  0  0
   14.1764   16.3034   14.2444 H   0  0  0  0  0  0  0  0  0  0  0  0
  1  2  2  0  0  0
  1 13  1  0  0  0
  2  3  1  0  0  0
  2  4  1  0  0  0
  4  5  1  0  0  0
  4 11  2  0  0  0
  5  6  1  0  0  0
  6  7  1  0  0  0
  6  8  2  0  0  0
  8  9  1  0  0  0
  9 10  2  0  0  0
  9 11  1  0  0  0
 11 12  1  0  0  0
 12 13  2  0  0  0
  5 14  1  0  0  0
  7 15  1  0  0  0
  7 16  1  0  0  0
M  END
> <minimizedAffinity>
-5.74540

$$$$
1S38_MAQ_A_900


 16 17  0  0  0  0  0  0  0  0999 V2000
   18.2872   18.3296   17.7586 C   0  0  0  0  0  0  0  0  0  0  0  0
   17.2719   17.9771   16.8089 C   0  0  0  0  0  0  0  0  0  0  0  0
   17.2472   18.5301   15.3627 C   0  0  0  0  0  0  0  0  0  0  0  0
   16.2178   17.0638   17.2185 C   0  0  0  0  0  0  0  0  0  0  0  0
   15.2023   16.6842   16.3450 N   0  0  0  0  0  0  0  0  0  0  0  0
   14.2282   15.8605   16.6761 C   0  0  0  0  0  0  0  0  0  0  0  0
   13.3105   15.5637   15.7783 N   0  0  0  0  0  0  0  0  0  0  0  0
   14.1493   15.3200   17.9104 N   0  0  0  0  0  0  0  0  0  0  0  0
   15.0458   15.5750   18.8781 C   0  0  0  0  0  0  0  0  0  0  0  0
   14.9893   15.0917   20.0068 O   0  0  0  0  0  0  0  0  0  0  0  0
   16.2201   16.5330   18.5667 C   0  0  0  0  0  0  0  0  0  0  0  0
   17.2449   16.9003   19.4959 C   0  0  0  0  0  0  0  0  0  0  0  0
   18.2856   17.8022   19.0943 C   0  0  0  0  0  0  0  0  0  0  0  0
   15.2124   17.0506   15.4313 H   0  0  0  0  0  0  0  0  0  0  0  0
   13.3606   15.9536   14.8756 H   0  0  0  0  0  0  0  0  0  0  0  0
   12.5746   14.9521   16.0101 H   0  0  0  0  0  0  0  0  0  0  0  0
  1  2  2  0  0  0
  1 13  1  0  0  0
  2  3  1  0  0  0
  2  4  1  0  0  0
  4  5  1  0  0  0
  4 11  2  0  0  0
  5  6  1  0  0  0
  6  7  1  0  0  0
  6  8  2  0  0  0
  8  9  1  0  0  0
  9 10  2  0  0  0
  9 11  1  0  0  0
 11 12  1  0  0  0
 12 13  2  0  0  0
  5 14  1  0  0  0
  7 15  1  0  0  0
  7 16  1  0  0  0
M  END
> <minimizedAffinity>
-5.71424

$$$$
