5E28_BC5_A_302


 21 22  0  0  0  0  0  0  0  0999 V2000
   -5.2621    2.3651   16.0812 C   0  0  0  0  0  0  0  0  0  0  0  0
   -6.1124    3.4021   15.7153 C   0  0  0  0  0  0  0  0  0  0  0  0
   -5.6142    4.4947   15.0157 C   0  0  0  0  0  0  0  0  0  0  0  0
   -4.2659    4.5513   14.6818 C   0  0  0  0  0  0  0  0  0  0  0  0
   -3.4156    3.5144   15.0486 C   0  0  0  0  0  0  0  0  0  0  0  0
   -3.9136    2.4208   15.7483 C   0  0  0  0  0  0  0  0  0  0  0  0
   -3.7336    5.7198   13.9333 C   0  0  0  0  0  0  0  0  0  0  0  0
   -2.8854    6.6229   14.5644 C   0  0  0  0  0  0  0  0  0  0  0  0
   -2.3877    7.7149   13.8645 C   0  0  0  0  0  0  0  0  0  0  0  0
   -2.7386    7.9061   12.5332 C   0  0  0  0  0  0  0  0  0  0  0  0
   -3.5868    7.0034   11.9012 C   0  0  0  0  0  0  0  0  0  0  0  0
   -4.0843    5.9101   12.6017 C   0  0  0  0  0  0  0  0  0  0  0  0
   -2.2448    8.9915   11.8381 N   0  0  0  0  0  0  0  0  0  0  0  0
   -1.6443    9.6307   12.2853 H   0  0  0  0  0  0  0  0  0  0  0  0
   -2.4930    9.1264   10.8950 H   0  0  0  0  0  0  0  0  0  0  0  0
   -5.8960    0.9735   16.9724 S   0  0  0  0  0  0  0  0  0  0  0  0
   -7.5027    1.0302   16.8818 N   0  0  0  0  0  0  0  0  0  0  0  0
   -5.5370    1.1437   18.3527 O   0  0  0  0  0  0  0  0  0  0  0  0
   -5.4689   -0.2126   16.2843 O   0  0  0  0  0  0  0  0  0  0  0  0
   -7.8411    1.8638   17.3624 H   0  0  0  0  0  0  0  0  0  0  0  0
   -7.8976    0.1996   17.3228 H   0  0  0  0  0  0  0  0  0  0  0  0
 13 10  1  0  0  0
  9 10  2  0  0  0
  9  8  1  0  0  0
 10 11  1  0  0  0
  8  7  2  0  0  0
 11 12  2  0  0  0
  7 12  1  0  0  0
  7  4  1  0  0  0
  4  3  2  0  0  0
  4  5  1  0  0  0
  3  2  1  0  0  0
  5  6  2  0  0  0
  2  1  2  0  0  0
  6  1  1  0  0  0
 17 16  1  0  0  0
  1 16  1  0  0  0
 18 16  2  0  0  0
 16 19  2  0  0  0
 17 20  1  0  0  0
 17 21  1  0  0  0
 13 14  1  0  0  0
 13 15  1  0  0  0
M  END
> <minimizedAffinity>
-7.58300

$$$$
5E28_BC5_A_302


 21 22  0  0  0  0  0  0  0  0999 V2000
   -5.2319    2.3237   16.0546 C   0  0  0  0  0  0  0  0  0  0  0  0
   -3.8958    2.3664   15.6737 C   0  0  0  0  0  0  0  0  0  0  0  0
   -3.4067    3.4654   14.9778 C   0  0  0  0  0  0  0  0  0  0  0  0
   -4.2531    4.5220   14.6620 C   0  0  0  0  0  0  0  0  0  0  0  0
   -5.5897    4.4787   15.0422 C   0  0  0  0  0  0  0  0  0  0  0  0
   -6.0794    3.3794   15.7389 C   0  0  0  0  0  0  0  0  0  0  0  0
   -3.7297    5.6973   13.9178 C   0  0  0  0  0  0  0  0  0  0  0  0
   -4.1043    5.9070   12.5953 C   0  0  0  0  0  0  0  0  0  0  0  0
   -3.6151    7.0058   11.9001 C   0  0  0  0  0  0  0  0  0  0  0  0
   -2.7497    7.8955   12.5259 C   0  0  0  0  0  0  0  0  0  0  0  0
   -2.3745    7.6866   13.8485 C   0  0  0  0  0  0  0  0  0  0  0  0
   -2.8648    6.5871   14.5444 C   0  0  0  0  0  0  0  0  0  0  0  0
   -2.2631    8.9868   11.8349 N   0  0  0  0  0  0  0  0  0  0  0  0
   -2.5285    9.1348   10.8985 H   0  0  0  0  0  0  0  0  0  0  0  0
   -1.6505    9.6171   12.2784 H   0  0  0  0  0  0  0  0  0  0  0  0
   -5.8553    0.9242   16.9408 S   0  0  0  0  0  0  0  0  0  0  0  0
   -7.4617    0.9597   16.8360 N   0  0  0  0  0  0  0  0  0  0  0  0
   -5.5109    1.0996   18.3242 O   0  0  0  0  0  0  0  0  0  0  0  0
   -5.4066   -0.2564   16.2571 O   0  0  0  0  0  0  0  0  0  0  0  0
   -7.8153    1.7890   17.3132 H   0  0  0  0  0  0  0  0  0  0  0  0
   -7.8496    0.1242   17.2739 H   0  0  0  0  0  0  0  0  0  0  0  0
 13 10  1  0  0  0
  9 10  2  0  0  0
  9  8  1  0  0  0
 10 11  1  0  0  0
  8  7  2  0  0  0
 11 12  2  0  0  0
  7 12  1  0  0  0
  7  4  1  0  0  0
  4  3  2  0  0  0
  4  5  1  0  0  0
  3  2  1  0  0  0
  5  6  2  0  0  0
  2  1  2  0  0  0
  6  1  1  0  0  0
 17 16  1  0  0  0
  1 16  1  0  0  0
 18 16  2  0  0  0
 16 19  2  0  0  0
 17 20  1  0  0  0
 17 21  1  0  0  0
 13 14  1  0  0  0
 13 15  1  0  0  0
M  END
> <minimizedAffinity>
-7.58024

$$$$
5E28_BC5_A_302


 21 22  0  0  0  0  0  0  0  0999 V2000
   -5.5139    2.4673   16.2092 C   0  0  0  0  0  0  0  0  0  0  0  0
   -6.2124    3.5632   15.7161 C   0  0  0  0  0  0  0  0  0  0  0  0
   -5.5651    4.4961   14.9148 C   0  0  0  0  0  0  0  0  0  0  0  0
   -4.2193    4.3341   14.6064 C   0  0  0  0  0  0  0  0  0  0  0  0
   -3.5207    3.2384   15.1005 C   0  0  0  0  0  0  0  0  0  0  0  0
   -4.1680    2.3045   15.9020 C   0  0  0  0  0  0  0  0  0  0  0  0
   -3.5275    5.3320   13.7492 C   0  0  0  0  0  0  0  0  0  0  0  0
   -4.2508    6.0732   12.8215 C   0  0  0  0  0  0  0  0  0  0  0  0
   -3.6039    7.0060   12.0207 C   0  0  0  0  0  0  0  0  0  0  0  0
   -2.2329    7.1980   12.1454 C   0  0  0  0  0  0  0  0  0  0  0  0
   -1.5087    6.4572   13.0731 C   0  0  0  0  0  0  0  0  0  0  0  0
   -2.1564    5.5239   13.8750 C   0  0  0  0  0  0  0  0  0  0  0  0
   -1.5901    8.1242   11.3492 N   0  0  0  0  0  0  0  0  0  0  0  0
   -2.1026    8.6488   10.6924 H   0  0  0  0  0  0  0  0  0  0  0  0
   -0.6191    8.2603   11.4381 H   0  0  0  0  0  0  0  0  0  0  0  0
   -6.3377    1.2790   17.2299 S   0  0  0  0  0  0  0  0  0  0  0  0
   -5.5252   -0.1064   17.1142 N   0  0  0  0  0  0  0  0  0  0  0  0
   -7.6428    1.0598   16.6716 O   0  0  0  0  0  0  0  0  0  0  0  0
   -6.2300    1.7274   18.5900 O   0  0  0  0  0  0  0  0  0  0  0  0
   -5.5813   -0.4545   16.1570 H   0  0  0  0  0  0  0  0  0  0  0  0
   -5.9314   -0.7929   17.7499 H   0  0  0  0  0  0  0  0  0  0  0  0
 13 10  1  0  0  0
  9 10  2  0  0  0
  9  8  1  0  0  0
 10 11  1  0  0  0
  8  7  2  0  0  0
 11 12  2  0  0  0
  7 12  1  0  0  0
  7  4  1  0  0  0
  4  3  2  0  0  0
  4  5  1  0  0  0
  3  2  1  0  0  0
  5  6  2  0  0  0
  2  1  2  0  0  0
  6  1  1  0  0  0
 17 16  1  0  0  0
  1 16  1  0  0  0
 18 16  2  0  0  0
 16 19  2  0  0  0
 17 20  1  0  0  0
 17 21  1  0  0  0
 13 14  1  0  0  0
 13 15  1  0  0  0
M  END
> <minimizedAffinity>
-7.23203

$$$$
5E28_BC5_A_302


 21 22  0  0  0  0  0  0  0  0999 V2000
   -3.9271    3.0207   15.0208 C   0  0  0  0  0  0  0  0  0  0  0  0
   -4.8826    4.0213   14.8868 C   0  0  0  0  0  0  0  0  0  0  0  0
   -4.4924    5.3155   14.5639 C   0  0  0  0  0  0  0  0  0  0  0  0
   -3.1470    5.6100   14.3753 C   0  0  0  0  0  0  0  0  0  0  0  0
   -2.1915    4.6093   14.5103 C   0  0  0  0  0  0  0  0  0  0  0  0
   -2.5814    3.3141   14.8330 C   0  0  0  0  0  0  0  0  0  0  0  0
   -2.7301    6.9942   14.0298 C   0  0  0  0  0  0  0  0  0  0  0  0
   -2.7152    7.4056   12.7017 C   0  0  0  0  0  0  0  0  0  0  0  0
   -2.3258    8.6995   12.3791 C   0  0  0  0  0  0  0  0  0  0  0  0
   -1.9497    9.5833   13.3838 C   0  0  0  0  0  0  0  0  0  0  0  0
   -1.9644    9.1729   14.7124 C   0  0  0  0  0  0  0  0  0  0  0  0
   -2.3548    7.8779   15.0351 C   0  0  0  0  0  0  0  0  0  0  0  0
   -1.5620   10.8687   13.0632 N   0  0  0  0  0  0  0  0  0  0  0  0
   -1.5515   11.1595   12.1227 H   0  0  0  0  0  0  0  0  0  0  0  0
   -1.2961   11.4946   13.7750 H   0  0  0  0  0  0  0  0  0  0  0  0
   -4.4235    1.3724   15.4322 S   0  0  0  0  0  0  0  0  0  0  0  0
   -5.8605    1.4640   16.1529 N   0  0  0  0  0  0  0  0  0  0  0  0
   -3.4891    0.8677   16.3993 O   0  0  0  0  0  0  0  0  0  0  0  0
   -4.6056    0.6550   14.2015 O   0  0  0  0  0  0  0  0  0  0  0  0
   -5.7675    1.9696   17.0338 H   0  0  0  0  0  0  0  0  0  0  0  0
   -6.2096    0.5232   16.3360 H   0  0  0  0  0  0  0  0  0  0  0  0
 13 10  1  0  0  0
  9 10  2  0  0  0
  9  8  1  0  0  0
 10 11  1  0  0  0
  8  7  2  0  0  0
 11 12  2  0  0  0
  7 12  1  0  0  0
  7  4  1  0  0  0
  4  3  2  0  0  0
  4  5  1  0  0  0
  3  2  1  0  0  0
  5  6  2  0  0  0
  2  1  2  0  0  0
  6  1  1  0  0  0
 17 16  1  0  0  0
  1 16  1  0  0  0
 18 16  2  0  0  0
 16 19  2  0  0  0
 17 20  1  0  0  0
 17 21  1  0  0  0
 13 14  1  0  0  0
 13 15  1  0  0  0
M  END
> <minimizedAffinity>
-6.83893

$$$$
5E28_BC5_A_302


 21 22  0  0  0  0  0  0  0  0999 V2000
   -5.3615    1.4963   15.7093 C   0  0  0  0  0  0  0  0  0  0  0  0
   -4.6348    0.5315   15.0214 C   0  0  0  0  0  0  0  0  0  0  0  0
   -3.9057    0.8850   13.8923 C   0  0  0  0  0  0  0  0  0  0  0  0
   -3.9030    2.2030   13.4502 C   0  0  0  0  0  0  0  0  0  0  0  0
   -4.6306    3.1676   14.1379 C   0  0  0  0  0  0  0  0  0  0  0  0
   -5.3600    2.8144   15.2679 C   0  0  0  0  0  0  0  0  0  0  0  0
   -3.1230    2.5808   12.2428 C   0  0  0  0  0  0  0  0  0  0  0  0
   -3.1031    3.9028   11.8125 C   0  0  0  0  0  0  0  0  0  0  0  0
   -2.3736    4.2556   10.6841 C   0  0  0  0  0  0  0  0  0  0  0  0
   -1.6643    3.2869    9.9837 C   0  0  0  0  0  0  0  0  0  0  0  0
   -1.6836    1.9646   10.4133 C   0  0  0  0  0  0  0  0  0  0  0  0
   -2.4132    1.6117   11.5432 C   0  0  0  0  0  0  0  0  0  0  0  0
   -0.9403    3.6374    8.8620 N   0  0  0  0  0  0  0  0  0  0  0  0
   -0.9265    4.5736    8.5577 H   0  0  0  0  0  0  0  0  0  0  0  0
   -0.4376    2.9512    8.3664 H   0  0  0  0  0  0  0  0  0  0  0  0
   -6.2903    1.0465   17.1472 S   0  0  0  0  0  0  0  0  0  0  0  0
   -6.1339    2.2385   18.2184 N   0  0  0  0  0  0  0  0  0  0  0  0
   -5.6749   -0.1221   17.7118 O   0  0  0  0  0  0  0  0  0  0  0  0
   -7.6743    0.9888   16.7683 O   0  0  0  0  0  0  0  0  0  0  0  0
   -5.1590    2.3078   18.5101 H   0  0  0  0  0  0  0  0  0  0  0  0
   -6.7190    2.0443   19.0310 H   0  0  0  0  0  0  0  0  0  0  0  0
 13 10  1  0  0  0
  9 10  2  0  0  0
  9  8  1  0  0  0
 10 11  1  0  0  0
  8  7  2  0  0  0
 11 12  2  0  0  0
  7 12  1  0  0  0
  7  4  1  0  0  0
  4  3  2  0  0  0
  4  5  1  0  0  0
  3  2  1  0  0  0
  5  6  2  0  0  0
  2  1  2  0  0  0
  6  1  1  0  0  0
 17 16  1  0  0  0
  1 16  1  0  0  0
 18 16  2  0  0  0
 16 19  2  0  0  0
 17 20  1  0  0  0
 17 21  1  0  0  0
 13 14  1  0  0  0
 13 15  1  0  0  0
M  END
> <minimizedAffinity>
-6.80263

$$$$
5E28_BC5_A_302


 21 22  0  0  0  0  0  0  0  0999 V2000
   -1.9490    6.3399   13.5353 C   0  0  0  0  0  0  0  0  0  0  0  0
   -1.6609    4.9814   13.4758 C   0  0  0  0  0  0  0  0  0  0  0  0
   -2.5209    4.0626   14.0654 C   0  0  0  0  0  0  0  0  0  0  0  0
   -3.6689    4.5014   14.7149 C   0  0  0  0  0  0  0  0  0  0  0  0
   -3.9563    5.8603   14.7751 C   0  0  0  0  0  0  0  0  0  0  0  0
   -3.0964    6.7800   14.1850 C   0  0  0  0  0  0  0  0  0  0  0  0
   -4.5885    3.5184   15.3452 C   0  0  0  0  0  0  0  0  0  0  0  0
   -4.1001    2.2956   15.7920 C   0  0  0  0  0  0  0  0  0  0  0  0
   -4.9598    1.3771   16.3813 C   0  0  0  0  0  0  0  0  0  0  0  0
   -6.3090    1.6795   16.5235 C   0  0  0  0  0  0  0  0  0  0  0  0
   -6.7983    2.9022   16.0771 C   0  0  0  0  0  0  0  0  0  0  0  0
   -5.9376    3.8217   15.4878 C   0  0  0  0  0  0  0  0  0  0  0  0
   -7.1633    0.7666   17.1083 N   0  0  0  0  0  0  0  0  0  0  0  0
   -6.8171   -0.0991   17.4244 H   0  0  0  0  0  0  0  0  0  0  0  0
   -8.1188    0.9812   17.2094 H   0  0  0  0  0  0  0  0  0  0  0  0
   -0.8540    7.5105   12.7847 S   0  0  0  0  0  0  0  0  0  0  0  0
   -1.6370    8.1847   11.5497 N   0  0  0  0  0  0  0  0  0  0  0  0
    0.2559    6.7783   12.2417 O   0  0  0  0  0  0  0  0  0  0  0  0
   -0.5997    8.5450   13.7478 O   0  0  0  0  0  0  0  0  0  0  0  0
   -1.8343    7.4750   10.8441 H   0  0  0  0  0  0  0  0  0  0  0  0
   -1.0591    8.9191   11.1409 H   0  0  0  0  0  0  0  0  0  0  0  0
 13 10  1  0  0  0
  9 10  2  0  0  0
  9  8  1  0  0  0
 10 11  1  0  0  0
  8  7  2  0  0  0
 11 12  2  0  0  0
  7 12  1  0  0  0
  7  4  1  0  0  0
  4  3  2  0  0  0
  4  5  1  0  0  0
  3  2  1  0  0  0
  5  6  2  0  0  0
  2  1  2  0  0  0
  6  1  1  0  0  0
 17 16  1  0  0  0
  1 16  1  0  0  0
 18 16  2  0  0  0
 16 19  2  0  0  0
 17 20  1  0  0  0
 17 21  1  0  0  0
 13 14  1  0  0  0
 13 15  1  0  0  0
M  END
> <minimizedAffinity>
-6.60453

$$$$
5E28_BC5_A_302


 21 22  0  0  0  0  0  0  0  0999 V2000
   -1.8784    6.4240   13.4071 C   0  0  0  0  0  0  0  0  0  0  0  0
   -2.9950    6.8355   14.1254 C   0  0  0  0  0  0  0  0  0  0  0  0
   -3.8214    5.8926   14.7248 C   0  0  0  0  0  0  0  0  0  0  0  0
   -3.5322    4.5380   14.6062 C   0  0  0  0  0  0  0  0  0  0  0  0
   -2.4158    4.1267   13.8870 C   0  0  0  0  0  0  0  0  0  0  0  0
   -1.5884    5.0698   13.2873 C   0  0  0  0  0  0  0  0  0  0  0  0
   -4.4162    3.5299   15.2476 C   0  0  0  0  0  0  0  0  0  0  0  0
   -3.8899    2.3183   15.6814 C   0  0  0  0  0  0  0  0  0  0  0  0
   -4.7163    1.3763   16.2812 C   0  0  0  0  0  0  0  0  0  0  0  0
   -6.0701    1.6441   16.4467 C   0  0  0  0  0  0  0  0  0  0  0  0
   -6.5974    2.8556   16.0133 C   0  0  0  0  0  0  0  0  0  0  0  0
   -5.7699    3.7986   15.4136 C   0  0  0  0  0  0  0  0  0  0  0  0
   -6.8914    0.7078   17.0419 N   0  0  0  0  0  0  0  0  0  0  0  0
   -6.5183   -0.1500   17.3489 H   0  0  0  0  0  0  0  0  0  0  0  0
   -7.8502    0.8979   17.1595 H   0  0  0  0  0  0  0  0  0  0  0  0
   -0.8257    7.6245   12.6434 S   0  0  0  0  0  0  0  0  0  0  0  0
   -0.4239    8.7036   13.7689 N   0  0  0  0  0  0  0  0  0  0  0  0
   -1.6021    8.3102   11.6483 O   0  0  0  0  0  0  0  0  0  0  0  0
    0.3789    6.9525   12.2437 O   0  0  0  0  0  0  0  0  0  0  0  0
   -1.2594    9.2012   14.0766 H   0  0  0  0  0  0  0  0  0  0  0  0
    0.2438    9.3689   13.3791 H   0  0  0  0  0  0  0  0  0  0  0  0
 13 10  1  0  0  0
  9 10  2  0  0  0
  9  8  1  0  0  0
 10 11  1  0  0  0
  8  7  2  0  0  0
 11 12  2  0  0  0
  7 12  1  0  0  0
  7  4  1  0  0  0
  4  3  2  0  0  0
  4  5  1  0  0  0
  3  2  1  0  0  0
  5  6  2  0  0  0
  2  1  2  0  0  0
  6  1  1  0  0  0
 17 16  1  0  0  0
  1 16  1  0  0  0
 18 16  2  0  0  0
 16 19  2  0  0  0
 17 20  1  0  0  0
 17 21  1  0  0  0
 13 14  1  0  0  0
 13 15  1  0  0  0
M  END
> <minimizedAffinity>
-6.57165

$$$$
5E28_BC5_A_302


 21 22  0  0  0  0  0  0  0  0999 V2000
   -1.9106    6.2837   13.3766 C   0  0  0  0  0  0  0  0  0  0  0  0
   -3.1696    6.7052   13.7878 C   0  0  0  0  0  0  0  0  0  0  0  0
   -4.0304    5.8125   14.4151 C   0  0  0  0  0  0  0  0  0  0  0  0
   -3.6330    4.4980   14.6313 C   0  0  0  0  0  0  0  0  0  0  0  0
   -2.3740    4.0764   14.2191 C   0  0  0  0  0  0  0  0  0  0  0  0
   -1.5123    4.9694   13.5917 C   0  0  0  0  0  0  0  0  0  0  0  0
   -4.5538    3.5436   15.3024 C   0  0  0  0  0  0  0  0  0  0  0  0
   -5.8834    3.8910   15.5135 C   0  0  0  0  0  0  0  0  0  0  0  0
   -6.7439    2.9985   16.1405 C   0  0  0  0  0  0  0  0  0  0  0  0
   -6.2757    1.7583   16.5584 C   0  0  0  0  0  0  0  0  0  0  0  0
   -4.9461    1.4099   16.3475 C   0  0  0  0  0  0  0  0  0  0  0  0
   -4.0851    2.3030   15.7194 C   0  0  0  0  0  0  0  0  0  0  0  0
   -7.1305    0.8719   17.1820 N   0  0  0  0  0  0  0  0  0  0  0  0
   -8.0719    1.1183   17.3314 H   0  0  0  0  0  0  0  0  0  0  0  0
   -6.7988   -0.0067   17.4775 H   0  0  0  0  0  0  0  0  0  0  0  0
   -0.8140    7.4202   12.5775 S   0  0  0  0  0  0  0  0  0  0  0  0
   -0.3755    8.5200   13.6687 N   0  0  0  0  0  0  0  0  0  0  0  0
   -1.5636    8.1008   11.5586 O   0  0  0  0  0  0  0  0  0  0  0  0
    0.3663    6.6927   12.2030 O   0  0  0  0  0  0  0  0  0  0  0  0
   -1.1931    9.0570   13.9578 H   0  0  0  0  0  0  0  0  0  0  0  0
    0.3164    9.1479   13.2596 H   0  0  0  0  0  0  0  0  0  0  0  0
 13 10  1  0  0  0
  9 10  2  0  0  0
  9  8  1  0  0  0
 10 11  1  0  0  0
  8  7  2  0  0  0
 11 12  2  0  0  0
  7 12  1  0  0  0
  7  4  1  0  0  0
  4  3  2  0  0  0
  4  5  1  0  0  0
  3  2  1  0  0  0
  5  6  2  0  0  0
  2  1  2  0  0  0
  6  1  1  0  0  0
 17 16  1  0  0  0
  1 16  1  0  0  0
 18 16  2  0  0  0
 16 19  2  0  0  0
 17 20  1  0  0  0
 17 21  1  0  0  0
 13 14  1  0  0  0
 13 15  1  0  0  0
M  END
> <minimizedAffinity>
-6.46835

$$$$
5E28_BC5_A_302


 21 22  0  0  0  0  0  0  0  0999 V2000
   -1.3741    4.4147   12.4421 C   0  0  0  0  0  0  0  0  0  0  0  0
   -1.5895    4.8984   13.7272 C   0  0  0  0  0  0  0  0  0  0  0  0
   -2.5761    4.3326   14.5260 C   0  0  0  0  0  0  0  0  0  0  0  0
   -3.3479    3.2834   14.0403 C   0  0  0  0  0  0  0  0  0  0  0  0
   -3.1328    2.8003   12.7545 C   0  0  0  0  0  0  0  0  0  0  0  0
   -2.1455    3.3659   11.9551 C   0  0  0  0  0  0  0  0  0  0  0  0
   -4.4027    2.6784   14.8949 C   0  0  0  0  0  0  0  0  0  0  0  0
   -5.5318    3.4158   15.2337 C   0  0  0  0  0  0  0  0  0  0  0  0
   -6.5177    2.8500   16.0323 C   0  0  0  0  0  0  0  0  0  0  0  0
   -6.3754    1.5467   16.4942 C   0  0  0  0  0  0  0  0  0  0  0  0
   -5.2467    0.8085   16.1557 C   0  0  0  0  0  0  0  0  0  0  0  0
   -4.2602    1.3747   15.3559 C   0  0  0  0  0  0  0  0  0  0  0  0
   -7.3547    0.9849   17.2882 N   0  0  0  0  0  0  0  0  0  0  0  0
   -8.1539    1.5073   17.5280 H   0  0  0  0  0  0  0  0  0  0  0  0
   -7.2539    0.0616   17.6149 H   0  0  0  0  0  0  0  0  0  0  0  0
   -0.1179    5.1350   11.4244 S   0  0  0  0  0  0  0  0  0  0  0  0
    1.2058    4.2304   11.5741 N   0  0  0  0  0  0  0  0  0  0  0  0
    0.1845    6.4317   11.9630 O   0  0  0  0  0  0  0  0  0  0  0  0
   -0.5548    5.0337   10.0601 O   0  0  0  0  0  0  0  0  0  0  0  0
    1.5443    4.2797   12.5350 H   0  0  0  0  0  0  0  0  0  0  0  0
    1.9272    4.5761   10.9413 H   0  0  0  0  0  0  0  0  0  0  0  0
 13 10  1  0  0  0
  9 10  2  0  0  0
  9  8  1  0  0  0
 10 11  1  0  0  0
  8  7  2  0  0  0
 11 12  2  0  0  0
  7 12  1  0  0  0
  7  4  1  0  0  0
  4  3  2  0  0  0
  4  5  1  0  0  0
  3  2  1  0  0  0
  5  6  2  0  0  0
  2  1  2  0  0  0
  6  1  1  0  0  0
 17 16  1  0  0  0
  1 16  1  0  0  0
 18 16  2  0  0  0
 16 19  2  0  0  0
 17 20  1  0  0  0
 17 21  1  0  0  0
 13 14  1  0  0  0
 13 15  1  0  0  0
M  END
> <minimizedAffinity>
-6.35474

$$$$
5E28_BC5_A_302


 21 22  0  0  0  0  0  0  0  0999 V2000
   -3.3101    6.6704   12.7706 C   0  0  0  0  0  0  0  0  0  0  0  0
   -2.4810    6.1513   13.7581 C   0  0  0  0  0  0  0  0  0  0  0  0
   -2.9032    5.0695   14.5216 C   0  0  0  0  0  0  0  0  0  0  0  0
   -4.1546    4.5066   14.2986 C   0  0  0  0  0  0  0  0  0  0  0  0
   -4.9840    5.0266   13.3115 C   0  0  0  0  0  0  0  0  0  0  0  0
   -4.5619    6.1087   12.5470 C   0  0  0  0  0  0  0  0  0  0  0  0
   -4.6057    3.3496   15.1152 C   0  0  0  0  0  0  0  0  0  0  0  0
   -5.9175    3.2895   15.5721 C   0  0  0  0  0  0  0  0  0  0  0  0
   -6.3390    2.2078   16.3352 C   0  0  0  0  0  0  0  0  0  0  0  0
   -5.4491    1.1855   16.6434 C   0  0  0  0  0  0  0  0  0  0  0  0
   -4.1370    1.2446   16.1868 C   0  0  0  0  0  0  0  0  0  0  0  0
   -3.7154    2.3271   15.4225 C   0  0  0  0  0  0  0  0  0  0  0  0
   -5.8677    0.1111   17.4022 N   0  0  0  0  0  0  0  0  0  0  0  0
   -6.7966    0.0690   17.7256 H   0  0  0  0  0  0  0  0  0  0  0  0
   -5.2373   -0.6131   17.6200 H   0  0  0  0  0  0  0  0  0  0  0  0
   -2.7729    8.0482   11.7981 S   0  0  0  0  0  0  0  0  0  0  0  0
   -1.5993    7.5278   10.8262 N   0  0  0  0  0  0  0  0  0  0  0  0
   -2.1942    9.0105   12.6936 O   0  0  0  0  0  0  0  0  0  0  0  0
   -3.8737    8.4467   10.9664 O   0  0  0  0  0  0  0  0  0  0  0  0
   -0.7985    7.2355   11.3863 H   0  0  0  0  0  0  0  0  0  0  0  0
   -1.3184    8.2812   10.1986 H   0  0  0  0  0  0  0  0  0  0  0  0
 13 10  1  0  0  0
  9 10  2  0  0  0
  9  8  1  0  0  0
 10 11  1  0  0  0
  8  7  2  0  0  0
 11 12  2  0  0  0
  7 12  1  0  0  0
  7  4  1  0  0  0
  4  3  2  0  0  0
  4  5  1  0  0  0
  3  2  1  0  0  0
  5  6  2  0  0  0
  2  1  2  0  0  0
  6  1  1  0  0  0
 17 16  1  0  0  0
  1 16  1  0  0  0
 18 16  2  0  0  0
 16 19  2  0  0  0
 17 20  1  0  0  0
 17 21  1  0  0  0
 13 14  1  0  0  0
 13 15  1  0  0  0
M  END
> <minimizedAffinity>
-6.28573

$$$$
