4Q9Y_M3T_A_302


  9  9  0  0  0  0  0  0  0  0999 V2000
   14.9951    0.5254   17.6559 C   0  0  0  0  0  0  0  0  0  0  0  0
   14.9804    1.7589   16.9815 C   0  0  0  0  0  0  0  0  0  0  0  0
   15.6419    1.8956   15.7655 C   0  0  0  0  0  0  0  0  0  0  0  0
   15.6268    3.1352   15.0890 C   0  0  0  0  0  0  0  0  0  0  0  0
   16.5107    3.3178   13.4623 S   0  0  0  0  0  0  0  0  0  0  0  0
   14.9677    4.1930   15.6244 C   0  0  0  0  0  0  0  0  0  0  0  0
   14.3031    4.0546   16.8454 C   0  0  0  0  0  0  0  0  0  0  0  0
   14.3189    2.8201   17.5189 C   0  0  0  0  0  0  0  0  0  0  0  0
   17.0940    2.1355   13.1282 H   0  0  0  0  0  0  0  0  0  0  0  0
  1  2  1  0  0  0
  2  3  2  0  0  0
  2  8  1  0  0  0
  3  4  1  0  0  0
  8  7  2  0  0  0
  4  5  1  0  0  0
  4  6  2  0  0  0
  7  6  1  0  0  0
  5  9  1  0  0  0
M  END
> <minimizedAffinity>
-5.44177

$$$$
4Q9Y_M3T_A_302


  9  9  0  0  0  0  0  0  0  0999 V2000
   16.7814    3.6144   13.5430 C   0  0  0  0  0  0  0  0  0  0  0  0
   15.9426    3.6746   14.6696 C   0  0  0  0  0  0  0  0  0  0  0  0
   15.6084    2.5096   15.3520 C   0  0  0  0  0  0  0  0  0  0  0  0
   14.7654    2.5711   16.4834 C   0  0  0  0  0  0  0  0  0  0  0  0
   14.3193    1.0130   17.3967 S   0  0  0  0  0  0  0  0  0  0  0  0
   14.2809    3.7659   16.9051 C   0  0  0  0  0  0  0  0  0  0  0  0
   14.6176    4.9356   16.2193 C   0  0  0  0  0  0  0  0  0  0  0  0
   15.4567    4.8737   15.0925 C   0  0  0  0  0  0  0  0  0  0  0  0
   14.9164   -0.0511   16.7962 H   0  0  0  0  0  0  0  0  0  0  0  0
  1  2  1  0  0  0
  2  3  2  0  0  0
  2  8  1  0  0  0
  3  4  1  0  0  0
  8  7  2  0  0  0
  4  5  1  0  0  0
  4  6  2  0  0  0
  7  6  1  0  0  0
  5  9  1  0  0  0
M  END
> <minimizedAffinity>
-5.00621

$$$$
4Q9Y_M3T_A_302


  9  9  0  0  0  0  0  0  0  0999 V2000
   13.7818    4.0991   17.6767 C   0  0  0  0  0  0  0  0  0  0  0  0
   14.5386    3.1232   17.0049 C   0  0  0  0  0  0  0  0  0  0  0  0
   15.0774    3.4000   15.7527 C   0  0  0  0  0  0  0  0  0  0  0  0
   15.8372    2.4188   15.0785 C   0  0  0  0  0  0  0  0  0  0  0  0
   16.5587    2.7894   13.4043 S   0  0  0  0  0  0  0  0  0  0  0  0
   16.0418    1.2063   15.6511 C   0  0  0  0  0  0  0  0  0  0  0  0
   15.5008    0.9295   16.9090 C   0  0  0  0  0  0  0  0  0  0  0  0
   14.7438    1.9067   17.5798 C   0  0  0  0  0  0  0  0  0  0  0  0
   16.2245    4.0554   13.0368 H   0  0  0  0  0  0  0  0  0  0  0  0
  1  2  1  0  0  0
  2  3  2  0  0  0
  2  8  1  0  0  0
  3  4  1  0  0  0
  8  7  2  0  0  0
  4  5  1  0  0  0
  4  6  2  0  0  0
  7  6  1  0  0  0
  5  9  1  0  0  0
M  END
> <minimizedAffinity>
-4.90287

$$$$
4Q9Y_M3T_A_302


  9  9  0  0  0  0  0  0  0  0999 V2000
   14.8475    5.1972   14.8473 C   0  0  0  0  0  0  0  0  0  0  0  0
   14.8451    4.1171   15.7471 C   0  0  0  0  0  0  0  0  0  0  0  0
   15.4953    2.9330   15.4154 C   0  0  0  0  0  0  0  0  0  0  0  0
   15.4919    1.8483   16.3200 C   0  0  0  0  0  0  0  0  0  0  0  0
   16.3623    0.2651   15.8768 S   0  0  0  0  0  0  0  0  0  0  0  0
   14.8548    1.9604   17.5123 C   0  0  0  0  0  0  0  0  0  0  0  0
   14.2026    3.1503   17.8447 C   0  0  0  0  0  0  0  0  0  0  0  0
   14.2057    4.2298   16.9434 C   0  0  0  0  0  0  0  0  0  0  0  0
   16.9237    0.3861   14.6440 H   0  0  0  0  0  0  0  0  0  0  0  0
  1  2  1  0  0  0
  2  3  2  0  0  0
  2  8  1  0  0  0
  3  4  1  0  0  0
  8  7  2  0  0  0
  4  5  1  0  0  0
  4  6  2  0  0  0
  7  6  1  0  0  0
  5  9  1  0  0  0
M  END
> <minimizedAffinity>
-4.85328

$$$$
4Q9Y_M3T_A_302


  9  9  0  0  0  0  0  0  0  0999 V2000
   14.2477    2.1242   18.6604 C   0  0  0  0  0  0  0  0  0  0  0  0
   14.8016    2.2703   17.3765 C   0  0  0  0  0  0  0  0  0  0  0  0
   14.5737    3.4331   16.6480 C   0  0  0  0  0  0  0  0  0  0  0  0
   15.1303    3.5787   15.3582 C   0  0  0  0  0  0  0  0  0  0  0  0
   14.8263    5.1342   14.3842 S   0  0  0  0  0  0  0  0  0  0  0  0
   15.8870    2.5850   14.8290 C   0  0  0  0  0  0  0  0  0  0  0  0
   16.1158    1.4178   15.5617 C   0  0  0  0  0  0  0  0  0  0  0  0
   15.5609    1.2731   16.8459 C   0  0  0  0  0  0  0  0  0  0  0  0
   14.0473    5.9793   15.1113 H   0  0  0  0  0  0  0  0  0  0  0  0
  1  2  1  0  0  0
  2  3  2  0  0  0
  2  8  1  0  0  0
  3  4  1  0  0  0
  8  7  2  0  0  0
  4  5  1  0  0  0
  4  6  2  0  0  0
  7  6  1  0  0  0
  5  9  1  0  0  0
M  END
> <minimizedAffinity>
-4.84824

$$$$
4Q9Y_M3T_A_302


  9  9  0  0  0  0  0  0  0  0999 V2000
   14.2063    3.3474   17.2637 C   0  0  0  0  0  0  0  0  0  0  0  0
   14.8221    3.7980   16.0829 C   0  0  0  0  0  0  0  0  0  0  0  0
   15.3021    2.8807   15.1540 C   0  0  0  0  0  0  0  0  0  0  0  0
   15.9209    3.3345   13.9683 C   0  0  0  0  0  0  0  0  0  0  0  0
   16.5619    2.1075   12.7256 S   0  0  0  0  0  0  0  0  0  0  0  0
   16.0477    4.6646   13.7348 C   0  0  0  0  0  0  0  0  0  0  0  0
   15.5648    5.5852   14.6680 C   0  0  0  0  0  0  0  0  0  0  0  0
   14.9492    5.1328   15.8488 C   0  0  0  0  0  0  0  0  0  0  0  0
   16.3250    0.8448   13.1715 H   0  0  0  0  0  0  0  0  0  0  0  0
  1  2  1  0  0  0
  2  3  2  0  0  0
  2  8  1  0  0  0
  3  4  1  0  0  0
  8  7  2  0  0  0
  4  5  1  0  0  0
  4  6  2  0  0  0
  7  6  1  0  0  0
  5  9  1  0  0  0
M  END
> <minimizedAffinity>
-4.71203

$$$$
4Q9Y_M3T_A_302


  9  9  0  0  0  0  0  0  0  0999 V2000
   13.9860    3.8963   17.3594 C   0  0  0  0  0  0  0  0  0  0  0  0
   14.7914    3.6081   16.2437 C   0  0  0  0  0  0  0  0  0  0  0  0
   15.0724    4.6022   15.3123 C   0  0  0  0  0  0  0  0  0  0  0  0
   15.8812    4.3115   14.1916 C   0  0  0  0  0  0  0  0  0  0  0  0
   16.2578    5.6413   12.9464 S   0  0  0  0  0  0  0  0  0  0  0  0
   16.3843    3.0631   14.0228 C   0  0  0  0  0  0  0  0  0  0  0  0
   16.1020    2.0655   14.9591 C   0  0  0  0  0  0  0  0  0  0  0  0
   15.2961    2.3553   16.0746 C   0  0  0  0  0  0  0  0  0  0  0  0
   15.6510    6.7990   13.3221 H   0  0  0  0  0  0  0  0  0  0  0  0
  1  2  1  0  0  0
  2  3  2  0  0  0
  2  8  1  0  0  0
  3  4  1  0  0  0
  8  7  2  0  0  0
  4  5  1  0  0  0
  4  6  2  0  0  0
  7  6  1  0  0  0
  5  9  1  0  0  0
M  END
> <minimizedAffinity>
-4.55928

$$$$
4Q9Y_M3T_A_302


  9  9  0  0  0  0  0  0  0  0999 V2000
   17.9198   -1.8460   11.2029 C   0  0  0  0  0  0  0  0  0  0  0  0
   17.7654   -0.4509   11.1230 C   0  0  0  0  0  0  0  0  0  0  0  0
   18.8857    0.3718   11.0699 C   0  0  0  0  0  0  0  0  0  0  0  0
   18.7295    1.7731   10.9901 C   0  0  0  0  0  0  0  0  0  0  0  0
   20.2278    2.8733   10.9180 S   0  0  0  0  0  0  0  0  0  0  0  0
   17.4873    2.3176   10.9654 C   0  0  0  0  0  0  0  0  0  0  0  0
   16.3627    1.4905   11.0182 C   0  0  0  0  0  0  0  0  0  0  0  0
   16.5188    0.0951   11.0982 C   0  0  0  0  0  0  0  0  0  0  0  0
   21.3529    2.1101   10.9560 H   0  0  0  0  0  0  0  0  0  0  0  0
  1  2  1  0  0  0
  2  3  2  0  0  0
  2  8  1  0  0  0
  3  4  1  0  0  0
  8  7  2  0  0  0
  4  5  1  0  0  0
  4  6  2  0  0  0
  7  6  1  0  0  0
  5  9  1  0  0  0
M  END
> <minimizedAffinity>
-4.18628

$$$$
4Q9Y_M3T_A_302


  9  9  0  0  0  0  0  0  0  0999 V2000
   14.5899    5.5151   15.9563 C   0  0  0  0  0  0  0  0  0  0  0  0
   15.0621    4.2267   15.6508 C   0  0  0  0  0  0  0  0  0  0  0  0
   15.7210    3.9936   14.4481 C   0  0  0  0  0  0  0  0  0  0  0  0
   16.1946    2.6987   14.1420 C   0  0  0  0  0  0  0  0  0  0  0  0
   17.0766    2.3872   12.5340 S   0  0  0  0  0  0  0  0  0  0  0  0
   16.0073    1.6819   15.0200 C   0  0  0  0  0  0  0  0  0  0  0  0
   15.3459    1.9172   16.2279 C   0  0  0  0  0  0  0  0  0  0  0  0
   14.8740    3.2066   16.5321 C   0  0  0  0  0  0  0  0  0  0  0  0
   17.1454    3.5445   11.8231 H   0  0  0  0  0  0  0  0  0  0  0  0
  1  2  1  0  0  0
  2  3  2  0  0  0
  2  8  1  0  0  0
  3  4  1  0  0  0
  8  7  2  0  0  0
  4  5  1  0  0  0
  4  6  2  0  0  0
  7  6  1  0  0  0
  5  9  1  0  0  0
M  END
> <minimizedAffinity>
-4.15473

$$$$
4Q9Y_M3T_A_302


  9  9  0  0  0  0  0  0  0  0999 V2000
   20.0900    2.0180   10.1235 C   0  0  0  0  0  0  0  0  0  0  0  0
   18.9812    1.5063   10.8201 C   0  0  0  0  0  0  0  0  0  0  0  0
   18.2302    2.3396   11.6424 C   0  0  0  0  0  0  0  0  0  0  0  0
   17.1167    1.8244   12.3420 C   0  0  0  0  0  0  0  0  0  0  0  0
   16.1118    2.9392   13.4410 S   0  0  0  0  0  0  0  0  0  0  0  0
   16.7792    0.5170   12.2128 C   0  0  0  0  0  0  0  0  0  0  0  0
   17.5338   -0.3191   11.3862 C   0  0  0  0  0  0  0  0  0  0  0  0
   18.6427    0.1943   10.6901 C   0  0  0  0  0  0  0  0  0  0  0  0
   16.6345    4.1944   13.4131 H   0  0  0  0  0  0  0  0  0  0  0  0
  1  2  1  0  0  0
  2  3  2  0  0  0
  2  8  1  0  0  0
  3  4  1  0  0  0
  8  7  2  0  0  0
  4  5  1  0  0  0
  4  6  2  0  0  0
  7  6  1  0  0  0
  5  9  1  0  0  0
M  END
> <minimizedAffinity>
-4.03524

$$$$
