4B34_ABV_A_1351


 12 13  0  0  0  0  0  0  0  0999 V2000
   19.5872    7.9322   -2.1505 C   0  0  0  0  0  0  0  0  0  0  0  0
   20.4789    4.5032   -2.7105 N   0  0  0  0  0  0  0  0  0  0  0  0
   21.7743    6.5670   -3.1798 S   0  0  0  0  0  0  0  0  0  0  0  0
   18.3252    7.8448   -1.6041 C   0  0  0  0  0  0  0  0  0  0  0  0
   22.5960    4.1099   -3.6667 N   0  0  0  0  0  0  0  0  0  0  0  0
   17.7316    6.6028   -1.4114 C   0  0  0  0  0  0  0  0  0  0  0  0
   18.4122    5.4432   -1.7605 C   0  0  0  0  0  0  0  0  0  0  0  0
   19.6869    5.5213   -2.3142 C   0  0  0  0  0  0  0  0  0  0  0  0
   20.2616    6.7898   -2.5022 C   0  0  0  0  0  0  0  0  0  0  0  0
   21.6451    4.9099   -3.2083 C   0  0  0  0  0  0  0  0  0  0  0  0
   22.4645    3.1343   -3.6591 H   0  0  0  0  0  0  0  0  0  0  0  0
   23.4343    4.4909   -4.0151 H   0  0  0  0  0  0  0  0  0  0  0  0
  1  4  2  0  0  0
  1  9  1  0  0  0
  2  8  1  0  0  0
  2 10  2  0  0  0
  3  9  1  0  0  0
  3 10  1  0  0  0
  4  6  1  0  0  0
  5 10  1  0  0  0
  6  7  2  0  0  0
  7  8  1  0  0  0
  8  9  2  0  0  0
  5 11  1  0  0  0
  5 12  1  0  0  0
M  END
> <minimizedAffinity>
-4.55736

$$$$
4B34_ABV_A_1351


 12 13  0  0  0  0  0  0  0  0999 V2000
   18.4499    7.0354   -1.5362 C   0  0  0  0  0  0  0  0  0  0  0  0
   21.3980    6.7263   -3.5560 N   0  0  0  0  0  0  0  0  0  0  0  0
   20.2776    8.7692   -2.7023 S   0  0  0  0  0  0  0  0  0  0  0  0
   18.0647    5.7272   -1.3379 C   0  0  0  0  0  0  0  0  0  0  0  0
   22.4535    8.7350   -4.1902 N   0  0  0  0  0  0  0  0  0  0  0  0
   18.8026    4.6894   -1.8951 C   0  0  0  0  0  0  0  0  0  0  0  0
   19.9375    4.9663   -2.6470 C   0  0  0  0  0  0  0  0  0  0  0  0
   20.3337    6.2845   -2.8539 C   0  0  0  0  0  0  0  0  0  0  0  0
   19.5671    7.3145   -2.2829 C   0  0  0  0  0  0  0  0  0  0  0  0
   21.5009    8.0539   -3.5715 C   0  0  0  0  0  0  0  0  0  0  0  0
   23.1539    8.2576   -4.6910 H   0  0  0  0  0  0  0  0  0  0  0  0
   22.4613    9.7186   -4.1493 H   0  0  0  0  0  0  0  0  0  0  0  0
  1  4  2  0  0  0
  1  9  1  0  0  0
  2  8  1  0  0  0
  2 10  2  0  0  0
  3  9  1  0  0  0
  3 10  1  0  0  0
  4  6  1  0  0  0
  5 10  1  0  0  0
  6  7  2  0  0  0
  7  8  1  0  0  0
  8  9  2  0  0  0
  5 11  1  0  0  0
  5 12  1  0  0  0
M  END
> <minimizedAffinity>
-4.54574

$$$$
4B34_ABV_A_1351


 12 13  0  0  0  0  0  0  0  0999 V2000
   19.5253    4.8691   -2.4101 C   0  0  0  0  0  0  0  0  0  0  0  0
   20.9647    8.1209   -2.8795 N   0  0  0  0  0  0  0  0  0  0  0  0
   21.7816    5.9080   -3.6496 S   0  0  0  0  0  0  0  0  0  0  0  0
   18.3855    5.1308   -1.6812 C   0  0  0  0  0  0  0  0  0  0  0  0
   22.9852    8.2121   -4.0880 N   0  0  0  0  0  0  0  0  0  0  0  0
   18.0712    6.4358   -1.3202 C   0  0  0  0  0  0  0  0  0  0  0  0
   18.9005    7.4834   -1.7008 C   0  0  0  0  0  0  0  0  0  0  0  0
   20.0546    7.2288   -2.4361 C   0  0  0  0  0  0  0  0  0  0  0  0
   20.3508    5.8999   -2.7838 C   0  0  0  0  0  0  0  0  0  0  0  0
   21.9662    7.5572   -3.5522 C   0  0  0  0  0  0  0  0  0  0  0  0
   23.0430    9.1908   -3.9988 H   0  0  0  0  0  0  0  0  0  0  0  0
   23.6849    7.7201   -4.5756 H   0  0  0  0  0  0  0  0  0  0  0  0
  1  4  2  0  0  0
  1  9  1  0  0  0
  2  8  1  0  0  0
  2 10  2  0  0  0
  3  9  1  0  0  0
  3 10  1  0  0  0
  4  6  1  0  0  0
  5 10  1  0  0  0
  6  7  2  0  0  0
  7  8  1  0  0  0
  8  9  2  0  0  0
  5 11  1  0  0  0
  5 12  1  0  0  0
M  END
> <minimizedAffinity>
-4.33991

$$$$
4B34_ABV_A_1351


 12 13  0  0  0  0  0  0  0  0999 V2000
   19.2493    6.9983   -1.8284 C   0  0  0  0  0  0  0  0  0  0  0  0
   21.6904    6.7657   -4.4462 N   0  0  0  0  0  0  0  0  0  0  0  0
   20.7443    4.9786   -3.0080 S   0  0  0  0  0  0  0  0  0  0  0  0
   18.9483    8.3427   -1.7961 C   0  0  0  0  0  0  0  0  0  0  0  0
   22.5500    4.6184   -4.8947 N   0  0  0  0  0  0  0  0  0  0  0  0
   19.5771    9.2207   -2.6713 C   0  0  0  0  0  0  0  0  0  0  0  0
   20.5052    8.7450   -3.5890 C   0  0  0  0  0  0  0  0  0  0  0  0
   20.8166    7.3889   -3.6283 C   0  0  0  0  0  0  0  0  0  0  0  0
   20.1696    6.5242   -2.7294 C   0  0  0  0  0  0  0  0  0  0  0  0
   21.7676    5.4542   -4.2288 C   0  0  0  0  0  0  0  0  0  0  0  0
   23.1366    4.9568   -5.6093 H   0  0  0  0  0  0  0  0  0  0  0  0
   22.5448    3.6587   -4.6752 H   0  0  0  0  0  0  0  0  0  0  0  0
  1  4  2  0  0  0
  1  9  1  0  0  0
  2  8  1  0  0  0
  2 10  2  0  0  0
  3  9  1  0  0  0
  3 10  1  0  0  0
  4  6  1  0  0  0
  5 10  1  0  0  0
  6  7  2  0  0  0
  7  8  1  0  0  0
  8  9  2  0  0  0
  5 11  1  0  0  0
  5 12  1  0  0  0
M  END
> <minimizedAffinity>
-4.05570

$$$$
4B34_ABV_A_1351


 12 13  0  0  0  0  0  0  0  0999 V2000
   20.0303    8.9263   -3.2598 C   0  0  0  0  0  0  0  0  0  0  0  0
   20.1026    5.3433   -3.1072 N   0  0  0  0  0  0  0  0  0  0  0  0
   18.8305    6.9563   -1.7152 S   0  0  0  0  0  0  0  0  0  0  0  0
   20.8958    9.2157   -4.2922 C   0  0  0  0  0  0  0  0  0  0  0  0
   18.7622    4.3340   -1.4533 N   0  0  0  0  0  0  0  0  0  0  0  0
   21.5403    8.1890   -4.9724 C   0  0  0  0  0  0  0  0  0  0  0  0
   21.3073    6.8656   -4.6201 C   0  0  0  0  0  0  0  0  0  0  0  0
   20.4356    6.5634   -3.5778 C   0  0  0  0  0  0  0  0  0  0  0  0
   19.8010    7.6208   -2.9042 C   0  0  0  0  0  0  0  0  0  0  0  0
   19.2430    5.3904   -2.0912 C   0  0  0  0  0  0  0  0  0  0  0  0
   19.0423    3.4285   -1.7195 H   0  0  0  0  0  0  0  0  0  0  0  0
   18.1247    4.4542   -0.7128 H   0  0  0  0  0  0  0  0  0  0  0  0
  1  4  2  0  0  0
  1  9  1  0  0  0
  2  8  1  0  0  0
  2 10  2  0  0  0
  3  9  1  0  0  0
  3 10  1  0  0  0
  4  6  1  0  0  0
  5 10  1  0  0  0
  6  7  2  0  0  0
  7  8  1  0  0  0
  8  9  2  0  0  0
  5 11  1  0  0  0
  5 12  1  0  0  0
M  END
> <minimizedAffinity>
-4.02997

$$$$
4B34_ABV_A_1351


 12 13  0  0  0  0  0  0  0  0999 V2000
   20.7476    8.3888   -4.6763 C   0  0  0  0  0  0  0  0  0  0  0  0
   21.2719    5.4426   -2.6987 N   0  0  0  0  0  0  0  0  0  0  0  0
   22.2266    6.0509   -4.9068 S   0  0  0  0  0  0  0  0  0  0  0  0
   19.8680    9.1275   -3.9150 C   0  0  0  0  0  0  0  0  0  0  0  0
   22.7267    3.8200   -3.5943 N   0  0  0  0  0  0  0  0  0  0  0  0
   19.4189    8.6378   -2.6941 C   0  0  0  0  0  0  0  0  0  0  0  0
   19.8623    7.4052   -2.2316 C   0  0  0  0  0  0  0  0  0  0  0  0
   20.7497    6.6512   -2.9941 C   0  0  0  0  0  0  0  0  0  0  0  0
   21.1843    7.1679   -4.2265 C   0  0  0  0  0  0  0  0  0  0  0  0
   22.0897    4.9803   -3.6425 C   0  0  0  0  0  0  0  0  0  0  0  0
   22.6076    3.2249   -2.8191 H   0  0  0  0  0  0  0  0  0  0  0  0
   23.3192    3.5527   -4.3336 H   0  0  0  0  0  0  0  0  0  0  0  0
  1  4  2  0  0  0
  1  9  1  0  0  0
  2  8  1  0  0  0
  2 10  2  0  0  0
  3  9  1  0  0  0
  3 10  1  0  0  0
  4  6  1  0  0  0
  5 10  1  0  0  0
  6  7  2  0  0  0
  7  8  1  0  0  0
  8  9  2  0  0  0
  5 11  1  0  0  0
  5 12  1  0  0  0
M  END
> <minimizedAffinity>
-4.02503

$$$$
4B34_ABV_A_1351


 12 13  0  0  0  0  0  0  0  0999 V2000
   21.2015    7.6628   -4.1614 C   0  0  0  0  0  0  0  0  0  0  0  0
   18.8027    6.4350   -1.7940 N   0  0  0  0  0  0  0  0  0  0  0  0
   20.4715    5.1866   -3.1409 S   0  0  0  0  0  0  0  0  0  0  0  0
   20.9797    9.0229   -4.1588 C   0  0  0  0  0  0  0  0  0  0  0  0
   18.7719    4.1058   -1.4400 N   0  0  0  0  0  0  0  0  0  0  0  0
   19.9936    9.5685   -3.3452 C   0  0  0  0  0  0  0  0  0  0  0  0
   19.2332    8.7456   -2.5239 C   0  0  0  0  0  0  0  0  0  0  0  0
   19.4489    7.3705   -2.5206 C   0  0  0  0  0  0  0  0  0  0  0  0
   20.4492    6.8449   -3.3560 C   0  0  0  0  0  0  0  0  0  0  0  0
   19.2408    5.1985   -2.0234 C   0  0  0  0  0  0  0  0  0  0  0  0
   18.0405    4.1730   -0.7844 H   0  0  0  0  0  0  0  0  0  0  0  0
   19.1547    3.2264   -1.6619 H   0  0  0  0  0  0  0  0  0  0  0  0
  1  4  2  0  0  0
  1  9  1  0  0  0
  2  8  1  0  0  0
  2 10  2  0  0  0
  3  9  1  0  0  0
  3 10  1  0  0  0
  4  6  1  0  0  0
  5 10  1  0  0  0
  6  7  2  0  0  0
  7  8  1  0  0  0
  8  9  2  0  0  0
  5 11  1  0  0  0
  5 12  1  0  0  0
M  END
> <minimizedAffinity>
-4.01154

$$$$
4B34_ABV_A_1351


 12 13  0  0  0  0  0  0  0  0999 V2000
   21.6770    7.1019   -5.1185 C   0  0  0  0  0  0  0  0  0  0  0  0
   19.3920    9.1967   -3.3139 N   0  0  0  0  0  0  0  0  0  0  0  0
   20.2513    6.9401   -2.7421 S   0  0  0  0  0  0  0  0  0  0  0  0
   21.9766    7.8509   -6.2357 C   0  0  0  0  0  0  0  0  0  0  0  0
   18.5581    8.3391   -1.2840 N   0  0  0  0  0  0  0  0  0  0  0  0
   21.4006    9.1035   -6.4123 C   0  0  0  0  0  0  0  0  0  0  0  0
   20.5270    9.6098   -5.4582 C   0  0  0  0  0  0  0  0  0  0  0  0
   20.2172    8.8602   -4.3271 C   0  0  0  0  0  0  0  0  0  0  0  0
   20.8102    7.5952   -4.1757 C   0  0  0  0  0  0  0  0  0  0  0  0
   19.3011    8.2545   -2.3772 C   0  0  0  0  0  0  0  0  0  0  0  0
   18.0143    9.1430   -1.1194 H   0  0  0  0  0  0  0  0  0  0  0  0
   18.5497    7.5979   -0.6360 H   0  0  0  0  0  0  0  0  0  0  0  0
  1  4  2  0  0  0
  1  9  1  0  0  0
  2  8  1  0  0  0
  2 10  2  0  0  0
  3  9  1  0  0  0
  3 10  1  0  0  0
  4  6  1  0  0  0
  5 10  1  0  0  0
  6  7  2  0  0  0
  7  8  1  0  0  0
  8  9  2  0  0  0
  5 11  1  0  0  0
  5 12  1  0  0  0
M  END
> <minimizedAffinity>
-3.97583

$$$$
4B34_ABV_A_1351


 12 13  0  0  0  0  0  0  0  0999 V2000
   19.3950    8.8987   -2.5006 C   0  0  0  0  0  0  0  0  0  0  0  0
   21.2309    6.6744   -4.6332 N   0  0  0  0  0  0  0  0  0  0  0  0
   21.0019    9.1424   -4.7511 S   0  0  0  0  0  0  0  0  0  0  0  0
   18.8249    8.0506   -1.5761 C   0  0  0  0  0  0  0  0  0  0  0  0
   22.4021    7.6617   -6.4234 N   0  0  0  0  0  0  0  0  0  0  0  0
   19.0475    6.6808   -1.6540 C   0  0  0  0  0  0  0  0  0  0  0  0
   19.8535    6.1615   -2.6592 C   0  0  0  0  0  0  0  0  0  0  0  0
   20.4326    7.0100   -3.5983 C   0  0  0  0  0  0  0  0  0  0  0  0
   20.1876    8.3901   -3.4989 C   0  0  0  0  0  0  0  0  0  0  0  0
   21.6190    7.7226   -5.3569 C   0  0  0  0  0  0  0  0  0  0  0  0
   22.7388    6.7916   -6.7377 H   0  0  0  0  0  0  0  0  0  0  0  0
   22.6473    8.4864   -6.9018 H   0  0  0  0  0  0  0  0  0  0  0  0
  1  4  2  0  0  0
  1  9  1  0  0  0
  2  8  1  0  0  0
  2 10  2  0  0  0
  3  9  1  0  0  0
  3 10  1  0  0  0
  4  6  1  0  0  0
  5 10  1  0  0  0
  6  7  2  0  0  0
  7  8  1  0  0  0
  8  9  2  0  0  0
  5 11  1  0  0  0
  5 12  1  0  0  0
M  END
> <minimizedAffinity>
-3.92596

$$$$
4B34_ABV_A_1351


 12 13  0  0  0  0  0  0  0  0999 V2000
   21.8073    7.3221   -4.5337 C   0  0  0  0  0  0  0  0  0  0  0  0
   19.3830    6.5072   -2.0187 N   0  0  0  0  0  0  0  0  0  0  0  0
   19.8492    8.6845   -3.1139 S   0  0  0  0  0  0  0  0  0  0  0  0
   22.4437    6.1209   -4.7595 C   0  0  0  0  0  0  0  0  0  0  0  0
   18.0149    8.2715   -1.2660 N   0  0  0  0  0  0  0  0  0  0  0  0
   22.0654    4.9859   -4.0520 C   0  0  0  0  0  0  0  0  0  0  0  0
   21.0373    5.0556   -3.1203 C   0  0  0  0  0  0  0  0  0  0  0  0
   20.3894    6.2647   -2.8844 C   0  0  0  0  0  0  0  0  0  0  0  0
   20.7948    7.3975   -3.6103 C   0  0  0  0  0  0  0  0  0  0  0  0
   18.9828    7.7772   -2.0231 C   0  0  0  0  0  0  0  0  0  0  0  0
   17.5350    7.6863   -0.6364 H   0  0  0  0  0  0  0  0  0  0  0  0
   17.7755    9.2241   -1.3328 H   0  0  0  0  0  0  0  0  0  0  0  0
  1  4  2  0  0  0
  1  9  1  0  0  0
  2  8  1  0  0  0
  2 10  2  0  0  0
  3  9  1  0  0  0
  3 10  1  0  0  0
  4  6  1  0  0  0
  5 10  1  0  0  0
  6  7  2  0  0  0
  7  8  1  0  0  0
  8  9  2  0  0  0
  5 11  1  0  0  0
  5 12  1  0  0  0
M  END
> <minimizedAffinity>
-3.88426

$$$$
