3C2U_B3P_A_539


 27 26  0  0  0  0  0  0  0  0999 V2000
   61.2753   38.0683   47.8117 C   0  0  0  0  0  0  0  0  0  0  0  0
   60.8037   39.4351   47.3531 C   0  0  0  0  0  0  0  0  0  0  0  0
   59.5651   39.3553   46.6257 N   0  0  0  0  0  0  0  0  0  0  0  0
   58.9519   40.0475   47.0561 H   0  0  0  0  0  0  0  0  0  0  0  0
   59.4258   39.5526   45.1893 C   0  0  0  0  0  0  0  0  0  0  0  0
   60.6902   40.0806   44.5037 C   0  0  0  0  0  0  0  0  0  0  0  0
   60.8853   41.5071   44.5282 O   0  0  0  0  0  0  0  0  0  0  0  0
   60.1712   41.9397   44.0344 H   0  0  0  0  0  0  0  0  0  0  0  0
   58.3124   40.5670   44.8264 C   0  0  0  0  0  0  0  0  0  0  0  0
   58.1513   41.5348   45.8980 O   0  0  0  0  0  0  0  0  0  0  0  0
   57.9037   41.0743   46.7151 H   0  0  0  0  0  0  0  0  0  0  0  0
   59.0232   38.1803   44.6893 C   0  0  0  0  0  0  0  0  0  0  0  0
   58.4046   37.4519   45.7358 O   0  0  0  0  0  0  0  0  0  0  0  0
   59.0271   37.3534   46.4731 H   0  0  0  0  0  0  0  0  0  0  0  0
   60.3213   37.4780   48.8067 C   0  0  0  0  0  0  0  0  0  0  0  0
   61.0953   36.7241   49.7926 N   0  0  0  0  0  0  0  0  0  0  0  0
   61.4484   37.4028   50.4673 H   0  0  0  0  0  0  0  0  0  0  0  0
   60.4757   35.6580   50.5609 C   0  0  0  0  0  0  0  0  0  0  0  0
   61.4307   35.0379   51.5192 C   0  0  0  0  0  0  0  0  0  0  0  0
   61.1897   35.6418   52.8665 O   0  0  0  0  0  0  0  0  0  0  0  0
   61.3237   36.6013   52.8194 H   0  0  0  0  0  0  0  0  0  0  0  0
   59.3544   36.2534   51.4203 C   0  0  0  0  0  0  0  0  0  0  0  0
   58.4704   35.2599   51.9507 O   0  0  0  0  0  0  0  0  0  0  0  0
   58.0358   34.7912   51.2210 H   0  0  0  0  0  0  0  0  0  0  0  0
   60.1037   34.5478   49.5718 C   0  0  0  0  0  0  0  0  0  0  0  0
   59.8173   33.3185   50.2262 O   0  0  0  0  0  0  0  0  0  0  0  0
   60.6037   33.0178   50.7080 H   0  0  0  0  0  0  0  0  0  0  0  0
  1  2  1  0  0  0
  1 15  1  0  0  0
  2  3  1  0  0  0
 15 16  1  0  0  0
 16 18  1  0  0  0
 18 19  1  0  0  0
 18 22  1  0  0  0
 18 25  1  0  0  0
 19 20  1  0  0  0
 22 23  1  0  0  0
 25 26  1  0  0  0
  3  5  1  0  0  0
  5  6  1  0  0  0
  5  9  1  0  0  0
  5 12  1  0  0  0
  6  7  1  0  0  0
  9 10  1  0  0  0
 12 13  1  0  0  0
 16 17  1  0  0  0
  3  4  1  0  0  0
  7  8  1  0  0  0
 10 11  1  0  0  0
 13 14  1  0  0  0
 20 21  1  0  0  0
 23 24  1  0  0  0
 26 27  1  0  0  0
M  END
> <minimizedAffinity>
-6.64139

$$$$
3C2U_B3P_A_539


 27 26  0  0  0  0  0  0  0  0999 V2000
   61.2593   38.2734   47.4754 C   0  0  0  0  0  0  0  0  0  0  0  0
   60.2959   37.6880   48.4903 C   0  0  0  0  0  0  0  0  0  0  0  0
   60.9822   36.9232   49.4971 N   0  0  0  0  0  0  0  0  0  0  0  0
   61.5115   37.6038   50.0420 H   0  0  0  0  0  0  0  0  0  0  0  0
   60.3351   36.0605   50.4763 C   0  0  0  0  0  0  0  0  0  0  0  0
   59.1071   36.6847   51.1470 C   0  0  0  0  0  0  0  0  0  0  0  0
   57.9793   35.8144   51.3579 O   0  0  0  0  0  0  0  0  0  0  0  0
   57.6345   35.5185   50.5009 H   0  0  0  0  0  0  0  0  0  0  0  0
   61.2755   35.6606   51.6407 C   0  0  0  0  0  0  0  0  0  0  0  0
   62.3525   34.8204   51.1457 O   0  0  0  0  0  0  0  0  0  0  0  0
   61.9800   34.0163   50.7513 H   0  0  0  0  0  0  0  0  0  0  0  0
   59.9924   34.8224   49.6732 C   0  0  0  0  0  0  0  0  0  0  0  0
   59.7345   33.7392   50.5498 O   0  0  0  0  0  0  0  0  0  0  0  0
   60.5227   33.5634   51.0872 H   0  0  0  0  0  0  0  0  0  0  0  0
   60.8588   39.6685   47.0987 C   0  0  0  0  0  0  0  0  0  0  0  0
   59.5056   39.6234   46.5453 N   0  0  0  0  0  0  0  0  0  0  0  0
   58.9605   40.3225   47.0498 H   0  0  0  0  0  0  0  0  0  0  0  0
   59.2772   39.8603   45.1302 C   0  0  0  0  0  0  0  0  0  0  0  0
   58.2565   40.9193   44.9029 C   0  0  0  0  0  0  0  0  0  0  0  0
   58.1350   41.7204   46.1604 O   0  0  0  0  0  0  0  0  0  0  0  0
   57.8707   41.1386   46.8902 H   0  0  0  0  0  0  0  0  0  0  0  0
   60.5709   40.3902   44.5011 C   0  0  0  0  0  0  0  0  0  0  0  0
   60.5252   41.7955   44.2308 O   0  0  0  0  0  0  0  0  0  0  0  0
   59.8166   41.9795   43.5945 H   0  0  0  0  0  0  0  0  0  0  0  0
   58.6756   38.5756   44.5499 C   0  0  0  0  0  0  0  0  0  0  0  0
   58.2874   37.6578   45.5640 O   0  0  0  0  0  0  0  0  0  0  0  0
   59.0662   37.3984   46.0808 H   0  0  0  0  0  0  0  0  0  0  0  0
  1  2  1  0  0  0
  1 15  1  0  0  0
  2  3  1  0  0  0
 15 16  1  0  0  0
 16 18  1  0  0  0
 18 19  1  0  0  0
 18 22  1  0  0  0
 18 25  1  0  0  0
 19 20  1  0  0  0
 22 23  1  0  0  0
 25 26  1  0  0  0
  3  5  1  0  0  0
  5  6  1  0  0  0
  5  9  1  0  0  0
  5 12  1  0  0  0
  6  7  1  0  0  0
  9 10  1  0  0  0
 12 13  1  0  0  0
 16 17  1  0  0  0
  3  4  1  0  0  0
  7  8  1  0  0  0
 10 11  1  0  0  0
 13 14  1  0  0  0
 20 21  1  0  0  0
 23 24  1  0  0  0
 26 27  1  0  0  0
M  END
> <minimizedAffinity>
-6.61538

$$$$
3C2U_B3P_A_539


 27 26  0  0  0  0  0  0  0  0999 V2000
   61.3635   38.2383   47.7914 C   0  0  0  0  0  0  0  0  0  0  0  0
   60.8781   39.5798   47.2762 C   0  0  0  0  0  0  0  0  0  0  0  0
   59.5923   39.4730   46.6399 N   0  0  0  0  0  0  0  0  0  0  0  0
   58.9683   40.0665   47.1864 H   0  0  0  0  0  0  0  0  0  0  0  0
   59.3196   39.8012   45.2472 C   0  0  0  0  0  0  0  0  0  0  0  0
   58.1626   40.7862   45.0505 C   0  0  0  0  0  0  0  0  0  0  0  0
   58.0755   41.8704   45.9942 O   0  0  0  0  0  0  0  0  0  0  0  0
   57.9120   41.5143   46.8815 H   0  0  0  0  0  0  0  0  0  0  0  0
   58.9462   38.5601   44.3984 C   0  0  0  0  0  0  0  0  0  0  0  0
   59.3161   38.7762   43.0100 O   0  0  0  0  0  0  0  0  0  0  0  0
   58.8408   39.5482   42.6652 H   0  0  0  0  0  0  0  0  0  0  0  0
   60.6426   40.3530   44.7567 C   0  0  0  0  0  0  0  0  0  0  0  0
   60.4296   41.5844   44.0884 O   0  0  0  0  0  0  0  0  0  0  0  0
   59.8415   41.4432   43.3301 H   0  0  0  0  0  0  0  0  0  0  0  0
   60.3132   37.5745   48.6309 C   0  0  0  0  0  0  0  0  0  0  0  0
   60.9797   36.8642   49.7221 N   0  0  0  0  0  0  0  0  0  0  0  0
   61.2709   37.5722   50.3962 H   0  0  0  0  0  0  0  0  0  0  0  0
   60.2778   35.8382   50.4740 C   0  0  0  0  0  0  0  0  0  0  0  0
   58.9182   36.2836   50.8842 C   0  0  0  0  0  0  0  0  0  0  0  0
   58.4114   35.3270   51.9166 O   0  0  0  0  0  0  0  0  0  0  0  0
   58.3821   34.4327   51.5421 H   0  0  0  0  0  0  0  0  0  0  0  0
   60.0590   34.6214   49.5674 C   0  0  0  0  0  0  0  0  0  0  0  0
   59.8141   33.4162   50.3004 O   0  0  0  0  0  0  0  0  0  0  0  0
   60.5852   33.2108   50.8519 H   0  0  0  0  0  0  0  0  0  0  0  0
   61.0538   35.6257   51.7786 C   0  0  0  0  0  0  0  0  0  0  0  0
   62.1093   34.6849   51.6292 O   0  0  0  0  0  0  0  0  0  0  0  0
   61.7417   33.8243   51.3741 H   0  0  0  0  0  0  0  0  0  0  0  0
  1  2  1  0  0  0
  1 15  1  0  0  0
  2  3  1  0  0  0
 15 16  1  0  0  0
 16 18  1  0  0  0
 18 19  1  0  0  0
 18 22  1  0  0  0
 18 25  1  0  0  0
 19 20  1  0  0  0
 22 23  1  0  0  0
 25 26  1  0  0  0
  3  5  1  0  0  0
  5  6  1  0  0  0
  5  9  1  0  0  0
  5 12  1  0  0  0
  6  7  1  0  0  0
  9 10  1  0  0  0
 12 13  1  0  0  0
 16 17  1  0  0  0
  3  4  1  0  0  0
  7  8  1  0  0  0
 10 11  1  0  0  0
 13 14  1  0  0  0
 20 21  1  0  0  0
 23 24  1  0  0  0
 26 27  1  0  0  0
M  END
> <minimizedAffinity>
-6.58038

$$$$
3C2U_B3P_A_539


 27 26  0  0  0  0  0  0  0  0999 V2000
   61.2317   38.6702   47.6401 C   0  0  0  0  0  0  0  0  0  0  0  0
   60.4886   37.4714   48.1981 C   0  0  0  0  0  0  0  0  0  0  0  0
   61.0001   37.0785   49.4840 N   0  0  0  0  0  0  0  0  0  0  0  0
   61.1892   37.9499   49.9793 H   0  0  0  0  0  0  0  0  0  0  0  0
   60.2975   36.2331   50.4397 C   0  0  0  0  0  0  0  0  0  0  0  0
   59.8465   34.8842   49.8701 C   0  0  0  0  0  0  0  0  0  0  0  0
   59.8975   33.7593   50.7677 O   0  0  0  0  0  0  0  0  0  0  0  0
   60.8178   33.5922   51.0247 H   0  0  0  0  0  0  0  0  0  0  0  0
   59.0092   36.8923   50.9929 C   0  0  0  0  0  0  0  0  0  0  0  0
   58.0327   35.8713   51.3318 O   0  0  0  0  0  0  0  0  0  0  0  0
   57.8094   35.3612   50.5375 H   0  0  0  0  0  0  0  0  0  0  0  0
   61.2969   36.0826   51.5683 C   0  0  0  0  0  0  0  0  0  0  0  0
   60.6126   35.8316   52.7836 O   0  0  0  0  0  0  0  0  0  0  0  0
   60.0189   36.5731   52.9795 H   0  0  0  0  0  0  0  0  0  0  0  0
   60.2757   39.7509   47.2317 C   0  0  0  0  0  0  0  0  0  0  0  0
   60.6041   40.1617   45.8667 N   0  0  0  0  0  0  0  0  0  0  0  0
   61.4134   39.6097   45.5826 H   0  0  0  0  0  0  0  0  0  0  0  0
   59.6233   40.0400   44.8018 C   0  0  0  0  0  0  0  0  0  0  0  0
   59.8728   41.0139   43.7044 C   0  0  0  0  0  0  0  0  0  0  0  0
   60.8672   42.0177   44.1956 O   0  0  0  0  0  0  0  0  0  0  0  0
   60.5137   42.4660   44.9798 H   0  0  0  0  0  0  0  0  0  0  0  0
   59.7551   38.6529   44.1625 C   0  0  0  0  0  0  0  0  0  0  0  0
   58.8405   37.6970   44.7098 O   0  0  0  0  0  0  0  0  0  0  0  0
   59.0222   37.5803   45.6555 H   0  0  0  0  0  0  0  0  0  0  0  0
   58.2639   40.4260   45.3954 C   0  0  0  0  0  0  0  0  0  0  0  0
   58.0537   41.8322   45.3880 O   0  0  0  0  0  0  0  0  0  0  0  0
   58.7329   42.2634   45.9299 H   0  0  0  0  0  0  0  0  0  0  0  0
  1  2  1  0  0  0
  1 15  1  0  0  0
  2  3  1  0  0  0
 15 16  1  0  0  0
 16 18  1  0  0  0
 18 19  1  0  0  0
 18 22  1  0  0  0
 18 25  1  0  0  0
 19 20  1  0  0  0
 22 23  1  0  0  0
 25 26  1  0  0  0
  3  5  1  0  0  0
  5  6  1  0  0  0
  5  9  1  0  0  0
  5 12  1  0  0  0
  6  7  1  0  0  0
  9 10  1  0  0  0
 12 13  1  0  0  0
 16 17  1  0  0  0
  3  4  1  0  0  0
  7  8  1  0  0  0
 10 11  1  0  0  0
 13 14  1  0  0  0
 20 21  1  0  0  0
 23 24  1  0  0  0
 26 27  1  0  0  0
M  END
> <minimizedAffinity>
-6.56671

$$$$
3C2U_B3P_A_539


 27 26  0  0  0  0  0  0  0  0999 V2000
   61.0576   38.3003   47.6612 C   0  0  0  0  0  0  0  0  0  0  0  0
   60.2964   37.1873   48.3559 C   0  0  0  0  0  0  0  0  0  0  0  0
   60.9596   36.7575   49.5579 N   0  0  0  0  0  0  0  0  0  0  0  0
   60.9166   37.5551   50.1923 H   0  0  0  0  0  0  0  0  0  0  0  0
   60.5731   35.6034   50.3582 C   0  0  0  0  0  0  0  0  0  0  0  0
   61.7426   34.9121   51.0666 C   0  0  0  0  0  0  0  0  0  0  0  0
   61.5334   34.5478   52.4440 O   0  0  0  0  0  0  0  0  0  0  0  0
   61.3990   35.3493   52.9737 H   0  0  0  0  0  0  0  0  0  0  0  0
   59.8900   34.4926   49.5218 C   0  0  0  0  0  0  0  0  0  0  0  0
   59.9144   33.2349   50.2489 O   0  0  0  0  0  0  0  0  0  0  0  0
   60.8340   32.9789   50.4213 H   0  0  0  0  0  0  0  0  0  0  0  0
   59.5633   36.1792   51.3298 C   0  0  0  0  0  0  0  0  0  0  0  0
   58.6982   35.1532   51.7852 O   0  0  0  0  0  0  0  0  0  0  0  0
   58.2295   34.7662   51.0293 H   0  0  0  0  0  0  0  0  0  0  0  0
   60.1586   39.4649   47.3712 C   0  0  0  0  0  0  0  0  0  0  0  0
   60.5809   40.0663   46.1066 N   0  0  0  0  0  0  0  0  0  0  0  0
   61.4308   39.5798   45.8215 H   0  0  0  0  0  0  0  0  0  0  0  0
   59.6950   40.0649   44.9550 C   0  0  0  0  0  0  0  0  0  0  0  0
   59.6235   38.7245   44.3121 C   0  0  0  0  0  0  0  0  0  0  0  0
   58.2816   38.1378   44.6170 O   0  0  0  0  0  0  0  0  0  0  0  0
   58.1713   38.0649   45.5779 H   0  0  0  0  0  0  0  0  0  0  0  0
   58.2694   40.3751   45.4257 C   0  0  0  0  0  0  0  0  0  0  0  0
   58.0725   41.7591   45.7350 O   0  0  0  0  0  0  0  0  0  0  0  0
   58.6620   42.0151   46.4616 H   0  0  0  0  0  0  0  0  0  0  0  0
   60.3181   40.9931   43.9064 C   0  0  0  0  0  0  0  0  0  0  0  0
   61.5083   41.6129   44.3764 O   0  0  0  0  0  0  0  0  0  0  0  0
   61.3044   42.1577   45.1525 H   0  0  0  0  0  0  0  0  0  0  0  0
  1  2  1  0  0  0
  1 15  1  0  0  0
  2  3  1  0  0  0
 15 16  1  0  0  0
 16 18  1  0  0  0
 18 19  1  0  0  0
 18 22  1  0  0  0
 18 25  1  0  0  0
 19 20  1  0  0  0
 22 23  1  0  0  0
 25 26  1  0  0  0
  3  5  1  0  0  0
  5  6  1  0  0  0
  5  9  1  0  0  0
  5 12  1  0  0  0
  6  7  1  0  0  0
  9 10  1  0  0  0
 12 13  1  0  0  0
 16 17  1  0  0  0
  3  4  1  0  0  0
  7  8  1  0  0  0
 10 11  1  0  0  0
 13 14  1  0  0  0
 20 21  1  0  0  0
 23 24  1  0  0  0
 26 27  1  0  0  0
M  END
> <minimizedAffinity>
-6.54454

$$$$
3C2U_B3P_A_539


 27 26  0  0  0  0  0  0  0  0999 V2000
   61.3217   38.7325   47.7441 C   0  0  0  0  0  0  0  0  0  0  0  0
   60.3327   37.8889   48.5257 C   0  0  0  0  0  0  0  0  0  0  0  0
   60.9840   37.1132   49.5472 N   0  0  0  0  0  0  0  0  0  0  0  0
   61.4817   37.7895   50.1264 H   0  0  0  0  0  0  0  0  0  0  0  0
   60.3057   36.2259   50.4823 C   0  0  0  0  0  0  0  0  0  0  0  0
   59.8237   34.9110   49.8609 C   0  0  0  0  0  0  0  0  0  0  0  0
   59.8669   33.7472   50.7079 O   0  0  0  0  0  0  0  0  0  0  0  0
   60.7875   33.5535   50.9445 H   0  0  0  0  0  0  0  0  0  0  0  0
   59.0427   36.8660   51.1110 C   0  0  0  0  0  0  0  0  0  0  0  0
   58.0351   35.8474   51.3521 O   0  0  0  0  0  0  0  0  0  0  0  0
   57.7910   35.4287   50.5118 H   0  0  0  0  0  0  0  0  0  0  0  0
   61.3407   36.0110   51.5676 C   0  0  0  0  0  0  0  0  0  0  0  0
   60.6940   35.7371   52.7985 O   0  0  0  0  0  0  0  0  0  0  0  0
   60.1284   36.4871   53.0404 H   0  0  0  0  0  0  0  0  0  0  0  0
   60.7801   39.0757   46.3886 C   0  0  0  0  0  0  0  0  0  0  0  0
   59.5635   38.2937   46.1695 N   0  0  0  0  0  0  0  0  0  0  0  0
   58.7931   38.9603   46.1198 H   0  0  0  0  0  0  0  0  0  0  0  0
   59.4398   37.4282   45.0092 C   0  0  0  0  0  0  0  0  0  0  0  0
   58.1638   36.6623   45.0223 C   0  0  0  0  0  0  0  0  0  0  0  0
   58.2475   35.6085   43.9638 O   0  0  0  0  0  0  0  0  0  0  0  0
   58.3883   36.0278   43.1005 H   0  0  0  0  0  0  0  0  0  0  0  0
   59.3889   38.2961   43.7465 C   0  0  0  0  0  0  0  0  0  0  0  0
   58.2489   39.1615   43.7097 O   0  0  0  0  0  0  0  0  0  0  0  0
   57.4384   38.6286   43.7078 H   0  0  0  0  0  0  0  0  0  0  0  0
   60.5525   36.3788   45.1094 C   0  0  0  0  0  0  0  0  0  0  0  0
   60.2770   35.3961   46.0993 O   0  0  0  0  0  0  0  0  0  0  0  0
   60.2096   35.8222   46.9680 H   0  0  0  0  0  0  0  0  0  0  0  0
  1  2  1  0  0  0
  1 15  1  0  0  0
  2  3  1  0  0  0
 15 16  1  0  0  0
 16 18  1  0  0  0
 18 19  1  0  0  0
 18 22  1  0  0  0
 18 25  1  0  0  0
 19 20  1  0  0  0
 22 23  1  0  0  0
 25 26  1  0  0  0
  3  5  1  0  0  0
  5  6  1  0  0  0
  5  9  1  0  0  0
  5 12  1  0  0  0
  6  7  1  0  0  0
  9 10  1  0  0  0
 12 13  1  0  0  0
 16 17  1  0  0  0
  3  4  1  0  0  0
  7  8  1  0  0  0
 10 11  1  0  0  0
 13 14  1  0  0  0
 20 21  1  0  0  0
 23 24  1  0  0  0
 26 27  1  0  0  0
M  END
> <minimizedAffinity>
-6.52539

$$$$
3C2U_B3P_A_539


 27 26  0  0  0  0  0  0  0  0999 V2000
   61.0952   38.4988   47.6611 C   0  0  0  0  0  0  0  0  0  0  0  0
   60.4922   37.1960   48.1507 C   0  0  0  0  0  0  0  0  0  0  0  0
   60.8645   36.9144   49.5114 N   0  0  0  0  0  0  0  0  0  0  0  0
   60.6854   37.7765   50.0263 H   0  0  0  0  0  0  0  0  0  0  0  0
   60.2993   35.8494   50.3288 C   0  0  0  0  0  0  0  0  0  0  0  0
   60.0547   34.5405   49.5708 C   0  0  0  0  0  0  0  0  0  0  0  0
   59.8456   33.3635   50.3738 O   0  0  0  0  0  0  0  0  0  0  0  0
   60.6479   33.1743   50.8851 H   0  0  0  0  0  0  0  0  0  0  0  0
   58.9280   36.2259   50.9436 C   0  0  0  0  0  0  0  0  0  0  0  0
   58.5362   35.2357   51.9320 O   0  0  0  0  0  0  0  0  0  0  0  0
   58.4631   34.3666   51.5076 H   0  0  0  0  0  0  0  0  0  0  0  0
   61.3129   35.6947   51.4440 C   0  0  0  0  0  0  0  0  0  0  0  0
   62.3178   34.7748   51.0536 O   0  0  0  0  0  0  0  0  0  0  0  0
   61.9129   33.9131   50.8680 H   0  0  0  0  0  0  0  0  0  0  0  0
   60.0234   39.4786   47.2872 C   0  0  0  0  0  0  0  0  0  0  0  0
   60.4449   40.1785   46.0740 N   0  0  0  0  0  0  0  0  0  0  0  0
   61.3617   39.8065   45.8261 H   0  0  0  0  0  0  0  0  0  0  0  0
   59.6345   40.1235   44.8694 C   0  0  0  0  0  0  0  0  0  0  0  0
   59.5644   38.7459   44.3106 C   0  0  0  0  0  0  0  0  0  0  0  0
   58.1605   38.2544   44.4698 O   0  0  0  0  0  0  0  0  0  0  0  0
   57.9216   38.2571   45.4099 H   0  0  0  0  0  0  0  0  0  0  0  0
   58.1916   40.5002   45.2249 C   0  0  0  0  0  0  0  0  0  0  0  0
   58.0489   41.8759   45.5948 O   0  0  0  0  0  0  0  0  0  0  0  0
   58.5808   42.0548   46.3859 H   0  0  0  0  0  0  0  0  0  0  0  0
   60.3503   40.9644   43.8064 C   0  0  0  0  0  0  0  0  0  0  0  0
   61.4783   41.6507   44.3336 O   0  0  0  0  0  0  0  0  0  0  0  0
   61.1892   42.2603   45.0306 H   0  0  0  0  0  0  0  0  0  0  0  0
  1  2  1  0  0  0
  1 15  1  0  0  0
  2  3  1  0  0  0
 15 16  1  0  0  0
 16 18  1  0  0  0
 18 19  1  0  0  0
 18 22  1  0  0  0
 18 25  1  0  0  0
 19 20  1  0  0  0
 22 23  1  0  0  0
 25 26  1  0  0  0
  3  5  1  0  0  0
  5  6  1  0  0  0
  5  9  1  0  0  0
  5 12  1  0  0  0
  6  7  1  0  0  0
  9 10  1  0  0  0
 12 13  1  0  0  0
 16 17  1  0  0  0
  3  4  1  0  0  0
  7  8  1  0  0  0
 10 11  1  0  0  0
 13 14  1  0  0  0
 20 21  1  0  0  0
 23 24  1  0  0  0
 26 27  1  0  0  0
M  END
> <minimizedAffinity>
-6.51649

$$$$
3C2U_B3P_A_539


 27 26  0  0  0  0  0  0  0  0999 V2000
   61.3452   38.0803   47.7056 C   0  0  0  0  0  0  0  0  0  0  0  0
   60.2384   37.5095   48.5716 C   0  0  0  0  0  0  0  0  0  0  0  0
   60.7407   37.0313   49.8320 N   0  0  0  0  0  0  0  0  0  0  0  0
   60.6079   37.8014   50.4875 H   0  0  0  0  0  0  0  0  0  0  0  0
   60.2613   35.8436   50.5258 C   0  0  0  0  0  0  0  0  0  0  0  0
   61.0685   35.4798   51.7763 C   0  0  0  0  0  0  0  0  0  0  0  0
   62.1848   34.5909   51.5832 O   0  0  0  0  0  0  0  0  0  0  0  0
   61.8630   33.7304   51.2719 H   0  0  0  0  0  0  0  0  0  0  0  0
   60.2924   34.5744   49.6379 C   0  0  0  0  0  0  0  0  0  0  0  0
   59.7609   33.4391   50.3725 O   0  0  0  0  0  0  0  0  0  0  0  0
   60.3013   33.2838   51.1630 H   0  0  0  0  0  0  0  0  0  0  0  0
   58.8204   36.1869   50.8434 C   0  0  0  0  0  0  0  0  0  0  0  0
   58.3545   35.3660   51.9006 O   0  0  0  0  0  0  0  0  0  0  0  0
   58.4100   34.4347   51.6354 H   0  0  0  0  0  0  0  0  0  0  0  0
   61.0417   39.4947   47.3108 C   0  0  0  0  0  0  0  0  0  0  0  0
   59.6641   39.5487   46.8221 N   0  0  0  0  0  0  0  0  0  0  0  0
   59.2283   40.3567   47.2665 H   0  0  0  0  0  0  0  0  0  0  0  0
   59.3878   39.6571   45.3999 C   0  0  0  0  0  0  0  0  0  0  0  0
   58.2712   40.6013   45.1224 C   0  0  0  0  0  0  0  0  0  0  0  0
   58.1469   41.5252   46.2923 O   0  0  0  0  0  0  0  0  0  0  0  0
   57.9699   41.0092   47.0944 H   0  0  0  0  0  0  0  0  0  0  0  0
   60.6158   40.2509   44.7001 C   0  0  0  0  0  0  0  0  0  0  0  0
   60.4371   41.6216   44.3269 O   0  0  0  0  0  0  0  0  0  0  0  0
   59.7029   41.6921   43.6969 H   0  0  0  0  0  0  0  0  0  0  0  0
   58.8937   38.2840   44.9311 C   0  0  0  0  0  0  0  0  0  0  0  0
   59.8295   37.6387   44.0771 O   0  0  0  0  0  0  0  0  0  0  0  0
   59.9670   38.1775   43.2823 H   0  0  0  0  0  0  0  0  0  0  0  0
  1  2  1  0  0  0
  1 15  1  0  0  0
  2  3  1  0  0  0
 15 16  1  0  0  0
 16 18  1  0  0  0
 18 19  1  0  0  0
 18 22  1  0  0  0
 18 25  1  0  0  0
 19 20  1  0  0  0
 22 23  1  0  0  0
 25 26  1  0  0  0
  3  5  1  0  0  0
  5  6  1  0  0  0
  5  9  1  0  0  0
  5 12  1  0  0  0
  6  7  1  0  0  0
  9 10  1  0  0  0
 12 13  1  0  0  0
 16 17  1  0  0  0
  3  4  1  0  0  0
  7  8  1  0  0  0
 10 11  1  0  0  0
 13 14  1  0  0  0
 20 21  1  0  0  0
 23 24  1  0  0  0
 26 27  1  0  0  0
M  END
> <minimizedAffinity>
-6.51626

$$$$
3C2U_B3P_A_539


 27 26  0  0  0  0  0  0  0  0999 V2000
   61.2530   38.1404   47.4956 C   0  0  0  0  0  0  0  0  0  0  0  0
   60.7461   37.6772   46.1431 C   0  0  0  0  0  0  0  0  0  0  0  0
   59.4487   38.2224   45.8448 N   0  0  0  0  0  0  0  0  0  0  0  0
   58.9967   38.3589   46.7489 H   0  0  0  0  0  0  0  0  0  0  0  0
   59.2103   39.4523   45.1016 C   0  0  0  0  0  0  0  0  0  0  0  0
   58.1241   39.3348   44.0275 C   0  0  0  0  0  0  0  0  0  0  0  0
   58.1572   40.3136   42.9717 O   0  0  0  0  0  0  0  0  0  0  0  0
   58.0030   41.1959   43.3439 H   0  0  0  0  0  0  0  0  0  0  0  0
   60.4694   39.9571   44.3535 C   0  0  0  0  0  0  0  0  0  0  0  0
   60.5571   41.4045   44.4454 O   0  0  0  0  0  0  0  0  0  0  0  0
   59.7700   41.8024   44.0415 H   0  0  0  0  0  0  0  0  0  0  0  0
   58.8502   40.4471   46.1861 C   0  0  0  0  0  0  0  0  0  0  0  0
   58.0391   41.4746   45.6432 O   0  0  0  0  0  0  0  0  0  0  0  0
   58.5247   41.9317   44.9388 H   0  0  0  0  0  0  0  0  0  0  0  0
   60.2932   37.7654   48.5850 C   0  0  0  0  0  0  0  0  0  0  0  0
   61.0183   36.9826   49.5855 N   0  0  0  0  0  0  0  0  0  0  0  0
   61.4917   37.6517   50.1926 H   0  0  0  0  0  0  0  0  0  0  0  0
   60.3113   36.0592   50.4563 C   0  0  0  0  0  0  0  0  0  0  0  0
   59.8917   34.8272   49.7343 C   0  0  0  0  0  0  0  0  0  0  0  0
   59.8337   33.7086   50.7259 O   0  0  0  0  0  0  0  0  0  0  0  0
   60.7072   33.5896   51.1306 H   0  0  0  0  0  0  0  0  0  0  0  0
   61.2663   35.5879   51.5591 C   0  0  0  0  0  0  0  0  0  0  0  0
   60.6900   35.6661   52.8674 O   0  0  0  0  0  0  0  0  0  0  0  0
   60.4727   36.5894   53.0703 H   0  0  0  0  0  0  0  0  0  0  0  0
   59.0117   36.7496   50.8847 C   0  0  0  0  0  0  0  0  0  0  0  0
   58.0532   35.8273   51.3870 O   0  0  0  0  0  0  0  0  0  0  0  0
   57.8212   35.1916   50.6921 H   0  0  0  0  0  0  0  0  0  0  0  0
  1  2  1  0  0  0
  1 15  1  0  0  0
  2  3  1  0  0  0
 15 16  1  0  0  0
 16 18  1  0  0  0
 18 19  1  0  0  0
 18 22  1  0  0  0
 18 25  1  0  0  0
 19 20  1  0  0  0
 22 23  1  0  0  0
 25 26  1  0  0  0
  3  5  1  0  0  0
  5  6  1  0  0  0
  5  9  1  0  0  0
  5 12  1  0  0  0
  6  7  1  0  0  0
  9 10  1  0  0  0
 12 13  1  0  0  0
 16 17  1  0  0  0
  3  4  1  0  0  0
  7  8  1  0  0  0
 10 11  1  0  0  0
 13 14  1  0  0  0
 20 21  1  0  0  0
 23 24  1  0  0  0
 26 27  1  0  0  0
M  END
> <minimizedAffinity>
-6.51234

$$$$
3C2U_B3P_A_539


 27 26  0  0  0  0  0  0  0  0999 V2000
   60.9046   38.3621   47.8137 C   0  0  0  0  0  0  0  0  0  0  0  0
   60.1417   39.5349   47.2278 C   0  0  0  0  0  0  0  0  0  0  0  0
   60.7634   40.0296   46.0285 N   0  0  0  0  0  0  0  0  0  0  0  0
   61.6579   39.5435   45.9655 H   0  0  0  0  0  0  0  0  0  0  0  0
   60.1842   39.9517   44.6943 C   0  0  0  0  0  0  0  0  0  0  0  0
   60.8459   40.8782   43.6689 C   0  0  0  0  0  0  0  0  0  0  0  0
   61.2788   42.1641   44.1514 O   0  0  0  0  0  0  0  0  0  0  0  0
   60.5085   42.6757   44.4443 H   0  0  0  0  0  0  0  0  0  0  0  0
   58.6806   40.3239   44.6683 C   0  0  0  0  0  0  0  0  0  0  0  0
   58.5129   41.7407   44.9430 O   0  0  0  0  0  0  0  0  0  0  0  0
   58.8727   41.9448   45.8204 H   0  0  0  0  0  0  0  0  0  0  0  0
   60.3350   38.4872   44.3369 C   0  0  0  0  0  0  0  0  0  0  0  0
   59.3958   38.1399   43.3340 O   0  0  0  0  0  0  0  0  0  0  0  0
   58.4973   38.2974   43.6640 H   0  0  0  0  0  0  0  0  0  0  0  0
   60.0460   37.5866   48.7676 C   0  0  0  0  0  0  0  0  0  0  0  0
   60.9166   36.7436   49.5867 N   0  0  0  0  0  0  0  0  0  0  0  0
   61.4481   37.3718   50.1894 H   0  0  0  0  0  0  0  0  0  0  0  0
   60.3547   35.7176   50.4483 C   0  0  0  0  0  0  0  0  0  0  0  0
   58.9166   35.9655   50.7407 C   0  0  0  0  0  0  0  0  0  0  0  0
   58.5700   35.2380   52.0011 O   0  0  0  0  0  0  0  0  0  0  0  0
   58.7390   34.2901   51.8841 H   0  0  0  0  0  0  0  0  0  0  0  0
   60.4021   34.3728   49.7139 C   0  0  0  0  0  0  0  0  0  0  0  0
   59.7080   33.3319   50.4100 O   0  0  0  0  0  0  0  0  0  0  0  0
   60.1252   33.1865   51.2736 H   0  0  0  0  0  0  0  0  0  0  0  0
   61.0740   35.8194   51.7980 C   0  0  0  0  0  0  0  0  0  0  0  0
   61.5326   34.5552   52.2595 O   0  0  0  0  0  0  0  0  0  0  0  0
   60.7750   33.9627   52.3855 H   0  0  0  0  0  0  0  0  0  0  0  0
  1  2  1  0  0  0
  1 15  1  0  0  0
  2  3  1  0  0  0
 15 16  1  0  0  0
 16 18  1  0  0  0
 18 19  1  0  0  0
 18 22  1  0  0  0
 18 25  1  0  0  0
 19 20  1  0  0  0
 22 23  1  0  0  0
 25 26  1  0  0  0
  3  5  1  0  0  0
  5  6  1  0  0  0
  5  9  1  0  0  0
  5 12  1  0  0  0
  6  7  1  0  0  0
  9 10  1  0  0  0
 12 13  1  0  0  0
 16 17  1  0  0  0
  3  4  1  0  0  0
  7  8  1  0  0  0
 10 11  1  0  0  0
 13 14  1  0  0  0
 20 21  1  0  0  0
 23 24  1  0  0  0
 26 27  1  0  0  0
M  END
> <minimizedAffinity>
-6.40910

$$$$
