2XN5_FUN_A_1356


 25 26  0  0  0  0  0  0  0  0999 V2000
  -11.2402  -16.2770    7.2129 C   0  0  0  0  0  0  0  0  0  0  0  0
  -11.3001  -15.2056    6.3274 C   0  0  0  0  0  0  0  0  0  0  0  0
  -12.8339  -14.4926    5.7548 Cl  0  0  0  0  0  0  0  0  0  0  0  0
  -10.1487  -14.6047    5.8305 C   0  0  0  0  0  0  0  0  0  0  0  0
   -8.8819  -15.0593    6.1961 C   0  0  0  0  0  0  0  0  0  0  0  0
   -8.7954  -16.1408    7.0877 C   0  0  0  0  0  0  0  0  0  0  0  0
   -9.9715  -16.7295    7.5754 C   0  0  0  0  0  0  0  0  0  0  0  0
  -13.1887  -16.0508    8.8483 N   0  0  0  0  0  0  0  0  0  0  0  0
  -12.5688  -16.9982    7.8114 S   0  0  0  0  0  0  0  0  0  0  0  0
  -12.2064  -18.2264    8.5424 O   0  0  0  0  0  0  0  0  0  0  0  0
  -13.5365  -17.2412    6.7323 O   0  0  0  0  0  0  0  0  0  0  0  0
  -14.0268  -16.4788    9.2417 H   0  0  0  0  0  0  0  0  0  0  0  0
  -13.4362  -15.1694    8.3985 H   0  0  0  0  0  0  0  0  0  0  0  0
   -7.4741  -16.6799    7.5712 C   0  0  0  0  0  0  0  0  0  0  0  0
   -6.6896  -15.9439    8.2359 O   0  0  0  0  0  0  0  0  0  0  0  0
   -7.1465  -17.8434    7.2474 O   0  0  0  0  0  0  0  0  0  0  0  0
   -6.9490  -15.0747    8.4710 H   0  0  0  0  0  0  0  0  0  0  0  0
   -7.7590  -14.4615    5.7123 N   0  0  0  0  0  0  0  0  0  0  0  0
   -6.8898  -14.7998    6.0274 H   0  0  0  0  0  0  0  0  0  0  0  0
   -7.7500  -13.3588    4.7634 C   0  0  0  0  0  0  0  0  0  0  0  0
   -7.9143  -13.8090    3.3301 C   0  0  0  0  0  0  0  0  0  0  0  0
   -7.9265  -13.0159    2.1915 C   0  0  0  0  0  0  0  0  0  0  0  0
   -8.0941  -13.8371    1.0941 C   0  0  0  0  0  0  0  0  0  0  0  0
   -8.1833  -15.1316    1.5530 C   0  0  0  0  0  0  0  0  0  0  0  0
   -8.0693  -15.1067    2.9263 O   0  0  0  0  0  0  0  0  0  0  0  0
  8  9  1  0  0  0
  9 10  2  0  0  0
  9 11  2  0  0  0
  9  1  1  0  0  0
  1  2  2  0  0  0
  1  7  1  0  0  0
  2  3  1  0  0  0
  2  4  1  0  0  0
  4  5  2  0  0  0
  5 18  1  0  0  0
  5  6  1  0  0  0
 18 20  1  0  0  0
 20 21  1  0  0  0
 21 22  2  0  0  0
 21 25  1  0  0  0
 22 23  1  0  0  0
 23 24  2  0  0  0
 24 25  1  0  0  0
  6  7  2  0  0  0
  6 14  1  0  0  0
 14 15  1  0  0  0
 14 16  2  0  0  0
  8 12  1  0  0  0
  8 13  1  0  0  0
 18 19  1  0  0  0
 15 17  1  0  0  0
M  END
> <minimizedAffinity>
-8.53887

$$$$
2XN5_FUN_A_1356


 25 26  0  0  0  0  0  0  0  0999 V2000
  -11.3266  -16.4492    7.4258 C   0  0  0  0  0  0  0  0  0  0  0  0
  -11.2015  -15.3716    6.5547 C   0  0  0  0  0  0  0  0  0  0  0  0
  -12.6000  -14.5326    5.8272 Cl  0  0  0  0  0  0  0  0  0  0  0  0
   -9.9576  -14.8639    6.1965 C   0  0  0  0  0  0  0  0  0  0  0  0
   -8.7798  -15.4223    6.6927 C   0  0  0  0  0  0  0  0  0  0  0  0
   -8.8801  -16.5122    7.5725 C   0  0  0  0  0  0  0  0  0  0  0  0
  -10.1465  -17.0057    7.9192 C   0  0  0  0  0  0  0  0  0  0  0  0
  -13.3872  -16.1107    8.8962 N   0  0  0  0  0  0  0  0  0  0  0  0
  -12.7671  -17.0629    7.8638 S   0  0  0  0  0  0  0  0  0  0  0  0
  -12.5918  -18.3556    8.5511 O   0  0  0  0  0  0  0  0  0  0  0  0
  -13.6500  -17.1547    6.6925 O   0  0  0  0  0  0  0  0  0  0  0  0
  -14.2948  -16.4718    9.1898 H   0  0  0  0  0  0  0  0  0  0  0  0
  -13.5074  -15.1879    8.4785 H   0  0  0  0  0  0  0  0  0  0  0  0
   -7.6683  -17.1599    8.1908 C   0  0  0  0  0  0  0  0  0  0  0  0
   -6.6327  -17.3696    7.4962 O   0  0  0  0  0  0  0  0  0  0  0  0
   -7.7334  -17.5403    9.3812 O   0  0  0  0  0  0  0  0  0  0  0  0
   -6.5988  -17.0788    6.6061 H   0  0  0  0  0  0  0  0  0  0  0  0
   -7.5658  -14.9154    6.3442 N   0  0  0  0  0  0  0  0  0  0  0  0
   -6.9900  -15.4661    5.7659 H   0  0  0  0  0  0  0  0  0  0  0  0
   -7.0571  -13.6189    6.7644 C   0  0  0  0  0  0  0  0  0  0  0  0
   -5.8065  -13.7176    7.6072 C   0  0  0  0  0  0  0  0  0  0  0  0
   -5.1179  -12.6815    8.2218 C   0  0  0  0  0  0  0  0  0  0  0  0
   -4.0388  -13.2189    8.8954 C   0  0  0  0  0  0  0  0  0  0  0  0
   -4.0621  -14.5809    8.6987 C   0  0  0  0  0  0  0  0  0  0  0  0
   -5.1516  -14.8799    7.9093 O   0  0  0  0  0  0  0  0  0  0  0  0
  8  9  1  0  0  0
  9 10  2  0  0  0
  9 11  2  0  0  0
  9  1  1  0  0  0
  1  2  2  0  0  0
  1  7  1  0  0  0
  2  3  1  0  0  0
  2  4  1  0  0  0
  4  5  2  0  0  0
  5 18  1  0  0  0
  5  6  1  0  0  0
 18 20  1  0  0  0
 20 21  1  0  0  0
 21 22  2  0  0  0
 21 25  1  0  0  0
 22 23  1  0  0  0
 23 24  2  0  0  0
 24 25  1  0  0  0
  6  7  2  0  0  0
  6 14  1  0  0  0
 14 15  1  0  0  0
 14 16  2  0  0  0
  8 12  1  0  0  0
  8 13  1  0  0  0
 18 19  1  0  0  0
 15 17  1  0  0  0
M  END
> <minimizedAffinity>
-7.99772

$$$$
2XN5_FUN_A_1356


 25 26  0  0  0  0  0  0  0  0999 V2000
   -7.8664  -14.0733    3.2450 C   0  0  0  0  0  0  0  0  0  0  0  0
   -8.9090  -14.9915    3.3185 C   0  0  0  0  0  0  0  0  0  0  0  0
   -9.6724  -15.7241    1.8800 Cl  0  0  0  0  0  0  0  0  0  0  0  0
   -9.4258  -15.4121    4.5389 C   0  0  0  0  0  0  0  0  0  0  0  0
   -8.9220  -14.9221    5.7436 C   0  0  0  0  0  0  0  0  0  0  0  0
   -7.8703  -13.9928    5.6954 C   0  0  0  0  0  0  0  0  0  0  0  0
   -7.3657  -13.5847    4.4518 C   0  0  0  0  0  0  0  0  0  0  0  0
   -6.2407  -12.4415    2.1419 N   0  0  0  0  0  0  0  0  0  0  0  0
   -7.2409  -13.5645    1.8330 S   0  0  0  0  0  0  0  0  0  0  0  0
   -8.2891  -12.9602    0.9903 O   0  0  0  0  0  0  0  0  0  0  0  0
   -6.5410  -14.6718    1.1667 O   0  0  0  0  0  0  0  0  0  0  0  0
   -5.8313  -12.1020    1.2715 H   0  0  0  0  0  0  0  0  0  0  0  0
   -5.5026  -12.8006    2.7474 H   0  0  0  0  0  0  0  0  0  0  0  0
   -7.2338  -13.4342    6.9416 C   0  0  0  0  0  0  0  0  0  0  0  0
   -7.3404  -12.2046    7.2162 O   0  0  0  0  0  0  0  0  0  0  0  0
   -6.5490  -14.1975    7.6589 O   0  0  0  0  0  0  0  0  0  0  0  0
   -7.8568  -11.6455    6.6696 H   0  0  0  0  0  0  0  0  0  0  0  0
   -9.4271  -15.3441    6.9349 N   0  0  0  0  0  0  0  0  0  0  0  0
   -9.4849  -14.6862    7.6650 H   0  0  0  0  0  0  0  0  0  0  0  0
   -9.8877  -16.6968    7.2077 C   0  0  0  0  0  0  0  0  0  0  0  0
  -11.3879  -16.7918    7.3640 C   0  0  0  0  0  0  0  0  0  0  0  0
  -12.3571  -16.1009    6.6506 C   0  0  0  0  0  0  0  0  0  0  0  0
  -13.5973  -16.4958    7.1118 C   0  0  0  0  0  0  0  0  0  0  0  0
  -13.3947  -17.4276    8.1043 C   0  0  0  0  0  0  0  0  0  0  0  0
  -12.0361  -17.6061    8.2515 O   0  0  0  0  0  0  0  0  0  0  0  0
  8  9  1  0  0  0
  9 10  2  0  0  0
  9 11  2  0  0  0
  9  1  1  0  0  0
  1  2  2  0  0  0
  1  7  1  0  0  0
  2  3  1  0  0  0
  2  4  1  0  0  0
  4  5  2  0  0  0
  5 18  1  0  0  0
  5  6  1  0  0  0
 18 20  1  0  0  0
 20 21  1  0  0  0
 21 22  2  0  0  0
 21 25  1  0  0  0
 22 23  1  0  0  0
 23 24  2  0  0  0
 24 25  1  0  0  0
  6  7  2  0  0  0
  6 14  1  0  0  0
 14 15  1  0  0  0
 14 16  2  0  0  0
  8 12  1  0  0  0
  8 13  1  0  0  0
 18 19  1  0  0  0
 15 17  1  0  0  0
M  END
> <minimizedAffinity>
-7.47677

$$$$
2XN5_FUN_A_1356


 25 26  0  0  0  0  0  0  0  0999 V2000
   -6.2726  -14.2256    7.6106 C   0  0  0  0  0  0  0  0  0  0  0  0
   -7.3957  -13.9064    6.8539 C   0  0  0  0  0  0  0  0  0  0  0  0
   -7.7471  -12.2556    6.2707 Cl  0  0  0  0  0  0  0  0  0  0  0  0
   -8.3276  -14.8717    6.4887 C   0  0  0  0  0  0  0  0  0  0  0  0
   -8.1767  -16.2034    6.8748 C   0  0  0  0  0  0  0  0  0  0  0  0
   -7.0518  -16.5501    7.6406 C   0  0  0  0  0  0  0  0  0  0  0  0
   -6.1256  -15.5583    7.9957 C   0  0  0  0  0  0  0  0  0  0  0  0
   -4.1136  -13.8280    8.9155 N   0  0  0  0  0  0  0  0  0  0  0  0
   -5.1657  -13.1191    8.0509 S   0  0  0  0  0  0  0  0  0  0  0  0
   -5.7771  -12.0889    8.9106 O   0  0  0  0  0  0  0  0  0  0  0  0
   -4.5179  -12.5558    6.8581 O   0  0  0  0  0  0  0  0  0  0  0  0
   -3.4041  -13.1557    9.2071 H   0  0  0  0  0  0  0  0  0  0  0  0
   -3.6744  -14.5726    8.3743 H   0  0  0  0  0  0  0  0  0  0  0  0
   -6.7808  -17.9674    8.0743 C   0  0  0  0  0  0  0  0  0  0  0  0
   -5.9720  -18.6899    7.4241 O   0  0  0  0  0  0  0  0  0  0  0  0
   -7.4182  -18.4290    9.0472 O   0  0  0  0  0  0  0  0  0  0  0  0
   -5.5019  -18.3300    6.6978 H   0  0  0  0  0  0  0  0  0  0  0  0
   -9.0884  -17.1446    6.5072 N   0  0  0  0  0  0  0  0  0  0  0  0
   -8.8297  -18.0903    6.5964 H   0  0  0  0  0  0  0  0  0  0  0  0
  -10.4176  -16.8546    5.9918 C   0  0  0  0  0  0  0  0  0  0  0  0
  -11.4766  -16.8204    7.0695 C   0  0  0  0  0  0  0  0  0  0  0  0
  -12.8260  -17.1162    6.9377 C   0  0  0  0  0  0  0  0  0  0  0  0
  -13.4249  -16.9633    8.1725 C   0  0  0  0  0  0  0  0  0  0  0  0
  -12.4493  -16.5763    9.0629 C   0  0  0  0  0  0  0  0  0  0  0  0
  -11.2556  -16.4935    8.3791 O   0  0  0  0  0  0  0  0  0  0  0  0
  8  9  1  0  0  0
  9 10  2  0  0  0
  9 11  2  0  0  0
  9  1  1  0  0  0
  1  2  2  0  0  0
  1  7  1  0  0  0
  2  3  1  0  0  0
  2  4  1  0  0  0
  4  5  2  0  0  0
  5 18  1  0  0  0
  5  6  1  0  0  0
 18 20  1  0  0  0
 20 21  1  0  0  0
 21 22  2  0  0  0
 21 25  1  0  0  0
 22 23  1  0  0  0
 23 24  2  0  0  0
 24 25  1  0  0  0
  6  7  2  0  0  0
  6 14  1  0  0  0
 14 15  1  0  0  0
 14 16  2  0  0  0
  8 12  1  0  0  0
  8 13  1  0  0  0
 18 19  1  0  0  0
 15 17  1  0  0  0
M  END
> <minimizedAffinity>
-7.16249

$$$$
2XN5_FUN_A_1356


 25 26  0  0  0  0  0  0  0  0999 V2000
   -6.2523  -17.0798    8.2563 C   0  0  0  0  0  0  0  0  0  0  0  0
   -5.7578  -15.7809    8.1933 C   0  0  0  0  0  0  0  0  0  0  0  0
   -4.2235  -15.2788    8.9567 Cl  0  0  0  0  0  0  0  0  0  0  0  0
   -6.4340  -14.7752    7.5115 C   0  0  0  0  0  0  0  0  0  0  0  0
   -7.6446  -15.0282    6.8668 C   0  0  0  0  0  0  0  0  0  0  0  0
   -8.1651  -16.3314    6.9175 C   0  0  0  0  0  0  0  0  0  0  0  0
   -7.4638  -17.3287    7.6111 C   0  0  0  0  0  0  0  0  0  0  0  0
   -6.3964  -19.5101    9.0277 N   0  0  0  0  0  0  0  0  0  0  0  0
   -5.4832  -18.2761    9.0443 S   0  0  0  0  0  0  0  0  0  0  0  0
   -5.2950  -17.9237   10.4636 O   0  0  0  0  0  0  0  0  0  0  0  0
   -4.2204  -18.5943    8.3632 O   0  0  0  0  0  0  0  0  0  0  0  0
   -5.9379  -20.2789    9.5168 H   0  0  0  0  0  0  0  0  0  0  0  0
   -6.5813  -19.7833    8.0626 H   0  0  0  0  0  0  0  0  0  0  0  0
   -9.4460  -16.7127    6.2217 C   0  0  0  0  0  0  0  0  0  0  0  0
   -9.6863  -16.2939    5.0531 O   0  0  0  0  0  0  0  0  0  0  0  0
  -10.2879  -17.3954    6.8472 O   0  0  0  0  0  0  0  0  0  0  0  0
   -9.0460  -15.7838    4.5973 H   0  0  0  0  0  0  0  0  0  0  0  0
   -8.2972  -14.0411    6.1945 N   0  0  0  0  0  0  0  0  0  0  0  0
   -9.2563  -13.9190    6.3804 H   0  0  0  0  0  0  0  0  0  0  0  0
   -7.6805  -13.1532    5.2209 C   0  0  0  0  0  0  0  0  0  0  0  0
   -7.8546  -13.6242    3.7955 C   0  0  0  0  0  0  0  0  0  0  0  0
   -7.8714  -12.8481    2.6453 C   0  0  0  0  0  0  0  0  0  0  0  0
   -8.0477  -13.6850    1.5612 C   0  0  0  0  0  0  0  0  0  0  0  0
   -8.1379  -14.9723    2.0399 C   0  0  0  0  0  0  0  0  0  0  0  0
   -8.0156  -14.9273    3.4119 O   0  0  0  0  0  0  0  0  0  0  0  0
  8  9  1  0  0  0
  9 10  2  0  0  0
  9 11  2  0  0  0
  9  1  1  0  0  0
  1  2  2  0  0  0
  1  7  1  0  0  0
  2  3  1  0  0  0
  2  4  1  0  0  0
  4  5  2  0  0  0
  5 18  1  0  0  0
  5  6  1  0  0  0
 18 20  1  0  0  0
 20 21  1  0  0  0
 21 22  2  0  0  0
 21 25  1  0  0  0
 22 23  1  0  0  0
 23 24  2  0  0  0
 24 25  1  0  0  0
  6  7  2  0  0  0
  6 14  1  0  0  0
 14 15  1  0  0  0
 14 16  2  0  0  0
  8 12  1  0  0  0
  8 13  1  0  0  0
 18 19  1  0  0  0
 15 17  1  0  0  0
M  END
> <minimizedAffinity>
-7.14671

$$$$
2XN5_FUN_A_1356


 25 26  0  0  0  0  0  0  0  0999 V2000
   -5.3862  -16.6113    8.6946 C   0  0  0  0  0  0  0  0  0  0  0  0
   -6.4368  -17.4045    8.2444 C   0  0  0  0  0  0  0  0  0  0  0  0
   -6.5854  -19.1426    8.6263 Cl  0  0  0  0  0  0  0  0  0  0  0  0
   -7.4614  -16.8829    7.4624 C   0  0  0  0  0  0  0  0  0  0  0  0
   -7.4728  -15.5388    7.0903 C   0  0  0  0  0  0  0  0  0  0  0  0
   -6.4221  -14.7180    7.5311 C   0  0  0  0  0  0  0  0  0  0  0  0
   -5.4004  -15.2678    8.3196 C   0  0  0  0  0  0  0  0  0  0  0  0
   -3.2914  -16.0081   10.0252 N   0  0  0  0  0  0  0  0  0  0  0  0
   -4.1757  -17.1928    9.6112 S   0  0  0  0  0  0  0  0  0  0  0  0
   -3.3141  -18.0918    8.8214 O   0  0  0  0  0  0  0  0  0  0  0  0
   -4.7223  -17.8374   10.8135 O   0  0  0  0  0  0  0  0  0  0  0  0
   -2.5211  -16.3444   10.6031 H   0  0  0  0  0  0  0  0  0  0  0  0
   -3.8476  -15.3380   10.5564 H   0  0  0  0  0  0  0  0  0  0  0  0
   -6.3645  -13.2463    7.2135 C   0  0  0  0  0  0  0  0  0  0  0  0
   -6.2600  -12.8558    6.0154 O   0  0  0  0  0  0  0  0  0  0  0  0
   -6.3581  -12.4284    8.1606 O   0  0  0  0  0  0  0  0  0  0  0  0
   -6.2664  -13.4803    5.3169 H   0  0  0  0  0  0  0  0  0  0  0  0
   -8.4830  -15.0329    6.3314 N   0  0  0  0  0  0  0  0  0  0  0  0
   -8.9237  -14.2111    6.6471 H   0  0  0  0  0  0  0  0  0  0  0  0
   -8.9588  -15.6183    5.0875 C   0  0  0  0  0  0  0  0  0  0  0  0
   -8.5929  -14.8013    3.8699 C   0  0  0  0  0  0  0  0  0  0  0  0
   -8.8841  -15.0853    2.5432 C   0  0  0  0  0  0  0  0  0  0  0  0
   -8.3696  -14.0706    1.7606 C   0  0  0  0  0  0  0  0  0  0  0  0
   -7.7649  -13.1634    2.6006 C   0  0  0  0  0  0  0  0  0  0  0  0
   -7.9085  -13.6173    3.8940 O   0  0  0  0  0  0  0  0  0  0  0  0
  8  9  1  0  0  0
  9 10  2  0  0  0
  9 11  2  0  0  0
  9  1  1  0  0  0
  1  2  2  0  0  0
  1  7  1  0  0  0
  2  3  1  0  0  0
  2  4  1  0  0  0
  4  5  2  0  0  0
  5 18  1  0  0  0
  5  6  1  0  0  0
 18 20  1  0  0  0
 20 21  1  0  0  0
 21 22  2  0  0  0
 21 25  1  0  0  0
 22 23  1  0  0  0
 23 24  2  0  0  0
 24 25  1  0  0  0
  6  7  2  0  0  0
  6 14  1  0  0  0
 14 15  1  0  0  0
 14 16  2  0  0  0
  8 12  1  0  0  0
  8 13  1  0  0  0
 18 19  1  0  0  0
 15 17  1  0  0  0
M  END
> <minimizedAffinity>
-7.12211

$$$$
2XN5_FUN_A_1356


 25 26  0  0  0  0  0  0  0  0999 V2000
   -8.0237  -14.1560    3.1834 C   0  0  0  0  0  0  0  0  0  0  0  0
   -9.1316  -14.9932    3.2688 C   0  0  0  0  0  0  0  0  0  0  0  0
   -9.9002  -15.7491    1.8452 Cl  0  0  0  0  0  0  0  0  0  0  0  0
   -9.7155  -15.3080    4.4909 C   0  0  0  0  0  0  0  0  0  0  0  0
   -9.2158  -14.7884    5.6849 C   0  0  0  0  0  0  0  0  0  0  0  0
   -8.0988  -13.9394    5.6245 C   0  0  0  0  0  0  0  0  0  0  0  0
   -7.5273  -13.6375    4.3795 C   0  0  0  0  0  0  0  0  0  0  0  0
   -6.1992  -12.7635    2.0633 N   0  0  0  0  0  0  0  0  0  0  0  0
   -7.3191  -13.7717    1.7694 S   0  0  0  0  0  0  0  0  0  0  0  0
   -8.2747  -13.0777    0.8866 O   0  0  0  0  0  0  0  0  0  0  0  0
   -6.7431  -14.9750    1.1529 O   0  0  0  0  0  0  0  0  0  0  0  0
   -5.7381  -12.5037    1.1914 H   0  0  0  0  0  0  0  0  0  0  0  0
   -5.5187  -13.1859    2.6950 H   0  0  0  0  0  0  0  0  0  0  0  0
   -7.4633  -13.3585    6.8609 C   0  0  0  0  0  0  0  0  0  0  0  0
   -7.6342  -12.1404    7.1539 O   0  0  0  0  0  0  0  0  0  0  0  0
   -6.7163  -14.0883    7.5504 O   0  0  0  0  0  0  0  0  0  0  0  0
   -8.1967  -11.6065    6.6280 H   0  0  0  0  0  0  0  0  0  0  0  0
   -9.7872  -15.1070    6.8783 N   0  0  0  0  0  0  0  0  0  0  0  0
  -10.0760  -14.3659    7.4585 H   0  0  0  0  0  0  0  0  0  0  0  0
  -10.0021  -16.4632    7.3589 C   0  0  0  0  0  0  0  0  0  0  0  0
   -8.7278  -17.1433    7.8036 C   0  0  0  0  0  0  0  0  0  0  0  0
   -7.6053  -17.4196    7.0360 C   0  0  0  0  0  0  0  0  0  0  0  0
   -6.6730  -18.0428    7.8417 C   0  0  0  0  0  0  0  0  0  0  0  0
   -7.2169  -18.1494    9.1015 C   0  0  0  0  0  0  0  0  0  0  0  0
   -8.4773  -17.5925    9.0710 O   0  0  0  0  0  0  0  0  0  0  0  0
  8  9  1  0  0  0
  9 10  2  0  0  0
  9 11  2  0  0  0
  9  1  1  0  0  0
  1  2  2  0  0  0
  1  7  1  0  0  0
  2  3  1  0  0  0
  2  4  1  0  0  0
  4  5  2  0  0  0
  5 18  1  0  0  0
  5  6  1  0  0  0
 18 20  1  0  0  0
 20 21  1  0  0  0
 21 22  2  0  0  0
 21 25  1  0  0  0
 22 23  1  0  0  0
 23 24  2  0  0  0
 24 25  1  0  0  0
  6  7  2  0  0  0
  6 14  1  0  0  0
 14 15  1  0  0  0
 14 16  2  0  0  0
  8 12  1  0  0  0
  8 13  1  0  0  0
 18 19  1  0  0  0
 15 17  1  0  0  0
M  END
> <minimizedAffinity>
-7.08509

$$$$
2XN5_FUN_A_1356


 25 26  0  0  0  0  0  0  0  0999 V2000
  -11.1466  -16.6202    7.6096 C   0  0  0  0  0  0  0  0  0  0  0  0
  -10.0974  -16.8023    8.5050 C   0  0  0  0  0  0  0  0  0  0  0  0
  -10.2985  -17.5628   10.1081 Cl  0  0  0  0  0  0  0  0  0  0  0  0
   -8.8003  -16.4054    8.1992 C   0  0  0  0  0  0  0  0  0  0  0  0
   -8.4995  -15.7992    6.9796 C   0  0  0  0  0  0  0  0  0  0  0  0
   -9.5421  -15.6029    6.0597 C   0  0  0  0  0  0  0  0  0  0  0  0
  -10.8421  -16.0126    6.3915 C   0  0  0  0  0  0  0  0  0  0  0  0
  -13.1588  -16.2490    9.1379 N   0  0  0  0  0  0  0  0  0  0  0  0
  -12.6723  -17.0754    7.9389 S   0  0  0  0  0  0  0  0  0  0  0  0
  -12.7105  -18.4851    8.3694 O   0  0  0  0  0  0  0  0  0  0  0  0
  -13.5361  -16.8091    6.7801 O   0  0  0  0  0  0  0  0  0  0  0  0
  -14.1166  -16.5144    9.3675 H   0  0  0  0  0  0  0  0  0  0  0  0
  -13.1281  -15.2571    8.9021 H   0  0  0  0  0  0  0  0  0  0  0  0
   -9.3115  -14.9914    4.7022 C   0  0  0  0  0  0  0  0  0  0  0  0
   -9.4051  -15.7000    3.6590 O   0  0  0  0  0  0  0  0  0  0  0  0
   -8.9652  -13.7907    4.6364 O   0  0  0  0  0  0  0  0  0  0  0  0
   -9.6656  -16.5976    3.7242 H   0  0  0  0  0  0  0  0  0  0  0  0
   -7.2262  -15.4204    6.6834 N   0  0  0  0  0  0  0  0  0  0  0  0
   -6.7298  -15.9615    6.0277 H   0  0  0  0  0  0  0  0  0  0  0  0
   -6.5456  -14.2740    7.2655 C   0  0  0  0  0  0  0  0  0  0  0  0
   -5.2993  -14.6513    8.0326 C   0  0  0  0  0  0  0  0  0  0  0  0
   -4.2722  -13.8124    8.4411 C   0  0  0  0  0  0  0  0  0  0  0  0
   -3.3373  -14.5708    9.1175 C   0  0  0  0  0  0  0  0  0  0  0  0
   -3.7860  -15.8720    9.1279 C   0  0  0  0  0  0  0  0  0  0  0  0
   -4.9923  -15.9130    8.4626 O   0  0  0  0  0  0  0  0  0  0  0  0
  8  9  1  0  0  0
  9 10  2  0  0  0
  9 11  2  0  0  0
  9  1  1  0  0  0
  1  2  2  0  0  0
  1  7  1  0  0  0
  2  3  1  0  0  0
  2  4  1  0  0  0
  4  5  2  0  0  0
  5 18  1  0  0  0
  5  6  1  0  0  0
 18 20  1  0  0  0
 20 21  1  0  0  0
 21 22  2  0  0  0
 21 25  1  0  0  0
 22 23  1  0  0  0
 23 24  2  0  0  0
 24 25  1  0  0  0
  6  7  2  0  0  0
  6 14  1  0  0  0
 14 15  1  0  0  0
 14 16  2  0  0  0
  8 12  1  0  0  0
  8 13  1  0  0  0
 18 19  1  0  0  0
 15 17  1  0  0  0
M  END
> <minimizedAffinity>
-7.06456

$$$$
2XN5_FUN_A_1356


 25 26  0  0  0  0  0  0  0  0999 V2000
   -5.9151  -14.6050    7.6709 C   0  0  0  0  0  0  0  0  0  0  0  0
   -6.0530  -15.8852    8.1979 C   0  0  0  0  0  0  0  0  0  0  0  0
   -4.8201  -16.6557    9.2348 Cl  0  0  0  0  0  0  0  0  0  0  0  0
   -7.1842  -16.6563    7.9544 C   0  0  0  0  0  0  0  0  0  0  0  0
   -8.2273  -16.1775    7.1620 C   0  0  0  0  0  0  0  0  0  0  0  0
   -8.1107  -14.8884    6.6173 C   0  0  0  0  0  0  0  0  0  0  0  0
   -6.9599  -14.1299    6.8782 C   0  0  0  0  0  0  0  0  0  0  0  0
   -4.6157  -12.5428    6.9085 N   0  0  0  0  0  0  0  0  0  0  0  0
   -4.6053  -13.6800    7.9399 S   0  0  0  0  0  0  0  0  0  0  0  0
   -3.3704  -14.4469    7.6929 O   0  0  0  0  0  0  0  0  0  0  0  0
   -4.6625  -13.1113    9.2938 O   0  0  0  0  0  0  0  0  0  0  0  0
   -3.8024  -11.9445    7.0538 H   0  0  0  0  0  0  0  0  0  0  0  0
   -5.4670  -11.9920    7.0183 H   0  0  0  0  0  0  0  0  0  0  0  0
   -9.1992  -14.2684    5.7801 C   0  0  0  0  0  0  0  0  0  0  0  0
  -10.2962  -13.9289    6.3095 O   0  0  0  0  0  0  0  0  0  0  0  0
   -9.0173  -14.1572    4.5470 O   0  0  0  0  0  0  0  0  0  0  0  0
  -10.4175  -14.0181    7.2344 H   0  0  0  0  0  0  0  0  0  0  0  0
   -9.3353  -16.9344    6.9343 N   0  0  0  0  0  0  0  0  0  0  0  0
   -9.5788  -17.1171    5.9980 H   0  0  0  0  0  0  0  0  0  0  0  0
  -10.1860  -17.4929    7.9739 C   0  0  0  0  0  0  0  0  0  0  0  0
  -11.6355  -17.0885    7.8345 C   0  0  0  0  0  0  0  0  0  0  0  0
  -12.2947  -16.6920    6.6796 C   0  0  0  0  0  0  0  0  0  0  0  0
  -13.6093  -16.4205    7.0034 C   0  0  0  0  0  0  0  0  0  0  0  0
  -13.7613  -16.6499    8.3520 C   0  0  0  0  0  0  0  0  0  0  0  0
  -12.5462  -17.0624    8.8547 O   0  0  0  0  0  0  0  0  0  0  0  0
  8  9  1  0  0  0
  9 10  2  0  0  0
  9 11  2  0  0  0
  9  1  1  0  0  0
  1  2  2  0  0  0
  1  7  1  0  0  0
  2  3  1  0  0  0
  2  4  1  0  0  0
  4  5  2  0  0  0
  5 18  1  0  0  0
  5  6  1  0  0  0
 18 20  1  0  0  0
 20 21  1  0  0  0
 21 22  2  0  0  0
 21 25  1  0  0  0
 22 23  1  0  0  0
 23 24  2  0  0  0
 24 25  1  0  0  0
  6  7  2  0  0  0
  6 14  1  0  0  0
 14 15  1  0  0  0
 14 16  2  0  0  0
  8 12  1  0  0  0
  8 13  1  0  0  0
 18 19  1  0  0  0
 15 17  1  0  0  0
M  END
> <minimizedAffinity>
-7.04603

$$$$
2XN5_FUN_A_1356


 25 26  0  0  0  0  0  0  0  0999 V2000
   -8.0549  -18.2556    9.4716 C   0  0  0  0  0  0  0  0  0  0  0  0
   -7.7345  -17.9310    8.1572 C   0  0  0  0  0  0  0  0  0  0  0  0
   -6.1852  -18.3750    7.3883 Cl  0  0  0  0  0  0  0  0  0  0  0  0
   -8.6202  -17.2362    7.3409 C   0  0  0  0  0  0  0  0  0  0  0  0
   -9.8680  -16.8285    7.8120 C   0  0  0  0  0  0  0  0  0  0  0  0
  -10.2138  -17.1430    9.1363 C   0  0  0  0  0  0  0  0  0  0  0  0
   -9.3033  -17.8454    9.9396 C   0  0  0  0  0  0  0  0  0  0  0  0
   -7.7114  -19.1874   11.8245 N   0  0  0  0  0  0  0  0  0  0  0  0
   -7.0407  -19.0682   10.4487 S   0  0  0  0  0  0  0  0  0  0  0  0
   -5.8004  -18.2998   10.6618 O   0  0  0  0  0  0  0  0  0  0  0  0
   -6.7932  -20.4123    9.9083 O   0  0  0  0  0  0  0  0  0  0  0  0
   -7.0956  -19.6946   12.4601 H   0  0  0  0  0  0  0  0  0  0  0  0
   -8.5929  -19.6919   11.7305 H   0  0  0  0  0  0  0  0  0  0  0  0
  -11.5521  -16.7794    9.7253 C   0  0  0  0  0  0  0  0  0  0  0  0
  -11.6446  -16.4472   10.9418 O   0  0  0  0  0  0  0  0  0  0  0  0
  -12.5704  -16.8751    9.0043 O   0  0  0  0  0  0  0  0  0  0  0  0
  -10.8730  -16.3797   11.4691 H   0  0  0  0  0  0  0  0  0  0  0  0
  -10.7333  -16.1558    7.0052 N   0  0  0  0  0  0  0  0  0  0  0  0
  -11.5431  -16.6303    6.7079 H   0  0  0  0  0  0  0  0  0  0  0  0
  -10.5485  -14.7865    6.5501 C   0  0  0  0  0  0  0  0  0  0  0  0
   -9.6623  -14.6818    5.3304 C   0  0  0  0  0  0  0  0  0  0  0  0
   -8.5670  -13.8490    5.1508 C   0  0  0  0  0  0  0  0  0  0  0  0
   -8.0464  -14.0840    3.8937 C   0  0  0  0  0  0  0  0  0  0  0  0
   -8.8159  -15.0588    3.3003 C   0  0  0  0  0  0  0  0  0  0  0  0
   -9.8041  -15.4228    4.1894 O   0  0  0  0  0  0  0  0  0  0  0  0
  8  9  1  0  0  0
  9 10  2  0  0  0
  9 11  2  0  0  0
  9  1  1  0  0  0
  1  2  2  0  0  0
  1  7  1  0  0  0
  2  3  1  0  0  0
  2  4  1  0  0  0
  4  5  2  0  0  0
  5 18  1  0  0  0
  5  6  1  0  0  0
 18 20  1  0  0  0
 20 21  1  0  0  0
 21 22  2  0  0  0
 21 25  1  0  0  0
 22 23  1  0  0  0
 23 24  2  0  0  0
 24 25  1  0  0  0
  6  7  2  0  0  0
  6 14  1  0  0  0
 14 15  1  0  0  0
 14 16  2  0  0  0
  8 12  1  0  0  0
  8 13  1  0  0  0
 18 19  1  0  0  0
 15 17  1  0  0  0
M  END
> <minimizedAffinity>
-6.83917

$$$$
