4GR8_R4C_A_306


 42 44  0  0  0  0  0  0  0  0999 V2000
   -6.3037   24.5906   -3.7768 C   0  0  0  0  0  0  0  0  0  0  0  0
   -8.3350   25.2157   -4.8659 O   0  0  0  0  0  0  0  0  0  0  0  0
   -7.1237   25.4601   -4.6819 C   0  0  0  0  0  0  0  0  0  0  0  0
   -6.4526   26.4387   -5.2893 N   0  0  0  0  0  0  0  0  0  0  0  0
   -5.4691   26.4228   -5.2458 H   0  0  0  0  0  0  0  0  0  0  0  0
   -7.0905   27.5314   -6.0144 C   0  0  0  0  0  0  0  0  0  0  0  0
   -7.3596   28.6845   -5.0644 C   0  0  0  0  0  0  0  0  0  0  0  0
   -6.2769   28.0372   -7.1924 C   0  0  0  0  0  0  0  0  0  0  0  0
   -5.0505   28.0689   -7.1401 O   0  0  0  0  0  0  0  0  0  0  0  0
   -6.9815   28.4720   -8.2349 N   0  0  0  0  0  0  0  0  0  0  0  0
   -7.9631   28.4036   -8.2023 H   0  0  0  0  0  0  0  0  0  0  0  0
   -6.3591   29.0461   -9.4251 C   0  0  0  0  0  0  0  0  0  0  0  0
   -6.1221   27.9619  -10.4729 C   0  0  0  0  0  0  0  0  0  0  0  0
   -7.1754   30.1933  -10.0158 C   0  0  0  0  0  0  0  0  0  0  0  0
   -8.4011   30.1106  -10.0959 O   0  0  0  0  0  0  0  0  0  0  0  0
   -6.4920   31.2611  -10.4166 N   0  0  0  0  0  0  0  0  0  0  0  0
   -6.9660   32.0313  -10.8056 H   0  0  0  0  0  0  0  0  0  0  0  0
   -5.5121   31.2815  -10.3244 H   0  0  0  0  0  0  0  0  0  0  0  0
   -5.8910   25.3988   -2.5616 C   0  0  0  0  0  0  0  0  0  0  0  0
   -7.6091   24.7693    0.6180 N   0  0  0  0  0  0  0  0  0  0  0  0
   -6.6480   24.6514   -0.2948 O   0  0  0  0  0  0  0  0  0  0  0  0
   -8.0483   26.0765   -1.1678 C   0  0  0  0  0  0  0  0  0  0  0  0
   -8.4714   25.6705    0.1133 C   0  0  0  0  0  0  0  0  0  0  0  0
   -6.8457   25.4096   -1.4002 C   0  0  0  0  0  0  0  0  0  0  0  0
   -9.7092   26.0402    0.8435 C   0  0  0  0  0  0  0  0  0  0  0  0
  -10.7360   26.7051    0.1953 C   0  0  0  0  0  0  0  0  0  0  0  0
  -11.8950   27.0205    0.8986 C   0  0  0  0  0  0  0  0  0  0  0  0
  -12.0209   26.6685    2.2351 C   0  0  0  0  0  0  0  0  0  0  0  0
  -10.9941   25.9886    2.8871 C   0  0  0  0  0  0  0  0  0  0  0  0
   -9.8409   25.6689    2.1775 C   0  0  0  0  0  0  0  0  0  0  0  0
   -5.0729   24.2983   -4.6075 C   0  0  0  0  0  0  0  0  0  0  0  0
   -5.1863   22.8746   -5.7258 P   0  0  0  0  0  0  0  0  0  0  0  0
   -5.8612   23.2479   -7.0377 O   0  0  0  0  0  0  0  0  0  0  0  0
   -5.7731   21.6591   -5.0514 O   0  0  0  0  0  0  0  0  0  0  0  0
   -6.7999   23.4324   -6.8773 H   0  0  0  0  0  0  0  0  0  0  0  0
   -3.5319   22.5782   -6.1793 C   0  0  0  0  0  0  0  0  0  0  0  0
   -3.2421   21.5792   -7.0962 C   0  0  0  0  0  0  0  0  0  0  0  0
   -1.9329   21.3272   -7.4640 C   0  0  0  0  0  0  0  0  0  0  0  0
   -0.9230   22.0896   -6.8917 C   0  0  0  0  0  0  0  0  0  0  0  0
    0.8690   21.7958   -7.3748 Br  0  0  0  0  0  0  0  0  0  0  0  0
   -1.2100   23.0900   -5.9692 C   0  0  0  0  0  0  0  0  0  0  0  0
   -2.5238   23.3339   -5.6028 C   0  0  0  0  0  0  0  0  0  0  0  0
 15 14  2  0  0  0
 13 12  1  0  0  0
 14 12  1  0  0  0
 14 16  1  0  0  0
 12 10  1  0  0  0
 10  8  1  0  0  0
  9  8  2  0  0  0
 29 30  2  0  0  0
 29 28  1  0  0  0
  8  6  1  0  0  0
 30 25  1  0  0  0
 28 27  2  0  0  0
 20 23  2  0  0  0
 20 21  1  0  0  0
 25 23  1  0  0  0
 25 26  2  0  0  0
  6  7  1  0  0  0
  6  4  1  0  0  0
 27 26  1  0  0  0
 23 22  1  0  0  0
 21 24  1  0  0  0
  2  3  2  0  0  0
  4  3  1  0  0  0
 22 24  2  0  0  0
 24 19  1  0  0  0
  3  1  1  0  0  0
 19  1  1  0  0  0
  1 31  1  0  0  0
 31 32  1  0  0  0
 32 34  2  0  0  0
 32 33  1  0  0  0
 32 36  1  0  0  0
 37 36  2  0  0  0
 37 38  1  0  0  0
 36 42  1  0  0  0
 38 39  2  0  0  0
 42 41  2  0  0  0
 39 41  1  0  0  0
 39 40  1  0  0  0
 33 35  1  0  0  0
  4  5  1  0  0  0
 10 11  1  0  0  0
 16 17  1  0  0  0
 16 18  1  0  0  0
M  END
> <minimizedAffinity>
-10.02657

$$$$
4GR8_R4C_A_306


 42 44  0  0  0  0  0  0  0  0999 V2000
   -5.5137   24.9136   -4.3922 C   0  0  0  0  0  0  0  0  0  0  0  0
   -7.5836   25.3747   -5.4903 O   0  0  0  0  0  0  0  0  0  0  0  0
   -6.4230   25.7587   -5.2328 C   0  0  0  0  0  0  0  0  0  0  0  0
   -5.8787   26.8798   -5.7058 N   0  0  0  0  0  0  0  0  0  0  0  0
   -4.9040   26.9922   -5.6247 H   0  0  0  0  0  0  0  0  0  0  0  0
   -6.6432   27.9495   -6.3367 C   0  0  0  0  0  0  0  0  0  0  0  0
   -6.5641   29.2032   -5.4844 C   0  0  0  0  0  0  0  0  0  0  0  0
   -6.1835   28.2768   -7.7464 C   0  0  0  0  0  0  0  0  0  0  0  0
   -4.9882   28.3005   -8.0265 O   0  0  0  0  0  0  0  0  0  0  0  0
   -7.1496   28.5711   -8.6137 N   0  0  0  0  0  0  0  0  0  0  0  0
   -8.0855   28.5199   -8.3125 H   0  0  0  0  0  0  0  0  0  0  0  0
   -6.8790   28.9666   -9.9935 C   0  0  0  0  0  0  0  0  0  0  0  0
   -6.5599   27.7390  -10.8424 C   0  0  0  0  0  0  0  0  0  0  0  0
   -8.0284   29.7606  -10.6099 C   0  0  0  0  0  0  0  0  0  0  0  0
   -8.4484   30.7794  -10.0608 O   0  0  0  0  0  0  0  0  0  0  0  0
   -8.5233   29.2954  -11.7529 N   0  0  0  0  0  0  0  0  0  0  0  0
   -9.2655   29.7666  -12.1960 H   0  0  0  0  0  0  0  0  0  0  0  0
   -8.1475   28.4796  -12.1561 H   0  0  0  0  0  0  0  0  0  0  0  0
   -5.2049   23.6311   -5.1405 C   0  0  0  0  0  0  0  0  0  0  0  0
   -1.5574   23.8222   -5.4821 N   0  0  0  0  0  0  0  0  0  0  0  0
   -2.7620   24.1703   -5.0363 O   0  0  0  0  0  0  0  0  0  0  0  0
   -3.1395   22.4497   -6.3211 C   0  0  0  0  0  0  0  0  0  0  0  0
   -1.7623   22.7397   -6.2545 C   0  0  0  0  0  0  0  0  0  0  0  0
   -3.7659   23.3881   -5.5014 C   0  0  0  0  0  0  0  0  0  0  0  0
   -0.6385   22.0806   -6.9649 C   0  0  0  0  0  0  0  0  0  0  0  0
    0.6684   22.4713   -6.7288 C   0  0  0  0  0  0  0  0  0  0  0  0
    1.7050   21.8214   -7.3925 C   0  0  0  0  0  0  0  0  0  0  0  0
    1.4306   20.7897   -8.2792 C   0  0  0  0  0  0  0  0  0  0  0  0
    0.1170   20.3860   -8.5101 C   0  0  0  0  0  0  0  0  0  0  0  0
   -0.9147   21.0338   -7.8383 C   0  0  0  0  0  0  0  0  0  0  0  0
   -6.3713   24.5810   -3.1903 C   0  0  0  0  0  0  0  0  0  0  0  0
   -7.1560   25.9888   -2.3577 P   0  0  0  0  0  0  0  0  0  0  0  0
   -8.5864   26.1929   -2.8353 O   0  0  0  0  0  0  0  0  0  0  0  0
   -6.3037   27.2328   -2.4053 O   0  0  0  0  0  0  0  0  0  0  0  0
   -8.5793   26.5022   -3.7546 H   0  0  0  0  0  0  0  0  0  0  0  0
   -7.3403   25.4414   -0.7154 C   0  0  0  0  0  0  0  0  0  0  0  0
   -6.8507   26.2178    0.3238 C   0  0  0  0  0  0  0  0  0  0  0  0
   -6.9844   25.7957    1.6340 C   0  0  0  0  0  0  0  0  0  0  0  0
   -7.6109   24.5810    1.8806 C   0  0  0  0  0  0  0  0  0  0  0  0
   -7.8319   23.9755    3.6456 Br  0  0  0  0  0  0  0  0  0  0  0  0
   -8.1000   23.7982    0.8403 C   0  0  0  0  0  0  0  0  0  0  0  0
   -7.9588   24.2260   -0.4699 C   0  0  0  0  0  0  0  0  0  0  0  0
 15 14  2  0  0  0
 13 12  1  0  0  0
 14 12  1  0  0  0
 14 16  1  0  0  0
 12 10  1  0  0  0
 10  8  1  0  0  0
  9  8  2  0  0  0
 29 30  2  0  0  0
 29 28  1  0  0  0
  8  6  1  0  0  0
 30 25  1  0  0  0
 28 27  2  0  0  0
 20 23  2  0  0  0
 20 21  1  0  0  0
 25 23  1  0  0  0
 25 26  2  0  0  0
  6  7  1  0  0  0
  6  4  1  0  0  0
 27 26  1  0  0  0
 23 22  1  0  0  0
 21 24  1  0  0  0
  2  3  2  0  0  0
  4  3  1  0  0  0
 22 24  2  0  0  0
 24 19  1  0  0  0
  3  1  1  0  0  0
 19  1  1  0  0  0
  1 31  1  0  0  0
 31 32  1  0  0  0
 32 34  2  0  0  0
 32 33  1  0  0  0
 32 36  1  0  0  0
 37 36  2  0  0  0
 37 38  1  0  0  0
 36 42  1  0  0  0
 38 39  2  0  0  0
 42 41  2  0  0  0
 39 41  1  0  0  0
 39 40  1  0  0  0
 33 35  1  0  0  0
  4  5  1  0  0  0
 10 11  1  0  0  0
 16 17  1  0  0  0
 16 18  1  0  0  0
M  END
> <minimizedAffinity>
-10.01685

$$$$
4GR8_R4C_A_306


 42 44  0  0  0  0  0  0  0  0999 V2000
   -6.3692   25.4066   -4.3335 C   0  0  0  0  0  0  0  0  0  0  0  0
   -8.2407   26.7063   -5.0483 O   0  0  0  0  0  0  0  0  0  0  0  0
   -7.0133   26.4931   -5.1411 C   0  0  0  0  0  0  0  0  0  0  0  0
   -6.1976   27.1406   -5.9732 N   0  0  0  0  0  0  0  0  0  0  0  0
   -5.3007   26.7656   -6.1287 H   0  0  0  0  0  0  0  0  0  0  0  0
   -6.5567   28.3724   -6.6664 C   0  0  0  0  0  0  0  0  0  0  0  0
   -6.0215   29.5655   -5.8954 C   0  0  0  0  0  0  0  0  0  0  0  0
   -6.0496   28.4363   -8.0962 C   0  0  0  0  0  0  0  0  0  0  0  0
   -4.8573   28.2821   -8.3462 O   0  0  0  0  0  0  0  0  0  0  0  0
   -6.9671   28.7097   -9.0213 N   0  0  0  0  0  0  0  0  0  0  0  0
   -7.9052   28.8103   -8.7399 H   0  0  0  0  0  0  0  0  0  0  0  0
   -6.6402   28.8668  -10.4362 C   0  0  0  0  0  0  0  0  0  0  0  0
   -6.5600   27.5020  -11.1148 C   0  0  0  0  0  0  0  0  0  0  0  0
   -7.6288   29.7718  -11.1675 C   0  0  0  0  0  0  0  0  0  0  0  0
   -8.6937   30.0898  -10.6376 O   0  0  0  0  0  0  0  0  0  0  0  0
   -7.2665   30.1893  -12.3767 N   0  0  0  0  0  0  0  0  0  0  0  0
   -7.8645   30.7751  -12.8948 H   0  0  0  0  0  0  0  0  0  0  0  0
   -6.4003   29.9126  -12.7539 H   0  0  0  0  0  0  0  0  0  0  0  0
   -6.6454   24.0716   -4.9982 C   0  0  0  0  0  0  0  0  0  0  0  0
   -4.4879   21.8492   -6.9638 N   0  0  0  0  0  0  0  0  0  0  0  0
   -5.6338   22.3481   -6.5067 O   0  0  0  0  0  0  0  0  0  0  0  0
   -4.0974   23.5660   -5.5528 C   0  0  0  0  0  0  0  0  0  0  0  0
   -3.5234   22.6077   -6.4115 C   0  0  0  0  0  0  0  0  0  0  0  0
   -5.4769   23.3855   -5.6494 C   0  0  0  0  0  0  0  0  0  0  0  0
   -2.0883   22.3269   -6.6634 C   0  0  0  0  0  0  0  0  0  0  0  0
   -1.1051   23.0653   -6.0274 C   0  0  0  0  0  0  0  0  0  0  0  0
    0.2334   22.7664   -6.2652 C   0  0  0  0  0  0  0  0  0  0  0  0
    0.5781   21.7361   -7.1287 C   0  0  0  0  0  0  0  0  0  0  0  0
   -0.4092   20.9832   -7.7612 C   0  0  0  0  0  0  0  0  0  0  0  0
   -1.7455   21.2810   -7.5140 C   0  0  0  0  0  0  0  0  0  0  0  0
   -7.1238   25.4627   -3.0228 C   0  0  0  0  0  0  0  0  0  0  0  0
   -6.1420   25.8795   -1.5555 P   0  0  0  0  0  0  0  0  0  0  0  0
   -4.6508   25.8610   -1.8584 O   0  0  0  0  0  0  0  0  0  0  0  0
   -6.5390   25.0665   -0.3481 O   0  0  0  0  0  0  0  0  0  0  0  0
   -4.3648   24.9481   -2.0191 H   0  0  0  0  0  0  0  0  0  0  0  0
   -6.4921   27.5648   -1.2947 C   0  0  0  0  0  0  0  0  0  0  0  0
   -7.1501   27.9561   -0.1387 C   0  0  0  0  0  0  0  0  0  0  0  0
   -7.4404   29.2902    0.0822 C   0  0  0  0  0  0  0  0  0  0  0  0
   -7.0647   30.2202   -0.8784 C   0  0  0  0  0  0  0  0  0  0  0  0
   -7.4213   32.0459   -0.6131 Br  0  0  0  0  0  0  0  0  0  0  0  0
   -6.4076   29.8306   -2.0406 C   0  0  0  0  0  0  0  0  0  0  0  0
   -6.1239   28.4917   -2.2565 C   0  0  0  0  0  0  0  0  0  0  0  0
 15 14  2  0  0  0
 13 12  1  0  0  0
 14 12  1  0  0  0
 14 16  1  0  0  0
 12 10  1  0  0  0
 10  8  1  0  0  0
  9  8  2  0  0  0
 29 30  2  0  0  0
 29 28  1  0  0  0
  8  6  1  0  0  0
 30 25  1  0  0  0
 28 27  2  0  0  0
 20 23  2  0  0  0
 20 21  1  0  0  0
 25 23  1  0  0  0
 25 26  2  0  0  0
  6  7  1  0  0  0
  6  4  1  0  0  0
 27 26  1  0  0  0
 23 22  1  0  0  0
 21 24  1  0  0  0
  2  3  2  0  0  0
  4  3  1  0  0  0
 22 24  2  0  0  0
 24 19  1  0  0  0
  3  1  1  0  0  0
 19  1  1  0  0  0
  1 31  1  0  0  0
 31 32  1  0  0  0
 32 34  2  0  0  0
 32 33  1  0  0  0
 32 36  1  0  0  0
 37 36  2  0  0  0
 37 38  1  0  0  0
 36 42  1  0  0  0
 38 39  2  0  0  0
 42 41  2  0  0  0
 39 41  1  0  0  0
 39 40  1  0  0  0
 33 35  1  0  0  0
  4  5  1  0  0  0
 10 11  1  0  0  0
 16 17  1  0  0  0
 16 18  1  0  0  0
M  END
> <minimizedAffinity>
-9.52923

$$$$
4GR8_R4C_A_306


 42 44  0  0  0  0  0  0  0  0999 V2000
   -5.3078   24.8039   -4.4095 C   0  0  0  0  0  0  0  0  0  0  0  0
   -6.8737   25.6118   -6.0214 O   0  0  0  0  0  0  0  0  0  0  0  0
   -5.8587   25.8488   -5.3328 C   0  0  0  0  0  0  0  0  0  0  0  0
   -5.1586   26.9819   -5.3890 N   0  0  0  0  0  0  0  0  0  0  0  0
   -4.2659   26.9965   -4.9742 H   0  0  0  0  0  0  0  0  0  0  0  0
   -5.6385   28.2011   -6.0295 C   0  0  0  0  0  0  0  0  0  0  0  0
   -7.1493   28.1441   -6.1660 C   0  0  0  0  0  0  0  0  0  0  0  0
   -5.2536   29.4697   -5.2891 C   0  0  0  0  0  0  0  0  0  0  0  0
   -4.3888   30.2185   -5.7356 O   0  0  0  0  0  0  0  0  0  0  0  0
   -5.8782   29.6729   -4.1312 N   0  0  0  0  0  0  0  0  0  0  0  0
   -6.5670   29.0293   -3.8475 H   0  0  0  0  0  0  0  0  0  0  0  0
   -5.5843   30.8111   -3.2641 C   0  0  0  0  0  0  0  0  0  0  0  0
   -6.8805   31.4576   -2.7830 C   0  0  0  0  0  0  0  0  0  0  0  0
   -4.7029   30.4292   -2.0772 C   0  0  0  0  0  0  0  0  0  0  0  0
   -4.0339   31.2839   -1.4960 O   0  0  0  0  0  0  0  0  0  0  0  0
   -4.7154   29.1491   -1.7182 N   0  0  0  0  0  0  0  0  0  0  0  0
   -4.1664   28.8452   -0.9596 H   0  0  0  0  0  0  0  0  0  0  0  0
   -5.2736   28.5051   -2.2111 H   0  0  0  0  0  0  0  0  0  0  0  0
   -5.0076   23.5511   -5.2099 C   0  0  0  0  0  0  0  0  0  0  0  0
   -1.3587   23.7346   -5.5412 N   0  0  0  0  0  0  0  0  0  0  0  0
   -2.5641   24.0866   -5.1004 O   0  0  0  0  0  0  0  0  0  0  0  0
   -2.9406   22.3615   -6.3796 C   0  0  0  0  0  0  0  0  0  0  0  0
   -1.5632   22.6494   -6.3100 C   0  0  0  0  0  0  0  0  0  0  0  0
   -3.5679   23.3042   -5.5654 C   0  0  0  0  0  0  0  0  0  0  0  0
   -0.4384   21.9856   -7.0144 C   0  0  0  0  0  0  0  0  0  0  0  0
   -0.6777   20.9513   -7.9030 C   0  0  0  0  0  0  0  0  0  0  0  0
    0.3940   20.3608   -8.5666 C   0  0  0  0  0  0  0  0  0  0  0  0
    1.6887   20.8072   -8.3419 C   0  0  0  0  0  0  0  0  0  0  0  0
    1.9316   21.8559   -7.4571 C   0  0  0  0  0  0  0  0  0  0  0  0
    0.8562   22.4478   -6.8023 C   0  0  0  0  0  0  0  0  0  0  0  0
   -6.4697   24.5217   -3.4817 C   0  0  0  0  0  0  0  0  0  0  0  0
   -7.3706   25.9721   -2.8693 P   0  0  0  0  0  0  0  0  0  0  0  0
   -8.6685   26.1867   -3.6343 O   0  0  0  0  0  0  0  0  0  0  0  0
   -6.4946   27.1974   -2.7796 O   0  0  0  0  0  0  0  0  0  0  0  0
   -8.4669   26.4637   -4.5418 H   0  0  0  0  0  0  0  0  0  0  0  0
   -7.8986   25.4858   -1.2833 C   0  0  0  0  0  0  0  0  0  0  0  0
   -7.4772   24.2710   -0.7643 C   0  0  0  0  0  0  0  0  0  0  0  0
   -7.8909   23.8670    0.4920 C   0  0  0  0  0  0  0  0  0  0  0  0
   -8.7376   24.6991    1.2127 C   0  0  0  0  0  0  0  0  0  0  0  0
   -9.3109   24.2007    2.9313 Br  0  0  0  0  0  0  0  0  0  0  0  0
   -9.1649   25.9166    0.6936 C   0  0  0  0  0  0  0  0  0  0  0  0
   -8.7492   26.3126   -0.5674 C   0  0  0  0  0  0  0  0  0  0  0  0
 15 14  2  0  0  0
 13 12  1  0  0  0
 14 12  1  0  0  0
 14 16  1  0  0  0
 12 10  1  0  0  0
 10  8  1  0  0  0
  9  8  2  0  0  0
 29 30  2  0  0  0
 29 28  1  0  0  0
  8  6  1  0  0  0
 30 25  1  0  0  0
 28 27  2  0  0  0
 20 23  2  0  0  0
 20 21  1  0  0  0
 25 23  1  0  0  0
 25 26  2  0  0  0
  6  7  1  0  0  0
  6  4  1  0  0  0
 27 26  1  0  0  0
 23 22  1  0  0  0
 21 24  1  0  0  0
  2  3  2  0  0  0
  4  3  1  0  0  0
 22 24  2  0  0  0
 24 19  1  0  0  0
  3  1  1  0  0  0
 19  1  1  0  0  0
  1 31  1  0  0  0
 31 32  1  0  0  0
 32 34  2  0  0  0
 32 33  1  0  0  0
 32 36  1  0  0  0
 37 36  2  0  0  0
 37 38  1  0  0  0
 36 42  1  0  0  0
 38 39  2  0  0  0
 42 41  2  0  0  0
 39 41  1  0  0  0
 39 40  1  0  0  0
 33 35  1  0  0  0
  4  5  1  0  0  0
 10 11  1  0  0  0
 16 17  1  0  0  0
 16 18  1  0  0  0
M  END
> <minimizedAffinity>
-9.39245

$$$$
4GR8_R4C_A_306


 42 44  0  0  0  0  0  0  0  0999 V2000
   -6.5779   25.5875   -3.9409 C   0  0  0  0  0  0  0  0  0  0  0  0
   -7.8810   27.0772   -5.2771 O   0  0  0  0  0  0  0  0  0  0  0  0
   -6.8654   26.9190   -4.5669 C   0  0  0  0  0  0  0  0  0  0  0  0
   -5.9442   27.8580   -4.3508 N   0  0  0  0  0  0  0  0  0  0  0  0
   -5.0840   27.5823   -3.9592 H   0  0  0  0  0  0  0  0  0  0  0  0
   -6.1367   29.2700   -4.6608 C   0  0  0  0  0  0  0  0  0  0  0  0
   -5.3246   30.1181   -3.6988 C   0  0  0  0  0  0  0  0  0  0  0  0
   -5.7616   29.6371   -6.0857 C   0  0  0  0  0  0  0  0  0  0  0  0
   -4.6861   30.1761   -6.3320 O   0  0  0  0  0  0  0  0  0  0  0  0
   -6.6839   29.3765   -7.0096 N   0  0  0  0  0  0  0  0  0  0  0  0
   -7.5179   28.9333   -6.7317 H   0  0  0  0  0  0  0  0  0  0  0  0
   -6.5103   29.7207   -8.4185 C   0  0  0  0  0  0  0  0  0  0  0  0
   -6.9653   28.5646   -9.3050 C   0  0  0  0  0  0  0  0  0  0  0  0
   -7.2384   31.0075   -8.7997 C   0  0  0  0  0  0  0  0  0  0  0  0
   -8.1543   30.9861   -9.6222 O   0  0  0  0  0  0  0  0  0  0  0  0
   -6.8340   32.1188   -8.1922 N   0  0  0  0  0  0  0  0  0  0  0  0
   -7.2674   32.9783   -8.3987 H   0  0  0  0  0  0  0  0  0  0  0  0
   -6.1013   32.0822   -7.5357 H   0  0  0  0  0  0  0  0  0  0  0  0
   -6.9087   24.4944   -4.9389 C   0  0  0  0  0  0  0  0  0  0  0  0
   -4.7769   21.7522   -6.1193 N   0  0  0  0  0  0  0  0  0  0  0  0
   -5.9049   22.3411   -5.7298 O   0  0  0  0  0  0  0  0  0  0  0  0
   -4.4119   23.9279   -5.6464 C   0  0  0  0  0  0  0  0  0  0  0  0
   -3.8450   22.7227   -6.1059 C   0  0  0  0  0  0  0  0  0  0  0  0
   -5.7616   23.6540   -5.4267 C   0  0  0  0  0  0  0  0  0  0  0  0
   -2.4313   22.4333   -6.4522 C   0  0  0  0  0  0  0  0  0  0  0  0
   -1.4030   23.1550   -5.8705 C   0  0  0  0  0  0  0  0  0  0  0  0
   -0.0851   22.8482   -6.1968 C   0  0  0  0  0  0  0  0  0  0  0  0
    0.1947   21.8267   -7.0935 C   0  0  0  0  0  0  0  0  0  0  0  0
   -0.8377   21.0906   -7.6716 C   0  0  0  0  0  0  0  0  0  0  0  0
   -2.1528   21.3962   -7.3361 C   0  0  0  0  0  0  0  0  0  0  0  0
   -7.5729   25.5238   -2.8022 C   0  0  0  0  0  0  0  0  0  0  0  0
   -6.9075   25.8400   -1.1445 P   0  0  0  0  0  0  0  0  0  0  0  0
   -5.7846   26.8665   -1.1804 O   0  0  0  0  0  0  0  0  0  0  0  0
   -6.5602   24.5675   -0.4121 O   0  0  0  0  0  0  0  0  0  0  0  0
   -5.0100   26.4830   -1.6206 H   0  0  0  0  0  0  0  0  0  0  0  0
   -8.2051   26.6717   -0.3351 C   0  0  0  0  0  0  0  0  0  0  0  0
   -7.9717   27.9144    0.2340 C   0  0  0  0  0  0  0  0  0  0  0  0
   -8.9899   28.5868    0.8850 C   0  0  0  0  0  0  0  0  0  0  0  0
  -10.2409   27.9881    0.9593 C   0  0  0  0  0  0  0  0  0  0  0  0
  -11.6596   28.8722    1.8174 Br  0  0  0  0  0  0  0  0  0  0  0  0
  -10.4774   26.7403    0.3925 C   0  0  0  0  0  0  0  0  0  0  0  0
   -9.4511   26.0712   -0.2546 C   0  0  0  0  0  0  0  0  0  0  0  0
 15 14  2  0  0  0
 13 12  1  0  0  0
 14 12  1  0  0  0
 14 16  1  0  0  0
 12 10  1  0  0  0
 10  8  1  0  0  0
  9  8  2  0  0  0
 29 30  2  0  0  0
 29 28  1  0  0  0
  8  6  1  0  0  0
 30 25  1  0  0  0
 28 27  2  0  0  0
 20 23  2  0  0  0
 20 21  1  0  0  0
 25 23  1  0  0  0
 25 26  2  0  0  0
  6  7  1  0  0  0
  6  4  1  0  0  0
 27 26  1  0  0  0
 23 22  1  0  0  0
 21 24  1  0  0  0
  2  3  2  0  0  0
  4  3  1  0  0  0
 22 24  2  0  0  0
 24 19  1  0  0  0
  3  1  1  0  0  0
 19  1  1  0  0  0
  1 31  1  0  0  0
 31 32  1  0  0  0
 32 34  2  0  0  0
 32 33  1  0  0  0
 32 36  1  0  0  0
 37 36  2  0  0  0
 37 38  1  0  0  0
 36 42  1  0  0  0
 38 39  2  0  0  0
 42 41  2  0  0  0
 39 41  1  0  0  0
 39 40  1  0  0  0
 33 35  1  0  0  0
  4  5  1  0  0  0
 10 11  1  0  0  0
 16 17  1  0  0  0
 16 18  1  0  0  0
M  END
> <minimizedAffinity>
-9.39166

$$$$
4GR8_R4C_A_306


 42 44  0  0  0  0  0  0  0  0999 V2000
   -6.2413   25.3874   -4.2809 C   0  0  0  0  0  0  0  0  0  0  0  0
   -7.6393   26.9462   -5.4291 O   0  0  0  0  0  0  0  0  0  0  0  0
   -6.4781   26.5431   -5.2061 C   0  0  0  0  0  0  0  0  0  0  0  0
   -5.3849   27.0380   -5.7866 N   0  0  0  0  0  0  0  0  0  0  0  0
   -4.5479   26.5250   -5.7126 H   0  0  0  0  0  0  0  0  0  0  0  0
   -5.3569   28.2954   -6.5249 C   0  0  0  0  0  0  0  0  0  0  0  0
   -6.3783   28.2500   -7.6471 C   0  0  0  0  0  0  0  0  0  0  0  0
   -5.6221   29.5151   -5.6603 C   0  0  0  0  0  0  0  0  0  0  0  0
   -6.6580   30.1617   -5.7889 O   0  0  0  0  0  0  0  0  0  0  0  0
   -4.6503   29.8415   -4.8110 N   0  0  0  0  0  0  0  0  0  0  0  0
   -3.8537   29.2650   -4.7615 H   0  0  0  0  0  0  0  0  0  0  0  0
   -4.7165   31.0191   -3.9494 C   0  0  0  0  0  0  0  0  0  0  0  0
   -3.9019   30.7910   -2.6789 C   0  0  0  0  0  0  0  0  0  0  0  0
   -4.2566   32.2898   -4.6601 C   0  0  0  0  0  0  0  0  0  0  0  0
   -3.0694   32.6157   -4.6504 O   0  0  0  0  0  0  0  0  0  0  0  0
   -5.1977   32.9944   -5.2812 N   0  0  0  0  0  0  0  0  0  0  0  0
   -4.9593   33.8230   -5.7563 H   0  0  0  0  0  0  0  0  0  0  0  0
   -6.1330   32.6874   -5.2659 H   0  0  0  0  0  0  0  0  0  0  0  0
   -6.5699   24.0992   -5.0108 C   0  0  0  0  0  0  0  0  0  0  0  0
   -4.4668   21.7430   -6.8772 N   0  0  0  0  0  0  0  0  0  0  0  0
   -5.5989   22.2636   -6.4099 O   0  0  0  0  0  0  0  0  0  0  0  0
   -4.0421   23.5837   -5.6435 C   0  0  0  0  0  0  0  0  0  0  0  0
   -3.4917   22.5615   -6.4417 C   0  0  0  0  0  0  0  0  0  0  0  0
   -5.4210   23.3752   -5.6559 C   0  0  0  0  0  0  0  0  0  0  0  0
   -2.0651   22.2805   -6.7383 C   0  0  0  0  0  0  0  0  0  0  0  0
   -1.0611   22.9728   -6.0832 C   0  0  0  0  0  0  0  0  0  0  0  0
    0.2689   22.6739   -6.3647 C   0  0  0  0  0  0  0  0  0  0  0  0
    0.5846   21.6893   -7.2903 C   0  0  0  0  0  0  0  0  0  0  0  0
   -0.4236   20.9824   -7.9426 C   0  0  0  0  0  0  0  0  0  0  0  0
   -1.7513   21.2797   -7.6519 C   0  0  0  0  0  0  0  0  0  0  0  0
   -7.2698   25.6056   -3.1922 C   0  0  0  0  0  0  0  0  0  0  0  0
   -6.6582   25.5071   -1.4873 P   0  0  0  0  0  0  0  0  0  0  0  0
   -5.3054   26.1883   -1.3397 O   0  0  0  0  0  0  0  0  0  0  0  0
   -6.7074   24.1023   -0.9391 O   0  0  0  0  0  0  0  0  0  0  0  0
   -4.6307   25.6723   -1.8083 H   0  0  0  0  0  0  0  0  0  0  0  0
   -7.7433   26.5424   -0.6034 C   0  0  0  0  0  0  0  0  0  0  0  0
   -7.2933   27.7694   -0.1403 C   0  0  0  0  0  0  0  0  0  0  0  0
   -8.1407   28.6021    0.5678 C   0  0  0  0  0  0  0  0  0  0  0  0
   -9.4417   28.1791    0.8070 C   0  0  0  0  0  0  0  0  0  0  0  0
  -10.6343   29.2847    1.7484 Br  0  0  0  0  0  0  0  0  0  0  0  0
   -9.8951   26.9475    0.3469 C   0  0  0  0  0  0  0  0  0  0  0  0
   -9.0390   26.1172   -0.3583 C   0  0  0  0  0  0  0  0  0  0  0  0
 15 14  2  0  0  0
 13 12  1  0  0  0
 14 12  1  0  0  0
 14 16  1  0  0  0
 12 10  1  0  0  0
 10  8  1  0  0  0
  9  8  2  0  0  0
 29 30  2  0  0  0
 29 28  1  0  0  0
  8  6  1  0  0  0
 30 25  1  0  0  0
 28 27  2  0  0  0
 20 23  2  0  0  0
 20 21  1  0  0  0
 25 23  1  0  0  0
 25 26  2  0  0  0
  6  7  1  0  0  0
  6  4  1  0  0  0
 27 26  1  0  0  0
 23 22  1  0  0  0
 21 24  1  0  0  0
  2  3  2  0  0  0
  4  3  1  0  0  0
 22 24  2  0  0  0
 24 19  1  0  0  0
  3  1  1  0  0  0
 19  1  1  0  0  0
  1 31  1  0  0  0
 31 32  1  0  0  0
 32 34  2  0  0  0
 32 33  1  0  0  0
 32 36  1  0  0  0
 37 36  2  0  0  0
 37 38  1  0  0  0
 36 42  1  0  0  0
 38 39  2  0  0  0
 42 41  2  0  0  0
 39 41  1  0  0  0
 39 40  1  0  0  0
 33 35  1  0  0  0
  4  5  1  0  0  0
 10 11  1  0  0  0
 16 17  1  0  0  0
 16 18  1  0  0  0
M  END
> <minimizedAffinity>
-9.26061

$$$$
4GR8_R4C_A_306


 42 44  0  0  0  0  0  0  0  0999 V2000
   -6.7835   24.9175   -4.4766 C   0  0  0  0  0  0  0  0  0  0  0  0
   -5.3340   25.5856   -2.7002 O   0  0  0  0  0  0  0  0  0  0  0  0
   -6.4771   25.2122   -3.0389 C   0  0  0  0  0  0  0  0  0  0  0  0
   -7.4795   24.9907   -2.1886 N   0  0  0  0  0  0  0  0  0  0  0  0
   -8.2677   24.5015   -2.5182 H   0  0  0  0  0  0  0  0  0  0  0  0
   -7.4763   25.4311   -0.7983 C   0  0  0  0  0  0  0  0  0  0  0  0
   -8.3546   26.6605   -0.6513 C   0  0  0  0  0  0  0  0  0  0  0  0
   -7.9435   24.3666    0.1786 C   0  0  0  0  0  0  0  0  0  0  0  0
   -8.1222   23.2099   -0.1926 O   0  0  0  0  0  0  0  0  0  0  0  0
   -8.1793   24.7871    1.4195 N   0  0  0  0  0  0  0  0  0  0  0  0
   -8.0017   25.7300    1.6398 H   0  0  0  0  0  0  0  0  0  0  0  0
   -8.6905   23.9078    2.4679 C   0  0  0  0  0  0  0  0  0  0  0  0
   -7.6025   23.6295    3.5015 C   0  0  0  0  0  0  0  0  0  0  0  0
   -9.9402   24.4682    3.1427 C   0  0  0  0  0  0  0  0  0  0  0  0
  -10.3909   23.9397    4.1593 O   0  0  0  0  0  0  0  0  0  0  0  0
  -10.4865   25.5414    2.5793 N   0  0  0  0  0  0  0  0  0  0  0  0
  -11.2939   25.9461    2.9712 H   0  0  0  0  0  0  0  0  0  0  0  0
  -10.0836   25.9315    1.7701 H   0  0  0  0  0  0  0  0  0  0  0  0
   -6.2867   23.5235   -4.8084 C   0  0  0  0  0  0  0  0  0  0  0  0
   -2.6767   23.9990   -5.2554 N   0  0  0  0  0  0  0  0  0  0  0  0
   -3.8893   24.2448   -4.7653 O   0  0  0  0  0  0  0  0  0  0  0  0
   -4.1767   22.5281   -6.0783 C   0  0  0  0  0  0  0  0  0  0  0  0
   -2.8239   22.9206   -6.0465 C   0  0  0  0  0  0  0  0  0  0  0  0
   -4.8456   23.3985   -5.2182 C   0  0  0  0  0  0  0  0  0  0  0  0
   -1.6768   22.3642   -6.8058 C   0  0  0  0  0  0  0  0  0  0  0  0
   -0.3850   22.7812   -6.5340 C   0  0  0  0  0  0  0  0  0  0  0  0
    0.6746   22.2268   -7.2463 C   0  0  0  0  0  0  0  0  0  0  0  0
    0.4381   21.2632   -8.2166 C   0  0  0  0  0  0  0  0  0  0  0  0
   -0.8599   20.8327   -8.4842 C   0  0  0  0  0  0  0  0  0  0  0  0
   -1.9146   21.3844   -7.7640 C   0  0  0  0  0  0  0  0  0  0  0  0
   -5.9346   25.9261   -5.2201 C   0  0  0  0  0  0  0  0  0  0  0  0
   -6.7767   27.4462   -5.7407 P   0  0  0  0  0  0  0  0  0  0  0  0
   -8.2531   27.4201   -5.3730 O   0  0  0  0  0  0  0  0  0  0  0  0
   -6.5039   27.7888   -7.1846 O   0  0  0  0  0  0  0  0  0  0  0  0
   -8.7102   26.7597   -5.9171 H   0  0  0  0  0  0  0  0  0  0  0  0
   -6.1085   28.6637   -4.6911 C   0  0  0  0  0  0  0  0  0  0  0  0
   -5.1761   29.5605   -5.1898 C   0  0  0  0  0  0  0  0  0  0  0  0
   -4.6316   30.5310   -4.3686 C   0  0  0  0  0  0  0  0  0  0  0  0
   -5.0343   30.5804   -3.0404 C   0  0  0  0  0  0  0  0  0  0  0  0
   -4.3358   31.8933   -1.8917 Br  0  0  0  0  0  0  0  0  0  0  0  0
   -5.9668   29.6802   -2.5360 C   0  0  0  0  0  0  0  0  0  0  0  0
   -6.5048   28.7083   -3.3641 C   0  0  0  0  0  0  0  0  0  0  0  0
 15 14  2  0  0  0
 13 12  1  0  0  0
 14 12  1  0  0  0
 14 16  1  0  0  0
 12 10  1  0  0  0
 10  8  1  0  0  0
  9  8  2  0  0  0
 29 30  2  0  0  0
 29 28  1  0  0  0
  8  6  1  0  0  0
 30 25  1  0  0  0
 28 27  2  0  0  0
 20 23  2  0  0  0
 20 21  1  0  0  0
 25 23  1  0  0  0
 25 26  2  0  0  0
  6  7  1  0  0  0
  6  4  1  0  0  0
 27 26  1  0  0  0
 23 22  1  0  0  0
 21 24  1  0  0  0
  2  3  2  0  0  0
  4  3  1  0  0  0
 22 24  2  0  0  0
 24 19  1  0  0  0
  3  1  1  0  0  0
 19  1  1  0  0  0
  1 31  1  0  0  0
 31 32  1  0  0  0
 32 34  2  0  0  0
 32 33  1  0  0  0
 32 36  1  0  0  0
 37 36  2  0  0  0
 37 38  1  0  0  0
 36 42  1  0  0  0
 38 39  2  0  0  0
 42 41  2  0  0  0
 39 41  1  0  0  0
 39 40  1  0  0  0
 33 35  1  0  0  0
  4  5  1  0  0  0
 10 11  1  0  0  0
 16 17  1  0  0  0
 16 18  1  0  0  0
M  END
> <minimizedAffinity>
-9.26011

$$$$
4GR8_R4C_A_306


 42 44  0  0  0  0  0  0  0  0999 V2000
   -6.7374   25.6614   -5.0551 C   0  0  0  0  0  0  0  0  0  0  0  0
   -7.9800   26.4466   -3.1731 O   0  0  0  0  0  0  0  0  0  0  0  0
   -6.8564   26.2071   -3.6639 C   0  0  0  0  0  0  0  0  0  0  0  0
   -5.6989   26.4560   -3.0513 N   0  0  0  0  0  0  0  0  0  0  0  0
   -4.8751   26.4338   -3.5899 H   0  0  0  0  0  0  0  0  0  0  0  0
   -5.5821   26.7592   -1.6296 C   0  0  0  0  0  0  0  0  0  0  0  0
   -5.8030   28.2443   -1.4057 C   0  0  0  0  0  0  0  0  0  0  0  0
   -6.5483   25.9758   -0.7587 C   0  0  0  0  0  0  0  0  0  0  0  0
   -6.5886   24.7498   -0.8129 O   0  0  0  0  0  0  0  0  0  0  0  0
   -7.3532   26.7064    0.0098 N   0  0  0  0  0  0  0  0  0  0  0  0
   -7.2511   27.6856    0.0030 H   0  0  0  0  0  0  0  0  0  0  0  0
   -8.3815   26.1159    0.8628 C   0  0  0  0  0  0  0  0  0  0  0  0
   -9.6019   25.7317    0.0306 C   0  0  0  0  0  0  0  0  0  0  0  0
   -7.8681   24.9118    1.6489 C   0  0  0  0  0  0  0  0  0  0  0  0
   -7.0004   25.0530    2.5109 O   0  0  0  0  0  0  0  0  0  0  0  0
   -8.4141   23.7359    1.3543 N   0  0  0  0  0  0  0  0  0  0  0  0
   -8.1220   22.9246    1.8294 H   0  0  0  0  0  0  0  0  0  0  0  0
   -9.1106   23.6765    0.6611 H   0  0  0  0  0  0  0  0  0  0  0  0
   -6.3547   24.1959   -4.9763 C   0  0  0  0  0  0  0  0  0  0  0  0
   -2.6890   24.0891   -5.0689 N   0  0  0  0  0  0  0  0  0  0  0  0
   -3.8888   24.5069   -4.6729 O   0  0  0  0  0  0  0  0  0  0  0  0
   -4.3168   22.9312   -6.1178 C   0  0  0  0  0  0  0  0  0  0  0  0
   -2.9284   23.0920   -5.9401 C   0  0  0  0  0  0  0  0  0  0  0  0
   -4.9191   23.8551   -5.2641 C   0  0  0  0  0  0  0  0  0  0  0  0
   -1.8162   22.3930   -6.6302 C   0  0  0  0  0  0  0  0  0  0  0  0
   -2.0783   21.4036   -7.5624 C   0  0  0  0  0  0  0  0  0  0  0  0
   -1.0166   20.7792   -8.2108 C   0  0  0  0  0  0  0  0  0  0  0  0
    0.2911   21.1477   -7.9279 C   0  0  0  0  0  0  0  0  0  0  0  0
    0.5578   22.1515   -6.9989 C   0  0  0  0  0  0  0  0  0  0  0  0
   -0.5072   22.7777   -6.3593 C   0  0  0  0  0  0  0  0  0  0  0  0
   -5.5717   26.4383   -5.6278 C   0  0  0  0  0  0  0  0  0  0  0  0
   -5.9969   27.8925   -6.6254 P   0  0  0  0  0  0  0  0  0  0  0  0
   -7.4365   27.8318   -7.1148 O   0  0  0  0  0  0  0  0  0  0  0  0
   -4.9844   28.1607   -7.7114 O   0  0  0  0  0  0  0  0  0  0  0  0
   -7.5250   27.1241   -7.7723 H   0  0  0  0  0  0  0  0  0  0  0  0
   -6.0057   29.1934   -5.4687 C   0  0  0  0  0  0  0  0  0  0  0  0
   -7.2150   29.6970   -5.0144 C   0  0  0  0  0  0  0  0  0  0  0  0
   -7.2403   30.7335   -4.0991 C   0  0  0  0  0  0  0  0  0  0  0  0
   -6.0335   31.2575   -3.6545 C   0  0  0  0  0  0  0  0  0  0  0  0
   -6.0181   32.6537   -2.3970 Br  0  0  0  0  0  0  0  0  0  0  0  0
   -4.8188   30.7569   -4.1107 C   0  0  0  0  0  0  0  0  0  0  0  0
   -4.8017   29.7210   -5.0307 C   0  0  0  0  0  0  0  0  0  0  0  0
 15 14  2  0  0  0
 13 12  1  0  0  0
 14 12  1  0  0  0
 14 16  1  0  0  0
 12 10  1  0  0  0
 10  8  1  0  0  0
  9  8  2  0  0  0
 29 30  2  0  0  0
 29 28  1  0  0  0
  8  6  1  0  0  0
 30 25  1  0  0  0
 28 27  2  0  0  0
 20 23  2  0  0  0
 20 21  1  0  0  0
 25 23  1  0  0  0
 25 26  2  0  0  0
  6  7  1  0  0  0
  6  4  1  0  0  0
 27 26  1  0  0  0
 23 22  1  0  0  0
 21 24  1  0  0  0
  2  3  2  0  0  0
  4  3  1  0  0  0
 22 24  2  0  0  0
 24 19  1  0  0  0
  3  1  1  0  0  0
 19  1  1  0  0  0
  1 31  1  0  0  0
 31 32  1  0  0  0
 32 34  2  0  0  0
 32 33  1  0  0  0
 32 36  1  0  0  0
 37 36  2  0  0  0
 37 38  1  0  0  0
 36 42  1  0  0  0
 38 39  2  0  0  0
 42 41  2  0  0  0
 39 41  1  0  0  0
 39 40  1  0  0  0
 33 35  1  0  0  0
  4  5  1  0  0  0
 10 11  1  0  0  0
 16 17  1  0  0  0
 16 18  1  0  0  0
M  END
> <minimizedAffinity>
-9.21044

$$$$
4GR8_R4C_A_306


 42 44  0  0  0  0  0  0  0  0999 V2000
   -6.9230   24.9597   -4.4646 C   0  0  0  0  0  0  0  0  0  0  0  0
   -5.4533   25.4544   -2.6486 O   0  0  0  0  0  0  0  0  0  0  0  0
   -6.6225   25.2155   -3.0183 C   0  0  0  0  0  0  0  0  0  0  0  0
   -7.6656   25.1100   -2.1951 N   0  0  0  0  0  0  0  0  0  0  0  0
   -8.4960   24.7151   -2.5470 H   0  0  0  0  0  0  0  0  0  0  0  0
   -7.6481   25.5455   -0.8033 C   0  0  0  0  0  0  0  0  0  0  0  0
   -8.6049   26.7100   -0.6219 C   0  0  0  0  0  0  0  0  0  0  0  0
   -8.0078   24.4481    0.1826 C   0  0  0  0  0  0  0  0  0  0  0  0
   -7.9458   23.2662   -0.1446 O   0  0  0  0  0  0  0  0  0  0  0  0
   -8.4260   24.8612    1.3770 N   0  0  0  0  0  0  0  0  0  0  0  0
   -8.4379   25.8276    1.5644 H   0  0  0  0  0  0  0  0  0  0  0  0
   -8.8681   23.9404    2.4212 C   0  0  0  0  0  0  0  0  0  0  0  0
   -7.7161   23.6276    3.3724 C   0  0  0  0  0  0  0  0  0  0  0  0
  -10.0735   24.4693    3.1948 C   0  0  0  0  0  0  0  0  0  0  0  0
  -10.4661   23.8927    4.2093 O   0  0  0  0  0  0  0  0  0  0  0  0
  -10.6470   25.5697    2.7173 N   0  0  0  0  0  0  0  0  0  0  0  0
  -11.4282   25.9561    3.1753 H   0  0  0  0  0  0  0  0  0  0  0  0
  -10.2905   25.9981    1.9058 H   0  0  0  0  0  0  0  0  0  0  0  0
   -6.4351   23.5706   -4.8290 C   0  0  0  0  0  0  0  0  0  0  0  0
   -2.8193   24.0449   -5.2275 N   0  0  0  0  0  0  0  0  0  0  0  0
   -4.0397   24.2967   -4.7604 O   0  0  0  0  0  0  0  0  0  0  0  0
   -4.3041   22.5582   -6.0496 C   0  0  0  0  0  0  0  0  0  0  0  0
   -2.9526   22.9535   -6.0031 C   0  0  0  0  0  0  0  0  0  0  0  0
   -4.9876   23.4414   -5.2142 C   0  0  0  0  0  0  0  0  0  0  0  0
   -1.7930   22.3868   -6.7353 C   0  0  0  0  0  0  0  0  0  0  0  0
   -1.9816   21.4328   -7.7207 C   0  0  0  0  0  0  0  0  0  0  0  0
   -0.8782   20.9339   -8.4070 C   0  0  0  0  0  0  0  0  0  0  0  0
    0.3976   21.3912   -8.1084 C   0  0  0  0  0  0  0  0  0  0  0  0
    0.5896   22.3601   -7.1255 C   0  0  0  0  0  0  0  0  0  0  0  0
   -0.5174   22.8610   -6.4479 C   0  0  0  0  0  0  0  0  0  0  0  0
   -6.0624   25.9801   -5.1777 C   0  0  0  0  0  0  0  0  0  0  0  0
   -6.5287   27.7176   -4.9447 P   0  0  0  0  0  0  0  0  0  0  0  0
   -5.6903   28.3798   -3.8610 O   0  0  0  0  0  0  0  0  0  0  0  0
   -8.0170   27.8951   -4.7714 O   0  0  0  0  0  0  0  0  0  0  0  0
   -5.9262   28.0075   -2.9969 H   0  0  0  0  0  0  0  0  0  0  0  0
   -5.9923   28.4851   -6.4122 C   0  0  0  0  0  0  0  0  0  0  0  0
   -5.9690   27.7608   -7.5943 C   0  0  0  0  0  0  0  0  0  0  0  0
   -5.5412   28.3536   -8.7683 C   0  0  0  0  0  0  0  0  0  0  0  0
   -5.1327   29.6805   -8.7328 C   0  0  0  0  0  0  0  0  0  0  0  0
   -4.5611   30.5334  -10.3065 Br  0  0  0  0  0  0  0  0  0  0  0  0
   -5.1516   30.4088   -7.5481 C   0  0  0  0  0  0  0  0  0  0  0  0
   -5.5778   29.8067   -6.3752 C   0  0  0  0  0  0  0  0  0  0  0  0
 15 14  2  0  0  0
 13 12  1  0  0  0
 14 12  1  0  0  0
 14 16  1  0  0  0
 12 10  1  0  0  0
 10  8  1  0  0  0
  9  8  2  0  0  0
 29 30  2  0  0  0
 29 28  1  0  0  0
  8  6  1  0  0  0
 30 25  1  0  0  0
 28 27  2  0  0  0
 20 23  2  0  0  0
 20 21  1  0  0  0
 25 23  1  0  0  0
 25 26  2  0  0  0
  6  7  1  0  0  0
  6  4  1  0  0  0
 27 26  1  0  0  0
 23 22  1  0  0  0
 21 24  1  0  0  0
  2  3  2  0  0  0
  4  3  1  0  0  0
 22 24  2  0  0  0
 24 19  1  0  0  0
  3  1  1  0  0  0
 19  1  1  0  0  0
  1 31  1  0  0  0
 31 32  1  0  0  0
 32 34  2  0  0  0
 32 33  1  0  0  0
 32 36  1  0  0  0
 37 36  2  0  0  0
 37 38  1  0  0  0
 36 42  1  0  0  0
 38 39  2  0  0  0
 42 41  2  0  0  0
 39 41  1  0  0  0
 39 40  1  0  0  0
 33 35  1  0  0  0
  4  5  1  0  0  0
 10 11  1  0  0  0
 16 17  1  0  0  0
 16 18  1  0  0  0
M  END
> <minimizedAffinity>
-9.15244

$$$$
4GR8_R4C_A_306


 42 44  0  0  0  0  0  0  0  0999 V2000
   -6.1281   24.8462   -4.0465 C   0  0  0  0  0  0  0  0  0  0  0  0
   -7.6498   25.9053   -5.5516 O   0  0  0  0  0  0  0  0  0  0  0  0
   -6.6192   26.0104   -4.8534 C   0  0  0  0  0  0  0  0  0  0  0  0
   -5.8524   27.0996   -4.8022 N   0  0  0  0  0  0  0  0  0  0  0  0
   -4.9586   27.0188   -4.3976 H   0  0  0  0  0  0  0  0  0  0  0  0
   -6.2608   28.4039   -5.3109 C   0  0  0  0  0  0  0  0  0  0  0  0
   -7.6564   28.7314   -4.8113 C   0  0  0  0  0  0  0  0  0  0  0  0
   -5.3178   29.5301   -4.9258 C   0  0  0  0  0  0  0  0  0  0  0  0
   -4.4443   29.9092   -5.7011 O   0  0  0  0  0  0  0  0  0  0  0  0
   -5.4816   30.0251   -3.7010 N   0  0  0  0  0  0  0  0  0  0  0  0
   -6.2126   29.6727   -3.1436 H   0  0  0  0  0  0  0  0  0  0  0  0
   -4.6221   31.0694   -3.1494 C   0  0  0  0  0  0  0  0  0  0  0  0
   -5.2015   32.4477   -3.4564 C   0  0  0  0  0  0  0  0  0  0  0  0
   -4.3935   30.9061   -1.6486 C   0  0  0  0  0  0  0  0  0  0  0  0
   -4.0797   31.8744   -0.9560 O   0  0  0  0  0  0  0  0  0  0  0  0
   -4.5622   29.6836   -1.1537 N   0  0  0  0  0  0  0  0  0  0  0  0
   -4.4283   29.5190   -0.1923 H   0  0  0  0  0  0  0  0  0  0  0  0
   -4.8209   28.9431   -1.7486 H   0  0  0  0  0  0  0  0  0  0  0  0
   -5.7215   25.3391   -2.6710 C   0  0  0  0  0  0  0  0  0  0  0  0
   -7.8519   24.2128    0.0950 N   0  0  0  0  0  0  0  0  0  0  0  0
   -6.8656   24.1381   -0.7953 O   0  0  0  0  0  0  0  0  0  0  0  0
   -7.7652   26.0922   -1.1505 C   0  0  0  0  0  0  0  0  0  0  0  0
   -8.4031   25.4270   -0.0848 C   0  0  0  0  0  0  0  0  0  0  0  0
   -6.7535   25.2351   -1.5827 C   0  0  0  0  0  0  0  0  0  0  0  0
   -9.5736   25.8640    0.7157 C   0  0  0  0  0  0  0  0  0  0  0  0
   -9.6370   25.5964    2.0725 C   0  0  0  0  0  0  0  0  0  0  0  0
  -10.7364   26.0369    2.8038 C   0  0  0  0  0  0  0  0  0  0  0  0
  -11.7567   26.7403    2.1792 C   0  0  0  0  0  0  0  0  0  0  0  0
  -11.6902   27.0216    0.8161 C   0  0  0  0  0  0  0  0  0  0  0  0
  -10.5855   26.5858    0.0913 C   0  0  0  0  0  0  0  0  0  0  0  0
   -4.8860   24.4123   -4.7945 C   0  0  0  0  0  0  0  0  0  0  0  0
   -5.0472   22.9144   -5.8049 P   0  0  0  0  0  0  0  0  0  0  0  0
   -5.7456   23.2046   -7.1254 O   0  0  0  0  0  0  0  0  0  0  0  0
   -5.6376   21.7606   -5.0324 O   0  0  0  0  0  0  0  0  0  0  0  0
   -6.6774   23.4164   -6.9587 H   0  0  0  0  0  0  0  0  0  0  0  0
   -3.4083   22.5576   -6.2712 C   0  0  0  0  0  0  0  0  0  0  0  0
   -3.1626   21.5504   -7.1919 C   0  0  0  0  0  0  0  0  0  0  0  0
   -1.8665   21.2506   -7.5698 C   0  0  0  0  0  0  0  0  0  0  0  0
   -0.8247   21.9739   -7.0038 C   0  0  0  0  0  0  0  0  0  0  0  0
    0.9515   21.6146   -7.5008 Br  0  0  0  0  0  0  0  0  0  0  0  0
   -1.0675   22.9824   -6.0775 C   0  0  0  0  0  0  0  0  0  0  0  0
   -2.3686   23.2742   -5.7009 C   0  0  0  0  0  0  0  0  0  0  0  0
 15 14  2  0  0  0
 13 12  1  0  0  0
 14 12  1  0  0  0
 14 16  1  0  0  0
 12 10  1  0  0  0
 10  8  1  0  0  0
  9  8  2  0  0  0
 29 30  2  0  0  0
 29 28  1  0  0  0
  8  6  1  0  0  0
 30 25  1  0  0  0
 28 27  2  0  0  0
 20 23  2  0  0  0
 20 21  1  0  0  0
 25 23  1  0  0  0
 25 26  2  0  0  0
  6  7  1  0  0  0
  6  4  1  0  0  0
 27 26  1  0  0  0
 23 22  1  0  0  0
 21 24  1  0  0  0
  2  3  2  0  0  0
  4  3  1  0  0  0
 22 24  2  0  0  0
 24 19  1  0  0  0
  3  1  1  0  0  0
 19  1  1  0  0  0
  1 31  1  0  0  0
 31 32  1  0  0  0
 32 34  2  0  0  0
 32 33  1  0  0  0
 32 36  1  0  0  0
 37 36  2  0  0  0
 37 38  1  0  0  0
 36 42  1  0  0  0
 38 39  2  0  0  0
 42 41  2  0  0  0
 39 41  1  0  0  0
 39 40  1  0  0  0
 33 35  1  0  0  0
  4  5  1  0  0  0
 10 11  1  0  0  0
 16 17  1  0  0  0
 16 18  1  0  0  0
M  END
> <minimizedAffinity>
-8.81358

$$$$
