5KLY_6UR_A_201


 41 45  0  0  0  0  0  0  0  0999 V2000
  -28.9335    5.8198  -29.2162 C   0  0  0  0  0  0  0  0  0  0  0  0
  -30.0050    6.7020  -28.6046 C   0  0  0  0  0  0  0  0  0  0  0  0
  -29.8097    6.4316  -27.1137 C   0  0  0  0  0  0  0  0  0  0  0  0
  -29.0954    5.0719  -27.0883 C   0  0  0  0  0  0  0  0  0  0  0  0
  -29.0172    7.4360  -26.4480 O   0  0  0  0  0  0  0  0  0  0  0  0
  -29.8605    8.0730  -28.9994 O   0  0  0  0  0  0  0  0  0  0  0  0
  -28.9918    4.6369  -28.4383 O   0  0  0  0  0  0  0  0  0  0  0  0
  -28.1441    7.4893  -26.8673 H   0  0  0  0  0  0  0  0  0  0  0  0
  -28.9746    8.3868  -28.7594 H   0  0  0  0  0  0  0  0  0  0  0  0
  -26.2371    5.0956  -32.6249 C   0  0  0  0  0  0  0  0  0  0  0  0
  -28.2680    5.2539  -31.5149 C   0  0  0  0  0  0  0  0  0  0  0  0
  -28.9791    4.8753  -32.7336 C   0  0  0  0  0  0  0  0  0  0  0  0
  -28.1534    4.6186  -33.9189 C   0  0  0  0  0  0  0  0  0  0  0  0
  -26.8148    4.7464  -33.7919 N   0  0  0  0  0  0  0  0  0  0  0  0
  -26.9177    5.3562  -31.4937 N   0  0  0  0  0  0  0  0  0  0  0  0
  -30.4239    5.1993  -31.1363 C   0  0  0  0  0  0  0  0  0  0  0  0
  -29.2118    5.4427  -30.6067 N   0  0  0  0  0  0  0  0  0  0  0  0
  -30.2956    4.8652  -32.4437 N   0  0  0  0  0  0  0  0  0  0  0  0
  -28.7328    4.2640  -35.0946 N   0  0  0  0  0  0  0  0  0  0  0  0
  -28.1739    4.0929  -35.8869 H   0  0  0  0  0  0  0  0  0  0  0  0
  -29.7117    4.1781  -35.1549 H   0  0  0  0  0  0  0  0  0  0  0  0
  -29.8493    4.0011  -26.3272 C   0  0  0  0  0  0  0  0  0  0  0  0
  -30.1151    4.5251  -25.0339 O   0  0  0  0  0  0  0  0  0  0  0  0
  -31.9442    2.7614  -24.7624 O   0  0  0  0  0  0  0  0  0  0  0  0
  -31.1769    3.8461  -24.0436 P   0  0  0  0  0  0  0  0  0  0  0  0
  -30.3859    3.4653  -22.8339 O   0  0  0  0  0  0  0  0  0  0  0  0
  -29.7750    2.7466  -23.0600 H   0  0  0  0  0  0  0  0  0  0  0  0
  -32.2774    5.1356  -23.6511 N   0  0  0  0  0  0  0  0  0  0  0  0
  -32.4036    5.1343  -22.6389 H   0  0  0  0  0  0  0  0  0  0  0  0
  -31.8878    6.4837  -24.0430 C   0  0  0  0  0  0  0  0  0  0  0  0
  -31.8985    7.4963  -22.9027 C   0  0  0  0  0  0  0  0  0  0  0  0
  -32.9854    8.5390  -23.0344 C   0  0  0  0  0  0  0  0  0  0  0  0
  -33.7825    9.1558  -21.9498 C   0  0  0  0  0  0  0  0  0  0  0  0
  -34.6837   10.1232  -22.6048 C   0  0  0  0  0  0  0  0  0  0  0  0
  -34.4148   10.0642  -23.9223 N   0  0  0  0  0  0  0  0  0  0  0  0
  -33.4307    9.1599  -24.1983 C   0  0  0  0  0  0  0  0  0  0  0  0
  -33.8100    8.9577  -20.5781 C   0  0  0  0  0  0  0  0  0  0  0  0
  -34.7108    9.7173  -19.8280 C   0  0  0  0  0  0  0  0  0  0  0  0
  -35.5703   10.6385  -20.4362 C   0  0  0  0  0  0  0  0  0  0  0  0
  -35.5685   10.8492  -21.8129 C   0  0  0  0  0  0  0  0  0  0  0  0
  -34.8724   10.6074  -24.6040 H   0  0  0  0  0  0  0  0  0  0  0  0
 19 13  1  0  0  0
 13 14  2  0  0  0
 13 12  1  0  0  0
 14 10  1  0  0  0
 12 18  1  0  0  0
 12 11  2  0  0  0
 10 15  2  0  0  0
 18 16  2  0  0  0
 15 11  1  0  0  0
 11 17  1  0  0  0
 16 17  1  0  0  0
 17  1  1  0  0  0
  1  2  1  0  0  0
  1  7  1  0  0  0
  6  2  1  0  0  0
  2  3  1  0  0  0
  7  4  1  0  0  0
  3  4  1  0  0  0
  3  5  1  0  0  0
  4 22  1  0  0  0
 22 23  1  0  0  0
 23 25  1  0  0  0
 36 35  1  0  0  0
 36 32  2  0  0  0
 24 25  2  0  0  0
 31 32  1  0  0  0
 31 30  1  0  0  0
 35 34  1  0  0  0
 25 28  1  0  0  0
 25 26  1  0  0  0
 28 30  1  0  0  0
 32 33  1  0  0  0
 34 33  2  0  0  0
 34 40  1  0  0  0
 33 37  1  0  0  0
 40 39  2  0  0  0
 37 38  2  0  0  0
 39 38  1  0  0  0
 28 29  1  0  0  0
 26 27  1  0  0  0
  5  8  1  0  0  0
  6  9  1  0  0  0
 19 20  1  0  0  0
 19 21  1  0  0  0
 35 41  1  0  0  0
M  END
> <minimizedAffinity>
-10.73716

$$$$
5KLY_6UR_A_201


 41 45  0  0  0  0  0  0  0  0999 V2000
  -28.9596    5.6154  -29.1640 C   0  0  0  0  0  0  0  0  0  0  0  0
  -29.9625    6.6148  -28.6201 C   0  0  0  0  0  0  0  0  0  0  0  0
  -29.8870    6.3382  -27.1194 C   0  0  0  0  0  0  0  0  0  0  0  0
  -29.3287    4.9090  -27.0478 C   0  0  0  0  0  0  0  0  0  0  0  0
  -29.0303    7.2562  -26.4099 O   0  0  0  0  0  0  0  0  0  0  0  0
  -29.6455    7.9582  -29.0089 O   0  0  0  0  0  0  0  0  0  0  0  0
  -29.1933    4.4531  -28.3881 O   0  0  0  0  0  0  0  0  0  0  0  0
  -28.1332    7.2100  -26.7761 H   0  0  0  0  0  0  0  0  0  0  0  0
  -28.7464    8.1756  -28.7169 H   0  0  0  0  0  0  0  0  0  0  0  0
  -26.1729    5.1226  -32.5412 C   0  0  0  0  0  0  0  0  0  0  0  0
  -28.2271    5.1434  -31.4635 C   0  0  0  0  0  0  0  0  0  0  0  0
  -28.8967    4.7572  -32.7032 C   0  0  0  0  0  0  0  0  0  0  0  0
  -28.0391    4.5749  -33.8795 C   0  0  0  0  0  0  0  0  0  0  0  0
  -26.7116    4.7717  -33.7261 N   0  0  0  0  0  0  0  0  0  0  0  0
  -26.8849    5.3180  -31.4162 N   0  0  0  0  0  0  0  0  0  0  0  0
  -30.3827    4.9629  -31.1242 C   0  0  0  0  0  0  0  0  0  0  0  0
  -29.1944    5.2583  -30.5677 N   0  0  0  0  0  0  0  0  0  0  0  0
  -30.2152    4.6687  -32.4367 N   0  0  0  0  0  0  0  0  0  0  0  0
  -28.5792    4.2188  -35.0734 N   0  0  0  0  0  0  0  0  0  0  0  0
  -27.9991    4.0978  -35.8596 H   0  0  0  0  0  0  0  0  0  0  0  0
  -29.5508    4.0815  -35.1528 H   0  0  0  0  0  0  0  0  0  0  0  0
  -30.2392    3.9338  -26.3307 C   0  0  0  0  0  0  0  0  0  0  0  0
  -30.1196    4.2043  -24.9413 O   0  0  0  0  0  0  0  0  0  0  0  0
  -32.0285    2.5645  -24.4973 O   0  0  0  0  0  0  0  0  0  0  0  0
  -31.1721    3.6404  -23.8720 P   0  0  0  0  0  0  0  0  0  0  0  0
  -30.3505    3.2801  -22.6766 O   0  0  0  0  0  0  0  0  0  0  0  0
  -29.7903    2.5167  -22.8874 H   0  0  0  0  0  0  0  0  0  0  0  0
  -32.1822    5.0095  -23.5068 N   0  0  0  0  0  0  0  0  0  0  0  0
  -32.3756    4.9901  -22.5055 H   0  0  0  0  0  0  0  0  0  0  0  0
  -31.6534    6.3291  -23.8262 C   0  0  0  0  0  0  0  0  0  0  0  0
  -31.8289    7.3606  -22.7167 C   0  0  0  0  0  0  0  0  0  0  0  0
  -32.8176    8.4515  -23.0607 C   0  0  0  0  0  0  0  0  0  0  0  0
  -32.9411    9.1896  -24.3382 C   0  0  0  0  0  0  0  0  0  0  0  0
  -34.0706   10.1226  -24.1633 C   0  0  0  0  0  0  0  0  0  0  0  0
  -34.5413    9.9234  -22.9181 N   0  0  0  0  0  0  0  0  0  0  0  0
  -33.8385    8.9564  -22.2598 C   0  0  0  0  0  0  0  0  0  0  0  0
  -32.2176    9.1453  -25.5198 C   0  0  0  0  0  0  0  0  0  0  0  0
  -32.6022   10.0043  -26.5519 C   0  0  0  0  0  0  0  0  0  0  0  0
  -33.6716   10.8933  -26.3995 C   0  0  0  0  0  0  0  0  0  0  0  0
  -34.4082   10.9636  -25.2196 C   0  0  0  0  0  0  0  0  0  0  0  0
  -35.3003   10.4155  -22.5295 H   0  0  0  0  0  0  0  0  0  0  0  0
 19 13  1  0  0  0
 13 14  2  0  0  0
 13 12  1  0  0  0
 14 10  1  0  0  0
 12 18  1  0  0  0
 12 11  2  0  0  0
 10 15  2  0  0  0
 18 16  2  0  0  0
 15 11  1  0  0  0
 11 17  1  0  0  0
 16 17  1  0  0  0
 17  1  1  0  0  0
  1  2  1  0  0  0
  1  7  1  0  0  0
  6  2  1  0  0  0
  2  3  1  0  0  0
  7  4  1  0  0  0
  3  4  1  0  0  0
  3  5  1  0  0  0
  4 22  1  0  0  0
 22 23  1  0  0  0
 23 25  1  0  0  0
 36 35  1  0  0  0
 36 32  2  0  0  0
 24 25  2  0  0  0
 31 32  1  0  0  0
 31 30  1  0  0  0
 35 34  1  0  0  0
 25 28  1  0  0  0
 25 26  1  0  0  0
 28 30  1  0  0  0
 32 33  1  0  0  0
 34 33  2  0  0  0
 34 40  1  0  0  0
 33 37  1  0  0  0
 40 39  2  0  0  0
 37 38  2  0  0  0
 39 38  1  0  0  0
 28 29  1  0  0  0
 26 27  1  0  0  0
  5  8  1  0  0  0
  6  9  1  0  0  0
 19 20  1  0  0  0
 19 21  1  0  0  0
 35 41  1  0  0  0
M  END
> <minimizedAffinity>
-10.33458

$$$$
5KLY_6UR_A_201


 41 45  0  0  0  0  0  0  0  0999 V2000
  -30.9609    8.1347  -25.2773 C   0  0  0  0  0  0  0  0  0  0  0  0
  -29.7977    8.0439  -26.2465 C   0  0  0  0  0  0  0  0  0  0  0  0
  -30.2271    9.0288  -27.3327 C   0  0  0  0  0  0  0  0  0  0  0  0
  -31.7510    9.1106  -27.1579 C   0  0  0  0  0  0  0  0  0  0  0  0
  -29.6274   10.3330  -27.1933 O   0  0  0  0  0  0  0  0  0  0  0  0
  -28.5469    8.3432  -25.6124 O   0  0  0  0  0  0  0  0  0  0  0  0
  -32.0956    8.1974  -26.1236 O   0  0  0  0  0  0  0  0  0  0  0  0
  -29.8630   10.7066  -26.3297 H   0  0  0  0  0  0  0  0  0  0  0  0
  -28.5923    9.2233  -25.2070 H   0  0  0  0  0  0  0  0  0  0  0  0
  -30.7960    3.8412  -26.2537 C   0  0  0  0  0  0  0  0  0  0  0  0
  -31.0229    5.7065  -24.8932 C   0  0  0  0  0  0  0  0  0  0  0  0
  -31.2093    4.8490  -23.7253 C   0  0  0  0  0  0  0  0  0  0  0  0
  -31.1712    3.4020  -23.9645 C   0  0  0  0  0  0  0  0  0  0  0  0
  -30.9648    2.9795  -25.2307 N   0  0  0  0  0  0  0  0  0  0  0  0
  -30.8240    5.1804  -26.1252 N   0  0  0  0  0  0  0  0  0  0  0  0
  -31.3108    6.9336  -23.1028 C   0  0  0  0  0  0  0  0  0  0  0  0
  -31.1108    6.9441  -24.4328 N   0  0  0  0  0  0  0  0  0  0  0  0
  -31.3879    5.6550  -22.6596 N   0  0  0  0  0  0  0  0  0  0  0  0
  -31.3382    2.5320  -22.9353 N   0  0  0  0  0  0  0  0  0  0  0  0
  -31.3117    1.5620  -23.1015 H   0  0  0  0  0  0  0  0  0  0  0  0
  -31.4857    2.8713  -22.0230 H   0  0  0  0  0  0  0  0  0  0  0  0
  -32.5291    8.7061  -28.3929 C   0  0  0  0  0  0  0  0  0  0  0  0
  -31.5977    8.1248  -29.2942 O   0  0  0  0  0  0  0  0  0  0  0  0
  -32.8118    5.8962  -28.9954 O   0  0  0  0  0  0  0  0  0  0  0  0
  -31.6533    6.5725  -29.6899 P   0  0  0  0  0  0  0  0  0  0  0  0
  -31.6207    6.5550  -31.1841 O   0  0  0  0  0  0  0  0  0  0  0  0
  -32.4500    6.9205  -31.5299 H   0  0  0  0  0  0  0  0  0  0  0  0
  -30.1702    5.9188  -29.0565 N   0  0  0  0  0  0  0  0  0  0  0  0
  -30.3361    4.9365  -28.8379 H   0  0  0  0  0  0  0  0  0  0  0  0
  -28.9950    5.9847  -29.9154 C   0  0  0  0  0  0  0  0  0  0  0  0
  -28.7046    4.6981  -30.6809 C   0  0  0  0  0  0  0  0  0  0  0  0
  -27.6485    4.8601  -31.7507 C   0  0  0  0  0  0  0  0  0  0  0  0
  -27.8314    4.7960  -33.2186 C   0  0  0  0  0  0  0  0  0  0  0  0
  -26.5009    5.0421  -33.8070 C   0  0  0  0  0  0  0  0  0  0  0  0
  -25.6572    5.2349  -32.7763 N   0  0  0  0  0  0  0  0  0  0  0  0
  -26.2965    5.1418  -31.5742 C   0  0  0  0  0  0  0  0  0  0  0  0
  -28.9380    4.5457  -34.0150 C   0  0  0  0  0  0  0  0  0  0  0  0
  -28.7581    4.5492  -35.4001 C   0  0  0  0  0  0  0  0  0  0  0  0
  -27.5023    4.7819  -35.9712 C   0  0  0  0  0  0  0  0  0  0  0  0
  -26.3736    5.0266  -35.1929 C   0  0  0  0  0  0  0  0  0  0  0  0
  -24.6956    5.4205  -32.8773 H   0  0  0  0  0  0  0  0  0  0  0  0
 19 13  1  0  0  0
 13 14  2  0  0  0
 13 12  1  0  0  0
 14 10  1  0  0  0
 12 18  1  0  0  0
 12 11  2  0  0  0
 10 15  2  0  0  0
 18 16  2  0  0  0
 15 11  1  0  0  0
 11 17  1  0  0  0
 16 17  1  0  0  0
 17  1  1  0  0  0
  1  2  1  0  0  0
  1  7  1  0  0  0
  6  2  1  0  0  0
  2  3  1  0  0  0
  7  4  1  0  0  0
  3  4  1  0  0  0
  3  5  1  0  0  0
  4 22  1  0  0  0
 22 23  1  0  0  0
 23 25  1  0  0  0
 36 35  1  0  0  0
 36 32  2  0  0  0
 24 25  2  0  0  0
 31 32  1  0  0  0
 31 30  1  0  0  0
 35 34  1  0  0  0
 25 28  1  0  0  0
 25 26  1  0  0  0
 28 30  1  0  0  0
 32 33  1  0  0  0
 34 33  2  0  0  0
 34 40  1  0  0  0
 33 37  1  0  0  0
 40 39  2  0  0  0
 37 38  2  0  0  0
 39 38  1  0  0  0
 28 29  1  0  0  0
 26 27  1  0  0  0
  5  8  1  0  0  0
  6  9  1  0  0  0
 19 20  1  0  0  0
 19 21  1  0  0  0
 35 41  1  0  0  0
M  END
> <minimizedAffinity>
-9.53529

$$$$
5KLY_6UR_A_201


 41 45  0  0  0  0  0  0  0  0999 V2000
  -31.2744    8.0609  -26.5132 C   0  0  0  0  0  0  0  0  0  0  0  0
  -29.8736    7.5618  -26.8116 C   0  0  0  0  0  0  0  0  0  0  0  0
  -29.9821    7.2150  -28.2956 C   0  0  0  0  0  0  0  0  0  0  0  0
  -31.4903    7.0131  -28.5054 C   0  0  0  0  0  0  0  0  0  0  0  0
  -29.4809    8.2514  -29.1644 O   0  0  0  0  0  0  0  0  0  0  0  0
  -28.8757    8.5385  -26.4854 O   0  0  0  0  0  0  0  0  0  0  0  0
  -32.1066    7.1682  -27.2332 O   0  0  0  0  0  0  0  0  0  0  0  0
  -29.9716    9.0727  -29.0044 H   0  0  0  0  0  0  0  0  0  0  0  0
  -29.0598    9.3614  -26.9647 H   0  0  0  0  0  0  0  0  0  0  0  0
  -34.2226   10.2779  -24.1034 C   0  0  0  0  0  0  0  0  0  0  0  0
  -32.5709    8.7045  -24.5252 C   0  0  0  0  0  0  0  0  0  0  0  0
  -32.6250    8.2553  -23.1362 C   0  0  0  0  0  0  0  0  0  0  0  0
  -33.5811    8.9454  -22.2631 C   0  0  0  0  0  0  0  0  0  0  0  0
  -34.3318    9.9284  -22.8060 N   0  0  0  0  0  0  0  0  0  0  0  0
  -33.3684    9.7044  -24.9707 N   0  0  0  0  0  0  0  0  0  0  0  0
  -31.1372    7.0803  -24.2082 C   0  0  0  0  0  0  0  0  0  0  0  0
  -31.6421    7.9548  -25.0966 N   0  0  0  0  0  0  0  0  0  0  0  0
  -31.7211    7.2647  -22.9990 N   0  0  0  0  0  0  0  0  0  0  0  0
  -33.6949    8.5931  -20.9567 N   0  0  0  0  0  0  0  0  0  0  0  0
  -34.3381    9.0595  -20.3753 H   0  0  0  0  0  0  0  0  0  0  0  0
  -33.1341    7.8713  -20.5908 H   0  0  0  0  0  0  0  0  0  0  0  0
  -31.8557    5.6351  -29.0173 C   0  0  0  0  0  0  0  0  0  0  0  0
  -33.1569    5.7360  -29.5783 O   0  0  0  0  0  0  0  0  0  0  0  0
  -33.8280    4.3754  -31.6346 O   0  0  0  0  0  0  0  0  0  0  0  0
  -33.4009    5.7453  -31.1624 P   0  0  0  0  0  0  0  0  0  0  0  0
  -34.3277    6.8932  -31.4022 O   0  0  0  0  0  0  0  0  0  0  0  0
  -35.1985    6.6896  -31.0265 H   0  0  0  0  0  0  0  0  0  0  0  0
  -31.8340    6.0981  -31.8321 N   0  0  0  0  0  0  0  0  0  0  0  0
  -31.1833    6.2012  -31.0534 H   0  0  0  0  0  0  0  0  0  0  0  0
  -31.2681    5.1182  -32.7500 C   0  0  0  0  0  0  0  0  0  0  0  0
  -30.3369    4.1060  -32.0911 C   0  0  0  0  0  0  0  0  0  0  0  0
  -28.8774    4.4934  -32.1666 C   0  0  0  0  0  0  0  0  0  0  0  0
  -28.0325    4.6023  -33.3776 C   0  0  0  0  0  0  0  0  0  0  0  0
  -26.7017    5.0347  -32.9095 C   0  0  0  0  0  0  0  0  0  0  0  0
  -26.7908    5.1655  -31.5729 N   0  0  0  0  0  0  0  0  0  0  0  0
  -28.0415    4.8649  -31.1169 C   0  0  0  0  0  0  0  0  0  0  0  0
  -28.2829    4.3621  -34.7196 C   0  0  0  0  0  0  0  0  0  0  0  0
  -27.2359    4.5583  -35.6231 C   0  0  0  0  0  0  0  0  0  0  0  0
  -25.9696    4.9688  -35.1929 C   0  0  0  0  0  0  0  0  0  0  0  0
  -25.6900    5.2076  -33.8496 C   0  0  0  0  0  0  0  0  0  0  0  0
  -26.0445    5.4441  -30.9945 H   0  0  0  0  0  0  0  0  0  0  0  0
 19 13  1  0  0  0
 13 14  2  0  0  0
 13 12  1  0  0  0
 14 10  1  0  0  0
 12 18  1  0  0  0
 12 11  2  0  0  0
 10 15  2  0  0  0
 18 16  2  0  0  0
 15 11  1  0  0  0
 11 17  1  0  0  0
 16 17  1  0  0  0
 17  1  1  0  0  0
  1  2  1  0  0  0
  1  7  1  0  0  0
  6  2  1  0  0  0
  2  3  1  0  0  0
  7  4  1  0  0  0
  3  4  1  0  0  0
  3  5  1  0  0  0
  4 22  1  0  0  0
 22 23  1  0  0  0
 23 25  1  0  0  0
 36 35  1  0  0  0
 36 32  2  0  0  0
 24 25  2  0  0  0
 31 32  1  0  0  0
 31 30  1  0  0  0
 35 34  1  0  0  0
 25 28  1  0  0  0
 25 26  1  0  0  0
 28 30  1  0  0  0
 32 33  1  0  0  0
 34 33  2  0  0  0
 34 40  1  0  0  0
 33 37  1  0  0  0
 40 39  2  0  0  0
 37 38  2  0  0  0
 39 38  1  0  0  0
 28 29  1  0  0  0
 26 27  1  0  0  0
  5  8  1  0  0  0
  6  9  1  0  0  0
 19 20  1  0  0  0
 19 21  1  0  0  0
 35 41  1  0  0  0
M  END
> <minimizedAffinity>
-9.13882

$$$$
5KLY_6UR_A_201


 41 45  0  0  0  0  0  0  0  0999 V2000
  -32.9110    9.0721  -26.2186 C   0  0  0  0  0  0  0  0  0  0  0  0
  -31.6407    9.7282  -26.7250 C   0  0  0  0  0  0  0  0  0  0  0  0
  -31.6415    9.3040  -28.1928 C   0  0  0  0  0  0  0  0  0  0  0  0
  -32.5345    8.0542  -28.2024 C   0  0  0  0  0  0  0  0  0  0  0  0
  -32.1665   10.3123  -29.0804 O   0  0  0  0  0  0  0  0  0  0  0  0
  -31.6422   11.1443  -26.4999 O   0  0  0  0  0  0  0  0  0  0  0  0
  -32.9072    7.8050  -26.8528 O   0  0  0  0  0  0  0  0  0  0  0  0
  -33.0764   10.5279  -28.8226 H   0  0  0  0  0  0  0  0  0  0  0  0
  -32.4250   11.5371  -26.9168 H   0  0  0  0  0  0  0  0  0  0  0  0
  -35.4060   10.7492  -22.9973 C   0  0  0  0  0  0  0  0  0  0  0  0
  -33.7457    9.4263  -23.9328 C   0  0  0  0  0  0  0  0  0  0  0  0
  -33.4102    8.8918  -22.6152 C   0  0  0  0  0  0  0  0  0  0  0  0
  -34.1938    9.4016  -21.4845 C   0  0  0  0  0  0  0  0  0  0  0  0
  -35.1567   10.3119  -21.7467 N   0  0  0  0  0  0  0  0  0  0  0  0
  -34.7318   10.3415  -24.0882 N   0  0  0  0  0  0  0  0  0  0  0  0
  -32.1098    7.9813  -24.1063 C   0  0  0  0  0  0  0  0  0  0  0  0
  -32.9083    8.8360  -24.7704 N   0  0  0  0  0  0  0  0  0  0  0  0
  -32.3977    8.0177  -22.7823 N   0  0  0  0  0  0  0  0  0  0  0  0
  -33.9464    8.9605  -20.2243 N   0  0  0  0  0  0  0  0  0  0  0  0
  -34.4753    9.3060  -19.4691 H   0  0  0  0  0  0  0  0  0  0  0  0
  -33.2382    8.2953  -20.0657 H   0  0  0  0  0  0  0  0  0  0  0  0
  -31.8372    6.8104  -28.7135 C   0  0  0  0  0  0  0  0  0  0  0  0
  -31.3353    6.1231  -27.5761 O   0  0  0  0  0  0  0  0  0  0  0  0
  -29.3028    7.1373  -26.4054 O   0  0  0  0  0  0  0  0  0  0  0  0
  -29.7643    5.9981  -27.2836 P   0  0  0  0  0  0  0  0  0  0  0  0
  -29.5760    4.6024  -26.7830 O   0  0  0  0  0  0  0  0  0  0  0  0
  -29.9903    4.5132  -25.9105 H   0  0  0  0  0  0  0  0  0  0  0  0
  -29.0250    6.1716  -28.8493 N   0  0  0  0  0  0  0  0  0  0  0  0
  -28.1460    6.6726  -28.7202 H   0  0  0  0  0  0  0  0  0  0  0  0
  -28.7289    4.9481  -29.5832 C   0  0  0  0  0  0  0  0  0  0  0  0
  -27.6006    5.0841  -30.6001 C   0  0  0  0  0  0  0  0  0  0  0  0
  -28.0637    4.9528  -32.0334 C   0  0  0  0  0  0  0  0  0  0  0  0
  -27.2386    5.0281  -33.2605 C   0  0  0  0  0  0  0  0  0  0  0  0
  -28.1645    4.8130  -34.3890 C   0  0  0  0  0  0  0  0  0  0  0  0
  -29.3843    4.6259  -33.8519 N   0  0  0  0  0  0  0  0  0  0  0  0
  -29.3538    4.6949  -32.4893 C   0  0  0  0  0  0  0  0  0  0  0  0
  -25.8889    5.2655  -33.4691 C   0  0  0  0  0  0  0  0  0  0  0  0
  -25.4258    5.2792  -34.7868 C   0  0  0  0  0  0  0  0  0  0  0  0
  -26.2926    5.0759  -35.8659 C   0  0  0  0  0  0  0  0  0  0  0  0
  -27.6539    4.8448  -35.6834 C   0  0  0  0  0  0  0  0  0  0  0  0
  -30.1996    4.4594  -34.3781 H   0  0  0  0  0  0  0  0  0  0  0  0
 19 13  1  0  0  0
 13 14  2  0  0  0
 13 12  1  0  0  0
 14 10  1  0  0  0
 12 18  1  0  0  0
 12 11  2  0  0  0
 10 15  2  0  0  0
 18 16  2  0  0  0
 15 11  1  0  0  0
 11 17  1  0  0  0
 16 17  1  0  0  0
 17  1  1  0  0  0
  1  2  1  0  0  0
  1  7  1  0  0  0
  6  2  1  0  0  0
  2  3  1  0  0  0
  7  4  1  0  0  0
  3  4  1  0  0  0
  3  5  1  0  0  0
  4 22  1  0  0  0
 22 23  1  0  0  0
 23 25  1  0  0  0
 36 35  1  0  0  0
 36 32  2  0  0  0
 24 25  2  0  0  0
 31 32  1  0  0  0
 31 30  1  0  0  0
 35 34  1  0  0  0
 25 28  1  0  0  0
 25 26  1  0  0  0
 28 30  1  0  0  0
 32 33  1  0  0  0
 34 33  2  0  0  0
 34 40  1  0  0  0
 33 37  1  0  0  0
 40 39  2  0  0  0
 37 38  2  0  0  0
 39 38  1  0  0  0
 28 29  1  0  0  0
 26 27  1  0  0  0
  5  8  1  0  0  0
  6  9  1  0  0  0
 19 20  1  0  0  0
 19 21  1  0  0  0
 35 41  1  0  0  0
M  END
> <minimizedAffinity>
-9.11509

$$$$
5KLY_6UR_A_201


 41 45  0  0  0  0  0  0  0  0999 V2000
  -33.1706    9.2025  -26.7087 C   0  0  0  0  0  0  0  0  0  0  0  0
  -31.8157    9.7470  -27.1191 C   0  0  0  0  0  0  0  0  0  0  0  0
  -31.6197    9.0842  -28.4817 C   0  0  0  0  0  0  0  0  0  0  0  0
  -32.5495    7.8630  -28.4214 C   0  0  0  0  0  0  0  0  0  0  0  0
  -31.9706    9.9378  -29.5899 O   0  0  0  0  0  0  0  0  0  0  0  0
  -31.7950   11.1807  -27.1301 O   0  0  0  0  0  0  0  0  0  0  0  0
  -33.1237    7.8475  -27.1204 O   0  0  0  0  0  0  0  0  0  0  0  0
  -32.8993   10.2062  -29.5098 H   0  0  0  0  0  0  0  0  0  0  0  0
  -32.4931   11.5096  -27.7179 H   0  0  0  0  0  0  0  0  0  0  0  0
  -31.3518    6.8111  -23.4857 C   0  0  0  0  0  0  0  0  0  0  0  0
  -32.7402    8.4191  -24.4178 C   0  0  0  0  0  0  0  0  0  0  0  0
  -33.2421    8.7736  -23.0924 C   0  0  0  0  0  0  0  0  0  0  0  0
  -32.6887    8.0207  -21.9613 C   0  0  0  0  0  0  0  0  0  0  0  0
  -31.7653    7.0720  -22.2293 N   0  0  0  0  0  0  0  0  0  0  0  0
  -31.8113    7.4467  -24.5791 N   0  0  0  0  0  0  0  0  0  0  0  0
  -34.2174   10.0268  -24.5831 C   0  0  0  0  0  0  0  0  0  0  0  0
  -33.3875    9.2110  -25.2575 N   0  0  0  0  0  0  0  0  0  0  0  0
  -34.1483    9.7580  -23.2563 N   0  0  0  0  0  0  0  0  0  0  0  0
  -33.1015    8.2837  -20.6947 N   0  0  0  0  0  0  0  0  0  0  0  0
  -32.7268    7.7755  -19.9394 H   0  0  0  0  0  0  0  0  0  0  0  0
  -33.7755    8.9826  -20.5318 H   0  0  0  0  0  0  0  0  0  0  0  0
  -31.8341    6.5418  -28.6131 C   0  0  0  0  0  0  0  0  0  0  0  0
  -31.2646    6.1961  -27.3585 O   0  0  0  0  0  0  0  0  0  0  0  0
  -29.2193    7.4345  -26.4567 O   0  0  0  0  0  0  0  0  0  0  0  0
  -29.6791    6.1605  -27.1257 P   0  0  0  0  0  0  0  0  0  0  0  0
  -29.4220    4.8652  -26.4257 O   0  0  0  0  0  0  0  0  0  0  0  0
  -29.7950    4.9016  -25.5310 H   0  0  0  0  0  0  0  0  0  0  0  0
  -29.0144    6.1083  -28.7331 N   0  0  0  0  0  0  0  0  0  0  0  0
  -28.0280    6.3591  -28.6659 H   0  0  0  0  0  0  0  0  0  0  0  0
  -29.0971    4.8398  -29.4451 C   0  0  0  0  0  0  0  0  0  0  0  0
  -29.3490    4.9764  -30.9430 C   0  0  0  0  0  0  0  0  0  0  0  0
  -28.0827    4.9684  -31.7690 C   0  0  0  0  0  0  0  0  0  0  0  0
  -27.9642    4.8603  -33.2409 C   0  0  0  0  0  0  0  0  0  0  0  0
  -26.5210    4.9257  -33.5404 C   0  0  0  0  0  0  0  0  0  0  0  0
  -25.8917    5.0661  -32.3589 N   0  0  0  0  0  0  0  0  0  0  0  0
  -26.7725    5.1006  -31.3170 C   0  0  0  0  0  0  0  0  0  0  0  0
  -28.9041    4.7034  -34.2477 C   0  0  0  0  0  0  0  0  0  0  0  0
  -28.4424    4.6246  -35.5636 C   0  0  0  0  0  0  0  0  0  0  0  0
  -27.0768    4.6860  -35.8615 C   0  0  0  0  0  0  0  0  0  0  0  0
  -26.1124    4.8340  -34.8677 C   0  0  0  0  0  0  0  0  0  0  0  0
  -24.9148    5.1355  -32.2585 H   0  0  0  0  0  0  0  0  0  0  0  0
 19 13  1  0  0  0
 13 14  2  0  0  0
 13 12  1  0  0  0
 14 10  1  0  0  0
 12 18  1  0  0  0
 12 11  2  0  0  0
 10 15  2  0  0  0
 18 16  2  0  0  0
 15 11  1  0  0  0
 11 17  1  0  0  0
 16 17  1  0  0  0
 17  1  1  0  0  0
  1  2  1  0  0  0
  1  7  1  0  0  0
  6  2  1  0  0  0
  2  3  1  0  0  0
  7  4  1  0  0  0
  3  4  1  0  0  0
  3  5  1  0  0  0
  4 22  1  0  0  0
 22 23  1  0  0  0
 23 25  1  0  0  0
 36 35  1  0  0  0
 36 32  2  0  0  0
 24 25  2  0  0  0
 31 32  1  0  0  0
 31 30  1  0  0  0
 35 34  1  0  0  0
 25 28  1  0  0  0
 25 26  1  0  0  0
 28 30  1  0  0  0
 32 33  1  0  0  0
 34 33  2  0  0  0
 34 40  1  0  0  0
 33 37  1  0  0  0
 40 39  2  0  0  0
 37 38  2  0  0  0
 39 38  1  0  0  0
 28 29  1  0  0  0
 26 27  1  0  0  0
  5  8  1  0  0  0
  6  9  1  0  0  0
 19 20  1  0  0  0
 19 21  1  0  0  0
 35 41  1  0  0  0
M  END
> <minimizedAffinity>
-9.09607

$$$$
5KLY_6UR_A_201


 41 45  0  0  0  0  0  0  0  0999 V2000
  -33.3222    8.7936  -24.2061 C   0  0  0  0  0  0  0  0  0  0  0  0
  -32.5840    7.4786  -24.0436 C   0  0  0  0  0  0  0  0  0  0  0  0
  -31.6051    7.5304  -25.2155 C   0  0  0  0  0  0  0  0  0  0  0  0
  -32.2620    8.5242  -26.1853 C   0  0  0  0  0  0  0  0  0  0  0  0
  -30.2865    7.9792  -24.8415 O   0  0  0  0  0  0  0  0  0  0  0  0
  -31.9789    7.3600  -22.7490 O   0  0  0  0  0  0  0  0  0  0  0  0
  -33.5052    8.9019  -25.6071 O   0  0  0  0  0  0  0  0  0  0  0  0
  -30.3452    8.8653  -24.4511 H   0  0  0  0  0  0  0  0  0  0  0  0
  -31.3844    8.1119  -22.5998 H   0  0  0  0  0  0  0  0  0  0  0  0
  -34.6006    9.5205  -20.0526 C   0  0  0  0  0  0  0  0  0  0  0  0
  -34.8651    9.0456  -22.3079 C   0  0  0  0  0  0  0  0  0  0  0  0
  -36.3135    8.9659  -22.1352 C   0  0  0  0  0  0  0  0  0  0  0  0
  -36.8232    9.1931  -20.7784 C   0  0  0  0  0  0  0  0  0  0  0  0
  -35.9245    9.4596  -19.8059 N   0  0  0  0  0  0  0  0  0  0  0  0
  -34.0479    9.3180  -21.2627 N   0  0  0  0  0  0  0  0  0  0  0  0
  -35.8226    8.5909  -24.2238 C   0  0  0  0  0  0  0  0  0  0  0  0
  -34.6539    8.7950  -23.5901 N   0  0  0  0  0  0  0  0  0  0  0  0
  -36.8463    8.6782  -23.3397 N   0  0  0  0  0  0  0  0  0  0  0  0
  -38.1565    9.1350  -20.5279 N   0  0  0  0  0  0  0  0  0  0  0  0
  -38.4931    9.2883  -19.6155 H   0  0  0  0  0  0  0  0  0  0  0  0
  -38.7866    8.9397  -21.2587 H   0  0  0  0  0  0  0  0  0  0  0  0
  -32.5601    7.9383  -27.5498 C   0  0  0  0  0  0  0  0  0  0  0  0
  -31.6879    6.8303  -27.7216 O   0  0  0  0  0  0  0  0  0  0  0  0
  -30.4410    8.1049  -29.5521 O   0  0  0  0  0  0  0  0  0  0  0  0
  -30.3585    6.9253  -28.6121 P   0  0  0  0  0  0  0  0  0  0  0  0
  -29.2333    6.8858  -27.6291 O   0  0  0  0  0  0  0  0  0  0  0  0
  -29.2312    7.7033  -27.1070 H   0  0  0  0  0  0  0  0  0  0  0  0
  -30.3734    5.4633  -29.5557 N   0  0  0  0  0  0  0  0  0  0  0  0
  -31.1531    4.8936  -29.2273 H   0  0  0  0  0  0  0  0  0  0  0  0
  -30.5115    5.6059  -30.9992 C   0  0  0  0  0  0  0  0  0  0  0  0
  -29.8627    4.4856  -31.8052 C   0  0  0  0  0  0  0  0  0  0  0  0
  -28.3954    4.7185  -32.0857 C   0  0  0  0  0  0  0  0  0  0  0  0
  -27.7323    4.8192  -33.4057 C   0  0  0  0  0  0  0  0  0  0  0  0
  -26.3057    5.0732  -33.1278 C   0  0  0  0  0  0  0  0  0  0  0  0
  -26.1800    5.1205  -31.7886 N   0  0  0  0  0  0  0  0  0  0  0  0
  -27.3757    4.9251  -31.1605 C   0  0  0  0  0  0  0  0  0  0  0  0
  -28.2051    4.7002  -34.7034 C   0  0  0  0  0  0  0  0  0  0  0  0
  -27.2878    4.8446  -35.7468 C   0  0  0  0  0  0  0  0  0  0  0  0
  -25.9326    5.0865  -35.4973 C   0  0  0  0  0  0  0  0  0  0  0  0
  -25.4313    5.2009  -34.2030 C   0  0  0  0  0  0  0  0  0  0  0  0
  -25.3289    5.2771  -31.3192 H   0  0  0  0  0  0  0  0  0  0  0  0
 19 13  1  0  0  0
 13 14  2  0  0  0
 13 12  1  0  0  0
 14 10  1  0  0  0
 12 18  1  0  0  0
 12 11  2  0  0  0
 10 15  2  0  0  0
 18 16  2  0  0  0
 15 11  1  0  0  0
 11 17  1  0  0  0
 16 17  1  0  0  0
 17  1  1  0  0  0
  1  2  1  0  0  0
  1  7  1  0  0  0
  6  2  1  0  0  0
  2  3  1  0  0  0
  7  4  1  0  0  0
  3  4  1  0  0  0
  3  5  1  0  0  0
  4 22  1  0  0  0
 22 23  1  0  0  0
 23 25  1  0  0  0
 36 35  1  0  0  0
 36 32  2  0  0  0
 24 25  2  0  0  0
 31 32  1  0  0  0
 31 30  1  0  0  0
 35 34  1  0  0  0
 25 28  1  0  0  0
 25 26  1  0  0  0
 28 30  1  0  0  0
 32 33  1  0  0  0
 34 33  2  0  0  0
 34 40  1  0  0  0
 33 37  1  0  0  0
 40 39  2  0  0  0
 37 38  2  0  0  0
 39 38  1  0  0  0
 28 29  1  0  0  0
 26 27  1  0  0  0
  5  8  1  0  0  0
  6  9  1  0  0  0
 19 20  1  0  0  0
 19 21  1  0  0  0
 35 41  1  0  0  0
M  END
> <minimizedAffinity>
-9.00622

$$$$
5KLY_6UR_A_201


 41 45  0  0  0  0  0  0  0  0999 V2000
  -30.2655    6.5720  -27.4013 C   0  0  0  0  0  0  0  0  0  0  0  0
  -29.9012    6.2717  -28.8427 C   0  0  0  0  0  0  0  0  0  0  0  0
  -30.4113    7.5238  -29.5543 C   0  0  0  0  0  0  0  0  0  0  0  0
  -31.4632    8.0821  -28.5840 C   0  0  0  0  0  0  0  0  0  0  0  0
  -29.3802    8.5005  -29.8053 O   0  0  0  0  0  0  0  0  0  0  0  0
  -28.4999    6.0105  -28.9982 O   0  0  0  0  0  0  0  0  0  0  0  0
  -31.5479    7.1670  -27.4988 O   0  0  0  0  0  0  0  0  0  0  0  0
  -28.9767    8.7680  -28.9647 H   0  0  0  0  0  0  0  0  0  0  0  0
  -27.9911    6.7650  -28.6622 H   0  0  0  0  0  0  0  0  0  0  0  0
  -31.3646    6.0772  -23.1632 C   0  0  0  0  0  0  0  0  0  0  0  0
  -30.7559    5.3988  -25.2965 C   0  0  0  0  0  0  0  0  0  0  0  0
  -30.7910    4.0000  -24.8765 C   0  0  0  0  0  0  0  0  0  0  0  0
  -31.1464    3.7472  -23.4756 C   0  0  0  0  0  0  0  0  0  0  0  0
  -31.4147    4.8148  -22.6928 N   0  0  0  0  0  0  0  0  0  0  0  0
  -31.0408    6.3991  -24.4290 N   0  0  0  0  0  0  0  0  0  0  0  0
  -30.2397    4.0989  -26.9812 C   0  0  0  0  0  0  0  0  0  0  0  0
  -30.4036    5.3696  -26.5718 N   0  0  0  0  0  0  0  0  0  0  0  0
  -30.4598    3.2508  -25.9471 N   0  0  0  0  0  0  0  0  0  0  0  0
  -31.2002    2.4764  -23.0003 N   0  0  0  0  0  0  0  0  0  0  0  0
  -31.4392    2.3125  -22.0594 H   0  0  0  0  0  0  0  0  0  0  0  0
  -31.0003    1.7190  -23.5965 H   0  0  0  0  0  0  0  0  0  0  0  0
  -32.8485    8.1957  -29.1858 C   0  0  0  0  0  0  0  0  0  0  0  0
  -32.9712    7.1480  -30.1373 O   0  0  0  0  0  0  0  0  0  0  0  0
  -34.9516    6.4516  -31.5944 O   0  0  0  0  0  0  0  0  0  0  0  0
  -33.7391    7.3502  -31.5296 P   0  0  0  0  0  0  0  0  0  0  0  0
  -33.9496    8.8257  -31.6422 O   0  0  0  0  0  0  0  0  0  0  0  0
  -34.5889    9.1132  -30.9718 H   0  0  0  0  0  0  0  0  0  0  0  0
  -32.5934    6.8213  -32.7278 N   0  0  0  0  0  0  0  0  0  0  0  0
  -31.6936    7.2445  -32.5005 H   0  0  0  0  0  0  0  0  0  0  0  0
  -32.3827    5.3853  -32.8570 C   0  0  0  0  0  0  0  0  0  0  0  0
  -31.0045    4.9107  -32.4087 C   0  0  0  0  0  0  0  0  0  0  0  0
  -29.9651    4.9603  -33.5056 C   0  0  0  0  0  0  0  0  0  0  0  0
  -28.4922    4.9356  -33.3570 C   0  0  0  0  0  0  0  0  0  0  0  0
  -27.9428    4.9808  -34.7256 C   0  0  0  0  0  0  0  0  0  0  0  0
  -28.9984    5.0172  -35.5598 N   0  0  0  0  0  0  0  0  0  0  0  0
  -30.1818    4.9995  -34.8804 C   0  0  0  0  0  0  0  0  0  0  0  0
  -27.6628    4.9026  -32.2468 C   0  0  0  0  0  0  0  0  0  0  0  0
  -26.2830    4.8972  -32.4642 C   0  0  0  0  0  0  0  0  0  0  0  0
  -25.7489    4.9389  -33.7565 C   0  0  0  0  0  0  0  0  0  0  0  0
  -26.5605    4.9819  -34.8875 C   0  0  0  0  0  0  0  0  0  0  0  0
  -28.9256    5.0523  -36.5410 H   0  0  0  0  0  0  0  0  0  0  0  0
 19 13  1  0  0  0
 13 14  2  0  0  0
 13 12  1  0  0  0
 14 10  1  0  0  0
 12 18  1  0  0  0
 12 11  2  0  0  0
 10 15  2  0  0  0
 18 16  2  0  0  0
 15 11  1  0  0  0
 11 17  1  0  0  0
 16 17  1  0  0  0
 17  1  1  0  0  0
  1  2  1  0  0  0
  1  7  1  0  0  0
  6  2  1  0  0  0
  2  3  1  0  0  0
  7  4  1  0  0  0
  3  4  1  0  0  0
  3  5  1  0  0  0
  4 22  1  0  0  0
 22 23  1  0  0  0
 23 25  1  0  0  0
 36 35  1  0  0  0
 36 32  2  0  0  0
 24 25  2  0  0  0
 31 32  1  0  0  0
 31 30  1  0  0  0
 35 34  1  0  0  0
 25 28  1  0  0  0
 25 26  1  0  0  0
 28 30  1  0  0  0
 32 33  1  0  0  0
 34 33  2  0  0  0
 34 40  1  0  0  0
 33 37  1  0  0  0
 40 39  2  0  0  0
 37 38  2  0  0  0
 39 38  1  0  0  0
 28 29  1  0  0  0
 26 27  1  0  0  0
  5  8  1  0  0  0
  6  9  1  0  0  0
 19 20  1  0  0  0
 19 21  1  0  0  0
 35 41  1  0  0  0
M  END
> <minimizedAffinity>
-8.78366

$$$$
5KLY_6UR_A_201


 41 45  0  0  0  0  0  0  0  0999 V2000
  -32.1345    8.6029  -28.6901 C   0  0  0  0  0  0  0  0  0  0  0  0
  -32.9383    8.0769  -27.5164 C   0  0  0  0  0  0  0  0  0  0  0  0
  -32.0759    8.5159  -26.3340 C   0  0  0  0  0  0  0  0  0  0  0  0
  -30.6849    8.7046  -26.9576 C   0  0  0  0  0  0  0  0  0  0  0  0
  -32.5283    9.7387  -25.7175 O   0  0  0  0  0  0  0  0  0  0  0  0
  -34.2793    8.5848  -27.5143 O   0  0  0  0  0  0  0  0  0  0  0  0
  -30.7931    8.3289  -28.3249 O   0  0  0  0  0  0  0  0  0  0  0  0
  -32.5316   10.4508  -26.3761 H   0  0  0  0  0  0  0  0  0  0  0  0
  -34.2577    9.5546  -27.5128 H   0  0  0  0  0  0  0  0  0  0  0  0
  -31.9501    9.9396  -32.8846 C   0  0  0  0  0  0  0  0  0  0  0  0
  -32.2871    8.4485  -31.1397 C   0  0  0  0  0  0  0  0  0  0  0  0
  -32.6175    7.3895  -32.0903 C   0  0  0  0  0  0  0  0  0  0  0  0
  -32.5825    7.7529  -33.5113 C   0  0  0  0  0  0  0  0  0  0  0  0
  -32.2472    9.0227  -33.8272 N   0  0  0  0  0  0  0  0  0  0  0  0
  -31.9651    9.6945  -31.5616 N   0  0  0  0  0  0  0  0  0  0  0  0
  -32.7445    6.5958  -30.0660 C   0  0  0  0  0  0  0  0  0  0  0  0
  -32.4000    7.8904  -29.9451 N   0  0  0  0  0  0  0  0  0  0  0  0
  -32.8954    6.2808  -31.3757 N   0  0  0  0  0  0  0  0  0  0  0  0
  -32.8787    6.8304  -34.4626 N   0  0  0  0  0  0  0  0  0  0  0  0
  -32.8537    7.0796  -35.4147 H   0  0  0  0  0  0  0  0  0  0  0  0
  -33.1183    5.9122  -34.2002 H   0  0  0  0  0  0  0  0  0  0  0  0
  -29.6140    7.8330  -26.3349 C   0  0  0  0  0  0  0  0  0  0  0  0
  -30.2370    6.6073  -25.9779 O   0  0  0  0  0  0  0  0  0  0  0  0
  -29.3180    4.2229  -25.9867 O   0  0  0  0  0  0  0  0  0  0  0  0
  -30.0195    5.2647  -26.8260 P   0  0  0  0  0  0  0  0  0  0  0  0
  -31.3694    4.9338  -27.3756 O   0  0  0  0  0  0  0  0  0  0  0  0
  -31.9570    4.6674  -26.6513 H   0  0  0  0  0  0  0  0  0  0  0  0
  -28.9550    5.7446  -28.1163 N   0  0  0  0  0  0  0  0  0  0  0  0
  -28.0327    5.3594  -27.9130 H   0  0  0  0  0  0  0  0  0  0  0  0
  -29.3167    5.3287  -29.4651 C   0  0  0  0  0  0  0  0  0  0  0  0
  -28.1281    4.9709  -30.3511 C   0  0  0  0  0  0  0  0  0  0  0  0
  -28.4699    4.9167  -31.8229 C   0  0  0  0  0  0  0  0  0  0  0  0
  -27.5342    4.9475  -32.9699 C   0  0  0  0  0  0  0  0  0  0  0  0
  -28.3698    4.8442  -34.1816 C   0  0  0  0  0  0  0  0  0  0  0  0
  -29.6448    4.7545  -33.7597 N   0  0  0  0  0  0  0  0  0  0  0  0
  -29.7312    4.7872  -32.3981 C   0  0  0  0  0  0  0  0  0  0  0  0
  -26.1556    5.0674  -33.0517 C   0  0  0  0  0  0  0  0  0  0  0  0
  -25.5762    5.0716  -34.3227 C   0  0  0  0  0  0  0  0  0  0  0  0
  -26.3567    4.9735  -35.4795 C   0  0  0  0  0  0  0  0  0  0  0  0
  -27.7438    4.8614  -35.4245 C   0  0  0  0  0  0  0  0  0  0  0  0
  -30.4207    4.6749  -34.3604 H   0  0  0  0  0  0  0  0  0  0  0  0
 19 13  1  0  0  0
 13 14  2  0  0  0
 13 12  1  0  0  0
 14 10  1  0  0  0
 12 18  1  0  0  0
 12 11  2  0  0  0
 10 15  2  0  0  0
 18 16  2  0  0  0
 15 11  1  0  0  0
 11 17  1  0  0  0
 16 17  1  0  0  0
 17  1  1  0  0  0
  1  2  1  0  0  0
  1  7  1  0  0  0
  6  2  1  0  0  0
  2  3  1  0  0  0
  7  4  1  0  0  0
  3  4  1  0  0  0
  3  5  1  0  0  0
  4 22  1  0  0  0
 22 23  1  0  0  0
 23 25  1  0  0  0
 36 35  1  0  0  0
 36 32  2  0  0  0
 24 25  2  0  0  0
 31 32  1  0  0  0
 31 30  1  0  0  0
 35 34  1  0  0  0
 25 28  1  0  0  0
 25 26  1  0  0  0
 28 30  1  0  0  0
 32 33  1  0  0  0
 34 33  2  0  0  0
 34 40  1  0  0  0
 33 37  1  0  0  0
 40 39  2  0  0  0
 37 38  2  0  0  0
 39 38  1  0  0  0
 28 29  1  0  0  0
 26 27  1  0  0  0
  5  8  1  0  0  0
  6  9  1  0  0  0
 19 20  1  0  0  0
 19 21  1  0  0  0
 35 41  1  0  0  0
M  END
> <minimizedAffinity>
-8.24854

$$$$
5KLY_6UR_A_201


 41 45  0  0  0  0  0  0  0  0999 V2000
  -32.7662    8.9854  -26.7649 C   0  0  0  0  0  0  0  0  0  0  0  0
  -31.5637    9.8088  -26.3448 C   0  0  0  0  0  0  0  0  0  0  0  0
  -30.4271    8.8035  -26.5238 C   0  0  0  0  0  0  0  0  0  0  0  0
  -31.1398    7.4442  -26.4600 C   0  0  0  0  0  0  0  0  0  0  0  0
  -29.7226    8.9515  -27.7735 O   0  0  0  0  0  0  0  0  0  0  0  0
  -31.4410   11.0110  -27.1167 O   0  0  0  0  0  0  0  0  0  0  0  0
  -32.5119    7.7115  -26.1989 O   0  0  0  0  0  0  0  0  0  0  0  0
  -30.3449    8.8455  -28.5100 H   0  0  0  0  0  0  0  0  0  0  0  0
  -31.3953   10.7868  -28.0593 H   0  0  0  0  0  0  0  0  0  0  0  0
  -34.1294    9.3614  -22.5918 C   0  0  0  0  0  0  0  0  0  0  0  0
  -34.2771    9.5249  -24.9012 C   0  0  0  0  0  0  0  0  0  0  0  0
  -35.6231   10.0817  -24.7894 C   0  0  0  0  0  0  0  0  0  0  0  0
  -36.1548   10.2375  -23.4309 C   0  0  0  0  0  0  0  0  0  0  0  0
  -35.3661    9.8626  -22.4004 N   0  0  0  0  0  0  0  0  0  0  0  0
  -33.5679    9.1777  -23.8009 N   0  0  0  0  0  0  0  0  0  0  0  0
  -35.0769    9.9537  -26.8939 C   0  0  0  0  0  0  0  0  0  0  0  0
  -34.0310    9.4699  -26.2003 N   0  0  0  0  0  0  0  0  0  0  0  0
  -36.0651   10.3181  -26.0407 N   0  0  0  0  0  0  0  0  0  0  0  0
  -37.3991   10.7448  -23.2354 N   0  0  0  0  0  0  0  0  0  0  0  0
  -37.7510   10.8473  -22.3217 H   0  0  0  0  0  0  0  0  0  0  0  0
  -37.9494   11.0102  -24.0075 H   0  0  0  0  0  0  0  0  0  0  0  0
  -30.6377    6.5439  -25.3503 C   0  0  0  0  0  0  0  0  0  0  0  0
  -30.8863    5.2068  -25.7607 O   0  0  0  0  0  0  0  0  0  0  0  0
  -28.4248    4.9019  -26.3757 O   0  0  0  0  0  0  0  0  0  0  0  0
  -29.8176    4.3658  -26.6091 P   0  0  0  0  0  0  0  0  0  0  0  0
  -30.0895    2.9375  -26.2625 O   0  0  0  0  0  0  0  0  0  0  0  0
  -29.8424    2.7764  -25.3384 H   0  0  0  0  0  0  0  0  0  0  0  0
  -30.2569    4.6681  -28.2655 N   0  0  0  0  0  0  0  0  0  0  0  0
  -31.2135    5.0221  -28.2700 H   0  0  0  0  0  0  0  0  0  0  0  0
  -29.4353    5.6148  -29.0084 C   0  0  0  0  0  0  0  0  0  0  0  0
  -28.3566    4.9676  -29.8705 C   0  0  0  0  0  0  0  0  0  0  0  0
  -28.7116    4.9154  -31.3393 C   0  0  0  0  0  0  0  0  0  0  0  0
  -27.7856    4.9377  -32.4944 C   0  0  0  0  0  0  0  0  0  0  0  0
  -28.6326    4.8405  -33.6986 C   0  0  0  0  0  0  0  0  0  0  0  0
  -29.9045    4.7616  -33.2657 N   0  0  0  0  0  0  0  0  0  0  0  0
  -29.9789    4.7959  -31.9034 C   0  0  0  0  0  0  0  0  0  0  0  0
  -26.4069    5.0462  -32.5882 C   0  0  0  0  0  0  0  0  0  0  0  0
  -25.8385    5.0448  -33.8641 C   0  0  0  0  0  0  0  0  0  0  0  0
  -26.6298    4.9525  -35.0141 C   0  0  0  0  0  0  0  0  0  0  0  0
  -28.0173    4.8519  -34.9470 C   0  0  0  0  0  0  0  0  0  0  0  0
  -30.6863    4.6881  -33.8595 H   0  0  0  0  0  0  0  0  0  0  0  0
 19 13  1  0  0  0
 13 14  2  0  0  0
 13 12  1  0  0  0
 14 10  1  0  0  0
 12 18  1  0  0  0
 12 11  2  0  0  0
 10 15  2  0  0  0
 18 16  2  0  0  0
 15 11  1  0  0  0
 11 17  1  0  0  0
 16 17  1  0  0  0
 17  1  1  0  0  0
  1  2  1  0  0  0
  1  7  1  0  0  0
  6  2  1  0  0  0
  2  3  1  0  0  0
  7  4  1  0  0  0
  3  4  1  0  0  0
  3  5  1  0  0  0
  4 22  1  0  0  0
 22 23  1  0  0  0
 23 25  1  0  0  0
 36 35  1  0  0  0
 36 32  2  0  0  0
 24 25  2  0  0  0
 31 32  1  0  0  0
 31 30  1  0  0  0
 35 34  1  0  0  0
 25 28  1  0  0  0
 25 26  1  0  0  0
 28 30  1  0  0  0
 32 33  1  0  0  0
 34 33  2  0  0  0
 34 40  1  0  0  0
 33 37  1  0  0  0
 40 39  2  0  0  0
 37 38  2  0  0  0
 39 38  1  0  0  0
 28 29  1  0  0  0
 26 27  1  0  0  0
  5  8  1  0  0  0
  6  9  1  0  0  0
 19 20  1  0  0  0
 19 21  1  0  0  0
 35 41  1  0  0  0
M  END
> <minimizedAffinity>
-8.21863

$$$$
