5JSS_6NG_E_406


 35 35  0  0  0  0  0  0  0  0999 V2000
   11.4147   38.7569   -4.0814 N   0  0  0  0  0  0  0  0  0  0  0  0
   11.8124   39.6442   -3.7732 H   0  0  0  0  0  0  0  0  0  0  0  0
   10.9916   38.9380   -5.7672 P   0  0  0  0  0  0  0  0  0  0  0  0
   10.8725   40.4154   -6.0701 O   0  0  0  0  0  0  0  0  0  0  0  0
    9.7684   38.1647   -6.1364 O   0  0  0  0  0  0  0  0  0  0  0  0
    9.5745   38.2963   -7.0777 H   0  0  0  0  0  0  0  0  0  0  0  0
   12.4543   38.2702   -6.6094 C   0  0  0  0  0  0  0  0  0  0  0  0
   13.3729   38.0297   -8.8034 C   0  0  0  0  0  0  0  0  0  0  0  0
   12.4070   38.4837   -8.0313 N   0  0  0  0  0  0  0  0  0  0  0  0
   14.3450   37.3916   -8.4342 O   0  0  0  0  0  0  0  0  0  0  0  0
   11.6497   38.9711   -8.4290 H   0  0  0  0  0  0  0  0  0  0  0  0
   13.0508   38.2562  -10.0825 O   0  0  0  0  0  0  0  0  0  0  0  0
   14.1573   38.6103  -10.9868 C   0  0  0  0  0  0  0  0  0  0  0  0
   14.2695   37.9796  -13.4577 C   0  0  0  0  0  0  0  0  0  0  0  0
   14.0978   37.1073  -14.5339 C   0  0  0  0  0  0  0  0  0  0  0  0
   13.6152   35.8162  -14.2896 C   0  0  0  0  0  0  0  0  0  0  0  0
   13.9592   37.6067  -12.1338 C   0  0  0  0  0  0  0  0  0  0  0  0
   13.4753   36.3363  -11.8913 C   0  0  0  0  0  0  0  0  0  0  0  0
   13.3052   35.4535  -12.9692 C   0  0  0  0  0  0  0  0  0  0  0  0
   10.3659   38.4065   -3.1403 C   0  0  0  0  0  0  0  0  0  0  0  0
    9.0617   39.1313   -3.4155 C   0  0  0  0  0  0  0  0  0  0  0  0
    9.0969   40.4624   -3.3944 N   0  0  0  0  0  0  0  0  0  0  0  0
    8.0290   38.4830   -3.5957 O   0  0  0  0  0  0  0  0  0  0  0  0
    9.9532   40.9221   -3.2374 H   0  0  0  0  0  0  0  0  0  0  0  0
    7.8880   41.2488   -3.6001 C   0  0  0  0  0  0  0  0  0  0  0  0
    8.4064   42.5061   -1.4310 C   0  0  0  0  0  0  0  0  0  0  0  0
    7.9778   42.6125   -2.9068 C   0  0  0  0  0  0  0  0  0  0  0  0
    6.6454   43.4210   -3.1056 C   0  0  0  0  0  0  0  0  0  0  0  0
    6.3000   44.2570   -1.8457 C   0  0  0  0  0  0  0  0  0  0  0  0
    5.4201   42.4752   -3.3119 C   0  0  0  0  0  0  0  0  0  0  0  0
    6.7518   44.3638   -4.3218 C   0  0  0  0  0  0  0  0  0  0  0  0
   10.9001   38.8342   -1.7641 C   0  0  0  0  0  0  0  0  0  0  0  0
   10.4547   37.9496   -0.6025 C   0  0  0  0  0  0  0  0  0  0  0  0
    9.8377   36.6457   -1.1193 C   0  0  0  0  0  0  0  0  0  0  0  0
    9.4921   38.7042    0.3055 C   0  0  0  0  0  0  0  0  0  0  0  0
 19 18  2  0  0  0
 19 16  1  0  0  0
 18 17  1  0  0  0
 16 15  2  0  0  0
 17 13  1  0  0  0
 17 14  2  0  0  0
 15 14  1  0  0  0
 13 12  1  0  0  0
 12  8  1  0  0  0
  8 10  2  0  0  0
  8  9  1  0  0  0
  9  7  1  0  0  0
  7  3  1  0  0  0
  4  3  2  0  0  0
  5  3  1  0  0  0
  3  1  1  0  0  0
 30 28  1  0  0  0
 25 22  1  0  0  0
 25 27  1  0  0  0
  1 20  1  0  0  0
 22 21  1  0  0  0
 28 27  1  0  0  0
 28 31  1  0  0  0
 28 29  1  0  0  0
 23 21  2  0  0  0
 21 20  1  0  0  0
 27 26  1  0  0  0
 20 32  1  0  0  0
 32 33  1  0  0  0
 35 33  1  0  0  0
 33 34  1  0  0  0
  1  2  1  0  0  0
 22 24  1  0  0  0
  5  6  1  0  0  0
  9 11  1  0  0  0
M  END
> <minimizedAffinity>
-9.17275

$$$$
5JSS_6NG_E_406


 35 35  0  0  0  0  0  0  0  0999 V2000
   13.6562   41.2768   -8.6100 N   0  0  0  0  0  0  0  0  0  0  0  0
   13.5420   40.2879   -8.8321 H   0  0  0  0  0  0  0  0  0  0  0  0
   12.6646   41.6101   -7.2103 P   0  0  0  0  0  0  0  0  0  0  0  0
   11.8296   42.8373   -7.5020 O   0  0  0  0  0  0  0  0  0  0  0  0
   13.4672   41.7331   -5.9567 O   0  0  0  0  0  0  0  0  0  0  0  0
   12.8754   41.9173   -5.2106 H   0  0  0  0  0  0  0  0  0  0  0  0
   11.5844   40.1530   -7.1429 C   0  0  0  0  0  0  0  0  0  0  0  0
   11.0770   38.7061   -5.3086 C   0  0  0  0  0  0  0  0  0  0  0  0
   11.0687   39.9200   -5.8202 N   0  0  0  0  0  0  0  0  0  0  0  0
   11.5191   37.7047   -5.8473 O   0  0  0  0  0  0  0  0  0  0  0  0
   10.7082   40.6708   -5.2952 H   0  0  0  0  0  0  0  0  0  0  0  0
   10.6507   38.7648   -4.0414 O   0  0  0  0  0  0  0  0  0  0  0  0
    9.4139   38.0297   -3.7287 C   0  0  0  0  0  0  0  0  0  0  0  0
    8.8397   37.0177   -1.4567 C   0  0  0  0  0  0  0  0  0  0  0  0
    8.7915   37.0246   -0.0616 C   0  0  0  0  0  0  0  0  0  0  0  0
    9.3250   38.1187    0.6295 C   0  0  0  0  0  0  0  0  0  0  0  0
    9.3960   38.0838   -2.1928 C   0  0  0  0  0  0  0  0  0  0  0  0
    9.9156   39.1680   -1.5135 C   0  0  0  0  0  0  0  0  0  0  0  0
    9.8740   39.1780   -0.1105 C   0  0  0  0  0  0  0  0  0  0  0  0
   13.4019   42.0228   -9.8296 C   0  0  0  0  0  0  0  0  0  0  0  0
   13.5056   41.1651  -11.0769 C   0  0  0  0  0  0  0  0  0  0  0  0
   13.9150   39.9088  -10.9110 N   0  0  0  0  0  0  0  0  0  0  0  0
   13.2621   41.6591  -12.1796 O   0  0  0  0  0  0  0  0  0  0  0  0
   14.1011   39.5756  -10.0035 H   0  0  0  0  0  0  0  0  0  0  0  0
   14.0918   39.0200  -12.0515 C   0  0  0  0  0  0  0  0  0  0  0  0
   13.1948   37.3566  -10.3243 C   0  0  0  0  0  0  0  0  0  0  0  0
   13.4216   37.6619  -11.8171 C   0  0  0  0  0  0  0  0  0  0  0  0
   14.2032   36.5244  -12.5678 C   0  0  0  0  0  0  0  0  0  0  0  0
   13.2820   35.3146  -12.8734 C   0  0  0  0  0  0  0  0  0  0  0  0
   15.3585   35.9421  -11.6934 C   0  0  0  0  0  0  0  0  0  0  0  0
   14.8005   37.0490  -13.8897 C   0  0  0  0  0  0  0  0  0  0  0  0
   14.4891   43.1084   -9.8721 C   0  0  0  0  0  0  0  0  0  0  0  0
   15.8032   42.7237   -9.1973 C   0  0  0  0  0  0  0  0  0  0  0  0
   16.2653   43.8280   -8.2407 C   0  0  0  0  0  0  0  0  0  0  0  0
   16.8663   42.4045  -10.2405 C   0  0  0  0  0  0  0  0  0  0  0  0
 19 18  2  0  0  0
 19 16  1  0  0  0
 18 17  1  0  0  0
 16 15  2  0  0  0
 17 13  1  0  0  0
 17 14  2  0  0  0
 15 14  1  0  0  0
 13 12  1  0  0  0
 12  8  1  0  0  0
  8 10  2  0  0  0
  8  9  1  0  0  0
  9  7  1  0  0  0
  7  3  1  0  0  0
  4  3  2  0  0  0
  5  3  1  0  0  0
  3  1  1  0  0  0
 30 28  1  0  0  0
 25 22  1  0  0  0
 25 27  1  0  0  0
  1 20  1  0  0  0
 22 21  1  0  0  0
 28 27  1  0  0  0
 28 31  1  0  0  0
 28 29  1  0  0  0
 23 21  2  0  0  0
 21 20  1  0  0  0
 27 26  1  0  0  0
 20 32  1  0  0  0
 32 33  1  0  0  0
 35 33  1  0  0  0
 33 34  1  0  0  0
  1  2  1  0  0  0
 22 24  1  0  0  0
  5  6  1  0  0  0
  9 11  1  0  0  0
M  END
> <minimizedAffinity>
-8.62821

$$$$
5JSS_6NG_E_406


 35 35  0  0  0  0  0  0  0  0999 V2000
   10.3488   39.5611   -4.0951 N   0  0  0  0  0  0  0  0  0  0  0  0
   10.5013   40.5552   -4.2651 H   0  0  0  0  0  0  0  0  0  0  0  0
   10.9891   38.6971   -5.4726 P   0  0  0  0  0  0  0  0  0  0  0  0
    9.8269   38.1457   -6.2686 O   0  0  0  0  0  0  0  0  0  0  0  0
   11.9794   37.6499   -5.0812 O   0  0  0  0  0  0  0  0  0  0  0  0
   12.3051   37.1996   -5.8763 H   0  0  0  0  0  0  0  0  0  0  0  0
   11.7917   40.0194   -6.4224 C   0  0  0  0  0  0  0  0  0  0  0  0
   12.7246   38.7254   -8.2030 C   0  0  0  0  0  0  0  0  0  0  0  0
   11.9135   39.6890   -7.8173 N   0  0  0  0  0  0  0  0  0  0  0  0
   13.4038   38.0247   -7.4708 O   0  0  0  0  0  0  0  0  0  0  0  0
   11.3885   40.1851   -8.4862 H   0  0  0  0  0  0  0  0  0  0  0  0
   12.5823   38.5378   -9.5205 O   0  0  0  0  0  0  0  0  0  0  0  0
   13.6934   38.9915  -10.3733 C   0  0  0  0  0  0  0  0  0  0  0  0
   13.2546   36.6299  -11.2371 C   0  0  0  0  0  0  0  0  0  0  0  0
   13.2217   35.6478  -12.2286 C   0  0  0  0  0  0  0  0  0  0  0  0
   13.5957   35.9893  -13.5335 C   0  0  0  0  0  0  0  0  0  0  0  0
   13.6659   37.9517  -11.5048 C   0  0  0  0  0  0  0  0  0  0  0  0
   14.0431   38.2890  -12.7896 C   0  0  0  0  0  0  0  0  0  0  0  0
   14.0074   37.3065  -13.7915 C   0  0  0  0  0  0  0  0  0  0  0  0
    8.9446   39.3921   -3.7662 C   0  0  0  0  0  0  0  0  0  0  0  0
    8.1785   40.7018   -3.7646 C   0  0  0  0  0  0  0  0  0  0  0  0
    8.8409   41.7869   -4.1613 N   0  0  0  0  0  0  0  0  0  0  0  0
    7.0145   40.7279   -3.3602 O   0  0  0  0  0  0  0  0  0  0  0  0
    9.7730   41.7011   -4.4664 H   0  0  0  0  0  0  0  0  0  0  0  0
    8.2076   43.0987   -4.1509 C   0  0  0  0  0  0  0  0  0  0  0  0
    8.3401   43.9786   -6.5515 C   0  0  0  0  0  0  0  0  0  0  0  0
    7.4478   43.3682   -5.4542 C   0  0  0  0  0  0  0  0  0  0  0  0
    6.1520   44.2110   -5.1728 C   0  0  0  0  0  0  0  0  0  0  0  0
    6.4879   45.7121   -4.9743 C   0  0  0  0  0  0  0  0  0  0  0  0
    5.4543   43.7738   -3.8459 C   0  0  0  0  0  0  0  0  0  0  0  0
    5.1430   44.0697   -6.3311 C   0  0  0  0  0  0  0  0  0  0  0  0
    8.9314   38.7983   -2.3486 C   0  0  0  0  0  0  0  0  0  0  0  0
   10.1568   37.9592   -1.9956 C   0  0  0  0  0  0  0  0  0  0  0  0
    9.7417   36.5508   -1.5574 C   0  0  0  0  0  0  0  0  0  0  0  0
   10.9918   38.6552   -0.9285 C   0  0  0  0  0  0  0  0  0  0  0  0
 19 18  2  0  0  0
 19 16  1  0  0  0
 18 17  1  0  0  0
 16 15  2  0  0  0
 17 13  1  0  0  0
 17 14  2  0  0  0
 15 14  1  0  0  0
 13 12  1  0  0  0
 12  8  1  0  0  0
  8 10  2  0  0  0
  8  9  1  0  0  0
  9  7  1  0  0  0
  7  3  1  0  0  0
  4  3  2  0  0  0
  5  3  1  0  0  0
  3  1  1  0  0  0
 30 28  1  0  0  0
 25 22  1  0  0  0
 25 27  1  0  0  0
  1 20  1  0  0  0
 22 21  1  0  0  0
 28 27  1  0  0  0
 28 31  1  0  0  0
 28 29  1  0  0  0
 23 21  2  0  0  0
 21 20  1  0  0  0
 27 26  1  0  0  0
 20 32  1  0  0  0
 32 33  1  0  0  0
 35 33  1  0  0  0
 33 34  1  0  0  0
  1  2  1  0  0  0
 22 24  1  0  0  0
  5  6  1  0  0  0
  9 11  1  0  0  0
M  END
> <minimizedAffinity>
-7.92560

$$$$
5JSS_6NG_E_406


 35 35  0  0  0  0  0  0  0  0999 V2000
   13.7356   40.6049   -9.1454 N   0  0  0  0  0  0  0  0  0  0  0  0
   14.2514   39.8842   -8.6405 H   0  0  0  0  0  0  0  0  0  0  0  0
   12.3712   41.0562   -8.1511 P   0  0  0  0  0  0  0  0  0  0  0  0
   11.2104   41.3897   -9.0621 O   0  0  0  0  0  0  0  0  0  0  0  0
   12.6989   42.1555   -7.1948 O   0  0  0  0  0  0  0  0  0  0  0  0
   11.9136   42.3700   -6.6673 H   0  0  0  0  0  0  0  0  0  0  0  0
   12.0110   39.5153   -7.2620 C   0  0  0  0  0  0  0  0  0  0  0  0
   10.8225   38.7503   -5.3340 C   0  0  0  0  0  0  0  0  0  0  0  0
   11.0482   39.7073   -6.2105 N   0  0  0  0  0  0  0  0  0  0  0  0
   11.3851   37.6685   -5.2937 O   0  0  0  0  0  0  0  0  0  0  0  0
   10.5561   40.5575   -6.1456 H   0  0  0  0  0  0  0  0  0  0  0  0
    9.9751   39.2038   -4.4027 O   0  0  0  0  0  0  0  0  0  0  0  0
    8.9787   38.2450   -3.8970 C   0  0  0  0  0  0  0  0  0  0  0  0
    8.9631   37.1951   -1.5704 C   0  0  0  0  0  0  0  0  0  0  0  0
    9.1483   37.2194   -0.1870 C   0  0  0  0  0  0  0  0  0  0  0  0
    9.6061   38.3973    0.4149 C   0  0  0  0  0  0  0  0  0  0  0  0
    9.2092   38.3233   -2.3795 C   0  0  0  0  0  0  0  0  0  0  0  0
    9.6532   39.4889   -1.7870 C   0  0  0  0  0  0  0  0  0  0  0  0
    9.8456   39.5175   -0.3969 C   0  0  0  0  0  0  0  0  0  0  0  0
   13.4782   40.0936  -10.4798 C   0  0  0  0  0  0  0  0  0  0  0  0
   13.7654   38.6092  -10.6071 C   0  0  0  0  0  0  0  0  0  0  0  0
   14.8735   38.2645  -11.2604 N   0  0  0  0  0  0  0  0  0  0  0  0
   12.9609   37.7907  -10.1575 O   0  0  0  0  0  0  0  0  0  0  0  0
   15.4725   38.9668  -11.6027 H   0  0  0  0  0  0  0  0  0  0  0  0
   15.2129   36.8644  -11.4765 C   0  0  0  0  0  0  0  0  0  0  0  0
   16.9263   37.6115  -13.2259 C   0  0  0  0  0  0  0  0  0  0  0  0
   15.7881   36.6336  -12.8780 C   0  0  0  0  0  0  0  0  0  0  0  0
   14.6394   36.6172  -13.9497 C   0  0  0  0  0  0  0  0  0  0  0  0
   13.4013   35.8363  -13.4371 C   0  0  0  0  0  0  0  0  0  0  0  0
   15.0747   35.8749  -15.2528 C   0  0  0  0  0  0  0  0  0  0  0  0
   14.2121   38.0528  -14.3184 C   0  0  0  0  0  0  0  0  0  0  0  0
   14.4310   40.8725  -11.4005 C   0  0  0  0  0  0  0  0  0  0  0  0
   13.7722   41.4772  -12.6377 C   0  0  0  0  0  0  0  0  0  0  0  0
   14.8185   42.1399  -13.5400 C   0  0  0  0  0  0  0  0  0  0  0  0
   12.6774   42.4569  -12.2353 C   0  0  0  0  0  0  0  0  0  0  0  0
 19 18  2  0  0  0
 19 16  1  0  0  0
 18 17  1  0  0  0
 16 15  2  0  0  0
 17 13  1  0  0  0
 17 14  2  0  0  0
 15 14  1  0  0  0
 13 12  1  0  0  0
 12  8  1  0  0  0
  8 10  2  0  0  0
  8  9  1  0  0  0
  9  7  1  0  0  0
  7  3  1  0  0  0
  4  3  2  0  0  0
  5  3  1  0  0  0
  3  1  1  0  0  0
 30 28  1  0  0  0
 25 22  1  0  0  0
 25 27  1  0  0  0
  1 20  1  0  0  0
 22 21  1  0  0  0
 28 27  1  0  0  0
 28 31  1  0  0  0
 28 29  1  0  0  0
 23 21  2  0  0  0
 21 20  1  0  0  0
 27 26  1  0  0  0
 20 32  1  0  0  0
 32 33  1  0  0  0
 35 33  1  0  0  0
 33 34  1  0  0  0
  1  2  1  0  0  0
 22 24  1  0  0  0
  5  6  1  0  0  0
  9 11  1  0  0  0
M  END
> <minimizedAffinity>
-7.89866

$$$$
5JSS_6NG_E_406


 35 35  0  0  0  0  0  0  0  0999 V2000
   11.9562   40.7608   -8.5678 N   0  0  0  0  0  0  0  0  0  0  0  0
   11.6018   41.6416   -8.9405 H   0  0  0  0  0  0  0  0  0  0  0  0
   11.6666   40.7751   -6.8445 P   0  0  0  0  0  0  0  0  0  0  0  0
   10.5371   41.7408   -6.5615 O   0  0  0  0  0  0  0  0  0  0  0  0
   12.9016   41.0732   -6.0593 O   0  0  0  0  0  0  0  0  0  0  0  0
   12.6913   41.0701   -5.1123 H   0  0  0  0  0  0  0  0  0  0  0  0
   11.0979   39.0801   -6.5314 C   0  0  0  0  0  0  0  0  0  0  0  0
   10.3708   38.9649   -4.2569 C   0  0  0  0  0  0  0  0  0  0  0  0
   11.2884   38.6878   -5.1605 N   0  0  0  0  0  0  0  0  0  0  0  0
    9.3070   39.5250   -4.4646 O   0  0  0  0  0  0  0  0  0  0  0  0
   12.1079   38.2104   -4.8965 H   0  0  0  0  0  0  0  0  0  0  0  0
   10.7246   38.4085   -3.0923 O   0  0  0  0  0  0  0  0  0  0  0  0
   10.0163   37.1757   -2.7101 C   0  0  0  0  0  0  0  0  0  0  0  0
   10.3198   38.4574   -0.5236 C   0  0  0  0  0  0  0  0  0  0  0  0
   10.0009   38.7628    0.8007 C   0  0  0  0  0  0  0  0  0  0  0  0
    8.9404   38.0871    1.4156 C   0  0  0  0  0  0  0  0  0  0  0  0
    9.6168   37.4802   -1.2576 C   0  0  0  0  0  0  0  0  0  0  0  0
    8.5753   36.8066   -0.6506 C   0  0  0  0  0  0  0  0  0  0  0  0
    8.2474   37.1130    0.6794 C   0  0  0  0  0  0  0  0  0  0  0  0
   13.3226   40.6149   -9.0369 C   0  0  0  0  0  0  0  0  0  0  0  0
   13.9712   41.9422   -9.3832 C   0  0  0  0  0  0  0  0  0  0  0  0
   15.1604   41.8932   -9.9805 N   0  0  0  0  0  0  0  0  0  0  0  0
   13.4151   42.9951   -9.0648 O   0  0  0  0  0  0  0  0  0  0  0  0
   15.5557   41.0192  -10.2023 H   0  0  0  0  0  0  0  0  0  0  0  0
   15.8855   43.1127  -10.3109 C   0  0  0  0  0  0  0  0  0  0  0  0
   16.6331   44.2767   -8.1567 C   0  0  0  0  0  0  0  0  0  0  0  0
   17.0369   43.3666   -9.3321 C   0  0  0  0  0  0  0  0  0  0  0  0
   18.3099   43.8770  -10.0986 C   0  0  0  0  0  0  0  0  0  0  0  0
   17.9199   44.6889  -11.3612 C   0  0  0  0  0  0  0  0  0  0  0  0
   19.1778   42.6931  -10.6312 C   0  0  0  0  0  0  0  0  0  0  0  0
   19.1850   44.7583   -9.1837 C   0  0  0  0  0  0  0  0  0  0  0  0
   13.2229   39.7556  -10.3073 C   0  0  0  0  0  0  0  0  0  0  0  0
   13.9926   38.4386  -10.2502 C   0  0  0  0  0  0  0  0  0  0  0  0
   13.5254   37.4889  -11.3583 C   0  0  0  0  0  0  0  0  0  0  0  0
   13.8602   37.8014   -8.8729 C   0  0  0  0  0  0  0  0  0  0  0  0
 19 18  2  0  0  0
 19 16  1  0  0  0
 18 17  1  0  0  0
 16 15  2  0  0  0
 17 13  1  0  0  0
 17 14  2  0  0  0
 15 14  1  0  0  0
 13 12  1  0  0  0
 12  8  1  0  0  0
  8 10  2  0  0  0
  8  9  1  0  0  0
  9  7  1  0  0  0
  7  3  1  0  0  0
  4  3  2  0  0  0
  5  3  1  0  0  0
  3  1  1  0  0  0
 30 28  1  0  0  0
 25 22  1  0  0  0
 25 27  1  0  0  0
  1 20  1  0  0  0
 22 21  1  0  0  0
 28 27  1  0  0  0
 28 31  1  0  0  0
 28 29  1  0  0  0
 23 21  2  0  0  0
 21 20  1  0  0  0
 27 26  1  0  0  0
 20 32  1  0  0  0
 32 33  1  0  0  0
 35 33  1  0  0  0
 33 34  1  0  0  0
  1  2  1  0  0  0
 22 24  1  0  0  0
  5  6  1  0  0  0
  9 11  1  0  0  0
M  END
> <minimizedAffinity>
-7.89016

$$$$
5JSS_6NG_E_406


 35 35  0  0  0  0  0  0  0  0999 V2000
   13.5623   41.5866   -8.1834 N   0  0  0  0  0  0  0  0  0  0  0  0
   14.2896   40.8852   -8.3231 H   0  0  0  0  0  0  0  0  0  0  0  0
   12.1336   40.7463   -7.6298 P   0  0  0  0  0  0  0  0  0  0  0  0
   11.0373   40.9508   -8.6520 O   0  0  0  0  0  0  0  0  0  0  0  0
   11.7301   41.1515   -6.2501 O   0  0  0  0  0  0  0  0  0  0  0  0
   10.9357   40.6603   -5.9882 H   0  0  0  0  0  0  0  0  0  0  0  0
   12.6658   39.0113   -7.6617 C   0  0  0  0  0  0  0  0  0  0  0  0
   13.4547   37.5868   -9.4121 C   0  0  0  0  0  0  0  0  0  0  0  0
   12.5430   38.4295   -8.9717 N   0  0  0  0  0  0  0  0  0  0  0  0
   14.4329   37.2018   -8.7931 O   0  0  0  0  0  0  0  0  0  0  0  0
   11.7745   38.6621   -9.5413 H   0  0  0  0  0  0  0  0  0  0  0  0
   13.0657   37.1057  -10.5988 O   0  0  0  0  0  0  0  0  0  0  0  0
   13.9782   36.1538  -11.2538 C   0  0  0  0  0  0  0  0  0  0  0  0
   14.0443   35.8653  -13.7892 C   0  0  0  0  0  0  0  0  0  0  0  0
   14.1306   36.3396  -15.0992 C   0  0  0  0  0  0  0  0  0  0  0  0
   14.2277   37.7192  -15.3155 C   0  0  0  0  0  0  0  0  0  0  0  0
   14.0657   36.7302  -12.6759 C   0  0  0  0  0  0  0  0  0  0  0  0
   14.1695   38.0910  -12.8864 C   0  0  0  0  0  0  0  0  0  0  0  0
   14.2519   38.5738  -14.2018 C   0  0  0  0  0  0  0  0  0  0  0  0
   13.4753   42.3643   -9.4065 C   0  0  0  0  0  0  0  0  0  0  0  0
   14.0250   41.6271  -10.6134 C   0  0  0  0  0  0  0  0  0  0  0  0
   15.1272   42.1241  -11.1715 N   0  0  0  0  0  0  0  0  0  0  0  0
   13.4227   40.6476  -11.0571 O   0  0  0  0  0  0  0  0  0  0  0  0
   15.5578   42.9149  -10.7733 H   0  0  0  0  0  0  0  0  0  0  0  0
   15.7057   41.5158  -12.3620 C   0  0  0  0  0  0  0  0  0  0  0  0
   17.6948   41.0797  -10.8102 C   0  0  0  0  0  0  0  0  0  0  0  0
   16.8670   40.5802  -12.0094 C   0  0  0  0  0  0  0  0  0  0  0  0
   17.7406   40.2820  -13.2808 C   0  0  0  0  0  0  0  0  0  0  0  0
   17.0616   40.8158  -14.5691 C   0  0  0  0  0  0  0  0  0  0  0  0
   17.9107   38.7482  -13.5191 C   0  0  0  0  0  0  0  0  0  0  0  0
   19.1391   40.9192  -13.1477 C   0  0  0  0  0  0  0  0  0  0  0  0
   14.3281   43.6169   -9.1491 C   0  0  0  0  0  0  0  0  0  0  0  0
   15.1798   43.5613   -7.8835 C   0  0  0  0  0  0  0  0  0  0  0  0
   14.5204   44.3551   -6.7507 C   0  0  0  0  0  0  0  0  0  0  0  0
   16.5919   44.0569   -8.1674 C   0  0  0  0  0  0  0  0  0  0  0  0
 19 18  2  0  0  0
 19 16  1  0  0  0
 18 17  1  0  0  0
 16 15  2  0  0  0
 17 13  1  0  0  0
 17 14  2  0  0  0
 15 14  1  0  0  0
 13 12  1  0  0  0
 12  8  1  0  0  0
  8 10  2  0  0  0
  8  9  1  0  0  0
  9  7  1  0  0  0
  7  3  1  0  0  0
  4  3  2  0  0  0
  5  3  1  0  0  0
  3  1  1  0  0  0
 30 28  1  0  0  0
 25 22  1  0  0  0
 25 27  1  0  0  0
  1 20  1  0  0  0
 22 21  1  0  0  0
 28 27  1  0  0  0
 28 31  1  0  0  0
 28 29  1  0  0  0
 23 21  2  0  0  0
 21 20  1  0  0  0
 27 26  1  0  0  0
 20 32  1  0  0  0
 32 33  1  0  0  0
 35 33  1  0  0  0
 33 34  1  0  0  0
  1  2  1  0  0  0
 22 24  1  0  0  0
  5  6  1  0  0  0
  9 11  1  0  0  0
M  END
> <minimizedAffinity>
-7.59489

$$$$
5JSS_6NG_E_406


 35 35  0  0  0  0  0  0  0  0999 V2000
   13.8472   39.5128  -10.0774 N   0  0  0  0  0  0  0  0  0  0  0  0
   14.2408   40.2881   -9.5441 H   0  0  0  0  0  0  0  0  0  0  0  0
   13.2972   38.3196   -8.9252 P   0  0  0  0  0  0  0  0  0  0  0  0
   14.4982   37.5352   -8.4450 O   0  0  0  0  0  0  0  0  0  0  0  0
   12.2128   37.4516   -9.4740 O   0  0  0  0  0  0  0  0  0  0  0  0
   11.9418   36.8081   -8.8007 H   0  0  0  0  0  0  0  0  0  0  0  0
   12.6725   39.3492   -7.5671 C   0  0  0  0  0  0  0  0  0  0  0  0
   11.2550   39.0689   -5.6625 C   0  0  0  0  0  0  0  0  0  0  0  0
   12.1514   38.5602   -6.4828 N   0  0  0  0  0  0  0  0  0  0  0  0
   10.7698   40.1859   -5.7350 O   0  0  0  0  0  0  0  0  0  0  0  0
   12.4661   37.6364   -6.3533 H   0  0  0  0  0  0  0  0  0  0  0  0
   10.8510   38.1160   -4.8140 O   0  0  0  0  0  0  0  0  0  0  0  0
    9.4406   38.1637   -4.3944 C   0  0  0  0  0  0  0  0  0  0  0  0
    9.5084   36.9750   -2.1365 C   0  0  0  0  0  0  0  0  0  0  0  0
    9.6101   36.9407   -0.7447 C   0  0  0  0  0  0  0  0  0  0  0  0
    9.7917   38.1415   -0.0486 C   0  0  0  0  0  0  0  0  0  0  0  0
    9.5687   38.1819   -2.8630 C   0  0  0  0  0  0  0  0  0  0  0  0
    9.7397   39.3686   -2.1779 C   0  0  0  0  0  0  0  0  0  0  0  0
    9.8473   39.3394   -0.7786 C   0  0  0  0  0  0  0  0  0  0  0  0
   14.8421   39.1177  -11.0585 C   0  0  0  0  0  0  0  0  0  0  0  0
   15.7957   40.2425  -11.4158 C   0  0  0  0  0  0  0  0  0  0  0  0
   15.6502   41.3883  -10.7529 N   0  0  0  0  0  0  0  0  0  0  0  0
   16.6197   40.0810  -12.3181 O   0  0  0  0  0  0  0  0  0  0  0  0
   14.9672   41.4564  -10.0471 H   0  0  0  0  0  0  0  0  0  0  0  0
   16.4859   42.5423  -11.0558 C   0  0  0  0  0  0  0  0  0  0  0  0
   16.5555   43.6816   -8.7641 C   0  0  0  0  0  0  0  0  0  0  0  0
   17.3515   42.9420   -9.8561 C   0  0  0  0  0  0  0  0  0  0  0  0
   18.6244   43.7302  -10.3326 C   0  0  0  0  0  0  0  0  0  0  0  0
   18.3444   44.5150  -11.6409 C   0  0  0  0  0  0  0  0  0  0  0  0
   19.8032   42.7678  -10.6828 C   0  0  0  0  0  0  0  0  0  0  0  0
   19.0982   44.7165   -9.2454 C   0  0  0  0  0  0  0  0  0  0  0  0
   14.0402   38.7202  -12.3080 C   0  0  0  0  0  0  0  0  0  0  0  0
   14.0251   37.2236  -12.6085 C   0  0  0  0  0  0  0  0  0  0  0  0
   15.1897   36.5177  -11.9060 C   0  0  0  0  0  0  0  0  0  0  0  0
   14.0467   36.9802  -14.1120 C   0  0  0  0  0  0  0  0  0  0  0  0
 19 18  2  0  0  0
 19 16  1  0  0  0
 18 17  1  0  0  0
 16 15  2  0  0  0
 17 13  1  0  0  0
 17 14  2  0  0  0
 15 14  1  0  0  0
 13 12  1  0  0  0
 12  8  1  0  0  0
  8 10  2  0  0  0
  8  9  1  0  0  0
  9  7  1  0  0  0
  7  3  1  0  0  0
  4  3  2  0  0  0
  5  3  1  0  0  0
  3  1  1  0  0  0
 30 28  1  0  0  0
 25 22  1  0  0  0
 25 27  1  0  0  0
  1 20  1  0  0  0
 22 21  1  0  0  0
 28 27  1  0  0  0
 28 31  1  0  0  0
 28 29  1  0  0  0
 23 21  2  0  0  0
 21 20  1  0  0  0
 27 26  1  0  0  0
 20 32  1  0  0  0
 32 33  1  0  0  0
 35 33  1  0  0  0
 33 34  1  0  0  0
  1  2  1  0  0  0
 22 24  1  0  0  0
  5  6  1  0  0  0
  9 11  1  0  0  0
M  END
> <minimizedAffinity>
-7.54965

$$$$
5JSS_6NG_E_406


 35 35  0  0  0  0  0  0  0  0999 V2000
   11.6088   41.9271   -9.2785 N   0  0  0  0  0  0  0  0  0  0  0  0
   10.8649   42.5968   -9.4748 H   0  0  0  0  0  0  0  0  0  0  0  0
   11.7943   41.8550   -7.5424 P   0  0  0  0  0  0  0  0  0  0  0  0
   10.6762   42.6558   -6.9124 O   0  0  0  0  0  0  0  0  0  0  0  0
   13.1506   42.2901   -7.0933 O   0  0  0  0  0  0  0  0  0  0  0  0
   13.2049   42.2329   -6.1265 H   0  0  0  0  0  0  0  0  0  0  0  0
   11.5364   40.0919   -7.1966 C   0  0  0  0  0  0  0  0  0  0  0  0
   11.0903   38.6728   -5.3250 C   0  0  0  0  0  0  0  0  0  0  0  0
   11.0173   39.8682   -5.8736 N   0  0  0  0  0  0  0  0  0  0  0  0
   11.5982   37.6839   -5.8274 O   0  0  0  0  0  0  0  0  0  0  0  0
   10.6058   40.6116   -5.3763 H   0  0  0  0  0  0  0  0  0  0  0  0
   10.6438   38.7439   -4.0654 O   0  0  0  0  0  0  0  0  0  0  0  0
    9.3792   38.0481   -3.7754 C   0  0  0  0  0  0  0  0  0  0  0  0
    9.8309   39.2056   -1.5456 C   0  0  0  0  0  0  0  0  0  0  0  0
    9.8345   39.2745   -0.1514 C   0  0  0  0  0  0  0  0  0  0  0  0
    9.3320   38.1933    0.5819 C   0  0  0  0  0  0  0  0  0  0  0  0
    9.3502   38.0759   -2.2390 C   0  0  0  0  0  0  0  0  0  0  0  0
    8.8615   37.0047   -1.5176 C   0  0  0  0  0  0  0  0  0  0  0  0
    8.8583   37.0706   -0.1155 C   0  0  0  0  0  0  0  0  0  0  0  0
   12.7565   42.3132  -10.0799 C   0  0  0  0  0  0  0  0  0  0  0  0
   13.7744   41.1976  -10.2265 C   0  0  0  0  0  0  0  0  0  0  0  0
   13.5764   40.3285  -11.2158 N   0  0  0  0  0  0  0  0  0  0  0  0
   14.6994   41.1046   -9.4171 O   0  0  0  0  0  0  0  0  0  0  0  0
   12.8133   40.4535  -11.8252 H   0  0  0  0  0  0  0  0  0  0  0  0
   14.4713   39.1956  -11.4104 C   0  0  0  0  0  0  0  0  0  0  0  0
   13.2574   37.3461  -10.1218 C   0  0  0  0  0  0  0  0  0  0  0  0
   13.6983   37.8754  -11.4996 C   0  0  0  0  0  0  0  0  0  0  0  0
   14.5057   36.8192  -12.3370 C   0  0  0  0  0  0  0  0  0  0  0  0
   15.7895   37.4431  -12.9437 C   0  0  0  0  0  0  0  0  0  0  0  0
   13.6871   36.3054  -13.5635 C   0  0  0  0  0  0  0  0  0  0  0  0
   14.8979   35.6099  -11.4634 C   0  0  0  0  0  0  0  0  0  0  0  0
   13.3996   43.4867   -9.3238 C   0  0  0  0  0  0  0  0  0  0  0  0
   13.0102   44.8696   -9.8396 C   0  0  0  0  0  0  0  0  0  0  0  0
   12.0724   45.5724   -8.8523 C   0  0  0  0  0  0  0  0  0  0  0  0
   12.3894   44.7674  -11.2268 C   0  0  0  0  0  0  0  0  0  0  0  0
 19 18  2  0  0  0
 19 16  1  0  0  0
 18 17  1  0  0  0
 16 15  2  0  0  0
 17 13  1  0  0  0
 17 14  2  0  0  0
 15 14  1  0  0  0
 13 12  1  0  0  0
 12  8  1  0  0  0
  8 10  2  0  0  0
  8  9  1  0  0  0
  9  7  1  0  0  0
  7  3  1  0  0  0
  4  3  2  0  0  0
  5  3  1  0  0  0
  3  1  1  0  0  0
 30 28  1  0  0  0
 25 22  1  0  0  0
 25 27  1  0  0  0
  1 20  1  0  0  0
 22 21  1  0  0  0
 28 27  1  0  0  0
 28 31  1  0  0  0
 28 29  1  0  0  0
 23 21  2  0  0  0
 21 20  1  0  0  0
 27 26  1  0  0  0
 20 32  1  0  0  0
 32 33  1  0  0  0
 35 33  1  0  0  0
 33 34  1  0  0  0
  1  2  1  0  0  0
 22 24  1  0  0  0
  5  6  1  0  0  0
  9 11  1  0  0  0
M  END
> <minimizedAffinity>
-7.35304

$$$$
5JSS_6NG_E_406


 35 35  0  0  0  0  0  0  0  0999 V2000
   12.9660   42.2148   -9.2159 N   0  0  0  0  0  0  0  0  0  0  0  0
   12.1474   42.5039   -9.7513 H   0  0  0  0  0  0  0  0  0  0  0  0
   12.5958   42.4707   -7.5273 P   0  0  0  0  0  0  0  0  0  0  0  0
   11.3382   43.3068   -7.4390 O   0  0  0  0  0  0  0  0  0  0  0  0
   13.7430   43.0581   -6.7727 O   0  0  0  0  0  0  0  0  0  0  0  0
   13.4903   43.1811   -5.8443 H   0  0  0  0  0  0  0  0  0  0  0  0
   12.2380   40.7881   -6.9481 C   0  0  0  0  0  0  0  0  0  0  0  0
   12.1180   38.6141   -7.9355 C   0  0  0  0  0  0  0  0  0  0  0  0
   12.7157   39.7858   -7.8629 N   0  0  0  0  0  0  0  0  0  0  0  0
   11.1357   38.2704   -7.2988 O   0  0  0  0  0  0  0  0  0  0  0  0
   13.4924   39.9763   -8.4370 H   0  0  0  0  0  0  0  0  0  0  0  0
   12.6727   37.9029   -8.9242 O   0  0  0  0  0  0  0  0  0  0  0  0
   13.8178   38.5187   -9.6152 C   0  0  0  0  0  0  0  0  0  0  0  0
   13.3615   36.4891  -11.0944 C   0  0  0  0  0  0  0  0  0  0  0  0
   13.2995   35.8249  -12.3207 C   0  0  0  0  0  0  0  0  0  0  0  0
   13.6269   36.5248  -13.4879 C   0  0  0  0  0  0  0  0  0  0  0  0
   13.7567   37.8386  -10.9921 C   0  0  0  0  0  0  0  0  0  0  0  0
   14.0879   38.5289  -12.1413 C   0  0  0  0  0  0  0  0  0  0  0  0
   14.0228   37.8673  -13.3775 C   0  0  0  0  0  0  0  0  0  0  0  0
   14.1137   42.9004   -9.7825 C   0  0  0  0  0  0  0  0  0  0  0  0
   13.9292   43.2444  -11.2488 C   0  0  0  0  0  0  0  0  0  0  0  0
   13.3891   42.3057  -12.0237 N   0  0  0  0  0  0  0  0  0  0  0  0
   14.3199   44.3331  -11.6745 O   0  0  0  0  0  0  0  0  0  0  0  0
   13.1039   41.4523  -11.6241 H   0  0  0  0  0  0  0  0  0  0  0  0
   13.2139   42.5219  -13.4536 C   0  0  0  0  0  0  0  0  0  0  0  0
   15.4437   41.4724  -14.1471 C   0  0  0  0  0  0  0  0  0  0  0  0
   13.9093   41.4331  -14.2778 C   0  0  0  0  0  0  0  0  0  0  0  0
   13.4159   41.4706  -15.7690 C   0  0  0  0  0  0  0  0  0  0  0  0
   11.8763   41.6400  -15.8492 C   0  0  0  0  0  0  0  0  0  0  0  0
   13.7144   40.1293  -16.5109 C   0  0  0  0  0  0  0  0  0  0  0  0
   14.0902   42.6230  -16.5416 C   0  0  0  0  0  0  0  0  0  0  0  0
   15.2836   41.9141   -9.6391 C   0  0  0  0  0  0  0  0  0  0  0  0
   16.5234   42.2699  -10.4555 C   0  0  0  0  0  0  0  0  0  0  0  0
   17.3140   41.0085  -10.8188 C   0  0  0  0  0  0  0  0  0  0  0  0
   17.3867   43.2760   -9.7052 C   0  0  0  0  0  0  0  0  0  0  0  0
 19 18  2  0  0  0
 19 16  1  0  0  0
 18 17  1  0  0  0
 16 15  2  0  0  0
 17 13  1  0  0  0
 17 14  2  0  0  0
 15 14  1  0  0  0
 13 12  1  0  0  0
 12  8  1  0  0  0
  8 10  2  0  0  0
  8  9  1  0  0  0
  9  7  1  0  0  0
  7  3  1  0  0  0
  4  3  2  0  0  0
  5  3  1  0  0  0
  3  1  1  0  0  0
 30 28  1  0  0  0
 25 22  1  0  0  0
 25 27  1  0  0  0
  1 20  1  0  0  0
 22 21  1  0  0  0
 28 27  1  0  0  0
 28 31  1  0  0  0
 28 29  1  0  0  0
 23 21  2  0  0  0
 21 20  1  0  0  0
 27 26  1  0  0  0
 20 32  1  0  0  0
 32 33  1  0  0  0
 35 33  1  0  0  0
 33 34  1  0  0  0
  1  2  1  0  0  0
 22 24  1  0  0  0
  5  6  1  0  0  0
  9 11  1  0  0  0
M  END
> <minimizedAffinity>
-7.32068

$$$$
5JSS_6NG_E_406


 35 35  0  0  0  0  0  0  0  0999 V2000
   12.0014   40.4386   -8.5709 N   0  0  0  0  0  0  0  0  0  0  0  0
   11.4706   41.0574   -9.1839 H   0  0  0  0  0  0  0  0  0  0  0  0
   11.7173   40.9686   -6.9302 P   0  0  0  0  0  0  0  0  0  0  0  0
   10.8932   42.2363   -6.9773 O   0  0  0  0  0  0  0  0  0  0  0  0
   12.9824   41.1219   -6.1513 O   0  0  0  0  0  0  0  0  0  0  0  0
   12.7741   41.4165   -5.2509 H   0  0  0  0  0  0  0  0  0  0  0  0
   10.7052   39.6212   -6.2558 C   0  0  0  0  0  0  0  0  0  0  0  0
   10.3729   38.7943   -4.0374 C   0  0  0  0  0  0  0  0  0  0  0  0
   11.2072   39.1435   -4.9950 N   0  0  0  0  0  0  0  0  0  0  0  0
    9.1550   38.8060   -4.1089 O   0  0  0  0  0  0  0  0  0  0  0  0
   12.1784   39.0774   -4.8474 H   0  0  0  0  0  0  0  0  0  0  0  0
   11.0715   38.2873   -3.0147 O   0  0  0  0  0  0  0  0  0  0  0  0
   11.1083   39.0901   -1.7810 C   0  0  0  0  0  0  0  0  0  0  0  0
    9.7091   37.0239   -1.2434 C   0  0  0  0  0  0  0  0  0  0  0  0
    8.8269   36.2822   -0.4558 C   0  0  0  0  0  0  0  0  0  0  0  0
    8.3700   36.8293    0.7489 C   0  0  0  0  0  0  0  0  0  0  0  0
   10.1441   38.3124   -0.8712 C   0  0  0  0  0  0  0  0  0  0  0  0
    9.6885   38.8575    0.3129 C   0  0  0  0  0  0  0  0  0  0  0  0
    8.8049   38.1142    1.1110 C   0  0  0  0  0  0  0  0  0  0  0  0
   13.3676   40.4160   -9.0623 C   0  0  0  0  0  0  0  0  0  0  0  0
   13.8701   41.7889   -9.4683 C   0  0  0  0  0  0  0  0  0  0  0  0
   15.1043   42.1146   -9.0884 N   0  0  0  0  0  0  0  0  0  0  0  0
   13.1230   42.5573  -10.0771 O   0  0  0  0  0  0  0  0  0  0  0  0
   15.6492   41.4581   -8.5971 H   0  0  0  0  0  0  0  0  0  0  0  0
   15.6605   43.4270   -9.3887 C   0  0  0  0  0  0  0  0  0  0  0  0
   14.8733   43.7197   -6.9702 C   0  0  0  0  0  0  0  0  0  0  0  0
   15.5177   44.3849   -8.2011 C   0  0  0  0  0  0  0  0  0  0  0  0
   14.7884   45.7049   -8.6418 C   0  0  0  0  0  0  0  0  0  0  0  0
   13.3358   45.7540   -8.1004 C   0  0  0  0  0  0  0  0  0  0  0  0
   14.6447   45.7957  -10.1941 C   0  0  0  0  0  0  0  0  0  0  0  0
   15.5540   46.9478   -8.1431 C   0  0  0  0  0  0  0  0  0  0  0  0
   13.3359   39.5043  -10.2992 C   0  0  0  0  0  0  0  0  0  0  0  0
   14.4405   38.4517  -10.3459 C   0  0  0  0  0  0  0  0  0  0  0  0
   14.6601   37.9593  -11.7802 C   0  0  0  0  0  0  0  0  0  0  0  0
   14.1220   37.3005   -9.4004 C   0  0  0  0  0  0  0  0  0  0  0  0
 19 18  2  0  0  0
 19 16  1  0  0  0
 18 17  1  0  0  0
 16 15  2  0  0  0
 17 13  1  0  0  0
 17 14  2  0  0  0
 15 14  1  0  0  0
 13 12  1  0  0  0
 12  8  1  0  0  0
  8 10  2  0  0  0
  8  9  1  0  0  0
  9  7  1  0  0  0
  7  3  1  0  0  0
  4  3  2  0  0  0
  5  3  1  0  0  0
  3  1  1  0  0  0
 30 28  1  0  0  0
 25 22  1  0  0  0
 25 27  1  0  0  0
  1 20  1  0  0  0
 22 21  1  0  0  0
 28 27  1  0  0  0
 28 31  1  0  0  0
 28 29  1  0  0  0
 23 21  2  0  0  0
 21 20  1  0  0  0
 27 26  1  0  0  0
 20 32  1  0  0  0
 32 33  1  0  0  0
 35 33  1  0  0  0
 33 34  1  0  0  0
  1  2  1  0  0  0
 22 24  1  0  0  0
  5  6  1  0  0  0
  9 11  1  0  0  0
M  END
> <minimizedAffinity>
-7.26042

$$$$
