2CER_PGI_A_1490


 27 29  0  0  0  0  0  0  0  0999 V2000
   60.6737  -66.4563    1.2060 C   0  0  0  0  0  0  0  0  0  0  0  0
   59.2647  -67.0533    1.1113 C   0  0  0  0  0  0  0  0  0  0  0  0
   58.4751  -66.3203    0.1650 O   0  0  0  0  0  0  0  0  0  0  0  0
   59.3741  -68.5670    0.7598 C   0  0  0  0  0  0  0  0  0  0  0  0
   58.1041  -69.2230    0.5213 O   0  0  0  0  0  0  0  0  0  0  0  0
   60.1081  -69.3194    1.8632 C   0  0  0  0  0  0  0  0  0  0  0  0
   60.7156  -70.4651    1.2755 O   0  0  0  0  0  0  0  0  0  0  0  0
   61.3864  -67.1836    2.2824 N   0  0  0  0  0  0  0  0  0  0  0  0
   62.3212  -66.7242    3.1286 C   0  0  0  0  0  0  0  0  0  0  0  0
   62.6875  -67.7695    3.9589 C   0  0  0  0  0  0  0  0  0  0  0  0
   61.9212  -68.8200    3.5776 N   0  0  0  0  0  0  0  0  0  0  0  0
   61.1247  -68.4619    2.5590 C   0  0  0  0  0  0  0  0  0  0  0  0
   58.8931  -66.3659   -0.7091 H   0  0  0  0  0  0  0  0  0  0  0  0
   57.5786  -69.2163    1.3366 H   0  0  0  0  0  0  0  0  0  0  0  0
   61.3452  -70.1832    0.5936 H   0  0  0  0  0  0  0  0  0  0  0  0
   61.9454  -69.7147    3.9877 H   0  0  0  0  0  0  0  0  0  0  0  0
   59.7779  -64.6796    2.5426 O   0  0  0  0  0  0  0  0  0  0  0  0
   60.6772  -64.9708    1.4897 C   0  0  0  0  0  0  0  0  0  0  0  0
   59.7850  -63.7259    2.7194 H   0  0  0  0  0  0  0  0  0  0  0  0
   63.7257  -67.7349    5.1085 C   0  0  0  0  0  0  0  0  0  0  0  0
   63.0278  -67.8678    6.4747 C   0  0  0  0  0  0  0  0  0  0  0  0
   63.4005  -69.0731    7.3459 C   0  0  0  0  0  0  0  0  0  0  0  0
   64.7153  -69.1501    7.8293 C   0  0  0  0  0  0  0  0  0  0  0  0
   65.1303  -70.2207    8.6274 C   0  0  0  0  0  0  0  0  0  0  0  0
   62.4852  -70.0913    7.6763 C   0  0  0  0  0  0  0  0  0  0  0  0
   62.8889  -71.1613    8.4735 C   0  0  0  0  0  0  0  0  0  0  0  0
   64.2067  -71.2253    8.9459 C   0  0  0  0  0  0  0  0  0  0  0  0
 17 18  1  0  0  0
 18  1  1  0  0  0
  1  2  1  0  0  0
  1  8  1  0  0  0
  2  3  1  0  0  0
  2  4  1  0  0  0
  4  5  1  0  0  0
  4  6  1  0  0  0
  6  7  1  0  0  0
  6 12  1  0  0  0
  8  9  1  0  0  0
  8 12  2  0  0  0
  9 10  2  0  0  0
 10 11  1  0  0  0
 10 20  1  0  0  0
 11 12  1  0  0  0
 20 21  1  0  0  0
 21 22  1  0  0  0
 22 23  2  0  0  0
 22 25  1  0  0  0
 23 24  1  0  0  0
 24 27  2  0  0  0
 25 26  2  0  0  0
 26 27  1  0  0  0
 17 19  1  0  0  0
  3 13  1  0  0  0
  5 14  1  0  0  0
  7 15  1  0  0  0
 11 16  1  0  0  0
M  CHG 1   8   1
M  END
> <minimizedAffinity>
-9.30150

$$$$
2CER_PGI_A_1490


 27 29  0  0  0  0  0  0  0  0999 V2000
   62.6482  -63.4505    9.9398 C   0  0  0  0  0  0  0  0  0  0  0  0
   61.2486  -62.8423   10.0883 C   0  0  0  0  0  0  0  0  0  0  0  0
   61.1025  -62.2367   11.3799 O   0  0  0  0  0  0  0  0  0  0  0  0
   61.0010  -61.8398    8.9219 C   0  0  0  0  0  0  0  0  0  0  0  0
   59.7563  -61.1036    9.0149 O   0  0  0  0  0  0  0  0  0  0  0  0
   61.0373  -62.5622    7.5806 C   0  0  0  0  0  0  0  0  0  0  0  0
   61.4263  -61.6164    6.5901 O   0  0  0  0  0  0  0  0  0  0  0  0
   62.6827  -64.1579    8.6382 N   0  0  0  0  0  0  0  0  0  0  0  0
   63.3593  -65.2676    8.3043 C   0  0  0  0  0  0  0  0  0  0  0  0
   63.0742  -65.5518    6.9799 C   0  0  0  0  0  0  0  0  0  0  0  0
   62.2038  -64.5921    6.5831 N   0  0  0  0  0  0  0  0  0  0  0  0
   61.9612  -63.7452    7.5950 C   0  0  0  0  0  0  0  0  0  0  0  0
   61.7617  -61.5327   11.4833 H   0  0  0  0  0  0  0  0  0  0  0  0
   59.0103  -61.7198    8.9472 H   0  0  0  0  0  0  0  0  0  0  0  0
   62.3073  -61.2701    6.8020 H   0  0  0  0  0  0  0  0  0  0  0  0
   61.8076  -64.5260    5.6843 H   0  0  0  0  0  0  0  0  0  0  0  0
   63.3960  -63.6678   12.2067 O   0  0  0  0  0  0  0  0  0  0  0  0
   63.0106  -64.4006   11.0593 C   0  0  0  0  0  0  0  0  0  0  0  0
   63.6270  -64.2827   12.9205 H   0  0  0  0  0  0  0  0  0  0  0  0
   63.6065  -66.7399    6.1398 C   0  0  0  0  0  0  0  0  0  0  0  0
   62.7231  -67.9852    6.3395 C   0  0  0  0  0  0  0  0  0  0  0  0
   63.2616  -69.0972    7.2472 C   0  0  0  0  0  0  0  0  0  0  0  0
   64.6140  -69.0433    7.6169 C   0  0  0  0  0  0  0  0  0  0  0  0
   65.1778  -70.0231    8.4400 C   0  0  0  0  0  0  0  0  0  0  0  0
   62.4609  -70.1554    7.7191 C   0  0  0  0  0  0  0  0  0  0  0  0
   63.0134  -71.1355    8.5423 C   0  0  0  0  0  0  0  0  0  0  0  0
   64.3668  -71.0693    8.8999 C   0  0  0  0  0  0  0  0  0  0  0  0
 17 18  1  0  0  0
 18  1  1  0  0  0
  1  2  1  0  0  0
  1  8  1  0  0  0
  2  3  1  0  0  0
  2  4  1  0  0  0
  4  5  1  0  0  0
  4  6  1  0  0  0
  6  7  1  0  0  0
  6 12  1  0  0  0
  8  9  1  0  0  0
  8 12  2  0  0  0
  9 10  2  0  0  0
 10 11  1  0  0  0
 10 20  1  0  0  0
 11 12  1  0  0  0
 20 21  1  0  0  0
 21 22  1  0  0  0
 22 23  2  0  0  0
 22 25  1  0  0  0
 23 24  1  0  0  0
 24 27  2  0  0  0
 25 26  2  0  0  0
 26 27  1  0  0  0
 17 19  1  0  0  0
  3 13  1  0  0  0
  5 14  1  0  0  0
  7 15  1  0  0  0
 11 16  1  0  0  0
M  CHG 1   8   1
M  END
> <minimizedAffinity>
-9.27584

$$$$
2CER_PGI_A_1490


 27 29  0  0  0  0  0  0  0  0999 V2000
   61.3532  -68.6419    1.9477 C   0  0  0  0  0  0  0  0  0  0  0  0
   61.4844  -67.5229    0.9079 C   0  0  0  0  0  0  0  0  0  0  0  0
   61.3618  -68.0567   -0.4174 O   0  0  0  0  0  0  0  0  0  0  0  0
   60.4298  -66.4174    1.2116 C   0  0  0  0  0  0  0  0  0  0  0  0
   60.3684  -65.3568    0.2260 O   0  0  0  0  0  0  0  0  0  0  0  0
   60.6883  -65.7941    2.5780 C   0  0  0  0  0  0  0  0  0  0  0  0
   59.4477  -65.2968    3.0686 O   0  0  0  0  0  0  0  0  0  0  0  0
   61.6098  -68.0380    3.2762 N   0  0  0  0  0  0  0  0  0  0  0  0
   62.1801  -68.5960    4.3553 C   0  0  0  0  0  0  0  0  0  0  0  0
   62.2076  -67.6416    5.3576 C   0  0  0  0  0  0  0  0  0  0  0  0
   61.6627  -66.5276    4.8115 N   0  0  0  0  0  0  0  0  0  0  0  0
   61.3027  -66.7674    3.5416 C   0  0  0  0  0  0  0  0  0  0  0  0
   60.4930  -68.4762   -0.5179 H   0  0  0  0  0  0  0  0  0  0  0  0
   61.2091  -64.8731    0.2187 H   0  0  0  0  0  0  0  0  0  0  0  0
   58.8170  -66.0288    3.1541 H   0  0  0  0  0  0  0  0  0  0  0  0
   61.5479  -65.6684    5.2782 H   0  0  0  0  0  0  0  0  0  0  0  0
   61.7848  -70.6396    0.6953 O   0  0  0  0  0  0  0  0  0  0  0  0
   62.3001  -69.7966    1.7082 C   0  0  0  0  0  0  0  0  0  0  0  0
   62.3965  -71.3776    0.5467 H   0  0  0  0  0  0  0  0  0  0  0  0
   62.7779  -67.8011    6.7894 C   0  0  0  0  0  0  0  0  0  0  0  0
   62.8293  -69.2867    7.1912 C   0  0  0  0  0  0  0  0  0  0  0  0
   64.2049  -69.8901    7.4979 C   0  0  0  0  0  0  0  0  0  0  0  0
   65.1708  -69.8688    6.4805 C   0  0  0  0  0  0  0  0  0  0  0  0
   66.4470  -70.4027    6.6844 C   0  0  0  0  0  0  0  0  0  0  0  0
   64.5320  -70.4557    8.7456 C   0  0  0  0  0  0  0  0  0  0  0  0
   65.8026  -70.9882    8.9591 C   0  0  0  0  0  0  0  0  0  0  0  0
   66.7553  -70.9621    7.9317 C   0  0  0  0  0  0  0  0  0  0  0  0
 17 18  1  0  0  0
 18  1  1  0  0  0
  1  2  1  0  0  0
  1  8  1  0  0  0
  2  3  1  0  0  0
  2  4  1  0  0  0
  4  5  1  0  0  0
  4  6  1  0  0  0
  6  7  1  0  0  0
  6 12  1  0  0  0
  8  9  1  0  0  0
  8 12  2  0  0  0
  9 10  2  0  0  0
 10 11  1  0  0  0
 10 20  1  0  0  0
 11 12  1  0  0  0
 20 21  1  0  0  0
 21 22  1  0  0  0
 22 23  2  0  0  0
 22 25  1  0  0  0
 23 24  1  0  0  0
 24 27  2  0  0  0
 25 26  2  0  0  0
 26 27  1  0  0  0
 17 19  1  0  0  0
  3 13  1  0  0  0
  5 14  1  0  0  0
  7 15  1  0  0  0
 11 16  1  0  0  0
M  CHG 1   8   1
M  END
> <minimizedAffinity>
-9.00798

$$$$
2CER_PGI_A_1490


 27 29  0  0  0  0  0  0  0  0999 V2000
   60.9093  -63.2826    8.5784 C   0  0  0  0  0  0  0  0  0  0  0  0
   61.6338  -62.3033    9.5094 C   0  0  0  0  0  0  0  0  0  0  0  0
   60.7874  -61.1869    9.8150 O   0  0  0  0  0  0  0  0  0  0  0  0
   62.1083  -63.0653   10.7826 C   0  0  0  0  0  0  0  0  0  0  0  0
   62.7030  -62.2236   11.8013 O   0  0  0  0  0  0  0  0  0  0  0  0
   63.1068  -64.1550   10.4112 C   0  0  0  0  0  0  0  0  0  0  0  0
   63.0330  -65.1679   11.4090 O   0  0  0  0  0  0  0  0  0  0  0  0
   61.8811  -64.3396    8.2123 N   0  0  0  0  0  0  0  0  0  0  0  0
   61.9792  -65.0277    7.0644 C   0  0  0  0  0  0  0  0  0  0  0  0
   63.0441  -65.9035    7.1884 C   0  0  0  0  0  0  0  0  0  0  0  0
   63.5579  -65.6760    8.4215 N   0  0  0  0  0  0  0  0  0  0  0  0
   62.8523  -64.7196    9.0439 C   0  0  0  0  0  0  0  0  0  0  0  0
   59.9837  -61.5020   10.2574 H   0  0  0  0  0  0  0  0  0  0  0  0
   63.5182  -61.8263   11.4572 H   0  0  0  0  0  0  0  0  0  0  0  0
   62.1359  -65.5361   11.4302 H   0  0  0  0  0  0  0  0  0  0  0  0
   64.3348  -66.1439    8.8044 H   0  0  0  0  0  0  0  0  0  0  0  0
   61.1832  -61.5430    6.9522 O   0  0  0  0  0  0  0  0  0  0  0  0
   60.3574  -62.6275    7.3320 C   0  0  0  0  0  0  0  0  0  0  0  0
   60.8239  -61.1275    6.1527 H   0  0  0  0  0  0  0  0  0  0  0  0
   63.5642  -66.9043    6.1262 C   0  0  0  0  0  0  0  0  0  0  0  0
   62.7714  -68.2230    6.1883 C   0  0  0  0  0  0  0  0  0  0  0  0
   63.2403  -69.2845    7.1903 C   0  0  0  0  0  0  0  0  0  0  0  0
   64.5730  -69.2307    7.6256 C   0  0  0  0  0  0  0  0  0  0  0  0
   65.0741  -70.1661    8.5363 C   0  0  0  0  0  0  0  0  0  0  0  0
   62.3952  -70.2969    7.6848 C   0  0  0  0  0  0  0  0  0  0  0  0
   62.8850  -71.2324    8.5950 C   0  0  0  0  0  0  0  0  0  0  0  0
   64.2196  -71.1670    9.0176 C   0  0  0  0  0  0  0  0  0  0  0  0
 17 18  1  0  0  0
 18  1  1  0  0  0
  1  2  1  0  0  0
  1  8  1  0  0  0
  2  3  1  0  0  0
  2  4  1  0  0  0
  4  5  1  0  0  0
  4  6  1  0  0  0
  6  7  1  0  0  0
  6 12  1  0  0  0
  8  9  1  0  0  0
  8 12  2  0  0  0
  9 10  2  0  0  0
 10 11  1  0  0  0
 10 20  1  0  0  0
 11 12  1  0  0  0
 20 21  1  0  0  0
 21 22  1  0  0  0
 22 23  2  0  0  0
 22 25  1  0  0  0
 23 24  1  0  0  0
 24 27  2  0  0  0
 25 26  2  0  0  0
 26 27  1  0  0  0
 17 19  1  0  0  0
  3 13  1  0  0  0
  5 14  1  0  0  0
  7 15  1  0  0  0
 11 16  1  0  0  0
M  CHG 1   8   1
M  END
> <minimizedAffinity>
-8.95821

$$$$
2CER_PGI_A_1490


 27 29  0  0  0  0  0  0  0  0999 V2000
   62.6903  -67.2215    6.6700 C   0  0  0  0  0  0  0  0  0  0  0  0
   64.0142  -67.4176    7.4181 C   0  0  0  0  0  0  0  0  0  0  0  0
   64.0975  -66.5150    8.5292 O   0  0  0  0  0  0  0  0  0  0  0  0
   64.1437  -68.9104    7.8441 C   0  0  0  0  0  0  0  0  0  0  0  0
   65.2992  -69.2033    8.6681 O   0  0  0  0  0  0  0  0  0  0  0  0
   64.1822  -69.8140    6.6176 C   0  0  0  0  0  0  0  0  0  0  0  0
   63.6861  -71.0910    7.0051 O   0  0  0  0  0  0  0  0  0  0  0  0
   62.7291  -68.0956    5.4742 N   0  0  0  0  0  0  0  0  0  0  0  0
   62.1786  -67.8912    4.2675 C   0  0  0  0  0  0  0  0  0  0  0  0
   62.4878  -68.9822    3.4736 C   0  0  0  0  0  0  0  0  0  0  0  0
   63.2444  -69.7933    4.2519 N   0  0  0  0  0  0  0  0  0  0  0  0
   63.3956  -69.2510    5.4697 C   0  0  0  0  0  0  0  0  0  0  0  0
   63.3646  -66.6867    9.1410 H   0  0  0  0  0  0  0  0  0  0  0  0
   66.1088  -69.0411    8.1591 H   0  0  0  0  0  0  0  0  0  0  0  0
   62.7730  -71.0013    7.3199 H   0  0  0  0  0  0  0  0  0  0  0  0
   63.6269  -70.6541    3.9658 H   0  0  0  0  0  0  0  0  0  0  0  0
   63.6735  -65.1212    6.0638 O   0  0  0  0  0  0  0  0  0  0  0  0
   62.4406  -65.7875    6.2596 C   0  0  0  0  0  0  0  0  0  0  0  0
   63.5063  -64.2025    5.8009 H   0  0  0  0  0  0  0  0  0  0  0  0
   62.0873  -69.2095    1.9942 C   0  0  0  0  0  0  0  0  0  0  0  0
   61.1162  -68.1126    1.5197 C   0  0  0  0  0  0  0  0  0  0  0  0
   61.6810  -67.0082    0.6187 C   0  0  0  0  0  0  0  0  0  0  0  0
   61.4470  -67.1053   -0.7612 C   0  0  0  0  0  0  0  0  0  0  0  0
   61.9329  -66.1380   -1.6464 C   0  0  0  0  0  0  0  0  0  0  0  0
   62.4145  -65.9139    1.1169 C   0  0  0  0  0  0  0  0  0  0  0  0
   62.9007  -64.9432    0.2425 C   0  0  0  0  0  0  0  0  0  0  0  0
   62.6612  -65.0562   -1.1337 C   0  0  0  0  0  0  0  0  0  0  0  0
 17 18  1  0  0  0
 18  1  1  0  0  0
  1  2  1  0  0  0
  1  8  1  0  0  0
  2  3  1  0  0  0
  2  4  1  0  0  0
  4  5  1  0  0  0
  4  6  1  0  0  0
  6  7  1  0  0  0
  6 12  1  0  0  0
  8  9  1  0  0  0
  8 12  2  0  0  0
  9 10  2  0  0  0
 10 11  1  0  0  0
 10 20  1  0  0  0
 11 12  1  0  0  0
 20 21  1  0  0  0
 21 22  1  0  0  0
 22 23  2  0  0  0
 22 25  1  0  0  0
 23 24  1  0  0  0
 24 27  2  0  0  0
 25 26  2  0  0  0
 26 27  1  0  0  0
 17 19  1  0  0  0
  3 13  1  0  0  0
  5 14  1  0  0  0
  7 15  1  0  0  0
 11 16  1  0  0  0
M  CHG 1   8   1
M  END
> <minimizedAffinity>
-8.75434

$$$$
2CER_PGI_A_1490


 27 29  0  0  0  0  0  0  0  0999 V2000
   61.1631  -68.0838    1.6750 C   0  0  0  0  0  0  0  0  0  0  0  0
   61.1930  -67.0857    0.5115 C   0  0  0  0  0  0  0  0  0  0  0  0
   60.7107  -67.7044   -0.6888 O   0  0  0  0  0  0  0  0  0  0  0  0
   60.3774  -65.8181    0.9050 C   0  0  0  0  0  0  0  0  0  0  0  0
   60.2261  -64.8454   -0.1584 O   0  0  0  0  0  0  0  0  0  0  0  0
   61.0113  -65.1274    2.1064 C   0  0  0  0  0  0  0  0  0  0  0  0
   59.9835  -64.4172    2.7893 O   0  0  0  0  0  0  0  0  0  0  0  0
   61.7843  -67.4149    2.8422 N   0  0  0  0  0  0  0  0  0  0  0  0
   62.5100  -67.9577    3.8319 C   0  0  0  0  0  0  0  0  0  0  0  0
   62.8792  -66.9374    4.6914 C   0  0  0  0  0  0  0  0  0  0  0  0
   62.3661  -65.8056    4.1510 N   0  0  0  0  0  0  0  0  0  0  0  0
   61.7028  -66.0957    3.0215 C   0  0  0  0  0  0  0  0  0  0  0  0
   59.7969  -68.0010   -0.5551 H   0  0  0  0  0  0  0  0  0  0  0  0
   61.0964  -64.4904   -0.3981 H   0  0  0  0  0  0  0  0  0  0  0  0
   59.3035  -65.0408    3.0885 H   0  0  0  0  0  0  0  0  0  0  0  0
   62.4655  -64.9031    4.5315 H   0  0  0  0  0  0  0  0  0  0  0  0
   60.9454  -70.3828    1.0328 O   0  0  0  0  0  0  0  0  0  0  0  0
   61.8830  -69.3788    1.3721 C   0  0  0  0  0  0  0  0  0  0  0  0
   61.4134  -71.2103    0.8398 H   0  0  0  0  0  0  0  0  0  0  0  0
   63.7332  -67.0580    5.9786 C   0  0  0  0  0  0  0  0  0  0  0  0
   64.4556  -68.4171    6.0258 C   0  0  0  0  0  0  0  0  0  0  0  0
   63.9806  -69.4355    7.0687 C   0  0  0  0  0  0  0  0  0  0  0  0
   62.6264  -69.8020    7.0567 C   0  0  0  0  0  0  0  0  0  0  0  0
   62.1187  -70.7228    7.9785 C   0  0  0  0  0  0  0  0  0  0  0  0
   64.8407  -70.0107    8.0243 C   0  0  0  0  0  0  0  0  0  0  0  0
   64.3443  -70.9315    8.9458 C   0  0  0  0  0  0  0  0  0  0  0  0
   62.9883  -71.2848    8.9227 C   0  0  0  0  0  0  0  0  0  0  0  0
 17 18  1  0  0  0
 18  1  1  0  0  0
  1  2  1  0  0  0
  1  8  1  0  0  0
  2  3  1  0  0  0
  2  4  1  0  0  0
  4  5  1  0  0  0
  4  6  1  0  0  0
  6  7  1  0  0  0
  6 12  1  0  0  0
  8  9  1  0  0  0
  8 12  2  0  0  0
  9 10  2  0  0  0
 10 11  1  0  0  0
 10 20  1  0  0  0
 11 12  1  0  0  0
 20 21  1  0  0  0
 21 22  1  0  0  0
 22 23  2  0  0  0
 22 25  1  0  0  0
 23 24  1  0  0  0
 24 27  2  0  0  0
 25 26  2  0  0  0
 26 27  1  0  0  0
 17 19  1  0  0  0
  3 13  1  0  0  0
  5 14  1  0  0  0
  7 15  1  0  0  0
 11 16  1  0  0  0
M  CHG 1   8   1
M  END
> <minimizedAffinity>
-8.74302

$$$$
2CER_PGI_A_1490


 27 29  0  0  0  0  0  0  0  0999 V2000
   60.5135  -66.5481    1.5131 C   0  0  0  0  0  0  0  0  0  0  0  0
   59.1502  -67.2269    1.3360 C   0  0  0  0  0  0  0  0  0  0  0  0
   58.3168  -66.4518    0.4637 O   0  0  0  0  0  0  0  0  0  0  0  0
   59.3670  -68.6825    0.8252 C   0  0  0  0  0  0  0  0  0  0  0  0
   58.1473  -69.3945    0.5007 O   0  0  0  0  0  0  0  0  0  0  0  0
   60.1453  -69.4976    1.8508 C   0  0  0  0  0  0  0  0  0  0  0  0
   60.8347  -70.5284    1.1514 O   0  0  0  0  0  0  0  0  0  0  0  0
   61.2690  -67.3369    2.5143 N   0  0  0  0  0  0  0  0  0  0  0  0
   62.1646  -66.9086    3.4173 C   0  0  0  0  0  0  0  0  0  0  0  0
   62.5982  -68.0100    4.1351 C   0  0  0  0  0  0  0  0  0  0  0  0
   61.9094  -69.0633    3.6328 N   0  0  0  0  0  0  0  0  0  0  0  0
   61.0957  -68.6527    2.6483 C   0  0  0  0  0  0  0  0  0  0  0  0
   58.7420  -66.3736   -0.4046 H   0  0  0  0  0  0  0  0  0  0  0  0
   57.6179  -69.5123    1.3049 H   0  0  0  0  0  0  0  0  0  0  0  0
   61.4471  -70.1317    0.5122 H   0  0  0  0  0  0  0  0  0  0  0  0
   61.9936  -69.9933    3.9446 H   0  0  0  0  0  0  0  0  0  0  0  0
   59.4554  -64.9855    2.9910 O   0  0  0  0  0  0  0  0  0  0  0  0
   60.4117  -65.1053    1.9550 C   0  0  0  0  0  0  0  0  0  0  0  0
   59.3950  -64.0583    3.2696 H   0  0  0  0  0  0  0  0  0  0  0  0
   63.6248  -68.0288    5.2954 C   0  0  0  0  0  0  0  0  0  0  0  0
   64.2324  -66.6296    5.5058 C   0  0  0  0  0  0  0  0  0  0  0  0
   63.6577  -65.7711    6.6386 C   0  0  0  0  0  0  0  0  0  0  0  0
   63.9134  -66.1722    7.9585 C   0  0  0  0  0  0  0  0  0  0  0  0
   63.4202  -65.4419    9.0442 C   0  0  0  0  0  0  0  0  0  0  0  0
   62.8946  -64.6100    6.4079 C   0  0  0  0  0  0  0  0  0  0  0  0
   62.4008  -63.8739    7.4839 C   0  0  0  0  0  0  0  0  0  0  0  0
   62.6624  -64.2896    8.7964 C   0  0  0  0  0  0  0  0  0  0  0  0
 17 18  1  0  0  0
 18  1  1  0  0  0
  1  2  1  0  0  0
  1  8  1  0  0  0
  2  3  1  0  0  0
  2  4  1  0  0  0
  4  5  1  0  0  0
  4  6  1  0  0  0
  6  7  1  0  0  0
  6 12  1  0  0  0
  8  9  1  0  0  0
  8 12  2  0  0  0
  9 10  2  0  0  0
 10 11  1  0  0  0
 10 20  1  0  0  0
 11 12  1  0  0  0
 20 21  1  0  0  0
 21 22  1  0  0  0
 22 23  2  0  0  0
 22 25  1  0  0  0
 23 24  1  0  0  0
 24 27  2  0  0  0
 25 26  2  0  0  0
 26 27  1  0  0  0
 17 19  1  0  0  0
  3 13  1  0  0  0
  5 14  1  0  0  0
  7 15  1  0  0  0
 11 16  1  0  0  0
M  CHG 1   8   1
M  END
> <minimizedAffinity>
-8.71509

$$$$
2CER_PGI_A_1490


 27 29  0  0  0  0  0  0  0  0999 V2000
   62.0065  -66.4884    1.4475 C   0  0  0  0  0  0  0  0  0  0  0  0
   61.3837  -67.7962    0.9449 C   0  0  0  0  0  0  0  0  0  0  0  0
   61.3696  -67.8231   -0.4888 O   0  0  0  0  0  0  0  0  0  0  0  0
   62.1563  -69.0000    1.5620 C   0  0  0  0  0  0  0  0  0  0  0  0
   61.7416  -70.2980    1.0689 O   0  0  0  0  0  0  0  0  0  0  0  0
   62.0273  -68.9950    3.0804 C   0  0  0  0  0  0  0  0  0  0  0  0
   63.1702  -69.6553    3.6140 O   0  0  0  0  0  0  0  0  0  0  0  0
   61.8766  -66.4801    2.9235 N   0  0  0  0  0  0  0  0  0  0  0  0
   61.6997  -65.4331    3.7442 C   0  0  0  0  0  0  0  0  0  0  0  0
   61.6300  -65.9198    5.0382 C   0  0  0  0  0  0  0  0  0  0  0  0
   61.7471  -67.2650    4.9257 N   0  0  0  0  0  0  0  0  0  0  0  0
   61.8925  -67.6073    3.6366 C   0  0  0  0  0  0  0  0  0  0  0  0
   62.2783  -67.7614   -0.8223 H   0  0  0  0  0  0  0  0  0  0  0  0
   60.8211  -70.4627    1.3264 H   0  0  0  0  0  0  0  0  0  0  0  0
   63.9722  -69.1779    3.3497 H   0  0  0  0  0  0  0  0  0  0  0  0
   61.7282  -67.8983    5.6792 H   0  0  0  0  0  0  0  0  0  0  0  0
   59.9876  -65.4945    0.6218 O   0  0  0  0  0  0  0  0  0  0  0  0
   61.3613  -65.2530    0.8604 C   0  0  0  0  0  0  0  0  0  0  0  0
   59.5801  -64.6987    0.2455 H   0  0  0  0  0  0  0  0  0  0  0  0
   61.4216  -65.1024    6.3379 C   0  0  0  0  0  0  0  0  0  0  0  0
   62.5195  -65.4291    7.3669 C   0  0  0  0  0  0  0  0  0  0  0  0
   62.5841  -64.5652    8.6319 C   0  0  0  0  0  0  0  0  0  0  0  0
   63.1751  -65.1224    9.7758 C   0  0  0  0  0  0  0  0  0  0  0  0
   63.2678  -64.3968   10.9676 C   0  0  0  0  0  0  0  0  0  0  0  0
   62.0811  -63.2509    8.6879 C   0  0  0  0  0  0  0  0  0  0  0  0
   62.1713  -62.5187    9.8708 C   0  0  0  0  0  0  0  0  0  0  0  0
   62.7616  -63.0907   11.0059 C   0  0  0  0  0  0  0  0  0  0  0  0
 17 18  1  0  0  0
 18  1  1  0  0  0
  1  2  1  0  0  0
  1  8  1  0  0  0
  2  3  1  0  0  0
  2  4  1  0  0  0
  4  5  1  0  0  0
  4  6  1  0  0  0
  6  7  1  0  0  0
  6 12  1  0  0  0
  8  9  1  0  0  0
  8 12  2  0  0  0
  9 10  2  0  0  0
 10 11  1  0  0  0
 10 20  1  0  0  0
 11 12  1  0  0  0
 20 21  1  0  0  0
 21 22  1  0  0  0
 22 23  2  0  0  0
 22 25  1  0  0  0
 23 24  1  0  0  0
 24 27  2  0  0  0
 25 26  2  0  0  0
 26 27  1  0  0  0
 17 19  1  0  0  0
  3 13  1  0  0  0
  5 14  1  0  0  0
  7 15  1  0  0  0
 11 16  1  0  0  0
M  CHG 1   8   1
M  END
> <minimizedAffinity>
-8.70031

$$$$
2CER_PGI_A_1490


 27 29  0  0  0  0  0  0  0  0999 V2000
   59.8230  -67.5980    2.6261 C   0  0  0  0  0  0  0  0  0  0  0  0
   60.1473  -68.1987    1.2532 C   0  0  0  0  0  0  0  0  0  0  0  0
   58.9443  -68.6209    0.5969 O   0  0  0  0  0  0  0  0  0  0  0  0
   60.9553  -67.1601    0.4194 C   0  0  0  0  0  0  0  0  0  0  0  0
   61.2203  -67.5609   -0.9478 O   0  0  0  0  0  0  0  0  0  0  0  0
   62.2832  -66.8475    1.0984 C   0  0  0  0  0  0  0  0  0  0  0  0
   62.6741  -65.5371    0.7022 O   0  0  0  0  0  0  0  0  0  0  0  0
   61.1138  -67.2988    3.2894 N   0  0  0  0  0  0  0  0  0  0  0  0
   61.4147  -67.3410    4.5966 C   0  0  0  0  0  0  0  0  0  0  0  0
   62.7454  -66.9850    4.7337 C   0  0  0  0  0  0  0  0  0  0  0  0
   63.1929  -66.7653    3.4737 N   0  0  0  0  0  0  0  0  0  0  0  0
   62.2000  -66.9612    2.5929 C   0  0  0  0  0  0  0  0  0  0  0  0
   58.3583  -67.8578    0.4735 H   0  0  0  0  0  0  0  0  0  0  0  0
   61.7895  -68.3463   -0.9499 H   0  0  0  0  0  0  0  0  0  0  0  0
   62.0006  -64.8992    0.9858 H   0  0  0  0  0  0  0  0  0  0  0  0
   64.1117  -66.5008    3.2390 H   0  0  0  0  0  0  0  0  0  0  0  0
   57.6347  -68.0986    3.4665 O   0  0  0  0  0  0  0  0  0  0  0  0
   58.9882  -68.5100    3.4971 C   0  0  0  0  0  0  0  0  0  0  0  0
   57.1051  -68.6872    4.0268 H   0  0  0  0  0  0  0  0  0  0  0  0
   63.5620  -66.8958    6.0474 C   0  0  0  0  0  0  0  0  0  0  0  0
   64.4526  -68.1402    6.2189 C   0  0  0  0  0  0  0  0  0  0  0  0
   63.9458  -69.2513    7.1458 C   0  0  0  0  0  0  0  0  0  0  0  0
   64.8665  -69.8420    8.0243 C   0  0  0  0  0  0  0  0  0  0  0  0
   64.4794  -70.8633    8.8975 C   0  0  0  0  0  0  0  0  0  0  0  0
   62.6089  -69.6945    7.1501 C   0  0  0  0  0  0  0  0  0  0  0  0
   62.2129  -70.7102    8.0189 C   0  0  0  0  0  0  0  0  0  0  0  0
   63.1455  -71.2923    8.8881 C   0  0  0  0  0  0  0  0  0  0  0  0
 17 18  1  0  0  0
 18  1  1  0  0  0
  1  2  1  0  0  0
  1  8  1  0  0  0
  2  3  1  0  0  0
  2  4  1  0  0  0
  4  5  1  0  0  0
  4  6  1  0  0  0
  6  7  1  0  0  0
  6 12  1  0  0  0
  8  9  1  0  0  0
  8 12  2  0  0  0
  9 10  2  0  0  0
 10 11  1  0  0  0
 10 20  1  0  0  0
 11 12  1  0  0  0
 20 21  1  0  0  0
 21 22  1  0  0  0
 22 23  2  0  0  0
 22 25  1  0  0  0
 23 24  1  0  0  0
 24 27  2  0  0  0
 25 26  2  0  0  0
 26 27  1  0  0  0
 17 19  1  0  0  0
  3 13  1  0  0  0
  5 14  1  0  0  0
  7 15  1  0  0  0
 11 16  1  0  0  0
M  CHG 1   8   1
M  END
> <minimizedAffinity>
-8.68044

$$$$
2CER_PGI_A_1490


 27 29  0  0  0  0  0  0  0  0999 V2000
   63.0341  -68.6066    6.3434 C   0  0  0  0  0  0  0  0  0  0  0  0
   63.5730  -69.1513    5.0154 C   0  0  0  0  0  0  0  0  0  0  0  0
   64.2004  -70.4249    5.2165 O   0  0  0  0  0  0  0  0  0  0  0  0
   62.4119  -69.2091    3.9785 C   0  0  0  0  0  0  0  0  0  0  0  0
   62.7642  -69.8223    2.7136 O   0  0  0  0  0  0  0  0  0  0  0  0
   61.8706  -67.8111    3.7047 C   0  0  0  0  0  0  0  0  0  0  0  0
   60.5133  -67.9448    3.2964 O   0  0  0  0  0  0  0  0  0  0  0  0
   62.5126  -67.2451    6.0794 N   0  0  0  0  0  0  0  0  0  0  0  0
   62.4979  -66.1796    6.8952 C   0  0  0  0  0  0  0  0  0  0  0  0
   61.9151  -65.1300    6.2062 C   0  0  0  0  0  0  0  0  0  0  0  0
   61.6243  -65.6211    4.9772 N   0  0  0  0  0  0  0  0  0  0  0  0
   61.9928  -66.9087    4.8980 C   0  0  0  0  0  0  0  0  0  0  0  0
   63.5515  -71.0526    5.5712 H   0  0  0  0  0  0  0  0  0  0  0  0
   63.4384  -69.2841    2.2701 H   0  0  0  0  0  0  0  0  0  0  0  0
   60.0018  -68.3632    4.0065 H   0  0  0  0  0  0  0  0  0  0  0  0
   61.2044  -65.1083    4.2492 H   0  0  0  0  0  0  0  0  0  0  0  0
   63.9756  -69.7220    8.2449 O   0  0  0  0  0  0  0  0  0  0  0  0
   64.0752  -68.5627    7.4396 C   0  0  0  0  0  0  0  0  0  0  0  0
   64.6455  -69.6875    8.9455 H   0  0  0  0  0  0  0  0  0  0  0  0
   61.6811  -63.6866    6.7183 C   0  0  0  0  0  0  0  0  0  0  0  0
   60.9434  -63.7026    8.0698 C   0  0  0  0  0  0  0  0  0  0  0  0
   61.7822  -63.4986    9.3369 C   0  0  0  0  0  0  0  0  0  0  0  0
   62.4744  -64.6061    9.8493 C   0  0  0  0  0  0  0  0  0  0  0  0
   63.2576  -64.4983   11.0028 C   0  0  0  0  0  0  0  0  0  0  0  0
   61.8843  -62.2581    9.9960 C   0  0  0  0  0  0  0  0  0  0  0  0
   62.6647  -62.1402   11.1451 C   0  0  0  0  0  0  0  0  0  0  0  0
   63.3475  -63.2568   11.6462 C   0  0  0  0  0  0  0  0  0  0  0  0
 17 18  1  0  0  0
 18  1  1  0  0  0
  1  2  1  0  0  0
  1  8  1  0  0  0
  2  3  1  0  0  0
  2  4  1  0  0  0
  4  5  1  0  0  0
  4  6  1  0  0  0
  6  7  1  0  0  0
  6 12  1  0  0  0
  8  9  1  0  0  0
  8 12  2  0  0  0
  9 10  2  0  0  0
 10 11  1  0  0  0
 10 20  1  0  0  0
 11 12  1  0  0  0
 20 21  1  0  0  0
 21 22  1  0  0  0
 22 23  2  0  0  0
 22 25  1  0  0  0
 23 24  1  0  0  0
 24 27  2  0  0  0
 25 26  2  0  0  0
 26 27  1  0  0  0
 17 19  1  0  0  0
  3 13  1  0  0  0
  5 14  1  0  0  0
  7 15  1  0  0  0
 11 16  1  0  0  0
M  CHG 1   8   1
M  END
> <minimizedAffinity>
-8.51732

$$$$
