5AHW_CMP_A_1148


 26 29  0  0  0  0  0  0  0  0999 V2000
   -6.8653   -7.2110   20.2436 P   0  0  0  0  0  0  0  0  0  0  0  0
   -6.2858   -5.9349   20.7788 O   0  0  0  0  0  0  0  0  0  0  0  0
   -8.2986   -7.4464   20.1223 O   0  0  0  0  0  0  0  0  0  0  0  0
   -6.4600   -8.3724   21.2789 O   0  0  0  0  0  0  0  0  0  0  0  0
   -6.3502   -9.7196   20.9127 C   0  0  0  0  0  0  0  0  0  0  0  0
   -5.4895   -9.7567   19.6598 C   0  0  0  0  0  0  0  0  0  0  0  0
   -5.3659  -11.0277   19.0969 O   0  0  0  0  0  0  0  0  0  0  0  0
   -6.1101   -8.9301   18.5392 C   0  0  0  0  0  0  0  0  0  0  0  0
   -5.9691   -7.5955   18.9573 O   0  0  0  0  0  0  0  0  0  0  0  0
   -5.3592   -9.4502   17.3410 C   0  0  0  0  0  0  0  0  0  0  0  0
   -4.0780   -8.8996   17.1897 O   0  0  0  0  0  0  0  0  0  0  0  0
   -5.2834  -10.9496   17.6653 C   0  0  0  0  0  0  0  0  0  0  0  0
   -8.7402   -7.1832   20.9449 H   0  0  0  0  0  0  0  0  0  0  0  0
   -3.5559   -9.0708   17.9891 H   0  0  0  0  0  0  0  0  0  0  0  0
   -6.4210  -11.6625   17.0296 N   0  0  0  0  0  0  0  0  0  0  0  0
   -7.5423  -12.0944   17.5769 C   0  0  0  0  0  0  0  0  0  0  0  0
   -8.3358  -12.6830   16.6395 N   0  0  0  0  0  0  0  0  0  0  0  0
   -7.7133  -12.6062   15.4611 C   0  0  0  0  0  0  0  0  0  0  0  0
   -7.9589  -12.9465   14.0188 C   0  0  0  0  0  0  0  0  0  0  0  0
   -9.0467  -13.5680   13.6081 N   0  0  0  0  0  0  0  0  0  0  0  0
   -7.0521  -12.6445   13.0954 N   0  0  0  0  0  0  0  0  0  0  0  0
   -5.9013  -12.0735   13.4285 C   0  0  0  0  0  0  0  0  0  0  0  0
   -5.6349  -11.6760   14.6837 N   0  0  0  0  0  0  0  0  0  0  0  0
   -6.4795  -11.9165   15.7249 C   0  0  0  0  0  0  0  0  0  0  0  0
   -9.7475  -13.8129   14.2548 H   0  0  0  0  0  0  0  0  0  0  0  0
   -9.1582  -13.7873   12.6549 H   0  0  0  0  0  0  0  0  0  0  0  0
  1  2  2  0  0  0
  1  3  1  0  0  0
  1  4  1  0  0  0
  1  9  1  0  0  0
  4  5  1  0  0  0
  5  6  1  0  0  0
  6  7  1  0  0  0
  6  8  1  0  0  0
  7 12  1  0  0  0
  8  9  1  0  0  0
  8 10  1  0  0  0
 10 11  1  0  0  0
 10 12  1  0  0  0
 12 15  1  0  0  0
 15 16  1  0  0  0
 15 24  1  0  0  0
 16 17  2  0  0  0
 17 18  1  0  0  0
 18 19  1  0  0  0
 18 24  2  0  0  0
 19 20  1  0  0  0
 19 21  2  0  0  0
 21 22  1  0  0  0
 22 23  2  0  0  0
 23 24  1  0  0  0
  3 13  1  0  0  0
 11 14  1  0  0  0
 20 25  1  0  0  0
 20 26  1  0  0  0
M  END
> <minimizedAffinity>
-10.38911

$$$$
5AHW_CMP_A_1148


 26 29  0  0  0  0  0  0  0  0999 V2000
   -6.3763   -7.0003   20.5707 P   0  0  0  0  0  0  0  0  0  0  0  0
   -6.5283   -6.4226   21.9469 O   0  0  0  0  0  0  0  0  0  0  0  0
   -5.6365   -6.3363   19.5047 O   0  0  0  0  0  0  0  0  0  0  0  0
   -7.8479   -7.0495   19.9251 O   0  0  0  0  0  0  0  0  0  0  0  0
   -8.2119   -7.9524   18.9185 C   0  0  0  0  0  0  0  0  0  0  0  0
   -7.7561   -9.3256   19.3860 C   0  0  0  0  0  0  0  0  0  0  0  0
   -7.9498  -10.3363   18.4435 O   0  0  0  0  0  0  0  0  0  0  0  0
   -6.2519   -9.3533   19.6332 C   0  0  0  0  0  0  0  0  0  0  0  0
   -6.0630   -8.5693   20.7845 O   0  0  0  0  0  0  0  0  0  0  0  0
   -5.9854  -10.8360   19.6529 C   0  0  0  0  0  0  0  0  0  0  0  0
   -6.3098  -11.4561   20.8687 O   0  0  0  0  0  0  0  0  0  0  0  0
   -6.9053  -11.3187   18.5216 C   0  0  0  0  0  0  0  0  0  0  0  0
   -5.8984   -5.4033   19.4621 H   0  0  0  0  0  0  0  0  0  0  0  0
   -7.2454  -11.3000   21.0717 H   0  0  0  0  0  0  0  0  0  0  0  0
   -6.1459  -11.3869   17.2469 N   0  0  0  0  0  0  0  0  0  0  0  0
   -4.8985  -11.0300   17.0016 C   0  0  0  0  0  0  0  0  0  0  0  0
   -4.5786  -11.2741   15.7006 N   0  0  0  0  0  0  0  0  0  0  0  0
   -5.6426  -11.8192   15.1066 C   0  0  0  0  0  0  0  0  0  0  0  0
   -6.0331  -12.3970   13.7762 C   0  0  0  0  0  0  0  0  0  0  0  0
   -5.2231  -12.4028   12.7360 N   0  0  0  0  0  0  0  0  0  0  0  0
   -7.2461  -12.9102   13.5986 N   0  0  0  0  0  0  0  0  0  0  0  0
   -8.1461  -12.8904   14.5738 C   0  0  0  0  0  0  0  0  0  0  0  0
   -7.8539  -12.4550   15.8105 N   0  0  0  0  0  0  0  0  0  0  0  0
   -6.6472  -11.9107   16.1313 C   0  0  0  0  0  0  0  0  0  0  0  0
   -4.3141  -12.0336   12.8179 H   0  0  0  0  0  0  0  0  0  0  0  0
   -5.5272  -12.7762   11.8773 H   0  0  0  0  0  0  0  0  0  0  0  0
  1  2  2  0  0  0
  1  3  1  0  0  0
  1  4  1  0  0  0
  1  9  1  0  0  0
  4  5  1  0  0  0
  5  6  1  0  0  0
  6  7  1  0  0  0
  6  8  1  0  0  0
  7 12  1  0  0  0
  8  9  1  0  0  0
  8 10  1  0  0  0
 10 11  1  0  0  0
 10 12  1  0  0  0
 12 15  1  0  0  0
 15 16  1  0  0  0
 15 24  1  0  0  0
 16 17  2  0  0  0
 17 18  1  0  0  0
 18 19  1  0  0  0
 18 24  2  0  0  0
 19 20  1  0  0  0
 19 21  2  0  0  0
 21 22  1  0  0  0
 22 23  2  0  0  0
 23 24  1  0  0  0
  3 13  1  0  0  0
 11 14  1  0  0  0
 20 25  1  0  0  0
 20 26  1  0  0  0
M  END
> <minimizedAffinity>
-8.29977

$$$$
5AHW_CMP_A_1148


 26 29  0  0  0  0  0  0  0  0999 V2000
   -6.9350   -7.3408   20.2356 P   0  0  0  0  0  0  0  0  0  0  0  0
   -6.3576   -6.1299   20.9072 O   0  0  0  0  0  0  0  0  0  0  0  0
   -8.3640   -7.5246   20.0148 O   0  0  0  0  0  0  0  0  0  0  0  0
   -6.6185   -8.5943   21.1915 O   0  0  0  0  0  0  0  0  0  0  0  0
   -6.5196   -9.9095   20.7209 C   0  0  0  0  0  0  0  0  0  0  0  0
   -5.5883   -9.8682   19.5196 C   0  0  0  0  0  0  0  0  0  0  0  0
   -5.4622  -11.0918   18.8604 O   0  0  0  0  0  0  0  0  0  0  0  0
   -6.1227   -8.9353   18.4388 C   0  0  0  0  0  0  0  0  0  0  0  0
   -5.9747   -7.6440   18.9741 O   0  0  0  0  0  0  0  0  0  0  0  0
   -5.3157   -9.3766   17.2455 C   0  0  0  0  0  0  0  0  0  0  0  0
   -4.0151   -8.8521   17.2128 O   0  0  0  0  0  0  0  0  0  0  0  0
   -5.2946  -10.8990   17.4472 C   0  0  0  0  0  0  0  0  0  0  0  0
   -8.8465   -7.3172   20.8303 H   0  0  0  0  0  0  0  0  0  0  0  0
   -3.5448   -9.1031   18.0232 H   0  0  0  0  0  0  0  0  0  0  0  0
   -6.4097  -11.5247   16.6913 N   0  0  0  0  0  0  0  0  0  0  0  0
   -6.5158  -11.7422   15.3933 C   0  0  0  0  0  0  0  0  0  0  0  0
   -7.6952  -12.3600   15.1071 N   0  0  0  0  0  0  0  0  0  0  0  0
   -8.3484  -12.5597   16.2541 C   0  0  0  0  0  0  0  0  0  0  0  0
   -9.6109  -13.2064   16.7483 C   0  0  0  0  0  0  0  0  0  0  0  0
  -10.4998  -13.7463   15.9380 N   0  0  0  0  0  0  0  0  0  0  0  0
   -9.8862  -13.2316   18.0482 N   0  0  0  0  0  0  0  0  0  0  0  0
   -9.0767  -12.6577   18.9296 C   0  0  0  0  0  0  0  0  0  0  0  0
   -7.8975  -12.1203   18.5764 N   0  0  0  0  0  0  0  0  0  0  0  0
   -7.4885  -12.0345   17.2799 C   0  0  0  0  0  0  0  0  0  0  0  0
  -10.3408  -13.7520   14.9665 H   0  0  0  0  0  0  0  0  0  0  0  0
  -11.3225  -14.1439   16.3045 H   0  0  0  0  0  0  0  0  0  0  0  0
  1  2  2  0  0  0
  1  3  1  0  0  0
  1  4  1  0  0  0
  1  9  1  0  0  0
  4  5  1  0  0  0
  5  6  1  0  0  0
  6  7  1  0  0  0
  6  8  1  0  0  0
  7 12  1  0  0  0
  8  9  1  0  0  0
  8 10  1  0  0  0
 10 11  1  0  0  0
 10 12  1  0  0  0
 12 15  1  0  0  0
 15 16  1  0  0  0
 15 24  1  0  0  0
 16 17  2  0  0  0
 17 18  1  0  0  0
 18 19  1  0  0  0
 18 24  2  0  0  0
 19 20  1  0  0  0
 19 21  2  0  0  0
 21 22  1  0  0  0
 22 23  2  0  0  0
 23 24  1  0  0  0
  3 13  1  0  0  0
 11 14  1  0  0  0
 20 25  1  0  0  0
 20 26  1  0  0  0
M  END
> <minimizedAffinity>
-8.21429

$$$$
5AHW_CMP_A_1148


 26 29  0  0  0  0  0  0  0  0999 V2000
  -11.3625   -8.4710   20.6719 P   0  0  0  0  0  0  0  0  0  0  0  0
  -12.0394   -7.6382   21.7202 O   0  0  0  0  0  0  0  0  0  0  0  0
  -12.0530   -8.9905   19.4981 O   0  0  0  0  0  0  0  0  0  0  0  0
  -10.9183   -9.8413   21.3860 O   0  0  0  0  0  0  0  0  0  0  0  0
   -9.8525  -10.6291   20.9338 C   0  0  0  0  0  0  0  0  0  0  0  0
   -8.6741   -9.6883   20.7383 C   0  0  0  0  0  0  0  0  0  0  0  0
   -7.5485  -10.3003   20.1850 O   0  0  0  0  0  0  0  0  0  0  0  0
   -9.0073   -8.5865   19.7388 C   0  0  0  0  0  0  0  0  0  0  0  0
   -9.9349   -7.7666   20.4046 O   0  0  0  0  0  0  0  0  0  0  0  0
   -7.6317   -8.0782   19.3935 C   0  0  0  0  0  0  0  0  0  0  0  0
   -7.0922   -7.2035   20.3483 O   0  0  0  0  0  0  0  0  0  0  0  0
   -6.8364   -9.3907   19.3319 C   0  0  0  0  0  0  0  0  0  0  0  0
  -12.8944   -9.3902   19.7684 H   0  0  0  0  0  0  0  0  0  0  0  0
   -7.0585   -7.6469   21.2104 H   0  0  0  0  0  0  0  0  0  0  0  0
   -6.7988   -9.8941   17.9350 N   0  0  0  0  0  0  0  0  0  0  0  0
   -6.0840   -9.4598   16.9133 C   0  0  0  0  0  0  0  0  0  0  0  0
   -6.3291  -10.2117   15.8046 N   0  0  0  0  0  0  0  0  0  0  0  0
   -7.2071  -11.1620   16.1332 C   0  0  0  0  0  0  0  0  0  0  0  0
   -7.8823  -12.3525   15.5140 C   0  0  0  0  0  0  0  0  0  0  0  0
   -7.7234  -12.6836   14.2477 N   0  0  0  0  0  0  0  0  0  0  0  0
   -8.6990  -13.1111   16.2376 N   0  0  0  0  0  0  0  0  0  0  0  0
   -8.9641  -12.8151   17.5040 C   0  0  0  0  0  0  0  0  0  0  0  0
   -8.3493  -11.8102   18.1493 N   0  0  0  0  0  0  0  0  0  0  0  0
   -7.4847  -10.9596   17.5294 C   0  0  0  0  0  0  0  0  0  0  0  0
   -7.1284  -12.1521   13.6709 H   0  0  0  0  0  0  0  0  0  0  0  0
   -8.1997  -13.4623   13.8790 H   0  0  0  0  0  0  0  0  0  0  0  0
  1  2  2  0  0  0
  1  3  1  0  0  0
  1  4  1  0  0  0
  1  9  1  0  0  0
  4  5  1  0  0  0
  5  6  1  0  0  0
  6  7  1  0  0  0
  6  8  1  0  0  0
  7 12  1  0  0  0
  8  9  1  0  0  0
  8 10  1  0  0  0
 10 11  1  0  0  0
 10 12  1  0  0  0
 12 15  1  0  0  0
 15 16  1  0  0  0
 15 24  1  0  0  0
 16 17  2  0  0  0
 17 18  1  0  0  0
 18 19  1  0  0  0
 18 24  2  0  0  0
 19 20  1  0  0  0
 19 21  2  0  0  0
 21 22  1  0  0  0
 22 23  2  0  0  0
 23 24  1  0  0  0
  3 13  1  0  0  0
 11 14  1  0  0  0
 20 25  1  0  0  0
 20 26  1  0  0  0
M  END
> <minimizedAffinity>
-7.53312

$$$$
5AHW_CMP_A_1148


 26 29  0  0  0  0  0  0  0  0999 V2000
  -11.2259   -8.2540   20.6708 P   0  0  0  0  0  0  0  0  0  0  0  0
  -11.4846   -7.0786   21.5666 O   0  0  0  0  0  0  0  0  0  0  0  0
  -12.1048   -8.6252   19.5690 O   0  0  0  0  0  0  0  0  0  0  0  0
  -11.3316   -9.5682   21.5910 O   0  0  0  0  0  0  0  0  0  0  0  0
  -10.6773  -10.7687   21.2882 C   0  0  0  0  0  0  0  0  0  0  0  0
   -9.2314  -10.4072   20.9869 C   0  0  0  0  0  0  0  0  0  0  0  0
   -8.4566  -11.4864   20.5597 O   0  0  0  0  0  0  0  0  0  0  0  0
   -9.1391   -9.4219   19.8272 C   0  0  0  0  0  0  0  0  0  0  0  0
   -9.6465   -8.2155   20.3400 O   0  0  0  0  0  0  0  0  0  0  0  0
   -7.6871   -9.5524   19.4467 C   0  0  0  0  0  0  0  0  0  0  0  0
   -6.8149   -8.8315   20.2756 O   0  0  0  0  0  0  0  0  0  0  0  0
   -7.4741  -11.0657   19.6006 C   0  0  0  0  0  0  0  0  0  0  0  0
  -13.0258   -8.6173   19.8733 H   0  0  0  0  0  0  0  0  0  0  0  0
   -6.9285   -9.1211   21.1943 H   0  0  0  0  0  0  0  0  0  0  0  0
   -7.6853  -11.7414   18.2948 N   0  0  0  0  0  0  0  0  0  0  0  0
   -8.7253  -12.4403   17.8785 C   0  0  0  0  0  0  0  0  0  0  0  0
   -8.5288  -12.8761   16.6033 N   0  0  0  0  0  0  0  0  0  0  0  0
   -7.3421  -12.4264   16.1891 C   0  0  0  0  0  0  0  0  0  0  0  0
   -6.4936  -12.4257   14.9495 C   0  0  0  0  0  0  0  0  0  0  0  0
   -6.8393  -13.0632   13.8485 N   0  0  0  0  0  0  0  0  0  0  0  0
   -5.3288  -11.7859   14.9353 N   0  0  0  0  0  0  0  0  0  0  0  0
   -4.8746  -11.1691   16.0191 C   0  0  0  0  0  0  0  0  0  0  0  0
   -5.6023  -11.0655   17.1434 N   0  0  0  0  0  0  0  0  0  0  0  0
   -6.8153  -11.6675   17.2909 C   0  0  0  0  0  0  0  0  0  0  0  0
   -7.6931  -13.5519   13.8102 H   0  0  0  0  0  0  0  0  0  0  0  0
   -6.2437  -13.0506   13.0647 H   0  0  0  0  0  0  0  0  0  0  0  0
  1  2  2  0  0  0
  1  3  1  0  0  0
  1  4  1  0  0  0
  1  9  1  0  0  0
  4  5  1  0  0  0
  5  6  1  0  0  0
  6  7  1  0  0  0
  6  8  1  0  0  0
  7 12  1  0  0  0
  8  9  1  0  0  0
  8 10  1  0  0  0
 10 11  1  0  0  0
 10 12  1  0  0  0
 12 15  1  0  0  0
 15 16  1  0  0  0
 15 24  1  0  0  0
 16 17  2  0  0  0
 17 18  1  0  0  0
 18 19  1  0  0  0
 18 24  2  0  0  0
 19 20  1  0  0  0
 19 21  2  0  0  0
 21 22  1  0  0  0
 22 23  2  0  0  0
 23 24  1  0  0  0
  3 13  1  0  0  0
 11 14  1  0  0  0
 20 25  1  0  0  0
 20 26  1  0  0  0
M  END
> <minimizedAffinity>
-7.41858

$$$$
