4Z1J_4KC_A_302


 24 26  0  0  0  0  0  0  0  0999 V2000
   18.8305   11.0008   11.7503 C   0  0  0  0  0  0  0  0  0  0  0  0
   18.6364    9.9350   12.6523 C   0  0  0  0  0  0  0  0  0  0  0  0
   16.4799    7.1588   13.2078 C   0  0  0  0  0  0  0  0  0  0  0  0
   18.0843    8.6276   12.0978 C   0  0  0  0  0  0  0  0  0  0  0  0
   18.6361    7.7481   14.2885 C   0  0  0  0  0  0  0  0  0  0  0  0
   18.7218    9.0722   15.0119 C   0  0  0  0  0  0  0  0  0  0  0  0
   18.9169   10.1414   14.0373 C   0  0  0  0  0  0  0  0  0  0  0  0
   15.6054    7.4052   12.3426 O   0  0  0  0  0  0  0  0  0  0  0  0
   17.7105    7.7443   13.1843 N   0  0  0  0  0  0  0  0  0  0  0  0
   19.4227   11.3605   14.5345 C   0  0  0  0  0  0  0  0  0  0  0  0
   19.6201   12.4107   13.6286 C   0  0  0  0  0  0  0  0  0  0  0  0
   19.3221   12.2214   12.2542 C   0  0  0  0  0  0  0  0  0  0  0  0
   16.1126    6.1379   14.2287 C   0  0  0  0  0  0  0  0  0  0  0  0
   16.8593    4.9388   14.3600 C   0  0  0  0  0  0  0  0  0  0  0  0
   16.4256    3.9895   15.2951 C   0  0  0  0  0  0  0  0  0  0  0  0
   14.9936    6.3557   15.0036 C   0  0  0  0  0  0  0  0  0  0  0  0
   14.5873    5.3950   15.9012 C   0  0  0  0  0  0  0  0  0  0  0  0
   15.2876    4.1843   16.1005 C   0  0  0  0  0  0  0  0  0  0  0  0
   14.7075    3.0347   17.2400 S   0  0  0  0  0  0  0  0  0  0  0  0
   15.5949    1.7063   17.0701 N   0  0  0  0  0  0  0  0  0  0  0  0
   13.3026    2.8265   16.8478 O   0  0  0  0  0  0  0  0  0  0  0  0
   14.9292    3.5703   18.5376 O   0  0  0  0  0  0  0  0  0  0  0  0
   15.4436    1.3128   16.1412 H   0  0  0  0  0  0  0  0  0  0  0  0
   15.3231    1.0231   17.7771 H   0  0  0  0  0  0  0  0  0  0  0  0
  1 12  2  0  0  0
  1  2  1  0  0  0
  4  2  1  0  0  0
  4  9  1  0  0  0
 12 11  1  0  0  0
  8  3  2  0  0  0
  2  7  2  0  0  0
  9  3  1  0  0  0
  9  5  1  0  0  0
  3 13  1  0  0  0
 11 10  2  0  0  0
  7 10  1  0  0  0
  7  6  1  0  0  0
  5  6  1  0  0  0
 13 14  2  0  0  0
 13 16  1  0  0  0
 14 15  1  0  0  0
 16 17  2  0  0  0
 15 18  2  0  0  0
 17 18  1  0  0  0
 18 19  1  0  0  0
 20 19  1  0  0  0
 19 21  2  0  0  0
 19 22  2  0  0  0
 20 23  1  0  0  0
 20 24  1  0  0  0
M  END
> <minimizedAffinity>
-8.56609

$$$$
4Z1J_4KC_A_302


 24 26  0  0  0  0  0  0  0  0999 V2000
   15.9610    2.8105   15.9359 C   0  0  0  0  0  0  0  0  0  0  0  0
   16.0305    4.0946   15.3584 C   0  0  0  0  0  0  0  0  0  0  0  0
   18.4205    6.4822   14.2386 C   0  0  0  0  0  0  0  0  0  0  0  0
   17.1842    4.3829   14.4057 C   0  0  0  0  0  0  0  0  0  0  0  0
   15.9583    6.4184   13.9251 C   0  0  0  0  0  0  0  0  0  0  0  0
   15.0913    6.4182   15.1629 C   0  0  0  0  0  0  0  0  0  0  0  0
   15.0555    5.0715   15.7253 C   0  0  0  0  0  0  0  0  0  0  0  0
   19.4664    5.9389   14.6687 O   0  0  0  0  0  0  0  0  0  0  0  0
   17.2465    5.8010   14.1139 N   0  0  0  0  0  0  0  0  0  0  0  0
   13.9968    4.7891   16.6133 C   0  0  0  0  0  0  0  0  0  0  0  0
   13.9318    3.5075   17.1753 C   0  0  0  0  0  0  0  0  0  0  0  0
   14.9100    2.5377   16.8338 C   0  0  0  0  0  0  0  0  0  0  0  0
   18.5558    7.9034   13.8129 C   0  0  0  0  0  0  0  0  0  0  0  0
   18.5524    8.2545   12.4383 C   0  0  0  0  0  0  0  0  0  0  0  0
   18.7476    9.6002   12.0998 C   0  0  0  0  0  0  0  0  0  0  0  0
   18.7456    8.8650   14.7820 C   0  0  0  0  0  0  0  0  0  0  0  0
   18.9498   10.1750   14.4130 C   0  0  0  0  0  0  0  0  0  0  0  0
   18.9432   10.6042   13.0670 C   0  0  0  0  0  0  0  0  0  0  0  0
   19.2118   12.2608   12.6931 S   0  0  0  0  0  0  0  0  0  0  0  0
   18.9536   13.1005   14.0382 N   0  0  0  0  0  0  0  0  0  0  0  0
   18.2155   12.5531   11.6477 O   0  0  0  0  0  0  0  0  0  0  0  0
   20.5768   12.3991   12.3222 O   0  0  0  0  0  0  0  0  0  0  0  0
   17.9760   13.0085   14.3141 H   0  0  0  0  0  0  0  0  0  0  0  0
   19.1688   14.0836   13.8719 H   0  0  0  0  0  0  0  0  0  0  0  0
  1 12  2  0  0  0
  1  2  1  0  0  0
  4  2  1  0  0  0
  4  9  1  0  0  0
 12 11  1  0  0  0
  8  3  2  0  0  0
  2  7  2  0  0  0
  9  3  1  0  0  0
  9  5  1  0  0  0
  3 13  1  0  0  0
 11 10  2  0  0  0
  7 10  1  0  0  0
  7  6  1  0  0  0
  5  6  1  0  0  0
 13 14  2  0  0  0
 13 16  1  0  0  0
 14 15  1  0  0  0
 16 17  2  0  0  0
 15 18  2  0  0  0
 17 18  1  0  0  0
 18 19  1  0  0  0
 20 19  1  0  0  0
 19 21  2  0  0  0
 19 22  2  0  0  0
 20 23  1  0  0  0
 20 24  1  0  0  0
M  END
> <minimizedAffinity>
-7.66521

$$$$
4Z1J_4KC_A_302


 24 26  0  0  0  0  0  0  0  0999 V2000
   20.3994    8.5423   10.7237 C   0  0  0  0  0  0  0  0  0  0  0  0
   19.8387    7.8719   11.8298 C   0  0  0  0  0  0  0  0  0  0  0  0
   17.3733    5.4245   12.6032 C   0  0  0  0  0  0  0  0  0  0  0  0
   19.3695    6.4365   11.6265 C   0  0  0  0  0  0  0  0  0  0  0  0
   19.1316    6.4301   14.0391 C   0  0  0  0  0  0  0  0  0  0  0  0
   19.1084    7.9284   14.2346 C   0  0  0  0  0  0  0  0  0  0  0  0
   19.6929    8.5757   13.0639 C   0  0  0  0  0  0  0  0  0  0  0  0
   16.8368    5.3136   11.4746 O   0  0  0  0  0  0  0  0  0  0  0  0
   18.5982    5.9978   12.7723 N   0  0  0  0  0  0  0  0  0  0  0  0
   20.1280    9.9066   13.2331 C   0  0  0  0  0  0  0  0  0  0  0  0
   20.6914   10.5613   12.1302 C   0  0  0  0  0  0  0  0  0  0  0  0
   20.8190    9.8767   10.8938 C   0  0  0  0  0  0  0  0  0  0  0  0
   16.6159    4.8339   13.7421 C   0  0  0  0  0  0  0  0  0  0  0  0
   15.7103    5.6206   14.4995 C   0  0  0  0  0  0  0  0  0  0  0  0
   15.0763    5.0246   15.5979 C   0  0  0  0  0  0  0  0  0  0  0  0
   16.8592    3.5208   14.0832 C   0  0  0  0  0  0  0  0  0  0  0  0
   16.2308    2.9721   15.1777 C   0  0  0  0  0  0  0  0  0  0  0  0
   15.3043    3.6862   15.9699 C   0  0  0  0  0  0  0  0  0  0  0  0
   14.5675    2.9256   17.3246 S   0  0  0  0  0  0  0  0  0  0  0  0
   15.3424    1.5403   17.5726 N   0  0  0  0  0  0  0  0  0  0  0  0
   13.1718    2.7208   16.8989 O   0  0  0  0  0  0  0  0  0  0  0  0
   14.7680    3.7700   18.4499 O   0  0  0  0  0  0  0  0  0  0  0  0
   15.2053    0.9256   16.7702 H   0  0  0  0  0  0  0  0  0  0  0  0
   14.9756    1.0910   18.4116 H   0  0  0  0  0  0  0  0  0  0  0  0
  1 12  2  0  0  0
  1  2  1  0  0  0
  4  2  1  0  0  0
  4  9  1  0  0  0
 12 11  1  0  0  0
  8  3  2  0  0  0
  2  7  2  0  0  0
  9  3  1  0  0  0
  9  5  1  0  0  0
  3 13  1  0  0  0
 11 10  2  0  0  0
  7 10  1  0  0  0
  7  6  1  0  0  0
  5  6  1  0  0  0
 13 14  2  0  0  0
 13 16  1  0  0  0
 14 15  1  0  0  0
 16 17  2  0  0  0
 15 18  2  0  0  0
 17 18  1  0  0  0
 18 19  1  0  0  0
 20 19  1  0  0  0
 19 21  2  0  0  0
 19 22  2  0  0  0
 20 23  1  0  0  0
 20 24  1  0  0  0
M  END
> <minimizedAffinity>
-7.49564

$$$$
4Z1J_4KC_A_302


 24 26  0  0  0  0  0  0  0  0999 V2000
   21.3120   10.9834   13.1515 C   0  0  0  0  0  0  0  0  0  0  0  0
   20.7184    9.7066   13.2190 C   0  0  0  0  0  0  0  0  0  0  0  0
   20.0921    6.8527   11.1868 C   0  0  0  0  0  0  0  0  0  0  0  0
   21.3259    8.5958   12.3711 C   0  0  0  0  0  0  0  0  0  0  0  0
   19.8480    7.1521   13.6394 C   0  0  0  0  0  0  0  0  0  0  0  0
   18.9016    8.2249   14.1265 C   0  0  0  0  0  0  0  0  0  0  0  0
   19.5585    9.5252   14.0321 C   0  0  0  0  0  0  0  0  0  0  0  0
   20.4402    7.3160   10.0741 O   0  0  0  0  0  0  0  0  0  0  0  0
   20.4511    7.4404   12.3629 N   0  0  0  0  0  0  0  0  0  0  0  0
   19.0059   10.5663   14.8068 C   0  0  0  0  0  0  0  0  0  0  0  0
   19.6081   11.8293   14.7392 C   0  0  0  0  0  0  0  0  0  0  0  0
   20.7474   12.0238   13.9157 C   0  0  0  0  0  0  0  0  0  0  0  0
   19.3132    5.5834   11.1458 C   0  0  0  0  0  0  0  0  0  0  0  0
   17.8960    5.5971   11.2089 C   0  0  0  0  0  0  0  0  0  0  0  0
   17.2238    4.3677   11.2306 C   0  0  0  0  0  0  0  0  0  0  0  0
   20.0020    4.3902   11.1063 C   0  0  0  0  0  0  0  0  0  0  0  0
   19.3103    3.2011   11.1449 C   0  0  0  0  0  0  0  0  0  0  0  0
   17.8999    3.1337   11.1908 C   0  0  0  0  0  0  0  0  0  0  0  0
   17.1149    1.6047   11.2418 S   0  0  0  0  0  0  0  0  0  0  0  0
   15.8555    1.6827   10.2474 N   0  0  0  0  0  0  0  0  0  0  0  0
   16.7105    1.4621   12.6514 O   0  0  0  0  0  0  0  0  0  0  0  0
   18.0306    0.6377   10.7457 O   0  0  0  0  0  0  0  0  0  0  0  0
   15.1909    2.3745   10.5941 H   0  0  0  0  0  0  0  0  0  0  0  0
   15.4026    0.7700   10.2001 H   0  0  0  0  0  0  0  0  0  0  0  0
  1 12  2  0  0  0
  1  2  1  0  0  0
  4  2  1  0  0  0
  4  9  1  0  0  0
 12 11  1  0  0  0
  8  3  2  0  0  0
  2  7  2  0  0  0
  9  3  1  0  0  0
  9  5  1  0  0  0
  3 13  1  0  0  0
 11 10  2  0  0  0
  7 10  1  0  0  0
  7  6  1  0  0  0
  5  6  1  0  0  0
 13 14  2  0  0  0
 13 16  1  0  0  0
 14 15  1  0  0  0
 16 17  2  0  0  0
 15 18  2  0  0  0
 17 18  1  0  0  0
 18 19  1  0  0  0
 20 19  1  0  0  0
 19 21  2  0  0  0
 19 22  2  0  0  0
 20 23  1  0  0  0
 20 24  1  0  0  0
M  END
> <minimizedAffinity>
-7.13889

$$$$
4Z1J_4KC_A_302


 24 26  0  0  0  0  0  0  0  0999 V2000
   20.2167    9.5741   10.6199 C   0  0  0  0  0  0  0  0  0  0  0  0
   19.4644    8.4892   11.1144 C   0  0  0  0  0  0  0  0  0  0  0  0
   17.5544    7.5365   13.9623 C   0  0  0  0  0  0  0  0  0  0  0  0
   18.2634    8.8026   11.9982 C   0  0  0  0  0  0  0  0  0  0  0  0
   17.7680    6.4432   11.7434 C   0  0  0  0  0  0  0  0  0  0  0  0
   19.1459    6.0029   11.3057 C   0  0  0  0  0  0  0  0  0  0  0  0
   19.8852    7.1593   10.8082 C   0  0  0  0  0  0  0  0  0  0  0  0
   17.8305    8.4962   14.7217 O   0  0  0  0  0  0  0  0  0  0  0  0
   17.7707    7.5886   12.6176 N   0  0  0  0  0  0  0  0  0  0  0  0
   21.0031    6.8871    9.9925 C   0  0  0  0  0  0  0  0  0  0  0  0
   21.7391    7.9722    9.4992 C   0  0  0  0  0  0  0  0  0  0  0  0
   21.3413    9.2967    9.8176 C   0  0  0  0  0  0  0  0  0  0  0  0
   16.9165    6.3577   14.6126 C   0  0  0  0  0  0  0  0  0  0  0  0
   15.5144    6.3138   14.8242 C   0  0  0  0  0  0  0  0  0  0  0  0
   14.9824    5.2064   15.4983 C   0  0  0  0  0  0  0  0  0  0  0  0
   17.7257    5.3353   15.0597 C   0  0  0  0  0  0  0  0  0  0  0  0
   17.1712    4.2701   15.7318 C   0  0  0  0  0  0  0  0  0  0  0  0
   15.7833    4.1474   15.9657 C   0  0  0  0  0  0  0  0  0  0  0  0
   15.1740    2.7847   16.8192 S   0  0  0  0  0  0  0  0  0  0  0  0
   13.5719    2.8306   16.7080 N   0  0  0  0  0  0  0  0  0  0  0  0
   15.6481    2.9910   18.1989 O   0  0  0  0  0  0  0  0  0  0  0  0
   15.6455    1.6195   16.1560 O   0  0  0  0  0  0  0  0  0  0  0  0
   13.2220    3.6638   17.1812 H   0  0  0  0  0  0  0  0  0  0  0  0
   13.1767    1.9991   17.1470 H   0  0  0  0  0  0  0  0  0  0  0  0
  1 12  2  0  0  0
  1  2  1  0  0  0
  4  2  1  0  0  0
  4  9  1  0  0  0
 12 11  1  0  0  0
  8  3  2  0  0  0
  2  7  2  0  0  0
  9  3  1  0  0  0
  9  5  1  0  0  0
  3 13  1  0  0  0
 11 10  2  0  0  0
  7 10  1  0  0  0
  7  6  1  0  0  0
  5  6  1  0  0  0
 13 14  2  0  0  0
 13 16  1  0  0  0
 14 15  1  0  0  0
 16 17  2  0  0  0
 15 18  2  0  0  0
 17 18  1  0  0  0
 18 19  1  0  0  0
 20 19  1  0  0  0
 19 21  2  0  0  0
 19 22  2  0  0  0
 20 23  1  0  0  0
 20 24  1  0  0  0
M  END
> <minimizedAffinity>
-7.02047

$$$$
4Z1J_4KC_A_302


 24 26  0  0  0  0  0  0  0  0999 V2000
   16.6863    2.5951   12.1231 C   0  0  0  0  0  0  0  0  0  0  0  0
   17.4541    3.7374   12.4278 C   0  0  0  0  0  0  0  0  0  0  0  0
   17.0598    7.1693   13.2841 C   0  0  0  0  0  0  0  0  0  0  0  0
   16.8744    4.7382   13.4200 C   0  0  0  0  0  0  0  0  0  0  0  0
   19.0839    5.7323   13.3355 C   0  0  0  0  0  0  0  0  0  0  0  0
   19.5306    5.0995   12.0378 C   0  0  0  0  0  0  0  0  0  0  0  0
   18.7043    3.9275   11.7643 C   0  0  0  0  0  0  0  0  0  0  0  0
   15.8257    7.2859   13.0909 O   0  0  0  0  0  0  0  0  0  0  0  0
   17.6626    5.9543   13.4185 N   0  0  0  0  0  0  0  0  0  0  0  0
   19.2236    2.9932   10.8442 C   0  0  0  0  0  0  0  0  0  0  0  0
   18.4567    1.8572   10.5544 C   0  0  0  0  0  0  0  0  0  0  0  0
   17.2026    1.6720   11.1922 C   0  0  0  0  0  0  0  0  0  0  0  0
   17.8182    8.4444   13.4202 C   0  0  0  0  0  0  0  0  0  0  0  0
   18.1936    9.1933   12.2753 C   0  0  0  0  0  0  0  0  0  0  0  0
   18.9609   10.3504   12.4652 C   0  0  0  0  0  0  0  0  0  0  0  0
   18.2008    8.8507   14.6805 C   0  0  0  0  0  0  0  0  0  0  0  0
   18.9674    9.9839   14.8290 C   0  0  0  0  0  0  0  0  0  0  0  0
   19.3658   10.7903   13.7396 C   0  0  0  0  0  0  0  0  0  0  0  0
   20.3285   12.1884   14.0136 S   0  0  0  0  0  0  0  0  0  0  0  0
   21.2115   11.9088   15.3264 N   0  0  0  0  0  0  0  0  0  0  0  0
   19.3411   13.2627   14.2184 O   0  0  0  0  0  0  0  0  0  0  0  0
   21.1985   12.3331   12.8992 O   0  0  0  0  0  0  0  0  0  0  0  0
   20.5967   11.8032   16.1334 H   0  0  0  0  0  0  0  0  0  0  0  0
   21.8460   12.6919   15.4825 H   0  0  0  0  0  0  0  0  0  0  0  0
  1 12  2  0  0  0
  1  2  1  0  0  0
  4  2  1  0  0  0
  4  9  1  0  0  0
 12 11  1  0  0  0
  8  3  2  0  0  0
  2  7  2  0  0  0
  9  3  1  0  0  0
  9  5  1  0  0  0
  3 13  1  0  0  0
 11 10  2  0  0  0
  7 10  1  0  0  0
  7  6  1  0  0  0
  5  6  1  0  0  0
 13 14  2  0  0  0
 13 16  1  0  0  0
 14 15  1  0  0  0
 16 17  2  0  0  0
 15 18  2  0  0  0
 17 18  1  0  0  0
 18 19  1  0  0  0
 20 19  1  0  0  0
 19 21  2  0  0  0
 19 22  2  0  0  0
 20 23  1  0  0  0
 20 24  1  0  0  0
M  END
> <minimizedAffinity>
-6.77333

$$$$
4Z1J_4KC_A_302


 24 26  0  0  0  0  0  0  0  0999 V2000
   16.0993    2.5903   16.1559 C   0  0  0  0  0  0  0  0  0  0  0  0
   15.9788    3.7595   15.3777 C   0  0  0  0  0  0  0  0  0  0  0  0
   17.9445    5.9400   13.3656 C   0  0  0  0  0  0  0  0  0  0  0  0
   16.8732    3.8908   14.1510 C   0  0  0  0  0  0  0  0  0  0  0  0
   15.4805    5.8089   13.6423 C   0  0  0  0  0  0  0  0  0  0  0  0
   14.9167    6.0113   15.0298 C   0  0  0  0  0  0  0  0  0  0  0  0
   15.0693    4.7780   15.7959 C   0  0  0  0  0  0  0  0  0  0  0  0
   19.0837    5.4833   13.6253 O   0  0  0  0  0  0  0  0  0  0  0  0
   16.8044    5.2402   13.6268 N   0  0  0  0  0  0  0  0  0  0  0  0
   14.2525    4.6422   16.9377 C   0  0  0  0  0  0  0  0  0  0  0  0
   14.3737    3.4729   17.6996 C   0  0  0  0  0  0  0  0  0  0  0  0
   15.2917    2.4657   17.3038 C   0  0  0  0  0  0  0  0  0  0  0  0
   17.9163    7.2702   12.6955 C   0  0  0  0  0  0  0  0  0  0  0  0
   18.3855    8.4310   13.3627 C   0  0  0  0  0  0  0  0  0  0  0  0
   18.2735    9.6625   12.7036 C   0  0  0  0  0  0  0  0  0  0  0  0
   17.3677    7.3597   11.4342 C   0  0  0  0  0  0  0  0  0  0  0  0
   17.2591    8.5877   10.8226 C   0  0  0  0  0  0  0  0  0  0  0  0
   17.7187    9.7849   11.4156 C   0  0  0  0  0  0  0  0  0  0  0  0
   17.5393   11.2788   10.5835 S   0  0  0  0  0  0  0  0  0  0  0  0
   15.9647   11.5247   10.3804 N   0  0  0  0  0  0  0  0  0  0  0  0
   18.2433   11.0595    9.3079 O   0  0  0  0  0  0  0  0  0  0  0  0
   18.0574   12.3009   11.4242 O   0  0  0  0  0  0  0  0  0  0  0  0
   15.5818   10.7962    9.7779 H   0  0  0  0  0  0  0  0  0  0  0  0
   15.8159   12.4365    9.9481 H   0  0  0  0  0  0  0  0  0  0  0  0
  1 12  2  0  0  0
  1  2  1  0  0  0
  4  2  1  0  0  0
  4  9  1  0  0  0
 12 11  1  0  0  0
  8  3  2  0  0  0
  2  7  2  0  0  0
  9  3  1  0  0  0
  9  5  1  0  0  0
  3 13  1  0  0  0
 11 10  2  0  0  0
  7 10  1  0  0  0
  7  6  1  0  0  0
  5  6  1  0  0  0
 13 14  2  0  0  0
 13 16  1  0  0  0
 14 15  1  0  0  0
 16 17  2  0  0  0
 15 18  2  0  0  0
 17 18  1  0  0  0
 18 19  1  0  0  0
 20 19  1  0  0  0
 19 21  2  0  0  0
 19 22  2  0  0  0
 20 23  1  0  0  0
 20 24  1  0  0  0
M  END
> <minimizedAffinity>
-6.71000

$$$$
4Z1J_4KC_A_302


 24 26  0  0  0  0  0  0  0  0999 V2000
   16.3384    2.6096   11.9923 C   0  0  0  0  0  0  0  0  0  0  0  0
   17.1702    3.6899   12.3501 C   0  0  0  0  0  0  0  0  0  0  0  0
   16.9859    7.1433   13.1910 C   0  0  0  0  0  0  0  0  0  0  0  0
   16.6060    4.7337   13.3062 C   0  0  0  0  0  0  0  0  0  0  0  0
   18.8861    5.5551   13.3683 C   0  0  0  0  0  0  0  0  0  0  0  0
   19.3661    4.8880   12.1001 C   0  0  0  0  0  0  0  0  0  0  0  0
   18.4717    3.7825   11.7695 C   0  0  0  0  0  0  0  0  0  0  0  0
   15.7795    7.3540   12.9189 O   0  0  0  0  0  0  0  0  0  0  0  0
   17.4837    5.8857   13.3600 N   0  0  0  0  0  0  0  0  0  0  0  0
   18.9763    2.8097   10.8817 C   0  0  0  0  0  0  0  0  0  0  0  0
   18.1449    1.7355   10.5390 C   0  0  0  0  0  0  0  0  0  0  0  0
   16.8416    1.6481   11.0935 C   0  0  0  0  0  0  0  0  0  0  0  0
   17.8294    8.3565   13.3804 C   0  0  0  0  0  0  0  0  0  0  0  0
   18.2105    8.7823   14.6789 C   0  0  0  0  0  0  0  0  0  0  0  0
   18.9505    9.9665   14.7952 C   0  0  0  0  0  0  0  0  0  0  0  0
   18.1820    9.0923   12.2694 C   0  0  0  0  0  0  0  0  0  0  0  0
   18.8959   10.2589   12.4217 C   0  0  0  0  0  0  0  0  0  0  0  0
   19.3255   10.7383   13.6793 C   0  0  0  0  0  0  0  0  0  0  0  0
   20.2100   12.2094   13.7806 S   0  0  0  0  0  0  0  0  0  0  0  0
   20.7235   12.5592   12.2990 N   0  0  0  0  0  0  0  0  0  0  0  0
   21.3174   11.8933   14.6996 O   0  0  0  0  0  0  0  0  0  0  0  0
   19.3071   13.2224   14.2031 O   0  0  0  0  0  0  0  0  0  0  0  0
   21.3730   11.8380   11.9852 H   0  0  0  0  0  0  0  0  0  0  0  0
   21.1970   13.4626   12.3077 H   0  0  0  0  0  0  0  0  0  0  0  0
  1 12  2  0  0  0
  1  2  1  0  0  0
  4  2  1  0  0  0
  4  9  1  0  0  0
 12 11  1  0  0  0
  8  3  2  0  0  0
  2  7  2  0  0  0
  9  3  1  0  0  0
  9  5  1  0  0  0
  3 13  1  0  0  0
 11 10  2  0  0  0
  7 10  1  0  0  0
  7  6  1  0  0  0
  5  6  1  0  0  0
 13 14  2  0  0  0
 13 16  1  0  0  0
 14 15  1  0  0  0
 16 17  2  0  0  0
 15 18  2  0  0  0
 17 18  1  0  0  0
 18 19  1  0  0  0
 20 19  1  0  0  0
 19 21  2  0  0  0
 19 22  2  0  0  0
 20 23  1  0  0  0
 20 24  1  0  0  0
M  END
> <minimizedAffinity>
-6.70837

$$$$
4Z1J_4KC_A_302


 24 26  0  0  0  0  0  0  0  0999 V2000
   14.5716   14.1049   10.3778 C   0  0  0  0  0  0  0  0  0  0  0  0
   15.4185   12.9780   10.3840 C   0  0  0  0  0  0  0  0  0  0  0  0
   15.3170    9.4631   10.9338 C   0  0  0  0  0  0  0  0  0  0  0  0
   14.8267   11.6431    9.9485 C   0  0  0  0  0  0  0  0  0  0  0  0
   17.1280   10.8826   10.0011 C   0  0  0  0  0  0  0  0  0  0  0  0
   17.6764   11.9874   10.8744 C   0  0  0  0  0  0  0  0  0  0  0  0
   16.7640   13.1265   10.8390 C   0  0  0  0  0  0  0  0  0  0  0  0
   14.1455    9.3602   11.3709 O   0  0  0  0  0  0  0  0  0  0  0  0
   15.7459   10.5662   10.2579 N   0  0  0  0  0  0  0  0  0  0  0  0
   17.2942   14.3692   11.2439 C   0  0  0  0  0  0  0  0  0  0  0  0
   16.4469   15.4847   11.2261 C   0  0  0  0  0  0  0  0  0  0  0  0
   15.1017   15.3412   10.7971 C   0  0  0  0  0  0  0  0  0  0  0  0
   16.1943    8.2777   11.1445 C   0  0  0  0  0  0  0  0  0  0  0  0
   16.8562    8.0733   12.3826 C   0  0  0  0  0  0  0  0  0  0  0  0
   17.7179    6.9742   12.4975 C   0  0  0  0  0  0  0  0  0  0  0  0
   16.3979    7.4144   10.0895 C   0  0  0  0  0  0  0  0  0  0  0  0
   17.2632    6.3539   10.2324 C   0  0  0  0  0  0  0  0  0  0  0  0
   17.9451    6.0756   11.4380 C   0  0  0  0  0  0  0  0  0  0  0  0
   19.0133    4.7312   11.5294 S   0  0  0  0  0  0  0  0  0  0  0  0
   20.3160    5.2122   12.3373 N   0  0  0  0  0  0  0  0  0  0  0  0
   19.3090    4.4187   10.1202 O   0  0  0  0  0  0  0  0  0  0  0  0
   18.3590    3.7160   12.2785 O   0  0  0  0  0  0  0  0  0  0  0  0
   20.7940    5.9416   11.8083 H   0  0  0  0  0  0  0  0  0  0  0  0
   20.9453    4.4205   12.4699 H   0  0  0  0  0  0  0  0  0  0  0  0
  1 12  2  0  0  0
  1  2  1  0  0  0
  4  2  1  0  0  0
  4  9  1  0  0  0
 12 11  1  0  0  0
  8  3  2  0  0  0
  2  7  2  0  0  0
  9  3  1  0  0  0
  9  5  1  0  0  0
  3 13  1  0  0  0
 11 10  2  0  0  0
  7 10  1  0  0  0
  7  6  1  0  0  0
  5  6  1  0  0  0
 13 14  2  0  0  0
 13 16  1  0  0  0
 14 15  1  0  0  0
 16 17  2  0  0  0
 15 18  2  0  0  0
 17 18  1  0  0  0
 18 19  1  0  0  0
 20 19  1  0  0  0
 19 21  2  0  0  0
 19 22  2  0  0  0
 20 23  1  0  0  0
 20 24  1  0  0  0
M  END
> <minimizedAffinity>
-6.37158

$$$$
4Z1J_4KC_A_302


 24 26  0  0  0  0  0  0  0  0999 V2000
   18.7268    1.6597   10.5890 C   0  0  0  0  0  0  0  0  0  0  0  0
   18.5410    2.9789   11.0497 C   0  0  0  0  0  0  0  0  0  0  0  0
   20.3945    5.9355   11.7497 C   0  0  0  0  0  0  0  0  0  0  0  0
   19.4599    4.0605   10.4950 C   0  0  0  0  0  0  0  0  0  0  0  0
   17.9405    5.5832   11.6131 C   0  0  0  0  0  0  0  0  0  0  0  0
   17.3204    4.5786   12.5567 C   0  0  0  0  0  0  0  0  0  0  0  0
   17.5436    3.2316   12.0401 C   0  0  0  0  0  0  0  0  0  0  0  0
   21.5569    5.4789   11.6307 O   0  0  0  0  0  0  0  0  0  0  0  0
   19.3039    5.2844   11.2552 N   0  0  0  0  0  0  0  0  0  0  0  0
   16.7049    2.2172   12.5468 C   0  0  0  0  0  0  0  0  0  0  0  0
   16.8919    0.9109   12.0764 C   0  0  0  0  0  0  0  0  0  0  0  0
   17.8963    0.6472   11.1091 C   0  0  0  0  0  0  0  0  0  0  0  0
   20.2849    7.2660   12.4110 C   0  0  0  0  0  0  0  0  0  0  0  0
   20.9694    8.3950   11.8919 C   0  0  0  0  0  0  0  0  0  0  0  0
   20.8781    9.6037   12.5949 C   0  0  0  0  0  0  0  0  0  0  0  0
   19.5520    7.3639   13.5742 C   0  0  0  0  0  0  0  0  0  0  0  0
   19.4967    8.5629   14.2473 C   0  0  0  0  0  0  0  0  0  0  0  0
   20.1370    9.7341   13.7846 C   0  0  0  0  0  0  0  0  0  0  0  0
   20.0208   11.1909   14.6906 S   0  0  0  0  0  0  0  0  0  0  0  0
   21.4491   11.9213   14.6031 N   0  0  0  0  0  0  0  0  0  0  0  0
   19.7056   10.7340   16.0554 O   0  0  0  0  0  0  0  0  0  0  0  0
   19.0479   12.0110   14.0578 O   0  0  0  0  0  0  0  0  0  0  0  0
   22.1560   11.3410   15.0548 H   0  0  0  0  0  0  0  0  0  0  0  0
   21.3986   12.8244   15.0746 H   0  0  0  0  0  0  0  0  0  0  0  0
  1 12  2  0  0  0
  1  2  1  0  0  0
  4  2  1  0  0  0
  4  9  1  0  0  0
 12 11  1  0  0  0
  8  3  2  0  0  0
  2  7  2  0  0  0
  9  3  1  0  0  0
  9  5  1  0  0  0
  3 13  1  0  0  0
 11 10  2  0  0  0
  7 10  1  0  0  0
  7  6  1  0  0  0
  5  6  1  0  0  0
 13 14  2  0  0  0
 13 16  1  0  0  0
 14 15  1  0  0  0
 16 17  2  0  0  0
 15 18  2  0  0  0
 17 18  1  0  0  0
 18 19  1  0  0  0
 20 19  1  0  0  0
 19 21  2  0  0  0
 19 22  2  0  0  0
 20 23  1  0  0  0
 20 24  1  0  0  0
M  END
> <minimizedAffinity>
-6.33307

$$$$
