1I9N_IOA_A_555


 25 26  0  0  0  0  0  0  0  0999 V2000
   -5.6450    5.7165   13.6894 C   0  0  0  0  0  0  0  0  0  0  0  0
   -4.6287    6.4463   13.6368 O   0  0  0  0  0  0  0  0  0  0  0  0
   -6.9029    6.2192   13.1715 N   0  0  0  0  0  0  0  0  0  0  0  0
   -7.7681    5.8759   13.4921 H   0  0  0  0  0  0  0  0  0  0  0  0
   -4.1877    3.7227   14.3066 C   0  0  0  0  0  0  0  0  0  0  0  0
   -3.9736    2.4592   14.8754 C   0  0  0  0  0  0  0  0  0  0  0  0
   -5.0758    1.7703   15.4997 C   0  0  0  0  0  0  0  0  0  0  0  0
   -6.3242    2.3988   15.5286 C   0  0  0  0  0  0  0  0  0  0  0  0
   -6.5052    3.6687   14.9571 C   0  0  0  0  0  0  0  0  0  0  0  0
   -5.4510    4.3415   14.3346 C   0  0  0  0  0  0  0  0  0  0  0  0
   -4.7600    0.1484   16.1987 S   0  0  0  0  0  0  0  0  0  0  0  0
   -5.9257   -0.3405   17.3202 N   0  0  0  0  0  0  0  0  0  0  0  0
   -3.4071    0.3202   16.7176 O   0  0  0  0  0  0  0  0  0  0  0  0
   -4.7086   -0.6682   14.9710 O   0  0  0  0  0  0  0  0  0  0  0  0
   -5.8935    0.2738   18.1338 H   0  0  0  0  0  0  0  0  0  0  0  0
   -5.7367   -1.2998   17.6108 H   0  0  0  0  0  0  0  0  0  0  0  0
   -6.8220    7.2583   12.1526 C   0  0  0  0  0  0  0  0  0  0  0  0
   -7.0747    6.9760   10.7959 C   0  0  0  0  0  0  0  0  0  0  0  0
   -8.2287    7.5873   10.1484 C   0  0  0  0  0  0  0  0  0  0  0  0
   -8.4916    7.2859    8.7446 C   0  0  0  0  0  0  0  0  0  0  0  0
   -7.6035    6.3863    8.0238 C   0  0  0  0  0  0  0  0  0  0  0  0
   -6.4420    5.7835    8.6940 C   0  0  0  0  0  0  0  0  0  0  0  0
   -6.1778    6.0736   10.0686 C   0  0  0  0  0  0  0  0  0  0  0  0
   -5.2174    5.5614   10.5955 F   0  0  0  0  0  0  0  0  0  0  0  0
   -9.5649    7.8405    8.1152 F   0  0  0  0  0  0  0  0  0  0  0  0
  5  6  2  0  0  0
  5 10  1  0  0  0
  6  7  1  0  0  0
  7  8  2  0  0  0
  7 11  1  0  0  0
  8  9  1  0  0  0
  9 10  2  0  0  0
 10  1  1  0  0  0
  1  2  2  0  0  0
  1  3  1  0  0  0
  3 17  1  0  0  0
 17 18  1  0  0  0
 11 12  1  0  0  0
 11 13  2  0  0  0
 11 14  2  0  0  0
 18 19  2  0  0  0
 18 23  1  0  0  0
 19 20  1  0  0  0
 20 21  2  0  0  0
 20 25  1  0  0  0
 21 22  1  0  0  0
 22 23  2  0  0  0
 23 24  1  0  0  0
  3  4  1  0  0  0
 12 15  1  0  0  0
 12 16  1  0  0  0
M  END
> <minimizedAffinity>
-7.76386

$$$$
1I9N_IOA_A_555


 25 26  0  0  0  0  0  0  0  0999 V2000
   -6.0287    5.6330   13.6046 C   0  0  0  0  0  0  0  0  0  0  0  0
   -7.2447    5.8903   13.4519 O   0  0  0  0  0  0  0  0  0  0  0  0
   -5.0403    6.5617   13.0909 N   0  0  0  0  0  0  0  0  0  0  0  0
   -4.1296    6.2702   12.8567 H   0  0  0  0  0  0  0  0  0  0  0  0
   -4.4045    3.7846   14.2571 C   0  0  0  0  0  0  0  0  0  0  0  0
   -4.0732    2.5758   14.8854 C   0  0  0  0  0  0  0  0  0  0  0  0
   -5.0916    1.8527   15.6061 C   0  0  0  0  0  0  0  0  0  0  0  0
   -6.3787    2.3951   15.6651 C   0  0  0  0  0  0  0  0  0  0  0  0
   -6.6775    3.6125   15.0319 C   0  0  0  0  0  0  0  0  0  0  0  0
   -5.7058    4.3164   14.3166 C   0  0  0  0  0  0  0  0  0  0  0  0
   -4.6271    0.3019   16.3794 S   0  0  0  0  0  0  0  0  0  0  0  0
   -5.6210   -0.1284   17.6765 N   0  0  0  0  0  0  0  0  0  0  0  0
   -3.2269    0.5534   16.7039 O   0  0  0  0  0  0  0  0  0  0  0  0
   -4.7006   -0.6089   15.2211 O   0  0  0  0  0  0  0  0  0  0  0  0
   -5.5094    0.5500   18.4300 H   0  0  0  0  0  0  0  0  0  0  0  0
   -5.3597   -1.0554   18.0122 H   0  0  0  0  0  0  0  0  0  0  0  0
   -5.4630    7.9483   12.9386 C   0  0  0  0  0  0  0  0  0  0  0  0
   -4.6768    9.0119   13.4230 C   0  0  0  0  0  0  0  0  0  0  0  0
   -3.5868    8.7232   14.3468 C   0  0  0  0  0  0  0  0  0  0  0  0
   -2.7795    9.8289   14.8528 C   0  0  0  0  0  0  0  0  0  0  0  0
   -3.0769   11.1890   14.4292 C   0  0  0  0  0  0  0  0  0  0  0  0
   -4.1780   11.4586   13.4931 C   0  0  0  0  0  0  0  0  0  0  0  0
   -4.9733   10.3811   12.9931 C   0  0  0  0  0  0  0  0  0  0  0  0
   -5.8747   10.6321   12.2269 F   0  0  0  0  0  0  0  0  0  0  0  0
   -1.7567    9.5885   15.7198 F   0  0  0  0  0  0  0  0  0  0  0  0
  5  6  2  0  0  0
  5 10  1  0  0  0
  6  7  1  0  0  0
  7  8  2  0  0  0
  7 11  1  0  0  0
  8  9  1  0  0  0
  9 10  2  0  0  0
 10  1  1  0  0  0
  1  2  2  0  0  0
  1  3  1  0  0  0
  3 17  1  0  0  0
 17 18  1  0  0  0
 11 12  1  0  0  0
 11 13  2  0  0  0
 11 14  2  0  0  0
 18 19  2  0  0  0
 18 23  1  0  0  0
 19 20  1  0  0  0
 20 21  2  0  0  0
 20 25  1  0  0  0
 21 22  1  0  0  0
 22 23  2  0  0  0
 23 24  1  0  0  0
  3  4  1  0  0  0
 12 15  1  0  0  0
 12 16  1  0  0  0
M  END
> <minimizedAffinity>
-7.65827

$$$$
1I9N_IOA_A_555


 25 26  0  0  0  0  0  0  0  0999 V2000
   -6.3299    5.9142   14.2484 C   0  0  0  0  0  0  0  0  0  0  0  0
   -6.5111    6.7661   15.1482 O   0  0  0  0  0  0  0  0  0  0  0  0
   -6.5409    6.2930   12.8645 N   0  0  0  0  0  0  0  0  0  0  0  0
   -6.7660    5.6274   12.1749 H   0  0  0  0  0  0  0  0  0  0  0  0
   -4.6271    4.0313   14.4351 C   0  0  0  0  0  0  0  0  0  0  0  0
   -4.2157    2.7533   14.8394 C   0  0  0  0  0  0  0  0  0  0  0  0
   -5.1373    1.9103   15.5600 C   0  0  0  0  0  0  0  0  0  0  0  0
   -6.4125    2.4075   15.8446 C   0  0  0  0  0  0  0  0  0  0  0  0
   -6.7923    3.6954   15.4331 C   0  0  0  0  0  0  0  0  0  0  0  0
   -5.9163    4.5175   14.7203 C   0  0  0  0  0  0  0  0  0  0  0  0
   -4.5741    0.2765   16.0419 S   0  0  0  0  0  0  0  0  0  0  0  0
   -5.6858   -0.5649   16.9969 N   0  0  0  0  0  0  0  0  0  0  0  0
   -3.2973    0.5902   16.6747 O   0  0  0  0  0  0  0  0  0  0  0  0
   -4.3247   -0.3236   14.7174 O   0  0  0  0  0  0  0  0  0  0  0  0
   -5.7987   -0.0849   17.8898 H   0  0  0  0  0  0  0  0  0  0  0  0
   -5.3449   -1.5121   17.1609 H   0  0  0  0  0  0  0  0  0  0  0  0
   -6.4029    7.7086   12.5457 C   0  0  0  0  0  0  0  0  0  0  0  0
   -6.8385    8.2280   11.3110 C   0  0  0  0  0  0  0  0  0  0  0  0
   -7.6427    7.3869   10.4331 C   0  0  0  0  0  0  0  0  0  0  0  0
   -8.0853    7.9260    9.1509 C   0  0  0  0  0  0  0  0  0  0  0  0
   -7.7170    9.2829    8.7757 C   0  0  0  0  0  0  0  0  0  0  0  0
   -6.9089   10.1167    9.6776 C   0  0  0  0  0  0  0  0  0  0  0  0
   -6.4715    9.5960   10.9350 C   0  0  0  0  0  0  0  0  0  0  0  0
   -5.8053   10.3027   11.6556 F   0  0  0  0  0  0  0  0  0  0  0  0
   -8.8350    7.1610    8.3093 F   0  0  0  0  0  0  0  0  0  0  0  0
  5  6  2  0  0  0
  5 10  1  0  0  0
  6  7  1  0  0  0
  7  8  2  0  0  0
  7 11  1  0  0  0
  8  9  1  0  0  0
  9 10  2  0  0  0
 10  1  1  0  0  0
  1  2  2  0  0  0
  1  3  1  0  0  0
  3 17  1  0  0  0
 17 18  1  0  0  0
 11 12  1  0  0  0
 11 13  2  0  0  0
 11 14  2  0  0  0
 18 19  2  0  0  0
 18 23  1  0  0  0
 19 20  1  0  0  0
 20 21  2  0  0  0
 20 25  1  0  0  0
 21 22  1  0  0  0
 22 23  2  0  0  0
 23 24  1  0  0  0
  3  4  1  0  0  0
 12 15  1  0  0  0
 12 16  1  0  0  0
M  END
> <minimizedAffinity>
-7.46712

$$$$
1I9N_IOA_A_555


 25 26  0  0  0  0  0  0  0  0999 V2000
   -6.0443    6.0821   14.2467 C   0  0  0  0  0  0  0  0  0  0  0  0
   -7.0597    6.5533   14.8081 O   0  0  0  0  0  0  0  0  0  0  0  0
   -5.3473    6.8838   13.2593 N   0  0  0  0  0  0  0  0  0  0  0  0
   -4.8000    6.4720   12.5520 H   0  0  0  0  0  0  0  0  0  0  0  0
   -6.6260    3.7713   15.1420 C   0  0  0  0  0  0  0  0  0  0  0  0
   -6.3015    2.4663   15.5390 C   0  0  0  0  0  0  0  0  0  0  0  0
   -4.9319    2.0232   15.4559 C   0  0  0  0  0  0  0  0  0  0  0  0
   -3.9721    2.9132   14.9645 C   0  0  0  0  0  0  0  0  0  0  0  0
   -4.3299    4.2117   14.5670 C   0  0  0  0  0  0  0  0  0  0  0  0
   -5.6496    4.6607   14.6568 C   0  0  0  0  0  0  0  0  0  0  0  0
   -4.5598    0.3518   15.9912 S   0  0  0  0  0  0  0  0  0  0  0  0
   -5.7962   -0.3553   16.9006 N   0  0  0  0  0  0  0  0  0  0  0  0
   -3.2910    0.5502   16.6840 O   0  0  0  0  0  0  0  0  0  0  0  0
   -4.3062   -0.2970   14.6907 O   0  0  0  0  0  0  0  0  0  0  0  0
   -5.9048    0.1517   17.7790 H   0  0  0  0  0  0  0  0  0  0  0  0
   -5.5605   -1.3282   17.0964 H   0  0  0  0  0  0  0  0  0  0  0  0
   -5.4976    8.3296   13.3667 C   0  0  0  0  0  0  0  0  0  0  0  0
   -4.4381    9.1461   13.8082 C   0  0  0  0  0  0  0  0  0  0  0  0
   -3.4013    8.5658   14.6527 C   0  0  0  0  0  0  0  0  0  0  0  0
   -2.3094    9.4172   15.1146 C   0  0  0  0  0  0  0  0  0  0  0  0
   -2.2776   10.8195   14.7270 C   0  0  0  0  0  0  0  0  0  0  0  0
   -3.3308   11.3844   13.8707 C   0  0  0  0  0  0  0  0  0  0  0  0
   -4.4035   10.5572   13.4142 C   0  0  0  0  0  0  0  0  0  0  0  0
   -5.2578   11.0490   12.7137 F   0  0  0  0  0  0  0  0  0  0  0  0
   -1.3288    8.9021   15.9076 F   0  0  0  0  0  0  0  0  0  0  0  0
  5  6  2  0  0  0
  5 10  1  0  0  0
  6  7  1  0  0  0
  7  8  2  0  0  0
  7 11  1  0  0  0
  8  9  1  0  0  0
  9 10  2  0  0  0
 10  1  1  0  0  0
  1  2  2  0  0  0
  1  3  1  0  0  0
  3 17  1  0  0  0
 17 18  1  0  0  0
 11 12  1  0  0  0
 11 13  2  0  0  0
 11 14  2  0  0  0
 18 19  2  0  0  0
 18 23  1  0  0  0
 19 20  1  0  0  0
 20 21  2  0  0  0
 20 25  1  0  0  0
 21 22  1  0  0  0
 22 23  2  0  0  0
 23 24  1  0  0  0
  3  4  1  0  0  0
 12 15  1  0  0  0
 12 16  1  0  0  0
M  END
> <minimizedAffinity>
-7.42942

$$$$
1I9N_IOA_A_555


 25 26  0  0  0  0  0  0  0  0999 V2000
   -5.4573    6.2771   14.3945 C   0  0  0  0  0  0  0  0  0  0  0  0
   -4.4445    7.0121   14.4424 O   0  0  0  0  0  0  0  0  0  0  0  0
   -6.7438    6.8674   14.0788 N   0  0  0  0  0  0  0  0  0  0  0  0
   -7.5882    6.4519   14.3679 H   0  0  0  0  0  0  0  0  0  0  0  0
   -6.3228    3.9518   14.9633 C   0  0  0  0  0  0  0  0  0  0  0  0
   -6.1515    2.5932   15.2648 C   0  0  0  0  0  0  0  0  0  0  0  0
   -4.8190    2.0453   15.3210 C   0  0  0  0  0  0  0  0  0  0  0  0
   -3.7385    2.8919   15.0559 C   0  0  0  0  0  0  0  0  0  0  0  0
   -3.9430    4.2469   14.7489 C   0  0  0  0  0  0  0  0  0  0  0  0
   -5.2269    4.7959   14.7065 C   0  0  0  0  0  0  0  0  0  0  0  0
   -4.6464    0.3065   15.7278 S   0  0  0  0  0  0  0  0  0  0  0  0
   -4.3574   -0.6747   14.3827 N   0  0  0  0  0  0  0  0  0  0  0  0
   -5.8925    0.0564   16.4447 O   0  0  0  0  0  0  0  0  0  0  0  0
   -3.5338    0.3657   16.6950 O   0  0  0  0  0  0  0  0  0  0  0  0
   -5.1720   -0.6590   13.7691 H   0  0  0  0  0  0  0  0  0  0  0  0
   -4.1822   -1.6311   14.6908 H   0  0  0  0  0  0  0  0  0  0  0  0
   -6.7240    8.1068   13.3118 C   0  0  0  0  0  0  0  0  0  0  0  0
   -6.8241    8.1012   11.9068 C   0  0  0  0  0  0  0  0  0  0  0  0
   -7.1181    6.8480   11.2228 C   0  0  0  0  0  0  0  0  0  0  0  0
   -7.2131    6.8449    9.7663 C   0  0  0  0  0  0  0  0  0  0  0  0
   -7.0126    8.0839    9.0300 C   0  0  0  0  0  0  0  0  0  0  0  0
   -6.7213    9.3385    9.7391 C   0  0  0  0  0  0  0  0  0  0  0  0
   -6.6267    9.3497   11.1655 C   0  0  0  0  0  0  0  0  0  0  0  0
   -6.3828   10.3951   11.7225 F   0  0  0  0  0  0  0  0  0  0  0  0
   -7.4834    5.6874    9.1008 F   0  0  0  0  0  0  0  0  0  0  0  0
  5  6  2  0  0  0
  5 10  1  0  0  0
  6  7  1  0  0  0
  7  8  2  0  0  0
  7 11  1  0  0  0
  8  9  1  0  0  0
  9 10  2  0  0  0
 10  1  1  0  0  0
  1  2  2  0  0  0
  1  3  1  0  0  0
  3 17  1  0  0  0
 17 18  1  0  0  0
 11 12  1  0  0  0
 11 13  2  0  0  0
 11 14  2  0  0  0
 18 19  2  0  0  0
 18 23  1  0  0  0
 19 20  1  0  0  0
 20 21  2  0  0  0
 20 25  1  0  0  0
 21 22  1  0  0  0
 22 23  2  0  0  0
 23 24  1  0  0  0
  3  4  1  0  0  0
 12 15  1  0  0  0
 12 16  1  0  0  0
M  END
> <minimizedAffinity>
-7.28144

$$$$
1I9N_IOA_A_555


 25 26  0  0  0  0  0  0  0  0999 V2000
   -5.7740    5.7603   13.8165 C   0  0  0  0  0  0  0  0  0  0  0  0
   -6.4513    6.5595   14.5026 O   0  0  0  0  0  0  0  0  0  0  0  0
   -5.3045    6.1745   12.5083 N   0  0  0  0  0  0  0  0  0  0  0  0
   -5.0989    5.5204   11.8019 H   0  0  0  0  0  0  0  0  0  0  0  0
   -4.2378    3.8200   14.4127 C   0  0  0  0  0  0  0  0  0  0  0  0
   -3.9745    2.5570   14.9616 C   0  0  0  0  0  0  0  0  0  0  0  0
   -5.0514    1.8106   15.5637 C   0  0  0  0  0  0  0  0  0  0  0  0
   -6.3259    2.3846   15.5918 C   0  0  0  0  0  0  0  0  0  0  0  0
   -6.5563    3.6555   15.0406 C   0  0  0  0  0  0  0  0  0  0  0  0
   -5.5267    4.3837   14.4397 C   0  0  0  0  0  0  0  0  0  0  0  0
   -4.6723    0.1917   16.2374 S   0  0  0  0  0  0  0  0  0  0  0  0
   -5.7833   -0.3322   17.3980 N   0  0  0  0  0  0  0  0  0  0  0  0
   -3.3051    0.3913   16.7067 O   0  0  0  0  0  0  0  0  0  0  0  0
   -4.6484   -0.6148   15.0023 O   0  0  0  0  0  0  0  0  0  0  0  0
   -5.7346    0.2770   18.2147 H   0  0  0  0  0  0  0  0  0  0  0  0
   -5.5614   -1.2888   17.6737 H   0  0  0  0  0  0  0  0  0  0  0  0
   -5.1525    7.6079   12.2919 C   0  0  0  0  0  0  0  0  0  0  0  0
   -4.1958    8.3592   13.0022 C   0  0  0  0  0  0  0  0  0  0  0  0
   -4.6137    9.5828   13.6751 C   0  0  0  0  0  0  0  0  0  0  0  0
   -3.6177   10.3627   14.4033 C   0  0  0  0  0  0  0  0  0  0  0  0
   -2.2360    9.9075   14.4423 C   0  0  0  0  0  0  0  0  0  0  0  0
   -1.8358    8.6678   13.7606 C   0  0  0  0  0  0  0  0  0  0  0  0
   -2.8053    7.8985   13.0453 C   0  0  0  0  0  0  0  0  0  0  0  0
   -2.4476    6.8848   12.4913 F   0  0  0  0  0  0  0  0  0  0  0  0
   -3.9795   11.5121   15.0386 F   0  0  0  0  0  0  0  0  0  0  0  0
  5  6  2  0  0  0
  5 10  1  0  0  0
  6  7  1  0  0  0
  7  8  2  0  0  0
  7 11  1  0  0  0
  8  9  1  0  0  0
  9 10  2  0  0  0
 10  1  1  0  0  0
  1  2  2  0  0  0
  1  3  1  0  0  0
  3 17  1  0  0  0
 17 18  1  0  0  0
 11 12  1  0  0  0
 11 13  2  0  0  0
 11 14  2  0  0  0
 18 19  2  0  0  0
 18 23  1  0  0  0
 19 20  1  0  0  0
 20 21  2  0  0  0
 20 25  1  0  0  0
 21 22  1  0  0  0
 22 23  2  0  0  0
 23 24  1  0  0  0
  3  4  1  0  0  0
 12 15  1  0  0  0
 12 16  1  0  0  0
M  END
> <minimizedAffinity>
-7.03877

$$$$
1I9N_IOA_A_555


 25 26  0  0  0  0  0  0  0  0999 V2000
   -3.2150    2.2395   12.3434 C   0  0  0  0  0  0  0  0  0  0  0  0
   -4.0333    1.8963   11.4597 O   0  0  0  0  0  0  0  0  0  0  0  0
   -3.6092    2.1673   13.7372 N   0  0  0  0  0  0  0  0  0  0  0  0
   -3.1861    2.7319   14.4239 H   0  0  0  0  0  0  0  0  0  0  0  0
   -1.2719    2.1559   10.7010 C   0  0  0  0  0  0  0  0  0  0  0  0
   -0.0232    2.5740   10.2194 C   0  0  0  0  0  0  0  0  0  0  0  0
    0.6872    3.6192   10.9137 C   0  0  0  0  0  0  0  0  0  0  0  0
    0.0935    4.1926   12.0421 C   0  0  0  0  0  0  0  0  0  0  0  0
   -1.1625    3.7575   12.4953 C   0  0  0  0  0  0  0  0  0  0  0  0
   -1.8554    2.7351   11.8428 C   0  0  0  0  0  0  0  0  0  0  0  0
    2.2892    4.1098   10.2724 S   0  0  0  0  0  0  0  0  0  0  0  0
    2.2639    5.5891    9.4559 N   0  0  0  0  0  0  0  0  0  0  0  0
    2.6444    2.9438    9.4703 O   0  0  0  0  0  0  0  0  0  0  0  0
    3.0879    4.1068   11.5128 O   0  0  0  0  0  0  0  0  0  0  0  0
    1.6928    5.5036    8.6150 H   0  0  0  0  0  0  0  0  0  0  0  0
    3.2150    5.8503    9.1959 H   0  0  0  0  0  0  0  0  0  0  0  0
   -4.6631    1.2171   14.0703 C   0  0  0  0  0  0  0  0  0  0  0  0
   -5.3820    1.3132   15.2778 C   0  0  0  0  0  0  0  0  0  0  0  0
   -5.1892    0.2920   16.2999 C   0  0  0  0  0  0  0  0  0  0  0  0
   -5.9421    0.3908   17.5465 C   0  0  0  0  0  0  0  0  0  0  0  0
   -6.8652    1.4984   17.7432 C   0  0  0  0  0  0  0  0  0  0  0  0
   -7.0420    2.5208   16.7014 C   0  0  0  0  0  0  0  0  0  0  0  0
   -6.3083    2.4310   15.4778 C   0  0  0  0  0  0  0  0  0  0  0  0
   -6.4758    3.2840   14.6370 F   0  0  0  0  0  0  0  0  0  0  0  0
   -5.7841   -0.5513   18.5176 F   0  0  0  0  0  0  0  0  0  0  0  0
  5  6  2  0  0  0
  5 10  1  0  0  0
  6  7  1  0  0  0
  7  8  2  0  0  0
  7 11  1  0  0  0
  8  9  1  0  0  0
  9 10  2  0  0  0
 10  1  1  0  0  0
  1  2  2  0  0  0
  1  3  1  0  0  0
  3 17  1  0  0  0
 17 18  1  0  0  0
 11 12  1  0  0  0
 11 13  2  0  0  0
 11 14  2  0  0  0
 18 19  2  0  0  0
 18 23  1  0  0  0
 19 20  1  0  0  0
 20 21  2  0  0  0
 20 25  1  0  0  0
 21 22  1  0  0  0
 22 23  2  0  0  0
 23 24  1  0  0  0
  3  4  1  0  0  0
 12 15  1  0  0  0
 12 16  1  0  0  0
M  END
> <minimizedAffinity>
-6.96371

$$$$
1I9N_IOA_A_555


 25 26  0  0  0  0  0  0  0  0999 V2000
   -6.0061    5.8297   13.8068 C   0  0  0  0  0  0  0  0  0  0  0  0
   -5.2515    6.7834   14.1052 O   0  0  0  0  0  0  0  0  0  0  0  0
   -7.1540    6.0770   12.9556 N   0  0  0  0  0  0  0  0  0  0  0  0
   -7.9489    5.4966   12.9781 H   0  0  0  0  0  0  0  0  0  0  0  0
   -6.6215    3.7008   15.0595 C   0  0  0  0  0  0  0  0  0  0  0  0
   -6.3220    2.4573   15.6339 C   0  0  0  0  0  0  0  0  0  0  0  0
   -4.9724    1.9544   15.5642 C   0  0  0  0  0  0  0  0  0  0  0  0
   -4.0073    2.7242   14.9080 C   0  0  0  0  0  0  0  0  0  0  0  0
   -4.3404    3.9625   14.3354 C   0  0  0  0  0  0  0  0  0  0  0  0
   -5.6396    4.4703   14.4089 C   0  0  0  0  0  0  0  0  0  0  0  0
   -4.6310    0.3675   16.3281 S   0  0  0  0  0  0  0  0  0  0  0  0
   -5.6880   -0.0141   17.5902 N   0  0  0  0  0  0  0  0  0  0  0  0
   -3.2276    0.5242   16.6959 O   0  0  0  0  0  0  0  0  0  0  0  0
   -4.7287   -0.5223   15.1553 O   0  0  0  0  0  0  0  0  0  0  0  0
   -5.5553    0.6463   18.3562 H   0  0  0  0  0  0  0  0  0  0  0  0
   -5.4964   -0.9601   17.9199 H   0  0  0  0  0  0  0  0  0  0  0  0
   -7.0716    7.2279   12.0650 C   0  0  0  0  0  0  0  0  0  0  0  0
   -6.7125    7.0828   10.7107 C   0  0  0  0  0  0  0  0  0  0  0  0
   -5.3240    6.7948   10.3732 C   0  0  0  0  0  0  0  0  0  0  0  0
   -4.9544    6.6531    8.9683 C   0  0  0  0  0  0  0  0  0  0  0  0
   -5.9718    6.8021    7.9386 C   0  0  0  0  0  0  0  0  0  0  0  0
   -7.3680    7.0880    8.3002 C   0  0  0  0  0  0  0  0  0  0  0  0
   -7.7378    7.2283    9.6739 C   0  0  0  0  0  0  0  0  0  0  0  0
   -8.8927    7.4666    9.9423 F   0  0  0  0  0  0  0  0  0  0  0  0
   -3.6635    6.3873    8.6239 F   0  0  0  0  0  0  0  0  0  0  0  0
  5  6  2  0  0  0
  5 10  1  0  0  0
  6  7  1  0  0  0
  7  8  2  0  0  0
  7 11  1  0  0  0
  8  9  1  0  0  0
  9 10  2  0  0  0
 10  1  1  0  0  0
  1  2  2  0  0  0
  1  3  1  0  0  0
  3 17  1  0  0  0
 17 18  1  0  0  0
 11 12  1  0  0  0
 11 13  2  0  0  0
 11 14  2  0  0  0
 18 19  2  0  0  0
 18 23  1  0  0  0
 19 20  1  0  0  0
 20 21  2  0  0  0
 20 25  1  0  0  0
 21 22  1  0  0  0
 22 23  2  0  0  0
 23 24  1  0  0  0
  3  4  1  0  0  0
 12 15  1  0  0  0
 12 16  1  0  0  0
M  END
> <minimizedAffinity>
-6.94683

$$$$
1I9N_IOA_A_555


 25 26  0  0  0  0  0  0  0  0999 V2000
   -5.6238    6.4227   14.5504 C   0  0  0  0  0  0  0  0  0  0  0  0
   -6.7130    6.8608   14.9861 O   0  0  0  0  0  0  0  0  0  0  0  0
   -4.7331    7.3223   13.8428 N   0  0  0  0  0  0  0  0  0  0  0  0
   -4.0748    6.9906   13.1903 H   0  0  0  0  0  0  0  0  0  0  0  0
   -6.4061    4.0776   15.1572 C   0  0  0  0  0  0  0  0  0  0  0  0
   -6.1943    2.7136   15.4037 C   0  0  0  0  0  0  0  0  0  0  0  0
   -4.8611    2.1753   15.2937 C   0  0  0  0  0  0  0  0  0  0  0  0
   -3.8226    3.0367   14.9277 C   0  0  0  0  0  0  0  0  0  0  0  0
   -4.0681    4.3969   14.6794 C   0  0  0  0  0  0  0  0  0  0  0  0
   -5.3513    4.9364   14.7976 C   0  0  0  0  0  0  0  0  0  0  0  0
   -4.6338    0.4288   15.6353 S   0  0  0  0  0  0  0  0  0  0  0  0
   -4.3521   -0.4975   14.2503 N   0  0  0  0  0  0  0  0  0  0  0  0
   -5.8554    0.1211   16.3717 O   0  0  0  0  0  0  0  0  0  0  0  0
   -3.5002    0.4844   16.5778 O   0  0  0  0  0  0  0  0  0  0  0  0
   -5.1815   -0.4825   13.6567 H   0  0  0  0  0  0  0  0  0  0  0  0
   -4.1449   -1.4590   14.5206 H   0  0  0  0  0  0  0  0  0  0  0  0
   -4.8617    8.7422   14.1461 C   0  0  0  0  0  0  0  0  0  0  0  0
   -5.0560    9.6949   13.1269 C   0  0  0  0  0  0  0  0  0  0  0  0
   -4.0833   10.7687   12.9665 C   0  0  0  0  0  0  0  0  0  0  0  0
   -4.2925   11.7585   11.9144 C   0  0  0  0  0  0  0  0  0  0  0  0
   -5.4605   11.6559   11.0525 C   0  0  0  0  0  0  0  0  0  0  0  0
   -6.4276   10.5624   11.2278 C   0  0  0  0  0  0  0  0  0  0  0  0
   -6.2298    9.5891   12.2560 C   0  0  0  0  0  0  0  0  0  0  0  0
   -7.0428    8.7024   12.3796 F   0  0  0  0  0  0  0  0  0  0  0  0
   -3.4013   12.7746   11.7441 F   0  0  0  0  0  0  0  0  0  0  0  0
  5  6  2  0  0  0
  5 10  1  0  0  0
  6  7  1  0  0  0
  7  8  2  0  0  0
  7 11  1  0  0  0
  8  9  1  0  0  0
  9 10  2  0  0  0
 10  1  1  0  0  0
  1  2  2  0  0  0
  1  3  1  0  0  0
  3 17  1  0  0  0
 17 18  1  0  0  0
 11 12  1  0  0  0
 11 13  2  0  0  0
 11 14  2  0  0  0
 18 19  2  0  0  0
 18 23  1  0  0  0
 19 20  1  0  0  0
 20 21  2  0  0  0
 20 25  1  0  0  0
 21 22  1  0  0  0
 22 23  2  0  0  0
 23 24  1  0  0  0
  3  4  1  0  0  0
 12 15  1  0  0  0
 12 16  1  0  0  0
M  END
> <minimizedAffinity>
-6.94430

$$$$
1I9N_IOA_A_555


 25 26  0  0  0  0  0  0  0  0999 V2000
   -4.2390    2.1369   12.3220 C   0  0  0  0  0  0  0  0  0  0  0  0
   -4.9964    2.8047   11.5814 O   0  0  0  0  0  0  0  0  0  0  0  0
   -2.9346    1.7422   11.8261 N   0  0  0  0  0  0  0  0  0  0  0  0
   -2.4628    0.9547   12.1819 H   0  0  0  0  0  0  0  0  0  0  0  0
   -4.4452    0.5571   14.3073 C   0  0  0  0  0  0  0  0  0  0  0  0
   -4.9442    0.1876   15.5644 C   0  0  0  0  0  0  0  0  0  0  0  0
   -5.8459    1.0761   16.2548 C   0  0  0  0  0  0  0  0  0  0  0  0
   -6.1806    2.2901   15.6475 C   0  0  0  0  0  0  0  0  0  0  0  0
   -5.6577    2.6354   14.3907 C   0  0  0  0  0  0  0  0  0  0  0  0
   -4.7959    1.7780   13.7025 C   0  0  0  0  0  0  0  0  0  0  0  0
   -6.4736    0.5546   17.8525 S   0  0  0  0  0  0  0  0  0  0  0  0
   -6.3170    1.7318   19.0548 N   0  0  0  0  0  0  0  0  0  0  0  0
   -5.7231   -0.6786   18.0649 O   0  0  0  0  0  0  0  0  0  0  0  0
   -7.8662    0.2202   17.4984 O   0  0  0  0  0  0  0  0  0  0  0  0
   -5.3280    1.9018   19.2375 H   0  0  0  0  0  0  0  0  0  0  0  0
   -6.7697    1.4074   19.9093 H   0  0  0  0  0  0  0  0  0  0  0  0
   -2.3571    2.5698   10.7743 C   0  0  0  0  0  0  0  0  0  0  0  0
   -1.1267    3.2314   10.9545 C   0  0  0  0  0  0  0  0  0  0  0  0
    0.0183    2.8296   10.1468 C   0  0  0  0  0  0  0  0  0  0  0  0
    1.2936    3.5123   10.3422 C   0  0  0  0  0  0  0  0  0  0  0  0
    1.3971    4.5726   11.3334 C   0  0  0  0  0  0  0  0  0  0  0  0
    0.2290    4.9661   12.1349 C   0  0  0  0  0  0  0  0  0  0  0  0
   -1.0234    4.3023   11.9495 C   0  0  0  0  0  0  0  0  0  0  0  0
   -1.9667    4.6441   12.6246 F   0  0  0  0  0  0  0  0  0  0  0  0
    2.3810    3.1550    9.6036 F   0  0  0  0  0  0  0  0  0  0  0  0
  5  6  2  0  0  0
  5 10  1  0  0  0
  6  7  1  0  0  0
  7  8  2  0  0  0
  7 11  1  0  0  0
  8  9  1  0  0  0
  9 10  2  0  0  0
 10  1  1  0  0  0
  1  2  2  0  0  0
  1  3  1  0  0  0
  3 17  1  0  0  0
 17 18  1  0  0  0
 11 12  1  0  0  0
 11 13  2  0  0  0
 11 14  2  0  0  0
 18 19  2  0  0  0
 18 23  1  0  0  0
 19 20  1  0  0  0
 20 21  2  0  0  0
 20 25  1  0  0  0
 21 22  1  0  0  0
 22 23  2  0  0  0
 23 24  1  0  0  0
  3  4  1  0  0  0
 12 15  1  0  0  0
 12 16  1  0  0  0
M  END
> <minimizedAffinity>
-6.92994

$$$$
