2TMN_0FA_E_322


 18 17  0  0  0  0  0  0  0  0999 V2000
   53.0539   18.3631   -3.1309 C   0  0  0  0  0  0  0  0  0  0  0  0
   53.4836   16.9019   -3.1612 C   0  0  0  0  0  0  0  0  0  0  0  0
   54.6173   16.6703   -3.5961 O   0  0  0  0  0  0  0  0  0  0  0  0
   52.6912   16.0042   -2.6770 N   0  0  0  0  0  0  0  0  0  0  0  0
   52.9554   15.0559   -2.6897 H   0  0  0  0  0  0  0  0  0  0  0  0
   51.8230   16.2683   -2.2953 H   0  0  0  0  0  0  0  0  0  0  0  0
   51.7839   18.5774   -3.8036 N   0  0  0  0  0  0  0  0  0  0  0  0
   51.1310   17.9010   -3.4080 H   0  0  0  0  0  0  0  0  0  0  0  0
   51.6287   18.4396   -5.6408 P   0  0  0  0  0  0  0  0  0  0  0  0
   50.7318   17.1603   -5.8582 O   0  0  0  0  0  0  0  0  0  0  0  0
   50.7640   19.6965   -6.0837 O   0  0  0  0  0  0  0  0  0  0  0  0
   53.0151   18.3853   -6.1896 O   0  0  0  0  0  0  0  0  0  0  0  0
   51.2285   16.3691   -5.5973 H   0  0  0  0  0  0  0  0  0  0  0  0
   51.2850   20.5058   -5.9636 H   0  0  0  0  0  0  0  0  0  0  0  0
   52.9941   18.7823   -1.6556 C   0  0  0  0  0  0  0  0  0  0  0  0
   54.2695   18.7347   -0.8731 C   0  0  0  0  0  0  0  0  0  0  0  0
   54.9991   20.0848   -0.9770 C   0  0  0  0  0  0  0  0  0  0  0  0
   53.6889   18.3127    0.4885 C   0  0  0  0  0  0  0  0  0  0  0  0
  4  2  1  0  0  0
  2  3  2  0  0  0
  2  1  1  0  0  0
  9  7  1  0  0  0
  7  1  1  0  0  0
 12  9  2  0  0  0
 11  9  1  0  0  0
  9 10  1  0  0  0
  1 15  1  0  0  0
 15 16  1  0  0  0
 17 16  1  0  0  0
 16 18  1  0  0  0
  7  8  1  0  0  0
  4  5  1  0  0  0
  4  6  1  0  0  0
 10 13  1  0  0  0
 11 14  1  0  0  0
M  END
> <minimizedAffinity>
-6.58773

$$$$
2TMN_0FA_E_322


 18 17  0  0  0  0  0  0  0  0999 V2000
   52.3514   18.8061   -2.4741 C   0  0  0  0  0  0  0  0  0  0  0  0
   53.7216   19.4311   -2.2450 C   0  0  0  0  0  0  0  0  0  0  0  0
   54.6746   18.8953   -2.8219 O   0  0  0  0  0  0  0  0  0  0  0  0
   53.8105   20.5062   -1.5348 N   0  0  0  0  0  0  0  0  0  0  0  0
   54.6894   20.9213   -1.3782 H   0  0  0  0  0  0  0  0  0  0  0  0
   52.9995   20.9105   -1.1500 H   0  0  0  0  0  0  0  0  0  0  0  0
   52.3932   17.7308   -3.4505 N   0  0  0  0  0  0  0  0  0  0  0  0
   53.2947   17.2687   -3.3313 H   0  0  0  0  0  0  0  0  0  0  0  0
   52.2122   18.0620   -5.2604 P   0  0  0  0  0  0  0  0  0  0  0  0
   51.3266   19.3655   -5.3284 O   0  0  0  0  0  0  0  0  0  0  0  0
   53.6665   18.4591   -5.7613 O   0  0  0  0  0  0  0  0  0  0  0  0
   51.6347   16.8289   -5.8706 O   0  0  0  0  0  0  0  0  0  0  0  0
   50.4270   19.1613   -5.0286 H   0  0  0  0  0  0  0  0  0  0  0  0
   54.2423   17.6790   -5.7334 H   0  0  0  0  0  0  0  0  0  0  0  0
   51.8482   18.3160   -1.1094 C   0  0  0  0  0  0  0  0  0  0  0  0
   52.6760   17.2925   -0.3963 C   0  0  0  0  0  0  0  0  0  0  0  0
   53.1190   17.8374    0.9721 C   0  0  0  0  0  0  0  0  0  0  0  0
   51.6786   16.1209   -0.4362 C   0  0  0  0  0  0  0  0  0  0  0  0
  4  2  1  0  0  0
  2  3  2  0  0  0
  2  1  1  0  0  0
  9  7  1  0  0  0
  7  1  1  0  0  0
 12  9  2  0  0  0
 11  9  1  0  0  0
  9 10  1  0  0  0
  1 15  1  0  0  0
 15 16  1  0  0  0
 17 16  1  0  0  0
 16 18  1  0  0  0
  7  8  1  0  0  0
  4  5  1  0  0  0
  4  6  1  0  0  0
 10 13  1  0  0  0
 11 14  1  0  0  0
M  END
> <minimizedAffinity>
-6.27211

$$$$
2TMN_0FA_E_322


 18 17  0  0  0  0  0  0  0  0999 V2000
   53.5065   17.8399   -3.2434 C   0  0  0  0  0  0  0  0  0  0  0  0
   52.8244   18.3384   -4.5110 C   0  0  0  0  0  0  0  0  0  0  0  0
   53.5143   18.3572   -5.5365 O   0  0  0  0  0  0  0  0  0  0  0  0
   51.5697   18.6421   -4.4710 N   0  0  0  0  0  0  0  0  0  0  0  0
   51.1154   18.9655   -5.2823 H   0  0  0  0  0  0  0  0  0  0  0  0
   51.0676   18.5501   -3.6292 H   0  0  0  0  0  0  0  0  0  0  0  0
   54.3404   16.6755   -3.4886 N   0  0  0  0  0  0  0  0  0  0  0  0
   54.7960   16.8319   -4.3877 H   0  0  0  0  0  0  0  0  0  0  0  0
   53.6249   14.9720   -3.5558 P   0  0  0  0  0  0  0  0  0  0  0  0
   52.4457   15.0061   -2.5086 O   0  0  0  0  0  0  0  0  0  0  0  0
   52.9662   14.8506   -4.9963 O   0  0  0  0  0  0  0  0  0  0  0  0
   54.7409   14.0222   -3.2752 O   0  0  0  0  0  0  0  0  0  0  0  0
   52.8108   15.0801   -1.6129 H   0  0  0  0  0  0  0  0  0  0  0  0
   53.6639   14.8267   -5.6698 H   0  0  0  0  0  0  0  0  0  0  0  0
   54.3199   19.0137   -2.6807 C   0  0  0  0  0  0  0  0  0  0  0  0
   53.8003   19.6837   -1.4469 C   0  0  0  0  0  0  0  0  0  0  0  0
   53.1451   18.6439   -0.5220 C   0  0  0  0  0  0  0  0  0  0  0  0
   55.1029   20.3628   -0.9874 C   0  0  0  0  0  0  0  0  0  0  0  0
  4  2  1  0  0  0
  2  3  2  0  0  0
  2  1  1  0  0  0
  9  7  1  0  0  0
  7  1  1  0  0  0
 12  9  2  0  0  0
 11  9  1  0  0  0
  9 10  1  0  0  0
  1 15  1  0  0  0
 15 16  1  0  0  0
 17 16  1  0  0  0
 16 18  1  0  0  0
  7  8  1  0  0  0
  4  5  1  0  0  0
  4  6  1  0  0  0
 10 13  1  0  0  0
 11 14  1  0  0  0
M  END
> <minimizedAffinity>
-6.20690

$$$$
2TMN_0FA_E_322


 18 17  0  0  0  0  0  0  0  0999 V2000
   52.7064   17.7623   -2.5305 C   0  0  0  0  0  0  0  0  0  0  0  0
   51.8417   17.4685   -1.3113 C   0  0  0  0  0  0  0  0  0  0  0  0
   51.0521   18.3561   -0.9694 O   0  0  0  0  0  0  0  0  0  0  0  0
   51.9212   16.3080   -0.7500 N   0  0  0  0  0  0  0  0  0  0  0  0
   51.3685   16.1037    0.0386 H   0  0  0  0  0  0  0  0  0  0  0  0
   52.5345   15.6276   -1.1109 H   0  0  0  0  0  0  0  0  0  0  0  0
   52.0748   18.7039   -3.4392 N   0  0  0  0  0  0  0  0  0  0  0  0
   51.1104   18.8061   -3.1231 H   0  0  0  0  0  0  0  0  0  0  0  0
   51.9964   18.3858   -5.2589 P   0  0  0  0  0  0  0  0  0  0  0  0
   51.1891   17.0362   -5.3812 O   0  0  0  0  0  0  0  0  0  0  0  0
   51.0725   19.5371   -5.8461 O   0  0  0  0  0  0  0  0  0  0  0  0
   53.4028   18.3711   -5.7569 O   0  0  0  0  0  0  0  0  0  0  0  0
   51.7238   16.3067   -5.0308 H   0  0  0  0  0  0  0  0  0  0  0  0
   51.5375   20.3863   -5.7875 H   0  0  0  0  0  0  0  0  0  0  0  0
   54.0511   18.2886   -2.0102 C   0  0  0  0  0  0  0  0  0  0  0  0
   54.0344   19.0949   -0.7490 C   0  0  0  0  0  0  0  0  0  0  0  0
   55.0366   18.5098    0.2605 C   0  0  0  0  0  0  0  0  0  0  0  0
   54.3225   20.4794   -1.3566 C   0  0  0  0  0  0  0  0  0  0  0  0
  4  2  1  0  0  0
  2  3  2  0  0  0
  2  1  1  0  0  0
  9  7  1  0  0  0
  7  1  1  0  0  0
 12  9  2  0  0  0
 11  9  1  0  0  0
  9 10  1  0  0  0
  1 15  1  0  0  0
 15 16  1  0  0  0
 17 16  1  0  0  0
 16 18  1  0  0  0
  7  8  1  0  0  0
  4  5  1  0  0  0
  4  6  1  0  0  0
 10 13  1  0  0  0
 11 14  1  0  0  0
M  END
> <minimizedAffinity>
-5.74515

$$$$
2TMN_0FA_E_322


 18 17  0  0  0  0  0  0  0  0999 V2000
   53.0861   18.1451   -3.4252 C   0  0  0  0  0  0  0  0  0  0  0  0
   53.7153   18.9473   -2.2933 C   0  0  0  0  0  0  0  0  0  0  0  0
   54.9492   18.9249   -2.2222 O   0  0  0  0  0  0  0  0  0  0  0  0
   52.9537   19.6526   -1.5248 N   0  0  0  0  0  0  0  0  0  0  0  0
   53.3461   20.1762   -0.7892 H   0  0  0  0  0  0  0  0  0  0  0  0
   51.9807   19.6666   -1.6745 H   0  0  0  0  0  0  0  0  0  0  0  0
   53.0341   18.8950   -4.6686 N   0  0  0  0  0  0  0  0  0  0  0  0
   52.9190   19.8747   -4.4092 H   0  0  0  0  0  0  0  0  0  0  0  0
   51.7551   18.5427   -5.9564 P   0  0  0  0  0  0  0  0  0  0  0  0
   50.9132   17.3543   -5.3504 O   0  0  0  0  0  0  0  0  0  0  0  0
   50.8128   19.8216   -5.9720 O   0  0  0  0  0  0  0  0  0  0  0  0
   52.4854   18.2646   -7.2274 O   0  0  0  0  0  0  0  0  0  0  0  0
   51.4581   16.5522   -5.3247 H   0  0  0  0  0  0  0  0  0  0  0  0
   51.2983   20.5764   -6.3400 H   0  0  0  0  0  0  0  0  0  0  0  0
   53.9073   16.8567   -3.5718 C   0  0  0  0  0  0  0  0  0  0  0  0
   53.1628   15.5581   -3.5482 C   0  0  0  0  0  0  0  0  0  0  0  0
   54.0883   14.4149   -3.9981 C   0  0  0  0  0  0  0  0  0  0  0  0
   52.6888   15.5908   -2.0842 C   0  0  0  0  0  0  0  0  0  0  0  0
  4  2  1  0  0  0
  2  3  2  0  0  0
  2  1  1  0  0  0
  9  7  1  0  0  0
  7  1  1  0  0  0
 12  9  2  0  0  0
 11  9  1  0  0  0
  9 10  1  0  0  0
  1 15  1  0  0  0
 15 16  1  0  0  0
 17 16  1  0  0  0
 16 18  1  0  0  0
  7  8  1  0  0  0
  4  5  1  0  0  0
  4  6  1  0  0  0
 10 13  1  0  0  0
 11 14  1  0  0  0
M  END
> <minimizedAffinity>
-5.63817

$$$$
2TMN_0FA_E_322


 18 17  0  0  0  0  0  0  0  0999 V2000
   50.2993   20.0209   -9.3610 C   0  0  0  0  0  0  0  0  0  0  0  0
   50.6149   21.2575  -10.1927 C   0  0  0  0  0  0  0  0  0  0  0  0
   51.4804   21.1277  -11.0657 O   0  0  0  0  0  0  0  0  0  0  0  0
   49.9305   22.3356   -9.9995 N   0  0  0  0  0  0  0  0  0  0  0  0
   50.1231   23.1426  -10.5295 H   0  0  0  0  0  0  0  0  0  0  0  0
   49.2161   22.3505   -9.3223 H   0  0  0  0  0  0  0  0  0  0  0  0
   50.4625   20.2590   -7.9369 N   0  0  0  0  0  0  0  0  0  0  0  0
   50.9724   21.1379   -7.8487 H   0  0  0  0  0  0  0  0  0  0  0  0
   51.3284   19.0419   -6.8472 P   0  0  0  0  0  0  0  0  0  0  0  0
   52.1320   19.9385   -5.8282 O   0  0  0  0  0  0  0  0  0  0  0  0
   50.1756   18.3207   -6.0258 O   0  0  0  0  0  0  0  0  0  0  0  0
   52.1338   18.1581   -7.7396 O   0  0  0  0  0  0  0  0  0  0  0  0
   52.8478   20.3970   -6.2955 H   0  0  0  0  0  0  0  0  0  0  0  0
   49.6575   17.7577   -6.6220 H   0  0  0  0  0  0  0  0  0  0  0  0
   48.8636   19.6023   -9.7069 C   0  0  0  0  0  0  0  0  0  0  0  0
   48.4131   18.2475   -9.2568 C   0  0  0  0  0  0  0  0  0  0  0  0
   46.9033   18.0883   -9.5036 C   0  0  0  0  0  0  0  0  0  0  0  0
   49.3900   17.3930  -10.0842 C   0  0  0  0  0  0  0  0  0  0  0  0
  4  2  1  0  0  0
  2  3  2  0  0  0
  2  1  1  0  0  0
  9  7  1  0  0  0
  7  1  1  0  0  0
 12  9  2  0  0  0
 11  9  1  0  0  0
  9 10  1  0  0  0
  1 15  1  0  0  0
 15 16  1  0  0  0
 17 16  1  0  0  0
 16 18  1  0  0  0
  7  8  1  0  0  0
  4  5  1  0  0  0
  4  6  1  0  0  0
 10 13  1  0  0  0
 11 14  1  0  0  0
M  END
> <minimizedAffinity>
-5.60125

$$$$
2TMN_0FA_E_322


 18 17  0  0  0  0  0  0  0  0999 V2000
   50.1898   18.3324   -8.4815 C   0  0  0  0  0  0  0  0  0  0  0  0
   49.5115   17.0067   -8.8022 C   0  0  0  0  0  0  0  0  0  0  0  0
   49.6363   16.5901   -9.9594 O   0  0  0  0  0  0  0  0  0  0  0  0
   48.9141   16.3619   -7.8559 N   0  0  0  0  0  0  0  0  0  0  0  0
   48.4713   15.5039   -8.0483 H   0  0  0  0  0  0  0  0  0  0  0  0
   48.9014   16.7285   -6.9423 H   0  0  0  0  0  0  0  0  0  0  0  0
   51.5003   18.1491   -7.8811 N   0  0  0  0  0  0  0  0  0  0  0  0
   51.7849   17.1939   -8.0975 H   0  0  0  0  0  0  0  0  0  0  0  0
   51.7714   18.3756   -6.0662 P   0  0  0  0  0  0  0  0  0  0  0  0
   51.0304   19.7269   -5.7301 O   0  0  0  0  0  0  0  0  0  0  0  0
   50.9498   17.2074   -5.3708 O   0  0  0  0  0  0  0  0  0  0  0  0
   53.2463   18.3482   -5.8421 O   0  0  0  0  0  0  0  0  0  0  0  0
   51.5053   20.4667   -6.1400 H   0  0  0  0  0  0  0  0  0  0  0  0
   51.3774   16.3566   -5.5561 H   0  0  0  0  0  0  0  0  0  0  0  0
   50.2712   19.1235   -9.7943 C   0  0  0  0  0  0  0  0  0  0  0  0
   50.9079   20.4775   -9.7449 C   0  0  0  0  0  0  0  0  0  0  0  0
   51.0551   21.0399  -11.1689 C   0  0  0  0  0  0  0  0  0  0  0  0
   49.9223   21.1607   -8.7801 C   0  0  0  0  0  0  0  0  0  0  0  0
  4  2  1  0  0  0
  2  3  2  0  0  0
  2  1  1  0  0  0
  9  7  1  0  0  0
  7  1  1  0  0  0
 12  9  2  0  0  0
 11  9  1  0  0  0
  9 10  1  0  0  0
  1 15  1  0  0  0
 15 16  1  0  0  0
 17 16  1  0  0  0
 16 18  1  0  0  0
  7  8  1  0  0  0
  4  5  1  0  0  0
  4  6  1  0  0  0
 10 13  1  0  0  0
 11 14  1  0  0  0
M  END
> <minimizedAffinity>
-5.57866

$$$$
2TMN_0FA_E_322


 18 17  0  0  0  0  0  0  0  0999 V2000
   52.8219   17.7934   -2.5472 C   0  0  0  0  0  0  0  0  0  0  0  0
   53.1533   16.3185   -2.7352 C   0  0  0  0  0  0  0  0  0  0  0  0
   52.5811   15.5249   -1.9795 O   0  0  0  0  0  0  0  0  0  0  0  0
   53.9411   15.9695   -3.6974 N   0  0  0  0  0  0  0  0  0  0  0  0
   54.1642   15.0200   -3.8311 H   0  0  0  0  0  0  0  0  0  0  0  0
   54.3184   16.6531   -4.2970 H   0  0  0  0  0  0  0  0  0  0  0  0
   51.8643   18.2720   -3.5297 N   0  0  0  0  0  0  0  0  0  0  0  0
   51.0510   17.6602   -3.4606 H   0  0  0  0  0  0  0  0  0  0  0  0
   52.2911   18.3714   -5.3259 P   0  0  0  0  0  0  0  0  0  0  0  0
   53.8676   18.4198   -5.3467 O   0  0  0  0  0  0  0  0  0  0  0  0
   51.8592   16.9703   -5.9374 O   0  0  0  0  0  0  0  0  0  0  0  0
   51.5784   19.5616   -5.8751 O   0  0  0  0  0  0  0  0  0  0  0  0
   54.1700   19.2649   -4.9790 H   0  0  0  0  0  0  0  0  0  0  0  0
   50.8915   16.9036   -5.9410 H   0  0  0  0  0  0  0  0  0  0  0  0
   52.2962   17.9557   -1.1144 C   0  0  0  0  0  0  0  0  0  0  0  0
   53.1530   18.7117   -0.1471 C   0  0  0  0  0  0  0  0  0  0  0  0
   53.3907   17.8654    1.1151 C   0  0  0  0  0  0  0  0  0  0  0  0
   54.3458   19.0036   -1.0750 C   0  0  0  0  0  0  0  0  0  0  0  0
  4  2  1  0  0  0
  2  3  2  0  0  0
  2  1  1  0  0  0
  9  7  1  0  0  0
  7  1  1  0  0  0
 12  9  2  0  0  0
 11  9  1  0  0  0
  9 10  1  0  0  0
  1 15  1  0  0  0
 15 16  1  0  0  0
 17 16  1  0  0  0
 16 18  1  0  0  0
  7  8  1  0  0  0
  4  5  1  0  0  0
  4  6  1  0  0  0
 10 13  1  0  0  0
 11 14  1  0  0  0
M  END
> <minimizedAffinity>
-5.56060

$$$$
2TMN_0FA_E_322


 18 17  0  0  0  0  0  0  0  0999 V2000
   50.6001   18.5104   -8.0501 C   0  0  0  0  0  0  0  0  0  0  0  0
   51.5284   18.8696   -6.8969 C   0  0  0  0  0  0  0  0  0  0  0  0
   52.7031   18.4985   -6.9995 O   0  0  0  0  0  0  0  0  0  0  0  0
   51.0733   19.5882   -5.9250 N   0  0  0  0  0  0  0  0  0  0  0  0
   51.6616   19.8282   -5.1729 H   0  0  0  0  0  0  0  0  0  0  0  0
   50.1383   19.8960   -5.9362 H   0  0  0  0  0  0  0  0  0  0  0  0
   50.9154   19.2490   -9.2610 N   0  0  0  0  0  0  0  0  0  0  0  0
   51.9200   19.4244   -9.2378 H   0  0  0  0  0  0  0  0  0  0  0  0
   50.1116   20.8702   -9.6406 P   0  0  0  0  0  0  0  0  0  0  0  0
   48.6972   20.4752  -10.2165 O   0  0  0  0  0  0  0  0  0  0  0  0
   49.8655   21.5565   -8.2292 O   0  0  0  0  0  0  0  0  0  0  0  0
   51.0281   21.6026  -10.5625 O   0  0  0  0  0  0  0  0  0  0  0  0
   48.8075   20.0512  -11.0820 H   0  0  0  0  0  0  0  0  0  0  0  0
   50.7168   21.8144   -7.8423 H   0  0  0  0  0  0  0  0  0  0  0  0
   50.7144   16.9946   -8.2623 C   0  0  0  0  0  0  0  0  0  0  0  0
   49.4439   16.2288   -8.4636 C   0  0  0  0  0  0  0  0  0  0  0  0
   48.2343   17.1520   -8.2393 C   0  0  0  0  0  0  0  0  0  0  0  0
   49.7156   15.7007   -9.8836 C   0  0  0  0  0  0  0  0  0  0  0  0
  4  2  1  0  0  0
  2  3  2  0  0  0
  2  1  1  0  0  0
  9  7  1  0  0  0
  7  1  1  0  0  0
 12  9  2  0  0  0
 11  9  1  0  0  0
  9 10  1  0  0  0
  1 15  1  0  0  0
 15 16  1  0  0  0
 17 16  1  0  0  0
 16 18  1  0  0  0
  7  8  1  0  0  0
  4  5  1  0  0  0
  4  6  1  0  0  0
 10 13  1  0  0  0
 11 14  1  0  0  0
M  END
> <minimizedAffinity>
-5.50394

$$$$
2TMN_0FA_E_322


 18 17  0  0  0  0  0  0  0  0999 V2000
   53.9102   17.6558   -3.6557 C   0  0  0  0  0  0  0  0  0  0  0  0
   52.9269   18.2394   -4.6622 C   0  0  0  0  0  0  0  0  0  0  0  0
   53.3040   18.2831   -5.8386 O   0  0  0  0  0  0  0  0  0  0  0  0
   51.7491   18.5858   -4.2610 N   0  0  0  0  0  0  0  0  0  0  0  0
   51.1030   18.9644   -4.9001 H   0  0  0  0  0  0  0  0  0  0  0  0
   51.4975   18.4713   -3.3161 H   0  0  0  0  0  0  0  0  0  0  0  0
   53.5313   17.9471   -2.2835 N   0  0  0  0  0  0  0  0  0  0  0  0
   52.5412   18.1916   -2.3040 H   0  0  0  0  0  0  0  0  0  0  0  0
   54.3756   19.2722   -1.3089 P   0  0  0  0  0  0  0  0  0  0  0  0
   55.7103   19.5460   -2.1036 O   0  0  0  0  0  0  0  0  0  0  0  0
   53.4614   20.5609   -1.4741 O   0  0  0  0  0  0  0  0  0  0  0  0
   54.5205   18.7591    0.0847 O   0  0  0  0  0  0  0  0  0  0  0  0
   56.2966   18.7773   -2.0255 H   0  0  0  0  0  0  0  0  0  0  0  0
   52.6275   20.4291   -0.9965 H   0  0  0  0  0  0  0  0  0  0  0  0
   53.9774   16.1451   -3.9187 C   0  0  0  0  0  0  0  0  0  0  0  0
   52.7309   15.3489   -3.6875 C   0  0  0  0  0  0  0  0  0  0  0  0
   52.2457   14.7379   -5.0130 C   0  0  0  0  0  0  0  0  0  0  0  0
   53.2590   14.4072   -2.5906 C   0  0  0  0  0  0  0  0  0  0  0  0
  4  2  1  0  0  0
  2  3  2  0  0  0
  2  1  1  0  0  0
  9  7  1  0  0  0
  7  1  1  0  0  0
 12  9  2  0  0  0
 11  9  1  0  0  0
  9 10  1  0  0  0
  1 15  1  0  0  0
 15 16  1  0  0  0
 17 16  1  0  0  0
 16 18  1  0  0  0
  7  8  1  0  0  0
  4  5  1  0  0  0
  4  6  1  0  0  0
 10 13  1  0  0  0
 11 14  1  0  0  0
M  END
> <minimizedAffinity>
-5.40025

$$$$
