3GK1_32A_A_94


 22 22  0  0  0  0  0  0  0  0999 V2000
    4.6822    7.2856   13.0588 C   0  0  0  0  0  0  0  0  0  0  0  0
    6.0648    7.1672   11.4694 C   0  0  0  0  0  0  0  0  0  0  0  0
    4.2418    6.2319   12.2489 C   0  0  0  0  0  0  0  0  0  0  0  0
    5.1492    6.1597   11.2052 C   0  0  0  0  0  0  0  0  0  0  0  0
    5.8125    7.8976   12.5958 O   0  0  0  0  0  0  0  0  0  0  0  0
    4.1839    7.8910   14.3219 C   0  0  0  0  0  0  0  0  0  0  0  0
    4.0936    9.2138   14.4195 N   0  0  0  0  0  0  0  0  0  0  0  0
    3.8680    7.1488   15.2433 O   0  0  0  0  0  0  0  0  0  0  0  0
    4.5923    9.7923   13.7983 H   0  0  0  0  0  0  0  0  0  0  0  0
    3.2777    9.7820   15.4198 N   0  0  0  0  0  0  0  0  0  0  0  0
    3.4176    9.5564   16.3678 H   0  0  0  0  0  0  0  0  0  0  0  0
    2.3173   10.6267   15.0613 C   0  0  0  0  0  0  0  0  0  0  0  0
    1.0263   10.6604   15.9724 S   0  0  0  0  0  0  0  0  0  0  0  0
    2.4445   11.3822   13.9483 N   0  0  0  0  0  0  0  0  0  0  0  0
    2.9572   12.7455   13.8794 C   0  0  0  0  0  0  0  0  0  0  0  0
    2.1629   10.9712   13.0991 H   0  0  0  0  0  0  0  0  0  0  0  0
    7.1006    7.5017   10.7280 C   0  0  0  0  0  0  0  0  0  0  0  0
    8.0037    7.9576   10.0649 C   0  0  0  0  0  0  0  0  0  0  0  0
    9.1848    8.5756    9.4902 C   0  0  0  0  0  0  0  0  0  0  0  0
   10.3572    7.6185    9.4751 C   0  0  0  0  0  0  0  0  0  0  0  0
   11.5517    8.2745    8.7969 C   0  0  0  0  0  0  0  0  0  0  0  0
   11.1541    9.0402    7.5485 C   0  0  0  0  0  0  0  0  0  0  0  0
  1  6  1  0  0  0
  1  3  2  0  0  0
  1  5  1  0  0  0
  6  7  1  0  0  0
  6  8  2  0  0  0
 12 10  1  0  0  0
 12 14  1  0  0  0
 12 13  2  0  0  0
  2 17  1  0  0  0
  2  4  2  0  0  0
  2  5  1  0  0  0
  3  4  1  0  0  0
 17 18  3  0  0  0
 18 19  1  0  0  0
  7 10  1  0  0  0
 14 15  1  0  0  0
 19 20  1  0  0  0
 20 21  1  0  0  0
 21 22  1  0  0  0
  7  9  1  0  0  0
 10 11  1  0  0  0
 14 16  1  0  0  0
M  END
> <minimizedAffinity>
-5.20289

$$$$
3GK1_32A_A_94


 22 22  0  0  0  0  0  0  0  0999 V2000
    4.4061    6.1515   13.3003 C   0  0  0  0  0  0  0  0  0  0  0  0
    2.5632    5.4662   14.0656 C   0  0  0  0  0  0  0  0  0  0  0  0
    4.6029    5.9877   14.6767 C   0  0  0  0  0  0  0  0  0  0  0  0
    3.3905    5.5417   15.1760 C   0  0  0  0  0  0  0  0  0  0  0  0
    3.1408    5.8438   12.8868 O   0  0  0  0  0  0  0  0  0  0  0  0
    5.2792    6.5926   12.1808 C   0  0  0  0  0  0  0  0  0  0  0  0
    5.4951    7.8912   11.9952 N   0  0  0  0  0  0  0  0  0  0  0  0
    5.7790    5.7411   11.4563 O   0  0  0  0  0  0  0  0  0  0  0  0
    4.8905    8.5569   12.3959 H   0  0  0  0  0  0  0  0  0  0  0  0
    6.5971    8.3079   11.2197 N   0  0  0  0  0  0  0  0  0  0  0  0
    6.5386    8.3281   10.2371 H   0  0  0  0  0  0  0  0  0  0  0  0
    7.7150    8.6726   11.8373 C   0  0  0  0  0  0  0  0  0  0  0  0
    7.5497    9.5211   13.1604 S   0  0  0  0  0  0  0  0  0  0  0  0
    8.9225    8.3543   11.3211 N   0  0  0  0  0  0  0  0  0  0  0  0
    9.2176    8.0572    9.9244 C   0  0  0  0  0  0  0  0  0  0  0  0
    9.6785    8.3195   11.9508 H   0  0  0  0  0  0  0  0  0  0  0  0
    1.2937    5.1158   14.0541 C   0  0  0  0  0  0  0  0  0  0  0  0
    0.1592    4.7229   13.9067 C   0  0  0  0  0  0  0  0  0  0  0  0
   -1.1099    4.0269   13.7965 C   0  0  0  0  0  0  0  0  0  0  0  0
   -0.9405    2.6679   13.1521 C   0  0  0  0  0  0  0  0  0  0  0  0
   -1.1757    2.7738   11.6520 C   0  0  0  0  0  0  0  0  0  0  0  0
   -2.3543    3.6693   11.3174 C   0  0  0  0  0  0  0  0  0  0  0  0
  1  6  1  0  0  0
  1  3  2  0  0  0
  1  5  1  0  0  0
  6  7  1  0  0  0
  6  8  2  0  0  0
 12 10  1  0  0  0
 12 14  1  0  0  0
 12 13  2  0  0  0
  2 17  1  0  0  0
  2  4  2  0  0  0
  2  5  1  0  0  0
  3  4  1  0  0  0
 17 18  3  0  0  0
 18 19  1  0  0  0
  7 10  1  0  0  0
 14 15  1  0  0  0
 19 20  1  0  0  0
 20 21  1  0  0  0
 21 22  1  0  0  0
  7  9  1  0  0  0
 10 11  1  0  0  0
 14 16  1  0  0  0
M  END
> <minimizedAffinity>
-5.18654

$$$$
3GK1_32A_A_94


 22 22  0  0  0  0  0  0  0  0999 V2000
    4.0658    6.1570   13.6919 C   0  0  0  0  0  0  0  0  0  0  0  0
    2.1729    5.3187   14.0990 C   0  0  0  0  0  0  0  0  0  0  0  0
    3.9431    6.1534   15.0865 C   0  0  0  0  0  0  0  0  0  0  0  0
    2.6984    5.6062   15.3497 C   0  0  0  0  0  0  0  0  0  0  0  0
    2.9743    5.6516   13.0441 O   0  0  0  0  0  0  0  0  0  0  0  0
    5.1319    6.5960   12.7532 C   0  0  0  0  0  0  0  0  0  0  0  0
    5.2787    7.8915   12.4935 N   0  0  0  0  0  0  0  0  0  0  0  0
    5.8502    5.7457   12.2426 O   0  0  0  0  0  0  0  0  0  0  0  0
    4.5472    8.5219   12.6851 H   0  0  0  0  0  0  0  0  0  0  0  0
    6.4907    8.3558   11.9414 N   0  0  0  0  0  0  0  0  0  0  0  0
    6.7206    8.1616   11.0040 H   0  0  0  0  0  0  0  0  0  0  0  0
    7.3167    9.0596   12.7074 C   0  0  0  0  0  0  0  0  0  0  0  0
    8.7564    8.4516   12.9429 S   0  0  0  0  0  0  0  0  0  0  0  0
    6.9113   10.2162   13.2765 N   0  0  0  0  0  0  0  0  0  0  0  0
    6.6859   10.4509   14.6979 C   0  0  0  0  0  0  0  0  0  0  0  0
    6.7523   10.9761   12.6711 H   0  0  0  0  0  0  0  0  0  0  0  0
    0.9855    4.8094   13.8439 C   0  0  0  0  0  0  0  0  0  0  0  0
   -0.0282    4.2237   13.5393 C   0  0  0  0  0  0  0  0  0  0  0  0
   -1.1849    3.3648   13.3622 C   0  0  0  0  0  0  0  0  0  0  0  0
   -1.3383    2.9351   11.9191 C   0  0  0  0  0  0  0  0  0  0  0  0
   -2.7555    3.2201   11.4424 C   0  0  0  0  0  0  0  0  0  0  0  0
   -2.8183    4.4171   10.5117 C   0  0  0  0  0  0  0  0  0  0  0  0
  1  6  1  0  0  0
  1  3  2  0  0  0
  1  5  1  0  0  0
  6  7  1  0  0  0
  6  8  2  0  0  0
 12 10  1  0  0  0
 12 14  1  0  0  0
 12 13  2  0  0  0
  2 17  1  0  0  0
  2  4  2  0  0  0
  2  5  1  0  0  0
  3  4  1  0  0  0
 17 18  3  0  0  0
 18 19  1  0  0  0
  7 10  1  0  0  0
 14 15  1  0  0  0
 19 20  1  0  0  0
 20 21  1  0  0  0
 21 22  1  0  0  0
  7  9  1  0  0  0
 10 11  1  0  0  0
 14 16  1  0  0  0
M  END
> <minimizedAffinity>
-5.17059

$$$$
3GK1_32A_A_94


 22 22  0  0  0  0  0  0  0  0999 V2000
    4.6243    7.3114   12.8422 C   0  0  0  0  0  0  0  0  0  0  0  0
    6.2130    7.2467   11.4553 C   0  0  0  0  0  0  0  0  0  0  0  0
    4.3627    6.2127   12.0149 C   0  0  0  0  0  0  0  0  0  0  0  0
    5.4051    6.1757   11.1039 C   0  0  0  0  0  0  0  0  0  0  0  0
    5.7668    7.9850   12.5143 O   0  0  0  0  0  0  0  0  0  0  0  0
    3.9241    7.9122   14.0080 C   0  0  0  0  0  0  0  0  0  0  0  0
    2.8256    8.6337   13.8078 N   0  0  0  0  0  0  0  0  0  0  0  0
    4.3821    7.7237   15.1280 O   0  0  0  0  0  0  0  0  0  0  0  0
    2.6276    8.9985   12.9150 H   0  0  0  0  0  0  0  0  0  0  0  0
    1.9460    8.8723   14.8841 N   0  0  0  0  0  0  0  0  0  0  0  0
    2.0233    9.6939   15.4211 H   0  0  0  0  0  0  0  0  0  0  0  0
    1.0114    7.9700   15.1612 C   0  0  0  0  0  0  0  0  0  0  0  0
    0.9475    7.4503   16.6524 S   0  0  0  0  0  0  0  0  0  0  0  0
    0.1921    7.5068   14.1916 N   0  0  0  0  0  0  0  0  0  0  0  0
   -1.2586    7.3812   14.2689 C   0  0  0  0  0  0  0  0  0  0  0  0
    0.6169    7.2262   13.3490 H   0  0  0  0  0  0  0  0  0  0  0  0
    7.3166    7.6308   10.8479 C   0  0  0  0  0  0  0  0  0  0  0  0
    8.3044    8.1248   10.3545 C   0  0  0  0  0  0  0  0  0  0  0  0
    9.5878    8.6990    9.9937 C   0  0  0  0  0  0  0  0  0  0  0  0
   10.2606    7.9026    8.8966 C   0  0  0  0  0  0  0  0  0  0  0  0
   10.9135    8.8473    7.8975 C   0  0  0  0  0  0  0  0  0  0  0  0
   10.2811   10.2268    7.9140 C   0  0  0  0  0  0  0  0  0  0  0  0
  1  6  1  0  0  0
  1  3  2  0  0  0
  1  5  1  0  0  0
  6  7  1  0  0  0
  6  8  2  0  0  0
 12 10  1  0  0  0
 12 14  1  0  0  0
 12 13  2  0  0  0
  2 17  1  0  0  0
  2  4  2  0  0  0
  2  5  1  0  0  0
  3  4  1  0  0  0
 17 18  3  0  0  0
 18 19  1  0  0  0
  7 10  1  0  0  0
 14 15  1  0  0  0
 19 20  1  0  0  0
 20 21  1  0  0  0
 21 22  1  0  0  0
  7  9  1  0  0  0
 10 11  1  0  0  0
 14 16  1  0  0  0
M  END
> <minimizedAffinity>
-5.14659

$$$$
3GK1_32A_A_94


 22 22  0  0  0  0  0  0  0  0999 V2000
    9.2594    8.6050   10.2129 C   0  0  0  0  0  0  0  0  0  0  0  0
    7.5302    8.0228   11.2724 C   0  0  0  0  0  0  0  0  0  0  0  0
    9.2136    9.4252   11.3465 C   0  0  0  0  0  0  0  0  0  0  0  0
    8.0757    9.0429   12.0373 C   0  0  0  0  0  0  0  0  0  0  0  0
    8.2181    7.7244   10.1307 O   0  0  0  0  0  0  0  0  0  0  0  0
   10.2000    8.4826    9.0680 C   0  0  0  0  0  0  0  0  0  0  0  0
   10.2775    9.4687    8.1798 N   0  0  0  0  0  0  0  0  0  0  0  0
   10.8821    7.4698    8.9751 O   0  0  0  0  0  0  0  0  0  0  0  0
    9.5533   10.1320    8.1104 H   0  0  0  0  0  0  0  0  0  0  0  0
   11.4055    9.5575    7.3377 N   0  0  0  0  0  0  0  0  0  0  0  0
   11.5906    8.8548    6.6734 H   0  0  0  0  0  0  0  0  0  0  0  0
   12.2136   10.6049    7.4560 C   0  0  0  0  0  0  0  0  0  0  0  0
   13.4550   10.4374    8.4197 S   0  0  0  0  0  0  0  0  0  0  0  0
   11.9467   11.7580    6.8041 N   0  0  0  0  0  0  0  0  0  0  0  0
   12.8486   12.4801    5.9145 C   0  0  0  0  0  0  0  0  0  0  0  0
   11.0543   12.1497    6.9438 H   0  0  0  0  0  0  0  0  0  0  0  0
    6.4157    7.3659   11.5189 C   0  0  0  0  0  0  0  0  0  0  0  0
    5.4431    6.7522   11.8938 C   0  0  0  0  0  0  0  0  0  0  0  0
    4.2059    6.2338   12.4486 C   0  0  0  0  0  0  0  0  0  0  0  0
    4.4518    5.4787   13.7370 C   0  0  0  0  0  0  0  0  0  0  0  0
    3.1385    4.9234   14.2698 C   0  0  0  0  0  0  0  0  0  0  0  0
    2.6281    5.7049   15.4664 C   0  0  0  0  0  0  0  0  0  0  0  0
  1  6  1  0  0  0
  1  3  2  0  0  0
  1  5  1  0  0  0
  6  7  1  0  0  0
  6  8  2  0  0  0
 12 10  1  0  0  0
 12 14  1  0  0  0
 12 13  2  0  0  0
  2 17  1  0  0  0
  2  4  2  0  0  0
  2  5  1  0  0  0
  3  4  1  0  0  0
 17 18  3  0  0  0
 18 19  1  0  0  0
  7 10  1  0  0  0
 14 15  1  0  0  0
 19 20  1  0  0  0
 20 21  1  0  0  0
 21 22  1  0  0  0
  7  9  1  0  0  0
 10 11  1  0  0  0
 14 16  1  0  0  0
M  END
> <minimizedAffinity>
-5.05047

$$$$
3GK1_32A_A_94


 22 22  0  0  0  0  0  0  0  0999 V2000
    6.4113    7.3906   11.5470 C   0  0  0  0  0  0  0  0  0  0  0  0
    4.9477    6.8048   12.9493 C   0  0  0  0  0  0  0  0  0  0  0  0
    5.5383    6.5431   10.8544 C   0  0  0  0  0  0  0  0  0  0  0  0
    4.5816    6.1578   11.7787 C   0  0  0  0  0  0  0  0  0  0  0  0
    6.0772    7.5678   12.8598 O   0  0  0  0  0  0  0  0  0  0  0  0
    7.6340    8.1447   11.1642 C   0  0  0  0  0  0  0  0  0  0  0  0
    8.3144    7.7776   10.0826 N   0  0  0  0  0  0  0  0  0  0  0  0
    7.9821    9.0900   11.8605 O   0  0  0  0  0  0  0  0  0  0  0  0
    8.1900    6.8793    9.6995 H   0  0  0  0  0  0  0  0  0  0  0  0
    9.2159    8.6850    9.4884 N   0  0  0  0  0  0  0  0  0  0  0  0
    8.9966    9.6430    9.4305 H   0  0  0  0  0  0  0  0  0  0  0  0
   10.3658    8.2253    9.0082 C   0  0  0  0  0  0  0  0  0  0  0  0
   10.9758    8.9956    7.7702 S   0  0  0  0  0  0  0  0  0  0  0  0
   10.9474    7.1296    9.5441 N   0  0  0  0  0  0  0  0  0  0  0  0
   12.2821    7.0532   10.1261 C   0  0  0  0  0  0  0  0  0  0  0  0
   10.4170    6.3002    9.5413 H   0  0  0  0  0  0  0  0  0  0  0  0
    4.3461    6.7157   14.1175 C   0  0  0  0  0  0  0  0  0  0  0  0
    3.7308    6.7743   15.1572 C   0  0  0  0  0  0  0  0  0  0  0  0
    2.7911    6.7908   16.2636 C   0  0  0  0  0  0  0  0  0  0  0  0
    1.7240    5.7304   16.0979 C   0  0  0  0  0  0  0  0  0  0  0  0
    0.5454    6.0355   17.0116 C   0  0  0  0  0  0  0  0  0  0  0  0
   -0.0568    7.4008   16.7354 C   0  0  0  0  0  0  0  0  0  0  0  0
  1  6  1  0  0  0
  1  3  2  0  0  0
  1  5  1  0  0  0
  6  7  1  0  0  0
  6  8  2  0  0  0
 12 10  1  0  0  0
 12 14  1  0  0  0
 12 13  2  0  0  0
  2 17  1  0  0  0
  2  4  2  0  0  0
  2  5  1  0  0  0
  3  4  1  0  0  0
 17 18  3  0  0  0
 18 19  1  0  0  0
  7 10  1  0  0  0
 14 15  1  0  0  0
 19 20  1  0  0  0
 20 21  1  0  0  0
 21 22  1  0  0  0
  7  9  1  0  0  0
 10 11  1  0  0  0
 14 16  1  0  0  0
M  END
> <minimizedAffinity>
-4.98804

$$$$
3GK1_32A_A_94


 22 22  0  0  0  0  0  0  0  0999 V2000
    2.7939    5.8893   15.1466 C   0  0  0  0  0  0  0  0  0  0  0  0
    0.9695    5.0722   14.4715 C   0  0  0  0  0  0  0  0  0  0  0  0
    1.8912    6.0474   16.2051 C   0  0  0  0  0  0  0  0  0  0  0  0
    0.6944    5.5136   15.7570 C   0  0  0  0  0  0  0  0  0  0  0  0
    2.2484    5.2926   14.0453 O   0  0  0  0  0  0  0  0  0  0  0  0
    4.2276    6.2332   14.9562 C   0  0  0  0  0  0  0  0  0  0  0  0
    4.9197    5.6325   13.9931 N   0  0  0  0  0  0  0  0  0  0  0  0
    4.7341    7.0667   15.6967 O   0  0  0  0  0  0  0  0  0  0  0  0
    4.5921    4.7931   13.5965 H   0  0  0  0  0  0  0  0  0  0  0  0
    6.1270    6.2070   13.5440 N   0  0  0  0  0  0  0  0  0  0  0  0
    6.9775    6.0013   13.9952 H   0  0  0  0  0  0  0  0  0  0  0  0
    6.0972    7.0302   12.5020 C   0  0  0  0  0  0  0  0  0  0  0  0
    5.5174    6.4456   11.1529 S   0  0  0  0  0  0  0  0  0  0  0  0
    6.5786    8.2886   12.6043 N   0  0  0  0  0  0  0  0  0  0  0  0
    7.0626    8.9360   13.8178 C   0  0  0  0  0  0  0  0  0  0  0  0
    6.6053    8.8215   11.7769 H   0  0  0  0  0  0  0  0  0  0  0  0
    0.1197    4.5161   13.6330 C   0  0  0  0  0  0  0  0  0  0  0  0
   -0.6875    3.8995   12.9762 C   0  0  0  0  0  0  0  0  0  0  0  0
   -1.8278    3.2691   12.3362 C   0  0  0  0  0  0  0  0  0  0  0  0
   -2.8497    4.2943   11.8941 C   0  0  0  0  0  0  0  0  0  0  0  0
   -3.0956    4.1672   10.3973 C   0  0  0  0  0  0  0  0  0  0  0  0
   -2.9603    5.4968    9.6784 C   0  0  0  0  0  0  0  0  0  0  0  0
  1  6  1  0  0  0
  1  3  2  0  0  0
  1  5  1  0  0  0
  6  7  1  0  0  0
  6  8  2  0  0  0
 12 10  1  0  0  0
 12 14  1  0  0  0
 12 13  2  0  0  0
  2 17  1  0  0  0
  2  4  2  0  0  0
  2  5  1  0  0  0
  3  4  1  0  0  0
 17 18  3  0  0  0
 18 19  1  0  0  0
  7 10  1  0  0  0
 14 15  1  0  0  0
 19 20  1  0  0  0
 20 21  1  0  0  0
 21 22  1  0  0  0
  7  9  1  0  0  0
 10 11  1  0  0  0
 14 16  1  0  0  0
M  END
> <minimizedAffinity>
-4.98501

$$$$
3GK1_32A_A_94


 22 22  0  0  0  0  0  0  0  0999 V2000
    0.4925    5.4825   14.8797 C   0  0  0  0  0  0  0  0  0  0  0  0
    2.4606    5.8238   14.2002 C   0  0  0  0  0  0  0  0  0  0  0  0
    1.2877    5.5409   16.0305 C   0  0  0  0  0  0  0  0  0  0  0  0
    2.5788    5.7612   15.5806 C   0  0  0  0  0  0  0  0  0  0  0  0
    1.1947    5.6456   13.7192 O   0  0  0  0  0  0  0  0  0  0  0  0
   -0.9607    5.2781   14.6417 C   0  0  0  0  0  0  0  0  0  0  0  0
   -1.5789    6.0074   13.7178 N   0  0  0  0  0  0  0  0  0  0  0  0
   -1.5514    4.4372   15.3077 O   0  0  0  0  0  0  0  0  0  0  0  0
   -1.1732    6.8433   13.3924 H   0  0  0  0  0  0  0  0  0  0  0  0
   -2.8203    5.5741   13.2075 N   0  0  0  0  0  0  0  0  0  0  0  0
   -3.6489    5.7155   13.7199 H   0  0  0  0  0  0  0  0  0  0  0  0
   -2.8526    4.9723   12.0238 C   0  0  0  0  0  0  0  0  0  0  0  0
   -3.1376    5.8902   10.7692 S   0  0  0  0  0  0  0  0  0  0  0  0
   -2.6844    3.6351   11.9261 N   0  0  0  0  0  0  0  0  0  0  0  0
   -1.4168    2.9285   11.7846 C   0  0  0  0  0  0  0  0  0  0  0  0
   -3.4990    3.0829   11.9530 H   0  0  0  0  0  0  0  0  0  0  0  0
    3.4392    5.9902   13.3347 C   0  0  0  0  0  0  0  0  0  0  0  0
    4.2664    6.0328   12.4532 C   0  0  0  0  0  0  0  0  0  0  0  0
    5.0835    6.2103   11.2666 C   0  0  0  0  0  0  0  0  0  0  0  0
    6.3264    7.0198   11.5677 C   0  0  0  0  0  0  0  0  0  0  0  0
    6.6674    7.9059   10.3780 C   0  0  0  0  0  0  0  0  0  0  0  0
    8.1585    7.9435   10.0987 C   0  0  0  0  0  0  0  0  0  0  0  0
  1  6  1  0  0  0
  1  3  2  0  0  0
  1  5  1  0  0  0
  6  7  1  0  0  0
  6  8  2  0  0  0
 12 10  1  0  0  0
 12 14  1  0  0  0
 12 13  2  0  0  0
  2 17  1  0  0  0
  2  4  2  0  0  0
  2  5  1  0  0  0
  3  4  1  0  0  0
 17 18  3  0  0  0
 18 19  1  0  0  0
  7 10  1  0  0  0
 14 15  1  0  0  0
 19 20  1  0  0  0
 20 21  1  0  0  0
 21 22  1  0  0  0
  7  9  1  0  0  0
 10 11  1  0  0  0
 14 16  1  0  0  0
M  END
> <minimizedAffinity>
-4.98025

$$$$
3GK1_32A_A_94


 22 22  0  0  0  0  0  0  0  0999 V2000
    4.4383    7.2707   12.8811 C   0  0  0  0  0  0  0  0  0  0  0  0
    5.9570    7.2259   11.4171 C   0  0  0  0  0  0  0  0  0  0  0  0
    4.2087    6.1118   12.1300 C   0  0  0  0  0  0  0  0  0  0  0  0
    5.2048    6.0878   11.1681 C   0  0  0  0  0  0  0  0  0  0  0  0
    5.5164    7.9947   12.4567 O   0  0  0  0  0  0  0  0  0  0  0  0
    3.7588    7.8927   14.0481 C   0  0  0  0  0  0  0  0  0  0  0  0
    3.0346    8.9933   13.8703 N   0  0  0  0  0  0  0  0  0  0  0  0
    3.8860    7.3696   15.1480 O   0  0  0  0  0  0  0  0  0  0  0  0
    3.1592    9.5443   13.0639 H   0  0  0  0  0  0  0  0  0  0  0  0
    2.0863    9.3655   14.8457 N   0  0  0  0  0  0  0  0  0  0  0  0
    1.4474    8.7056   15.2001 H   0  0  0  0  0  0  0  0  0  0  0  0
    2.0698   10.6212   15.2782 C   0  0  0  0  0  0  0  0  0  0  0  0
    2.6967   10.8883   16.7043 S   0  0  0  0  0  0  0  0  0  0  0  0
    1.5062   11.5986   14.5346 N   0  0  0  0  0  0  0  0  0  0  0  0
    2.2058   12.5518   13.6814 C   0  0  0  0  0  0  0  0  0  0  0  0
    0.5254   11.6747   14.5727 H   0  0  0  0  0  0  0  0  0  0  0  0
    7.0015    7.6428   10.7319 C   0  0  0  0  0  0  0  0  0  0  0  0
    8.0481    7.9682   10.2201 C   0  0  0  0  0  0  0  0  0  0  0  0
    9.3282    8.1139    9.5513 C   0  0  0  0  0  0  0  0  0  0  0  0
   10.3948    8.6127   10.5022 C   0  0  0  0  0  0  0  0  0  0  0  0
   11.4057    7.5071   10.7716 C   0  0  0  0  0  0  0  0  0  0  0  0
   12.3966    7.3454    9.6336 C   0  0  0  0  0  0  0  0  0  0  0  0
  1  6  1  0  0  0
  1  3  2  0  0  0
  1  5  1  0  0  0
  6  7  1  0  0  0
  6  8  2  0  0  0
 12 10  1  0  0  0
 12 14  1  0  0  0
 12 13  2  0  0  0
  2 17  1  0  0  0
  2  4  2  0  0  0
  2  5  1  0  0  0
  3  4  1  0  0  0
 17 18  3  0  0  0
 18 19  1  0  0  0
  7 10  1  0  0  0
 14 15  1  0  0  0
 19 20  1  0  0  0
 20 21  1  0  0  0
 21 22  1  0  0  0
  7  9  1  0  0  0
 10 11  1  0  0  0
 14 16  1  0  0  0
M  END
> <minimizedAffinity>
-4.91514

$$$$
3GK1_32A_A_94


 22 22  0  0  0  0  0  0  0  0999 V2000
    6.2057    7.9415   12.6502 C   0  0  0  0  0  0  0  0  0  0  0  0
    7.5313    7.8256   11.0128 C   0  0  0  0  0  0  0  0  0  0  0  0
    5.5555    7.1585   11.6888 C   0  0  0  0  0  0  0  0  0  0  0  0
    6.4267    7.0879   10.6145 C   0  0  0  0  0  0  0  0  0  0  0  0
    7.4374    8.3825   12.2566 O   0  0  0  0  0  0  0  0  0  0  0  0
    5.8455    8.4040   14.0165 C   0  0  0  0  0  0  0  0  0  0  0  0
    5.3248    9.6165   14.1780 N   0  0  0  0  0  0  0  0  0  0  0  0
    6.0395    7.6494   14.9612 O   0  0  0  0  0  0  0  0  0  0  0  0
    5.4255   10.2975   13.4742 H   0  0  0  0  0  0  0  0  0  0  0  0
    4.6269    9.9197   15.3656 N   0  0  0  0  0  0  0  0  0  0  0  0
    5.1139   10.0706   16.2077 H   0  0  0  0  0  0  0  0  0  0  0  0
    3.3015    9.9982   15.3286 C   0  0  0  0  0  0  0  0  0  0  0  0
    2.5184    9.3416   16.5343 S   0  0  0  0  0  0  0  0  0  0  0  0
    2.6748   10.5821   14.2835 N   0  0  0  0  0  0  0  0  0  0  0  0
    2.5467   12.0139   14.0391 C   0  0  0  0  0  0  0  0  0  0  0  0
    2.2638    9.9810   13.6211 H   0  0  0  0  0  0  0  0  0  0  0  0
    8.6127    8.0674   10.3012 C   0  0  0  0  0  0  0  0  0  0  0  0
    9.5984    8.1386    9.6035 C   0  0  0  0  0  0  0  0  0  0  0  0
   10.6184    8.2236    8.5742 C   0  0  0  0  0  0  0  0  0  0  0  0
   10.4021    9.4254    7.6800 C   0  0  0  0  0  0  0  0  0  0  0  0
   10.8278   10.6937    8.4061 C   0  0  0  0  0  0  0  0  0  0  0  0
   10.2021   11.9379    7.8032 C   0  0  0  0  0  0  0  0  0  0  0  0
  1  6  1  0  0  0
  1  3  2  0  0  0
  1  5  1  0  0  0
  6  7  1  0  0  0
  6  8  2  0  0  0
 12 10  1  0  0  0
 12 14  1  0  0  0
 12 13  2  0  0  0
  2 17  1  0  0  0
  2  4  2  0  0  0
  2  5  1  0  0  0
  3  4  1  0  0  0
 17 18  3  0  0  0
 18 19  1  0  0  0
  7 10  1  0  0  0
 14 15  1  0  0  0
 19 20  1  0  0  0
 20 21  1  0  0  0
 21 22  1  0  0  0
  7  9  1  0  0  0
 10 11  1  0  0  0
 14 16  1  0  0  0
M  END
> <minimizedAffinity>
-4.82877

$$$$
