3SUT_OAN_A_2000


 30 31  0  0  0  0  0  0  0  0999 V2000
   41.9476  -16.7124   14.0227 C   0  0  0  0  0  0  0  0  0  0  0  0
   42.6996  -17.8661   14.7810 C   0  0  0  0  0  0  0  0  0  0  0  0
   43.6768  -17.3512   15.6992 O   0  0  0  0  0  0  0  0  0  0  0  0
   41.6850  -18.7501   15.5221 C   0  0  0  0  0  0  0  0  0  0  0  0
   42.3659  -19.8368   16.2010 O   0  0  0  0  0  0  0  0  0  0  0  0
   40.7309  -19.3078   14.4783 C   0  0  0  0  0  0  0  0  0  0  0  0
   39.9744  -18.2109   13.8667 O   0  0  0  0  0  0  0  0  0  0  0  0
   40.5334  -16.9469   13.9359 C   0  0  0  0  0  0  0  0  0  0  0  0
   39.6400  -16.0967   13.4412 N   0  0  0  0  0  0  0  0  0  0  0  0
   43.2344  -16.8120   16.3733 H   0  0  0  0  0  0  0  0  0  0  0  0
   42.8533  -20.3684   15.5523 H   0  0  0  0  0  0  0  0  0  0  0  0
   43.6335  -15.0197   11.1006 C   0  0  0  0  0  0  0  0  0  0  0  0
   42.9677  -15.1311   12.4414 C   0  0  0  0  0  0  0  0  0  0  0  0
   42.7601  -14.1434   13.1381 O   0  0  0  0  0  0  0  0  0  0  0  0
   42.6523  -16.3772   12.7795 N   0  0  0  0  0  0  0  0  0  0  0  0
   42.9025  -17.1079   12.1690 H   0  0  0  0  0  0  0  0  0  0  0  0
   39.7838  -20.3310   15.1016 C   0  0  0  0  0  0  0  0  0  0  0  0
   39.3118  -19.7573   16.3185 O   0  0  0  0  0  0  0  0  0  0  0  0
   40.0653  -19.5599   16.8965 H   0  0  0  0  0  0  0  0  0  0  0  0
   38.5486  -15.9371   14.3745 O   0  0  0  0  0  0  0  0  0  0  0  0
   37.4627  -16.7096   14.5673 C   0  0  0  0  0  0  0  0  0  0  0  0
   36.4615  -16.4051   13.8959 O   0  0  0  0  0  0  0  0  0  0  0  0
   37.3989  -17.4485   15.7045 N   0  0  0  0  0  0  0  0  0  0  0  0
   38.2277  -17.5904   16.2164 H   0  0  0  0  0  0  0  0  0  0  0  0
   36.2596  -17.9973   16.1680 C   0  0  0  0  0  0  0  0  0  0  0  0
   35.3745  -17.2563   16.9802 C   0  0  0  0  0  0  0  0  0  0  0  0
   34.1485  -17.7958   17.4027 C   0  0  0  0  0  0  0  0  0  0  0  0
   33.8030  -19.0797   16.9600 C   0  0  0  0  0  0  0  0  0  0  0  0
   34.6492  -19.8182   16.1179 C   0  0  0  0  0  0  0  0  0  0  0  0
   35.8711  -19.2710   15.7120 C   0  0  0  0  0  0  0  0  0  0  0  0
 12 13  1  0  0  0
 13 14  2  0  0  0
 13 15  1  0  0  0
 15  1  1  0  0  0
  1  2  1  0  0  0
  1  8  1  0  0  0
  2  3  1  0  0  0
  2  4  1  0  0  0
  4  5  1  0  0  0
  4  6  1  0  0  0
  6 17  1  0  0  0
  6  7  1  0  0  0
 17 18  1  0  0  0
  7  8  1  0  0  0
  8  9  2  0  0  0
  9 20  1  0  0  0
 20 21  1  0  0  0
 21 22  2  0  0  0
 21 23  1  0  0  0
 23 25  1  0  0  0
 25 26  2  0  0  0
 25 30  1  0  0  0
 26 27  1  0  0  0
 27 28  2  0  0  0
 28 29  1  0  0  0
 29 30  2  0  0  0
 15 16  1  0  0  0
  3 10  1  0  0  0
  5 11  1  0  0  0
 18 19  1  0  0  0
 23 24  1  0  0  0
M  END
> <minimizedAffinity>
-7.19810

$$$$
3SUT_OAN_A_2000


 30 31  0  0  0  0  0  0  0  0999 V2000
   41.9423  -16.2943   11.5239 C   0  0  0  0  0  0  0  0  0  0  0  0
   43.1878  -15.3599   11.7407 C   0  0  0  0  0  0  0  0  0  0  0  0
   43.2494  -14.3173   10.7547 O   0  0  0  0  0  0  0  0  0  0  0  0
   43.1468  -14.7565   13.1529 C   0  0  0  0  0  0  0  0  0  0  0  0
   44.3085  -13.9159   13.3749 O   0  0  0  0  0  0  0  0  0  0  0  0
   43.1512  -15.9166   14.1354 C   0  0  0  0  0  0  0  0  0  0  0  0
   41.9255  -16.7045   13.9723 O   0  0  0  0  0  0  0  0  0  0  0  0
   41.2735  -16.6077   12.7556 C   0  0  0  0  0  0  0  0  0  0  0  0
   40.1390  -17.2908   12.8646 N   0  0  0  0  0  0  0  0  0  0  0  0
   42.4606  -13.7573   10.8265 H   0  0  0  0  0  0  0  0  0  0  0  0
   45.1151  -14.4436   13.2659 H   0  0  0  0  0  0  0  0  0  0  0  0
   42.6875  -18.5901    8.6222 C   0  0  0  0  0  0  0  0  0  0  0  0
   42.3676  -17.3014    9.3225 C   0  0  0  0  0  0  0  0  0  0  0  0
   42.2061  -16.2569    8.7005 O   0  0  0  0  0  0  0  0  0  0  0  0
   42.2947  -17.4155   10.6447 N   0  0  0  0  0  0  0  0  0  0  0  0
   42.4855  -18.2911   11.0524 H   0  0  0  0  0  0  0  0  0  0  0  0
   43.2770  -15.4104   15.5709 C   0  0  0  0  0  0  0  0  0  0  0  0
   42.0626  -15.7593   16.2312 O   0  0  0  0  0  0  0  0  0  0  0  0
   41.3139  -15.3534   15.7669 H   0  0  0  0  0  0  0  0  0  0  0  0
   39.2109  -16.5661   13.7020 O   0  0  0  0  0  0  0  0  0  0  0  0
   38.3578  -17.0257   14.6370 C   0  0  0  0  0  0  0  0  0  0  0  0
   38.6927  -18.0854   15.1945 O   0  0  0  0  0  0  0  0  0  0  0  0
   37.0793  -16.5695   14.6137 N   0  0  0  0  0  0  0  0  0  0  0  0
   36.8827  -15.7568   14.0939 H   0  0  0  0  0  0  0  0  0  0  0  0
   36.0662  -17.1719   15.2654 C   0  0  0  0  0  0  0  0  0  0  0  0
   35.4470  -18.3252   14.7377 C   0  0  0  0  0  0  0  0  0  0  0  0
   34.4431  -19.0032   15.4484 C   0  0  0  0  0  0  0  0  0  0  0  0
   34.0989  -18.5294   16.7216 C   0  0  0  0  0  0  0  0  0  0  0  0
   34.7309  -17.4089   17.2834 C   0  0  0  0  0  0  0  0  0  0  0  0
   35.7233  -16.7388   16.5601 C   0  0  0  0  0  0  0  0  0  0  0  0
 12 13  1  0  0  0
 13 14  2  0  0  0
 13 15  1  0  0  0
 15  1  1  0  0  0
  1  2  1  0  0  0
  1  8  1  0  0  0
  2  3  1  0  0  0
  2  4  1  0  0  0
  4  5  1  0  0  0
  4  6  1  0  0  0
  6 17  1  0  0  0
  6  7  1  0  0  0
 17 18  1  0  0  0
  7  8  1  0  0  0
  8  9  2  0  0  0
  9 20  1  0  0  0
 20 21  1  0  0  0
 21 22  2  0  0  0
 21 23  1  0  0  0
 23 25  1  0  0  0
 25 26  2  0  0  0
 25 30  1  0  0  0
 26 27  1  0  0  0
 27 28  2  0  0  0
 28 29  1  0  0  0
 29 30  2  0  0  0
 15 16  1  0  0  0
  3 10  1  0  0  0
  5 11  1  0  0  0
 18 19  1  0  0  0
 23 24  1  0  0  0
M  END
> <minimizedAffinity>
-6.89876

$$$$
3SUT_OAN_A_2000


 30 31  0  0  0  0  0  0  0  0999 V2000
   42.6512  -16.4911   13.4417 C   0  0  0  0  0  0  0  0  0  0  0  0
   43.5462  -17.4112   12.5340 C   0  0  0  0  0  0  0  0  0  0  0  0
   44.3247  -18.3328   13.3135 O   0  0  0  0  0  0  0  0  0  0  0  0
   42.6635  -18.1722   11.5331 C   0  0  0  0  0  0  0  0  0  0  0  0
   43.4826  -19.0020   10.6694 O   0  0  0  0  0  0  0  0  0  0  0  0
   41.9264  -17.1318   10.7053 C   0  0  0  0  0  0  0  0  0  0  0  0
   41.0257  -16.3629   11.5697 O   0  0  0  0  0  0  0  0  0  0  0  0
   41.3215  -16.3375   12.9213 C   0  0  0  0  0  0  0  0  0  0  0  0
   40.3251  -15.7012   13.5277 N   0  0  0  0  0  0  0  0  0  0  0  0
   43.7314  -18.9177   13.8102 H   0  0  0  0  0  0  0  0  0  0  0  0
   44.1163  -18.4444   10.1914 H   0  0  0  0  0  0  0  0  0  0  0  0
   44.8125  -13.8406   15.0386 C   0  0  0  0  0  0  0  0  0  0  0  0
   44.2276  -15.2061   14.8221 C   0  0  0  0  0  0  0  0  0  0  0  0
   44.5354  -16.1556   15.5345 O   0  0  0  0  0  0  0  0  0  0  0  0
   43.3794  -15.2682   13.8007 N   0  0  0  0  0  0  0  0  0  0  0  0
   43.2330  -14.4580   13.2609 H   0  0  0  0  0  0  0  0  0  0  0  0
   41.1465  -17.7947    9.5717 C   0  0  0  0  0  0  0  0  0  0  0  0
   42.0903  -18.0748    8.5405 O   0  0  0  0  0  0  0  0  0  0  0  0
   42.5135  -17.2494    8.2566 H   0  0  0  0  0  0  0  0  0  0  0  0
   39.1491  -16.5405   13.5465 O   0  0  0  0  0  0  0  0  0  0  0  0
   38.3719  -16.9077   14.5830 C   0  0  0  0  0  0  0  0  0  0  0  0
   38.8528  -17.7744   15.3337 O   0  0  0  0  0  0  0  0  0  0  0  0
   37.0424  -16.6426   14.5091 N   0  0  0  0  0  0  0  0  0  0  0  0
   36.7329  -15.9888   13.8412 H   0  0  0  0  0  0  0  0  0  0  0  0
   36.1253  -17.2282   15.3028 C   0  0  0  0  0  0  0  0  0  0  0  0
   35.6979  -16.6100   16.4974 C   0  0  0  0  0  0  0  0  0  0  0  0
   34.6863  -17.1769   17.2897 C   0  0  0  0  0  0  0  0  0  0  0  0
   34.0771  -18.3564   16.8407 C   0  0  0  0  0  0  0  0  0  0  0  0
   34.4576  -18.9659   15.6349 C   0  0  0  0  0  0  0  0  0  0  0  0
   35.4725  -18.3940   14.8603 C   0  0  0  0  0  0  0  0  0  0  0  0
 12 13  1  0  0  0
 13 14  2  0  0  0
 13 15  1  0  0  0
 15  1  1  0  0  0
  1  2  1  0  0  0
  1  8  1  0  0  0
  2  3  1  0  0  0
  2  4  1  0  0  0
  4  5  1  0  0  0
  4  6  1  0  0  0
  6 17  1  0  0  0
  6  7  1  0  0  0
 17 18  1  0  0  0
  7  8  1  0  0  0
  8  9  2  0  0  0
  9 20  1  0  0  0
 20 21  1  0  0  0
 21 22  2  0  0  0
 21 23  1  0  0  0
 23 25  1  0  0  0
 25 26  2  0  0  0
 25 30  1  0  0  0
 26 27  1  0  0  0
 27 28  2  0  0  0
 28 29  1  0  0  0
 29 30  2  0  0  0
 15 16  1  0  0  0
  3 10  1  0  0  0
  5 11  1  0  0  0
 18 19  1  0  0  0
 23 24  1  0  0  0
M  END
> <minimizedAffinity>
-6.74625

$$$$
3SUT_OAN_A_2000


 30 31  0  0  0  0  0  0  0  0999 V2000
   42.0671  -18.3043   14.6271 C   0  0  0  0  0  0  0  0  0  0  0  0
   43.0028  -18.9158   13.5217 C   0  0  0  0  0  0  0  0  0  0  0  0
   43.0698  -20.3476   13.6132 O   0  0  0  0  0  0  0  0  0  0  0  0
   42.5096  -18.4929   12.1295 C   0  0  0  0  0  0  0  0  0  0  0  0
   43.3842  -19.0269   11.1022 O   0  0  0  0  0  0  0  0  0  0  0  0
   42.5307  -16.9734   12.0898 C   0  0  0  0  0  0  0  0  0  0  0  0
   41.5706  -16.4421   13.0621 O   0  0  0  0  0  0  0  0  0  0  0  0
   41.2127  -17.2722   14.1099 C   0  0  0  0  0  0  0  0  0  0  0  0
   40.2541  -16.6524   14.7899 N   0  0  0  0  0  0  0  0  0  0  0  0
   42.1860  -20.7223   13.4737 H   0  0  0  0  0  0  0  0  0  0  0  0
   44.2867  -18.7010   11.2445 H   0  0  0  0  0  0  0  0  0  0  0  0
   43.8551  -18.3412   17.9509 C   0  0  0  0  0  0  0  0  0  0  0  0
   43.0962  -18.8944   16.7798 C   0  0  0  0  0  0  0  0  0  0  0  0
   42.7677  -20.0748   16.7287 O   0  0  0  0  0  0  0  0  0  0  0  0
   42.8417  -17.9950   15.8349 N   0  0  0  0  0  0  0  0  0  0  0  0
   43.1882  -17.0807   15.9502 H   0  0  0  0  0  0  0  0  0  0  0  0
   42.2111  -16.4636   10.6861 C   0  0  0  0  0  0  0  0  0  0  0  0
   41.1778  -17.3030   10.1759 O   0  0  0  0  0  0  0  0  0  0  0  0
   41.4836  -18.2235   10.1675 H   0  0  0  0  0  0  0  0  0  0  0  0
   39.0260  -16.6696   14.0288 O   0  0  0  0  0  0  0  0  0  0  0  0
   37.8548  -17.2759   14.3008 C   0  0  0  0  0  0  0  0  0  0  0  0
   36.9566  -17.1112   13.4570 O   0  0  0  0  0  0  0  0  0  0  0  0
   37.6108  -17.6461   15.5840 N   0  0  0  0  0  0  0  0  0  0  0  0
   38.3695  -17.6900   16.2099 H   0  0  0  0  0  0  0  0  0  0  0  0
   36.3837  -17.9565   16.0446 C   0  0  0  0  0  0  0  0  0  0  0  0
   35.8770  -19.2692   15.9337 C   0  0  0  0  0  0  0  0  0  0  0  0
   34.6313  -19.6179   16.4806 C   0  0  0  0  0  0  0  0  0  0  0  0
   33.9181  -18.6359   17.1814 C   0  0  0  0  0  0  0  0  0  0  0  0
   34.4220  -17.3354   17.3396 C   0  0  0  0  0  0  0  0  0  0  0  0
   35.6606  -17.0004   16.7822 C   0  0  0  0  0  0  0  0  0  0  0  0
 12 13  1  0  0  0
 13 14  2  0  0  0
 13 15  1  0  0  0
 15  1  1  0  0  0
  1  2  1  0  0  0
  1  8  1  0  0  0
  2  3  1  0  0  0
  2  4  1  0  0  0
  4  5  1  0  0  0
  4  6  1  0  0  0
  6 17  1  0  0  0
  6  7  1  0  0  0
 17 18  1  0  0  0
  7  8  1  0  0  0
  8  9  2  0  0  0
  9 20  1  0  0  0
 20 21  1  0  0  0
 21 22  2  0  0  0
 21 23  1  0  0  0
 23 25  1  0  0  0
 25 26  2  0  0  0
 25 30  1  0  0  0
 26 27  1  0  0  0
 27 28  2  0  0  0
 28 29  1  0  0  0
 29 30  2  0  0  0
 15 16  1  0  0  0
  3 10  1  0  0  0
  5 11  1  0  0  0
 18 19  1  0  0  0
 23 24  1  0  0  0
M  END
> <minimizedAffinity>
-6.55876

$$$$
3SUT_OAN_A_2000


 30 31  0  0  0  0  0  0  0  0999 V2000
   38.9938  -16.9683   14.3330 C   0  0  0  0  0  0  0  0  0  0  0  0
   39.5892  -15.5820   13.8913 C   0  0  0  0  0  0  0  0  0  0  0  0
   39.2164  -14.5300   14.7954 O   0  0  0  0  0  0  0  0  0  0  0  0
   41.1189  -15.6807   13.7897 C   0  0  0  0  0  0  0  0  0  0  0  0
   41.6770  -14.4144   13.3529 O   0  0  0  0  0  0  0  0  0  0  0  0
   41.4306  -16.7639   12.7696 C   0  0  0  0  0  0  0  0  0  0  0  0
   40.9515  -18.0583   13.2641 O   0  0  0  0  0  0  0  0  0  0  0  0
   39.9487  -18.0348   14.2175 C   0  0  0  0  0  0  0  0  0  0  0  0
   39.7557  -19.2885   14.6129 N   0  0  0  0  0  0  0  0  0  0  0  0
   39.5711  -14.7212   15.6778 H   0  0  0  0  0  0  0  0  0  0  0  0
   41.3045  -14.1778   12.4891 H   0  0  0  0  0  0  0  0  0  0  0  0
   35.3130  -17.1717   13.5232 C   0  0  0  0  0  0  0  0  0  0  0  0
   36.5411  -16.8106   14.3073 C   0  0  0  0  0  0  0  0  0  0  0  0
   36.4662  -16.2242   15.3817 O   0  0  0  0  0  0  0  0  0  0  0  0
   37.6764  -17.1745   13.7197 N   0  0  0  0  0  0  0  0  0  0  0  0
   37.6316  -17.6014   12.8336 H   0  0  0  0  0  0  0  0  0  0  0  0
   42.9292  -16.8209   12.4806 C   0  0  0  0  0  0  0  0  0  0  0  0
   43.5900  -16.6297   13.7294 O   0  0  0  0  0  0  0  0  0  0  0  0
   43.3250  -15.7770   14.1082 H   0  0  0  0  0  0  0  0  0  0  0  0
   40.8661  -19.7192   15.4310 O   0  0  0  0  0  0  0  0  0  0  0  0
   41.0194  -20.8504   16.1453 C   0  0  0  0  0  0  0  0  0  0  0  0
   41.9217  -21.6123   15.7564 O   0  0  0  0  0  0  0  0  0  0  0  0
   39.9843  -21.2595   16.9227 N   0  0  0  0  0  0  0  0  0  0  0  0
   39.2734  -20.6116   17.1329 H   0  0  0  0  0  0  0  0  0  0  0  0
   39.8802  -22.5064   17.4211 C   0  0  0  0  0  0  0  0  0  0  0  0
   40.4093  -22.8280   18.6894 C   0  0  0  0  0  0  0  0  0  0  0  0
   40.2366  -24.1048   19.2485 C   0  0  0  0  0  0  0  0  0  0  0  0
   39.4843  -25.0449   18.5314 C   0  0  0  0  0  0  0  0  0  0  0  0
   38.9137  -24.7334   17.2873 C   0  0  0  0  0  0  0  0  0  0  0  0
   39.1012  -23.4600   16.7391 C   0  0  0  0  0  0  0  0  0  0  0  0
 12 13  1  0  0  0
 13 14  2  0  0  0
 13 15  1  0  0  0
 15  1  1  0  0  0
  1  2  1  0  0  0
  1  8  1  0  0  0
  2  3  1  0  0  0
  2  4  1  0  0  0
  4  5  1  0  0  0
  4  6  1  0  0  0
  6 17  1  0  0  0
  6  7  1  0  0  0
 17 18  1  0  0  0
  7  8  1  0  0  0
  8  9  2  0  0  0
  9 20  1  0  0  0
 20 21  1  0  0  0
 21 22  2  0  0  0
 21 23  1  0  0  0
 23 25  1  0  0  0
 25 26  2  0  0  0
 25 30  1  0  0  0
 26 27  1  0  0  0
 27 28  2  0  0  0
 28 29  1  0  0  0
 29 30  2  0  0  0
 15 16  1  0  0  0
  3 10  1  0  0  0
  5 11  1  0  0  0
 18 19  1  0  0  0
 23 24  1  0  0  0
M  END
> <minimizedAffinity>
-6.22570

$$$$
3SUT_OAN_A_2000


 30 31  0  0  0  0  0  0  0  0999 V2000
   37.8218  -17.4677   14.0538 C   0  0  0  0  0  0  0  0  0  0  0  0
   36.2737  -17.1992   14.0005 C   0  0  0  0  0  0  0  0  0  0  0  0
   35.8108  -17.0174   12.6530 O   0  0  0  0  0  0  0  0  0  0  0  0
   35.5206  -18.3581   14.6712 C   0  0  0  0  0  0  0  0  0  0  0  0
   34.0917  -18.1061   14.6549 O   0  0  0  0  0  0  0  0  0  0  0  0
   36.0157  -18.4426   16.1061 C   0  0  0  0  0  0  0  0  0  0  0  0
   37.4386  -18.7959   16.1159 O   0  0  0  0  0  0  0  0  0  0  0  0
   38.1624  -18.5208   14.9690 C   0  0  0  0  0  0  0  0  0  0  0  0
   39.3783  -19.0274   15.1430 N   0  0  0  0  0  0  0  0  0  0  0  0
   35.9746  -17.8260   12.1430 H   0  0  0  0  0  0  0  0  0  0  0  0
   33.9042  -17.2774   15.1229 H   0  0  0  0  0  0  0  0  0  0  0  0
   40.3115  -14.6352   13.8999 C   0  0  0  0  0  0  0  0  0  0  0  0
   39.7179  -15.9767   13.5815 C   0  0  0  0  0  0  0  0  0  0  0  0
   40.2783  -16.7623   12.8248 O   0  0  0  0  0  0  0  0  0  0  0  0
   38.5533  -16.2017   14.1813 N   0  0  0  0  0  0  0  0  0  0  0  0
   38.1641  -15.4873   14.7359 H   0  0  0  0  0  0  0  0  0  0  0  0
   35.2035  -19.4634   16.9003 C   0  0  0  0  0  0  0  0  0  0  0  0
   34.2215  -18.7252   17.6237 O   0  0  0  0  0  0  0  0  0  0  0  0
   34.6612  -18.0818   18.2013 H   0  0  0  0  0  0  0  0  0  0  0  0
   39.3231  -20.4690   15.0620 O   0  0  0  0  0  0  0  0  0  0  0  0
   39.7501  -21.3961   15.9403 C   0  0  0  0  0  0  0  0  0  0  0  0
   40.9403  -21.7365   15.8249 O   0  0  0  0  0  0  0  0  0  0  0  0
   38.8175  -22.1544   16.5716 N   0  0  0  0  0  0  0  0  0  0  0  0
   37.8820  -21.8480   16.5623 H   0  0  0  0  0  0  0  0  0  0  0  0
   39.1069  -23.3045   17.2099 C   0  0  0  0  0  0  0  0  0  0  0  0
   39.4815  -23.3054   18.5707 C   0  0  0  0  0  0  0  0  0  0  0  0
   39.7090  -24.5061   19.2630 C   0  0  0  0  0  0  0  0  0  0  0  0
   39.5119  -25.7125   18.5778 C   0  0  0  0  0  0  0  0  0  0  0  0
   39.0992  -25.7357   17.2363 C   0  0  0  0  0  0  0  0  0  0  0  0
   38.8844  -24.5316   16.5573 C   0  0  0  0  0  0  0  0  0  0  0  0
 12 13  1  0  0  0
 13 14  2  0  0  0
 13 15  1  0  0  0
 15  1  1  0  0  0
  1  2  1  0  0  0
  1  8  1  0  0  0
  2  3  1  0  0  0
  2  4  1  0  0  0
  4  5  1  0  0  0
  4  6  1  0  0  0
  6 17  1  0  0  0
  6  7  1  0  0  0
 17 18  1  0  0  0
  7  8  1  0  0  0
  8  9  2  0  0  0
  9 20  1  0  0  0
 20 21  1  0  0  0
 21 22  2  0  0  0
 21 23  1  0  0  0
 23 25  1  0  0  0
 25 26  2  0  0  0
 25 30  1  0  0  0
 26 27  1  0  0  0
 27 28  2  0  0  0
 28 29  1  0  0  0
 29 30  2  0  0  0
 15 16  1  0  0  0
  3 10  1  0  0  0
  5 11  1  0  0  0
 18 19  1  0  0  0
 23 24  1  0  0  0
M  END
> <minimizedAffinity>
-5.95855

$$$$
3SUT_OAN_A_2000


 30 31  0  0  0  0  0  0  0  0999 V2000
   43.2740  -17.5087   13.2335 C   0  0  0  0  0  0  0  0  0  0  0  0
   43.3527  -16.2952   12.2371 C   0  0  0  0  0  0  0  0  0  0  0  0
   43.9426  -16.6732   10.9832 O   0  0  0  0  0  0  0  0  0  0  0  0
   41.9486  -15.7139   12.0121 C   0  0  0  0  0  0  0  0  0  0  0  0
   42.0136  -14.5734   11.1174 O   0  0  0  0  0  0  0  0  0  0  0  0
   41.4220  -15.2780   13.3700 C   0  0  0  0  0  0  0  0  0  0  0  0
   41.2647  -16.4503   14.2364 O   0  0  0  0  0  0  0  0  0  0  0  0
   42.0148  -17.5697   13.9215 C   0  0  0  0  0  0  0  0  0  0  0  0
   41.6318  -18.5409   14.7434 N   0  0  0  0  0  0  0  0  0  0  0  0
   43.3939  -17.3513   10.5591 H   0  0  0  0  0  0  0  0  0  0  0  0
   42.5930  -13.8955   11.4991 H   0  0  0  0  0  0  0  0  0  0  0  0
   46.6949  -18.1935   14.6736 C   0  0  0  0  0  0  0  0  0  0  0  0
   45.5940  -18.2034   13.6531 C   0  0  0  0  0  0  0  0  0  0  0  0
   45.7379  -18.7408   12.5602 O   0  0  0  0  0  0  0  0  0  0  0  0
   44.4917  -17.5759   14.0502 N   0  0  0  0  0  0  0  0  0  0  0  0
   44.4920  -17.1367   14.9312 H   0  0  0  0  0  0  0  0  0  0  0  0
   40.0948  -14.5365   13.2238 C   0  0  0  0  0  0  0  0  0  0  0  0
   39.2949  -14.9136   14.3421 O   0  0  0  0  0  0  0  0  0  0  0  0
   39.1752  -15.8762   14.3441 H   0  0  0  0  0  0  0  0  0  0  0  0
   40.3175  -19.0089   14.3678 O   0  0  0  0  0  0  0  0  0  0  0  0
   39.1624  -18.9729   15.0589 C   0  0  0  0  0  0  0  0  0  0  0  0
   38.7048  -20.0783   15.3972 O   0  0  0  0  0  0  0  0  0  0  0  0
   38.4068  -17.8476   14.9807 N   0  0  0  0  0  0  0  0  0  0  0  0
   38.8273  -17.0254   14.6397 H   0  0  0  0  0  0  0  0  0  0  0  0
   37.1113  -17.7988   15.3456 C   0  0  0  0  0  0  0  0  0  0  0  0
   36.7304  -17.2887   16.6053 C   0  0  0  0  0  0  0  0  0  0  0  0
   35.3777  -17.1627   16.9617 C   0  0  0  0  0  0  0  0  0  0  0  0
   34.4081  -17.5173   16.0142 C   0  0  0  0  0  0  0  0  0  0  0  0
   34.7641  -17.9876   14.7404 C   0  0  0  0  0  0  0  0  0  0  0  0
   36.1156  -18.1155   14.4025 C   0  0  0  0  0  0  0  0  0  0  0  0
 12 13  1  0  0  0
 13 14  2  0  0  0
 13 15  1  0  0  0
 15  1  1  0  0  0
  1  2  1  0  0  0
  1  8  1  0  0  0
  2  3  1  0  0  0
  2  4  1  0  0  0
  4  5  1  0  0  0
  4  6  1  0  0  0
  6 17  1  0  0  0
  6  7  1  0  0  0
 17 18  1  0  0  0
  7  8  1  0  0  0
  8  9  2  0  0  0
  9 20  1  0  0  0
 20 21  1  0  0  0
 21 22  2  0  0  0
 21 23  1  0  0  0
 23 25  1  0  0  0
 25 26  2  0  0  0
 25 30  1  0  0  0
 26 27  1  0  0  0
 27 28  2  0  0  0
 28 29  1  0  0  0
 29 30  2  0  0  0
 15 16  1  0  0  0
  3 10  1  0  0  0
  5 11  1  0  0  0
 18 19  1  0  0  0
 23 24  1  0  0  0
M  END
> <minimizedAffinity>
-5.95789

$$$$
3SUT_OAN_A_2000


 30 31  0  0  0  0  0  0  0  0999 V2000
   42.3492  -16.2776   15.6734 C   0  0  0  0  0  0  0  0  0  0  0  0
   43.3258  -17.1203   16.5720 C   0  0  0  0  0  0  0  0  0  0  0  0
   43.2248  -16.7539   17.9571 O   0  0  0  0  0  0  0  0  0  0  0  0
   43.0354  -18.6183   16.3942 C   0  0  0  0  0  0  0  0  0  0  0  0
   43.9518  -19.4073   17.1962 O   0  0  0  0  0  0  0  0  0  0  0  0
   43.2276  -18.9396   14.9207 C   0  0  0  0  0  0  0  0  0  0  0  0
   42.2323  -18.2145   14.1249 O   0  0  0  0  0  0  0  0  0  0  0  0
   41.6743  -17.0838   14.6951 C   0  0  0  0  0  0  0  0  0  0  0  0
   40.7218  -16.6600   13.8713 N   0  0  0  0  0  0  0  0  0  0  0  0
   42.3255  -16.9320   18.2739 H   0  0  0  0  0  0  0  0  0  0  0  0
   44.8639  -19.2150   16.9280 H   0  0  0  0  0  0  0  0  0  0  0  0
   44.6833  -13.7201   14.1712 C   0  0  0  0  0  0  0  0  0  0  0  0
   44.1497  -15.0838   14.5011 C   0  0  0  0  0  0  0  0  0  0  0  0
   44.7254  -16.1031   14.1355 O   0  0  0  0  0  0  0  0  0  0  0  0
   43.0181  -15.0607   15.1979 N   0  0  0  0  0  0  0  0  0  0  0  0
   42.6105  -14.1887   15.4043 H   0  0  0  0  0  0  0  0  0  0  0  0
   43.1194  -20.4431   14.6754 C   0  0  0  0  0  0  0  0  0  0  0  0
   42.0201  -20.6304   13.7870 O   0  0  0  0  0  0  0  0  0  0  0  0
   41.2146  -20.2686   14.1886 H   0  0  0  0  0  0  0  0  0  0  0  0
   39.5887  -17.5543   13.9334 O   0  0  0  0  0  0  0  0  0  0  0  0
   38.6915  -17.7375   14.9206 C   0  0  0  0  0  0  0  0  0  0  0  0
   38.9338  -18.6768   15.6984 O   0  0  0  0  0  0  0  0  0  0  0  0
   37.4544  -17.1999   14.7665 N   0  0  0  0  0  0  0  0  0  0  0  0
   37.3295  -16.5038   14.0816 H   0  0  0  0  0  0  0  0  0  0  0  0
   36.3891  -17.5703   15.5028 C   0  0  0  0  0  0  0  0  0  0  0  0
   35.9885  -16.8198   16.6291 C   0  0  0  0  0  0  0  0  0  0  0  0
   34.8340  -17.1554   17.3551 C   0  0  0  0  0  0  0  0  0  0  0  0
   34.0602  -18.2340   16.9060 C   0  0  0  0  0  0  0  0  0  0  0  0
   34.4172  -18.9683   15.7642 C   0  0  0  0  0  0  0  0  0  0  0  0
   35.5745  -18.6275   15.0559 C   0  0  0  0  0  0  0  0  0  0  0  0
 12 13  1  0  0  0
 13 14  2  0  0  0
 13 15  1  0  0  0
 15  1  1  0  0  0
  1  2  1  0  0  0
  1  8  1  0  0  0
  2  3  1  0  0  0
  2  4  1  0  0  0
  4  5  1  0  0  0
  4  6  1  0  0  0
  6 17  1  0  0  0
  6  7  1  0  0  0
 17 18  1  0  0  0
  7  8  1  0  0  0
  8  9  2  0  0  0
  9 20  1  0  0  0
 20 21  1  0  0  0
 21 22  2  0  0  0
 21 23  1  0  0  0
 23 25  1  0  0  0
 25 26  2  0  0  0
 25 30  1  0  0  0
 26 27  1  0  0  0
 27 28  2  0  0  0
 28 29  1  0  0  0
 29 30  2  0  0  0
 15 16  1  0  0  0
  3 10  1  0  0  0
  5 11  1  0  0  0
 18 19  1  0  0  0
 23 24  1  0  0  0
M  END
> <minimizedAffinity>
-5.89509

$$$$
3SUT_OAN_A_2000


 30 31  0  0  0  0  0  0  0  0999 V2000
   37.8001  -17.3466   14.1776 C   0  0  0  0  0  0  0  0  0  0  0  0
   36.2517  -17.2817   13.9135 C   0  0  0  0  0  0  0  0  0  0  0  0
   35.9377  -17.5040   12.5297 O   0  0  0  0  0  0  0  0  0  0  0  0
   35.5291  -18.3107   14.7962 C   0  0  0  0  0  0  0  0  0  0  0  0
   34.0957  -18.2384   14.5829 O   0  0  0  0  0  0  0  0  0  0  0  0
   35.8561  -17.9689   16.2410 C   0  0  0  0  0  0  0  0  0  0  0  0
   37.2933  -18.1408   16.4744 O   0  0  0  0  0  0  0  0  0  0  0  0
   38.1210  -18.0850   15.3668 C   0  0  0  0  0  0  0  0  0  0  0  0
   39.3474  -18.3862   15.7797 N   0  0  0  0  0  0  0  0  0  0  0  0
   36.2313  -18.3913   12.2700 H   0  0  0  0  0  0  0  0  0  0  0  0
   33.7819  -17.3453   14.7947 H   0  0  0  0  0  0  0  0  0  0  0  0
   40.0206  -14.3761   13.4765 C   0  0  0  0  0  0  0  0  0  0  0  0
   39.5838  -15.8123   13.4664 C   0  0  0  0  0  0  0  0  0  0  0  0
   40.2783  -16.6900   12.9653 O   0  0  0  0  0  0  0  0  0  0  0  0
   38.3973  -16.0139   14.0305 N   0  0  0  0  0  0  0  0  0  0  0  0
   37.8968  -15.2347   14.3645 H   0  0  0  0  0  0  0  0  0  0  0  0
   35.0483  -18.8407   17.2002 C   0  0  0  0  0  0  0  0  0  0  0  0
   33.9244  -18.0627   17.6055 O   0  0  0  0  0  0  0  0  0  0  0  0
   34.2322  -17.2458   18.0284 H   0  0  0  0  0  0  0  0  0  0  0  0
   39.4291  -19.7972   16.0799 O   0  0  0  0  0  0  0  0  0  0  0  0
   40.3764  -20.6937   15.7449 C   0  0  0  0  0  0  0  0  0  0  0  0
   41.0509  -21.1398   16.6894 O   0  0  0  0  0  0  0  0  0  0  0  0
   40.7898  -20.7324   14.4523 N   0  0  0  0  0  0  0  0  0  0  0  0
   40.2295  -20.2977   13.7695 H   0  0  0  0  0  0  0  0  0  0  0  0
   41.9274  -21.3351   14.0565 C   0  0  0  0  0  0  0  0  0  0  0  0
   41.9588  -22.7196   13.7839 C   0  0  0  0  0  0  0  0  0  0  0  0
   43.1208  -23.3401   13.2966 C   0  0  0  0  0  0  0  0  0  0  0  0
   44.2426  -22.5389   13.0446 C   0  0  0  0  0  0  0  0  0  0  0  0
   44.2205  -21.1535   13.2691 C   0  0  0  0  0  0  0  0  0  0  0  0
   43.0585  -20.5507   13.7625 C   0  0  0  0  0  0  0  0  0  0  0  0
 12 13  1  0  0  0
 13 14  2  0  0  0
 13 15  1  0  0  0
 15  1  1  0  0  0
  1  2  1  0  0  0
  1  8  1  0  0  0
  2  3  1  0  0  0
  2  4  1  0  0  0
  4  5  1  0  0  0
  4  6  1  0  0  0
  6 17  1  0  0  0
  6  7  1  0  0  0
 17 18  1  0  0  0
  7  8  1  0  0  0
  8  9  2  0  0  0
  9 20  1  0  0  0
 20 21  1  0  0  0
 21 22  2  0  0  0
 21 23  1  0  0  0
 23 25  1  0  0  0
 25 26  2  0  0  0
 25 30  1  0  0  0
 26 27  1  0  0  0
 27 28  2  0  0  0
 28 29  1  0  0  0
 29 30  2  0  0  0
 15 16  1  0  0  0
  3 10  1  0  0  0
  5 11  1  0  0  0
 18 19  1  0  0  0
 23 24  1  0  0  0
M  END
> <minimizedAffinity>
-5.81803

$$$$
3SUT_OAN_A_2000


 30 31  0  0  0  0  0  0  0  0999 V2000
   42.2212  -19.7058   15.6775 C   0  0  0  0  0  0  0  0  0  0  0  0
   43.1127  -20.7123   14.8627 C   0  0  0  0  0  0  0  0  0  0  0  0
   42.8241  -22.0770   15.2053 O   0  0  0  0  0  0  0  0  0  0  0  0
   42.9101  -20.4862   13.3568 C   0  0  0  0  0  0  0  0  0  0  0  0
   43.7517  -21.3898   12.5946 O   0  0  0  0  0  0  0  0  0  0  0  0
   43.2982  -19.0457   13.0644 C   0  0  0  0  0  0  0  0  0  0  0  0
   42.3804  -18.1378   13.7594 O   0  0  0  0  0  0  0  0  0  0  0  0
   41.7085  -18.6435   14.8583 C   0  0  0  0  0  0  0  0  0  0  0  0
   40.8493  -17.7106   15.2545 N   0  0  0  0  0  0  0  0  0  0  0  0
   41.9006  -22.2769   14.9863 H   0  0  0  0  0  0  0  0  0  0  0  0
   44.6813  -21.2398   12.8276 H   0  0  0  0  0  0  0  0  0  0  0  0
   43.5288  -19.4471   19.2087 C   0  0  0  0  0  0  0  0  0  0  0  0
   42.8111  -20.0538   18.0381 C   0  0  0  0  0  0  0  0  0  0  0  0
   42.2240  -21.1264   18.1320 O   0  0  0  0  0  0  0  0  0  0  0  0
   42.8925  -19.3287   16.9272 N   0  0  0  0  0  0  0  0  0  0  0  0
   43.4267  -18.5019   16.9432 H   0  0  0  0  0  0  0  0  0  0  0  0
   43.2850  -18.7755   11.5613 C   0  0  0  0  0  0  0  0  0  0  0  0
   44.6098  -19.0196   11.0943 O   0  0  0  0  0  0  0  0  0  0  0  0
   45.2298  -18.4390   11.5626 H   0  0  0  0  0  0  0  0  0  0  0  0
   39.7560  -17.6222   14.3140 O   0  0  0  0  0  0  0  0  0  0  0  0
   38.4411  -17.8442   14.5013 C   0  0  0  0  0  0  0  0  0  0  0  0
   37.6818  -17.2852   13.6908 O   0  0  0  0  0  0  0  0  0  0  0  0
   38.0352  -18.2819   15.7206 N   0  0  0  0  0  0  0  0  0  0  0  0
   38.7111  -18.6534   16.3324 H   0  0  0  0  0  0  0  0  0  0  0  0
   36.7549  -18.2338   16.1361 C   0  0  0  0  0  0  0  0  0  0  0  0
   36.1977  -17.0368   16.6348 C   0  0  0  0  0  0  0  0  0  0  0  0
   34.8429  -16.9592   16.9968 C   0  0  0  0  0  0  0  0  0  0  0  0
   34.0418  -18.0936   16.8091 C   0  0  0  0  0  0  0  0  0  0  0  0
   34.5655  -19.2818   16.2757 C   0  0  0  0  0  0  0  0  0  0  0  0
   35.9188  -19.3468   15.9274 C   0  0  0  0  0  0  0  0  0  0  0  0
 12 13  1  0  0  0
 13 14  2  0  0  0
 13 15  1  0  0  0
 15  1  1  0  0  0
  1  2  1  0  0  0
  1  8  1  0  0  0
  2  3  1  0  0  0
  2  4  1  0  0  0
  4  5  1  0  0  0
  4  6  1  0  0  0
  6 17  1  0  0  0
  6  7  1  0  0  0
 17 18  1  0  0  0
  7  8  1  0  0  0
  8  9  2  0  0  0
  9 20  1  0  0  0
 20 21  1  0  0  0
 21 22  2  0  0  0
 21 23  1  0  0  0
 23 25  1  0  0  0
 25 26  2  0  0  0
 25 30  1  0  0  0
 26 27  1  0  0  0
 27 28  2  0  0  0
 28 29  1  0  0  0
 29 30  2  0  0  0
 15 16  1  0  0  0
  3 10  1  0  0  0
  5 11  1  0  0  0
 18 19  1  0  0  0
 23 24  1  0  0  0
M  END
> <minimizedAffinity>
-5.81363

$$$$
