4C5D_X0R_A_2000


 41 43  0  0  0  0  0  0  0  0999 V2000
  -18.3772  -27.1764  -13.3293 N   0  0  0  0  0  0  0  0  0  0  0  0
  -18.5493  -25.8829  -13.6129 C   0  0  0  0  0  0  0  0  0  0  0  0
  -19.5198  -25.5815  -14.2870 O   0  0  0  0  0  0  0  0  0  0  0  0
  -17.6990  -24.9413  -13.1475 N   0  0  0  0  0  0  0  0  0  0  0  0
  -16.4760  -25.3258  -12.7843 C   0  0  0  0  0  0  0  0  0  0  0  0
  -16.0422  -26.4271  -13.0728 O   0  0  0  0  0  0  0  0  0  0  0  0
  -17.6130  -27.4530  -12.7736 H   0  0  0  0  0  0  0  0  0  0  0  0
  -15.5932  -24.4068  -11.9848 C   0  0  0  0  0  0  0  0  0  0  0  0
  -14.6637  -23.5720  -12.6176 C   0  0  0  0  0  0  0  0  0  0  0  0
  -15.6831  -24.3859  -10.5912 C   0  0  0  0  0  0  0  0  0  0  0  0
  -14.8478  -23.5296   -9.8563 C   0  0  0  0  0  0  0  0  0  0  0  0
  -13.9216  -22.7037  -10.4875 C   0  0  0  0  0  0  0  0  0  0  0  0
  -13.8128  -22.7294  -11.8812 C   0  0  0  0  0  0  0  0  0  0  0  0
  -12.9705  -21.9586  -12.5048 C   0  0  0  0  0  0  0  0  0  0  0  0
  -12.1939  -21.2507  -13.0794 C   0  0  0  0  0  0  0  0  0  0  0  0
  -11.3852  -20.4628  -13.7298 C   0  0  0  0  0  0  0  0  0  0  0  0
  -11.5634  -19.0815  -13.7274 C   0  0  0  0  0  0  0  0  0  0  0  0
  -10.6375  -18.2729  -14.3992 C   0  0  0  0  0  0  0  0  0  0  0  0
   -9.5354  -18.8081  -15.0846 C   0  0  0  0  0  0  0  0  0  0  0  0
   -8.6224  -18.0436  -15.7619 F   0  0  0  0  0  0  0  0  0  0  0  0
   -9.3638  -20.1719  -15.0579 C   0  0  0  0  0  0  0  0  0  0  0  0
  -10.2640  -20.9825  -14.3766 C   0  0  0  0  0  0  0  0  0  0  0  0
  -10.0189  -22.3091  -14.3640 F   0  0  0  0  0  0  0  0  0  0  0  0
  -19.3069  -28.1899  -13.8318 C   0  0  0  0  0  0  0  0  0  0  0  0
  -20.4688  -28.4958  -12.9398 C   0  0  0  0  0  0  0  0  0  0  0  0
  -20.3590  -29.4294  -12.1110 O   0  0  0  0  0  0  0  0  0  0  0  0
  -21.4835  -27.7672  -13.0475 O   0  0  0  0  0  0  0  0  0  0  0  0
  -21.5040  -27.0842  -13.6886 H   0  0  0  0  0  0  0  0  0  0  0  0
  -18.6254  -29.5350  -14.0061 C   0  0  0  0  0  0  0  0  0  0  0  0
  -18.8562  -30.0428  -15.6669 S   0  0  0  0  0  0  0  0  0  0  0  0
  -17.6178  -29.0214  -16.3499 C   0  0  0  0  0  0  0  0  0  0  0  0
  -12.0843  -31.0699  -14.5612 Br  0  0  0  0  0  0  0  0  0  0  0  0
  -13.7770  -30.4634  -15.1278 C   0  0  0  0  0  0  0  0  0  0  0  0
  -14.1145  -29.1218  -14.9029 C   0  0  0  0  0  0  0  0  0  0  0  0
  -15.3690  -28.6706  -15.3019 C   0  0  0  0  0  0  0  0  0  0  0  0
  -14.6581  -31.3398  -15.7784 C   0  0  0  0  0  0  0  0  0  0  0  0
  -15.9095  -30.8781  -16.1962 C   0  0  0  0  0  0  0  0  0  0  0  0
  -16.2581  -29.5374  -15.9393 C   0  0  0  0  0  0  0  0  0  0  0  0
  -18.1819  -23.6264  -12.7861 C   0  0  0  0  0  0  0  0  0  0  0  0
  -17.9033  -22.7887  -14.0140 C   0  0  0  0  0  0  0  0  0  0  0  0
  -18.8874  -21.6405  -14.0871 C   0  0  0  0  0  0  0  0  0  0  0  0
 32 33  1  0  0  0
 33 34  1  0  0  0
 33 36  2  0  0  0
 34 35  2  0  0  0
 35 38  1  0  0  0
 36 37  1  0  0  0
 37 38  2  0  0  0
 38 31  1  0  0  0
 31 30  1  0  0  0
 30 29  1  0  0  0
 29 24  1  0  0  0
 24 25  1  0  0  0
 24  1  1  0  0  0
 25 26  2  0  0  0
 25 27  1  0  0  0
  1  2  1  0  0  0
  2  3  2  0  0  0
  2  4  1  0  0  0
  4 39  1  0  0  0
  4  5  1  0  0  0
 39 40  1  0  0  0
 40 41  1  0  0  0
  5  6  2  0  0  0
  5  8  1  0  0  0
  8  9  1  0  0  0
  8 10  2  0  0  0
  9 13  2  0  0  0
 10 11  1  0  0  0
 11 12  2  0  0  0
 12 13  1  0  0  0
 13 14  1  0  0  0
 14 15  3  0  0  0
 15 16  1  0  0  0
 16 17  1  0  0  0
 16 22  2  0  0  0
 17 18  2  0  0  0
 18 19  1  0  0  0
 19 20  1  0  0  0
 19 21  2  0  0  0
 21 22  1  0  0  0
 22 23  1  0  0  0
 27 28  1  0  0  0
  1  7  1  0  0  0
M  END
> <minimizedAffinity>
-10.57821

$$$$
4C5D_X0R_A_2000


 41 43  0  0  0  0  0  0  0  0999 V2000
  -17.3096  -28.2094  -12.8107 N   0  0  0  0  0  0  0  0  0  0  0  0
  -17.7468  -27.0318  -13.2640 C   0  0  0  0  0  0  0  0  0  0  0  0
  -18.7267  -27.0397  -13.9898 O   0  0  0  0  0  0  0  0  0  0  0  0
  -17.1459  -25.8745  -12.9097 N   0  0  0  0  0  0  0  0  0  0  0  0
  -15.8870  -25.9289  -12.4764 C   0  0  0  0  0  0  0  0  0  0  0  0
  -15.2098  -26.9327  -12.6104 O   0  0  0  0  0  0  0  0  0  0  0  0
  -16.5307  -28.2381  -12.2093 H   0  0  0  0  0  0  0  0  0  0  0  0
  -15.2652  -24.7449  -11.7873 C   0  0  0  0  0  0  0  0  0  0  0  0
  -14.3713  -23.9063  -12.4649 C   0  0  0  0  0  0  0  0  0  0  0  0
  -15.5655  -24.4752  -10.4503 C   0  0  0  0  0  0  0  0  0  0  0  0
  -14.9722  -23.3718   -9.8165 C   0  0  0  0  0  0  0  0  0  0  0  0
  -14.0805  -22.5421  -10.4910 C   0  0  0  0  0  0  0  0  0  0  0  0
  -13.7611  -22.8135  -11.8248 C   0  0  0  0  0  0  0  0  0  0  0  0
  -12.9455  -22.0492  -12.4905 C   0  0  0  0  0  0  0  0  0  0  0  0
  -12.1955  -21.3463  -13.1051 C   0  0  0  0  0  0  0  0  0  0  0  0
  -11.3930  -20.5449  -13.7467 C   0  0  0  0  0  0  0  0  0  0  0  0
  -11.6025  -19.1680  -13.7581 C   0  0  0  0  0  0  0  0  0  0  0  0
  -10.6830  -18.3434  -14.4191 C   0  0  0  0  0  0  0  0  0  0  0  0
   -9.5565  -18.8582  -15.0801 C   0  0  0  0  0  0  0  0  0  0  0  0
   -8.6488  -18.0780  -15.7464 F   0  0  0  0  0  0  0  0  0  0  0  0
   -9.3546  -20.2175  -15.0397 C   0  0  0  0  0  0  0  0  0  0  0  0
  -10.2485  -21.0435  -14.3688 C   0  0  0  0  0  0  0  0  0  0  0  0
   -9.9736  -22.3640  -14.3415 F   0  0  0  0  0  0  0  0  0  0  0  0
  -17.9704  -29.4586  -13.1938 C   0  0  0  0  0  0  0  0  0  0  0  0
  -18.6252  -30.2089  -12.0769 C   0  0  0  0  0  0  0  0  0  0  0  0
  -19.1470  -31.3208  -12.3263 O   0  0  0  0  0  0  0  0  0  0  0  0
  -18.5801  -29.6941  -10.9345 O   0  0  0  0  0  0  0  0  0  0  0  0
  -18.1750  -28.8579  -10.8131 H   0  0  0  0  0  0  0  0  0  0  0  0
  -16.9833  -30.4592  -13.7670 C   0  0  0  0  0  0  0  0  0  0  0  0
  -16.7867  -30.1037  -15.4712 S   0  0  0  0  0  0  0  0  0  0  0  0
  -15.1526  -29.5048  -15.3512 C   0  0  0  0  0  0  0  0  0  0  0  0
  -11.2453  -34.2741  -15.3062 Br  0  0  0  0  0  0  0  0  0  0  0  0
  -12.4299  -32.8076  -15.2952 C   0  0  0  0  0  0  0  0  0  0  0  0
  -13.6267  -32.9114  -16.0173 C   0  0  0  0  0  0  0  0  0  0  0  0
  -14.4983  -31.8266  -16.0291 C   0  0  0  0  0  0  0  0  0  0  0  0
  -12.1181  -31.6553  -14.5584 C   0  0  0  0  0  0  0  0  0  0  0  0
  -13.0053  -30.5753  -14.5558 C   0  0  0  0  0  0  0  0  0  0  0  0
  -14.1921  -30.6706  -15.3091 C   0  0  0  0  0  0  0  0  0  0  0  0
  -17.9211  -24.6659  -12.7323 C   0  0  0  0  0  0  0  0  0  0  0  0
  -17.8991  -24.0183  -14.0987 C   0  0  0  0  0  0  0  0  0  0  0  0
  -17.4275  -22.5844  -13.9804 C   0  0  0  0  0  0  0  0  0  0  0  0
 32 33  1  0  0  0
 33 34  1  0  0  0
 33 36  2  0  0  0
 34 35  2  0  0  0
 35 38  1  0  0  0
 36 37  1  0  0  0
 37 38  2  0  0  0
 38 31  1  0  0  0
 31 30  1  0  0  0
 30 29  1  0  0  0
 29 24  1  0  0  0
 24 25  1  0  0  0
 24  1  1  0  0  0
 25 26  2  0  0  0
 25 27  1  0  0  0
  1  2  1  0  0  0
  2  3  2  0  0  0
  2  4  1  0  0  0
  4 39  1  0  0  0
  4  5  1  0  0  0
 39 40  1  0  0  0
 40 41  1  0  0  0
  5  6  2  0  0  0
  5  8  1  0  0  0
  8  9  1  0  0  0
  8 10  2  0  0  0
  9 13  2  0  0  0
 10 11  1  0  0  0
 11 12  2  0  0  0
 12 13  1  0  0  0
 13 14  1  0  0  0
 14 15  3  0  0  0
 15 16  1  0  0  0
 16 17  1  0  0  0
 16 22  2  0  0  0
 17 18  2  0  0  0
 18 19  1  0  0  0
 19 20  1  0  0  0
 19 21  2  0  0  0
 21 22  1  0  0  0
 22 23  1  0  0  0
 27 28  1  0  0  0
  1  7  1  0  0  0
M  END
> <minimizedAffinity>
-9.83893

$$$$
4C5D_X0R_A_2000


 41 43  0  0  0  0  0  0  0  0999 V2000
  -17.8573  -27.6618  -13.0809 N   0  0  0  0  0  0  0  0  0  0  0  0
  -18.1742  -26.4104  -13.4227 C   0  0  0  0  0  0  0  0  0  0  0  0
  -19.1676  -26.2525  -14.1121 O   0  0  0  0  0  0  0  0  0  0  0  0
  -17.4408  -25.3579  -12.9980 N   0  0  0  0  0  0  0  0  0  0  0  0
  -16.1847  -25.5831  -12.6148 C   0  0  0  0  0  0  0  0  0  0  0  0
  -15.6255  -26.6390  -12.8524 O   0  0  0  0  0  0  0  0  0  0  0  0
  -17.0708  -27.8241  -12.5114 H   0  0  0  0  0  0  0  0  0  0  0  0
  -15.4189  -24.5344  -11.8552 C   0  0  0  0  0  0  0  0  0  0  0  0
  -14.5183  -23.6856  -12.5107 C   0  0  0  0  0  0  0  0  0  0  0  0
  -15.5901  -24.4039  -10.4752 C   0  0  0  0  0  0  0  0  0  0  0  0
  -14.8633  -23.4265   -9.7768 C   0  0  0  0  0  0  0  0  0  0  0  0
  -13.9654  -22.5868  -10.4301 C   0  0  0  0  0  0  0  0  0  0  0  0
  -13.7751  -22.7205  -11.8088 C   0  0  0  0  0  0  0  0  0  0  0  0
  -12.9572  -21.9414  -12.4541 C   0  0  0  0  0  0  0  0  0  0  0  0
  -12.2031  -21.2238  -13.0463 C   0  0  0  0  0  0  0  0  0  0  0  0
  -11.3777  -20.4770  -13.7236 C   0  0  0  0  0  0  0  0  0  0  0  0
  -11.5805  -19.1048  -13.8496 C   0  0  0  0  0  0  0  0  0  0  0  0
  -10.6374  -18.3366  -14.5445 C   0  0  0  0  0  0  0  0  0  0  0  0
   -9.4934  -18.9042  -15.1278 C   0  0  0  0  0  0  0  0  0  0  0  0
   -8.5622  -18.1807  -15.8249 F   0  0  0  0  0  0  0  0  0  0  0  0
   -9.2990  -20.2565  -14.9746 C   0  0  0  0  0  0  0  0  0  0  0  0
  -10.2169  -21.0254  -14.2690 C   0  0  0  0  0  0  0  0  0  0  0  0
   -9.9490  -22.3402  -14.1296 F   0  0  0  0  0  0  0  0  0  0  0  0
  -18.6611  -28.7965  -13.5396 C   0  0  0  0  0  0  0  0  0  0  0  0
  -19.1011  -29.7471  -12.4710 C   0  0  0  0  0  0  0  0  0  0  0  0
  -19.8577  -29.3235  -11.5660 O   0  0  0  0  0  0  0  0  0  0  0  0
  -18.7143  -30.9361  -12.5645 O   0  0  0  0  0  0  0  0  0  0  0  0
  -18.1477  -31.1907  -13.2660 H   0  0  0  0  0  0  0  0  0  0  0  0
  -17.8860  -29.6759  -14.5040 C   0  0  0  0  0  0  0  0  0  0  0  0
  -18.2175  -29.1125  -16.1295 S   0  0  0  0  0  0  0  0  0  0  0  0
  -19.9546  -29.0893  -15.9700 C   0  0  0  0  0  0  0  0  0  0  0  0
  -22.3660  -32.7721  -20.2872 Br  0  0  0  0  0  0  0  0  0  0  0  0
  -21.6403  -31.6620  -18.9474 C   0  0  0  0  0  0  0  0  0  0  0  0
  -21.3709  -30.3234  -19.2637 C   0  0  0  0  0  0  0  0  0  0  0  0
  -20.8183  -29.5020  -18.2857 C   0  0  0  0  0  0  0  0  0  0  0  0
  -21.4024  -32.1718  -17.6623 C   0  0  0  0  0  0  0  0  0  0  0  0
  -20.8663  -31.3386  -16.6764 C   0  0  0  0  0  0  0  0  0  0  0  0
  -20.5664  -30.0023  -17.0072 C   0  0  0  0  0  0  0  0  0  0  0  0
  -18.0738  -24.0922  -12.6973 C   0  0  0  0  0  0  0  0  0  0  0  0
  -18.3074  -23.4727  -14.0568 C   0  0  0  0  0  0  0  0  0  0  0  0
  -17.2610  -22.4117  -14.3249 C   0  0  0  0  0  0  0  0  0  0  0  0
 32 33  1  0  0  0
 33 34  1  0  0  0
 33 36  2  0  0  0
 34 35  2  0  0  0
 35 38  1  0  0  0
 36 37  1  0  0  0
 37 38  2  0  0  0
 38 31  1  0  0  0
 31 30  1  0  0  0
 30 29  1  0  0  0
 29 24  1  0  0  0
 24 25  1  0  0  0
 24  1  1  0  0  0
 25 26  2  0  0  0
 25 27  1  0  0  0
  1  2  1  0  0  0
  2  3  2  0  0  0
  2  4  1  0  0  0
  4 39  1  0  0  0
  4  5  1  0  0  0
 39 40  1  0  0  0
 40 41  1  0  0  0
  5  6  2  0  0  0
  5  8  1  0  0  0
  8  9  1  0  0  0
  8 10  2  0  0  0
  9 13  2  0  0  0
 10 11  1  0  0  0
 11 12  2  0  0  0
 12 13  1  0  0  0
 13 14  1  0  0  0
 14 15  3  0  0  0
 15 16  1  0  0  0
 16 17  1  0  0  0
 16 22  2  0  0  0
 17 18  2  0  0  0
 18 19  1  0  0  0
 19 20  1  0  0  0
 19 21  2  0  0  0
 21 22  1  0  0  0
 22 23  1  0  0  0
 27 28  1  0  0  0
  1  7  1  0  0  0
M  END
> <minimizedAffinity>
-9.55479

$$$$
4C5D_X0R_A_2000


 41 43  0  0  0  0  0  0  0  0999 V2000
  -17.1764  -28.3349  -12.2018 N   0  0  0  0  0  0  0  0  0  0  0  0
  -17.5005  -27.2392  -12.8928 C   0  0  0  0  0  0  0  0  0  0  0  0
  -18.3410  -27.3573  -13.7684 O   0  0  0  0  0  0  0  0  0  0  0  0
  -16.9417  -26.0407  -12.6143 N   0  0  0  0  0  0  0  0  0  0  0  0
  -15.7777  -26.0275  -11.9658 C   0  0  0  0  0  0  0  0  0  0  0  0
  -15.1120  -27.0388  -11.8307 O   0  0  0  0  0  0  0  0  0  0  0  0
  -16.5133  -28.2720  -11.4768 H   0  0  0  0  0  0  0  0  0  0  0  0
  -15.2552  -24.7527  -11.3617 C   0  0  0  0  0  0  0  0  0  0  0  0
  -14.3503  -23.9438  -12.0604 C   0  0  0  0  0  0  0  0  0  0  0  0
  -15.6605  -24.3661  -10.0823 C   0  0  0  0  0  0  0  0  0  0  0  0
  -15.1592  -23.1782   -9.5266 C   0  0  0  0  0  0  0  0  0  0  0  0
  -14.2564  -22.3780  -10.2216 C   0  0  0  0  0  0  0  0  0  0  0  0
  -13.8322  -22.7649  -11.4964 C   0  0  0  0  0  0  0  0  0  0  0  0
  -13.0031  -22.0325  -12.1809 C   0  0  0  0  0  0  0  0  0  0  0  0
  -12.2400  -21.3567  -12.8097 C   0  0  0  0  0  0  0  0  0  0  0  0
  -11.3797  -20.6583  -13.4952 C   0  0  0  0  0  0  0  0  0  0  0  0
  -10.3804  -21.2748  -14.2443 C   0  0  0  0  0  0  0  0  0  0  0  0
   -9.5114  -20.4826  -15.0056 C   0  0  0  0  0  0  0  0  0  0  0  0
   -9.6071  -19.0822  -15.0346 C   0  0  0  0  0  0  0  0  0  0  0  0
   -8.7630  -18.2816  -15.7577 F   0  0  0  0  0  0  0  0  0  0  0  0
  -10.6131  -18.4929  -14.3060 C   0  0  0  0  0  0  0  0  0  0  0  0
  -11.4946  -19.2699  -13.5640 C   0  0  0  0  0  0  0  0  0  0  0  0
  -12.4776  -18.6296  -12.8978 F   0  0  0  0  0  0  0  0  0  0  0  0
  -17.7915  -29.6286  -12.5053 C   0  0  0  0  0  0  0  0  0  0  0  0
  -18.8299  -30.0913  -11.5322 C   0  0  0  0  0  0  0  0  0  0  0  0
  -18.6677  -29.8367  -10.3158 O   0  0  0  0  0  0  0  0  0  0  0  0
  -19.8335  -30.6803  -11.9993 O   0  0  0  0  0  0  0  0  0  0  0  0
  -19.8956  -30.8414  -12.9203 H   0  0  0  0  0  0  0  0  0  0  0  0
  -16.7677  -30.7493  -12.4962 C   0  0  0  0  0  0  0  0  0  0  0  0
  -15.6585  -30.4742  -13.8241 S   0  0  0  0  0  0  0  0  0  0  0  0
  -16.3575  -31.6556  -14.9008 C   0  0  0  0  0  0  0  0  0  0  0  0
  -21.4757  -29.3514  -17.4523 Br  0  0  0  0  0  0  0  0  0  0  0  0
  -19.9265  -30.0712  -16.6549 C   0  0  0  0  0  0  0  0  0  0  0  0
  -18.7457  -29.3171  -16.6912 C   0  0  0  0  0  0  0  0  0  0  0  0
  -17.5932  -29.8491  -16.1207 C   0  0  0  0  0  0  0  0  0  0  0  0
  -19.9755  -31.3230  -16.0236 C   0  0  0  0  0  0  0  0  0  0  0  0
  -18.8211  -31.8455  -15.4337 C   0  0  0  0  0  0  0  0  0  0  0  0
  -17.6280  -31.0991  -15.5006 C   0  0  0  0  0  0  0  0  0  0  0  0
  -17.7064  -24.8207  -12.7544 C   0  0  0  0  0  0  0  0  0  0  0  0
  -18.8194  -24.9732  -11.7421 C   0  0  0  0  0  0  0  0  0  0  0  0
  -19.1312  -23.6309  -11.1148 C   0  0  0  0  0  0  0  0  0  0  0  0
 32 33  1  0  0  0
 33 34  1  0  0  0
 33 36  2  0  0  0
 34 35  2  0  0  0
 35 38  1  0  0  0
 36 37  1  0  0  0
 37 38  2  0  0  0
 38 31  1  0  0  0
 31 30  1  0  0  0
 30 29  1  0  0  0
 29 24  1  0  0  0
 24 25  1  0  0  0
 24  1  1  0  0  0
 25 26  2  0  0  0
 25 27  1  0  0  0
  1  2  1  0  0  0
  2  3  2  0  0  0
  2  4  1  0  0  0
  4 39  1  0  0  0
  4  5  1  0  0  0
 39 40  1  0  0  0
 40 41  1  0  0  0
  5  6  2  0  0  0
  5  8  1  0  0  0
  8  9  1  0  0  0
  8 10  2  0  0  0
  9 13  2  0  0  0
 10 11  1  0  0  0
 11 12  2  0  0  0
 12 13  1  0  0  0
 13 14  1  0  0  0
 14 15  3  0  0  0
 15 16  1  0  0  0
 16 17  1  0  0  0
 16 22  2  0  0  0
 17 18  2  0  0  0
 18 19  1  0  0  0
 19 20  1  0  0  0
 19 21  2  0  0  0
 21 22  1  0  0  0
 22 23  1  0  0  0
 27 28  1  0  0  0
  1  7  1  0  0  0
M  END
> <minimizedAffinity>
-8.79286

$$$$
4C5D_X0R_A_2000


 41 43  0  0  0  0  0  0  0  0999 V2000
  -15.9065  -28.1961  -13.3071 N   0  0  0  0  0  0  0  0  0  0  0  0
  -16.0454  -28.1134  -11.9815 C   0  0  0  0  0  0  0  0  0  0  0  0
  -16.3588  -29.1307  -11.3866 O   0  0  0  0  0  0  0  0  0  0  0  0
  -15.8193  -26.9563  -11.3212 N   0  0  0  0  0  0  0  0  0  0  0  0
  -15.8850  -25.8180  -12.0108 C   0  0  0  0  0  0  0  0  0  0  0  0
  -16.3595  -25.7787  -13.1322 O   0  0  0  0  0  0  0  0  0  0  0  0
  -15.6384  -27.3976  -13.8169 H   0  0  0  0  0  0  0  0  0  0  0  0
  -15.3543  -24.5385  -11.4239 C   0  0  0  0  0  0  0  0  0  0  0  0
  -14.4058  -23.7710  -12.1115 C   0  0  0  0  0  0  0  0  0  0  0  0
  -15.7958  -24.1061  -10.1714 C   0  0  0  0  0  0  0  0  0  0  0  0
  -15.2865  -22.9144   -9.6313 C   0  0  0  0  0  0  0  0  0  0  0  0
  -14.3405  -22.1554  -10.3149 C   0  0  0  0  0  0  0  0  0  0  0  0
  -13.8802  -22.5885  -11.5621 C   0  0  0  0  0  0  0  0  0  0  0  0
  -13.0099  -21.8953  -12.2361 C   0  0  0  0  0  0  0  0  0  0  0  0
  -12.2087  -21.2555  -12.8553 C   0  0  0  0  0  0  0  0  0  0  0  0
  -11.3080  -20.5970  -13.5282 C   0  0  0  0  0  0  0  0  0  0  0  0
  -10.2950  -21.2574  -14.2192 C   0  0  0  0  0  0  0  0  0  0  0  0
   -9.3806  -20.5077  -14.9703 C   0  0  0  0  0  0  0  0  0  0  0  0
   -9.4443  -19.1073  -15.0457 C   0  0  0  0  0  0  0  0  0  0  0  0
   -8.5560  -18.3475  -15.7600 F   0  0  0  0  0  0  0  0  0  0  0  0
  -10.4638  -18.4745  -14.3746 C   0  0  0  0  0  0  0  0  0  0  0  0
  -11.3896  -19.2094  -13.6437 C   0  0  0  0  0  0  0  0  0  0  0  0
  -12.3827  -18.5282  -13.0355 F   0  0  0  0  0  0  0  0  0  0  0  0
  -16.1467  -29.4554  -14.0145 C   0  0  0  0  0  0  0  0  0  0  0  0
  -14.9198  -30.2154  -14.4098 C   0  0  0  0  0  0  0  0  0  0  0  0
  -15.0486  -31.2206  -15.1471 O   0  0  0  0  0  0  0  0  0  0  0  0
  -13.8167  -29.7755  -14.0075 O   0  0  0  0  0  0  0  0  0  0  0  0
  -13.7870  -29.0180  -13.4569 H   0  0  0  0  0  0  0  0  0  0  0  0
  -16.8664  -29.2274  -15.3314 C   0  0  0  0  0  0  0  0  0  0  0  0
  -18.4672  -29.9265  -15.1967 S   0  0  0  0  0  0  0  0  0  0  0  0
  -19.1222  -29.1740  -16.6278 C   0  0  0  0  0  0  0  0  0  0  0  0
  -23.4837  -32.8557  -18.9597 Br  0  0  0  0  0  0  0  0  0  0  0  0
  -22.1467  -31.7185  -18.2720 C   0  0  0  0  0  0  0  0  0  0  0  0
  -21.4285  -32.1391  -17.1442 C   0  0  0  0  0  0  0  0  0  0  0  0
  -20.4522  -31.2976  -16.6195 C   0  0  0  0  0  0  0  0  0  0  0  0
  -21.8725  -30.4937  -18.8985 C   0  0  0  0  0  0  0  0  0  0  0  0
  -20.8771  -29.6599  -18.3809 C   0  0  0  0  0  0  0  0  0  0  0  0
  -20.1797  -30.0713  -17.2280 C   0  0  0  0  0  0  0  0  0  0  0  0
  -15.2479  -26.9658   -9.9922 C   0  0  0  0  0  0  0  0  0  0  0  0
  -16.4363  -27.2098   -9.0893 C   0  0  0  0  0  0  0  0  0  0  0  0
  -16.0788  -26.8542   -7.6617 C   0  0  0  0  0  0  0  0  0  0  0  0
 32 33  1  0  0  0
 33 34  1  0  0  0
 33 36  2  0  0  0
 34 35  2  0  0  0
 35 38  1  0  0  0
 36 37  1  0  0  0
 37 38  2  0  0  0
 38 31  1  0  0  0
 31 30  1  0  0  0
 30 29  1  0  0  0
 29 24  1  0  0  0
 24 25  1  0  0  0
 24  1  1  0  0  0
 25 26  2  0  0  0
 25 27  1  0  0  0
  1  2  1  0  0  0
  2  3  2  0  0  0
  2  4  1  0  0  0
  4 39  1  0  0  0
  4  5  1  0  0  0
 39 40  1  0  0  0
 40 41  1  0  0  0
  5  6  2  0  0  0
  5  8  1  0  0  0
  8  9  1  0  0  0
  8 10  2  0  0  0
  9 13  2  0  0  0
 10 11  1  0  0  0
 11 12  2  0  0  0
 12 13  1  0  0  0
 13 14  1  0  0  0
 14 15  3  0  0  0
 15 16  1  0  0  0
 16 17  1  0  0  0
 16 22  2  0  0  0
 17 18  2  0  0  0
 18 19  1  0  0  0
 19 20  1  0  0  0
 19 21  2  0  0  0
 21 22  1  0  0  0
 22 23  1  0  0  0
 27 28  1  0  0  0
  1  7  1  0  0  0
M  END
> <minimizedAffinity>
-8.64526

$$$$
4C5D_X0R_A_2000


 41 43  0  0  0  0  0  0  0  0999 V2000
  -15.4610  -27.4728   -8.2125 N   0  0  0  0  0  0  0  0  0  0  0  0
  -15.8802  -26.2391   -7.9199 C   0  0  0  0  0  0  0  0  0  0  0  0
  -16.0192  -25.9595   -6.7411 O   0  0  0  0  0  0  0  0  0  0  0  0
  -16.1132  -25.3268   -8.8892 N   0  0  0  0  0  0  0  0  0  0  0  0
  -16.3448  -25.7698  -10.1244 C   0  0  0  0  0  0  0  0  0  0  0  0
  -16.5771  -26.9449  -10.3468 O   0  0  0  0  0  0  0  0  0  0  0  0
  -15.3225  -27.7269   -9.1535 H   0  0  0  0  0  0  0  0  0  0  0  0
  -16.3093  -24.8239  -11.2936 C   0  0  0  0  0  0  0  0  0  0  0  0
  -15.1322  -24.1458  -11.6345 C   0  0  0  0  0  0  0  0  0  0  0  0
  -17.4623  -24.6005  -12.0493 C   0  0  0  0  0  0  0  0  0  0  0  0
  -17.4179  -23.7090  -13.1330 C   0  0  0  0  0  0  0  0  0  0  0  0
  -16.2476  -23.0329  -13.4673 C   0  0  0  0  0  0  0  0  0  0  0  0
  -15.0924  -23.2375  -12.7067 C   0  0  0  0  0  0  0  0  0  0  0  0
  -13.9773  -22.6357  -13.0013 C   0  0  0  0  0  0  0  0  0  0  0  0
  -12.9507  -22.0827  -13.2744 C   0  0  0  0  0  0  0  0  0  0  0  0
  -11.8539  -21.4396  -13.5596 C   0  0  0  0  0  0  0  0  0  0  0  0
  -10.7755  -22.0810  -14.1642 C   0  0  0  0  0  0  0  0  0  0  0  0
   -9.6377  -21.3351  -14.4979 C   0  0  0  0  0  0  0  0  0  0  0  0
   -9.5419  -19.9591  -14.2365 C   0  0  0  0  0  0  0  0  0  0  0  0
   -8.4371  -19.2075  -14.5384 F   0  0  0  0  0  0  0  0  0  0  0  0
  -10.6244  -19.3390  -13.6590 C   0  0  0  0  0  0  0  0  0  0  0  0
  -11.7670  -20.0644  -13.3431 C   0  0  0  0  0  0  0  0  0  0  0  0
  -12.8040  -19.3879  -12.8075 F   0  0  0  0  0  0  0  0  0  0  0  0
  -15.2043  -28.4535   -7.1560 C   0  0  0  0  0  0  0  0  0  0  0  0
  -13.9442  -29.2465   -7.3067 C   0  0  0  0  0  0  0  0  0  0  0  0
  -14.0039  -30.3668   -7.8652 O   0  0  0  0  0  0  0  0  0  0  0  0
  -12.8823  -28.7219   -6.8953 O   0  0  0  0  0  0  0  0  0  0  0  0
  -12.9040  -27.8798   -6.4850 H   0  0  0  0  0  0  0  0  0  0  0  0
  -16.2899  -29.5131   -7.1021 C   0  0  0  0  0  0  0  0  0  0  0  0
  -17.4737  -29.0092   -5.9130 S   0  0  0  0  0  0  0  0  0  0  0  0
  -18.8792  -29.3837   -6.8762 C   0  0  0  0  0  0  0  0  0  0  0  0
  -20.5367  -24.2908   -9.9308 Br  0  0  0  0  0  0  0  0  0  0  0  0
  -20.0430  -25.8635   -9.0160 C   0  0  0  0  0  0  0  0  0  0  0  0
  -19.8060  -25.7865   -7.6368 C   0  0  0  0  0  0  0  0  0  0  0  0
  -19.4236  -26.9392   -6.9573 C   0  0  0  0  0  0  0  0  0  0  0  0
  -19.9418  -27.0792   -9.7085 C   0  0  0  0  0  0  0  0  0  0  0  0
  -19.5773  -28.2393   -9.0192 C   0  0  0  0  0  0  0  0  0  0  0  0
  -19.3082  -28.1517   -7.6391 C   0  0  0  0  0  0  0  0  0  0  0  0
  -15.8393  -23.9245   -8.6624 C   0  0  0  0  0  0  0  0  0  0  0  0
  -17.2018  -23.3302   -8.3845 C   0  0  0  0  0  0  0  0  0  0  0  0
  -17.3648  -22.0361   -9.1535 C   0  0  0  0  0  0  0  0  0  0  0  0
 32 33  1  0  0  0
 33 34  1  0  0  0
 33 36  2  0  0  0
 34 35  2  0  0  0
 35 38  1  0  0  0
 36 37  1  0  0  0
 37 38  2  0  0  0
 38 31  1  0  0  0
 31 30  1  0  0  0
 30 29  1  0  0  0
 29 24  1  0  0  0
 24 25  1  0  0  0
 24  1  1  0  0  0
 25 26  2  0  0  0
 25 27  1  0  0  0
  1  2  1  0  0  0
  2  3  2  0  0  0
  2  4  1  0  0  0
  4 39  1  0  0  0
  4  5  1  0  0  0
 39 40  1  0  0  0
 40 41  1  0  0  0
  5  6  2  0  0  0
  5  8  1  0  0  0
  8  9  1  0  0  0
  8 10  2  0  0  0
  9 13  2  0  0  0
 10 11  1  0  0  0
 11 12  2  0  0  0
 12 13  1  0  0  0
 13 14  1  0  0  0
 14 15  3  0  0  0
 15 16  1  0  0  0
 16 17  1  0  0  0
 16 22  2  0  0  0
 17 18  2  0  0  0
 18 19  1  0  0  0
 19 20  1  0  0  0
 19 21  2  0  0  0
 21 22  1  0  0  0
 22 23  1  0  0  0
 27 28  1  0  0  0
  1  7  1  0  0  0
M  END
> <minimizedAffinity>
-8.46593

$$$$
4C5D_X0R_A_2000


 41 43  0  0  0  0  0  0  0  0999 V2000
  -16.9045  -28.2496  -12.0284 N   0  0  0  0  0  0  0  0  0  0  0  0
  -16.4654  -28.1910  -10.7686 C   0  0  0  0  0  0  0  0  0  0  0  0
  -16.3621  -29.2438  -10.1619 O   0  0  0  0  0  0  0  0  0  0  0  0
  -16.1210  -27.0158  -10.1975 N   0  0  0  0  0  0  0  0  0  0  0  0
  -16.6187  -25.8955  -10.7197 C   0  0  0  0  0  0  0  0  0  0  0  0
  -17.5323  -25.9189  -11.5252 O   0  0  0  0  0  0  0  0  0  0  0  0
  -16.9843  -27.4202  -12.5527 H   0  0  0  0  0  0  0  0  0  0  0  0
  -16.0490  -24.5566  -10.3375 C   0  0  0  0  0  0  0  0  0  0  0  0
  -15.0403  -23.9591  -11.1036 C   0  0  0  0  0  0  0  0  0  0  0  0
  -16.5150  -23.8964   -9.1984 C   0  0  0  0  0  0  0  0  0  0  0  0
  -15.9692  -22.6511   -8.8481 C   0  0  0  0  0  0  0  0  0  0  0  0
  -14.9635  -22.0611   -9.6089 C   0  0  0  0  0  0  0  0  0  0  0  0
  -14.4791  -22.7219  -10.7419 C   0  0  0  0  0  0  0  0  0  0  0  0
  -13.5524  -22.1919  -11.4854 C   0  0  0  0  0  0  0  0  0  0  0  0
  -12.6978  -21.7051  -12.1688 C   0  0  0  0  0  0  0  0  0  0  0  0
  -11.7924  -21.1890  -12.9508 C   0  0  0  0  0  0  0  0  0  0  0  0
  -10.8802  -21.9926  -13.6305 C   0  0  0  0  0  0  0  0  0  0  0  0
   -9.9590  -21.3944  -14.4998 C   0  0  0  0  0  0  0  0  0  0  0  0
   -9.9169  -20.0063  -14.7057 C   0  0  0  0  0  0  0  0  0  0  0  0
   -9.0185  -19.3924  -15.5379 F   0  0  0  0  0  0  0  0  0  0  0  0
  -10.8389  -19.2313  -14.0429 C   0  0  0  0  0  0  0  0  0  0  0  0
  -11.7717  -19.8157  -13.1944 C   0  0  0  0  0  0  0  0  0  0  0  0
  -12.6675  -19.0006  -12.6003 F   0  0  0  0  0  0  0  0  0  0  0  0
  -17.2692  -29.5279  -12.6423 C   0  0  0  0  0  0  0  0  0  0  0  0
  -16.1735  -30.2167  -13.3934 C   0  0  0  0  0  0  0  0  0  0  0  0
  -15.6285  -31.2188  -12.8742 O   0  0  0  0  0  0  0  0  0  0  0  0
  -15.8863  -29.7700  -14.5293 O   0  0  0  0  0  0  0  0  0  0  0  0
  -16.3309  -29.0154  -14.8621 H   0  0  0  0  0  0  0  0  0  0  0  0
  -18.3625  -29.3563  -13.6813 C   0  0  0  0  0  0  0  0  0  0  0  0
  -19.6983  -28.5152  -12.9213 S   0  0  0  0  0  0  0  0  0  0  0  0
  -20.2276  -27.6704  -14.3530 C   0  0  0  0  0  0  0  0  0  0  0  0
  -18.9005  -21.6670  -13.8906 Br  0  0  0  0  0  0  0  0  0  0  0  0
  -19.3263  -23.4995  -14.0126 C   0  0  0  0  0  0  0  0  0  0  0  0
  -18.3274  -24.3901  -14.4291 C   0  0  0  0  0  0  0  0  0  0  0  0
  -18.6386  -25.7420  -14.5392 C   0  0  0  0  0  0  0  0  0  0  0  0
  -20.6099  -23.9491  -13.6693 C   0  0  0  0  0  0  0  0  0  0  0  0
  -20.9132  -25.3105  -13.7614 C   0  0  0  0  0  0  0  0  0  0  0  0
  -19.9163  -26.1984  -14.2116 C   0  0  0  0  0  0  0  0  0  0  0  0
  -15.0346  -26.9501   -9.2443 C   0  0  0  0  0  0  0  0  0  0  0  0
  -15.5835  -27.6503   -8.0215 C   0  0  0  0  0  0  0  0  0  0  0  0
  -16.2658  -26.6460   -7.1169 C   0  0  0  0  0  0  0  0  0  0  0  0
 32 33  1  0  0  0
 33 34  1  0  0  0
 33 36  2  0  0  0
 34 35  2  0  0  0
 35 38  1  0  0  0
 36 37  1  0  0  0
 37 38  2  0  0  0
 38 31  1  0  0  0
 31 30  1  0  0  0
 30 29  1  0  0  0
 29 24  1  0  0  0
 24 25  1  0  0  0
 24  1  1  0  0  0
 25 26  2  0  0  0
 25 27  1  0  0  0
  1  2  1  0  0  0
  2  3  2  0  0  0
  2  4  1  0  0  0
  4 39  1  0  0  0
  4  5  1  0  0  0
 39 40  1  0  0  0
 40 41  1  0  0  0
  5  6  2  0  0  0
  5  8  1  0  0  0
  8  9  1  0  0  0
  8 10  2  0  0  0
  9 13  2  0  0  0
 10 11  1  0  0  0
 11 12  2  0  0  0
 12 13  1  0  0  0
 13 14  1  0  0  0
 14 15  3  0  0  0
 15 16  1  0  0  0
 16 17  1  0  0  0
 16 22  2  0  0  0
 17 18  2  0  0  0
 18 19  1  0  0  0
 19 20  1  0  0  0
 19 21  2  0  0  0
 21 22  1  0  0  0
 22 23  1  0  0  0
 27 28  1  0  0  0
  1  7  1  0  0  0
M  END
> <minimizedAffinity>
-8.29958

$$$$
4C5D_X0R_A_2000


 41 43  0  0  0  0  0  0  0  0999 V2000
  -16.1219  -24.2682  -10.6914 N   0  0  0  0  0  0  0  0  0  0  0  0
  -16.4748  -25.5135  -10.3632 C   0  0  0  0  0  0  0  0  0  0  0  0
  -16.7593  -25.7260   -9.1966 O   0  0  0  0  0  0  0  0  0  0  0  0
  -16.5429  -26.4933  -11.2913 N   0  0  0  0  0  0  0  0  0  0  0  0
  -15.8547  -26.3352  -12.4213 C   0  0  0  0  0  0  0  0  0  0  0  0
  -15.0074  -25.4673  -12.5352 O   0  0  0  0  0  0  0  0  0  0  0  0
  -15.9017  -24.0579  -11.6277 H   0  0  0  0  0  0  0  0  0  0  0  0
  -16.1192  -27.2231  -13.6065 C   0  0  0  0  0  0  0  0  0  0  0  0
  -15.2892  -28.3160  -13.8858 C   0  0  0  0  0  0  0  0  0  0  0  0
  -17.1964  -26.9569  -14.4548 C   0  0  0  0  0  0  0  0  0  0  0  0
  -17.4275  -27.7885  -15.5621 C   0  0  0  0  0  0  0  0  0  0  0  0
  -16.5984  -28.8719  -15.8400 C   0  0  0  0  0  0  0  0  0  0  0  0
  -15.5080  -29.1368  -15.0059 C   0  0  0  0  0  0  0  0  0  0  0  0
  -14.7231  -30.1507  -15.2259 C   0  0  0  0  0  0  0  0  0  0  0  0
  -14.0013  -31.0851  -15.4267 C   0  0  0  0  0  0  0  0  0  0  0  0
  -13.2312  -32.1025  -15.6903 C   0  0  0  0  0  0  0  0  0  0  0  0
  -13.4607  -32.9161  -16.7972 C   0  0  0  0  0  0  0  0  0  0  0  0
  -12.5745  -33.9668  -17.0673 C   0  0  0  0  0  0  0  0  0  0  0  0
  -11.4621  -34.2352  -16.2540 C   0  0  0  0  0  0  0  0  0  0  0  0
  -10.5873  -35.2637  -16.4851 F   0  0  0  0  0  0  0  0  0  0  0  0
  -11.2394  -33.4084  -15.1784 C   0  0  0  0  0  0  0  0  0  0  0  0
  -12.0997  -32.3497  -14.9129 C   0  0  0  0  0  0  0  0  0  0  0  0
  -11.8051  -31.5588  -13.8604 F   0  0  0  0  0  0  0  0  0  0  0  0
  -16.0572  -23.2104   -9.6810 C   0  0  0  0  0  0  0  0  0  0  0  0
  -17.1276  -22.1687   -9.7707 C   0  0  0  0  0  0  0  0  0  0  0  0
  -18.0718  -22.3467  -10.5754 O   0  0  0  0  0  0  0  0  0  0  0  0
  -17.0380  -21.1844   -8.9991 O   0  0  0  0  0  0  0  0  0  0  0  0
  -16.3056  -21.1086   -8.4196 H   0  0  0  0  0  0  0  0  0  0  0  0
  -14.7707  -22.4121   -9.7902 C   0  0  0  0  0  0  0  0  0  0  0  0
  -14.3021  -22.3769  -11.4780 S   0  0  0  0  0  0  0  0  0  0  0  0
  -12.5812  -22.3367  -11.1948 C   0  0  0  0  0  0  0  0  0  0  0  0
   -9.8607  -18.7397  -15.3991 Br  0  0  0  0  0  0  0  0  0  0  0  0
  -10.6875  -19.8618  -14.1297 C   0  0  0  0  0  0  0  0  0  0  0  0
  -11.6612  -19.3103  -13.2857 C   0  0  0  0  0  0  0  0  0  0  0  0
  -12.2633  -20.1276  -12.3338 C   0  0  0  0  0  0  0  0  0  0  0  0
  -10.3427  -21.2197  -14.0588 C   0  0  0  0  0  0  0  0  0  0  0  0
  -10.9642  -22.0425  -13.1152 C   0  0  0  0  0  0  0  0  0  0  0  0
  -11.9189  -21.4775  -12.2467 C   0  0  0  0  0  0  0  0  0  0  0  0
  -17.5429  -27.5341  -11.1921 C   0  0  0  0  0  0  0  0  0  0  0  0
  -16.8179  -28.6676  -10.5018 C   0  0  0  0  0  0  0  0  0  0  0  0
  -17.1026  -29.9712  -11.2174 C   0  0  0  0  0  0  0  0  0  0  0  0
 32 33  1  0  0  0
 33 34  1  0  0  0
 33 36  2  0  0  0
 34 35  2  0  0  0
 35 38  1  0  0  0
 36 37  1  0  0  0
 37 38  2  0  0  0
 38 31  1  0  0  0
 31 30  1  0  0  0
 30 29  1  0  0  0
 29 24  1  0  0  0
 24 25  1  0  0  0
 24  1  1  0  0  0
 25 26  2  0  0  0
 25 27  1  0  0  0
  1  2  1  0  0  0
  2  3  2  0  0  0
  2  4  1  0  0  0
  4 39  1  0  0  0
  4  5  1  0  0  0
 39 40  1  0  0  0
 40 41  1  0  0  0
  5  6  2  0  0  0
  5  8  1  0  0  0
  8  9  1  0  0  0
  8 10  2  0  0  0
  9 13  2  0  0  0
 10 11  1  0  0  0
 11 12  2  0  0  0
 12 13  1  0  0  0
 13 14  1  0  0  0
 14 15  3  0  0  0
 15 16  1  0  0  0
 16 17  1  0  0  0
 16 22  2  0  0  0
 17 18  2  0  0  0
 18 19  1  0  0  0
 19 20  1  0  0  0
 19 21  2  0  0  0
 21 22  1  0  0  0
 22 23  1  0  0  0
 27 28  1  0  0  0
  1  7  1  0  0  0
M  END
> <minimizedAffinity>
-8.09165

$$$$
4C5D_X0R_A_2000


 41 43  0  0  0  0  0  0  0  0999 V2000
  -20.4074  -24.9621  -14.2137 N   0  0  0  0  0  0  0  0  0  0  0  0
  -20.3648  -24.0054  -13.2829 C   0  0  0  0  0  0  0  0  0  0  0  0
  -21.4159  -23.4601  -12.9917 O   0  0  0  0  0  0  0  0  0  0  0  0
  -19.2087  -23.6743  -12.6666 N   0  0  0  0  0  0  0  0  0  0  0  0
  -18.0638  -23.9802  -13.2758 C   0  0  0  0  0  0  0  0  0  0  0  0
  -18.0360  -24.3271  -14.4433 O   0  0  0  0  0  0  0  0  0  0  0  0
  -19.5798  -25.4344  -14.4611 H   0  0  0  0  0  0  0  0  0  0  0  0
  -16.7609  -23.9208  -12.5261 C   0  0  0  0  0  0  0  0  0  0  0  0
  -15.6777  -23.1857  -13.0237 C   0  0  0  0  0  0  0  0  0  0  0  0
  -16.6128  -24.6143  -11.3228 C   0  0  0  0  0  0  0  0  0  0  0  0
  -15.3890  -24.5572  -10.6371 C   0  0  0  0  0  0  0  0  0  0  0  0
  -14.3123  -23.8292  -11.1360 C   0  0  0  0  0  0  0  0  0  0  0  0
  -14.4456  -23.1449  -12.3479 C   0  0  0  0  0  0  0  0  0  0  0  0
  -13.4659  -22.4408  -12.8346 C   0  0  0  0  0  0  0  0  0  0  0  0
  -12.5649  -21.7926  -13.2846 C   0  0  0  0  0  0  0  0  0  0  0  0
  -11.5912  -21.0558  -13.7393 C   0  0  0  0  0  0  0  0  0  0  0  0
  -10.5429  -21.6117  -14.4685 C   0  0  0  0  0  0  0  0  0  0  0  0
   -9.5463  -20.7707  -14.9801 C   0  0  0  0  0  0  0  0  0  0  0  0
   -9.5621  -19.3817  -14.7766 C   0  0  0  0  0  0  0  0  0  0  0  0
   -8.5944  -18.5369  -15.2522 F   0  0  0  0  0  0  0  0  0  0  0  0
  -10.6160  -18.8485  -14.0730 C   0  0  0  0  0  0  0  0  0  0  0  0
  -11.6219  -19.6705  -13.5789 C   0  0  0  0  0  0  0  0  0  0  0  0
  -12.6426  -19.0786  -12.9249 F   0  0  0  0  0  0  0  0  0  0  0  0
  -21.6654  -25.3197  -14.8720 C   0  0  0  0  0  0  0  0  0  0  0  0
  -22.6040  -24.1826  -15.1271 C   0  0  0  0  0  0  0  0  0  0  0  0
  -22.3420  -23.3861  -16.0586 O   0  0  0  0  0  0  0  0  0  0  0  0
  -23.6309  -24.1130  -14.4108 O   0  0  0  0  0  0  0  0  0  0  0  0
  -23.7696  -24.7402  -13.7287 H   0  0  0  0  0  0  0  0  0  0  0  0
  -22.4851  -26.2778  -14.0267 C   0  0  0  0  0  0  0  0  0  0  0  0
  -22.5047  -27.8295  -14.8399 S   0  0  0  0  0  0  0  0  0  0  0  0
  -21.7037  -28.7176  -13.5698 C   0  0  0  0  0  0  0  0  0  0  0  0
  -15.6629  -27.4833  -13.5368 Br  0  0  0  0  0  0  0  0  0  0  0  0
  -17.5109  -27.8542  -13.5740 C   0  0  0  0  0  0  0  0  0  0  0  0
  -18.2410  -27.7267  -12.3844 C   0  0  0  0  0  0  0  0  0  0  0  0
  -19.6021  -28.0161  -12.3995 C   0  0  0  0  0  0  0  0  0  0  0  0
  -18.1311  -28.2255  -14.7763 C   0  0  0  0  0  0  0  0  0  0  0  0
  -19.5023  -28.4956  -14.7922 C   0  0  0  0  0  0  0  0  0  0  0  0
  -20.2268  -28.3981  -13.5878 C   0  0  0  0  0  0  0  0  0  0  0  0
  -19.2041  -23.2674  -11.2783 C   0  0  0  0  0  0  0  0  0  0  0  0
  -19.1815  -21.7568  -11.3443 C   0  0  0  0  0  0  0  0  0  0  0  0
  -20.2668  -21.1872  -10.4553 C   0  0  0  0  0  0  0  0  0  0  0  0
 32 33  1  0  0  0
 33 34  1  0  0  0
 33 36  2  0  0  0
 34 35  2  0  0  0
 35 38  1  0  0  0
 36 37  1  0  0  0
 37 38  2  0  0  0
 38 31  1  0  0  0
 31 30  1  0  0  0
 30 29  1  0  0  0
 29 24  1  0  0  0
 24 25  1  0  0  0
 24  1  1  0  0  0
 25 26  2  0  0  0
 25 27  1  0  0  0
  1  2  1  0  0  0
  2  3  2  0  0  0
  2  4  1  0  0  0
  4 39  1  0  0  0
  4  5  1  0  0  0
 39 40  1  0  0  0
 40 41  1  0  0  0
  5  6  2  0  0  0
  5  8  1  0  0  0
  8  9  1  0  0  0
  8 10  2  0  0  0
  9 13  2  0  0  0
 10 11  1  0  0  0
 11 12  2  0  0  0
 12 13  1  0  0  0
 13 14  1  0  0  0
 14 15  3  0  0  0
 15 16  1  0  0  0
 16 17  1  0  0  0
 16 22  2  0  0  0
 17 18  2  0  0  0
 18 19  1  0  0  0
 19 20  1  0  0  0
 19 21  2  0  0  0
 21 22  1  0  0  0
 22 23  1  0  0  0
 27 28  1  0  0  0
  1  7  1  0  0  0
M  END
> <minimizedAffinity>
-8.01954

$$$$
4C5D_X0R_A_2000


 41 43  0  0  0  0  0  0  0  0999 V2000
  -15.8809  -27.1786   -8.2688 N   0  0  0  0  0  0  0  0  0  0  0  0
  -16.9529  -26.3859   -8.3437 C   0  0  0  0  0  0  0  0  0  0  0  0
  -17.7421  -26.4216   -7.4147 O   0  0  0  0  0  0  0  0  0  0  0  0
  -17.1419  -25.5553   -9.3928 N   0  0  0  0  0  0  0  0  0  0  0  0
  -16.5106  -25.8322  -10.5331 C   0  0  0  0  0  0  0  0  0  0  0  0
  -15.9719  -26.9091  -10.7180 O   0  0  0  0  0  0  0  0  0  0  0  0
  -15.2151  -27.1628   -8.9939 H   0  0  0  0  0  0  0  0  0  0  0  0
  -16.4304  -24.8055  -11.6297 C   0  0  0  0  0  0  0  0  0  0  0  0
  -15.2316  -24.1335  -11.8994 C   0  0  0  0  0  0  0  0  0  0  0  0
  -17.5629  -24.5001  -12.3878 C   0  0  0  0  0  0  0  0  0  0  0  0
  -17.4767  -23.5340  -13.4029 C   0  0  0  0  0  0  0  0  0  0  0  0
  -16.2849  -22.8643  -13.6662 C   0  0  0  0  0  0  0  0  0  0  0  0
  -15.1499  -23.1514  -12.9019 C   0  0  0  0  0  0  0  0  0  0  0  0
  -14.0156  -22.5573  -13.1321 C   0  0  0  0  0  0  0  0  0  0  0  0
  -12.9705  -22.0122  -13.3445 C   0  0  0  0  0  0  0  0  0  0  0  0
  -11.8565  -21.3876  -13.6028 C   0  0  0  0  0  0  0  0  0  0  0  0
  -10.7737  -22.0477  -14.1785 C   0  0  0  0  0  0  0  0  0  0  0  0
   -9.6158  -21.3211  -14.4845 C   0  0  0  0  0  0  0  0  0  0  0  0
   -9.5043  -19.9462  -14.2232 C   0  0  0  0  0  0  0  0  0  0  0  0
   -8.3802  -19.2132  -14.4982 F   0  0  0  0  0  0  0  0  0  0  0  0
  -10.5910  -19.3073  -13.6747 C   0  0  0  0  0  0  0  0  0  0  0  0
  -11.7529  -20.0135  -13.3867 C   0  0  0  0  0  0  0  0  0  0  0  0
  -12.7921  -19.3192  -12.8790 F   0  0  0  0  0  0  0  0  0  0  0  0
  -15.6799  -28.0708   -7.1254 C   0  0  0  0  0  0  0  0  0  0  0  0
  -14.3426  -28.7388   -7.0578 C   0  0  0  0  0  0  0  0  0  0  0  0
  -14.0694  -29.4335   -6.0511 O   0  0  0  0  0  0  0  0  0  0  0  0
  -13.5779  -28.5950   -8.0411 O   0  0  0  0  0  0  0  0  0  0  0  0
  -13.8408  -28.0611   -8.7649 H   0  0  0  0  0  0  0  0  0  0  0  0
  -16.6590  -29.2307   -7.1436 C   0  0  0  0  0  0  0  0  0  0  0  0
  -16.5048  -30.0394   -8.6901 S   0  0  0  0  0  0  0  0  0  0  0  0
  -18.1549  -29.7895   -9.1984 C   0  0  0  0  0  0  0  0  0  0  0  0
  -18.2392  -27.7271  -15.0083 Br  0  0  0  0  0  0  0  0  0  0  0  0
  -18.2010  -28.3812  -13.2406 C   0  0  0  0  0  0  0  0  0  0  0  0
  -19.1675  -27.9186  -12.3372 C   0  0  0  0  0  0  0  0  0  0  0  0
  -19.1352  -28.3828  -11.0256 C   0  0  0  0  0  0  0  0  0  0  0  0
  -17.2363  -29.3256  -12.8594 C   0  0  0  0  0  0  0  0  0  0  0  0
  -17.2193  -29.8051  -11.5466 C   0  0  0  0  0  0  0  0  0  0  0  0
  -18.1721  -29.3135  -10.6326 C   0  0  0  0  0  0  0  0  0  0  0  0
  -17.7694  -24.2650   -9.2074 C   0  0  0  0  0  0  0  0  0  0  0  0
  -16.7657  -23.4898   -8.3837 C   0  0  0  0  0  0  0  0  0  0  0  0
  -16.4700  -22.1624   -9.0495 C   0  0  0  0  0  0  0  0  0  0  0  0
 32 33  1  0  0  0
 33 34  1  0  0  0
 33 36  2  0  0  0
 34 35  2  0  0  0
 35 38  1  0  0  0
 36 37  1  0  0  0
 37 38  2  0  0  0
 38 31  1  0  0  0
 31 30  1  0  0  0
 30 29  1  0  0  0
 29 24  1  0  0  0
 24 25  1  0  0  0
 24  1  1  0  0  0
 25 26  2  0  0  0
 25 27  1  0  0  0
  1  2  1  0  0  0
  2  3  2  0  0  0
  2  4  1  0  0  0
  4 39  1  0  0  0
  4  5  1  0  0  0
 39 40  1  0  0  0
 40 41  1  0  0  0
  5  6  2  0  0  0
  5  8  1  0  0  0
  8  9  1  0  0  0
  8 10  2  0  0  0
  9 13  2  0  0  0
 10 11  1  0  0  0
 11 12  2  0  0  0
 12 13  1  0  0  0
 13 14  1  0  0  0
 14 15  3  0  0  0
 15 16  1  0  0  0
 16 17  1  0  0  0
 16 22  2  0  0  0
 17 18  2  0  0  0
 18 19  1  0  0  0
 19 20  1  0  0  0
 19 21  2  0  0  0
 21 22  1  0  0  0
 22 23  1  0  0  0
 27 28  1  0  0  0
  1  7  1  0  0  0
M  END
> <minimizedAffinity>
-7.95320

$$$$
