1TMN_0ZN_E_317


 40 42  0  0  0  0  0  0  0  0999 V2000
   49.5323   16.6119   -6.8729 C   0  0  0  0  0  0  0  0  0  0  0  0
   50.6837   15.6122   -6.6929 C   0  0  0  0  0  0  0  0  0  0  0  0
   51.0284   14.8311   -7.6248 O   0  0  0  0  0  0  0  0  0  0  0  0
   51.2689   15.7101   -5.5049 N   0  0  0  0  0  0  0  0  0  0  0  0
   50.9251   16.3766   -4.8670 H   0  0  0  0  0  0  0  0  0  0  0  0
   52.4067   14.8702   -5.0952 C   0  0  0  0  0  0  0  0  0  0  0  0
   52.2841   13.3917   -5.4471 C   0  0  0  0  0  0  0  0  0  0  0  0
   51.2787   12.7642   -4.9873 O   0  0  0  0  0  0  0  0  0  0  0  0
   52.9246   12.9265   -6.4568 O   0  0  0  0  0  0  0  0  0  0  0  0
   53.6656   13.3894   -6.7953 H   0  0  0  0  0  0  0  0  0  0  0  0
   52.8032   15.0955   -3.6064 C   0  0  0  0  0  0  0  0  0  0  0  0
   53.4764   16.4587   -3.4682 C   0  0  0  0  0  0  0  0  0  0  0  0
   54.1823   17.1363   -4.3713 C   0  0  0  0  0  0  0  0  0  0  0  0
   53.3749   17.3030   -2.3676 C   0  0  0  0  0  0  0  0  0  0  0  0
   54.3116   18.4761   -3.9522 N   0  0  0  0  0  0  0  0  0  0  0  0
   53.7629   18.5837   -2.8073 C   0  0  0  0  0  0  0  0  0  0  0  0
   52.9613   17.0534   -1.0594 C   0  0  0  0  0  0  0  0  0  0  0  0
   53.6554   19.7093   -2.0063 C   0  0  0  0  0  0  0  0  0  0  0  0
   52.9250   18.1701   -0.2049 C   0  0  0  0  0  0  0  0  0  0  0  0
   53.2338   19.4700   -0.6788 C   0  0  0  0  0  0  0  0  0  0  0  0
   54.7486   19.2007   -4.4554 H   0  0  0  0  0  0  0  0  0  0  0  0
   49.8207   18.0236   -6.5186 N   0  0  0  0  0  0  0  0  0  0  0  0
   50.2520   18.0404   -5.5944 H   0  0  0  0  0  0  0  0  0  0  0  0
   50.7467   18.7269   -7.4886 C   0  0  0  0  0  0  0  0  0  0  0  0
   52.1242   19.0851   -6.9819 C   0  0  0  0  0  0  0  0  0  0  0  0
   52.2693   19.8197   -5.9822 O   0  0  0  0  0  0  0  0  0  0  0  0
   53.1130   18.5513   -7.4918 O   0  0  0  0  0  0  0  0  0  0  0  0
   53.0126   17.9988   -8.2419 H   0  0  0  0  0  0  0  0  0  0  0  0
   50.2353   20.0348   -8.1191 C   0  0  0  0  0  0  0  0  0  0  0  0
   51.1396   20.3652   -9.3134 C   0  0  0  0  0  0  0  0  0  0  0  0
   50.5414   20.2500  -10.7319 C   0  0  0  0  0  0  0  0  0  0  0  0
   50.8424   21.1961  -11.7037 C   0  0  0  0  0  0  0  0  0  0  0  0
   49.8099   19.1359  -11.0619 C   0  0  0  0  0  0  0  0  0  0  0  0
   50.3698   21.0574  -13.0231 C   0  0  0  0  0  0  0  0  0  0  0  0
   49.3173   18.9849  -12.3705 C   0  0  0  0  0  0  0  0  0  0  0  0
   49.5850   19.9510  -13.3610 C   0  0  0  0  0  0  0  0  0  0  0  0
   49.0774   16.5351   -8.3315 C   0  0  0  0  0  0  0  0  0  0  0  0
   47.6705   17.0961   -8.4179 C   0  0  0  0  0  0  0  0  0  0  0  0
   47.1104   16.9228   -9.8278 C   0  0  0  0  0  0  0  0  0  0  0  0
   46.8300   16.3748   -7.3730 C   0  0  0  0  0  0  0  0  0  0  0  0
 24 29  1  0  0  0
 24 25  1  0  0  0
 29 30  1  0  0  0
 30 31  1  0  0  0
 31 32  2  0  0  0
 31 33  1  0  0  0
 32 34  1  0  0  0
 33 35  2  0  0  0
 34 36  2  0  0  0
 35 36  1  0  0  0
 25 26  2  0  0  0
 25 27  1  0  0  0
 22  1  1  0  0  0
  1  2  1  0  0  0
  1 37  1  0  0  0
  2  3  2  0  0  0
 37 38  1  0  0  0
 38 39  1  0  0  0
 38 40  1  0  0  0
  4  6  1  0  0  0
  6  7  1  0  0  0
  6 11  1  0  0  0
  7  8  2  0  0  0
  7  9  1  0  0  0
 11 12  1  0  0  0
 12 13  2  0  0  0
 12 14  1  0  0  0
 13 15  1  0  0  0
 14 16  2  0  0  0
 14 17  1  0  0  0
 15 16  1  0  0  0
 16 18  1  0  0  0
 17 19  2  0  0  0
 18 20  2  0  0  0
 19 20  1  0  0  0
 24 22  1  0  0  0
  2  4  1  0  0  0
 27 28  1  0  0  0
 22 23  1  0  0  0
  4  5  1  0  0  0
 15 21  1  0  0  0
  9 10  1  0  0  0
M  END
> <minimizedAffinity>
-8.63882

$$$$
1TMN_0ZN_E_317


 40 42  0  0  0  0  0  0  0  0999 V2000
   53.2189   17.4495   -3.7552 C   0  0  0  0  0  0  0  0  0  0  0  0
   52.3203   18.0607   -4.8397 C   0  0  0  0  0  0  0  0  0  0  0  0
   52.4663   19.2581   -5.2171 O   0  0  0  0  0  0  0  0  0  0  0  0
   51.4481   17.1908   -5.3356 N   0  0  0  0  0  0  0  0  0  0  0  0
   51.4450   16.2742   -4.9763 H   0  0  0  0  0  0  0  0  0  0  0  0
   50.4854   17.5303   -6.3966 C   0  0  0  0  0  0  0  0  0  0  0  0
   49.2507   16.6383   -6.4648 C   0  0  0  0  0  0  0  0  0  0  0  0
   49.4259   15.4245   -6.7993 O   0  0  0  0  0  0  0  0  0  0  0  0
   48.1846   16.9849   -5.8407 O   0  0  0  0  0  0  0  0  0  0  0  0
   48.0559   17.8797   -5.5943 H   0  0  0  0  0  0  0  0  0  0  0  0
   51.1703   17.7037   -7.7842 C   0  0  0  0  0  0  0  0  0  0  0  0
   50.6544   18.9816   -8.4411 C   0  0  0  0  0  0  0  0  0  0  0  0
   50.6435   20.2225   -7.9583 C   0  0  0  0  0  0  0  0  0  0  0  0
   50.1855   19.0875   -9.7462 C   0  0  0  0  0  0  0  0  0  0  0  0
   50.4127   21.1304   -9.0117 N   0  0  0  0  0  0  0  0  0  0  0  0
   50.2237   20.4564  -10.0763 C   0  0  0  0  0  0  0  0  0  0  0  0
   49.7634   18.1109  -10.6478 C   0  0  0  0  0  0  0  0  0  0  0  0
   49.9531   20.9214  -11.3533 C   0  0  0  0  0  0  0  0  0  0  0  0
   49.4033   18.5726  -11.9267 C   0  0  0  0  0  0  0  0  0  0  0  0
   49.5273   19.9405  -12.2775 C   0  0  0  0  0  0  0  0  0  0  0  0
   50.3999   22.1120   -8.9378 H   0  0  0  0  0  0  0  0  0  0  0  0
   54.1906   16.4215   -4.2035 N   0  0  0  0  0  0  0  0  0  0  0  0
   55.0985   16.6375   -3.7917 H   0  0  0  0  0  0  0  0  0  0  0  0
   53.8163   15.0068   -3.8145 C   0  0  0  0  0  0  0  0  0  0  0  0
   53.0714   14.1886   -4.8432 C   0  0  0  0  0  0  0  0  0  0  0  0
   53.6281   13.2390   -5.4335 O   0  0  0  0  0  0  0  0  0  0  0  0
   51.8660   14.3881   -5.0161 O   0  0  0  0  0  0  0  0  0  0  0  0
   51.4410   15.0984   -4.5770 H   0  0  0  0  0  0  0  0  0  0  0  0
   52.9826   14.8323   -2.5322 C   0  0  0  0  0  0  0  0  0  0  0  0
   53.5172   13.6017   -1.7885 C   0  0  0  0  0  0  0  0  0  0  0  0
   52.5079   12.5128   -1.3653 C   0  0  0  0  0  0  0  0  0  0  0  0
   52.7865   11.6692   -0.2971 C   0  0  0  0  0  0  0  0  0  0  0  0
   51.2777   12.4673   -1.9732 C   0  0  0  0  0  0  0  0  0  0  0  0
   51.8397   10.7276    0.1504 C   0  0  0  0  0  0  0  0  0  0  0  0
   50.3229   11.5252   -1.5502 C   0  0  0  0  0  0  0  0  0  0  0  0
   50.6002   10.6392   -0.4899 C   0  0  0  0  0  0  0  0  0  0  0  0
   53.9682   18.5968   -3.0750 C   0  0  0  0  0  0  0  0  0  0  0  0
   53.9762   18.3357   -1.5806 C   0  0  0  0  0  0  0  0  0  0  0  0
   54.8546   19.3579   -0.8630 C   0  0  0  0  0  0  0  0  0  0  0  0
   52.5309   18.3847   -1.1041 C   0  0  0  0  0  0  0  0  0  0  0  0
 24 29  1  0  0  0
 24 25  1  0  0  0
 29 30  1  0  0  0
 30 31  1  0  0  0
 31 32  2  0  0  0
 31 33  1  0  0  0
 32 34  1  0  0  0
 33 35  2  0  0  0
 34 36  2  0  0  0
 35 36  1  0  0  0
 25 26  2  0  0  0
 25 27  1  0  0  0
 22  1  1  0  0  0
  1  2  1  0  0  0
  1 37  1  0  0  0
  2  3  2  0  0  0
 37 38  1  0  0  0
 38 39  1  0  0  0
 38 40  1  0  0  0
  4  6  1  0  0  0
  6  7  1  0  0  0
  6 11  1  0  0  0
  7  8  2  0  0  0
  7  9  1  0  0  0
 11 12  1  0  0  0
 12 13  2  0  0  0
 12 14  1  0  0  0
 13 15  1  0  0  0
 14 16  2  0  0  0
 14 17  1  0  0  0
 15 16  1  0  0  0
 16 18  1  0  0  0
 17 19  2  0  0  0
 18 20  2  0  0  0
 19 20  1  0  0  0
 24 22  1  0  0  0
  2  4  1  0  0  0
 27 28  1  0  0  0
 22 23  1  0  0  0
  4  5  1  0  0  0
 15 21  1  0  0  0
  9 10  1  0  0  0
M  END
> <minimizedAffinity>
-8.56933

$$$$
1TMN_0ZN_E_317


 40 42  0  0  0  0  0  0  0  0999 V2000
   52.7685   18.1865   -3.7583 C   0  0  0  0  0  0  0  0  0  0  0  0
   53.7123   17.0148   -4.0642 C   0  0  0  0  0  0  0  0  0  0  0  0
   54.9226   17.2083   -4.3729 O   0  0  0  0  0  0  0  0  0  0  0  0
   53.1272   15.8315   -3.9192 N   0  0  0  0  0  0  0  0  0  0  0  0
   52.1805   15.8070   -3.6502 H   0  0  0  0  0  0  0  0  0  0  0  0
   53.8256   14.5544   -4.1411 C   0  0  0  0  0  0  0  0  0  0  0  0
   53.0521   13.5227   -4.9548 C   0  0  0  0  0  0  0  0  0  0  0  0
   51.7886   13.6511   -5.0094 O   0  0  0  0  0  0  0  0  0  0  0  0
   53.6656   12.8265   -5.8408 O   0  0  0  0  0  0  0  0  0  0  0  0
   54.5970   12.7321   -5.8001 H   0  0  0  0  0  0  0  0  0  0  0  0
   54.4043   13.9594   -2.8237 C   0  0  0  0  0  0  0  0  0  0  0  0
   53.2519   13.5718   -1.9006 C   0  0  0  0  0  0  0  0  0  0  0  0
   52.2587   14.3308   -1.4415 C   0  0  0  0  0  0  0  0  0  0  0  0
   52.9749   12.2858   -1.4488 C   0  0  0  0  0  0  0  0  0  0  0  0
   51.2414   13.5038   -0.9234 N   0  0  0  0  0  0  0  0  0  0  0  0
   51.6380   12.2957   -1.0053 C   0  0  0  0  0  0  0  0  0  0  0  0
   53.7664   11.1380   -1.4170 C   0  0  0  0  0  0  0  0  0  0  0  0
   50.9766   11.1436   -0.6111 C   0  0  0  0  0  0  0  0  0  0  0  0
   53.1378    9.9736   -0.9403 C   0  0  0  0  0  0  0  0  0  0  0  0
   51.7673    9.9726   -0.5778 C   0  0  0  0  0  0  0  0  0  0  0  0
   50.3770   13.8064   -0.5621 H   0  0  0  0  0  0  0  0  0  0  0  0
   51.5633   18.3061   -4.6157 N   0  0  0  0  0  0  0  0  0  0  0  0
   51.1751   19.2415   -4.4941 H   0  0  0  0  0  0  0  0  0  0  0  0
   51.8306   18.0899   -6.0903 C   0  0  0  0  0  0  0  0  0  0  0  0
   51.6380   19.2790   -7.0022 C   0  0  0  0  0  0  0  0  0  0  0  0
   52.2028   19.3326   -8.1149 O   0  0  0  0  0  0  0  0  0  0  0  0
   50.8220   20.1515   -6.6928 O   0  0  0  0  0  0  0  0  0  0  0  0
   50.3940   20.1185   -5.8599 H   0  0  0  0  0  0  0  0  0  0  0  0
   51.0448   16.9630   -6.7849 C   0  0  0  0  0  0  0  0  0  0  0  0
   49.6439   16.9145   -6.1618 C   0  0  0  0  0  0  0  0  0  0  0  0
   48.4269   16.8823   -7.1111 C   0  0  0  0  0  0  0  0  0  0  0  0
   47.2210   16.3324   -6.6941 C   0  0  0  0  0  0  0  0  0  0  0  0
   48.5088   17.5151   -8.3268 C   0  0  0  0  0  0  0  0  0  0  0  0
   46.0812   16.3714   -7.5203 C   0  0  0  0  0  0  0  0  0  0  0  0
   47.3857   17.5535   -9.1725 C   0  0  0  0  0  0  0  0  0  0  0  0
   46.1635   16.9720   -8.7799 C   0  0  0  0  0  0  0  0  0  0  0  0
   52.3425   18.0667   -2.2939 C   0  0  0  0  0  0  0  0  0  0  0  0
   53.5188   18.4703   -1.4250 C   0  0  0  0  0  0  0  0  0  0  0  0
   53.8760   19.9370   -1.6547 C   0  0  0  0  0  0  0  0  0  0  0  0
   53.1304   18.1930    0.0209 C   0  0  0  0  0  0  0  0  0  0  0  0
 24 29  1  0  0  0
 24 25  1  0  0  0
 29 30  1  0  0  0
 30 31  1  0  0  0
 31 32  2  0  0  0
 31 33  1  0  0  0
 32 34  1  0  0  0
 33 35  2  0  0  0
 34 36  2  0  0  0
 35 36  1  0  0  0
 25 26  2  0  0  0
 25 27  1  0  0  0
 22  1  1  0  0  0
  1  2  1  0  0  0
  1 37  1  0  0  0
  2  3  2  0  0  0
 37 38  1  0  0  0
 38 39  1  0  0  0
 38 40  1  0  0  0
  4  6  1  0  0  0
  6  7  1  0  0  0
  6 11  1  0  0  0
  7  8  2  0  0  0
  7  9  1  0  0  0
 11 12  1  0  0  0
 12 13  2  0  0  0
 12 14  1  0  0  0
 13 15  1  0  0  0
 14 16  2  0  0  0
 14 17  1  0  0  0
 15 16  1  0  0  0
 16 18  1  0  0  0
 17 19  2  0  0  0
 18 20  2  0  0  0
 19 20  1  0  0  0
 24 22  1  0  0  0
  2  4  1  0  0  0
 27 28  1  0  0  0
 22 23  1  0  0  0
  4  5  1  0  0  0
 15 21  1  0  0  0
  9 10  1  0  0  0
M  END
> <minimizedAffinity>
-8.37061

$$$$
1TMN_0ZN_E_317


 40 42  0  0  0  0  0  0  0  0999 V2000
   50.7494   16.4211   -6.9689 C   0  0  0  0  0  0  0  0  0  0  0  0
   51.5012   15.8464   -5.7599 C   0  0  0  0  0  0  0  0  0  0  0  0
   51.5547   14.6012   -5.5498 O   0  0  0  0  0  0  0  0  0  0  0  0
   52.0975   16.7834   -5.0320 N   0  0  0  0  0  0  0  0  0  0  0  0
   52.0034   17.7230   -5.3102 H   0  0  0  0  0  0  0  0  0  0  0  0
   52.8924   16.4853   -3.8290 C   0  0  0  0  0  0  0  0  0  0  0  0
   53.6745   17.6629   -3.2577 C   0  0  0  0  0  0  0  0  0  0  0  0
   54.8938   17.4632   -2.9590 O   0  0  0  0  0  0  0  0  0  0  0  0
   53.2471   18.8577   -3.4469 O   0  0  0  0  0  0  0  0  0  0  0  0
   52.3482   19.0044   -3.6671 H   0  0  0  0  0  0  0  0  0  0  0  0
   53.7749   15.2142   -4.0024 C   0  0  0  0  0  0  0  0  0  0  0  0
   53.5831   14.3026   -2.7930 C   0  0  0  0  0  0  0  0  0  0  0  0
   52.6652   14.3743   -1.8310 C   0  0  0  0  0  0  0  0  0  0  0  0
   54.2976   13.1370   -2.5374 C   0  0  0  0  0  0  0  0  0  0  0  0
   52.6324   13.1539   -1.1262 N   0  0  0  0  0  0  0  0  0  0  0  0
   53.5437   12.4012   -1.6022 C   0  0  0  0  0  0  0  0  0  0  0  0
   55.5048   12.6722   -3.0583 C   0  0  0  0  0  0  0  0  0  0  0  0
   53.8872   11.1154   -1.2167 C   0  0  0  0  0  0  0  0  0  0  0  0
   55.9148   11.4019   -2.6148 C   0  0  0  0  0  0  0  0  0  0  0  0
   55.1073   10.6315   -1.7407 C   0  0  0  0  0  0  0  0  0  0  0  0
   52.0144   12.9237   -0.3952 H   0  0  0  0  0  0  0  0  0  0  0  0
   51.5649   17.1591   -7.9651 N   0  0  0  0  0  0  0  0  0  0  0  0
   51.2992   16.8396   -8.8966 H   0  0  0  0  0  0  0  0  0  0  0  0
   51.3938   18.6626   -7.9111 C   0  0  0  0  0  0  0  0  0  0  0  0
   51.4922   19.3140   -6.5515 C   0  0  0  0  0  0  0  0  0  0  0  0
   52.5946   19.6833   -6.0950 O   0  0  0  0  0  0  0  0  0  0  0  0
   50.4579   19.5889   -5.9372 O   0  0  0  0  0  0  0  0  0  0  0  0
   49.6269   19.3155   -6.2729 H   0  0  0  0  0  0  0  0  0  0  0  0
   50.0948   19.2396   -8.5020 C   0  0  0  0  0  0  0  0  0  0  0  0
   50.0142   18.8058   -9.9713 C   0  0  0  0  0  0  0  0  0  0  0  0
   50.3344   19.8550  -11.0575 C   0  0  0  0  0  0  0  0  0  0  0  0
   49.8441   19.7061  -12.3489 C   0  0  0  0  0  0  0  0  0  0  0  0
   51.0029   21.0013  -10.7051 C   0  0  0  0  0  0  0  0  0  0  0  0
   50.0600   20.6968  -13.3262 C   0  0  0  0  0  0  0  0  0  0  0  0
   51.2407   21.9970  -11.6695 C   0  0  0  0  0  0  0  0  0  0  0  0
   50.7793   21.8482  -12.9928 C   0  0  0  0  0  0  0  0  0  0  0  0
   50.0284   15.2616   -7.6589 C   0  0  0  0  0  0  0  0  0  0  0  0
   48.5381   15.5427   -7.6219 C   0  0  0  0  0  0  0  0  0  0  0  0
   48.2287   16.6621   -6.6305 C   0  0  0  0  0  0  0  0  0  0  0  0
   48.1081   15.8954   -9.0393 C   0  0  0  0  0  0  0  0  0  0  0  0
 24 29  1  0  0  0
 24 25  1  0  0  0
 29 30  1  0  0  0
 30 31  1  0  0  0
 31 32  2  0  0  0
 31 33  1  0  0  0
 32 34  1  0  0  0
 33 35  2  0  0  0
 34 36  2  0  0  0
 35 36  1  0  0  0
 25 26  2  0  0  0
 25 27  1  0  0  0
 22  1  1  0  0  0
  1  2  1  0  0  0
  1 37  1  0  0  0
  2  3  2  0  0  0
 37 38  1  0  0  0
 38 39  1  0  0  0
 38 40  1  0  0  0
  4  6  1  0  0  0
  6  7  1  0  0  0
  6 11  1  0  0  0
  7  8  2  0  0  0
  7  9  1  0  0  0
 11 12  1  0  0  0
 12 13  2  0  0  0
 12 14  1  0  0  0
 13 15  1  0  0  0
 14 16  2  0  0  0
 14 17  1  0  0  0
 15 16  1  0  0  0
 16 18  1  0  0  0
 17 19  2  0  0  0
 18 20  2  0  0  0
 19 20  1  0  0  0
 24 22  1  0  0  0
  2  4  1  0  0  0
 27 28  1  0  0  0
 22 23  1  0  0  0
  4  5  1  0  0  0
 15 21  1  0  0  0
  9 10  1  0  0  0
M  END
> <minimizedAffinity>
-8.18997

$$$$
1TMN_0ZN_E_317


 40 42  0  0  0  0  0  0  0  0999 V2000
   50.6621   16.4495   -6.9382 C   0  0  0  0  0  0  0  0  0  0  0  0
   50.5772   17.2844   -8.2238 C   0  0  0  0  0  0  0  0  0  0  0  0
   51.0744   16.8718   -9.3101 O   0  0  0  0  0  0  0  0  0  0  0  0
   49.9025   18.4162   -8.0586 N   0  0  0  0  0  0  0  0  0  0  0  0
   49.5396   18.6191   -7.1662 H   0  0  0  0  0  0  0  0  0  0  0  0
   49.6708   19.3824   -9.1452 C   0  0  0  0  0  0  0  0  0  0  0  0
   50.2266   20.7812   -8.9016 C   0  0  0  0  0  0  0  0  0  0  0  0
   50.2857   21.5671   -9.8989 O   0  0  0  0  0  0  0  0  0  0  0  0
   50.2491   21.2542   -7.7091 O   0  0  0  0  0  0  0  0  0  0  0  0
   50.2055   20.6745   -6.9743 H   0  0  0  0  0  0  0  0  0  0  0  0
   48.1847   19.4063   -9.6094 C   0  0  0  0  0  0  0  0  0  0  0  0
   47.8183   18.0412  -10.1864 C   0  0  0  0  0  0  0  0  0  0  0  0
   48.1946   17.4949  -11.3410 C   0  0  0  0  0  0  0  0  0  0  0  0
   47.0852   17.0569   -9.5321 C   0  0  0  0  0  0  0  0  0  0  0  0
   47.9222   16.1120  -11.3129 N   0  0  0  0  0  0  0  0  0  0  0  0
   47.3411   15.8489  -10.2099 C   0  0  0  0  0  0  0  0  0  0  0  0
   46.2566   17.1268   -8.4125 C   0  0  0  0  0  0  0  0  0  0  0  0
   46.8807   14.6258   -9.7494 C   0  0  0  0  0  0  0  0  0  0  0  0
   45.7104   15.9059   -7.9775 C   0  0  0  0  0  0  0  0  0  0  0  0
   46.0424   14.6829   -8.6130 C   0  0  0  0  0  0  0  0  0  0  0  0
   48.1421   15.4640  -12.0206 H   0  0  0  0  0  0  0  0  0  0  0  0
   50.5231   17.1887   -5.6591 N   0  0  0  0  0  0  0  0  0  0  0  0
   50.0480   16.5837   -4.9893 H   0  0  0  0  0  0  0  0  0  0  0  0
   51.8397   17.6276   -5.0533 C   0  0  0  0  0  0  0  0  0  0  0  0
   52.6481   18.6386   -5.8323 C   0  0  0  0  0  0  0  0  0  0  0  0
   52.1546   19.7374   -6.1630 O   0  0  0  0  0  0  0  0  0  0  0  0
   53.8447   18.4227   -6.0421 O   0  0  0  0  0  0  0  0  0  0  0  0
   54.2225   17.6010   -5.7971 H   0  0  0  0  0  0  0  0  0  0  0  0
   52.8576   16.5223   -4.7186 C   0  0  0  0  0  0  0  0  0  0  0  0
   52.9633   16.4283   -3.1911 C   0  0  0  0  0  0  0  0  0  0  0  0
   53.3540   17.7013   -2.4099 C   0  0  0  0  0  0  0  0  0  0  0  0
   54.5645   18.3370   -2.6567 C   0  0  0  0  0  0  0  0  0  0  0  0
   52.4401   18.2717   -1.5587 C   0  0  0  0  0  0  0  0  0  0  0  0
   54.8957   19.5437   -2.0105 C   0  0  0  0  0  0  0  0  0  0  0  0
   52.7567   19.4695   -0.8932 C   0  0  0  0  0  0  0  0  0  0  0  0
   53.9933   20.1112   -1.1061 C   0  0  0  0  0  0  0  0  0  0  0  0
   49.5863   15.3648   -7.0195 C   0  0  0  0  0  0  0  0  0  0  0  0
   50.2544   14.0666   -7.4317 C   0  0  0  0  0  0  0  0  0  0  0  0
   51.4035   13.7311   -6.4838 C   0  0  0  0  0  0  0  0  0  0  0  0
   49.1810   12.9868   -7.4383 C   0  0  0  0  0  0  0  0  0  0  0  0
 24 29  1  0  0  0
 24 25  1  0  0  0
 29 30  1  0  0  0
 30 31  1  0  0  0
 31 32  2  0  0  0
 31 33  1  0  0  0
 32 34  1  0  0  0
 33 35  2  0  0  0
 34 36  2  0  0  0
 35 36  1  0  0  0
 25 26  2  0  0  0
 25 27  1  0  0  0
 22  1  1  0  0  0
  1  2  1  0  0  0
  1 37  1  0  0  0
  2  3  2  0  0  0
 37 38  1  0  0  0
 38 39  1  0  0  0
 38 40  1  0  0  0
  4  6  1  0  0  0
  6  7  1  0  0  0
  6 11  1  0  0  0
  7  8  2  0  0  0
  7  9  1  0  0  0
 11 12  1  0  0  0
 12 13  2  0  0  0
 12 14  1  0  0  0
 13 15  1  0  0  0
 14 16  2  0  0  0
 14 17  1  0  0  0
 15 16  1  0  0  0
 16 18  1  0  0  0
 17 19  2  0  0  0
 18 20  2  0  0  0
 19 20  1  0  0  0
 24 22  1  0  0  0
  2  4  1  0  0  0
 27 28  1  0  0  0
 22 23  1  0  0  0
  4  5  1  0  0  0
 15 21  1  0  0  0
  9 10  1  0  0  0
M  END
> <minimizedAffinity>
-8.15145

$$$$
1TMN_0ZN_E_317


 40 42  0  0  0  0  0  0  0  0999 V2000
   52.8461   18.0338   -3.4411 C   0  0  0  0  0  0  0  0  0  0  0  0
   53.4304   16.6141   -3.4540 C   0  0  0  0  0  0  0  0  0  0  0  0
   54.6111   16.3923   -3.8470 O   0  0  0  0  0  0  0  0  0  0  0  0
   52.5879   15.7066   -2.9745 N   0  0  0  0  0  0  0  0  0  0  0  0
   51.6989   16.0050   -2.6748 H   0  0  0  0  0  0  0  0  0  0  0  0
   52.9185   14.2757   -2.8693 C   0  0  0  0  0  0  0  0  0  0  0  0
   52.8391   13.4918   -4.1748 C   0  0  0  0  0  0  0  0  0  0  0  0
   51.6823   13.2734   -4.6544 O   0  0  0  0  0  0  0  0  0  0  0  0
   53.8726   13.4164   -4.9313 O   0  0  0  0  0  0  0  0  0  0  0  0
   54.7251   13.5775   -4.5773 H   0  0  0  0  0  0  0  0  0  0  0  0
   52.1534   13.5749   -1.7083 C   0  0  0  0  0  0  0  0  0  0  0  0
   52.8002   12.2208   -1.4278 C   0  0  0  0  0  0  0  0  0  0  0  0
   54.0204   11.7960   -1.7497 C   0  0  0  0  0  0  0  0  0  0  0  0
   52.2402   11.1989   -0.6685 C   0  0  0  0  0  0  0  0  0  0  0  0
   54.3237   10.6399   -1.0022 N   0  0  0  0  0  0  0  0  0  0  0  0
   53.2980   10.3414   -0.3077 C   0  0  0  0  0  0  0  0  0  0  0  0
   50.9248   10.9784   -0.2612 C   0  0  0  0  0  0  0  0  0  0  0  0
   53.1302    9.2815    0.5689 C   0  0  0  0  0  0  0  0  0  0  0  0
   50.7185    9.8572    0.5627 C   0  0  0  0  0  0  0  0  0  0  0  0
   51.8017    9.0496    0.9918 C   0  0  0  0  0  0  0  0  0  0  0  0
   55.1774   10.1497   -1.0145 H   0  0  0  0  0  0  0  0  0  0  0  0
   51.7246   18.2960   -4.3767 N   0  0  0  0  0  0  0  0  0  0  0  0
   51.5179   19.2946   -4.3574 H   0  0  0  0  0  0  0  0  0  0  0  0
   52.0094   17.8967   -5.8093 C   0  0  0  0  0  0  0  0  0  0  0  0
   52.0474   19.0061   -6.8341 C   0  0  0  0  0  0  0  0  0  0  0  0
   52.0098   18.7521   -8.0565 O   0  0  0  0  0  0  0  0  0  0  0  0
   51.9976   20.1796   -6.4560 O   0  0  0  0  0  0  0  0  0  0  0  0
   52.0253   20.3785   -5.5408 H   0  0  0  0  0  0  0  0  0  0  0  0
   51.0783   16.8454   -6.4398 C   0  0  0  0  0  0  0  0  0  0  0  0
   49.6458   17.1552   -5.9868 C   0  0  0  0  0  0  0  0  0  0  0  0
   48.5142   17.0500   -7.0318 C   0  0  0  0  0  0  0  0  0  0  0  0
   48.7306   17.4391   -8.3479 C   0  0  0  0  0  0  0  0  0  0  0  0
   47.3303   16.4509   -6.6790 C   0  0  0  0  0  0  0  0  0  0  0  0
   47.7333   17.2712   -9.3279 C   0  0  0  0  0  0  0  0  0  0  0  0
   46.3164   16.2860   -7.6396 C   0  0  0  0  0  0  0  0  0  0  0  0
   46.5060   16.7047   -8.9718 C   0  0  0  0  0  0  0  0  0  0  0  0
   52.3973   18.3359   -2.0101 C   0  0  0  0  0  0  0  0  0  0  0  0
   53.6274   18.6812   -1.1920 C   0  0  0  0  0  0  0  0  0  0  0  0
   53.9735   20.1606   -1.3435 C   0  0  0  0  0  0  0  0  0  0  0  0
   53.3305   18.3056    0.2534 C   0  0  0  0  0  0  0  0  0  0  0  0
 24 29  1  0  0  0
 24 25  1  0  0  0
 29 30  1  0  0  0
 30 31  1  0  0  0
 31 32  2  0  0  0
 31 33  1  0  0  0
 32 34  1  0  0  0
 33 35  2  0  0  0
 34 36  2  0  0  0
 35 36  1  0  0  0
 25 26  2  0  0  0
 25 27  1  0  0  0
 22  1  1  0  0  0
  1  2  1  0  0  0
  1 37  1  0  0  0
  2  3  2  0  0  0
 37 38  1  0  0  0
 38 39  1  0  0  0
 38 40  1  0  0  0
  4  6  1  0  0  0
  6  7  1  0  0  0
  6 11  1  0  0  0
  7  8  2  0  0  0
  7  9  1  0  0  0
 11 12  1  0  0  0
 12 13  2  0  0  0
 12 14  1  0  0  0
 13 15  1  0  0  0
 14 16  2  0  0  0
 14 17  1  0  0  0
 15 16  1  0  0  0
 16 18  1  0  0  0
 17 19  2  0  0  0
 18 20  2  0  0  0
 19 20  1  0  0  0
 24 22  1  0  0  0
  2  4  1  0  0  0
 27 28  1  0  0  0
 22 23  1  0  0  0
  4  5  1  0  0  0
 15 21  1  0  0  0
  9 10  1  0  0  0
M  END
> <minimizedAffinity>
-7.80798

$$$$
1TMN_0ZN_E_317


 40 42  0  0  0  0  0  0  0  0999 V2000
   52.7465   17.8930   -3.5895 C   0  0  0  0  0  0  0  0  0  0  0  0
   53.4405   16.5236   -3.5696 C   0  0  0  0  0  0  0  0  0  0  0  0
   54.6927   16.4187   -3.7056 O   0  0  0  0  0  0  0  0  0  0  0  0
   52.5962   15.5221   -3.3517 N   0  0  0  0  0  0  0  0  0  0  0  0
   51.6411   15.7313   -3.2367 H   0  0  0  0  0  0  0  0  0  0  0  0
   53.0189   14.1139   -3.2739 C   0  0  0  0  0  0  0  0  0  0  0  0
   52.2639   13.1563   -4.1893 C   0  0  0  0  0  0  0  0  0  0  0  0
   52.9269   12.5882   -5.1132 O   0  0  0  0  0  0  0  0  0  0  0  0
   51.1471   12.6582   -3.8009 O   0  0  0  0  0  0  0  0  0  0  0  0
   50.6588   13.0773   -3.1198 H   0  0  0  0  0  0  0  0  0  0  0  0
   53.0934   13.5982   -1.8066 C   0  0  0  0  0  0  0  0  0  0  0  0
   53.7106   12.2019   -1.7972 C   0  0  0  0  0  0  0  0  0  0  0  0
   53.1646   11.0506   -1.4108 C   0  0  0  0  0  0  0  0  0  0  0  0
   54.9602   11.8667   -2.3076 C   0  0  0  0  0  0  0  0  0  0  0  0
   53.9435    9.9798   -1.8946 N   0  0  0  0  0  0  0  0  0  0  0  0
   54.9571   10.4700   -2.4910 C   0  0  0  0  0  0  0  0  0  0  0  0
   56.0570   12.6630   -2.6358 C   0  0  0  0  0  0  0  0  0  0  0  0
   55.9974    9.7994   -3.1140 C   0  0  0  0  0  0  0  0  0  0  0  0
   57.1584   11.9889   -3.1935 C   0  0  0  0  0  0  0  0  0  0  0  0
   57.1138   10.5963   -3.4548 C   0  0  0  0  0  0  0  0  0  0  0  0
   53.7401    9.0223   -1.7902 H   0  0  0  0  0  0  0  0  0  0  0  0
   51.5948   18.0374   -4.5138 N   0  0  0  0  0  0  0  0  0  0  0  0
   51.2167   18.9790   -4.4101 H   0  0  0  0  0  0  0  0  0  0  0  0
   51.9424   17.8223   -5.9718 C   0  0  0  0  0  0  0  0  0  0  0  0
   52.0131   19.0518   -6.8470 C   0  0  0  0  0  0  0  0  0  0  0  0
   51.8605   18.9687   -8.0838 O   0  0  0  0  0  0  0  0  0  0  0  0
   52.1066   20.1637   -6.3200 O   0  0  0  0  0  0  0  0  0  0  0  0
   52.2212   20.2345   -5.3928 H   0  0  0  0  0  0  0  0  0  0  0  0
   51.0476   16.8553   -6.7681 C   0  0  0  0  0  0  0  0  0  0  0  0
   49.6368   16.9202   -6.1691 C   0  0  0  0  0  0  0  0  0  0  0  0
   48.4341   16.8823   -7.1361 C   0  0  0  0  0  0  0  0  0  0  0  0
   47.2116   16.3678   -6.7222 C   0  0  0  0  0  0  0  0  0  0  0  0
   48.5466   17.4768   -8.3686 C   0  0  0  0  0  0  0  0  0  0  0  0
   46.0855   16.4033   -7.5672 C   0  0  0  0  0  0  0  0  0  0  0  0
   47.4376   17.5107   -9.2328 C   0  0  0  0  0  0  0  0  0  0  0  0
   46.1985   16.9642   -8.8426 C   0  0  0  0  0  0  0  0  0  0  0  0
   52.2957   18.2035   -2.1610 C   0  0  0  0  0  0  0  0  0  0  0  0
   53.5202   18.5882   -1.3521 C   0  0  0  0  0  0  0  0  0  0  0  0
   53.8957   20.0457   -1.6092 C   0  0  0  0  0  0  0  0  0  0  0  0
   53.1958   18.3281    0.1126 C   0  0  0  0  0  0  0  0  0  0  0  0
 24 29  1  0  0  0
 24 25  1  0  0  0
 29 30  1  0  0  0
 30 31  1  0  0  0
 31 32  2  0  0  0
 31 33  1  0  0  0
 32 34  1  0  0  0
 33 35  2  0  0  0
 34 36  2  0  0  0
 35 36  1  0  0  0
 25 26  2  0  0  0
 25 27  1  0  0  0
 22  1  1  0  0  0
  1  2  1  0  0  0
  1 37  1  0  0  0
  2  3  2  0  0  0
 37 38  1  0  0  0
 38 39  1  0  0  0
 38 40  1  0  0  0
  4  6  1  0  0  0
  6  7  1  0  0  0
  6 11  1  0  0  0
  7  8  2  0  0  0
  7  9  1  0  0  0
 11 12  1  0  0  0
 12 13  2  0  0  0
 12 14  1  0  0  0
 13 15  1  0  0  0
 14 16  2  0  0  0
 14 17  1  0  0  0
 15 16  1  0  0  0
 16 18  1  0  0  0
 17 19  2  0  0  0
 18 20  2  0  0  0
 19 20  1  0  0  0
 24 22  1  0  0  0
  2  4  1  0  0  0
 27 28  1  0  0  0
 22 23  1  0  0  0
  4  5  1  0  0  0
 15 21  1  0  0  0
  9 10  1  0  0  0
M  END
> <minimizedAffinity>
-7.76081

$$$$
1TMN_0ZN_E_317


 40 42  0  0  0  0  0  0  0  0999 V2000
   50.8477   17.4693   -6.5660 C   0  0  0  0  0  0  0  0  0  0  0  0
   51.3941   18.4703   -7.5940 C   0  0  0  0  0  0  0  0  0  0  0  0
   52.6241   18.7570   -7.6435 O   0  0  0  0  0  0  0  0  0  0  0  0
   50.4555   18.9309   -8.4127 N   0  0  0  0  0  0  0  0  0  0  0  0
   49.5313   18.6144   -8.2908 H   0  0  0  0  0  0  0  0  0  0  0  0
   50.7298   19.8921   -9.4938 C   0  0  0  0  0  0  0  0  0  0  0  0
   50.4772   21.3545   -9.1438 C   0  0  0  0  0  0  0  0  0  0  0  0
   50.2863   22.1603  -10.1082 O   0  0  0  0  0  0  0  0  0  0  0  0
   50.0860   21.6636   -7.9616 O   0  0  0  0  0  0  0  0  0  0  0  0
   50.2270   21.0693   -7.2511 H   0  0  0  0  0  0  0  0  0  0  0  0
   50.0604   19.4788  -10.8375 C   0  0  0  0  0  0  0  0  0  0  0  0
   48.7665   18.7246  -10.5413 C   0  0  0  0  0  0  0  0  0  0  0  0
   47.5924   19.2073  -10.1393 C   0  0  0  0  0  0  0  0  0  0  0  0
   48.5570   17.3654  -10.7490 C   0  0  0  0  0  0  0  0  0  0  0  0
   46.5964   18.2279  -10.3289 N   0  0  0  0  0  0  0  0  0  0  0  0
   47.1617   17.1723  -10.7642 C   0  0  0  0  0  0  0  0  0  0  0  0
   49.4601   16.3206  -10.9428 C   0  0  0  0  0  0  0  0  0  0  0  0
   46.5829   15.9546  -11.0838 C   0  0  0  0  0  0  0  0  0  0  0  0
   48.8920   15.0571  -11.1862 C   0  0  0  0  0  0  0  0  0  0  0  0
   47.4880   14.8882  -11.2859 C   0  0  0  0  0  0  0  0  0  0  0  0
   45.6337   18.3399  -10.1555 H   0  0  0  0  0  0  0  0  0  0  0  0
   50.9347   17.8716   -5.1404 N   0  0  0  0  0  0  0  0  0  0  0  0
   50.1106   17.5155   -4.6561 H   0  0  0  0  0  0  0  0  0  0  0  0
   52.1662   17.3546   -4.4269 C   0  0  0  0  0  0  0  0  0  0  0  0
   53.3653   18.2724   -4.3792 C   0  0  0  0  0  0  0  0  0  0  0  0
   53.4949   19.1117   -3.4634 O   0  0  0  0  0  0  0  0  0  0  0  0
   54.2823   18.1106   -5.1889 O   0  0  0  0  0  0  0  0  0  0  0  0
   54.1928   17.4830   -5.8788 H   0  0  0  0  0  0  0  0  0  0  0  0
   52.7472   16.0160   -4.9172 C   0  0  0  0  0  0  0  0  0  0  0  0
   52.8905   15.0927   -3.7005 C   0  0  0  0  0  0  0  0  0  0  0  0
   53.9166   13.9418   -3.7783 C   0  0  0  0  0  0  0  0  0  0  0  0
   54.6579   13.5806   -2.6601 C   0  0  0  0  0  0  0  0  0  0  0  0
   53.9999   13.1954   -4.9275 C   0  0  0  0  0  0  0  0  0  0  0  0
   55.5361   12.4802   -2.6958 C   0  0  0  0  0  0  0  0  0  0  0  0
   54.8808   12.1006   -4.9883 C   0  0  0  0  0  0  0  0  0  0  0  0
   55.6651   11.7396   -3.8744 C   0  0  0  0  0  0  0  0  0  0  0  0
   49.3885   17.1856   -6.9275 C   0  0  0  0  0  0  0  0  0  0  0  0
   49.1817   15.6827   -6.9127 C   0  0  0  0  0  0  0  0  0  0  0  0
   47.8504   15.3189   -7.5662 C   0  0  0  0  0  0  0  0  0  0  0  0
   50.3665   15.0551   -7.6343 C   0  0  0  0  0  0  0  0  0  0  0  0
 24 29  1  0  0  0
 24 25  1  0  0  0
 29 30  1  0  0  0
 30 31  1  0  0  0
 31 32  2  0  0  0
 31 33  1  0  0  0
 32 34  1  0  0  0
 33 35  2  0  0  0
 34 36  2  0  0  0
 35 36  1  0  0  0
 25 26  2  0  0  0
 25 27  1  0  0  0
 22  1  1  0  0  0
  1  2  1  0  0  0
  1 37  1  0  0  0
  2  3  2  0  0  0
 37 38  1  0  0  0
 38 39  1  0  0  0
 38 40  1  0  0  0
  4  6  1  0  0  0
  6  7  1  0  0  0
  6 11  1  0  0  0
  7  8  2  0  0  0
  7  9  1  0  0  0
 11 12  1  0  0  0
 12 13  2  0  0  0
 12 14  1  0  0  0
 13 15  1  0  0  0
 14 16  2  0  0  0
 14 17  1  0  0  0
 15 16  1  0  0  0
 16 18  1  0  0  0
 17 19  2  0  0  0
 18 20  2  0  0  0
 19 20  1  0  0  0
 24 22  1  0  0  0
  2  4  1  0  0  0
 27 28  1  0  0  0
 22 23  1  0  0  0
  4  5  1  0  0  0
 15 21  1  0  0  0
  9 10  1  0  0  0
M  END
> <minimizedAffinity>
-7.68724

$$$$
1TMN_0ZN_E_317


 40 42  0  0  0  0  0  0  0  0999 V2000
   51.1630   15.1343   -6.7861 C   0  0  0  0  0  0  0  0  0  0  0  0
   50.5902   16.5429   -6.9980 C   0  0  0  0  0  0  0  0  0  0  0  0
   49.6510   16.9863   -6.2777 O   0  0  0  0  0  0  0  0  0  0  0  0
   51.2168   17.2141   -7.9573 N   0  0  0  0  0  0  0  0  0  0  0  0
   51.9538   16.7696   -8.4352 H   0  0  0  0  0  0  0  0  0  0  0  0
   50.8629   18.5909   -8.3409 C   0  0  0  0  0  0  0  0  0  0  0  0
   51.0649   19.6414   -7.2544 C   0  0  0  0  0  0  0  0  0  0  0  0
   52.1324   19.5725   -6.5678 O   0  0  0  0  0  0  0  0  0  0  0  0
   50.4046   20.7403   -7.3064 O   0  0  0  0  0  0  0  0  0  0  0  0
   49.6177   20.7906   -7.8126 H   0  0  0  0  0  0  0  0  0  0  0  0
   49.4538   18.6790   -8.9976 C   0  0  0  0  0  0  0  0  0  0  0  0
   49.6117   18.7487  -10.5145 C   0  0  0  0  0  0  0  0  0  0  0  0
   49.2029   17.8799  -11.4370 C   0  0  0  0  0  0  0  0  0  0  0  0
   50.1376   19.8230  -11.2243 C   0  0  0  0  0  0  0  0  0  0  0  0
   49.2372   18.4956  -12.7047 N   0  0  0  0  0  0  0  0  0  0  0  0
   49.7139   19.6682  -12.5587 C   0  0  0  0  0  0  0  0  0  0  0  0
   50.9133   20.9035  -10.8051 C   0  0  0  0  0  0  0  0  0  0  0  0
   49.9402   20.6327  -13.5275 C   0  0  0  0  0  0  0  0  0  0  0  0
   51.2256   21.8536  -11.7941 C   0  0  0  0  0  0  0  0  0  0  0  0
   50.7225   21.7347  -13.1141 C   0  0  0  0  0  0  0  0  0  0  0  0
   48.9445   18.0910  -13.5531 H   0  0  0  0  0  0  0  0  0  0  0  0
   51.4476   14.7400   -5.3842 N   0  0  0  0  0  0  0  0  0  0  0  0
   51.0378   13.8203   -5.2205 H   0  0  0  0  0  0  0  0  0  0  0  0
   52.9227   14.6698   -5.0498 C   0  0  0  0  0  0  0  0  0  0  0  0
   53.5226   13.2929   -4.8866 C   0  0  0  0  0  0  0  0  0  0  0  0
   53.6438   12.7756   -3.7562 O   0  0  0  0  0  0  0  0  0  0  0  0
   53.7877   12.6266   -5.8908 O   0  0  0  0  0  0  0  0  0  0  0  0
   53.6994   13.0073   -6.7424 H   0  0  0  0  0  0  0  0  0  0  0  0
   53.3910   15.4261   -3.7935 C   0  0  0  0  0  0  0  0  0  0  0  0
   52.9358   16.8850   -3.9268 C   0  0  0  0  0  0  0  0  0  0  0  0
   53.3591   17.8819   -2.8267 C   0  0  0  0  0  0  0  0  0  0  0  0
   54.4828   18.6819   -2.9937 C   0  0  0  0  0  0  0  0  0  0  0  0
   52.5445   18.0618   -1.7362 C   0  0  0  0  0  0  0  0  0  0  0  0
   54.8319   19.6525   -2.0349 C   0  0  0  0  0  0  0  0  0  0  0  0
   52.8824   19.0165   -0.7605 C   0  0  0  0  0  0  0  0  0  0  0  0
   54.0363   19.8141   -0.8968 C   0  0  0  0  0  0  0  0  0  0  0  0
   50.1817   14.1381   -7.4067 C   0  0  0  0  0  0  0  0  0  0  0  0
   50.9790   12.9736   -7.9631 C   0  0  0  0  0  0  0  0  0  0  0  0
   50.5366   11.6635   -7.3154 C   0  0  0  0  0  0  0  0  0  0  0  0
   50.7764   12.9656   -9.4722 C   0  0  0  0  0  0  0  0  0  0  0  0
 24 29  1  0  0  0
 24 25  1  0  0  0
 29 30  1  0  0  0
 30 31  1  0  0  0
 31 32  2  0  0  0
 31 33  1  0  0  0
 32 34  1  0  0  0
 33 35  2  0  0  0
 34 36  2  0  0  0
 35 36  1  0  0  0
 25 26  2  0  0  0
 25 27  1  0  0  0
 22  1  1  0  0  0
  1  2  1  0  0  0
  1 37  1  0  0  0
  2  3  2  0  0  0
 37 38  1  0  0  0
 38 39  1  0  0  0
 38 40  1  0  0  0
  4  6  1  0  0  0
  6  7  1  0  0  0
  6 11  1  0  0  0
  7  8  2  0  0  0
  7  9  1  0  0  0
 11 12  1  0  0  0
 12 13  2  0  0  0
 12 14  1  0  0  0
 13 15  1  0  0  0
 14 16  2  0  0  0
 14 17  1  0  0  0
 15 16  1  0  0  0
 16 18  1  0  0  0
 17 19  2  0  0  0
 18 20  2  0  0  0
 19 20  1  0  0  0
 24 22  1  0  0  0
  2  4  1  0  0  0
 27 28  1  0  0  0
 22 23  1  0  0  0
  4  5  1  0  0  0
 15 21  1  0  0  0
  9 10  1  0  0  0
M  END
> <minimizedAffinity>
-7.67562

$$$$
1TMN_0ZN_E_317


 40 42  0  0  0  0  0  0  0  0999 V2000
   52.0539   15.8288   -5.3928 C   0  0  0  0  0  0  0  0  0  0  0  0
   51.0352   15.7804   -6.5405 C   0  0  0  0  0  0  0  0  0  0  0  0
   50.7948   14.7062   -7.1617 O   0  0  0  0  0  0  0  0  0  0  0  0
   50.4371   16.9478   -6.7470 N   0  0  0  0  0  0  0  0  0  0  0  0
   50.6921   17.7114   -6.1804 H   0  0  0  0  0  0  0  0  0  0  0  0
   49.4109   17.1557   -7.7822 C   0  0  0  0  0  0  0  0  0  0  0  0
   48.2113   16.2175   -7.7070 C   0  0  0  0  0  0  0  0  0  0  0  0
   47.9299   15.5460   -8.7490 O   0  0  0  0  0  0  0  0  0  0  0  0
   47.7761   15.8377   -6.5613 O   0  0  0  0  0  0  0  0  0  0  0  0
   47.9838   16.3330   -5.7936 H   0  0  0  0  0  0  0  0  0  0  0  0
   50.0197   17.2278   -9.2135 C   0  0  0  0  0  0  0  0  0  0  0  0
   50.1616   18.6913   -9.6243 C   0  0  0  0  0  0  0  0  0  0  0  0
   50.5761   19.7261   -8.8960 C   0  0  0  0  0  0  0  0  0  0  0  0
   49.9738   19.1929  -10.9078 C   0  0  0  0  0  0  0  0  0  0  0  0
   50.8869   20.8030   -9.7510 N   0  0  0  0  0  0  0  0  0  0  0  0
   50.6047   20.4518  -10.9429 C   0  0  0  0  0  0  0  0  0  0  0  0
   49.3355   18.6435  -12.0194 C   0  0  0  0  0  0  0  0  0  0  0  0
   50.7355   21.1860  -12.1108 C   0  0  0  0  0  0  0  0  0  0  0  0
   49.3844   19.4126  -13.1961 C   0  0  0  0  0  0  0  0  0  0  0  0
   50.0956   20.6380  -13.2455 C   0  0  0  0  0  0  0  0  0  0  0  0
   51.2568   21.6729   -9.4758 H   0  0  0  0  0  0  0  0  0  0  0  0
   51.7654   16.7814   -4.2922 N   0  0  0  0  0  0  0  0  0  0  0  0
   51.9377   16.3080   -3.4053 H   0  0  0  0  0  0  0  0  0  0  0  0
   52.6048   18.0411   -4.3300 C   0  0  0  0  0  0  0  0  0  0  0  0
   52.6257   18.8106   -5.6300 C   0  0  0  0  0  0  0  0  0  0  0  0
   53.4316   18.5157   -6.5375 O   0  0  0  0  0  0  0  0  0  0  0  0
   51.7591   19.6634   -5.8411 O   0  0  0  0  0  0  0  0  0  0  0  0
   51.1508   19.8903   -5.1655 H   0  0  0  0  0  0  0  0  0  0  0  0
   54.0930   17.9002   -3.9623 C   0  0  0  0  0  0  0  0  0  0  0  0
   54.4347   19.0064   -2.9560 C   0  0  0  0  0  0  0  0  0  0  0  0
   54.1846   18.7290   -1.4581 C   0  0  0  0  0  0  0  0  0  0  0  0
   52.9461   18.2753   -1.0216 C   0  0  0  0  0  0  0  0  0  0  0  0
   55.2340   18.8137   -0.5768 C   0  0  0  0  0  0  0  0  0  0  0  0
   52.7304   17.9402    0.3292 C   0  0  0  0  0  0  0  0  0  0  0  0
   55.0363   18.4965    0.7790 C   0  0  0  0  0  0  0  0  0  0  0  0
   53.7782   18.0662    1.2460 C   0  0  0  0  0  0  0  0  0  0  0  0
   52.1764   14.4141   -4.8235 C   0  0  0  0  0  0  0  0  0  0  0  0
   53.6494   14.0569   -4.7581 C   0  0  0  0  0  0  0  0  0  0  0  0
   54.1690   14.1868   -3.3282 C   0  0  0  0  0  0  0  0  0  0  0  0
   53.7965   12.6403   -5.2966 C   0  0  0  0  0  0  0  0  0  0  0  0
 24 29  1  0  0  0
 24 25  1  0  0  0
 29 30  1  0  0  0
 30 31  1  0  0  0
 31 32  2  0  0  0
 31 33  1  0  0  0
 32 34  1  0  0  0
 33 35  2  0  0  0
 34 36  2  0  0  0
 35 36  1  0  0  0
 25 26  2  0  0  0
 25 27  1  0  0  0
 22  1  1  0  0  0
  1  2  1  0  0  0
  1 37  1  0  0  0
  2  3  2  0  0  0
 37 38  1  0  0  0
 38 39  1  0  0  0
 38 40  1  0  0  0
  4  6  1  0  0  0
  6  7  1  0  0  0
  6 11  1  0  0  0
  7  8  2  0  0  0
  7  9  1  0  0  0
 11 12  1  0  0  0
 12 13  2  0  0  0
 12 14  1  0  0  0
 13 15  1  0  0  0
 14 16  2  0  0  0
 14 17  1  0  0  0
 15 16  1  0  0  0
 16 18  1  0  0  0
 17 19  2  0  0  0
 18 20  2  0  0  0
 19 20  1  0  0  0
 24 22  1  0  0  0
  2  4  1  0  0  0
 27 28  1  0  0  0
 22 23  1  0  0  0
  4  5  1  0  0  0
 15 21  1  0  0  0
  9 10  1  0  0  0
M  END
> <minimizedAffinity>
-7.66510

$$$$
