5T9U_7HG_A_300


 50 52  0  0  0  0  0  0  0  0999 V2000
   73.0950   51.5925   66.3344 C   0  0  0  0  0  0  0  0  0  0  0  0
   73.7864   52.0048   64.9846 C   0  0  0  0  0  0  0  0  0  0  0  0
   73.0751   53.1443   64.1859 C   0  0  0  0  0  0  0  0  0  0  0  0
   73.7908   53.3883   62.8123 C   0  0  0  0  0  0  0  0  0  0  0  0
   73.1682   54.5987   62.1558 C   0  0  0  0  0  0  0  0  0  0  0  0
   75.1482   61.7665   64.7403 C   0  0  0  0  0  0  0  0  0  0  0  0
   74.9645   62.0968   66.2290 C   0  0  0  0  0  0  0  0  0  0  0  0
   75.5334   60.9994   67.1238 C   0  0  0  0  0  0  0  0  0  0  0  0
   75.0224   59.7015   66.6744 N   0  0  0  0  0  0  0  0  0  0  0  0
   75.3159   59.2980   65.3581 N   0  0  0  0  0  0  0  0  0  0  0  0
   74.8229   60.3040   64.3786 C   0  0  0  0  0  0  0  0  0  0  0  0
   75.3062   59.9082   62.9854 C   0  0  0  0  0  0  0  0  0  0  0  0
   74.4930   60.4231   62.0151 O   0  0  0  0  0  0  0  0  0  0  0  0
   76.2829   59.2219   62.7376 O   0  0  0  0  0  0  0  0  0  0  0  0
   74.8971   60.1047   60.6645 C   0  0  0  0  0  0  0  0  0  0  0  0
   73.9734   59.0433   60.0492 C   0  0  0  0  0  0  0  0  0  0  0  0
   74.2809   57.7346   60.6902 C   0  0  0  0  0  0  0  0  0  0  0  0
   73.3973   56.8142   61.0922 C   0  0  0  0  0  0  0  0  0  0  0  0
   73.9100   55.6125   61.7064 C   0  0  0  0  0  0  0  0  0  0  0  0
   73.1925   52.6470   67.4490 C   0  0  0  0  0  0  0  0  0  0  0  0
   72.2373   52.9613   68.1384 O   0  0  0  0  0  0  0  0  0  0  0  0
   73.6940   50.3081   66.9232 C   0  0  0  0  0  0  0  0  0  0  0  0
   72.9342   54.4978   64.9274 C   0  0  0  0  0  0  0  0  0  0  0  0
   74.4570   53.2361   67.5872 N   0  0  0  0  0  0  0  0  0  0  0  0
   74.7354   54.2804   68.5785 C   0  0  0  0  0  0  0  0  0  0  0  0
   74.9048   55.4790   67.6483 C   0  0  0  0  0  0  0  0  0  0  0  0
   75.8454   55.6066   66.8505 O   0  0  0  0  0  0  0  0  0  0  0  0
   74.2533   58.9043   67.4823 C   0  0  0  0  0  0  0  0  0  0  0  0
   73.7349   57.5800   66.9150 C   0  0  0  0  0  0  0  0  0  0  0  0
   73.9448   59.2063   68.6433 O   0  0  0  0  0  0  0  0  0  0  0  0
   73.9130   56.4054   67.7127 N   0  0  0  0  0  0  0  0  0  0  0  0
   76.3258   59.1976   65.2557 H   0  0  0  0  0  0  0  0  0  0  0  0
   75.1857   52.9375   66.9964 H   0  0  0  0  0  0  0  0  0  0  0  0
   73.2255   56.2475   68.3995 H   0  0  0  0  0  0  0  0  0  0  0  0
   75.9025   54.0892   69.5667 C   0  0  0  0  0  0  0  0  0  0  0  0
   75.8581   55.1932   70.6356 C   0  0  0  0  0  0  0  0  0  0  0  0
   75.8164   52.7000   70.1954 C   0  0  0  0  0  0  0  0  0  0  0  0
   73.6754   52.2154   61.9907 O   0  0  0  0  0  0  0  0  0  0  0  0
   74.8716   51.8801   61.2928 C   0  0  0  0  0  0  0  0  0  0  0  0
   75.1656   52.3890   65.1650 O   0  0  0  0  0  0  0  0  0  0  0  0
   76.1085   51.3733   64.8093 C   0  0  0  0  0  0  0  0  0  0  0  0
   72.2525   57.6147   66.4919 C   0  0  0  0  0  0  0  0  0  0  0  0
   71.8694   58.6967   65.5343 C   0  0  0  0  0  0  0  0  0  0  0  0
   71.8079   58.4570   64.1468 C   0  0  0  0  0  0  0  0  0  0  0  0
   71.4683   59.5030   63.2747 C   0  0  0  0  0  0  0  0  0  0  0  0
   71.1848   60.7734   63.8024 C   0  0  0  0  0  0  0  0  0  0  0  0
   71.2336   61.0047   65.1751 C   0  0  0  0  0  0  0  0  0  0  0  0
   71.5814   59.9649   66.0441 C   0  0  0  0  0  0  0  0  0  0  0  0
   70.9262   62.2531   65.6588 O   0  0  0  0  0  0  0  0  0  0  0  0
   70.6948   62.9412   65.0664 H   0  0  0  0  0  0  0  0  0  0  0  0
 16 15  1  0  0  0
 16 17  1  0  0  0
 15 13  1  0  0  0
 17 18  2  0  0  0
 39 38  1  0  0  0
 18 19  1  0  0  0
 19  5  2  0  0  0
 13 12  1  0  0  0
 38  4  1  0  0  0
  5  4  1  0  0  0
 14 12  2  0  0  0
 12 11  1  0  0  0
  4  3  1  0  0  0
 45 46  2  0  0  0
 45 44  1  0  0  0
 11  6  1  0  0  0
 11 10  1  0  0  0
 46 47  1  0  0  0
 44 43  2  0  0  0
  3 23  1  0  0  0
  3  2  1  0  0  0
  6  7  1  0  0  0
 41 40  1  0  0  0
 10  9  1  0  0  0
  2 40  1  0  0  0
  2  1  1  0  0  0
 47 49  1  0  0  0
 47 48  2  0  0  0
 43 48  1  0  0  0
 43 42  1  0  0  0
  7  8  1  0  0  0
  9  8  1  0  0  0
  9 28  1  0  0  0
 42 29  1  0  0  0
  1 22  1  0  0  0
  1 20  1  0  0  0
 27 26  2  0  0  0
 29 28  1  0  0  0
 29 31  1  0  0  0
 28 30  2  0  0  0
 26 31  1  0  0  0
 26 25  1  0  0  0
 20 24  1  0  0  0
 20 21  2  0  0  0
 24 25  1  0  0  0
 25 35  1  0  0  0
 35 36  1  0  0  0
 35 37  1  0  0  0
 10 32  1  0  0  0
 24 33  1  0  0  0
 49 50  1  0  0  0
 31 34  1  0  0  0
M  END
> <minimizedAffinity>
-8.68938

$$$$
5T9U_7HG_A_300


 50 52  0  0  0  0  0  0  0  0999 V2000
   73.2798   51.4778   65.9039 C   0  0  0  0  0  0  0  0  0  0  0  0
   74.0684   51.9219   64.6190 C   0  0  0  0  0  0  0  0  0  0  0  0
   73.3817   53.0319   63.7594 C   0  0  0  0  0  0  0  0  0  0  0  0
   74.2036   53.3089   62.4531 C   0  0  0  0  0  0  0  0  0  0  0  0
   73.5898   54.4931   61.7428 C   0  0  0  0  0  0  0  0  0  0  0  0
   75.0305   61.7331   64.4786 C   0  0  0  0  0  0  0  0  0  0  0  0
   74.7038   62.0521   65.9450 C   0  0  0  0  0  0  0  0  0  0  0  0
   75.2384   60.9781   66.8879 C   0  0  0  0  0  0  0  0  0  0  0  0
   74.8242   59.6606   66.3977 N   0  0  0  0  0  0  0  0  0  0  0  0
   75.2483   59.2726   65.1127 N   0  0  0  0  0  0  0  0  0  0  0  0
   74.8004   60.2589   64.0923 C   0  0  0  0  0  0  0  0  0  0  0  0
   75.4198   59.8868   62.7473 C   0  0  0  0  0  0  0  0  0  0  0  0
   74.6733   60.3688   61.7088 O   0  0  0  0  0  0  0  0  0  0  0  0
   76.4427   59.2432   62.5868 O   0  0  0  0  0  0  0  0  0  0  0  0
   75.2069   60.0707   60.3992 C   0  0  0  0  0  0  0  0  0  0  0  0
   74.3863   58.9723   59.7074 C   0  0  0  0  0  0  0  0  0  0  0  0
   74.6919   57.6765   60.3748 C   0  0  0  0  0  0  0  0  0  0  0  0
   73.8165   56.7186   60.6997 C   0  0  0  0  0  0  0  0  0  0  0  0
   74.3242   55.5384   61.3582 C   0  0  0  0  0  0  0  0  0  0  0  0
   73.2349   52.5332   67.0211 C   0  0  0  0  0  0  0  0  0  0  0  0
   72.2107   52.8052   67.6240 O   0  0  0  0  0  0  0  0  0  0  0  0
   73.8792   50.2187   66.5449 C   0  0  0  0  0  0  0  0  0  0  0  0
   73.1193   54.3766   64.4836 C   0  0  0  0  0  0  0  0  0  0  0  0
   74.4563   53.1751   67.2682 N   0  0  0  0  0  0  0  0  0  0  0  0
   74.6026   54.2282   68.2784 C   0  0  0  0  0  0  0  0  0  0  0  0
   74.8014   55.4349   67.3645 C   0  0  0  0  0  0  0  0  0  0  0  0
   75.8018   55.6040   66.6517 O   0  0  0  0  0  0  0  0  0  0  0  0
   74.0220   58.8298   67.1367 C   0  0  0  0  0  0  0  0  0  0  0  0
   73.6118   57.4859   66.5285 C   0  0  0  0  0  0  0  0  0  0  0  0
   73.6008   59.1159   68.2658 O   0  0  0  0  0  0  0  0  0  0  0  0
   73.7694   56.3182   67.3406 N   0  0  0  0  0  0  0  0  0  0  0  0
   76.2666   59.2154   65.0990 H   0  0  0  0  0  0  0  0  0  0  0  0
   75.2458   52.9089   66.7437 H   0  0  0  0  0  0  0  0  0  0  0  0
   73.0319   56.1298   67.9650 H   0  0  0  0  0  0  0  0  0  0  0  0
   75.6860   54.0846   69.3649 C   0  0  0  0  0  0  0  0  0  0  0  0
   75.6189   55.2868   70.3208 C   0  0  0  0  0  0  0  0  0  0  0  0
   75.4890   52.7667   70.1110 C   0  0  0  0  0  0  0  0  0  0  0  0
   74.2102   52.1339   61.6265 O   0  0  0  0  0  0  0  0  0  0  0  0
   75.4900   51.8153   61.0872 C   0  0  0  0  0  0  0  0  0  0  0  0
   75.4089   52.3639   64.9184 O   0  0  0  0  0  0  0  0  0  0  0  0
   76.4158   51.3704   64.7027 C   0  0  0  0  0  0  0  0  0  0  0  0
   72.1719   57.4585   65.9776 C   0  0  0  0  0  0  0  0  0  0  0  0
   71.1131   57.0103   66.9329 C   0  0  0  0  0  0  0  0  0  0  0  0
   70.6946   55.6655   66.9823 C   0  0  0  0  0  0  0  0  0  0  0  0
   69.6804   55.2850   67.8748 C   0  0  0  0  0  0  0  0  0  0  0  0
   69.1042   56.2529   68.7138 C   0  0  0  0  0  0  0  0  0  0  0  0
   69.5284   57.5790   68.6722 C   0  0  0  0  0  0  0  0  0  0  0  0
   70.5326   57.9608   67.7761 C   0  0  0  0  0  0  0  0  0  0  0  0
   68.9603   58.4945   69.5244 O   0  0  0  0  0  0  0  0  0  0  0  0
   68.2885   58.2263   70.1200 H   0  0  0  0  0  0  0  0  0  0  0  0
 16 15  1  0  0  0
 16 17  1  0  0  0
 15 13  1  0  0  0
 17 18  2  0  0  0
 39 38  1  0  0  0
 18 19  1  0  0  0
 19  5  2  0  0  0
 13 12  1  0  0  0
 38  4  1  0  0  0
  5  4  1  0  0  0
 14 12  2  0  0  0
 12 11  1  0  0  0
  4  3  1  0  0  0
 45 46  2  0  0  0
 45 44  1  0  0  0
 11  6  1  0  0  0
 11 10  1  0  0  0
 46 47  1  0  0  0
 44 43  2  0  0  0
  3 23  1  0  0  0
  3  2  1  0  0  0
  6  7  1  0  0  0
 41 40  1  0  0  0
 10  9  1  0  0  0
  2 40  1  0  0  0
  2  1  1  0  0  0
 47 49  1  0  0  0
 47 48  2  0  0  0
 43 48  1  0  0  0
 43 42  1  0  0  0
  7  8  1  0  0  0
  9  8  1  0  0  0
  9 28  1  0  0  0
 42 29  1  0  0  0
  1 22  1  0  0  0
  1 20  1  0  0  0
 27 26  2  0  0  0
 29 28  1  0  0  0
 29 31  1  0  0  0
 28 30  2  0  0  0
 26 31  1  0  0  0
 26 25  1  0  0  0
 20 24  1  0  0  0
 20 21  2  0  0  0
 24 25  1  0  0  0
 25 35  1  0  0  0
 35 36  1  0  0  0
 35 37  1  0  0  0
 10 32  1  0  0  0
 24 33  1  0  0  0
 49 50  1  0  0  0
 31 34  1  0  0  0
M  END
> <minimizedAffinity>
-7.60322

$$$$
5T9U_7HG_A_300


 50 52  0  0  0  0  0  0  0  0999 V2000
   69.6869   62.2003   65.7051 C   0  0  0  0  0  0  0  0  0  0  0  0
   69.2945   62.6110   64.2398 C   0  0  0  0  0  0  0  0  0  0  0  0
   70.4659   63.1494   63.3563 C   0  0  0  0  0  0  0  0  0  0  0  0
   69.9331   63.6291   61.9618 C   0  0  0  0  0  0  0  0  0  0  0  0
   71.1172   63.9866   61.0935 C   0  0  0  0  0  0  0  0  0  0  0  0
   75.2912   58.1914   57.7812 C   0  0  0  0  0  0  0  0  0  0  0  0
   75.8888   57.0986   58.6799 C   0  0  0  0  0  0  0  0  0  0  0  0
   74.8601   56.5566   59.6680 C   0  0  0  0  0  0  0  0  0  0  0  0
   74.2113   57.6804   60.3490 N   0  0  0  0  0  0  0  0  0  0  0  0
   73.5137   58.6148   59.5602 N   0  0  0  0  0  0  0  0  0  0  0  0
   74.4122   59.2094   58.5338 C   0  0  0  0  0  0  0  0  0  0  0  0
   73.5784   60.0868   57.6030 C   0  0  0  0  0  0  0  0  0  0  0  0
   74.3463   61.0510   57.0127 O   0  0  0  0  0  0  0  0  0  0  0  0
   72.3829   59.9705   57.3944 O   0  0  0  0  0  0  0  0  0  0  0  0
   73.6287   61.9130   56.1014 C   0  0  0  0  0  0  0  0  0  0  0  0
   73.4038   63.3012   56.7184 C   0  0  0  0  0  0  0  0  0  0  0  0
   72.3623   63.1747   57.7754 C   0  0  0  0  0  0  0  0  0  0  0  0
   72.3725   63.7538   58.9812 C   0  0  0  0  0  0  0  0  0  0  0  0
   71.2628   63.4866   59.8652 C   0  0  0  0  0  0  0  0  0  0  0  0
   70.5499   60.9315   65.8024 C   0  0  0  0  0  0  0  0  0  0  0  0
   71.5356   60.8634   66.5167 O   0  0  0  0  0  0  0  0  0  0  0  0
   68.4553   61.9339   66.5813 C   0  0  0  0  0  0  0  0  0  0  0  0
   71.6456   62.1693   63.1345 C   0  0  0  0  0  0  0  0  0  0  0  0
   70.1293   59.8744   64.9836 N   0  0  0  0  0  0  0  0  0  0  0  0
   70.8420   58.5941   64.9218 C   0  0  0  0  0  0  0  0  0  0  0  0
   71.4337   58.6970   63.5182 C   0  0  0  0  0  0  0  0  0  0  0  0
   70.7560   58.6789   62.4800 O   0  0  0  0  0  0  0  0  0  0  0  0
   74.2958   57.8540   61.7065 C   0  0  0  0  0  0  0  0  0  0  0  0
   73.6145   59.0770   62.3263 C   0  0  0  0  0  0  0  0  0  0  0  0
   74.9064   57.0795   62.4559 O   0  0  0  0  0  0  0  0  0  0  0  0
   72.7816   58.8600   63.4697 N   0  0  0  0  0  0  0  0  0  0  0  0
   72.7367   58.1462   59.0944 H   0  0  0  0  0  0  0  0  0  0  0  0
   69.3250   59.9960   64.4290 H   0  0  0  0  0  0  0  0  0  0  0  0
   73.2474   58.8240   64.3363 H   0  0  0  0  0  0  0  0  0  0  0  0
   70.0663   57.2870   65.1764 C   0  0  0  0  0  0  0  0  0  0  0  0
   71.0426   56.1887   65.6281 C   0  0  0  0  0  0  0  0  0  0  0  0
   68.9808   57.5332   66.2221 C   0  0  0  0  0  0  0  0  0  0  0  0
   69.0445   64.7437   62.1399 O   0  0  0  0  0  0  0  0  0  0  0  0
   67.9561   64.7662   61.2206 C   0  0  0  0  0  0  0  0  0  0  0  0
   68.6562   61.5375   63.5170 O   0  0  0  0  0  0  0  0  0  0  0  0
   67.2534   61.7253   63.3063 C   0  0  0  0  0  0  0  0  0  0  0  0
   74.5834   60.2208   62.6875 C   0  0  0  0  0  0  0  0  0  0  0  0
   74.7866   60.4713   64.1471 C   0  0  0  0  0  0  0  0  0  0  0  0
   74.7786   61.7790   64.6726 C   0  0  0  0  0  0  0  0  0  0  0  0
   74.9972   61.9787   66.0445 C   0  0  0  0  0  0  0  0  0  0  0  0
   75.2113   60.8667   66.8756 C   0  0  0  0  0  0  0  0  0  0  0  0
   75.2059   59.5743   66.3561 C   0  0  0  0  0  0  0  0  0  0  0  0
   74.9977   59.3753   64.9871 C   0  0  0  0  0  0  0  0  0  0  0  0
   75.3940   58.5082   67.2017 O   0  0  0  0  0  0  0  0  0  0  0  0
   75.5325   58.6547   68.1168 H   0  0  0  0  0  0  0  0  0  0  0  0
 16 15  1  0  0  0
 16 17  1  0  0  0
 15 13  1  0  0  0
 17 18  2  0  0  0
 39 38  1  0  0  0
 18 19  1  0  0  0
 19  5  2  0  0  0
 13 12  1  0  0  0
 38  4  1  0  0  0
  5  4  1  0  0  0
 14 12  2  0  0  0
 12 11  1  0  0  0
  4  3  1  0  0  0
 45 46  2  0  0  0
 45 44  1  0  0  0
 11  6  1  0  0  0
 11 10  1  0  0  0
 46 47  1  0  0  0
 44 43  2  0  0  0
  3 23  1  0  0  0
  3  2  1  0  0  0
  6  7  1  0  0  0
 41 40  1  0  0  0
 10  9  1  0  0  0
  2 40  1  0  0  0
  2  1  1  0  0  0
 47 49  1  0  0  0
 47 48  2  0  0  0
 43 48  1  0  0  0
 43 42  1  0  0  0
  7  8  1  0  0  0
  9  8  1  0  0  0
  9 28  1  0  0  0
 42 29  1  0  0  0
  1 22  1  0  0  0
  1 20  1  0  0  0
 27 26  2  0  0  0
 29 28  1  0  0  0
 29 31  1  0  0  0
 28 30  2  0  0  0
 26 31  1  0  0  0
 26 25  1  0  0  0
 20 24  1  0  0  0
 20 21  2  0  0  0
 24 25  1  0  0  0
 25 35  1  0  0  0
 35 36  1  0  0  0
 35 37  1  0  0  0
 10 32  1  0  0  0
 24 33  1  0  0  0
 49 50  1  0  0  0
 31 34  1  0  0  0
M  END
> <minimizedAffinity>
-6.38923

$$$$
5T9U_7HG_A_300


 50 52  0  0  0  0  0  0  0  0999 V2000
   72.0684   63.9824   57.7705 C   0  0  0  0  0  0  0  0  0  0  0  0
   71.9439   62.4366   57.5155 C   0  0  0  0  0  0  0  0  0  0  0  0
   73.0063   61.5483   58.2399 C   0  0  0  0  0  0  0  0  0  0  0  0
   72.8500   60.0453   57.8217 C   0  0  0  0  0  0  0  0  0  0  0  0
   73.7873   59.2130   58.6658 C   0  0  0  0  0  0  0  0  0  0  0  0
   71.7882   57.6057   66.1088 C   0  0  0  0  0  0  0  0  0  0  0  0
   71.4695   58.7684   67.0603 C   0  0  0  0  0  0  0  0  0  0  0  0
   70.5101   59.7702   66.4243 C   0  0  0  0  0  0  0  0  0  0  0  0
   71.0074   60.1318   65.0941 N   0  0  0  0  0  0  0  0  0  0  0  0
   71.1555   59.1035   64.1441 N   0  0  0  0  0  0  0  0  0  0  0  0
   72.0646   58.0427   64.6569 C   0  0  0  0  0  0  0  0  0  0  0  0
   72.0641   56.8785   63.6689 C   0  0  0  0  0  0  0  0  0  0  0  0
   73.2162   56.1493   63.7634 O   0  0  0  0  0  0  0  0  0  0  0  0
   71.1710   56.6097   62.8838 O   0  0  0  0  0  0  0  0  0  0  0  0
   73.2825   55.0164   62.8685 C   0  0  0  0  0  0  0  0  0  0  0  0
   74.2468   55.2897   61.7050 C   0  0  0  0  0  0  0  0  0  0  0  0
   73.5978   56.2648   60.7853 C   0  0  0  0  0  0  0  0  0  0  0  0
   74.1814   57.3086   60.1856 C   0  0  0  0  0  0  0  0  0  0  0  0
   73.3621   58.1418   59.3378 C   0  0  0  0  0  0  0  0  0  0  0  0
   71.6958   64.4259   59.1948 C   0  0  0  0  0  0  0  0  0  0  0  0
   72.3744   65.2111   59.8346 O   0  0  0  0  0  0  0  0  0  0  0  0
   71.1691   64.7984   56.8321 C   0  0  0  0  0  0  0  0  0  0  0  0
   73.0183   61.6418   59.7868 C   0  0  0  0  0  0  0  0  0  0  0  0
   70.5330   63.8331   59.7061 N   0  0  0  0  0  0  0  0  0  0  0  0
   70.0346   64.1130   61.0566 C   0  0  0  0  0  0  0  0  0  0  0  0
   70.3305   62.7716   61.7228 C   0  0  0  0  0  0  0  0  0  0  0  0
   69.7500   61.7145   61.4347 O   0  0  0  0  0  0  0  0  0  0  0  0
   71.3545   61.4189   64.7734 C   0  0  0  0  0  0  0  0  0  0  0  0
   71.8973   61.6966   63.3690 C   0  0  0  0  0  0  0  0  0  0  0  0
   71.2643   62.3667   65.5657 O   0  0  0  0  0  0  0  0  0  0  0  0
   71.3274   62.7919   62.6456 N   0  0  0  0  0  0  0  0  0  0  0  0
   70.2418   58.6953   63.9470 H   0  0  0  0  0  0  0  0  0  0  0  0
   70.0320   63.2051   59.1370 H   0  0  0  0  0  0  0  0  0  0  0  0
   71.7085   63.6780   62.8428 H   0  0  0  0  0  0  0  0  0  0  0  0
   68.5811   64.5918   61.2391 C   0  0  0  0  0  0  0  0  0  0  0  0
   68.3057   64.8444   62.7304 C   0  0  0  0  0  0  0  0  0  0  0  0
   68.3508   65.8521   60.4078 C   0  0  0  0  0  0  0  0  0  0  0  0
   73.1235   59.9018   56.4187 O   0  0  0  0  0  0  0  0  0  0  0  0
   74.5065   59.9938   56.0884 C   0  0  0  0  0  0  0  0  0  0  0  0
   70.6380   61.9241   57.8536 O   0  0  0  0  0  0  0  0  0  0  0  0
   69.8496   61.5369   56.7241 C   0  0  0  0  0  0  0  0  0  0  0  0
   73.4286   61.8675   63.3093 C   0  0  0  0  0  0  0  0  0  0  0  0
   74.1823   61.4554   64.5327 C   0  0  0  0  0  0  0  0  0  0  0  0
   74.6507   62.4091   65.4587 C   0  0  0  0  0  0  0  0  0  0  0  0
   75.3763   61.9879   66.5839 C   0  0  0  0  0  0  0  0  0  0  0  0
   75.6157   60.6170   66.7740 C   0  0  0  0  0  0  0  0  0  0  0  0
   75.1407   59.6753   65.8642 C   0  0  0  0  0  0  0  0  0  0  0  0
   74.4257   60.0952   64.7373 C   0  0  0  0  0  0  0  0  0  0  0  0
   75.3718   58.3409   66.0941 O   0  0  0  0  0  0  0  0  0  0  0  0
   75.8521   58.0725   66.8526 H   0  0  0  0  0  0  0  0  0  0  0  0
 16 15  1  0  0  0
 16 17  1  0  0  0
 15 13  1  0  0  0
 17 18  2  0  0  0
 39 38  1  0  0  0
 18 19  1  0  0  0
 19  5  2  0  0  0
 13 12  1  0  0  0
 38  4  1  0  0  0
  5  4  1  0  0  0
 14 12  2  0  0  0
 12 11  1  0  0  0
  4  3  1  0  0  0
 45 46  2  0  0  0
 45 44  1  0  0  0
 11  6  1  0  0  0
 11 10  1  0  0  0
 46 47  1  0  0  0
 44 43  2  0  0  0
  3 23  1  0  0  0
  3  2  1  0  0  0
  6  7  1  0  0  0
 41 40  1  0  0  0
 10  9  1  0  0  0
  2 40  1  0  0  0
  2  1  1  0  0  0
 47 49  1  0  0  0
 47 48  2  0  0  0
 43 48  1  0  0  0
 43 42  1  0  0  0
  7  8  1  0  0  0
  9  8  1  0  0  0
  9 28  1  0  0  0
 42 29  1  0  0  0
  1 22  1  0  0  0
  1 20  1  0  0  0
 27 26  2  0  0  0
 29 28  1  0  0  0
 29 31  1  0  0  0
 28 30  2  0  0  0
 26 31  1  0  0  0
 26 25  1  0  0  0
 20 24  1  0  0  0
 20 21  2  0  0  0
 24 25  1  0  0  0
 25 35  1  0  0  0
 35 36  1  0  0  0
 35 37  1  0  0  0
 10 32  1  0  0  0
 24 33  1  0  0  0
 49 50  1  0  0  0
 31 34  1  0  0  0
M  END
> <minimizedAffinity>
-6.21720

$$$$
5T9U_7HG_A_300


 50 52  0  0  0  0  0  0  0  0999 V2000
   74.6026   61.2468   65.1741 C   0  0  0  0  0  0  0  0  0  0  0  0
   74.2011   60.7703   63.7314 C   0  0  0  0  0  0  0  0  0  0  0  0
   74.8476   59.4266   63.2634 C   0  0  0  0  0  0  0  0  0  0  0  0
   74.4625   59.1148   61.7757 C   0  0  0  0  0  0  0  0  0  0  0  0
   74.9754   57.7369   61.4265 C   0  0  0  0  0  0  0  0  0  0  0  0
   71.0306   51.4393   64.0257 C   0  0  0  0  0  0  0  0  0  0  0  0
   70.7686   51.2961   65.5323 C   0  0  0  0  0  0  0  0  0  0  0  0
   70.2248   52.5883   66.1348 C   0  0  0  0  0  0  0  0  0  0  0  0
   71.0790   53.7057   65.7233 N   0  0  0  0  0  0  0  0  0  0  0  0
   71.2086   53.9631   64.3453 N   0  0  0  0  0  0  0  0  0  0  0  0
   71.7196   52.7607   63.6328 C   0  0  0  0  0  0  0  0  0  0  0  0
   71.6869   53.0316   62.1305 C   0  0  0  0  0  0  0  0  0  0  0  0
   72.5969   52.2561   61.4683 O   0  0  0  0  0  0  0  0  0  0  0  0
   70.9592   53.8300   61.5655 O   0  0  0  0  0  0  0  0  0  0  0  0
   72.6132   52.4441   60.0354 C   0  0  0  0  0  0  0  0  0  0  0  0
   73.8529   53.2382   59.5984 C   0  0  0  0  0  0  0  0  0  0  0  0
   73.6621   54.6570   60.0091 C   0  0  0  0  0  0  0  0  0  0  0  0
   74.5826   55.4637   60.5490 C   0  0  0  0  0  0  0  0  0  0  0  0
   74.1826   56.8087   60.8882 C   0  0  0  0  0  0  0  0  0  0  0  0
   74.0231   60.3914   66.3127 C   0  0  0  0  0  0  0  0  0  0  0  0
   74.6945   60.0219   67.2609 O   0  0  0  0  0  0  0  0  0  0  0  0
   74.1436   62.6835   65.4581 C   0  0  0  0  0  0  0  0  0  0  0  0
   74.5276   58.1868   64.1365 C   0  0  0  0  0  0  0  0  0  0  0  0
   72.6731   60.0481   66.1568 N   0  0  0  0  0  0  0  0  0  0  0  0
   71.9548   59.2156   67.1273 C   0  0  0  0  0  0  0  0  0  0  0  0
   71.7875   57.9433   66.3002 C   0  0  0  0  0  0  0  0  0  0  0  0
   71.0690   57.8640   65.2928 O   0  0  0  0  0  0  0  0  0  0  0  0
   71.7655   54.4686   66.6325 C   0  0  0  0  0  0  0  0  0  0  0  0
   72.6613   55.5938   66.1076 C   0  0  0  0  0  0  0  0  0  0  0  0
   71.7090   54.2859   67.8563 O   0  0  0  0  0  0  0  0  0  0  0  0
   72.5274   56.8823   66.7157 N   0  0  0  0  0  0  0  0  0  0  0  0
   70.2967   54.2159   63.9645 H   0  0  0  0  0  0  0  0  0  0  0  0
   72.1887   60.3783   65.3659 H   0  0  0  0  0  0  0  0  0  0  0  0
   73.0396   57.0179   67.5455 H   0  0  0  0  0  0  0  0  0  0  0  0
   70.6406   59.7370   67.7405 C   0  0  0  0  0  0  0  0  0  0  0  0
   69.8774   60.5654   66.6942 C   0  0  0  0  0  0  0  0  0  0  0  0
   69.8057   58.5582   68.2362 C   0  0  0  0  0  0  0  0  0  0  0  0
   75.0095   60.1241   60.9120 O   0  0  0  0  0  0  0  0  0  0  0  0
   74.1611   60.4713   59.8211 C   0  0  0  0  0  0  0  0  0  0  0  0
   72.7725   60.6520   63.5660 O   0  0  0  0  0  0  0  0  0  0  0  0
   72.1862   61.6885   62.7728 C   0  0  0  0  0  0  0  0  0  0  0  0
   74.1649   55.2519   66.1068 C   0  0  0  0  0  0  0  0  0  0  0  0
   74.7934   55.0570   67.4490 C   0  0  0  0  0  0  0  0  0  0  0  0
   75.0555   56.1499   68.2993 C   0  0  0  0  0  0  0  0  0  0  0  0
   75.6694   55.9323   69.5425 C   0  0  0  0  0  0  0  0  0  0  0  0
   76.0043   54.6227   69.9241 C   0  0  0  0  0  0  0  0  0  0  0  0
   75.7325   53.5426   69.0875 C   0  0  0  0  0  0  0  0  0  0  0  0
   75.1295   53.7599   67.8440 C   0  0  0  0  0  0  0  0  0  0  0  0
   76.0511   52.2726   69.5029 O   0  0  0  0  0  0  0  0  0  0  0  0
   76.4548   52.1403   70.3381 H   0  0  0  0  0  0  0  0  0  0  0  0
 16 15  1  0  0  0
 16 17  1  0  0  0
 15 13  1  0  0  0
 17 18  2  0  0  0
 39 38  1  0  0  0
 18 19  1  0  0  0
 19  5  2  0  0  0
 13 12  1  0  0  0
 38  4  1  0  0  0
  5  4  1  0  0  0
 14 12  2  0  0  0
 12 11  1  0  0  0
  4  3  1  0  0  0
 45 46  2  0  0  0
 45 44  1  0  0  0
 11  6  1  0  0  0
 11 10  1  0  0  0
 46 47  1  0  0  0
 44 43  2  0  0  0
  3 23  1  0  0  0
  3  2  1  0  0  0
  6  7  1  0  0  0
 41 40  1  0  0  0
 10  9  1  0  0  0
  2 40  1  0  0  0
  2  1  1  0  0  0
 47 49  1  0  0  0
 47 48  2  0  0  0
 43 48  1  0  0  0
 43 42  1  0  0  0
  7  8  1  0  0  0
  9  8  1  0  0  0
  9 28  1  0  0  0
 42 29  1  0  0  0
  1 22  1  0  0  0
  1 20  1  0  0  0
 27 26  2  0  0  0
 29 28  1  0  0  0
 29 31  1  0  0  0
 28 30  2  0  0  0
 26 31  1  0  0  0
 26 25  1  0  0  0
 20 24  1  0  0  0
 20 21  2  0  0  0
 24 25  1  0  0  0
 25 35  1  0  0  0
 35 36  1  0  0  0
 35 37  1  0  0  0
 10 32  1  0  0  0
 24 33  1  0  0  0
 49 50  1  0  0  0
 31 34  1  0  0  0
M  END
> <minimizedAffinity>
-5.79123

$$$$
5T9U_7HG_A_300


 50 52  0  0  0  0  0  0  0  0999 V2000
   71.9982   62.8671   61.1103 C   0  0  0  0  0  0  0  0  0  0  0  0
   72.0550   61.7521   60.0042 C   0  0  0  0  0  0  0  0  0  0  0  0
   73.3289   60.8471   60.0272 C   0  0  0  0  0  0  0  0  0  0  0  0
   73.3240   59.8523   58.8152 C   0  0  0  0  0  0  0  0  0  0  0  0
   74.4857   58.8987   58.9731 C   0  0  0  0  0  0  0  0  0  0  0  0
   73.8810   52.9912   64.1416 C   0  0  0  0  0  0  0  0  0  0  0  0
   73.5496   53.3157   65.6058 C   0  0  0  0  0  0  0  0  0  0  0  0
   72.3739   54.2822   65.7165 C   0  0  0  0  0  0  0  0  0  0  0  0
   72.6085   55.4257   64.8305 N   0  0  0  0  0  0  0  0  0  0  0  0
   72.7544   55.1731   63.4533 N   0  0  0  0  0  0  0  0  0  0  0  0
   73.8704   54.2192   63.2103 C   0  0  0  0  0  0  0  0  0  0  0  0
   73.8842   53.8496   61.7289 C   0  0  0  0  0  0  0  0  0  0  0  0
   75.1282   53.4467   61.3313 O   0  0  0  0  0  0  0  0  0  0  0  0
   72.9294   53.8993   60.9725 O   0  0  0  0  0  0  0  0  0  0  0  0
   75.2171   53.0628   59.9408 C   0  0  0  0  0  0  0  0  0  0  0  0
   75.9463   54.1358   59.1190 C   0  0  0  0  0  0  0  0  0  0  0  0
   75.0351   55.3046   58.9716 C   0  0  0  0  0  0  0  0  0  0  0  0
   75.3688   56.5961   59.0730 C   0  0  0  0  0  0  0  0  0  0  0  0
   74.3218   57.5763   58.9078 C   0  0  0  0  0  0  0  0  0  0  0  0
   71.7867   62.3384   62.5385 C   0  0  0  0  0  0  0  0  0  0  0  0
   72.4370   62.7400   63.4883 O   0  0  0  0  0  0  0  0  0  0  0  0
   70.8617   63.8688   60.8649 C   0  0  0  0  0  0  0  0  0  0  0  0
   73.5615   60.0472   61.3340 C   0  0  0  0  0  0  0  0  0  0  0  0
   70.8095   61.3400   62.6533 N   0  0  0  0  0  0  0  0  0  0  0  0
   70.4867   60.6970   63.9313 C   0  0  0  0  0  0  0  0  0  0  0  0
   71.0655   59.3080   63.6734 C   0  0  0  0  0  0  0  0  0  0  0  0
   70.6025   58.5097   62.8452 O   0  0  0  0  0  0  0  0  0  0  0  0
   72.7188   56.7055   65.3100 C   0  0  0  0  0  0  0  0  0  0  0  0
   72.9985   57.8332   64.3129 C   0  0  0  0  0  0  0  0  0  0  0  0
   72.6171   56.9949   66.5100 O   0  0  0  0  0  0  0  0  0  0  0  0
   72.1776   59.0028   64.3916 N   0  0  0  0  0  0  0  0  0  0  0  0
   71.8879   54.7740   63.0923 H   0  0  0  0  0  0  0  0  0  0  0  0
   70.3215   61.0598   61.8455 H   0  0  0  0  0  0  0  0  0  0  0  0
   72.4557   59.6756   65.0543 H   0  0  0  0  0  0  0  0  0  0  0  0
   69.0248   60.6818   64.4190 C   0  0  0  0  0  0  0  0  0  0  0  0
   68.9031   59.7723   65.6524 C   0  0  0  0  0  0  0  0  0  0  0  0
   68.5760   62.1080   64.7307 C   0  0  0  0  0  0  0  0  0  0  0  0
   73.3997   60.5884   57.5839 O   0  0  0  0  0  0  0  0  0  0  0  0
   72.6577   60.0048   56.5165 C   0  0  0  0  0  0  0  0  0  0  0  0
   70.9004   60.8870   60.0316 O   0  0  0  0  0  0  0  0  0  0  0  0
   69.9980   61.0787   58.9379 C   0  0  0  0  0  0  0  0  0  0  0  0
   74.4638   58.3134   64.3017 C   0  0  0  0  0  0  0  0  0  0  0  0
   74.7900   59.4443   65.2232 C   0  0  0  0  0  0  0  0  0  0  0  0
   75.1353   59.2137   66.5700 C   0  0  0  0  0  0  0  0  0  0  0  0
   75.4116   60.3013   67.4131 C   0  0  0  0  0  0  0  0  0  0  0  0
   75.3487   61.6056   66.8958 C   0  0  0  0  0  0  0  0  0  0  0  0
   75.0199   61.8303   65.5610 C   0  0  0  0  0  0  0  0  0  0  0  0
   74.7350   60.7473   64.7226 C   0  0  0  0  0  0  0  0  0  0  0  0
   74.9919   63.1175   65.0822 O   0  0  0  0  0  0  0  0  0  0  0  0
   75.1847   63.8344   65.6539 H   0  0  0  0  0  0  0  0  0  0  0  0
 16 15  1  0  0  0
 16 17  1  0  0  0
 15 13  1  0  0  0
 17 18  2  0  0  0
 39 38  1  0  0  0
 18 19  1  0  0  0
 19  5  2  0  0  0
 13 12  1  0  0  0
 38  4  1  0  0  0
  5  4  1  0  0  0
 14 12  2  0  0  0
 12 11  1  0  0  0
  4  3  1  0  0  0
 45 46  2  0  0  0
 45 44  1  0  0  0
 11  6  1  0  0  0
 11 10  1  0  0  0
 46 47  1  0  0  0
 44 43  2  0  0  0
  3 23  1  0  0  0
  3  2  1  0  0  0
  6  7  1  0  0  0
 41 40  1  0  0  0
 10  9  1  0  0  0
  2 40  1  0  0  0
  2  1  1  0  0  0
 47 49  1  0  0  0
 47 48  2  0  0  0
 43 48  1  0  0  0
 43 42  1  0  0  0
  7  8  1  0  0  0
  9  8  1  0  0  0
  9 28  1  0  0  0
 42 29  1  0  0  0
  1 22  1  0  0  0
  1 20  1  0  0  0
 27 26  2  0  0  0
 29 28  1  0  0  0
 29 31  1  0  0  0
 28 30  2  0  0  0
 26 31  1  0  0  0
 26 25  1  0  0  0
 20 24  1  0  0  0
 20 21  2  0  0  0
 24 25  1  0  0  0
 25 35  1  0  0  0
 35 36  1  0  0  0
 35 37  1  0  0  0
 10 32  1  0  0  0
 24 33  1  0  0  0
 49 50  1  0  0  0
 31 34  1  0  0  0
M  END
> <minimizedAffinity>
-5.73035

$$$$
