3GVB_3GV_A_1


 18 19  0  0  0  0  0  0  0  0999 V2000
   10.8009   45.8871   27.6029 O   0  0  0  0  0  0  0  0  0  0  0  0
   11.7431   45.7331   26.8418 C   0  0  0  0  0  0  0  0  0  0  0  0
   11.7658   46.2052   25.4137 C   0  0  0  0  0  0  0  0  0  0  0  0
   12.8909   45.1294   27.1037 N   0  0  0  0  0  0  0  0  0  0  0  0
   13.8122   44.9531   25.9921 C   0  0  0  0  0  0  0  0  0  0  0  0
   12.9545   45.4473   24.8223 C   0  0  0  0  0  0  0  0  0  0  0  0
   13.2162   44.6859   28.3990 C   0  0  0  0  0  0  0  0  0  0  0  0
   13.1082   43.3399   28.7432 C   0  0  0  0  0  0  0  0  0  0  0  0
   12.6867   42.4184   27.8328 O   0  0  0  0  0  0  0  0  0  0  0  0
   13.4381   42.9175   30.0306 C   0  0  0  0  0  0  0  0  0  0  0  0
   13.8711   43.8382   30.9825 C   0  0  0  0  0  0  0  0  0  0  0  0
   13.9795   45.1856   30.6432 C   0  0  0  0  0  0  0  0  0  0  0  0
   13.6544   45.6073   29.3535 C   0  0  0  0  0  0  0  0  0  0  0  0
   12.4616   42.6873   26.9639 H   0  0  0  0  0  0  0  0  0  0  0  0
   12.4689   44.2725   24.0205 C   0  0  0  0  0  0  0  0  0  0  0  0
   11.2378   44.0717   23.9133 O   0  0  0  0  0  0  0  0  0  0  0  0
   13.3183   43.5287   23.4831 O   0  0  0  0  0  0  0  0  0  0  0  0
   10.6305   44.6507   24.3303 H   0  0  0  0  0  0  0  0  0  0  0  0
  2  1  2  0  0  0
  3  2  1  0  0  0
  2  4  1  0  0  0
  6  3  1  0  0  0
  5  4  1  0  0  0
  4  7  1  0  0  0
  6  5  1  0  0  0
 15  6  1  0  0  0
 17 15  2  0  0  0
 15 16  1  0  0  0
  7  8  2  0  0  0
  7 13  1  0  0  0
  9  8  1  0  0  0
  8 10  1  0  0  0
 10 11  2  0  0  0
 12 11  1  0  0  0
 13 12  2  0  0  0
 16 18  1  0  0  0
  9 14  1  0  0  0
M  END
> <minimizedAffinity>
-8.30304

$$$$
3GVB_3GV_A_1


 18 19  0  0  0  0  0  0  0  0999 V2000
   10.8930   45.8141   28.0085 O   0  0  0  0  0  0  0  0  0  0  0  0
   11.7304   45.6394   27.1374 C   0  0  0  0  0  0  0  0  0  0  0  0
   11.6649   46.2487   25.7636 C   0  0  0  0  0  0  0  0  0  0  0  0
   12.8209   44.8944   27.2158 N   0  0  0  0  0  0  0  0  0  0  0  0
   13.6001   44.7353   25.9979 C   0  0  0  0  0  0  0  0  0  0  0  0
   12.6930   45.4334   24.9790 C   0  0  0  0  0  0  0  0  0  0  0  0
   13.2203   44.2901   28.4223 C   0  0  0  0  0  0  0  0  0  0  0  0
   13.9245   45.0103   29.3851 C   0  0  0  0  0  0  0  0  0  0  0  0
   14.2425   46.3194   29.1833 O   0  0  0  0  0  0  0  0  0  0  0  0
   14.3094   44.3963   30.5766 C   0  0  0  0  0  0  0  0  0  0  0  0
   13.9985   43.0583   30.8095 C   0  0  0  0  0  0  0  0  0  0  0  0
   13.2954   42.3336   29.8489 C   0  0  0  0  0  0  0  0  0  0  0  0
   12.9057   42.9496   28.6590 C   0  0  0  0  0  0  0  0  0  0  0  0
   13.9906   46.7454   28.3877 H   0  0  0  0  0  0  0  0  0  0  0  0
   11.9971   44.4038   24.1337 C   0  0  0  0  0  0  0  0  0  0  0  0
   10.7467   44.3435   24.1484 O   0  0  0  0  0  0  0  0  0  0  0  0
   12.6968   43.6353   23.4383 O   0  0  0  0  0  0  0  0  0  0  0  0
   10.2553   44.9364   24.6823 H   0  0  0  0  0  0  0  0  0  0  0  0
  2  1  2  0  0  0
  3  2  1  0  0  0
  2  4  1  0  0  0
  6  3  1  0  0  0
  5  4  1  0  0  0
  4  7  1  0  0  0
  6  5  1  0  0  0
 15  6  1  0  0  0
 17 15  2  0  0  0
 15 16  1  0  0  0
  7  8  2  0  0  0
  7 13  1  0  0  0
  9  8  1  0  0  0
  8 10  1  0  0  0
 10 11  2  0  0  0
 12 11  1  0  0  0
 13 12  2  0  0  0
 16 18  1  0  0  0
  9 14  1  0  0  0
M  END
> <minimizedAffinity>
-7.50478

$$$$
3GVB_3GV_A_1


 18 19  0  0  0  0  0  0  0  0999 V2000
   12.5455   43.0417   26.6645 O   0  0  0  0  0  0  0  0  0  0  0  0
   12.2956   44.0653   26.0477 C   0  0  0  0  0  0  0  0  0  0  0  0
   11.6872   44.0997   24.6724 C   0  0  0  0  0  0  0  0  0  0  0  0
   12.5131   45.3091   26.4428 N   0  0  0  0  0  0  0  0  0  0  0  0
   12.2522   46.3636   25.4757 C   0  0  0  0  0  0  0  0  0  0  0  0
   11.9413   45.5384   24.2224 C   0  0  0  0  0  0  0  0  0  0  0  0
   12.9655   45.6054   27.7420 C   0  0  0  0  0  0  0  0  0  0  0  0
   12.0637   45.8409   28.7779 C   0  0  0  0  0  0  0  0  0  0  0  0
   10.7203   45.7879   28.5592 O   0  0  0  0  0  0  0  0  0  0  0  0
   12.5298   46.1299   30.0601 C   0  0  0  0  0  0  0  0  0  0  0  0
   13.8986   46.1915   30.3125 C   0  0  0  0  0  0  0  0  0  0  0  0
   14.8042   45.9579   29.2793 C   0  0  0  0  0  0  0  0  0  0  0  0
   14.3378   45.6636   27.9976 C   0  0  0  0  0  0  0  0  0  0  0  0
   10.3922   45.5949   27.7030 H   0  0  0  0  0  0  0  0  0  0  0  0
   13.1140   45.5849   23.2835 C   0  0  0  0  0  0  0  0  0  0  0  0
   12.9463   45.2847   22.0796 O   0  0  0  0  0  0  0  0  0  0  0  0
   14.2272   45.9247   23.7405 O   0  0  0  0  0  0  0  0  0  0  0  0
   12.0969   45.0347   21.7730 H   0  0  0  0  0  0  0  0  0  0  0  0
  2  1  2  0  0  0
  3  2  1  0  0  0
  2  4  1  0  0  0
  6  3  1  0  0  0
  5  4  1  0  0  0
  4  7  1  0  0  0
  6  5  1  0  0  0
 15  6  1  0  0  0
 17 15  2  0  0  0
 15 16  1  0  0  0
  7  8  2  0  0  0
  7 13  1  0  0  0
  9  8  1  0  0  0
  8 10  1  0  0  0
 10 11  2  0  0  0
 12 11  1  0  0  0
 13 12  2  0  0  0
 16 18  1  0  0  0
  9 14  1  0  0  0
M  END
> <minimizedAffinity>
-7.34774

$$$$
3GVB_3GV_A_1


 18 19  0  0  0  0  0  0  0  0999 V2000
   11.2101   44.2189   30.2237 O   0  0  0  0  0  0  0  0  0  0  0  0
   12.0358   44.8322   29.5659 C   0  0  0  0  0  0  0  0  0  0  0  0
   11.7368   45.5308   28.2677 C   0  0  0  0  0  0  0  0  0  0  0  0
   13.3197   44.9911   29.8432 N   0  0  0  0  0  0  0  0  0  0  0  0
   14.1349   45.6535   28.8372 C   0  0  0  0  0  0  0  0  0  0  0  0
   13.1285   45.7870   27.6892 C   0  0  0  0  0  0  0  0  0  0  0  0
   13.8749   44.5516   31.0593 C   0  0  0  0  0  0  0  0  0  0  0  0
   13.8265   45.3516   32.1992 C   0  0  0  0  0  0  0  0  0  0  0  0
   13.2379   46.5796   32.1655 O   0  0  0  0  0  0  0  0  0  0  0  0
   14.3788   44.8986   33.3969 C   0  0  0  0  0  0  0  0  0  0  0  0
   14.9880   43.6471   33.4603 C   0  0  0  0  0  0  0  0  0  0  0  0
   15.0399   42.8440   32.3225 C   0  0  0  0  0  0  0  0  0  0  0  0
   14.4825   43.2952   31.1256 C   0  0  0  0  0  0  0  0  0  0  0  0
   12.8625   46.8974   31.3680 H   0  0  0  0  0  0  0  0  0  0  0  0
   13.4388   44.7720   26.6252 C   0  0  0  0  0  0  0  0  0  0  0  0
   14.4409   44.9393   25.8934 O   0  0  0  0  0  0  0  0  0  0  0  0
   12.6791   43.7860   26.5056 O   0  0  0  0  0  0  0  0  0  0  0  0
   14.9877   45.6908   26.0124 H   0  0  0  0  0  0  0  0  0  0  0  0
  2  1  2  0  0  0
  3  2  1  0  0  0
  2  4  1  0  0  0
  6  3  1  0  0  0
  5  4  1  0  0  0
  4  7  1  0  0  0
  6  5  1  0  0  0
 15  6  1  0  0  0
 17 15  2  0  0  0
 15 16  1  0  0  0
  7  8  2  0  0  0
  7 13  1  0  0  0
  9  8  1  0  0  0
  8 10  1  0  0  0
 10 11  2  0  0  0
 12 11  1  0  0  0
 13 12  2  0  0  0
 16 18  1  0  0  0
  9 14  1  0  0  0
M  END
> <minimizedAffinity>
-7.26799

$$$$
3GVB_3GV_A_1


 18 19  0  0  0  0  0  0  0  0999 V2000
   12.3898   42.6340   29.0725 O   0  0  0  0  0  0  0  0  0  0  0  0
   13.2371   43.3421   29.5933 C   0  0  0  0  0  0  0  0  0  0  0  0
   14.0279   42.9599   30.8145 C   0  0  0  0  0  0  0  0  0  0  0  0
   13.6105   44.5527   29.2121 N   0  0  0  0  0  0  0  0  0  0  0  0
   14.5496   45.2550   30.0726 C   0  0  0  0  0  0  0  0  0  0  0  0
   14.6308   44.2917   31.2616 C   0  0  0  0  0  0  0  0  0  0  0  0
   13.1332   45.1354   28.0234 C   0  0  0  0  0  0  0  0  0  0  0  0
   11.8404   45.6499   27.9470 C   0  0  0  0  0  0  0  0  0  0  0  0
   11.0062   45.6036   29.0228 O   0  0  0  0  0  0  0  0  0  0  0  0
   11.3851   46.2268   26.7619 C   0  0  0  0  0  0  0  0  0  0  0  0
   12.2163   46.2869   25.6453 C   0  0  0  0  0  0  0  0  0  0  0  0
   13.5096   45.7726   25.7167 C   0  0  0  0  0  0  0  0  0  0  0  0
   13.9669   45.2001   26.9041 C   0  0  0  0  0  0  0  0  0  0  0  0
   11.2981   45.2190   29.8258 H   0  0  0  0  0  0  0  0  0  0  0  0
   13.8482   44.8492   32.4174 C   0  0  0  0  0  0  0  0  0  0  0  0
   14.1632   44.5222   33.5842 O   0  0  0  0  0  0  0  0  0  0  0  0
   12.9006   45.6274   32.1724 O   0  0  0  0  0  0  0  0  0  0  0  0
   14.8798   43.9362   33.7292 H   0  0  0  0  0  0  0  0  0  0  0  0
  2  1  2  0  0  0
  3  2  1  0  0  0
  2  4  1  0  0  0
  6  3  1  0  0  0
  5  4  1  0  0  0
  4  7  1  0  0  0
  6  5  1  0  0  0
 15  6  1  0  0  0
 17 15  2  0  0  0
 15 16  1  0  0  0
  7  8  2  0  0  0
  7 13  1  0  0  0
  9  8  1  0  0  0
  8 10  1  0  0  0
 10 11  2  0  0  0
 12 11  1  0  0  0
 13 12  2  0  0  0
 16 18  1  0  0  0
  9 14  1  0  0  0
M  END
> <minimizedAffinity>
-7.20515

$$$$
3GVB_3GV_A_1


 18 19  0  0  0  0  0  0  0  0999 V2000
   14.7984   46.1426   26.2210 O   0  0  0  0  0  0  0  0  0  0  0  0
   13.9608   45.3955   25.7404 C   0  0  0  0  0  0  0  0  0  0  0  0
   13.8282   45.1034   24.2707 C   0  0  0  0  0  0  0  0  0  0  0  0
   13.0232   44.7243   26.3891 N   0  0  0  0  0  0  0  0  0  0  0  0
   12.0539   43.9990   25.5830 C   0  0  0  0  0  0  0  0  0  0  0  0
   12.4461   44.4573   24.1743 C   0  0  0  0  0  0  0  0  0  0  0  0
   12.9677   44.7000   27.7950 C   0  0  0  0  0  0  0  0  0  0  0  0
   12.9406   43.4925   28.4899 C   0  0  0  0  0  0  0  0  0  0  0  0
   12.9692   42.3039   27.8250 O   0  0  0  0  0  0  0  0  0  0  0  0
   12.8890   43.4872   29.8834 C   0  0  0  0  0  0  0  0  0  0  0  0
   12.8578   44.6879   30.5896 C   0  0  0  0  0  0  0  0  0  0  0  0
   12.8835   45.8980   29.8989 C   0  0  0  0  0  0  0  0  0  0  0  0
   12.9405   45.9032   28.5048 C   0  0  0  0  0  0  0  0  0  0  0  0
   13.0039   42.2916   26.8887 H   0  0  0  0  0  0  0  0  0  0  0  0
   11.4437   45.4580   23.6715 C   0  0  0  0  0  0  0  0  0  0  0  0
   11.8066   46.6391   23.4696 O   0  0  0  0  0  0  0  0  0  0  0  0
   10.2709   45.0738   23.4702 O   0  0  0  0  0  0  0  0  0  0  0  0
   12.6945   46.8907   23.6318 H   0  0  0  0  0  0  0  0  0  0  0  0
  2  1  2  0  0  0
  3  2  1  0  0  0
  2  4  1  0  0  0
  6  3  1  0  0  0
  5  4  1  0  0  0
  4  7  1  0  0  0
  6  5  1  0  0  0
 15  6  1  0  0  0
 17 15  2  0  0  0
 15 16  1  0  0  0
  7  8  2  0  0  0
  7 13  1  0  0  0
  9  8  1  0  0  0
  8 10  1  0  0  0
 10 11  2  0  0  0
 12 11  1  0  0  0
 13 12  2  0  0  0
 16 18  1  0  0  0
  9 14  1  0  0  0
M  END
> <minimizedAffinity>
-7.18507

$$$$
3GVB_3GV_A_1


 18 19  0  0  0  0  0  0  0  0999 V2000
   12.5415   42.9535   27.9534 O   0  0  0  0  0  0  0  0  0  0  0  0
   13.2496   43.7776   28.5102 C   0  0  0  0  0  0  0  0  0  0  0  0
   13.8432   43.5981   29.8807 C   0  0  0  0  0  0  0  0  0  0  0  0
   13.6161   44.9606   28.0446 N   0  0  0  0  0  0  0  0  0  0  0  0
   14.3577   45.8248   28.9493 C   0  0  0  0  0  0  0  0  0  0  0  0
   14.2895   45.0135   30.2476 C   0  0  0  0  0  0  0  0  0  0  0  0
   13.3148   45.3655   26.7310 C   0  0  0  0  0  0  0  0  0  0  0  0
   12.0160   45.7197   26.3709 C   0  0  0  0  0  0  0  0  0  0  0  0
   11.0049   45.6848   27.2830 O   0  0  0  0  0  0  0  0  0  0  0  0
   11.7361   46.1219   25.0653 C   0  0  0  0  0  0  0  0  0  0  0  0
   12.7506   46.1661   24.1113 C   0  0  0  0  0  0  0  0  0  0  0  0
   14.0507   45.8117   24.4665 C   0  0  0  0  0  0  0  0  0  0  0  0
   14.3317   45.4143   25.7742 C   0  0  0  0  0  0  0  0  0  0  0  0
   11.1777   45.4166   28.1640 H   0  0  0  0  0  0  0  0  0  0  0  0
   13.2948   45.6409   31.1834 C   0  0  0  0  0  0  0  0  0  0  0  0
   12.9190   45.0041   32.1937 O   0  0  0  0  0  0  0  0  0  0  0  0
   12.8723   46.7877   30.9189 O   0  0  0  0  0  0  0  0  0  0  0  0
   13.2576   44.1463   32.3596 H   0  0  0  0  0  0  0  0  0  0  0  0
  2  1  2  0  0  0
  3  2  1  0  0  0
  2  4  1  0  0  0
  6  3  1  0  0  0
  5  4  1  0  0  0
  4  7  1  0  0  0
  6  5  1  0  0  0
 15  6  1  0  0  0
 17 15  2  0  0  0
 15 16  1  0  0  0
  7  8  2  0  0  0
  7 13  1  0  0  0
  9  8  1  0  0  0
  8 10  1  0  0  0
 10 11  2  0  0  0
 12 11  1  0  0  0
 13 12  2  0  0  0
 16 18  1  0  0  0
  9 14  1  0  0  0
M  END
> <minimizedAffinity>
-6.82301

$$$$
3GVB_3GV_A_1


 18 19  0  0  0  0  0  0  0  0999 V2000
   13.0365   46.9633   30.6166 O   0  0  0  0  0  0  0  0  0  0  0  0
   13.2023   45.7544   30.6584 C   0  0  0  0  0  0  0  0  0  0  0  0
   13.3522   44.9622   31.9283 C   0  0  0  0  0  0  0  0  0  0  0  0
   13.2942   44.9250   29.6317 N   0  0  0  0  0  0  0  0  0  0  0  0
   13.6248   43.5404   29.9298 C   0  0  0  0  0  0  0  0  0  0  0  0
   13.9058   43.6257   31.4338 C   0  0  0  0  0  0  0  0  0  0  0  0
   13.0722   45.3545   28.3101 C   0  0  0  0  0  0  0  0  0  0  0  0
   11.7930   45.6915   27.8720 C   0  0  0  0  0  0  0  0  0  0  0  0
   10.7246   45.6157   28.7136 O   0  0  0  0  0  0  0  0  0  0  0  0
   11.5919   46.1184   26.5597 C   0  0  0  0  0  0  0  0  0  0  0  0
   12.6662   46.2046   25.6768 C   0  0  0  0  0  0  0  0  0  0  0  0
   13.9471   45.8674   26.1101 C   0  0  0  0  0  0  0  0  0  0  0  0
   14.1491   45.4453   27.4246 C   0  0  0  0  0  0  0  0  0  0  0  0
   10.8442   45.3305   29.5981 H   0  0  0  0  0  0  0  0  0  0  0  0
   15.3878   43.5613   31.6750 C   0  0  0  0  0  0  0  0  0  0  0  0
   16.1524   44.2674   30.9790 O   0  0  0  0  0  0  0  0  0  0  0  0
   15.8110   42.7979   32.5704 O   0  0  0  0  0  0  0  0  0  0  0  0
   15.7989   44.8280   30.3166 H   0  0  0  0  0  0  0  0  0  0  0  0
  2  1  2  0  0  0
  3  2  1  0  0  0
  2  4  1  0  0  0
  6  3  1  0  0  0
  5  4  1  0  0  0
  4  7  1  0  0  0
  6  5  1  0  0  0
 15  6  1  0  0  0
 17 15  2  0  0  0
 15 16  1  0  0  0
  7  8  2  0  0  0
  7 13  1  0  0  0
  9  8  1  0  0  0
  8 10  1  0  0  0
 10 11  2  0  0  0
 12 11  1  0  0  0
 13 12  2  0  0  0
 16 18  1  0  0  0
  9 14  1  0  0  0
M  END
> <minimizedAffinity>
-6.67214

$$$$
3GVB_3GV_A_1


 18 19  0  0  0  0  0  0  0  0999 V2000
   11.2510   44.3058   29.8001 O   0  0  0  0  0  0  0  0  0  0  0  0
   12.4009   44.7028   29.9032 C   0  0  0  0  0  0  0  0  0  0  0  0
   13.1671   44.7560   31.1966 C   0  0  0  0  0  0  0  0  0  0  0  0
   13.1765   45.1637   28.9355 N   0  0  0  0  0  0  0  0  0  0  0  0
   14.4691   45.7037   29.3267 C   0  0  0  0  0  0  0  0  0  0  0  0
   14.3535   45.6573   30.8540 C   0  0  0  0  0  0  0  0  0  0  0  0
   12.7793   45.1255   27.5860 C   0  0  0  0  0  0  0  0  0  0  0  0
   12.6758   43.9148   26.9040 C   0  0  0  0  0  0  0  0  0  0  0  0
   12.9547   42.7364   27.5277 O   0  0  0  0  0  0  0  0  0  0  0  0
   12.2773   43.8954   25.5677 C   0  0  0  0  0  0  0  0  0  0  0  0
   11.9866   45.0855   24.9042 C   0  0  0  0  0  0  0  0  0  0  0  0
   12.0898   46.2989   25.5819 C   0  0  0  0  0  0  0  0  0  0  0  0
   12.4834   46.3178   26.9204 C   0  0  0  0  0  0  0  0  0  0  0  0
   13.2236   42.7336   28.4253 H   0  0  0  0  0  0  0  0  0  0  0  0
   14.1174   47.0434   31.3848 C   0  0  0  0  0  0  0  0  0  0  0  0
   15.0990   47.7849   31.6178 O   0  0  0  0  0  0  0  0  0  0  0  0
   12.9384   47.4125   31.5777 O   0  0  0  0  0  0  0  0  0  0  0  0
   15.9688   47.4738   31.4609 H   0  0  0  0  0  0  0  0  0  0  0  0
  2  1  2  0  0  0
  3  2  1  0  0  0
  2  4  1  0  0  0
  6  3  1  0  0  0
  5  4  1  0  0  0
  4  7  1  0  0  0
  6  5  1  0  0  0
 15  6  1  0  0  0
 17 15  2  0  0  0
 15 16  1  0  0  0
  7  8  2  0  0  0
  7 13  1  0  0  0
  9  8  1  0  0  0
  8 10  1  0  0  0
 10 11  2  0  0  0
 12 11  1  0  0  0
 13 12  2  0  0  0
 16 18  1  0  0  0
  9 14  1  0  0  0
M  END
> <minimizedAffinity>
-6.54205

$$$$
3GVB_3GV_A_1


 18 19  0  0  0  0  0  0  0  0999 V2000
   12.5992   42.9906   27.9459 O   0  0  0  0  0  0  0  0  0  0  0  0
   13.2764   43.8389   28.5049 C   0  0  0  0  0  0  0  0  0  0  0  0
   13.8633   43.6842   29.8812 C   0  0  0  0  0  0  0  0  0  0  0  0
   13.6097   45.0306   28.0368 N   0  0  0  0  0  0  0  0  0  0  0  0
   14.3161   45.9216   28.9438 C   0  0  0  0  0  0  0  0  0  0  0  0
   14.2620   45.1144   30.2453 C   0  0  0  0  0  0  0  0  0  0  0  0
   13.3074   45.4201   26.7188 C   0  0  0  0  0  0  0  0  0  0  0  0
   14.3121   45.5484   25.7617 C   0  0  0  0  0  0  0  0  0  0  0  0
   15.6132   45.2977   26.0778 O   0  0  0  0  0  0  0  0  0  0  0  0
   13.9939   45.9322   24.4593 C   0  0  0  0  0  0  0  0  0  0  0  0
   12.6717   46.1959   24.1081 C   0  0  0  0  0  0  0  0  0  0  0  0
   11.6637   46.0701   25.0621 C   0  0  0  0  0  0  0  0  0  0  0  0
   11.9815   45.6810   26.3639 C   0  0  0  0  0  0  0  0  0  0  0  0
   15.8422   45.0390   26.9488 H   0  0  0  0  0  0  0  0  0  0  0  0
   13.2400   45.7145   31.1695 C   0  0  0  0  0  0  0  0  0  0  0  0
   12.8902   45.0794   32.1902 O   0  0  0  0  0  0  0  0  0  0  0  0
   12.7695   46.8376   30.8853 O   0  0  0  0  0  0  0  0  0  0  0  0
   13.2648   44.2398   32.3708 H   0  0  0  0  0  0  0  0  0  0  0  0
  2  1  2  0  0  0
  3  2  1  0  0  0
  2  4  1  0  0  0
  6  3  1  0  0  0
  5  4  1  0  0  0
  4  7  1  0  0  0
  6  5  1  0  0  0
 15  6  1  0  0  0
 17 15  2  0  0  0
 15 16  1  0  0  0
  7  8  2  0  0  0
  7 13  1  0  0  0
  9  8  1  0  0  0
  8 10  1  0  0  0
 10 11  2  0  0  0
 12 11  1  0  0  0
 13 12  2  0  0  0
 16 18  1  0  0  0
  9 14  1  0  0  0
M  END
> <minimizedAffinity>
-6.34578

$$$$
