3USX_MYR_B_172


 17 16  0  0  0  0  0  0  0  0999 V2000
  -30.5062  -24.8265  -38.1130 C   0  0  0  0  0  0  0  0  0  0  0  0
  -30.3747  -23.7749  -37.0170 C   0  0  0  0  0  0  0  0  0  0  0  0
  -30.9907  -24.2150  -35.6813 C   0  0  0  0  0  0  0  0  0  0  0  0
  -32.4409  -23.7318  -35.4958 C   0  0  0  0  0  0  0  0  0  0  0  0
  -32.8085  -22.4566  -36.2757 C   0  0  0  0  0  0  0  0  0  0  0  0
  -33.9001  -21.6087  -35.6227 C   0  0  0  0  0  0  0  0  0  0  0  0
  -34.7698  -22.1041  -34.8701 O   0  0  0  0  0  0  0  0  0  0  0  0
  -33.9710  -20.3761  -35.8376 O   0  0  0  0  0  0  0  0  0  0  0  0
  -33.3421  -19.9607  -36.3943 H   0  0  0  0  0  0  0  0  0  0  0  0
  -30.1980  -26.2432  -37.6082 C   0  0  0  0  0  0  0  0  0  0  0  0
  -31.3301  -27.2444  -37.8704 C   0  0  0  0  0  0  0  0  0  0  0  0
  -32.2147  -27.4277  -36.6415 C   0  0  0  0  0  0  0  0  0  0  0  0
  -33.6255  -26.8894  -36.8907 C   0  0  0  0  0  0  0  0  0  0  0  0
  -33.9425  -26.7706  -38.3818 C   0  0  0  0  0  0  0  0  0  0  0  0
  -34.7155  -25.4942  -38.7061 C   0  0  0  0  0  0  0  0  0  0  0  0
  -33.7758  -24.3931  -39.2145 C   0  0  0  0  0  0  0  0  0  0  0  0
  -34.1303  -23.8993  -40.6146 C   0  0  0  0  0  0  0  0  0  0  0  0
  6  7  2  0  0  0
  6  8  1  0  0  0
  6  5  1  0  0  0
  5  4  1  0  0  0
  4  3  1  0  0  0
  3  2  1  0  0  0
  2  1  1  0  0  0
  1 10  1  0  0  0
 10 11  1  0  0  0
 11 12  1  0  0  0
 12 13  1  0  0  0
 13 14  1  0  0  0
 14 15  1  0  0  0
 15 16  1  0  0  0
 16 17  1  0  0  0
  8  9  1  0  0  0
M  END
> <minimizedAffinity>
-3.91596

$$$$
3USX_MYR_B_172


 17 16  0  0  0  0  0  0  0  0999 V2000
  -31.4639  -23.7562  -37.4538 C   0  0  0  0  0  0  0  0  0  0  0  0
  -30.2550  -23.9417  -36.5436 C   0  0  0  0  0  0  0  0  0  0  0  0
  -30.4340  -23.2942  -35.1630 C   0  0  0  0  0  0  0  0  0  0  0  0
  -30.8015  -21.8009  -35.2385 C   0  0  0  0  0  0  0  0  0  0  0  0
  -32.1516  -21.4282  -34.5999 C   0  0  0  0  0  0  0  0  0  0  0  0
  -32.7811  -20.1496  -35.1530 C   0  0  0  0  0  0  0  0  0  0  0  0
  -33.9648  -20.1097  -35.5594 O   0  0  0  0  0  0  0  0  0  0  0  0
  -32.1168  -19.0900  -35.2351 O   0  0  0  0  0  0  0  0  0  0  0  0
  -31.2265  -19.0714  -34.9434 H   0  0  0  0  0  0  0  0  0  0  0  0
  -31.6699  -24.9424  -38.4063 C   0  0  0  0  0  0  0  0  0  0  0  0
  -30.5295  -25.9672  -38.3607 C   0  0  0  0  0  0  0  0  0  0  0  0
  -31.0103  -27.3213  -37.8492 C   0  0  0  0  0  0  0  0  0  0  0  0
  -32.4203  -27.2217  -37.2627 C   0  0  0  0  0  0  0  0  0  0  0  0
  -32.5145  -27.8582  -35.8756 C   0  0  0  0  0  0  0  0  0  0  0  0
  -33.4341  -27.0729  -34.9431 C   0  0  0  0  0  0  0  0  0  0  0  0
  -34.1032  -25.9058  -35.6806 C   0  0  0  0  0  0  0  0  0  0  0  0
  -34.0423  -24.5916  -34.9067 C   0  0  0  0  0  0  0  0  0  0  0  0
  6  7  2  0  0  0
  6  8  1  0  0  0
  6  5  1  0  0  0
  5  4  1  0  0  0
  4  3  1  0  0  0
  3  2  1  0  0  0
  2  1  1  0  0  0
  1 10  1  0  0  0
 10 11  1  0  0  0
 11 12  1  0  0  0
 12 13  1  0  0  0
 13 14  1  0  0  0
 14 15  1  0  0  0
 15 16  1  0  0  0
 16 17  1  0  0  0
  8  9  1  0  0  0
M  END
> <minimizedAffinity>
-3.91455

$$$$
3USX_MYR_B_172


 17 16  0  0  0  0  0  0  0  0999 V2000
  -35.1401  -26.7289  -38.3957 C   0  0  0  0  0  0  0  0  0  0  0  0
  -33.6223  -26.8644  -38.3472 C   0  0  0  0  0  0  0  0  0  0  0  0
  -33.0120  -26.3494  -37.0359 C   0  0  0  0  0  0  0  0  0  0  0  0
  -31.5164  -26.0047  -37.1593 C   0  0  0  0  0  0  0  0  0  0  0  0
  -30.7010  -26.9502  -38.0596 C   0  0  0  0  0  0  0  0  0  0  0  0
  -29.6744  -26.2478  -38.9483 C   0  0  0  0  0  0  0  0  0  0  0  0
  -29.4681  -25.0144  -38.8838 O   0  0  0  0  0  0  0  0  0  0  0  0
  -29.0102  -26.8910  -39.7944 O   0  0  0  0  0  0  0  0  0  0  0  0
  -29.1304  -27.8164  -39.8793 H   0  0  0  0  0  0  0  0  0  0  0  0
  -35.7381  -27.2811  -39.6972 C   0  0  0  0  0  0  0  0  0  0  0  0
  -36.4311  -26.2126  -40.5522 C   0  0  0  0  0  0  0  0  0  0  0  0
  -36.0965  -26.3719  -42.0317 C   0  0  0  0  0  0  0  0  0  0  0  0
  -35.0986  -25.3063  -42.4906 C   0  0  0  0  0  0  0  0  0  0  0  0
  -34.9899  -24.1508  -41.4950 C   0  0  0  0  0  0  0  0  0  0  0  0
  -33.5556  -23.6467  -41.3525 C   0  0  0  0  0  0  0  0  0  0  0  0
  -33.1581  -23.5209  -39.8760 C   0  0  0  0  0  0  0  0  0  0  0  0
  -34.3383  -23.2069  -38.9604 C   0  0  0  0  0  0  0  0  0  0  0  0
  6  7  2  0  0  0
  6  8  1  0  0  0
  6  5  1  0  0  0
  5  4  1  0  0  0
  4  3  1  0  0  0
  3  2  1  0  0  0
  2  1  1  0  0  0
  1 10  1  0  0  0
 10 11  1  0  0  0
 11 12  1  0  0  0
 12 13  1  0  0  0
 13 14  1  0  0  0
 14 15  1  0  0  0
 15 16  1  0  0  0
 16 17  1  0  0  0
  8  9  1  0  0  0
M  END
> <minimizedAffinity>
-3.89567

$$$$
3USX_MYR_B_172


 17 16  0  0  0  0  0  0  0  0999 V2000
  -34.4208  -25.0757  -39.1537 C   0  0  0  0  0  0  0  0  0  0  0  0
  -33.8030  -23.7782  -39.6627 C   0  0  0  0  0  0  0  0  0  0  0  0
  -33.7940  -23.6743  -41.1944 C   0  0  0  0  0  0  0  0  0  0  0  0
  -35.2019  -23.5199  -41.7984 C   0  0  0  0  0  0  0  0  0  0  0  0
  -35.3541  -24.0389  -43.2395 C   0  0  0  0  0  0  0  0  0  0  0  0
  -34.8805  -25.4775  -43.4468 C   0  0  0  0  0  0  0  0  0  0  0  0
  -33.9840  -25.7735  -44.2694 O   0  0  0  0  0  0  0  0  0  0  0  0
  -35.3949  -26.4221  -42.8035 O   0  0  0  0  0  0  0  0  0  0  0  0
  -36.0696  -26.2494  -42.1767 H   0  0  0  0  0  0  0  0  0  0  0  0
  -34.5418  -25.1085  -37.6237 C   0  0  0  0  0  0  0  0  0  0  0  0
  -34.0014  -26.3995  -36.9960 C   0  0  0  0  0  0  0  0  0  0  0  0
  -33.0089  -27.1005  -37.9179 C   0  0  0  0  0  0  0  0  0  0  0  0
  -31.6239  -27.1901  -37.2731 C   0  0  0  0  0  0  0  0  0  0  0  0
  -30.5278  -26.6303  -38.1805 C   0  0  0  0  0  0  0  0  0  0  0  0
  -30.5720  -25.1062  -38.2639 C   0  0  0  0  0  0  0  0  0  0  0  0
  -30.4199  -24.4720  -36.8751 C   0  0  0  0  0  0  0  0  0  0  0  0
  -31.4290  -23.3581  -36.6091 C   0  0  0  0  0  0  0  0  0  0  0  0
  6  7  2  0  0  0
  6  8  1  0  0  0
  6  5  1  0  0  0
  5  4  1  0  0  0
  4  3  1  0  0  0
  3  2  1  0  0  0
  2  1  1  0  0  0
  1 10  1  0  0  0
 10 11  1  0  0  0
 11 12  1  0  0  0
 12 13  1  0  0  0
 13 14  1  0  0  0
 14 15  1  0  0  0
 15 16  1  0  0  0
 16 17  1  0  0  0
  8  9  1  0  0  0
M  END
> <minimizedAffinity>
-3.74352

$$$$
3USX_MYR_B_172


 17 16  0  0  0  0  0  0  0  0999 V2000
  -31.6270  -24.1704  -39.0324 C   0  0  0  0  0  0  0  0  0  0  0  0
  -33.0380  -23.5988  -38.9494 C   0  0  0  0  0  0  0  0  0  0  0  0
  -33.9539  -24.0859  -40.0811 C   0  0  0  0  0  0  0  0  0  0  0  0
  -33.5953  -23.4826  -41.4516 C   0  0  0  0  0  0  0  0  0  0  0  0
  -34.6493  -23.6937  -42.5534 C   0  0  0  0  0  0  0  0  0  0  0  0
  -34.4729  -24.9811  -43.3587 C   0  0  0  0  0  0  0  0  0  0  0  0
  -35.1470  -26.0109  -43.1277 O   0  0  0  0  0  0  0  0  0  0  0  0
  -33.6230  -25.0531  -44.2769 O   0  0  0  0  0  0  0  0  0  0  0  0
  -33.0949  -24.3079  -44.4860 H   0  0  0  0  0  0  0  0  0  0  0  0
  -30.9993  -24.3892  -37.6487 C   0  0  0  0  0  0  0  0  0  0  0  0
  -30.0558  -25.5972  -37.5905 C   0  0  0  0  0  0  0  0  0  0  0  0
  -30.7605  -26.8822  -38.0129 C   0  0  0  0  0  0  0  0  0  0  0  0
  -31.9264  -27.2067  -37.0763 C   0  0  0  0  0  0  0  0  0  0  0  0
  -33.2757  -27.1498  -37.7935 C   0  0  0  0  0  0  0  0  0  0  0  0
  -34.3479  -26.4643  -36.9495 C   0  0  0  0  0  0  0  0  0  0  0  0
  -33.7565  -25.9141  -35.6451 C   0  0  0  0  0  0  0  0  0  0  0  0
  -34.0407  -24.4292  -35.4356 C   0  0  0  0  0  0  0  0  0  0  0  0
  6  7  2  0  0  0
  6  8  1  0  0  0
  6  5  1  0  0  0
  5  4  1  0  0  0
  4  3  1  0  0  0
  3  2  1  0  0  0
  2  1  1  0  0  0
  1 10  1  0  0  0
 10 11  1  0  0  0
 11 12  1  0  0  0
 12 13  1  0  0  0
 13 14  1  0  0  0
 14 15  1  0  0  0
 15 16  1  0  0  0
 16 17  1  0  0  0
  8  9  1  0  0  0
M  END
> <minimizedAffinity>
-3.72656

$$$$
3USX_MYR_B_172


 17 16  0  0  0  0  0  0  0  0999 V2000
  -36.0293  -27.2618  -39.7794 C   0  0  0  0  0  0  0  0  0  0  0  0
  -35.3725  -26.8625  -38.4628 C   0  0  0  0  0  0  0  0  0  0  0  0
  -33.8388  -26.8527  -38.5320 C   0  0  0  0  0  0  0  0  0  0  0  0
  -33.1721  -26.6908  -37.1535 C   0  0  0  0  0  0  0  0  0  0  0  0
  -31.7851  -27.3445  -37.0188 C   0  0  0  0  0  0  0  0  0  0  0  0
  -30.7181  -26.7600  -37.9445 C   0  0  0  0  0  0  0  0  0  0  0  0
  -30.0466  -27.4739  -38.7240 O   0  0  0  0  0  0  0  0  0  0  0  0
  -30.4655  -25.5325  -37.9392 O   0  0  0  0  0  0  0  0  0  0  0  0
  -30.9422  -24.9585  -37.3724 H   0  0  0  0  0  0  0  0  0  0  0  0
  -36.7318  -26.0828  -40.4670 C   0  0  0  0  0  0  0  0  0  0  0  0
  -36.8770  -26.2590  -41.9839 C   0  0  0  0  0  0  0  0  0  0  0  0
  -35.5308  -26.1560  -42.6934 C   0  0  0  0  0  0  0  0  0  0  0  0
  -35.3246  -24.7609  -43.2877 C   0  0  0  0  0  0  0  0  0  0  0  0
  -33.9740  -24.1606  -42.8955 C   0  0  0  0  0  0  0  0  0  0  0  0
  -34.1258  -22.9659  -41.9567 C   0  0  0  0  0  0  0  0  0  0  0  0
  -34.1936  -23.4187  -40.4924 C   0  0  0  0  0  0  0  0  0  0  0  0
  -32.8190  -23.6501  -39.8705 C   0  0  0  0  0  0  0  0  0  0  0  0
  6  7  2  0  0  0
  6  8  1  0  0  0
  6  5  1  0  0  0
  5  4  1  0  0  0
  4  3  1  0  0  0
  3  2  1  0  0  0
  2  1  1  0  0  0
  1 10  1  0  0  0
 10 11  1  0  0  0
 11 12  1  0  0  0
 12 13  1  0  0  0
 13 14  1  0  0  0
 14 15  1  0  0  0
 15 16  1  0  0  0
 16 17  1  0  0  0
  8  9  1  0  0  0
M  END
> <minimizedAffinity>
-3.72083

$$$$
3USX_MYR_B_172


 17 16  0  0  0  0  0  0  0  0999 V2000
  -33.7541  -26.2442  -38.3472 C   0  0  0  0  0  0  0  0  0  0  0  0
  -33.5398  -25.1101  -37.3511 C   0  0  0  0  0  0  0  0  0  0  0  0
  -32.6172  -24.0049  -37.8843 C   0  0  0  0  0  0  0  0  0  0  0  0
  -31.1306  -24.2543  -37.5703 C   0  0  0  0  0  0  0  0  0  0  0  0
  -30.3113  -24.8552  -38.7266 C   0  0  0  0  0  0  0  0  0  0  0  0
  -29.8920  -26.3099  -38.5152 C   0  0  0  0  0  0  0  0  0  0  0  0
  -29.3084  -26.9725  -39.4032 O   0  0  0  0  0  0  0  0  0  0  0  0
  -30.1388  -26.8994  -37.4371 O   0  0  0  0  0  0  0  0  0  0  0  0
  -30.5741  -26.4443  -36.7433 H   0  0  0  0  0  0  0  0  0  0  0  0
  -35.1790  -26.8128  -38.2929 C   0  0  0  0  0  0  0  0  0  0  0  0
  -35.7621  -27.1319  -39.6753 C   0  0  0  0  0  0  0  0  0  0  0  0
  -35.7383  -25.9124  -40.5910 C   0  0  0  0  0  0  0  0  0  0  0  0
  -35.6732  -26.3273  -42.0626 C   0  0  0  0  0  0  0  0  0  0  0  0
  -35.1056  -25.2189  -42.9499 C   0  0  0  0  0  0  0  0  0  0  0  0
  -35.2941  -23.8346  -42.3335 C   0  0  0  0  0  0  0  0  0  0  0  0
  -33.9930  -23.0235  -42.3880 C   0  0  0  0  0  0  0  0  0  0  0  0
  -33.0183  -23.3746  -41.2671 C   0  0  0  0  0  0  0  0  0  0  0  0
  6  7  2  0  0  0
  6  8  1  0  0  0
  6  5  1  0  0  0
  5  4  1  0  0  0
  4  3  1  0  0  0
  3  2  1  0  0  0
  2  1  1  0  0  0
  1 10  1  0  0  0
 10 11  1  0  0  0
 11 12  1  0  0  0
 12 13  1  0  0  0
 13 14  1  0  0  0
 14 15  1  0  0  0
 15 16  1  0  0  0
 16 17  1  0  0  0
  8  9  1  0  0  0
M  END
> <minimizedAffinity>
-3.71593

$$$$
3USX_MYR_B_172


 17 16  0  0  0  0  0  0  0  0999 V2000
  -33.9770  -26.6086  -38.3550 C   0  0  0  0  0  0  0  0  0  0  0  0
  -35.4679  -26.5288  -38.6637 C   0  0  0  0  0  0  0  0  0  0  0  0
  -35.8175  -27.0093  -40.0794 C   0  0  0  0  0  0  0  0  0  0  0  0
  -35.5277  -25.9560  -41.1644 C   0  0  0  0  0  0  0  0  0  0  0  0
  -35.8144  -26.4095  -42.6071 C   0  0  0  0  0  0  0  0  0  0  0  0
  -35.1598  -25.5440  -43.6838 C   0  0  0  0  0  0  0  0  0  0  0  0
  -34.0108  -25.7794  -44.1226 O   0  0  0  0  0  0  0  0  0  0  0  0
  -35.7540  -24.5462  -44.1551 O   0  0  0  0  0  0  0  0  0  0  0  0
  -36.6157  -24.3303  -43.8573 H   0  0  0  0  0  0  0  0  0  0  0  0
  -33.6989  -27.0164  -36.9014 C   0  0  0  0  0  0  0  0  0  0  0  0
  -32.2290  -27.3653  -36.6358 C   0  0  0  0  0  0  0  0  0  0  0  0
  -31.3880  -27.2605  -37.9039 C   0  0  0  0  0  0  0  0  0  0  0  0
  -30.2630  -26.2364  -37.7380 C   0  0  0  0  0  0  0  0  0  0  0  0
  -30.7199  -24.8173  -38.0783 C   0  0  0  0  0  0  0  0  0  0  0  0
  -30.5160  -23.8519  -36.9129 C   0  0  0  0  0  0  0  0  0  0  0  0
  -31.8314  -23.6054  -36.1627 C   0  0  0  0  0  0  0  0  0  0  0  0
  -32.9919  -23.2452  -37.0866 C   0  0  0  0  0  0  0  0  0  0  0  0
  6  7  2  0  0  0
  6  8  1  0  0  0
  6  5  1  0  0  0
  5  4  1  0  0  0
  4  3  1  0  0  0
  3  2  1  0  0  0
  2  1  1  0  0  0
  1 10  1  0  0  0
 10 11  1  0  0  0
 11 12  1  0  0  0
 12 13  1  0  0  0
 13 14  1  0  0  0
 14 15  1  0  0  0
 15 16  1  0  0  0
 16 17  1  0  0  0
  8  9  1  0  0  0
M  END
> <minimizedAffinity>
-3.71406

$$$$
3USX_MYR_B_172


 17 16  0  0  0  0  0  0  0  0999 V2000
  -34.0128  -26.3405  -35.8283 C   0  0  0  0  0  0  0  0  0  0  0  0
  -33.0107  -27.4467  -36.1392 C   0  0  0  0  0  0  0  0  0  0  0  0
  -32.4211  -27.3469  -37.5533 C   0  0  0  0  0  0  0  0  0  0  0  0
  -30.8841  -27.2544  -37.5625 C   0  0  0  0  0  0  0  0  0  0  0  0
  -30.3152  -25.8875  -37.9834 C   0  0  0  0  0  0  0  0  0  0  0  0
  -29.4601  -25.9214  -39.2501 C   0  0  0  0  0  0  0  0  0  0  0  0
  -28.9940  -26.9876  -39.7127 O   0  0  0  0  0  0  0  0  0  0  0  0
  -29.1795  -24.8656  -39.8643 O   0  0  0  0  0  0  0  0  0  0  0  0
  -29.5057  -24.0432  -39.5556 H   0  0  0  0  0  0  0  0  0  0  0  0
  -33.3577  -25.1262  -35.1554 C   0  0  0  0  0  0  0  0  0  0  0  0
  -33.7970  -23.7848  -35.7557 C   0  0  0  0  0  0  0  0  0  0  0  0
  -32.7162  -23.1886  -36.6516 C   0  0  0  0  0  0  0  0  0  0  0  0
  -32.9842  -23.5030  -38.1252 C   0  0  0  0  0  0  0  0  0  0  0  0
  -34.4388  -23.9030  -38.3744 C   0  0  0  0  0  0  0  0  0  0  0  0
  -34.5536  -25.1001  -39.3155 C   0  0  0  0  0  0  0  0  0  0  0  0
  -35.8706  -25.8546  -39.0920 C   0  0  0  0  0  0  0  0  0  0  0  0
  -35.7499  -27.3577  -39.3289 C   0  0  0  0  0  0  0  0  0  0  0  0
  6  7  2  0  0  0
  6  8  1  0  0  0
  6  5  1  0  0  0
  5  4  1  0  0  0
  4  3  1  0  0  0
  3  2  1  0  0  0
  2  1  1  0  0  0
  1 10  1  0  0  0
 10 11  1  0  0  0
 11 12  1  0  0  0
 12 13  1  0  0  0
 13 14  1  0  0  0
 14 15  1  0  0  0
 15 16  1  0  0  0
 16 17  1  0  0  0
  8  9  1  0  0  0
M  END
> <minimizedAffinity>
-3.69731

$$$$
3USX_MYR_B_172


 17 16  0  0  0  0  0  0  0  0999 V2000
  -35.2644  -25.3853  -38.0706 C   0  0  0  0  0  0  0  0  0  0  0  0
  -34.4738  -24.9064  -39.2830 C   0  0  0  0  0  0  0  0  0  0  0  0
  -33.5028  -23.7627  -38.9570 C   0  0  0  0  0  0  0  0  0  0  0  0
  -34.0798  -22.7468  -37.9542 C   0  0  0  0  0  0  0  0  0  0  0  0
  -33.3339  -22.6606  -36.6105 C   0  0  0  0  0  0  0  0  0  0  0  0
  -34.2218  -22.3131  -35.4156 C   0  0  0  0  0  0  0  0  0  0  0  0
  -35.0243  -23.1358  -34.9184 O   0  0  0  0  0  0  0  0  0  0  0  0
  -34.1870  -21.1714  -34.8999 O   0  0  0  0  0  0  0  0  0  0  0  0
  -33.6021  -20.5221  -35.2382 H   0  0  0  0  0  0  0  0  0  0  0  0
  -34.6762  -26.6612  -37.4520 C   0  0  0  0  0  0  0  0  0  0  0  0
  -33.9926  -26.4247  -36.0993 C   0  0  0  0  0  0  0  0  0  0  0  0
  -32.4744  -26.3753  -36.2374 C   0  0  0  0  0  0  0  0  0  0  0  0
  -32.0016  -27.1975  -37.4384 C   0  0  0  0  0  0  0  0  0  0  0  0
  -30.6048  -26.7863  -37.9052 C   0  0  0  0  0  0  0  0  0  0  0  0
  -30.5142  -25.2913  -38.2030 C   0  0  0  0  0  0  0  0  0  0  0  0
  -29.3345  -24.6503  -37.4607 C   0  0  0  0  0  0  0  0  0  0  0  0
  -29.7605  -23.8477  -36.2343 C   0  0  0  0  0  0  0  0  0  0  0  0
  6  7  2  0  0  0
  6  8  1  0  0  0
  6  5  1  0  0  0
  5  4  1  0  0  0
  4  3  1  0  0  0
  3  2  1  0  0  0
  2  1  1  0  0  0
  1 10  1  0  0  0
 10 11  1  0  0  0
 11 12  1  0  0  0
 12 13  1  0  0  0
 13 14  1  0  0  0
 14 15  1  0  0  0
 15 16  1  0  0  0
 16 17  1  0  0  0
  8  9  1  0  0  0
M  END
> <minimizedAffinity>
-3.59800

$$$$
