2XBW_455_A_1245


 40 43  0  0  0  0  0  0  0  0999 V2000
    9.3316   66.5868    2.9051 C   0  0  0  0  0  0  0  0  0  0  0  0
   10.0473   66.8154    4.2250 C   0  0  0  0  0  0  0  0  0  0  0  0
    9.5142   68.8492    3.1209 N   0  0  0  0  0  0  0  0  0  0  0  0
   10.2080   68.3773    4.3279 C   0  0  0  0  0  0  0  0  0  0  0  0
    8.5423   67.8678    2.6749 C   0  0  0  0  0  0  0  0  0  0  0  0
    9.1194   70.5239    3.3393 S   0  0  0  0  0  0  0  0  0  0  0  0
    8.0323   70.5342    4.3019 O   0  0  0  0  0  0  0  0  0  0  0  0
   10.3185   71.1421    3.8722 O   0  0  0  0  0  0  0  0  0  0  0  0
    8.7051   71.0490    1.8900 N   0  0  0  0  0  0  0  0  0  0  0  0
    7.8576   70.5706    1.5845 H   0  0  0  0  0  0  0  0  0  0  0  0
    9.4597   70.8582    1.2308 H   0  0  0  0  0  0  0  0  0  0  0  0
    8.4158   65.4399    2.9479 C   0  0  0  0  0  0  0  0  0  0  0  0
    9.0972   64.2778    3.0059 N   0  0  0  0  0  0  0  0  0  0  0  0
    7.1630   65.5210    3.0296 O   0  0  0  0  0  0  0  0  0  0  0  0
   10.0736   64.2931    2.8811 H   0  0  0  0  0  0  0  0  0  0  0  0
    7.2403   60.5014    3.2726 C   0  0  0  0  0  0  0  0  0  0  0  0
    7.9748   60.8470    2.1642 C   0  0  0  0  0  0  0  0  0  0  0  0
    8.4378   62.9972    3.2475 C   0  0  0  0  0  0  0  0  0  0  0  0
    8.5637   62.1145    2.1966 C   0  0  0  0  0  0  0  0  0  0  0  0
    7.0397   61.3619    4.3501 C   0  0  0  0  0  0  0  0  0  0  0  0
    7.6464   62.6459    4.3284 C   0  0  0  0  0  0  0  0  0  0  0  0
    9.2474   62.5252    1.1126 F   0  0  0  0  0  0  0  0  0  0  0  0
    6.7174   59.1616    3.3549 N   0  0  0  0  0  0  0  0  0  0  0  0
    5.3960   58.9271    2.8513 C   0  0  0  0  0  0  0  0  0  0  0  0
    7.4803   58.1231    3.9613 C   0  0  0  0  0  0  0  0  0  0  0  0
    4.9318   57.5507    2.8138 C   0  0  0  0  0  0  0  0  0  0  0  0
    4.8657   59.9150    2.2663 O   0  0  0  0  0  0  0  0  0  0  0  0
    6.9002   56.9008    4.1018 C   0  0  0  0  0  0  0  0  0  0  0  0
    5.6316   56.5884    3.4917 C   0  0  0  0  0  0  0  0  0  0  0  0
   11.3452   66.0876    4.2500 C   0  0  0  0  0  0  0  0  0  0  0  0
   12.0229   66.1550    5.4792 N   0  0  0  0  0  0  0  0  0  0  0  0
   11.7166   65.3228    3.3590 O   0  0  0  0  0  0  0  0  0  0  0  0
   11.6257   66.7504    6.1552 H   0  0  0  0  0  0  0  0  0  0  0  0
   13.2192   65.4685    5.8770 C   0  0  0  0  0  0  0  0  0  0  0  0
   15.3525   64.0331    6.7953 C   0  0  0  0  0  0  0  0  0  0  0  0
   16.5825   62.9040    7.3480 Cl  0  0  0  0  0  0  0  0  0  0  0  0
   13.4364   65.4003    7.2414 C   0  0  0  0  0  0  0  0  0  0  0  0
   14.0107   64.7985    4.9253 C   0  0  0  0  0  0  0  0  0  0  0  0
   15.1097   64.0533    5.3982 C   0  0  0  0  0  0  0  0  0  0  0  0
   14.5253   64.6649    7.7364 C   0  0  0  0  0  0  0  0  0  0  0  0
  6  3  1  0  0  0
  6  7  2  0  0  0
  6  8  2  0  0  0
  6  9  1  0  0  0
  1  2  1  0  0  0
  1 12  1  0  0  0
  1  5  1  0  0  0
  2 30  1  0  0  0
  2  4  1  0  0  0
  3  4  1  0  0  0
  3  5  1  0  0  0
 12 13  1  0  0  0
 12 14  2  0  0  0
 23 24  1  0  0  0
 23 16  1  0  0  0
 23 25  1  0  0  0
 30 31  1  0  0  0
 30 32  2  0  0  0
 24 26  1  0  0  0
 24 27  2  0  0  0
 16 17  1  0  0  0
 16 20  2  0  0  0
 13 18  1  0  0  0
 17 19  2  0  0  0
 31 34  1  0  0  0
 18 19  1  0  0  0
 18 21  2  0  0  0
 19 22  1  0  0  0
 25 28  2  0  0  0
 26 29  2  0  0  0
 20 21  1  0  0  0
 28 29  1  0  0  0
 34 37  1  0  0  0
 34 38  2  0  0  0
 35 36  1  0  0  0
 35 39  2  0  0  0
 35 40  1  0  0  0
 37 40  2  0  0  0
 38 39  1  0  0  0
 13 15  1  0  0  0
 31 33  1  0  0  0
  9 10  1  0  0  0
  9 11  1  0  0  0
M  END
> <minimizedAffinity>
-12.66156

$$$$
2XBW_455_A_1245


 40 43  0  0  0  0  0  0  0  0999 V2000
    9.2081   66.5460    2.9231 C   0  0  0  0  0  0  0  0  0  0  0  0
    9.8545   66.6557    4.2930 C   0  0  0  0  0  0  0  0  0  0  0  0
    9.5748   68.7721    3.2526 N   0  0  0  0  0  0  0  0  0  0  0  0
   10.1451   68.1913    4.4766 C   0  0  0  0  0  0  0  0  0  0  0  0
    8.5511   67.9016    2.7042 C   0  0  0  0  0  0  0  0  0  0  0  0
    9.3157   70.4656    3.5230 S   0  0  0  0  0  0  0  0  0  0  0  0
    8.2124   70.5343    4.4644 O   0  0  0  0  0  0  0  0  0  0  0  0
   10.5501   70.9628    4.1003 O   0  0  0  0  0  0  0  0  0  0  0  0
    8.9784   71.0724    2.0857 N   0  0  0  0  0  0  0  0  0  0  0  0
    8.1011   70.6772    1.7472 H   0  0  0  0  0  0  0  0  0  0  0  0
    9.7288   70.8415    1.4345 H   0  0  0  0  0  0  0  0  0  0  0  0
    8.1940   65.4862    2.8578 C   0  0  0  0  0  0  0  0  0  0  0  0
    8.6725   64.3964    2.2241 N   0  0  0  0  0  0  0  0  0  0  0  0
    7.0645   65.5349    3.4096 O   0  0  0  0  0  0  0  0  0  0  0  0
    9.5447   64.4550    1.7714 H   0  0  0  0  0  0  0  0  0  0  0  0
    6.8049   60.6233    2.4609 C   0  0  0  0  0  0  0  0  0  0  0  0
    7.5488   61.1066    3.5098 C   0  0  0  0  0  0  0  0  0  0  0  0
    7.9423   63.1320    2.1856 C   0  0  0  0  0  0  0  0  0  0  0  0
    8.1011   62.3779    3.3281 C   0  0  0  0  0  0  0  0  0  0  0  0
    6.6395   61.3164    1.2633 C   0  0  0  0  0  0  0  0  0  0  0  0
    7.2341   62.5984    1.1218 C   0  0  0  0  0  0  0  0  0  0  0  0
    8.8854   62.8751    4.3023 F   0  0  0  0  0  0  0  0  0  0  0  0
    6.1041   59.3772    2.6374 N   0  0  0  0  0  0  0  0  0  0  0  0
    6.8344   58.2700    3.1809 C   0  0  0  0  0  0  0  0  0  0  0  0
    4.7430   59.2495    2.2378 C   0  0  0  0  0  0  0  0  0  0  0  0
    6.0861   57.0614    3.4818 C   0  0  0  0  0  0  0  0  0  0  0  0
    8.0067   58.5437    3.5683 O   0  0  0  0  0  0  0  0  0  0  0  0
    4.1593   58.0248    2.3351 C   0  0  0  0  0  0  0  0  0  0  0  0
    4.8124   56.9234    2.9977 C   0  0  0  0  0  0  0  0  0  0  0  0
   11.0790   65.8128    4.3634 C   0  0  0  0  0  0  0  0  0  0  0  0
   11.9783   66.1820    5.3781 N   0  0  0  0  0  0  0  0  0  0  0  0
   11.2214   64.7616    3.7376 O   0  0  0  0  0  0  0  0  0  0  0  0
   11.7583   67.0087    5.8654 H   0  0  0  0  0  0  0  0  0  0  0  0
   13.1760   65.5104    5.7962 C   0  0  0  0  0  0  0  0  0  0  0  0
   15.3111   64.1015    6.7510 C   0  0  0  0  0  0  0  0  0  0  0  0
   16.5454   62.9879    7.3250 Cl  0  0  0  0  0  0  0  0  0  0  0  0
   13.3714   65.4455    7.1641 C   0  0  0  0  0  0  0  0  0  0  0  0
   13.9914   64.8495    4.8584 C   0  0  0  0  0  0  0  0  0  0  0  0
   15.0914   64.1180    5.3500 C   0  0  0  0  0  0  0  0  0  0  0  0
   14.4608   64.7238    7.6778 C   0  0  0  0  0  0  0  0  0  0  0  0
  6  3  1  0  0  0
  6  7  2  0  0  0
  6  8  2  0  0  0
  6  9  1  0  0  0
  1  2  1  0  0  0
  1 12  1  0  0  0
  1  5  1  0  0  0
  2 30  1  0  0  0
  2  4  1  0  0  0
  3  4  1  0  0  0
  3  5  1  0  0  0
 12 13  1  0  0  0
 12 14  2  0  0  0
 23 24  1  0  0  0
 23 16  1  0  0  0
 23 25  1  0  0  0
 30 31  1  0  0  0
 30 32  2  0  0  0
 24 26  1  0  0  0
 24 27  2  0  0  0
 16 17  1  0  0  0
 16 20  2  0  0  0
 13 18  1  0  0  0
 17 19  2  0  0  0
 31 34  1  0  0  0
 18 19  1  0  0  0
 18 21  2  0  0  0
 19 22  1  0  0  0
 25 28  2  0  0  0
 26 29  2  0  0  0
 20 21  1  0  0  0
 28 29  1  0  0  0
 34 37  1  0  0  0
 34 38  2  0  0  0
 35 36  1  0  0  0
 35 39  2  0  0  0
 35 40  1  0  0  0
 37 40  2  0  0  0
 38 39  1  0  0  0
 13 15  1  0  0  0
 31 33  1  0  0  0
  9 10  1  0  0  0
  9 11  1  0  0  0
M  END
> <minimizedAffinity>
-11.22865

$$$$
2XBW_455_A_1245


 40 43  0  0  0  0  0  0  0  0999 V2000
    9.6620   66.3332    2.7987 C   0  0  0  0  0  0  0  0  0  0  0  0
   10.2503   66.7790    4.1260 C   0  0  0  0  0  0  0  0  0  0  0  0
    9.3663   68.5927    2.8735 N   0  0  0  0  0  0  0  0  0  0  0  0
   10.0822   68.3436    4.1329 C   0  0  0  0  0  0  0  0  0  0  0  0
    8.6392   67.4075    2.4573 C   0  0  0  0  0  0  0  0  0  0  0  0
    8.6265   70.1586    2.9682 S   0  0  0  0  0  0  0  0  0  0  0  0
    7.7494   70.2333    1.8135 O   0  0  0  0  0  0  0  0  0  0  0  0
    7.8821   70.1648    4.2132 O   0  0  0  0  0  0  0  0  0  0  0  0
    9.8379   71.1971    2.9287 N   0  0  0  0  0  0  0  0  0  0  0  0
   10.3103   71.1343    2.0269 H   0  0  0  0  0  0  0  0  0  0  0  0
   10.4982   70.9778    3.6745 H   0  0  0  0  0  0  0  0  0  0  0  0
    8.9997   65.0255    2.8827 C   0  0  0  0  0  0  0  0  0  0  0  0
    7.9169   64.9785    2.0805 N   0  0  0  0  0  0  0  0  0  0  0  0
    9.4349   64.0376    3.5287 O   0  0  0  0  0  0  0  0  0  0  0  0
    7.6083   65.8085    1.6502 H   0  0  0  0  0  0  0  0  0  0  0  0
    5.6030   61.4705    1.7343 C   0  0  0  0  0  0  0  0  0  0  0  0
    5.2728   62.4434    2.6464 C   0  0  0  0  0  0  0  0  0  0  0  0
    7.1857   63.7398    1.8273 C   0  0  0  0  0  0  0  0  0  0  0  0
    6.0973   63.5723    2.6558 C   0  0  0  0  0  0  0  0  0  0  0  0
    6.7133   61.5590    0.8969 C   0  0  0  0  0  0  0  0  0  0  0  0
    7.5294   62.7199    0.9556 C   0  0  0  0  0  0  0  0  0  0  0  0
    5.8519   64.5306    3.5684 F   0  0  0  0  0  0  0  0  0  0  0  0
    4.7177   60.3436    1.5870 N   0  0  0  0  0  0  0  0  0  0  0  0
    4.9197   59.2169    2.4497 C   0  0  0  0  0  0  0  0  0  0  0  0
    3.7086   60.3428    0.5820 C   0  0  0  0  0  0  0  0  0  0  0  0
    3.9401   58.1456    2.3869 C   0  0  0  0  0  0  0  0  0  0  0  0
    5.7939   59.3838    3.3482 O   0  0  0  0  0  0  0  0  0  0  0  0
    2.9658   59.2147    0.4214 C   0  0  0  0  0  0  0  0  0  0  0  0
    3.0452   58.1152    1.3507 C   0  0  0  0  0  0  0  0  0  0  0  0
   11.6670   66.3390    4.2453 C   0  0  0  0  0  0  0  0  0  0  0  0
   12.0464   65.9548    5.5427 N   0  0  0  0  0  0  0  0  0  0  0  0
   12.4005   66.1287    3.2786 O   0  0  0  0  0  0  0  0  0  0  0  0
   11.3771   66.1090    6.2480 H   0  0  0  0  0  0  0  0  0  0  0  0
   13.2831   65.3668    5.9730 C   0  0  0  0  0  0  0  0  0  0  0  0
   15.5012   64.1144    6.9561 C   0  0  0  0  0  0  0  0  0  0  0  0
   16.8008   63.0925    7.5562 Cl  0  0  0  0  0  0  0  0  0  0  0  0
   13.4900   65.3581    7.3407 C   0  0  0  0  0  0  0  0  0  0  0  0
   14.1295   64.7233    5.0507 C   0  0  0  0  0  0  0  0  0  0  0  0
   15.2725   64.0723    5.5571 C   0  0  0  0  0  0  0  0  0  0  0  0
   14.6221   64.7170    7.8689 C   0  0  0  0  0  0  0  0  0  0  0  0
  6  3  1  0  0  0
  6  7  2  0  0  0
  6  8  2  0  0  0
  6  9  1  0  0  0
  1  2  1  0  0  0
  1 12  1  0  0  0
  1  5  1  0  0  0
  2 30  1  0  0  0
  2  4  1  0  0  0
  3  4  1  0  0  0
  3  5  1  0  0  0
 12 13  1  0  0  0
 12 14  2  0  0  0
 23 24  1  0  0  0
 23 16  1  0  0  0
 23 25  1  0  0  0
 30 31  1  0  0  0
 30 32  2  0  0  0
 24 26  1  0  0  0
 24 27  2  0  0  0
 16 17  1  0  0  0
 16 20  2  0  0  0
 13 18  1  0  0  0
 17 19  2  0  0  0
 31 34  1  0  0  0
 18 19  1  0  0  0
 18 21  2  0  0  0
 19 22  1  0  0  0
 25 28  2  0  0  0
 26 29  2  0  0  0
 20 21  1  0  0  0
 28 29  1  0  0  0
 34 37  1  0  0  0
 34 38  2  0  0  0
 35 36  1  0  0  0
 35 39  2  0  0  0
 35 40  1  0  0  0
 37 40  2  0  0  0
 38 39  1  0  0  0
 13 15  1  0  0  0
 31 33  1  0  0  0
  9 10  1  0  0  0
  9 11  1  0  0  0
M  END
> <minimizedAffinity>
-10.10882

$$$$
2XBW_455_A_1245


 40 43  0  0  0  0  0  0  0  0999 V2000
    8.2754   67.1093    2.3168 C   0  0  0  0  0  0  0  0  0  0  0  0
    8.6686   68.1202    3.3797 C   0  0  0  0  0  0  0  0  0  0  0  0
    7.8757   69.1561    1.3953 N   0  0  0  0  0  0  0  0  0  0  0  0
    8.4340   69.5222    2.7049 C   0  0  0  0  0  0  0  0  0  0  0  0
    7.2596   67.8432    1.4527 C   0  0  0  0  0  0  0  0  0  0  0  0
    7.0632   70.5426    0.7427 S   0  0  0  0  0  0  0  0  0  0  0  0
    6.3203   70.0429   -0.4004 O   0  0  0  0  0  0  0  0  0  0  0  0
    6.1829   71.0116    1.7959 O   0  0  0  0  0  0  0  0  0  0  0  0
    8.2255   71.5678    0.3609 N   0  0  0  0  0  0  0  0  0  0  0  0
    8.7994   71.1696   -0.3824 H   0  0  0  0  0  0  0  0  0  0  0  0
    8.8059   71.7446    1.1808 H   0  0  0  0  0  0  0  0  0  0  0  0
    7.6645   65.8999    2.8827 C   0  0  0  0  0  0  0  0  0  0  0  0
    7.5194   64.9449    1.9420 N   0  0  0  0  0  0  0  0  0  0  0  0
    7.4065   65.7260    4.1017 O   0  0  0  0  0  0  0  0  0  0  0  0
    7.6921   65.1754    1.0006 H   0  0  0  0  0  0  0  0  0  0  0  0
    6.6660   60.8703    2.6125 C   0  0  0  0  0  0  0  0  0  0  0  0
    7.8388   61.2527    2.0079 C   0  0  0  0  0  0  0  0  0  0  0  0
    7.1150   63.5804    2.2703 C   0  0  0  0  0  0  0  0  0  0  0  0
    8.0246   62.6303    1.8589 C   0  0  0  0  0  0  0  0  0  0  0  0
    5.6871   61.7770    3.0142 C   0  0  0  0  0  0  0  0  0  0  0  0
    5.9163   63.1661    2.8266 C   0  0  0  0  0  0  0  0  0  0  0  0
    9.1309   63.0570    1.2224 F   0  0  0  0  0  0  0  0  0  0  0  0
    6.4750   59.4740    2.9109 N   0  0  0  0  0  0  0  0  0  0  0  0
    5.5100   58.7502    2.1366 C   0  0  0  0  0  0  0  0  0  0  0  0
    7.1941   58.8563    3.9738 C   0  0  0  0  0  0  0  0  0  0  0  0
    5.4231   57.3159    2.3521 C   0  0  0  0  0  0  0  0  0  0  0  0
    5.0060   59.3972    1.1739 O   0  0  0  0  0  0  0  0  0  0  0  0
    6.9034   57.5625    4.2765 C   0  0  0  0  0  0  0  0  0  0  0  0
    6.0420   56.7628    3.4413 C   0  0  0  0  0  0  0  0  0  0  0  0
   10.0758   67.9041    3.8131 C   0  0  0  0  0  0  0  0  0  0  0  0
   10.4501   66.5532    3.9116 N   0  0  0  0  0  0  0  0  0  0  0  0
   10.9131   68.8041    3.8885 O   0  0  0  0  0  0  0  0  0  0  0  0
    9.7266   65.8979    3.7838 H   0  0  0  0  0  0  0  0  0  0  0  0
   11.7503   66.0047    4.1744 C   0  0  0  0  0  0  0  0  0  0  0  0
   14.1183   64.8326    4.8626 C   0  0  0  0  0  0  0  0  0  0  0  0
   15.5159   63.8592    5.3013 Cl  0  0  0  0  0  0  0  0  0  0  0  0
   12.1599   66.0592    5.4945 C   0  0  0  0  0  0  0  0  0  0  0  0
   12.4633   65.3352    3.1622 C   0  0  0  0  0  0  0  0  0  0  0  0
   13.6837   64.7256    3.5169 C   0  0  0  0  0  0  0  0  0  0  0  0
   13.3725   65.4604    5.8720 C   0  0  0  0  0  0  0  0  0  0  0  0
  6  3  1  0  0  0
  6  7  2  0  0  0
  6  8  2  0  0  0
  6  9  1  0  0  0
  1  2  1  0  0  0
  1 12  1  0  0  0
  1  5  1  0  0  0
  2 30  1  0  0  0
  2  4  1  0  0  0
  3  4  1  0  0  0
  3  5  1  0  0  0
 12 13  1  0  0  0
 12 14  2  0  0  0
 23 24  1  0  0  0
 23 16  1  0  0  0
 23 25  1  0  0  0
 30 31  1  0  0  0
 30 32  2  0  0  0
 24 26  1  0  0  0
 24 27  2  0  0  0
 16 17  1  0  0  0
 16 20  2  0  0  0
 13 18  1  0  0  0
 17 19  2  0  0  0
 31 34  1  0  0  0
 18 19  1  0  0  0
 18 21  2  0  0  0
 19 22  1  0  0  0
 25 28  2  0  0  0
 26 29  2  0  0  0
 20 21  1  0  0  0
 28 29  1  0  0  0
 34 37  1  0  0  0
 34 38  2  0  0  0
 35 36  1  0  0  0
 35 39  2  0  0  0
 35 40  1  0  0  0
 37 40  2  0  0  0
 38 39  1  0  0  0
 13 15  1  0  0  0
 31 33  1  0  0  0
  9 10  1  0  0  0
  9 11  1  0  0  0
M  END
> <minimizedAffinity>
-10.09841

$$$$
