1LI6_5MP_A_400


  7  7  0  0  0  0  0  0  0  0999 V2000
   26.8093    6.3620    4.2908 C   0  0  0  0  0  0  0  0  0  0  0  0
   26.6889    6.7109    5.7210 C   0  0  0  0  0  0  0  0  0  0  0  0
   25.9568    5.3501    4.0802 C   0  0  0  0  0  0  0  0  0  0  0  0
   27.7183    7.0193    3.2871 C   0  0  0  0  0  0  0  0  0  0  0  0
   25.7766    5.8626    6.2218 C   0  0  0  0  0  0  0  0  0  0  0  0
   25.3183    5.0398    5.2412 N   0  0  0  0  0  0  0  0  0  0  0  0
   24.6380    4.3369    5.3526 H   0  0  0  0  0  0  0  0  0  0  0  0
  1  2  1  0  0  0
  1  3  2  0  0  0
  1  4  1  0  0  0
  2  5  2  0  0  0
  3  6  1  0  0  0
  5  6  1  0  0  0
  6  7  1  0  0  0
M  END
> <minimizedAffinity>
-4.46719

$$$$
1LI6_5MP_A_400


  7  7  0  0  0  0  0  0  0  0999 V2000
   26.5182    5.7952    4.0500 C   0  0  0  0  0  0  0  0  0  0  0  0
   27.0920    5.2160    2.8183 C   0  0  0  0  0  0  0  0  0  0  0  0
   27.1282    6.9748    4.2273 C   0  0  0  0  0  0  0  0  0  0  0  0
   25.4637    5.1678    4.9219 C   0  0  0  0  0  0  0  0  0  0  0  0
   27.9953    6.1112    2.3878 C   0  0  0  0  0  0  0  0  0  0  0  0
   28.0229    7.1834    3.2233 N   0  0  0  0  0  0  0  0  0  0  0  0
   28.5947    7.9781    3.1194 H   0  0  0  0  0  0  0  0  0  0  0  0
  1  2  1  0  0  0
  1  3  2  0  0  0
  1  4  1  0  0  0
  2  5  2  0  0  0
  3  6  1  0  0  0
  5  6  1  0  0  0
  6  7  1  0  0  0
M  END
> <minimizedAffinity>
-4.33274

$$$$
1LI6_5MP_A_400


  7  7  0  0  0  0  0  0  0  0999 V2000
   26.7810    5.5822    3.7335 C   0  0  0  0  0  0  0  0  0  0  0  0
   25.9803    4.7851    4.6849 C   0  0  0  0  0  0  0  0  0  0  0  0
   26.9824    6.7704    4.3187 C   0  0  0  0  0  0  0  0  0  0  0  0
   27.2605    5.1341    2.3789 C   0  0  0  0  0  0  0  0  0  0  0  0
   25.7792    5.5859    5.7437 C   0  0  0  0  0  0  0  0  0  0  0  0
   26.3857    6.7858    5.5418 N   0  0  0  0  0  0  0  0  0  0  0  0
   26.3922    7.5399    6.1747 H   0  0  0  0  0  0  0  0  0  0  0  0
  1  2  1  0  0  0
  1  3  2  0  0  0
  1  4  1  0  0  0
  2  5  2  0  0  0
  3  6  1  0  0  0
  5  6  1  0  0  0
  6  7  1  0  0  0
M  END
> <minimizedAffinity>
-4.28102

$$$$
1LI6_5MP_A_400


  7  7  0  0  0  0  0  0  0  0999 V2000
   26.4362    5.6420    4.4504 C   0  0  0  0  0  0  0  0  0  0  0  0
   27.2254    6.8092    4.0070 C   0  0  0  0  0  0  0  0  0  0  0  0
   26.5811    4.7100    3.4989 C   0  0  0  0  0  0  0  0  0  0  0  0
   25.6315    5.5407    5.7184 C   0  0  0  0  0  0  0  0  0  0  0  0
   27.7582    6.4547    2.8267 C   0  0  0  0  0  0  0  0  0  0  0  0
   27.3856    5.1861    2.5099 N   0  0  0  0  0  0  0  0  0  0  0  0
   27.6530    4.6941    1.7002 H   0  0  0  0  0  0  0  0  0  0  0  0
  1  2  1  0  0  0
  1  3  2  0  0  0
  1  4  1  0  0  0
  2  5  2  0  0  0
  3  6  1  0  0  0
  5  6  1  0  0  0
  6  7  1  0  0  0
M  END
> <minimizedAffinity>
-4.17394

$$$$
1LI6_5MP_A_400


  7  7  0  0  0  0  0  0  0  0999 V2000
   26.5301    6.1997    4.3946 C   0  0  0  0  0  0  0  0  0  0  0  0
   27.0535    7.1024    5.4400 C   0  0  0  0  0  0  0  0  0  0  0  0
   27.3183    6.3707    3.3248 C   0  0  0  0  0  0  0  0  0  0  0  0
   25.3435    5.2825    4.5222 C   0  0  0  0  0  0  0  0  0  0  0  0
   28.1022    7.7281    4.8819 C   0  0  0  0  0  0  0  0  0  0  0  0
   28.2807    7.2906    3.6071 N   0  0  0  0  0  0  0  0  0  0  0  0
   28.9880    7.5895    2.9910 H   0  0  0  0  0  0  0  0  0  0  0  0
  1  2  1  0  0  0
  1  3  2  0  0  0
  1  4  1  0  0  0
  2  5  2  0  0  0
  3  6  1  0  0  0
  5  6  1  0  0  0
  6  7  1  0  0  0
M  END
> <minimizedAffinity>
-3.99283

$$$$
1LI6_5MP_A_400


  7  7  0  0  0  0  0  0  0  0999 V2000
   26.5354    6.4332    5.5131 C   0  0  0  0  0  0  0  0  0  0  0  0
   26.7253    6.1956    4.0677 C   0  0  0  0  0  0  0  0  0  0  0  0
   25.6252    5.5392    5.9221 C   0  0  0  0  0  0  0  0  0  0  0  0
   27.2303    7.4794    6.3426 C   0  0  0  0  0  0  0  0  0  0  0  0
   25.8996    5.1828    3.7589 C   0  0  0  0  0  0  0  0  0  0  0  0
   25.2343    4.7693    4.8701 N   0  0  0  0  0  0  0  0  0  0  0  0
   24.5792    4.0353    4.9076 H   0  0  0  0  0  0  0  0  0  0  0  0
  1  2  1  0  0  0
  1  3  2  0  0  0
  1  4  1  0  0  0
  2  5  2  0  0  0
  3  6  1  0  0  0
  5  6  1  0  0  0
  6  7  1  0  0  0
M  END
> <minimizedAffinity>
-3.65894

$$$$
1LI6_5MP_A_400


  7  7  0  0  0  0  0  0  0  0999 V2000
   26.0969    5.9596    5.0182 C   0  0  0  0  0  0  0  0  0  0  0  0
   26.8602    6.9693    4.2568 C   0  0  0  0  0  0  0  0  0  0  0  0
   26.6164    5.9519    6.2531 C   0  0  0  0  0  0  0  0  0  0  0  0
   24.9681    5.1139    4.4928 C   0  0  0  0  0  0  0  0  0  0  0  0
   27.7664    7.4589    5.1181 C   0  0  0  0  0  0  0  0  0  0  0  0
   27.6264    6.8608    6.3310 N   0  0  0  0  0  0  0  0  0  0  0  0
   28.1656    7.0530    7.1319 H   0  0  0  0  0  0  0  0  0  0  0  0
  1  2  1  0  0  0
  1  3  2  0  0  0
  1  4  1  0  0  0
  2  5  2  0  0  0
  3  6  1  0  0  0
  5  6  1  0  0  0
  6  7  1  0  0  0
M  END
> <minimizedAffinity>
-3.21265

$$$$
