3PCG_4HP_M_550


 13 13  0  0  0  0  0  0  0  0999 V2000
   14.2112   12.3345   40.9592 C   0  0  0  0  0  0  0  0  0  0  0  0
   15.3071   12.9301   40.2827 C   0  0  0  0  0  0  0  0  0  0  0  0
   15.8395   14.1403   40.7288 C   0  0  0  0  0  0  0  0  0  0  0  0
   15.2013   14.7980   41.7950 C   0  0  0  0  0  0  0  0  0  0  0  0
   14.0948   14.2303   42.4457 C   0  0  0  0  0  0  0  0  0  0  0  0
   13.6007   13.0036   42.0249 C   0  0  0  0  0  0  0  0  0  0  0  0
   15.5985   16.0068   42.2784 O   0  0  0  0  0  0  0  0  0  0  0  0
   16.3308   16.4474   41.8941 H   0  0  0  0  0  0  0  0  0  0  0  0
   13.6130   11.0223   40.4412 C   0  0  0  0  0  0  0  0  0  0  0  0
   14.6158    9.8449   40.6156 C   0  0  0  0  0  0  0  0  0  0  0  0
   15.2998    9.4341   39.6517 O   0  0  0  0  0  0  0  0  0  0  0  0
   14.5917    9.2195   41.7001 O   0  0  0  0  0  0  0  0  0  0  0  0
   14.0750    9.5387   42.4136 H   0  0  0  0  0  0  0  0  0  0  0  0
 10 11  2  0  0  0
 10 12  1  0  0  0
 10  9  1  0  0  0
  9  1  1  0  0  0
  1  2  1  0  0  0
  1  6  2  0  0  0
  2  3  2  0  0  0
  3  4  1  0  0  0
  4  5  2  0  0  0
  4  7  1  0  0  0
  5  6  1  0  0  0
 12 13  1  0  0  0
  7  8  1  0  0  0
M  END
> <minimizedAffinity>
-7.05744

$$$$
3PCG_4HP_M_550


 13 13  0  0  0  0  0  0  0  0999 V2000
   14.6787   14.2502   41.8685 C   0  0  0  0  0  0  0  0  0  0  0  0
   15.4969   13.8112   40.7955 C   0  0  0  0  0  0  0  0  0  0  0  0
   15.1976   12.6294   40.1166 C   0  0  0  0  0  0  0  0  0  0  0  0
   14.1328   11.8407   40.5865 C   0  0  0  0  0  0  0  0  0  0  0  0
   13.3415   12.2528   41.6699 C   0  0  0  0  0  0  0  0  0  0  0  0
   13.6178   13.4528   42.3098 C   0  0  0  0  0  0  0  0  0  0  0  0
   13.7841   10.6447   40.0380 O   0  0  0  0  0  0  0  0  0  0  0  0
   14.2669   10.3043   39.3107 H   0  0  0  0  0  0  0  0  0  0  0  0
   15.0353   15.5320   42.6287 C   0  0  0  0  0  0  0  0  0  0  0  0
   15.0852   16.7550   41.6675 C   0  0  0  0  0  0  0  0  0  0  0  0
   16.1721   17.1617   41.1995 O   0  0  0  0  0  0  0  0  0  0  0  0
   14.0318   17.4144   41.5141 O   0  0  0  0  0  0  0  0  0  0  0  0
   13.2249   17.0978   41.8699 H   0  0  0  0  0  0  0  0  0  0  0  0
 10 11  2  0  0  0
 10 12  1  0  0  0
 10  9  1  0  0  0
  9  1  1  0  0  0
  1  2  1  0  0  0
  1  6  2  0  0  0
  2  3  2  0  0  0
  3  4  1  0  0  0
  4  5  2  0  0  0
  4  7  1  0  0  0
  5  6  1  0  0  0
 12 13  1  0  0  0
  7  8  1  0  0  0
M  END
> <minimizedAffinity>
-6.83472

$$$$
3PCG_4HP_M_550


 13 13  0  0  0  0  0  0  0  0999 V2000
   14.7068   14.2771   41.9576 C   0  0  0  0  0  0  0  0  0  0  0  0
   13.5883   13.5182   42.3897 C   0  0  0  0  0  0  0  0  0  0  0  0
   13.2814   12.3018   41.7787 C   0  0  0  0  0  0  0  0  0  0  0  0
   14.0429   11.9022   40.6664 C   0  0  0  0  0  0  0  0  0  0  0  0
   15.1290   12.6666   40.2125 C   0  0  0  0  0  0  0  0  0  0  0  0
   15.4559   13.8521   40.8556 C   0  0  0  0  0  0  0  0  0  0  0  0
   13.8013   10.7644   39.9595 O   0  0  0  0  0  0  0  0  0  0  0  0
   13.0921   10.2029   40.2037 H   0  0  0  0  0  0  0  0  0  0  0  0
   15.0155   15.6272   42.6131 C   0  0  0  0  0  0  0  0  0  0  0  0
   15.1734   16.7446   41.5414 C   0  0  0  0  0  0  0  0  0  0  0  0
   16.3015   17.0579   41.0997 O   0  0  0  0  0  0  0  0  0  0  0  0
   14.1613   17.4274   41.2631 O   0  0  0  0  0  0  0  0  0  0  0  0
   13.3227   17.1811   41.6007 H   0  0  0  0  0  0  0  0  0  0  0  0
 10 11  2  0  0  0
 10 12  1  0  0  0
 10  9  1  0  0  0
  9  1  1  0  0  0
  1  2  1  0  0  0
  1  6  2  0  0  0
  2  3  2  0  0  0
  3  4  1  0  0  0
  4  5  2  0  0  0
  4  7  1  0  0  0
  5  6  1  0  0  0
 12 13  1  0  0  0
  7  8  1  0  0  0
M  END
> <minimizedAffinity>
-6.71139

$$$$
3PCG_4HP_M_550


 13 13  0  0  0  0  0  0  0  0999 V2000
   14.2974   14.1752   42.1461 C   0  0  0  0  0  0  0  0  0  0  0  0
   15.2054   13.9405   41.0813 C   0  0  0  0  0  0  0  0  0  0  0  0
   15.0825   12.8003   40.2864 C   0  0  0  0  0  0  0  0  0  0  0  0
   14.1065   11.8485   40.6302 C   0  0  0  0  0  0  0  0  0  0  0  0
   13.2280   12.0589   41.7044 C   0  0  0  0  0  0  0  0  0  0  0  0
   13.3274   13.2181   42.4610 C   0  0  0  0  0  0  0  0  0  0  0  0
   13.9312   10.6761   39.9613 O   0  0  0  0  0  0  0  0  0  0  0  0
   14.4809   10.4661   39.2321 H   0  0  0  0  0  0  0  0  0  0  0  0
   14.4614   15.4135   43.0336 C   0  0  0  0  0  0  0  0  0  0  0  0
   13.2256   16.3521   42.9156 C   0  0  0  0  0  0  0  0  0  0  0  0
   12.2815   16.2788   43.7336 O   0  0  0  0  0  0  0  0  0  0  0  0
   13.1320   17.0599   41.8870 O   0  0  0  0  0  0  0  0  0  0  0  0
   13.8469   17.1054   41.2830 H   0  0  0  0  0  0  0  0  0  0  0  0
 10 11  2  0  0  0
 10 12  1  0  0  0
 10  9  1  0  0  0
  9  1  1  0  0  0
  1  2  1  0  0  0
  1  6  2  0  0  0
  2  3  2  0  0  0
  3  4  1  0  0  0
  4  5  2  0  0  0
  4  7  1  0  0  0
  5  6  1  0  0  0
 12 13  1  0  0  0
  7  8  1  0  0  0
M  END
> <minimizedAffinity>
-6.38577

$$$$
3PCG_4HP_M_550


 13 13  0  0  0  0  0  0  0  0999 V2000
   13.4775   12.7023   41.7618 C   0  0  0  0  0  0  0  0  0  0  0  0
   14.0883   13.9659   41.9712 C   0  0  0  0  0  0  0  0  0  0  0  0
   14.0103   14.5906   43.2165 C   0  0  0  0  0  0  0  0  0  0  0  0
   13.2307   13.9869   44.2187 C   0  0  0  0  0  0  0  0  0  0  0  0
   12.5950   12.7539   44.0059 C   0  0  0  0  0  0  0  0  0  0  0  0
   12.7166   12.1170   42.7789 C   0  0  0  0  0  0  0  0  0  0  0  0
   13.0387   14.5310   45.4516 O   0  0  0  0  0  0  0  0  0  0  0  0
   13.4323   15.3536   45.6671 H   0  0  0  0  0  0  0  0  0  0  0  0
   13.5408   12.0404   40.3813 C   0  0  0  0  0  0  0  0  0  0  0  0
   14.3911   10.7377   40.4257 C   0  0  0  0  0  0  0  0  0  0  0  0
   15.6024   10.7488   40.1120 O   0  0  0  0  0  0  0  0  0  0  0  0
   13.7873    9.6584   40.6216 O   0  0  0  0  0  0  0  0  0  0  0  0
   12.8801    9.6649   40.8560 H   0  0  0  0  0  0  0  0  0  0  0  0
 10 11  2  0  0  0
 10 12  1  0  0  0
 10  9  1  0  0  0
  9  1  1  0  0  0
  1  2  1  0  0  0
  1  6  2  0  0  0
  2  3  2  0  0  0
  3  4  1  0  0  0
  4  5  2  0  0  0
  4  7  1  0  0  0
  5  6  1  0  0  0
 12 13  1  0  0  0
  7  8  1  0  0  0
M  END
> <minimizedAffinity>
-6.35372

$$$$
3PCG_4HP_M_550


 13 13  0  0  0  0  0  0  0  0999 V2000
   14.1018   13.8232   42.1054 C   0  0  0  0  0  0  0  0  0  0  0  0
   15.2010   13.7468   41.2113 C   0  0  0  0  0  0  0  0  0  0  0  0
   15.9511   14.8855   40.9149 C   0  0  0  0  0  0  0  0  0  0  0  0
   15.5292   16.1188   41.4420 C   0  0  0  0  0  0  0  0  0  0  0  0
   14.4213   16.2060   42.2992 C   0  0  0  0  0  0  0  0  0  0  0  0
   13.7090   15.0606   42.6257 C   0  0  0  0  0  0  0  0  0  0  0  0
   16.1500   17.3010   41.1777 O   0  0  0  0  0  0  0  0  0  0  0  0
   16.8976   17.3217   40.6132 H   0  0  0  0  0  0  0  0  0  0  0  0
   13.2645   12.5737   42.3982 C   0  0  0  0  0  0  0  0  0  0  0  0
   13.4385   11.5099   41.2756 C   0  0  0  0  0  0  0  0  0  0  0  0
   13.9279   10.3856   41.5247 O   0  0  0  0  0  0  0  0  0  0  0  0
   13.2305   11.8738   40.0956 O   0  0  0  0  0  0  0  0  0  0  0  0
   12.8635   12.7186   39.9237 H   0  0  0  0  0  0  0  0  0  0  0  0
 10 11  2  0  0  0
 10 12  1  0  0  0
 10  9  1  0  0  0
  9  1  1  0  0  0
  1  2  1  0  0  0
  1  6  2  0  0  0
  2  3  2  0  0  0
  3  4  1  0  0  0
  4  5  2  0  0  0
  4  7  1  0  0  0
  5  6  1  0  0  0
 12 13  1  0  0  0
  7  8  1  0  0  0
M  END
> <minimizedAffinity>
-6.07646

$$$$
3PCG_4HP_M_550


 13 13  0  0  0  0  0  0  0  0999 V2000
   13.9953   14.2942   42.4639 C   0  0  0  0  0  0  0  0  0  0  0  0
   13.4574   13.0668   41.9977 C   0  0  0  0  0  0  0  0  0  0  0  0
   14.1341   12.3201   41.0325 C   0  0  0  0  0  0  0  0  0  0  0  0
   15.3011   12.8623   40.4659 C   0  0  0  0  0  0  0  0  0  0  0  0
   15.8190   14.0930   40.8983 C   0  0  0  0  0  0  0  0  0  0  0  0
   15.1642   14.8068   41.8922 C   0  0  0  0  0  0  0  0  0  0  0  0
   16.0128   12.2498   39.4805 O   0  0  0  0  0  0  0  0  0  0  0  0
   15.7281   11.4243   39.1407 H   0  0  0  0  0  0  0  0  0  0  0  0
   13.2277   15.1226   43.4996 C   0  0  0  0  0  0  0  0  0  0  0  0
   13.0934   14.3495   44.8437 C   0  0  0  0  0  0  0  0  0  0  0  0
   12.0462   13.7249   45.1249 O   0  0  0  0  0  0  0  0  0  0  0  0
   13.9946   14.5117   45.6977 O   0  0  0  0  0  0  0  0  0  0  0  0
   14.7736   14.9815   45.4733 H   0  0  0  0  0  0  0  0  0  0  0  0
 10 11  2  0  0  0
 10 12  1  0  0  0
 10  9  1  0  0  0
  9  1  1  0  0  0
  1  2  1  0  0  0
  1  6  2  0  0  0
  2  3  2  0  0  0
  3  4  1  0  0  0
  4  5  2  0  0  0
  4  7  1  0  0  0
  5  6  1  0  0  0
 12 13  1  0  0  0
  7  8  1  0  0  0
M  END
> <minimizedAffinity>
-6.06816

$$$$
3PCG_4HP_M_550


 13 13  0  0  0  0  0  0  0  0999 V2000
   13.9682   14.4877   42.4460 C   0  0  0  0  0  0  0  0  0  0  0  0
   15.1768   15.0198   41.9268 C   0  0  0  0  0  0  0  0  0  0  0  0
   15.8839   14.3336   40.9387 C   0  0  0  0  0  0  0  0  0  0  0  0
   15.4240   13.0636   40.5485 C   0  0  0  0  0  0  0  0  0  0  0  0
   14.2478   12.5165   41.0844 C   0  0  0  0  0  0  0  0  0  0  0  0
   13.5255   13.2269   42.0330 C   0  0  0  0  0  0  0  0  0  0  0  0
   16.0612   12.2813   39.6349 O   0  0  0  0  0  0  0  0  0  0  0  0
   16.8535   12.5801   39.2337 H   0  0  0  0  0  0  0  0  0  0  0  0
   13.2171   15.2329   43.5543 C   0  0  0  0  0  0  0  0  0  0  0  0
   13.1265   14.3685   44.8454 C   0  0  0  0  0  0  0  0  0  0  0  0
   12.0907   13.7202   45.1144 O   0  0  0  0  0  0  0  0  0  0  0  0
   14.0528   14.4769   45.6810 O   0  0  0  0  0  0  0  0  0  0  0  0
   14.8229   14.9654   45.4661 H   0  0  0  0  0  0  0  0  0  0  0  0
 10 11  2  0  0  0
 10 12  1  0  0  0
 10  9  1  0  0  0
  9  1  1  0  0  0
  1  2  1  0  0  0
  1  6  2  0  0  0
  2  3  2  0  0  0
  3  4  1  0  0  0
  4  5  2  0  0  0
  4  7  1  0  0  0
  5  6  1  0  0  0
 12 13  1  0  0  0
  7  8  1  0  0  0
M  END
> <minimizedAffinity>
-6.05216

$$$$
3PCG_4HP_M_550


 13 13  0  0  0  0  0  0  0  0999 V2000
   13.6501   12.9481   41.9107 C   0  0  0  0  0  0  0  0  0  0  0  0
   13.9778   14.2792   42.2773 C   0  0  0  0  0  0  0  0  0  0  0  0
   13.6339   14.7698   43.5375 C   0  0  0  0  0  0  0  0  0  0  0  0
   12.8711   13.9503   44.3879 C   0  0  0  0  0  0  0  0  0  0  0  0
   12.5138   12.6448   44.0165 C   0  0  0  0  0  0  0  0  0  0  0  0
   12.9003   12.1486   42.7794 C   0  0  0  0  0  0  0  0  0  0  0  0
   12.4331   14.3422   45.6156 O   0  0  0  0  0  0  0  0  0  0  0  0
   12.6331   15.2012   45.9321 H   0  0  0  0  0  0  0  0  0  0  0  0
   14.0029   12.4300   40.5125 C   0  0  0  0  0  0  0  0  0  0  0  0
   15.4980   12.7030   40.1772 C   0  0  0  0  0  0  0  0  0  0  0  0
   15.9365   13.8722   40.0976 O   0  0  0  0  0  0  0  0  0  0  0  0
   16.2007   11.7273   39.8278 O   0  0  0  0  0  0  0  0  0  0  0  0
   15.8595   10.8570   39.8928 H   0  0  0  0  0  0  0  0  0  0  0  0
 10 11  2  0  0  0
 10 12  1  0  0  0
 10  9  1  0  0  0
  9  1  1  0  0  0
  1  2  1  0  0  0
  1  6  2  0  0  0
  2  3  2  0  0  0
  3  4  1  0  0  0
  4  5  2  0  0  0
  4  7  1  0  0  0
  5  6  1  0  0  0
 12 13  1  0  0  0
  7  8  1  0  0  0
M  END
> <minimizedAffinity>
-6.02389

$$$$
3PCG_4HP_M_550


 13 13  0  0  0  0  0  0  0  0999 V2000
   13.9356   14.1684   42.3173 C   0  0  0  0  0  0  0  0  0  0  0  0
   13.4934   15.4224   42.8127 C   0  0  0  0  0  0  0  0  0  0  0  0
   14.1437   16.5990   42.4385 C   0  0  0  0  0  0  0  0  0  0  0  0
   15.3007   16.4994   41.6460 C   0  0  0  0  0  0  0  0  0  0  0  0
   15.7633   15.2582   41.1819 C   0  0  0  0  0  0  0  0  0  0  0  0
   15.0830   14.0971   41.5208 C   0  0  0  0  0  0  0  0  0  0  0  0
   16.0459   17.5730   41.2655 O   0  0  0  0  0  0  0  0  0  0  0  0
   15.7987   18.4350   41.5374 H   0  0  0  0  0  0  0  0  0  0  0  0
   13.2352   12.8797   42.7608 C   0  0  0  0  0  0  0  0  0  0  0  0
   13.3818   11.7661   41.6835 C   0  0  0  0  0  0  0  0  0  0  0  0
   12.9427   11.9311   40.5235 O   0  0  0  0  0  0  0  0  0  0  0  0
   13.7992   10.6472   42.0602 O   0  0  0  0  0  0  0  0  0  0  0  0
   14.1253   10.5381   42.9318 H   0  0  0  0  0  0  0  0  0  0  0  0
 10 11  2  0  0  0
 10 12  1  0  0  0
 10  9  1  0  0  0
  9  1  1  0  0  0
  1  2  1  0  0  0
  1  6  2  0  0  0
  2  3  2  0  0  0
  3  4  1  0  0  0
  4  5  2  0  0  0
  4  7  1  0  0  0
  5  6  1  0  0  0
 12 13  1  0  0  0
  7  8  1  0  0  0
M  END
> <minimizedAffinity>
-6.01581

$$$$
