4OG4_2VK_A_602


 32 35  0  0  0  0  0  0  0  0999 V2000
   11.8032   12.0700   10.4844 N   0  0  0  0  0  0  0  0  0  0  0  0
   11.2096   11.2392    9.4205 C   0  0  0  0  0  0  0  0  0  0  0  0
   11.7036    9.7906    9.4585 C   0  0  0  0  0  0  0  0  0  0  0  0
   13.2739   12.0120   10.3845 C   0  0  0  0  0  0  0  0  0  0  0  0
   13.8152   10.5770   10.4399 C   0  0  0  0  0  0  0  0  0  0  0  0
   13.2180    9.7607    9.2980 C   0  0  0  0  0  0  0  0  0  0  0  0
   13.7428    8.3036    9.2420 C   0  0  0  0  0  0  0  0  0  0  0  0
   12.7220    7.5031    8.7724 O   0  0  0  0  0  0  0  0  0  0  0  0
   11.9730    7.5401    9.3876 H   0  0  0  0  0  0  0  0  0  0  0  0
   14.1681    7.8406   10.5437 C   0  0  0  0  0  0  0  0  0  0  0  0
   15.4966    7.9768   10.9202 C   0  0  0  0  0  0  0  0  0  0  0  0
   15.9108    7.5154   12.1633 C   0  0  0  0  0  0  0  0  0  0  0  0
   15.0250    6.9123   13.0435 C   0  0  0  0  0  0  0  0  0  0  0  0
   13.6989    6.7612   12.6694 C   0  0  0  0  0  0  0  0  0  0  0  0
   13.2764    7.2228   11.4207 C   0  0  0  0  0  0  0  0  0  0  0  0
   14.8856    8.1919    8.2185 C   0  0  0  0  0  0  0  0  0  0  0  0
   14.6126    9.0068    6.9445 C   0  0  0  0  0  0  0  0  0  0  0  0
   15.4851    8.3470    5.8592 C   0  0  0  0  0  0  0  0  0  0  0  0
   16.0578    7.1414    6.5291 C   0  0  0  0  0  0  0  0  0  0  0  0
   15.0846    6.8143    7.6457 C   0  0  0  0  0  0  0  0  0  0  0  0
   11.3498   13.4634   10.3019 C   0  0  0  0  0  0  0  0  0  0  0  0
   12.1018   14.4450   11.2135 C   0  0  0  0  0  0  0  0  0  0  0  0
   11.2240   14.8577   12.3997 C   0  0  0  0  0  0  0  0  0  0  0  0
   11.0547   16.2623   12.2898 O   0  0  0  0  0  0  0  0  0  0  0  0
    9.1304   16.6633   11.0332 C   0  0  0  0  0  0  0  0  0  0  0  0
    7.8469   17.1622   10.9115 C   0  0  0  0  0  0  0  0  0  0  0  0
    7.2493   17.7653   12.0049 C   0  0  0  0  0  0  0  0  0  0  0  0
    7.9205   17.8754   13.2187 C   0  0  0  0  0  0  0  0  0  0  0  0
    9.2112   17.3751   13.3421 C   0  0  0  0  0  0  0  0  0  0  0  0
    9.8046   16.7714   12.2410 C   0  0  0  0  0  0  0  0  0  0  0  0
    5.9783   18.2518   11.8621 C   0  0  0  0  0  0  0  0  0  0  0  0
    5.0109   18.6018   11.7642 N   0  0  0  0  0  0  0  0  0  0  0  0
 14 13  2  0  0  0
 14 15  1  0  0  0
 13 12  1  0  0  0
 15 10  2  0  0  0
  8  7  1  0  0  0
 12 11  2  0  0  0
 10 11  1  0  0  0
 10  7  1  0  0  0
  5  4  1  0  0  0
  5  6  1  0  0  0
  7  6  1  0  0  0
  7 16  1  0  0  0
  4  1  1  0  0  0
 17 16  1  0  0  0
 17 18  1  0  0  0
  6  3  1  0  0  0
 22 23  1  0  0  0
 22 21  1  0  0  0
  1 21  1  0  0  0
  1  2  1  0  0  0
 16 20  1  0  0  0
  3  2  1  0  0  0
 23 24  1  0  0  0
 18 19  1  0  0  0
 24 30  1  0  0  0
 20 19  1  0  0  0
 30 29  2  0  0  0
 30 25  1  0  0  0
 29 28  1  0  0  0
 25 26  2  0  0  0
 28 27  2  0  0  0
 26 27  1  0  0  0
 27 31  1  0  0  0
 31 32  3  0  0  0
  8  9  1  0  0  0
M  END
> <minimizedAffinity>
-7.86967

$$$$
4OG4_2VK_A_602


 32 35  0  0  0  0  0  0  0  0999 V2000
   11.6208   11.8741   10.3799 N   0  0  0  0  0  0  0  0  0  0  0  0
   11.0679   10.9864    9.3402 C   0  0  0  0  0  0  0  0  0  0  0  0
   11.6301    9.5645    9.4186 C   0  0  0  0  0  0  0  0  0  0  0  0
   13.0927   11.8832   10.2804 C   0  0  0  0  0  0  0  0  0  0  0  0
   13.7015   10.4776   10.3756 C   0  0  0  0  0  0  0  0  0  0  0  0
   13.1443    9.6021    9.2577 C   0  0  0  0  0  0  0  0  0  0  0  0
   13.7377    8.1705    9.2423 C   0  0  0  0  0  0  0  0  0  0  0  0
   12.7659    7.3139    8.7680 O   0  0  0  0  0  0  0  0  0  0  0  0
   12.0028    7.3274    9.3666 H   0  0  0  0  0  0  0  0  0  0  0  0
   14.1559    7.7534   10.5617 C   0  0  0  0  0  0  0  0  0  0  0  0
   15.4769    7.9257   10.9495 C   0  0  0  0  0  0  0  0  0  0  0  0
   15.8846    7.5082   12.2101 C   0  0  0  0  0  0  0  0  0  0  0  0
   14.9996    6.9139   13.0971 C   0  0  0  0  0  0  0  0  0  0  0  0
   13.6812    6.7269   12.7122 C   0  0  0  0  0  0  0  0  0  0  0  0
   13.2653    7.1443   11.4459 C   0  0  0  0  0  0  0  0  0  0  0  0
   14.9064    8.0931    8.2452 C   0  0  0  0  0  0  0  0  0  0  0  0
   14.6766    8.9698    7.0042 C   0  0  0  0  0  0  0  0  0  0  0  0
   15.5710    8.3510    5.9125 C   0  0  0  0  0  0  0  0  0  0  0  0
   16.1124    7.1086    6.5400 C   0  0  0  0  0  0  0  0  0  0  0  0
   15.1060    6.7414    7.6138 C   0  0  0  0  0  0  0  0  0  0  0  0
   11.1018   13.2387   10.1586 C   0  0  0  0  0  0  0  0  0  0  0  0
   11.9703   14.3095   10.8365 C   0  0  0  0  0  0  0  0  0  0  0  0
   11.4779   14.5777   12.2624 C   0  0  0  0  0  0  0  0  0  0  0  0
   10.2008   15.1814   12.1272 O   0  0  0  0  0  0  0  0  0  0  0  0
   10.9931   17.3729   12.2394 C   0  0  0  0  0  0  0  0  0  0  0  0
   10.8720   18.6830   12.6636 C   0  0  0  0  0  0  0  0  0  0  0  0
    9.7731   19.0496   13.4215 C   0  0  0  0  0  0  0  0  0  0  0  0
    8.7937   18.1212   13.7600 C   0  0  0  0  0  0  0  0  0  0  0  0
    8.9147   16.8036   13.3349 C   0  0  0  0  0  0  0  0  0  0  0  0
   10.0199   16.4428   12.5750 C   0  0  0  0  0  0  0  0  0  0  0  0
    9.6734   20.3517   13.8304 C   0  0  0  0  0  0  0  0  0  0  0  0
    9.5896   21.3283   14.1578 N   0  0  0  0  0  0  0  0  0  0  0  0
 14 13  2  0  0  0
 14 15  1  0  0  0
 13 12  1  0  0  0
 15 10  2  0  0  0
  8  7  1  0  0  0
 12 11  2  0  0  0
 10 11  1  0  0  0
 10  7  1  0  0  0
  5  4  1  0  0  0
  5  6  1  0  0  0
  7  6  1  0  0  0
  7 16  1  0  0  0
  4  1  1  0  0  0
 17 16  1  0  0  0
 17 18  1  0  0  0
  6  3  1  0  0  0
 22 23  1  0  0  0
 22 21  1  0  0  0
  1 21  1  0  0  0
  1  2  1  0  0  0
 16 20  1  0  0  0
  3  2  1  0  0  0
 23 24  1  0  0  0
 18 19  1  0  0  0
 24 30  1  0  0  0
 20 19  1  0  0  0
 30 29  2  0  0  0
 30 25  1  0  0  0
 29 28  1  0  0  0
 25 26  2  0  0  0
 28 27  2  0  0  0
 26 27  1  0  0  0
 27 31  1  0  0  0
 31 32  3  0  0  0
  8  9  1  0  0  0
M  END
> <minimizedAffinity>
-7.48094

$$$$
4OG4_2VK_A_602


 32 35  0  0  0  0  0  0  0  0999 V2000
   15.1708   13.6709   11.2079 N   0  0  0  0  0  0  0  0  0  0  0  0
   14.8374   12.5518   12.1084 C   0  0  0  0  0  0  0  0  0  0  0  0
   15.5945   11.2678   11.7589 C   0  0  0  0  0  0  0  0  0  0  0  0
   14.9096   13.2683    9.8128 C   0  0  0  0  0  0  0  0  0  0  0  0
   15.6668   11.9948    9.4123 C   0  0  0  0  0  0  0  0  0  0  0  0
   15.2617   10.8481   10.3330 C   0  0  0  0  0  0  0  0  0  0  0  0
   15.9417    9.5019    9.9763 C   0  0  0  0  0  0  0  0  0  0  0  0
   16.8232    9.7336    8.9407 O   0  0  0  0  0  0  0  0  0  0  0  0
   16.3346   10.0500    8.1648 H   0  0  0  0  0  0  0  0  0  0  0  0
   14.9730    8.5047    9.5803 C   0  0  0  0  0  0  0  0  0  0  0  0
   13.9348    8.1768   10.4404 C   0  0  0  0  0  0  0  0  0  0  0  0
   13.0138    7.2053   10.0692 C   0  0  0  0  0  0  0  0  0  0  0  0
   13.1085    6.5451    8.8534 C   0  0  0  0  0  0  0  0  0  0  0  0
   14.1502    6.8581    7.9943 C   0  0  0  0  0  0  0  0  0  0  0  0
   15.0795    7.8338    8.3619 C   0  0  0  0  0  0  0  0  0  0  0  0
   16.7877    9.0062   11.1615 C   0  0  0  0  0  0  0  0  0  0  0  0
   18.2747    9.3634   11.0097 C   0  0  0  0  0  0  0  0  0  0  0  0
   19.0181    8.3428   11.8929 C   0  0  0  0  0  0  0  0  0  0  0  0
   17.9504    7.4036   12.3494 C   0  0  0  0  0  0  0  0  0  0  0  0
   16.8606    7.5092   11.2996 C   0  0  0  0  0  0  0  0  0  0  0  0
   14.3194   14.8258   11.5569 C   0  0  0  0  0  0  0  0  0  0  0  0
   12.9904   14.3975   12.1978 C   0  0  0  0  0  0  0  0  0  0  0  0
   11.8157   15.1283   11.5393 C   0  0  0  0  0  0  0  0  0  0  0  0
   10.8779   15.3729   12.5758 O   0  0  0  0  0  0  0  0  0  0  0  0
    9.2612   16.8451   13.3894 C   0  0  0  0  0  0  0  0  0  0  0  0
    8.1595   17.6581   13.1986 C   0  0  0  0  0  0  0  0  0  0  0  0
    7.6096   17.7659   11.9328 C   0  0  0  0  0  0  0  0  0  0  0  0
    8.1486   17.0700   10.8554 C   0  0  0  0  0  0  0  0  0  0  0  0
    9.2556   16.2515   11.0459 C   0  0  0  0  0  0  0  0  0  0  0  0
    9.8020   16.1480   12.3186 C   0  0  0  0  0  0  0  0  0  0  0  0
    6.5196   18.5765   11.7668 C   0  0  0  0  0  0  0  0  0  0  0  0
    5.7036   19.1937   11.6219 N   0  0  0  0  0  0  0  0  0  0  0  0
 14 13  2  0  0  0
 14 15  1  0  0  0
 13 12  1  0  0  0
 15 10  2  0  0  0
  8  7  1  0  0  0
 12 11  2  0  0  0
 10 11  1  0  0  0
 10  7  1  0  0  0
  5  4  1  0  0  0
  5  6  1  0  0  0
  7  6  1  0  0  0
  7 16  1  0  0  0
  4  1  1  0  0  0
 17 16  1  0  0  0
 17 18  1  0  0  0
  6  3  1  0  0  0
 22 23  1  0  0  0
 22 21  1  0  0  0
  1 21  1  0  0  0
  1  2  1  0  0  0
 16 20  1  0  0  0
  3  2  1  0  0  0
 23 24  1  0  0  0
 18 19  1  0  0  0
 24 30  1  0  0  0
 20 19  1  0  0  0
 30 29  2  0  0  0
 30 25  1  0  0  0
 29 28  1  0  0  0
 25 26  2  0  0  0
 28 27  2  0  0  0
 26 27  1  0  0  0
 27 31  1  0  0  0
 31 32  3  0  0  0
  8  9  1  0  0  0
M  END
> <minimizedAffinity>
-7.32945

$$$$
4OG4_2VK_A_602


 32 35  0  0  0  0  0  0  0  0999 V2000
   13.1364   12.1893   10.1112 N   0  0  0  0  0  0  0  0  0  0  0  0
   14.2373   12.1707   11.0922 C   0  0  0  0  0  0  0  0  0  0  0  0
   15.4832   11.4524   10.5671 C   0  0  0  0  0  0  0  0  0  0  0  0
   12.8175   10.8058    9.7104 C   0  0  0  0  0  0  0  0  0  0  0  0
   14.0355   10.0537    9.1571 C   0  0  0  0  0  0  0  0  0  0  0  0
   15.1345   10.0124   10.2141 C   0  0  0  0  0  0  0  0  0  0  0  0
   16.3938    9.2295    9.7633 C   0  0  0  0  0  0  0  0  0  0  0  0
   17.4810   10.0704    9.8828 O   0  0  0  0  0  0  0  0  0  0  0  0
   17.3643   10.8349    9.2973 H   0  0  0  0  0  0  0  0  0  0  0  0
   16.2761    8.7734    8.3966 C   0  0  0  0  0  0  0  0  0  0  0  0
   15.7513    7.5157    8.1356 C   0  0  0  0  0  0  0  0  0  0  0  0
   15.6549    7.0684    6.8240 C   0  0  0  0  0  0  0  0  0  0  0  0
   16.0779    7.8503    5.7597 C   0  0  0  0  0  0  0  0  0  0  0  0
   16.6149    9.1027    6.0133 C   0  0  0  0  0  0  0  0  0  0  0  0
   16.7148    9.5580    7.3299 C   0  0  0  0  0  0  0  0  0  0  0  0
   16.6527    8.0500   10.7161 C   0  0  0  0  0  0  0  0  0  0  0  0
   15.5559    7.9073   11.7830 C   0  0  0  0  0  0  0  0  0  0  0  0
   16.2259    7.1373   12.9374 C   0  0  0  0  0  0  0  0  0  0  0  0
   17.6588    7.0345   12.5294 C   0  0  0  0  0  0  0  0  0  0  0  0
   17.8790    8.1942   11.5768 C   0  0  0  0  0  0  0  0  0  0  0  0
   11.9531   12.8063   10.7431 C   0  0  0  0  0  0  0  0  0  0  0  0
   12.2901   13.4719   12.0861 C   0  0  0  0  0  0  0  0  0  0  0  0
   11.8660   14.9443   12.0780 C   0  0  0  0  0  0  0  0  0  0  0  0
   10.7045   15.0203   12.8896 O   0  0  0  0  0  0  0  0  0  0  0  0
    9.4740   16.2036   11.2995 C   0  0  0  0  0  0  0  0  0  0  0  0
    8.5407   17.1663   10.9629 C   0  0  0  0  0  0  0  0  0  0  0  0
    7.9255   17.8925   11.9681 C   0  0  0  0  0  0  0  0  0  0  0  0
    8.2327   17.6670   13.3063 C   0  0  0  0  0  0  0  0  0  0  0  0
    9.1714   16.7001   13.6460 C   0  0  0  0  0  0  0  0  0  0  0  0
    9.7848   15.9755   12.6323 C   0  0  0  0  0  0  0  0  0  0  0  0
    7.0047   18.8401   11.6122 C   0  0  0  0  0  0  0  0  0  0  0  0
    6.3097   19.5482   11.3234 N   0  0  0  0  0  0  0  0  0  0  0  0
 14 13  2  0  0  0
 14 15  1  0  0  0
 13 12  1  0  0  0
 15 10  2  0  0  0
  8  7  1  0  0  0
 12 11  2  0  0  0
 10 11  1  0  0  0
 10  7  1  0  0  0
  5  4  1  0  0  0
  5  6  1  0  0  0
  7  6  1  0  0  0
  7 16  1  0  0  0
  4  1  1  0  0  0
 17 16  1  0  0  0
 17 18  1  0  0  0
  6  3  1  0  0  0
 22 23  1  0  0  0
 22 21  1  0  0  0
  1 21  1  0  0  0
  1  2  1  0  0  0
 16 20  1  0  0  0
  3  2  1  0  0  0
 23 24  1  0  0  0
 18 19  1  0  0  0
 24 30  1  0  0  0
 20 19  1  0  0  0
 30 29  2  0  0  0
 30 25  1  0  0  0
 29 28  1  0  0  0
 25 26  2  0  0  0
 28 27  2  0  0  0
 26 27  1  0  0  0
 27 31  1  0  0  0
 31 32  3  0  0  0
  8  9  1  0  0  0
M  END
> <minimizedAffinity>
-7.31884

$$$$
4OG4_2VK_A_602


 32 35  0  0  0  0  0  0  0  0999 V2000
   14.0916   12.8970   10.9662 N   0  0  0  0  0  0  0  0  0  0  0  0
   13.6979   12.5016    9.6012 C   0  0  0  0  0  0  0  0  0  0  0  0
   13.4332   10.9989    9.4756 C   0  0  0  0  0  0  0  0  0  0  0  0
   15.2747   12.1174   11.3772 C   0  0  0  0  0  0  0  0  0  0  0  0
   15.0463   10.6024   11.2870 C   0  0  0  0  0  0  0  0  0  0  0  0
   14.6887   10.2236    9.8534 C   0  0  0  0  0  0  0  0  0  0  0  0
   14.4840    8.7008    9.6512 C   0  0  0  0  0  0  0  0  0  0  0  0
   13.2311    8.5101    9.1063 O   0  0  0  0  0  0  0  0  0  0  0  0
   12.5571    8.8349    9.7237 H   0  0  0  0  0  0  0  0  0  0  0  0
   14.5896    7.9792   10.8994 C   0  0  0  0  0  0  0  0  0  0  0  0
   13.4445    7.4766   11.5005 C   0  0  0  0  0  0  0  0  0  0  0  0
   13.5421    6.7992   12.7094 C   0  0  0  0  0  0  0  0  0  0  0  0
   14.7637    6.6149   13.3393 C   0  0  0  0  0  0  0  0  0  0  0  0
   15.9105    7.1251   12.7513 C   0  0  0  0  0  0  0  0  0  0  0  0
   15.8189    7.8074   11.5360 C   0  0  0  0  0  0  0  0  0  0  0  0
   15.4906    8.1641    8.6193 C   0  0  0  0  0  0  0  0  0  0  0  0
   15.8964    9.2290    7.5883 C   0  0  0  0  0  0  0  0  0  0  0  0
   16.3824    8.4287    6.3645 C   0  0  0  0  0  0  0  0  0  0  0  0
   16.0821    7.0073    6.7105 C   0  0  0  0  0  0  0  0  0  0  0  0
   14.9547    7.0803    7.7227 C   0  0  0  0  0  0  0  0  0  0  0  0
   14.4244   14.3356   10.9621 C   0  0  0  0  0  0  0  0  0  0  0  0
   13.2275   15.2118   11.3621 C   0  0  0  0  0  0  0  0  0  0  0  0
   12.2863   14.4429   12.2953 C   0  0  0  0  0  0  0  0  0  0  0  0
   11.0404   14.3708   11.6200 O   0  0  0  0  0  0  0  0  0  0  0  0
    9.9351   15.8273   13.0691 C   0  0  0  0  0  0  0  0  0  0  0  0
    9.0377   16.8527   13.3019 C   0  0  0  0  0  0  0  0  0  0  0  0
    8.3632   17.4169   12.2328 C   0  0  0  0  0  0  0  0  0  0  0  0
    8.5757   16.9674   10.9333 C   0  0  0  0  0  0  0  0  0  0  0  0
    9.4771   15.9360   10.6979 C   0  0  0  0  0  0  0  0  0  0  0  0
   10.1501   15.3746   11.7753 C   0  0  0  0  0  0  0  0  0  0  0  0
    7.4797   18.4307   12.4862 C   0  0  0  0  0  0  0  0  0  0  0  0
    6.8124   19.1907   12.6983 N   0  0  0  0  0  0  0  0  0  0  0  0
 14 13  2  0  0  0
 14 15  1  0  0  0
 13 12  1  0  0  0
 15 10  2  0  0  0
  8  7  1  0  0  0
 12 11  2  0  0  0
 10 11  1  0  0  0
 10  7  1  0  0  0
  5  4  1  0  0  0
  5  6  1  0  0  0
  7  6  1  0  0  0
  7 16  1  0  0  0
  4  1  1  0  0  0
 17 16  1  0  0  0
 17 18  1  0  0  0
  6  3  1  0  0  0
 22 23  1  0  0  0
 22 21  1  0  0  0
  1 21  1  0  0  0
  1  2  1  0  0  0
 16 20  1  0  0  0
  3  2  1  0  0  0
 23 24  1  0  0  0
 18 19  1  0  0  0
 24 30  1  0  0  0
 20 19  1  0  0  0
 30 29  2  0  0  0
 30 25  1  0  0  0
 29 28  1  0  0  0
 25 26  2  0  0  0
 28 27  2  0  0  0
 26 27  1  0  0  0
 27 31  1  0  0  0
 31 32  3  0  0  0
  8  9  1  0  0  0
M  END
> <minimizedAffinity>
-7.28495

$$$$
4OG4_2VK_A_602


 32 35  0  0  0  0  0  0  0  0999 V2000
   17.3881   12.0197    9.6995 N   0  0  0  0  0  0  0  0  0  0  0  0
   17.7498   11.2815    8.4752 C   0  0  0  0  0  0  0  0  0  0  0  0
   16.5627   11.0954    7.5263 C   0  0  0  0  0  0  0  0  0  0  0  0
   16.2761   11.3257   10.3764 C   0  0  0  0  0  0  0  0  0  0  0  0
   15.0548   11.1362    9.4666 C   0  0  0  0  0  0  0  0  0  0  0  0
   15.4543   10.3286    8.2358 C   0  0  0  0  0  0  0  0  0  0  0  0
   14.2719   10.0439    7.2751 C   0  0  0  0  0  0  0  0  0  0  0  0
   14.1705   11.1066    6.4012 O   0  0  0  0  0  0  0  0  0  0  0  0
   13.9785   11.9170    6.8986 H   0  0  0  0  0  0  0  0  0  0  0  0
   13.0286    9.8819    7.9946 C   0  0  0  0  0  0  0  0  0  0  0  0
   12.8600    8.7920    8.8366 C   0  0  0  0  0  0  0  0  0  0  0  0
   11.6589    8.6248    9.5142 C   0  0  0  0  0  0  0  0  0  0  0  0
   10.6130    9.5232    9.3661 C   0  0  0  0  0  0  0  0  0  0  0  0
   10.7694   10.6076    8.5170 C   0  0  0  0  0  0  0  0  0  0  0  0
   11.9745   10.7811    7.8327 C   0  0  0  0  0  0  0  0  0  0  0  0
   14.5752    8.8048    6.4157 C   0  0  0  0  0  0  0  0  0  0  0  0
   15.6464    7.9019    7.0472 C   0  0  0  0  0  0  0  0  0  0  0  0
   16.2346    7.1030    5.8680 C   0  0  0  0  0  0  0  0  0  0  0  0
   15.5893    7.6993    4.6604 C   0  0  0  0  0  0  0  0  0  0  0  0
   15.1981    9.1040    5.0785 C   0  0  0  0  0  0  0  0  0  0  0  0
   18.5641   12.0568   10.5917 C   0  0  0  0  0  0  0  0  0  0  0  0
   18.5539   10.9127   11.6170 C   0  0  0  0  0  0  0  0  0  0  0  0
   19.4488    9.7612   11.1468 C   0  0  0  0  0  0  0  0  0  0  0  0
   19.0753    8.6343   11.9241 O   0  0  0  0  0  0  0  0  0  0  0  0
   17.1941    8.0457   13.1722 C   0  0  0  0  0  0  0  0  0  0  0  0
   15.8742    7.6429   13.2546 C   0  0  0  0  0  0  0  0  0  0  0  0
   15.1552    7.4397   12.0893 C   0  0  0  0  0  0  0  0  0  0  0  0
   15.7408    7.6345   10.8423 C   0  0  0  0  0  0  0  0  0  0  0  0
   17.0679    8.0386   10.7580 C   0  0  0  0  0  0  0  0  0  0  0  0
   17.7833    8.2404   11.9313 C   0  0  0  0  0  0  0  0  0  0  0  0
   13.8502    7.0414   12.1943 C   0  0  0  0  0  0  0  0  0  0  0  0
   12.8711    6.7203   12.2723 N   0  0  0  0  0  0  0  0  0  0  0  0
 14 13  2  0  0  0
 14 15  1  0  0  0
 13 12  1  0  0  0
 15 10  2  0  0  0
  8  7  1  0  0  0
 12 11  2  0  0  0
 10 11  1  0  0  0
 10  7  1  0  0  0
  5  4  1  0  0  0
  5  6  1  0  0  0
  7  6  1  0  0  0
  7 16  1  0  0  0
  4  1  1  0  0  0
 17 16  1  0  0  0
 17 18  1  0  0  0
  6  3  1  0  0  0
 22 23  1  0  0  0
 22 21  1  0  0  0
  1 21  1  0  0  0
  1  2  1  0  0  0
 16 20  1  0  0  0
  3  2  1  0  0  0
 23 24  1  0  0  0
 18 19  1  0  0  0
 24 30  1  0  0  0
 20 19  1  0  0  0
 30 29  2  0  0  0
 30 25  1  0  0  0
 29 28  1  0  0  0
 25 26  2  0  0  0
 28 27  2  0  0  0
 26 27  1  0  0  0
 27 31  1  0  0  0
 31 32  3  0  0  0
  8  9  1  0  0  0
M  END
> <minimizedAffinity>
-6.88942

$$$$
4OG4_2VK_A_602


 32 35  0  0  0  0  0  0  0  0999 V2000
    9.8688   14.0709    7.1603 N   0  0  0  0  0  0  0  0  0  0  0  0
   10.2527   15.4944    7.1373 C   0  0  0  0  0  0  0  0  0  0  0  0
   10.9284   15.9442    8.4355 C   0  0  0  0  0  0  0  0  0  0  0  0
    8.9958   13.8203    8.3229 C   0  0  0  0  0  0  0  0  0  0  0  0
    9.6432   14.2376    9.6504 C   0  0  0  0  0  0  0  0  0  0  0  0
    9.9825   15.7241    9.6089 C   0  0  0  0  0  0  0  0  0  0  0  0
   10.6008   16.2521   10.9283 C   0  0  0  0  0  0  0  0  0  0  0  0
   11.2339   17.4462   10.6518 O   0  0  0  0  0  0  0  0  0  0  0  0
   11.9481   17.2932   10.0135 H   0  0  0  0  0  0  0  0  0  0  0  0
   11.5486   15.3133   11.4851 C   0  0  0  0  0  0  0  0  0  0  0  0
   11.1264   14.3923   12.4332 C   0  0  0  0  0  0  0  0  0  0  0  0
   12.0399   13.5019   12.9829 C   0  0  0  0  0  0  0  0  0  0  0  0
   13.3755   13.5126   12.6098 C   0  0  0  0  0  0  0  0  0  0  0  0
   13.8075   14.4380   11.6726 C   0  0  0  0  0  0  0  0  0  0  0  0
   12.8938   15.3361   11.1164 C   0  0  0  0  0  0  0  0  0  0  0  0
    9.4891   16.5765   11.9408 C   0  0  0  0  0  0  0  0  0  0  0  0
    8.2659   17.2295   11.2784 C   0  0  0  0  0  0  0  0  0  0  0  0
    7.5627   17.9953   12.4157 C   0  0  0  0  0  0  0  0  0  0  0  0
    8.4898   17.8609   13.5788 C   0  0  0  0  0  0  0  0  0  0  0  0
    9.8554   17.6167   12.9652 C   0  0  0  0  0  0  0  0  0  0  0  0
    9.1365   13.7606    5.9162 C   0  0  0  0  0  0  0  0  0  0  0  0
    8.3805   12.4259    6.0024 C   0  0  0  0  0  0  0  0  0  0  0  0
    9.3394   11.2500    5.7889 C   0  0  0  0  0  0  0  0  0  0  0  0
    9.3612   10.5367    7.0154 O   0  0  0  0  0  0  0  0  0  0  0  0
   10.3098   10.5297    9.1469 C   0  0  0  0  0  0  0  0  0  0  0  0
   11.4123   10.5528    9.9806 C   0  0  0  0  0  0  0  0  0  0  0  0
   12.6791   10.6076    9.4253 C   0  0  0  0  0  0  0  0  0  0  0  0
   12.8564   10.6395    8.0457 C   0  0  0  0  0  0  0  0  0  0  0  0
   11.7489   10.6172    7.2063 C   0  0  0  0  0  0  0  0  0  0  0  0
   10.4809   10.5624    7.7704 C   0  0  0  0  0  0  0  0  0  0  0  0
   13.7561   10.6293   10.2693 C   0  0  0  0  0  0  0  0  0  0  0  0
   14.5816   10.6528   10.8905 N   0  0  0  0  0  0  0  0  0  0  0  0
 14 13  2  0  0  0
 14 15  1  0  0  0
 13 12  1  0  0  0
 15 10  2  0  0  0
  8  7  1  0  0  0
 12 11  2  0  0  0
 10 11  1  0  0  0
 10  7  1  0  0  0
  5  4  1  0  0  0
  5  6  1  0  0  0
  7  6  1  0  0  0
  7 16  1  0  0  0
  4  1  1  0  0  0
 17 16  1  0  0  0
 17 18  1  0  0  0
  6  3  1  0  0  0
 22 23  1  0  0  0
 22 21  1  0  0  0
  1 21  1  0  0  0
  1  2  1  0  0  0
 16 20  1  0  0  0
  3  2  1  0  0  0
 23 24  1  0  0  0
 18 19  1  0  0  0
 24 30  1  0  0  0
 20 19  1  0  0  0
 30 29  2  0  0  0
 30 25  1  0  0  0
 29 28  1  0  0  0
 25 26  2  0  0  0
 28 27  2  0  0  0
 26 27  1  0  0  0
 27 31  1  0  0  0
 31 32  3  0  0  0
  8  9  1  0  0  0
M  END
> <minimizedAffinity>
-6.83630

$$$$
4OG4_2VK_A_602


 32 35  0  0  0  0  0  0  0  0999 V2000
   13.9925   12.3520   10.9864 N   0  0  0  0  0  0  0  0  0  0  0  0
   13.2442   11.1950   10.4610 C   0  0  0  0  0  0  0  0  0  0  0  0
   14.1170    9.9458   10.3135 C   0  0  0  0  0  0  0  0  0  0  0  0
   15.1520   12.6192   10.1144 C   0  0  0  0  0  0  0  0  0  0  0  0
   16.0673   11.3976    9.9552 C   0  0  0  0  0  0  0  0  0  0  0  0
   15.2729   10.2367    9.3653 C   0  0  0  0  0  0  0  0  0  0  0  0
   16.1266    8.9662    9.1227 C   0  0  0  0  0  0  0  0  0  0  0  0
   15.4279    7.8849    9.6184 O   0  0  0  0  0  0  0  0  0  0  0  0
   15.2980    7.9942   10.5734 H   0  0  0  0  0  0  0  0  0  0  0  0
   17.4138    9.0573    9.7743 C   0  0  0  0  0  0  0  0  0  0  0  0
   18.4831    9.6339    9.1041 C   0  0  0  0  0  0  0  0  0  0  0  0
   19.7253    9.7053    9.7219 C   0  0  0  0  0  0  0  0  0  0  0  0
   19.9279    9.2064   10.9998 C   0  0  0  0  0  0  0  0  0  0  0  0
   18.8676    8.6176   11.6708 C   0  0  0  0  0  0  0  0  0  0  0  0
   17.6163    8.5426   11.0550 C   0  0  0  0  0  0  0  0  0  0  0  0
   16.2910    8.7197    7.6133 C   0  0  0  0  0  0  0  0  0  0  0  0
   15.4281    9.6690    6.7673 C   0  0  0  0  0  0  0  0  0  0  0  0
   15.2456    8.9424    5.4208 C   0  0  0  0  0  0  0  0  0  0  0  0
   15.8648    7.6010    5.6388 C   0  0  0  0  0  0  0  0  0  0  0  0
   15.8000    7.3786    7.1379 C   0  0  0  0  0  0  0  0  0  0  0  0
   13.0983   13.5270   10.9940 C   0  0  0  0  0  0  0  0  0  0  0  0
   11.8680   13.3173   11.8900 C   0  0  0  0  0  0  0  0  0  0  0  0
   11.4008   14.6509   12.4826 C   0  0  0  0  0  0  0  0  0  0  0  0
   10.8535   15.3883   11.4008 O   0  0  0  0  0  0  0  0  0  0  0  0
    8.9359   16.3740   10.5098 C   0  0  0  0  0  0  0  0  0  0  0  0
    7.7886   17.1325   10.6499 C   0  0  0  0  0  0  0  0  0  0  0  0
    7.4659   17.6471   11.8938 C   0  0  0  0  0  0  0  0  0  0  0  0
    8.2772   17.4121   12.9994 C   0  0  0  0  0  0  0  0  0  0  0  0
    9.4313   16.6505   12.8597 C   0  0  0  0  0  0  0  0  0  0  0  0
    9.7490   16.1375   11.6088 C   0  0  0  0  0  0  0  0  0  0  0  0
    6.3256   18.3948   12.0097 C   0  0  0  0  0  0  0  0  0  0  0  0
    5.4649   18.9562   12.1184 N   0  0  0  0  0  0  0  0  0  0  0  0
 14 13  2  0  0  0
 14 15  1  0  0  0
 13 12  1  0  0  0
 15 10  2  0  0  0
  8  7  1  0  0  0
 12 11  2  0  0  0
 10 11  1  0  0  0
 10  7  1  0  0  0
  5  4  1  0  0  0
  5  6  1  0  0  0
  7  6  1  0  0  0
  7 16  1  0  0  0
  4  1  1  0  0  0
 17 16  1  0  0  0
 17 18  1  0  0  0
  6  3  1  0  0  0
 22 23  1  0  0  0
 22 21  1  0  0  0
  1 21  1  0  0  0
  1  2  1  0  0  0
 16 20  1  0  0  0
  3  2  1  0  0  0
 23 24  1  0  0  0
 18 19  1  0  0  0
 24 30  1  0  0  0
 20 19  1  0  0  0
 30 29  2  0  0  0
 30 25  1  0  0  0
 29 28  1  0  0  0
 25 26  2  0  0  0
 28 27  2  0  0  0
 26 27  1  0  0  0
 27 31  1  0  0  0
 31 32  3  0  0  0
  8  9  1  0  0  0
M  END
> <minimizedAffinity>
-6.68340

$$$$
4OG4_2VK_A_602


 32 35  0  0  0  0  0  0  0  0999 V2000
   14.8494   13.7809   10.4342 N   0  0  0  0  0  0  0  0  0  0  0  0
   15.0946   12.9770    9.2226 C   0  0  0  0  0  0  0  0  0  0  0  0
   14.7711   11.4940    9.4232 C   0  0  0  0  0  0  0  0  0  0  0  0
   15.6248   13.2195   11.5568 C   0  0  0  0  0  0  0  0  0  0  0  0
   15.3156   11.7373   11.8074 C   0  0  0  0  0  0  0  0  0  0  0  0
   15.6261   10.9305   10.5508 C   0  0  0  0  0  0  0  0  0  0  0  0
   15.3889    9.4085   10.7214 C   0  0  0  0  0  0  0  0  0  0  0  0
   14.3489    9.2388   11.6119 O   0  0  0  0  0  0  0  0  0  0  0  0
   14.5955    9.6131   12.4721 H   0  0  0  0  0  0  0  0  0  0  0  0
   16.5703    8.7377   11.2155 C   0  0  0  0  0  0  0  0  0  0  0  0
   17.8227    9.2805   10.9659 C   0  0  0  0  0  0  0  0  0  0  0  0
   18.9599    8.6273   11.4239 C   0  0  0  0  0  0  0  0  0  0  0  0
   18.8762    7.4341   12.1255 C   0  0  0  0  0  0  0  0  0  0  0  0
   17.6294    6.8791   12.3677 C   0  0  0  0  0  0  0  0  0  0  0  0
   16.4822    7.5309   11.9096 C   0  0  0  0  0  0  0  0  0  0  0  0
   14.9235    8.7932    9.3907 C   0  0  0  0  0  0  0  0  0  0  0  0
   13.6764    7.9109    9.5578 C   0  0  0  0  0  0  0  0  0  0  0  0
   13.7057    6.9532    8.3509 C   0  0  0  0  0  0  0  0  0  0  0  0
   15.0108    7.2403    7.6841 C   0  0  0  0  0  0  0  0  0  0  0  0
   15.8907    7.8167    8.7769 C   0  0  0  0  0  0  0  0  0  0  0  0
   15.2865   15.1674   10.1758 C   0  0  0  0  0  0  0  0  0  0  0  0
   16.7368   15.4134   10.6191 C   0  0  0  0  0  0  0  0  0  0  0  0
   17.6743   15.4288    9.4072 C   0  0  0  0  0  0  0  0  0  0  0  0
   18.8633   14.7768    9.8254 O   0  0  0  0  0  0  0  0  0  0  0  0
   20.1283   12.8241    9.9970 C   0  0  0  0  0  0  0  0  0  0  0  0
   20.4670   11.5591    9.5542 C   0  0  0  0  0  0  0  0  0  0  0  0
   19.8139   11.0301    8.4543 C   0  0  0  0  0  0  0  0  0  0  0  0
   18.8257   11.7517    7.7918 C   0  0  0  0  0  0  0  0  0  0  0  0
   18.4849   13.0239    8.2354 C   0  0  0  0  0  0  0  0  0  0  0  0
   19.1444   13.5483    9.3394 C   0  0  0  0  0  0  0  0  0  0  0  0
   20.1648    9.7762    8.0334 C   0  0  0  0  0  0  0  0  0  0  0  0
   20.4149    8.8210    7.7286 N   0  0  0  0  0  0  0  0  0  0  0  0
 14 13  2  0  0  0
 14 15  1  0  0  0
 13 12  1  0  0  0
 15 10  2  0  0  0
  8  7  1  0  0  0
 12 11  2  0  0  0
 10 11  1  0  0  0
 10  7  1  0  0  0
  5  4  1  0  0  0
  5  6  1  0  0  0
  7  6  1  0  0  0
  7 16  1  0  0  0
  4  1  1  0  0  0
 17 16  1  0  0  0
 17 18  1  0  0  0
  6  3  1  0  0  0
 22 23  1  0  0  0
 22 21  1  0  0  0
  1 21  1  0  0  0
  1  2  1  0  0  0
 16 20  1  0  0  0
  3  2  1  0  0  0
 23 24  1  0  0  0
 18 19  1  0  0  0
 24 30  1  0  0  0
 20 19  1  0  0  0
 30 29  2  0  0  0
 30 25  1  0  0  0
 29 28  1  0  0  0
 25 26  2  0  0  0
 28 27  2  0  0  0
 26 27  1  0  0  0
 27 31  1  0  0  0
 31 32  3  0  0  0
  8  9  1  0  0  0
M  END
> <minimizedAffinity>
-6.58605

$$$$
4OG4_2VK_A_602


 32 35  0  0  0  0  0  0  0  0999 V2000
    8.9730   18.8393   12.7651 N   0  0  0  0  0  0  0  0  0  0  0  0
   10.1968   18.9967   11.9576 C   0  0  0  0  0  0  0  0  0  0  0  0
   10.5786   17.7165   11.2095 C   0  0  0  0  0  0  0  0  0  0  0  0
    9.1491   17.7137   13.7024 C   0  0  0  0  0  0  0  0  0  0  0  0
    9.5125   16.4027   12.9921 C   0  0  0  0  0  0  0  0  0  0  0  0
   10.8070   16.5883   12.2069 C   0  0  0  0  0  0  0  0  0  0  0  0
   11.2828   15.2995   11.4896 C   0  0  0  0  0  0  0  0  0  0  0  0
   10.5811   14.2361   12.0188 O   0  0  0  0  0  0  0  0  0  0  0  0
   10.7797   14.1565   12.9649 H   0  0  0  0  0  0  0  0  0  0  0  0
   12.7016   15.0853   11.6654 C   0  0  0  0  0  0  0  0  0  0  0  0
   13.5972   16.0754   11.2874 C   0  0  0  0  0  0  0  0  0  0  0  0
   14.9618   15.8637   11.4383 C   0  0  0  0  0  0  0  0  0  0  0  0
   15.4572   14.6766   11.9563 C   0  0  0  0  0  0  0  0  0  0  0  0
   14.5693   13.6778   12.3244 C   0  0  0  0  0  0  0  0  0  0  0  0
   13.1961   13.8846   12.1749 C   0  0  0  0  0  0  0  0  0  0  0  0
   10.9167   15.3591    9.9968 C   0  0  0  0  0  0  0  0  0  0  0  0
    9.5156   14.7946    9.7143 C   0  0  0  0  0  0  0  0  0  0  0  0
    9.5468   14.3857    8.2289 C   0  0  0  0  0  0  0  0  0  0  0  0
   10.9680   14.5924    7.8194 C   0  0  0  0  0  0  0  0  0  0  0  0
   11.7651   14.4917    9.1061 C   0  0  0  0  0  0  0  0  0  0  0  0
    8.7470   20.0849   13.5251 C   0  0  0  0  0  0  0  0  0  0  0  0
   10.0438   20.8801   13.7397 C   0  0  0  0  0  0  0  0  0  0  0  0
    9.7587   22.1783   14.5021 C   0  0  0  0  0  0  0  0  0  0  0  0
   10.1066   23.2336   13.6196 O   0  0  0  0  0  0  0  0  0  0  0  0
    9.3727   23.8561   11.4943 C   0  0  0  0  0  0  0  0  0  0  0  0
    8.4288   24.4222   10.6578 C   0  0  0  0  0  0  0  0  0  0  0  0
    7.2601   24.9274   11.2009 C   0  0  0  0  0  0  0  0  0  0  0  0
    7.0242   24.8731   12.5710 C   0  0  0  0  0  0  0  0  0  0  0  0
    7.9727   24.3051   13.4132 C   0  0  0  0  0  0  0  0  0  0  0  0
    9.1430   23.8003   12.8614 C   0  0  0  0  0  0  0  0  0  0  0  0
    6.3395   25.4830   10.3544 C   0  0  0  0  0  0  0  0  0  0  0  0
    5.6549   25.8941    9.6986 N   0  0  0  0  0  0  0  0  0  0  0  0
 14 13  2  0  0  0
 14 15  1  0  0  0
 13 12  1  0  0  0
 15 10  2  0  0  0
  8  7  1  0  0  0
 12 11  2  0  0  0
 10 11  1  0  0  0
 10  7  1  0  0  0
  5  4  1  0  0  0
  5  6  1  0  0  0
  7  6  1  0  0  0
  7 16  1  0  0  0
  4  1  1  0  0  0
 17 16  1  0  0  0
 17 18  1  0  0  0
  6  3  1  0  0  0
 22 23  1  0  0  0
 22 21  1  0  0  0
  1 21  1  0  0  0
  1  2  1  0  0  0
 16 20  1  0  0  0
  3  2  1  0  0  0
 23 24  1  0  0  0
 18 19  1  0  0  0
 24 30  1  0  0  0
 20 19  1  0  0  0
 30 29  2  0  0  0
 30 25  1  0  0  0
 29 28  1  0  0  0
 25 26  2  0  0  0
 28 27  2  0  0  0
 26 27  1  0  0  0
 27 31  1  0  0  0
 31 32  3  0  0  0
  8  9  1  0  0  0
M  END
> <minimizedAffinity>
-6.52864

$$$$
