1QF0_TI2_A_317


 40 42  0  0  0  0  0  0  0  0999 V2000
   36.2664   41.9877   -3.2298 C   0  0  0  0  0  0  0  0  0  0  0  0
   35.4371   41.6925   -5.4762 C   0  0  0  0  0  0  0  0  0  0  0  0
   36.4304   42.2370   -5.9710 O   0  0  0  0  0  0  0  0  0  0  0  0
   35.2608   41.5474   -4.1731 N   0  0  0  0  0  0  0  0  0  0  0  0
   34.4323   41.1332   -3.8396 H   0  0  0  0  0  0  0  0  0  0  0  0
   34.1064   42.7053   -7.4498 S   0  0  0  0  0  0  0  0  0  0  0  0
   34.2935   41.2379   -6.3604 C   0  0  0  0  0  0  0  0  0  0  0  0
   33.1003   42.4851   -8.3380 H   0  0  0  0  0  0  0  0  0  0  0  0
   34.6914   39.9808   -7.1156 C   0  0  0  0  0  0  0  0  0  0  0  0
   33.5321   39.2422   -7.6585 C   0  0  0  0  0  0  0  0  0  0  0  0
   32.9548   39.6207   -8.8543 C   0  0  0  0  0  0  0  0  0  0  0  0
   32.9714   38.1928   -6.9298 C   0  0  0  0  0  0  0  0  0  0  0  0
   31.8238   38.9712   -9.3241 C   0  0  0  0  0  0  0  0  0  0  0  0
   31.8490   37.5378   -7.3856 C   0  0  0  0  0  0  0  0  0  0  0  0
   31.2656   37.9265   -8.5884 C   0  0  0  0  0  0  0  0  0  0  0  0
   37.4830   41.0807   -3.1822 C   0  0  0  0  0  0  0  0  0  0  0  0
   38.6262   41.5376   -3.3040 O   0  0  0  0  0  0  0  0  0  0  0  0
   37.2082   39.7950   -3.0203 N   0  0  0  0  0  0  0  0  0  0  0  0
   36.2605   39.5306   -2.9850 H   0  0  0  0  0  0  0  0  0  0  0  0
   38.2045   38.7498   -2.8914 C   0  0  0  0  0  0  0  0  0  0  0  0
   38.4784   38.1631   -4.2801 C   0  0  0  0  0  0  0  0  0  0  0  0
   37.5150   37.9143   -5.0370 O   0  0  0  0  0  0  0  0  0  0  0  0
   39.6570   37.9919   -4.6263 O   0  0  0  0  0  0  0  0  0  0  0  0
   40.3534   38.1897   -4.0315 H   0  0  0  0  0  0  0  0  0  0  0  0
   37.5954   37.7056   -1.9618 C   0  0  0  0  0  0  0  0  0  0  0  0
   38.4927   36.6314   -1.3755 C   0  0  0  0  0  0  0  0  0  0  0  0
   39.8254   36.8986   -1.0553 C   0  0  0  0  0  0  0  0  0  0  0  0
   40.6123   35.8875   -0.4843 C   0  0  0  0  0  0  0  0  0  0  0  0
   37.9365   35.3697   -1.1389 C   0  0  0  0  0  0  0  0  0  0  0  0
   38.7201   34.3625   -0.5660 C   0  0  0  0  0  0  0  0  0  0  0  0
   40.0570   34.6209   -0.2377 C   0  0  0  0  0  0  0  0  0  0  0  0
   40.8146   33.6415    0.3245 O   0  0  0  0  0  0  0  0  0  0  0  0
   41.7094   33.8102    0.5456 H   0  0  0  0  0  0  0  0  0  0  0  0
   35.6576   42.0768   -1.8346 C   0  0  0  0  0  0  0  0  0  0  0  0
   36.5361   42.7618   -0.8493 C   0  0  0  0  0  0  0  0  0  0  0  0
   36.9145   44.0891   -1.0527 C   0  0  0  0  0  0  0  0  0  0  0  0
   37.0133   42.0856    0.2669 C   0  0  0  0  0  0  0  0  0  0  0  0
   37.7641   44.7401   -0.1500 C   0  0  0  0  0  0  0  0  0  0  0  0
   37.8635   42.7267    1.1759 C   0  0  0  0  0  0  0  0  0  0  0  0
   38.2390   44.0559    0.9664 C   0  0  0  0  0  0  0  0  0  0  0  0
  6  7  1  0  0  0
  7  9  1  0  0  0
  7  2  1  0  0  0
  9 10  1  0  0  0
 10 11  2  0  0  0
 10 12  1  0  0  0
 11 13  1  0  0  0
 12 14  2  0  0  0
 13 15  2  0  0  0
 14 15  1  0  0  0
  2  3  2  0  0  0
  2  4  1  0  0  0
  4  1  1  0  0  0
  1 34  1  0  0  0
  1 16  1  0  0  0
 34 35  1  0  0  0
 35 36  2  0  0  0
 35 37  1  0  0  0
 36 38  1  0  0  0
 37 39  2  0  0  0
 38 40  2  0  0  0
 39 40  1  0  0  0
 16 17  2  0  0  0
 16 18  1  0  0  0
 18 20  1  0  0  0
 20 25  1  0  0  0
 20 21  1  0  0  0
 25 26  1  0  0  0
 26 27  2  0  0  0
 26 29  1  0  0  0
 27 28  1  0  0  0
 28 31  2  0  0  0
 29 30  2  0  0  0
 30 31  1  0  0  0
 31 32  1  0  0  0
 21 22  2  0  0  0
 21 23  1  0  0  0
  6  8  1  0  0  0
  4  5  1  0  0  0
 18 19  1  0  0  0
 32 33  1  0  0  0
 23 24  1  0  0  0
M  END
> <minimizedAffinity>
-10.40120

$$$$
1QF0_TI2_A_317


 40 42  0  0  0  0  0  0  0  0999 V2000
   36.4447   41.8099   -3.3438 C   0  0  0  0  0  0  0  0  0  0  0  0
   35.5052   41.6502   -5.5603 C   0  0  0  0  0  0  0  0  0  0  0  0
   36.4413   42.2840   -6.0601 O   0  0  0  0  0  0  0  0  0  0  0  0
   35.4101   41.3931   -4.2661 N   0  0  0  0  0  0  0  0  0  0  0  0
   34.6228   40.9105   -3.9248 H   0  0  0  0  0  0  0  0  0  0  0  0
   34.1068   42.6964   -7.4686 S   0  0  0  0  0  0  0  0  0  0  0  0
   34.3370   41.2072   -6.4178 C   0  0  0  0  0  0  0  0  0  0  0  0
   33.0744   42.4888   -8.3292 H   0  0  0  0  0  0  0  0  0  0  0  0
   34.7183   39.9694   -7.2123 C   0  0  0  0  0  0  0  0  0  0  0  0
   33.5462   39.2175   -7.7075 C   0  0  0  0  0  0  0  0  0  0  0  0
   32.9507   39.5541   -8.9069 C   0  0  0  0  0  0  0  0  0  0  0  0
   32.9926   38.1994   -6.9305 C   0  0  0  0  0  0  0  0  0  0  0  0
   31.8086   38.8938   -9.3329 C   0  0  0  0  0  0  0  0  0  0  0  0
   31.8594   37.5342   -7.3425 C   0  0  0  0  0  0  0  0  0  0  0  0
   31.2577   37.8807   -8.5491 C   0  0  0  0  0  0  0  0  0  0  0  0
   37.5881   40.8169   -3.2356 C   0  0  0  0  0  0  0  0  0  0  0  0
   38.7593   41.2000   -3.1260 O   0  0  0  0  0  0  0  0  0  0  0  0
   37.2222   39.5448   -3.2857 N   0  0  0  0  0  0  0  0  0  0  0  0
   36.2678   39.3484   -3.4259 H   0  0  0  0  0  0  0  0  0  0  0  0
   38.1281   38.4214   -3.1485 C   0  0  0  0  0  0  0  0  0  0  0  0
   37.9898   37.8532   -1.7323 C   0  0  0  0  0  0  0  0  0  0  0  0
   39.0058   37.4169   -1.1491 O   0  0  0  0  0  0  0  0  0  0  0  0
   36.8743   37.8831   -1.1909 O   0  0  0  0  0  0  0  0  0  0  0  0
   36.1349   38.2175   -1.6595 H   0  0  0  0  0  0  0  0  0  0  0  0
   39.5266   38.9824   -3.3835 C   0  0  0  0  0  0  0  0  0  0  0  0
   40.5178   38.1686   -4.1948 C   0  0  0  0  0  0  0  0  0  0  0  0
   40.1015   37.3991   -5.2832 C   0  0  0  0  0  0  0  0  0  0  0  0
   41.0539   36.6875   -6.0276 C   0  0  0  0  0  0  0  0  0  0  0  0
   41.8685   38.2337   -3.8363 C   0  0  0  0  0  0  0  0  0  0  0  0
   42.8187   37.5270   -4.5808 C   0  0  0  0  0  0  0  0  0  0  0  0
   42.4125   36.7550   -5.6766 C   0  0  0  0  0  0  0  0  0  0  0  0
   43.3392   36.0738   -6.4021 O   0  0  0  0  0  0  0  0  0  0  0  0
   43.0716   35.5561   -7.1358 H   0  0  0  0  0  0  0  0  0  0  0  0
   35.8420   42.0271   -1.9601 C   0  0  0  0  0  0  0  0  0  0  0  0
   36.6756   42.8900   -1.0812 C   0  0  0  0  0  0  0  0  0  0  0  0
   37.2191   42.3733    0.0952 C   0  0  0  0  0  0  0  0  0  0  0  0
   36.9006   44.2231   -1.4022 C   0  0  0  0  0  0  0  0  0  0  0  0
   37.9823   43.1796    0.9483 C   0  0  0  0  0  0  0  0  0  0  0  0
   37.6620   45.0384   -0.5563 C   0  0  0  0  0  0  0  0  0  0  0  0
   38.2033   44.5151    0.6206 C   0  0  0  0  0  0  0  0  0  0  0  0
  6  7  1  0  0  0
  7  9  1  0  0  0
  7  2  1  0  0  0
  9 10  1  0  0  0
 10 11  2  0  0  0
 10 12  1  0  0  0
 11 13  1  0  0  0
 12 14  2  0  0  0
 13 15  2  0  0  0
 14 15  1  0  0  0
  2  3  2  0  0  0
  2  4  1  0  0  0
  4  1  1  0  0  0
  1 34  1  0  0  0
  1 16  1  0  0  0
 34 35  1  0  0  0
 35 36  2  0  0  0
 35 37  1  0  0  0
 36 38  1  0  0  0
 37 39  2  0  0  0
 38 40  2  0  0  0
 39 40  1  0  0  0
 16 17  2  0  0  0
 16 18  1  0  0  0
 18 20  1  0  0  0
 20 25  1  0  0  0
 20 21  1  0  0  0
 25 26  1  0  0  0
 26 27  2  0  0  0
 26 29  1  0  0  0
 27 28  1  0  0  0
 28 31  2  0  0  0
 29 30  2  0  0  0
 30 31  1  0  0  0
 31 32  1  0  0  0
 21 22  2  0  0  0
 21 23  1  0  0  0
  6  8  1  0  0  0
  4  5  1  0  0  0
 18 19  1  0  0  0
 32 33  1  0  0  0
 23 24  1  0  0  0
M  END
> <minimizedAffinity>
-9.66786

$$$$
1QF0_TI2_A_317


 40 42  0  0  0  0  0  0  0  0999 V2000
   36.7757   41.4785   -4.0063 C   0  0  0  0  0  0  0  0  0  0  0  0
   35.3525   41.8958   -5.9093 C   0  0  0  0  0  0  0  0  0  0  0  0
   35.1526   43.0674   -5.5698 O   0  0  0  0  0  0  0  0  0  0  0  0
   36.0976   41.0537   -5.2124 N   0  0  0  0  0  0  0  0  0  0  0  0
   36.1925   40.1230   -5.5190 H   0  0  0  0  0  0  0  0  0  0  0  0
   34.0727   39.7143   -6.4526 S   0  0  0  0  0  0  0  0  0  0  0  0
   34.6542   41.3218   -7.1256 C   0  0  0  0  0  0  0  0  0  0  0  0
   33.4038   39.0328   -7.4210 H   0  0  0  0  0  0  0  0  0  0  0  0
   33.5180   42.2371   -7.5501 C   0  0  0  0  0  0  0  0  0  0  0  0
   33.3921   42.3586   -9.0176 C   0  0  0  0  0  0  0  0  0  0  0  0
   33.4457   43.5962   -9.6276 C   0  0  0  0  0  0  0  0  0  0  0  0
   33.1526   41.2235   -9.7926 C   0  0  0  0  0  0  0  0  0  0  0  0
   33.2550   43.7130  -10.9957 C   0  0  0  0  0  0  0  0  0  0  0  0
   32.9632   41.3249  -11.1529 C   0  0  0  0  0  0  0  0  0  0  0  0
   33.0111   42.5751  -11.7636 C   0  0  0  0  0  0  0  0  0  0  0  0
   37.8849   40.5349   -3.5771 C   0  0  0  0  0  0  0  0  0  0  0  0
   38.9662   40.9672   -3.1595 O   0  0  0  0  0  0  0  0  0  0  0  0
   37.5969   39.2483   -3.7055 N   0  0  0  0  0  0  0  0  0  0  0  0
   36.7250   39.0114   -4.0966 H   0  0  0  0  0  0  0  0  0  0  0  0
   38.4750   38.1645   -3.3109 C   0  0  0  0  0  0  0  0  0  0  0  0
   38.6070   37.1909   -4.4866 C   0  0  0  0  0  0  0  0  0  0  0  0
   39.6847   37.1412   -5.1182 O   0  0  0  0  0  0  0  0  0  0  0  0
   37.6482   36.4491   -4.7490 O   0  0  0  0  0  0  0  0  0  0  0  0
   36.8556   36.5150   -4.2536 H   0  0  0  0  0  0  0  0  0  0  0  0
   37.8029   37.4976   -2.1154 C   0  0  0  0  0  0  0  0  0  0  0  0
   38.5400   36.3938   -1.3797 C   0  0  0  0  0  0  0  0  0  0  0  0
   39.6955   36.6628   -0.6432 C   0  0  0  0  0  0  0  0  0  0  0  0
   40.3285   35.6203    0.0497 C   0  0  0  0  0  0  0  0  0  0  0  0
   38.0110   35.1000   -1.4386 C   0  0  0  0  0  0  0  0  0  0  0  0
   38.6401   34.0611   -0.7446 C   0  0  0  0  0  0  0  0  0  0  0  0
   39.7976   34.3205    0.0001 C   0  0  0  0  0  0  0  0  0  0  0  0
   40.4037   33.3098    0.6784 O   0  0  0  0  0  0  0  0  0  0  0  0
   41.1782   33.4790    1.1778 H   0  0  0  0  0  0  0  0  0  0  0  0
   35.7676   41.6107   -2.8699 C   0  0  0  0  0  0  0  0  0  0  0  0
   36.3151   42.3008   -1.6716 C   0  0  0  0  0  0  0  0  0  0  0  0
   36.6903   43.6424   -1.7469 C   0  0  0  0  0  0  0  0  0  0  0  0
   36.4865   41.6162   -0.4746 C   0  0  0  0  0  0  0  0  0  0  0  0
   37.2341   44.2993   -0.6364 C   0  0  0  0  0  0  0  0  0  0  0  0
   37.0296   42.2632    0.6419 C   0  0  0  0  0  0  0  0  0  0  0  0
   37.4036   43.6068    0.5601 C   0  0  0  0  0  0  0  0  0  0  0  0
  6  7  1  0  0  0
  7  9  1  0  0  0
  7  2  1  0  0  0
  9 10  1  0  0  0
 10 11  2  0  0  0
 10 12  1  0  0  0
 11 13  1  0  0  0
 12 14  2  0  0  0
 13 15  2  0  0  0
 14 15  1  0  0  0
  2  3  2  0  0  0
  2  4  1  0  0  0
  4  1  1  0  0  0
  1 34  1  0  0  0
  1 16  1  0  0  0
 34 35  1  0  0  0
 35 36  2  0  0  0
 35 37  1  0  0  0
 36 38  1  0  0  0
 37 39  2  0  0  0
 38 40  2  0  0  0
 39 40  1  0  0  0
 16 17  2  0  0  0
 16 18  1  0  0  0
 18 20  1  0  0  0
 20 25  1  0  0  0
 20 21  1  0  0  0
 25 26  1  0  0  0
 26 27  2  0  0  0
 26 29  1  0  0  0
 27 28  1  0  0  0
 28 31  2  0  0  0
 29 30  2  0  0  0
 30 31  1  0  0  0
 31 32  1  0  0  0
 21 22  2  0  0  0
 21 23  1  0  0  0
  6  8  1  0  0  0
  4  5  1  0  0  0
 18 19  1  0  0  0
 32 33  1  0  0  0
 23 24  1  0  0  0
M  END
> <minimizedAffinity>
-9.37962

$$$$
1QF0_TI2_A_317


 40 42  0  0  0  0  0  0  0  0999 V2000
   36.3863   41.7987   -3.4729 C   0  0  0  0  0  0  0  0  0  0  0  0
   35.5148   41.6653   -5.7188 C   0  0  0  0  0  0  0  0  0  0  0  0
   36.4385   42.3486   -6.1744 O   0  0  0  0  0  0  0  0  0  0  0  0
   35.3945   41.3684   -4.4352 N   0  0  0  0  0  0  0  0  0  0  0  0
   34.6178   40.8463   -4.1296 H   0  0  0  0  0  0  0  0  0  0  0  0
   33.8565   42.8040   -7.3452 S   0  0  0  0  0  0  0  0  0  0  0  0
   34.3888   41.2018   -6.6207 C   0  0  0  0  0  0  0  0  0  0  0  0
   32.8252   42.5919   -8.2060 H   0  0  0  0  0  0  0  0  0  0  0  0
   34.9232   40.2268   -7.6565 C   0  0  0  0  0  0  0  0  0  0  0  0
   34.2646   38.9050   -7.5991 C   0  0  0  0  0  0  0  0  0  0  0  0
   33.0721   38.7427   -6.9222 C   0  0  0  0  0  0  0  0  0  0  0  0
   34.8802   37.7943   -8.1770 C   0  0  0  0  0  0  0  0  0  0  0  0
   32.4946   37.4875   -6.8094 C   0  0  0  0  0  0  0  0  0  0  0  0
   34.3165   36.5421   -8.0741 C   0  0  0  0  0  0  0  0  0  0  0  0
   33.1176   36.3809   -7.3851 C   0  0  0  0  0  0  0  0  0  0  0  0
   37.6091   40.8999   -3.4284 C   0  0  0  0  0  0  0  0  0  0  0  0
   38.7286   41.3560   -3.1651 O   0  0  0  0  0  0  0  0  0  0  0  0
   37.3701   39.6270   -3.7065 N   0  0  0  0  0  0  0  0  0  0  0  0
   36.4503   39.3774   -3.9532 H   0  0  0  0  0  0  0  0  0  0  0  0
   38.3676   38.5755   -3.6732 C   0  0  0  0  0  0  0  0  0  0  0  0
   37.8029   37.3447   -4.3900 C   0  0  0  0  0  0  0  0  0  0  0  0
   37.5718   36.3083   -3.7302 O   0  0  0  0  0  0  0  0  0  0  0  0
   37.5526   37.4305   -5.6017 O   0  0  0  0  0  0  0  0  0  0  0  0
   37.7396   38.2240   -6.0636 H   0  0  0  0  0  0  0  0  0  0  0  0
   38.6200   38.2869   -2.1973 C   0  0  0  0  0  0  0  0  0  0  0  0
   39.7711   37.3755   -1.8134 C   0  0  0  0  0  0  0  0  0  0  0  0
   39.6463   36.4532   -0.7723 C   0  0  0  0  0  0  0  0  0  0  0  0
   40.7226   35.6060   -0.4705 C   0  0  0  0  0  0  0  0  0  0  0  0
   40.9551   37.4677   -2.5528 C   0  0  0  0  0  0  0  0  0  0  0  0
   42.0272   36.6203   -2.2543 C   0  0  0  0  0  0  0  0  0  0  0  0
   41.9114   35.6891   -1.2145 C   0  0  0  0  0  0  0  0  0  0  0  0
   42.9532   34.8626   -0.9303 O   0  0  0  0  0  0  0  0  0  0  0  0
   42.8799   34.2382   -0.2355 H   0  0  0  0  0  0  0  0  0  0  0  0
   35.7616   41.8577   -2.0832 C   0  0  0  0  0  0  0  0  0  0  0  0
   36.5638   42.6430   -1.1076 C   0  0  0  0  0  0  0  0  0  0  0  0
   37.0553   42.0327    0.0466 C   0  0  0  0  0  0  0  0  0  0  0  0
   36.8103   43.9945   -1.3159 C   0  0  0  0  0  0  0  0  0  0  0  0
   37.7878   42.7641    0.9894 C   0  0  0  0  0  0  0  0  0  0  0  0
   37.5414   44.7355   -0.3797 C   0  0  0  0  0  0  0  0  0  0  0  0
   38.0305   44.1186    0.7744 C   0  0  0  0  0  0  0  0  0  0  0  0
  6  7  1  0  0  0
  7  9  1  0  0  0
  7  2  1  0  0  0
  9 10  1  0  0  0
 10 11  2  0  0  0
 10 12  1  0  0  0
 11 13  1  0  0  0
 12 14  2  0  0  0
 13 15  2  0  0  0
 14 15  1  0  0  0
  2  3  2  0  0  0
  2  4  1  0  0  0
  4  1  1  0  0  0
  1 34  1  0  0  0
  1 16  1  0  0  0
 34 35  1  0  0  0
 35 36  2  0  0  0
 35 37  1  0  0  0
 36 38  1  0  0  0
 37 39  2  0  0  0
 38 40  2  0  0  0
 39 40  1  0  0  0
 16 17  2  0  0  0
 16 18  1  0  0  0
 18 20  1  0  0  0
 20 25  1  0  0  0
 20 21  1  0  0  0
 25 26  1  0  0  0
 26 27  2  0  0  0
 26 29  1  0  0  0
 27 28  1  0  0  0
 28 31  2  0  0  0
 29 30  2  0  0  0
 30 31  1  0  0  0
 31 32  1  0  0  0
 21 22  2  0  0  0
 21 23  1  0  0  0
  6  8  1  0  0  0
  4  5  1  0  0  0
 18 19  1  0  0  0
 32 33  1  0  0  0
 23 24  1  0  0  0
M  END
> <minimizedAffinity>
-9.29791

$$$$
1QF0_TI2_A_317


 40 42  0  0  0  0  0  0  0  0999 V2000
   34.0658   40.5060   -6.9640 C   0  0  0  0  0  0  0  0  0  0  0  0
   33.1960   41.4075   -9.0260 C   0  0  0  0  0  0  0  0  0  0  0  0
   32.3512   42.0882   -8.4337 O   0  0  0  0  0  0  0  0  0  0  0  0
   34.0455   40.6035   -8.4079 N   0  0  0  0  0  0  0  0  0  0  0  0
   34.6740   40.0626   -8.9387 H   0  0  0  0  0  0  0  0  0  0  0  0
   33.2714   39.5763  -10.8517 S   0  0  0  0  0  0  0  0  0  0  0  0
   33.2369   41.3866  -10.5407 C   0  0  0  0  0  0  0  0  0  0  0  0
   33.3105   39.3472  -12.1916 H   0  0  0  0  0  0  0  0  0  0  0  0
   31.9981   42.0649  -11.1013 C   0  0  0  0  0  0  0  0  0  0  0  0
   32.3094   43.2769  -11.8876 C   0  0  0  0  0  0  0  0  0  0  0  0
   33.2933   44.1516  -11.4710 C   0  0  0  0  0  0  0  0  0  0  0  0
   31.5627   43.5791  -13.0268 C   0  0  0  0  0  0  0  0  0  0  0  0
   33.5328   45.3235  -12.1717 C   0  0  0  0  0  0  0  0  0  0  0  0
   31.7914   44.7389  -13.7332 C   0  0  0  0  0  0  0  0  0  0  0  0
   32.7796   45.6218  -13.3065 C   0  0  0  0  0  0  0  0  0  0  0  0
   35.1657   41.3326   -6.3220 C   0  0  0  0  0  0  0  0  0  0  0  0
   35.8670   42.0971   -6.9958 O   0  0  0  0  0  0  0  0  0  0  0  0
   35.3064   41.1478   -5.0178 N   0  0  0  0  0  0  0  0  0  0  0  0
   34.7294   40.4773   -4.5858 H   0  0  0  0  0  0  0  0  0  0  0  0
   36.2502   41.8634   -4.1819 C   0  0  0  0  0  0  0  0  0  0  0  0
   37.4797   40.9754   -3.9639 C   0  0  0  0  0  0  0  0  0  0  0  0
   38.5402   41.4938   -3.5525 O   0  0  0  0  0  0  0  0  0  0  0  0
   37.3700   39.7563   -4.1642 O   0  0  0  0  0  0  0  0  0  0  0  0
   36.5588   39.4034   -4.4729 H   0  0  0  0  0  0  0  0  0  0  0  0
   35.5237   42.1317   -2.8682 C   0  0  0  0  0  0  0  0  0  0  0  0
   36.3078   42.6925   -1.6963 C   0  0  0  0  0  0  0  0  0  0  0  0
   36.5131   41.9401   -0.5379 C   0  0  0  0  0  0  0  0  0  0  0  0
   37.2718   42.4824    0.5098 C   0  0  0  0  0  0  0  0  0  0  0  0
   36.8439   43.9786   -1.8214 C   0  0  0  0  0  0  0  0  0  0  0  0
   37.6037   44.5180   -0.7781 C   0  0  0  0  0  0  0  0  0  0  0  0
   37.8187   43.7706    0.3867 C   0  0  0  0  0  0  0  0  0  0  0  0
   38.5626   44.2953    1.3969 O   0  0  0  0  0  0  0  0  0  0  0  0
   38.7088   43.7986    2.1779 H   0  0  0  0  0  0  0  0  0  0  0  0
   34.2333   39.0481   -6.5501 C   0  0  0  0  0  0  0  0  0  0  0  0
   33.4268   38.1047   -7.3695 C   0  0  0  0  0  0  0  0  0  0  0  0
   32.0339   38.1818   -7.3578 C   0  0  0  0  0  0  0  0  0  0  0  0
   34.0438   37.1205   -8.1321 C   0  0  0  0  0  0  0  0  0  0  0  0
   31.2587   37.2833   -8.1009 C   0  0  0  0  0  0  0  0  0  0  0  0
   33.2783   36.2167   -8.8787 C   0  0  0  0  0  0  0  0  0  0  0  0
   31.8838   36.2989   -8.8625 C   0  0  0  0  0  0  0  0  0  0  0  0
  6  7  1  0  0  0
  7  9  1  0  0  0
  7  2  1  0  0  0
  9 10  1  0  0  0
 10 11  2  0  0  0
 10 12  1  0  0  0
 11 13  1  0  0  0
 12 14  2  0  0  0
 13 15  2  0  0  0
 14 15  1  0  0  0
  2  3  2  0  0  0
  2  4  1  0  0  0
  4  1  1  0  0  0
  1 34  1  0  0  0
  1 16  1  0  0  0
 34 35  1  0  0  0
 35 36  2  0  0  0
 35 37  1  0  0  0
 36 38  1  0  0  0
 37 39  2  0  0  0
 38 40  2  0  0  0
 39 40  1  0  0  0
 16 17  2  0  0  0
 16 18  1  0  0  0
 18 20  1  0  0  0
 20 25  1  0  0  0
 20 21  1  0  0  0
 25 26  1  0  0  0
 26 27  2  0  0  0
 26 29  1  0  0  0
 27 28  1  0  0  0
 28 31  2  0  0  0
 29 30  2  0  0  0
 30 31  1  0  0  0
 31 32  1  0  0  0
 21 22  2  0  0  0
 21 23  1  0  0  0
  6  8  1  0  0  0
  4  5  1  0  0  0
 18 19  1  0  0  0
 32 33  1  0  0  0
 23 24  1  0  0  0
M  END
> <minimizedAffinity>
-9.11403

$$$$
1QF0_TI2_A_317


 40 42  0  0  0  0  0  0  0  0999 V2000
   36.8003   41.4801   -3.1626 C   0  0  0  0  0  0  0  0  0  0  0  0
   38.2008   39.5316   -3.4137 C   0  0  0  0  0  0  0  0  0  0  0  0
   37.3456   38.9375   -4.0797 O   0  0  0  0  0  0  0  0  0  0  0  0
   38.0210   40.7433   -2.9141 N   0  0  0  0  0  0  0  0  0  0  0  0
   38.7290   41.1504   -2.3643 H   0  0  0  0  0  0  0  0  0  0  0  0
   38.9091   37.6950   -1.7352 S   0  0  0  0  0  0  0  0  0  0  0  0
   39.4983   38.8416   -3.0441 C   0  0  0  0  0  0  0  0  0  0  0  0
   39.9572   36.9674   -1.2644 H   0  0  0  0  0  0  0  0  0  0  0  0
   40.0656   38.1222   -4.2564 C   0  0  0  0  0  0  0  0  0  0  0  0
   41.5279   37.9236   -4.1779 C   0  0  0  0  0  0  0  0  0  0  0  0
   42.2757   38.5777   -3.2191 C   0  0  0  0  0  0  0  0  0  0  0  0
   42.1732   37.1197   -5.1182 C   0  0  0  0  0  0  0  0  0  0  0  0
   43.6554   38.4452   -3.1942 C   0  0  0  0  0  0  0  0  0  0  0  0
   43.5429   36.9778   -5.1039 C   0  0  0  0  0  0  0  0  0  0  0  0
   44.2944   37.6442   -4.1399 C   0  0  0  0  0  0  0  0  0  0  0  0
   36.4865   41.6415   -4.6392 C   0  0  0  0  0  0  0  0  0  0  0  0
   37.0749   42.4827   -5.3297 O   0  0  0  0  0  0  0  0  0  0  0  0
   35.5417   40.8328   -5.0954 N   0  0  0  0  0  0  0  0  0  0  0  0
   35.1005   40.2347   -4.4498 H   0  0  0  0  0  0  0  0  0  0  0  0
   35.1115   40.7664   -6.4782 C   0  0  0  0  0  0  0  0  0  0  0  0
   34.4553   42.1002   -6.8495 C   0  0  0  0  0  0  0  0  0  0  0  0
   34.7020   42.6112   -7.9634 O   0  0  0  0  0  0  0  0  0  0  0  0
   33.6630   42.6124   -6.0443 O   0  0  0  0  0  0  0  0  0  0  0  0
   33.5030   42.2004   -5.2181 H   0  0  0  0  0  0  0  0  0  0  0  0
   34.1085   39.6199   -6.5482 C   0  0  0  0  0  0  0  0  0  0  0  0
   33.6489   39.1279   -7.9082 C   0  0  0  0  0  0  0  0  0  0  0  0
   34.4841   39.2051   -9.0247 C   0  0  0  0  0  0  0  0  0  0  0  0
   34.0338   38.7090  -10.2569 C   0  0  0  0  0  0  0  0  0  0  0  0
   32.3706   38.5679   -8.0053 C   0  0  0  0  0  0  0  0  0  0  0  0
   31.9229   38.0697   -9.2333 C   0  0  0  0  0  0  0  0  0  0  0  0
   32.7538   38.1389  -10.3586 C   0  0  0  0  0  0  0  0  0  0  0  0
   32.3181   37.6485  -11.5498 O   0  0  0  0  0  0  0  0  0  0  0  0
   32.8708   37.6929  -12.3051 H   0  0  0  0  0  0  0  0  0  0  0  0
   36.8935   42.8598   -2.5203 C   0  0  0  0  0  0  0  0  0  0  0  0
   37.2244   42.8158   -1.0710 C   0  0  0  0  0  0  0  0  0  0  0  0
   38.2843   43.5732   -0.5717 C   0  0  0  0  0  0  0  0  0  0  0  0
   36.5055   42.0030   -0.2030 C   0  0  0  0  0  0  0  0  0  0  0  0
   38.6275   43.5215    0.7848 C   0  0  0  0  0  0  0  0  0  0  0  0
   36.8402   41.9434    1.1552 C   0  0  0  0  0  0  0  0  0  0  0  0
   37.9029   42.7041    1.6490 C   0  0  0  0  0  0  0  0  0  0  0  0
  6  7  1  0  0  0
  7  9  1  0  0  0
  7  2  1  0  0  0
  9 10  1  0  0  0
 10 11  2  0  0  0
 10 12  1  0  0  0
 11 13  1  0  0  0
 12 14  2  0  0  0
 13 15  2  0  0  0
 14 15  1  0  0  0
  2  3  2  0  0  0
  2  4  1  0  0  0
  4  1  1  0  0  0
  1 34  1  0  0  0
  1 16  1  0  0  0
 34 35  1  0  0  0
 35 36  2  0  0  0
 35 37  1  0  0  0
 36 38  1  0  0  0
 37 39  2  0  0  0
 38 40  2  0  0  0
 39 40  1  0  0  0
 16 17  2  0  0  0
 16 18  1  0  0  0
 18 20  1  0  0  0
 20 25  1  0  0  0
 20 21  1  0  0  0
 25 26  1  0  0  0
 26 27  2  0  0  0
 26 29  1  0  0  0
 27 28  1  0  0  0
 28 31  2  0  0  0
 29 30  2  0  0  0
 30 31  1  0  0  0
 31 32  1  0  0  0
 21 22  2  0  0  0
 21 23  1  0  0  0
  6  8  1  0  0  0
  4  5  1  0  0  0
 18 19  1  0  0  0
 32 33  1  0  0  0
 23 24  1  0  0  0
M  END
> <minimizedAffinity>
-9.10757

$$$$
1QF0_TI2_A_317


 40 42  0  0  0  0  0  0  0  0999 V2000
   34.6976   41.3108   -7.3066 C   0  0  0  0  0  0  0  0  0  0  0  0
   34.6985   39.0398   -8.1213 C   0  0  0  0  0  0  0  0  0  0  0  0
   35.5215   39.3014   -9.0057 O   0  0  0  0  0  0  0  0  0  0  0  0
   34.2293   39.9417   -7.2748 N   0  0  0  0  0  0  0  0  0  0  0  0
   33.5505   39.6773   -6.6126 H   0  0  0  0  0  0  0  0  0  0  0  0
   35.4812   36.7397   -7.2331 S   0  0  0  0  0  0  0  0  0  0  0  0
   34.0962   37.6528   -8.0226 C   0  0  0  0  0  0  0  0  0  0  0  0
   35.1243   35.4394   -7.0560 H   0  0  0  0  0  0  0  0  0  0  0  0
   32.8423   37.6928   -7.1652 C   0  0  0  0  0  0  0  0  0  0  0  0
   31.5996   37.5547   -7.9531 C   0  0  0  0  0  0  0  0  0  0  0  0
   31.3096   38.4426   -8.9700 C   0  0  0  0  0  0  0  0  0  0  0  0
   30.6767   36.5596   -7.6296 C   0  0  0  0  0  0  0  0  0  0  0  0
   30.1098   38.3533   -9.6586 C   0  0  0  0  0  0  0  0  0  0  0  0
   29.4818   36.4584   -8.3066 C   0  0  0  0  0  0  0  0  0  0  0  0
   29.1897   37.3595   -9.3268 C   0  0  0  0  0  0  0  0  0  0  0  0
   35.3660   41.7467   -6.0150 C   0  0  0  0  0  0  0  0  0  0  0  0
   35.0738   42.8206   -5.4746 O   0  0  0  0  0  0  0  0  0  0  0  0
   36.2736   40.9015   -5.5494 N   0  0  0  0  0  0  0  0  0  0  0  0
   36.4673   40.0979   -6.0842 H   0  0  0  0  0  0  0  0  0  0  0  0
   37.0015   41.0763   -4.3080 C   0  0  0  0  0  0  0  0  0  0  0  0
   37.5900   39.7239   -3.8930 C   0  0  0  0  0  0  0  0  0  0  0  0
   38.4189   39.6814   -2.9582 O   0  0  0  0  0  0  0  0  0  0  0  0
   37.1911   38.7034   -4.4743 O   0  0  0  0  0  0  0  0  0  0  0  0
   36.5688   38.7743   -5.1712 H   0  0  0  0  0  0  0  0  0  0  0  0
   35.9780   41.5681   -3.2902 C   0  0  0  0  0  0  0  0  0  0  0  0
   36.4636   42.3179   -2.0634 C   0  0  0  0  0  0  0  0  0  0  0  0
   36.4581   41.7195   -0.8017 C   0  0  0  0  0  0  0  0  0  0  0  0
   36.9462   42.4350    0.3016 C   0  0  0  0  0  0  0  0  0  0  0  0
   36.9440   43.6201   -2.2384 C   0  0  0  0  0  0  0  0  0  0  0  0
   37.4344   44.3322   -1.1388 C   0  0  0  0  0  0  0  0  0  0  0  0
   37.4367   43.7403    0.1306 C   0  0  0  0  0  0  0  0  0  0  0  0
   37.9193   44.4328    1.1967 O   0  0  0  0  0  0  0  0  0  0  0  0
   37.9227   44.0405    2.0476 H   0  0  0  0  0  0  0  0  0  0  0  0
   33.5303   42.2460   -7.6028 C   0  0  0  0  0  0  0  0  0  0  0  0
   33.3165   42.4825   -9.0554 C   0  0  0  0  0  0  0  0  0  0  0  0
   32.8484   41.4519   -9.8709 C   0  0  0  0  0  0  0  0  0  0  0  0
   33.6049   43.7173   -9.6237 C   0  0  0  0  0  0  0  0  0  0  0  0
   32.6687   41.6491  -11.2455 C   0  0  0  0  0  0  0  0  0  0  0  0
   33.4292   43.9254  -10.9970 C   0  0  0  0  0  0  0  0  0  0  0  0
   32.9604   42.8892  -11.8084 C   0  0  0  0  0  0  0  0  0  0  0  0
  6  7  1  0  0  0
  7  9  1  0  0  0
  7  2  1  0  0  0
  9 10  1  0  0  0
 10 11  2  0  0  0
 10 12  1  0  0  0
 11 13  1  0  0  0
 12 14  2  0  0  0
 13 15  2  0  0  0
 14 15  1  0  0  0
  2  3  2  0  0  0
  2  4  1  0  0  0
  4  1  1  0  0  0
  1 34  1  0  0  0
  1 16  1  0  0  0
 34 35  1  0  0  0
 35 36  2  0  0  0
 35 37  1  0  0  0
 36 38  1  0  0  0
 37 39  2  0  0  0
 38 40  2  0  0  0
 39 40  1  0  0  0
 16 17  2  0  0  0
 16 18  1  0  0  0
 18 20  1  0  0  0
 20 25  1  0  0  0
 20 21  1  0  0  0
 25 26  1  0  0  0
 26 27  2  0  0  0
 26 29  1  0  0  0
 27 28  1  0  0  0
 28 31  2  0  0  0
 29 30  2  0  0  0
 30 31  1  0  0  0
 31 32  1  0  0  0
 21 22  2  0  0  0
 21 23  1  0  0  0
  6  8  1  0  0  0
  4  5  1  0  0  0
 18 19  1  0  0  0
 32 33  1  0  0  0
 23 24  1  0  0  0
M  END
> <minimizedAffinity>
-9.08115

$$$$
1QF0_TI2_A_317


 40 42  0  0  0  0  0  0  0  0999 V2000
   34.0069   37.8177   -8.1186 C   0  0  0  0  0  0  0  0  0  0  0  0
   35.5285   35.9461   -8.0639 C   0  0  0  0  0  0  0  0  0  0  0  0
   35.4191   35.7537   -9.2800 O   0  0  0  0  0  0  0  0  0  0  0  0
   34.8747   36.8965   -7.4163 N   0  0  0  0  0  0  0  0  0  0  0  0
   34.9802   36.9786   -6.4409 H   0  0  0  0  0  0  0  0  0  0  0  0
   35.8556   33.3856   -7.8947 S   0  0  0  0  0  0  0  0  0  0  0  0
   36.3676   35.0134   -7.2141 C   0  0  0  0  0  0  0  0  0  0  0  0
   36.5182   32.3929   -7.2426 H   0  0  0  0  0  0  0  0  0  0  0  0
   37.8432   35.3100   -7.4227 C   0  0  0  0  0  0  0  0  0  0  0  0
   38.4824   35.9209   -6.2384 C   0  0  0  0  0  0  0  0  0  0  0  0
   39.6257   36.6836   -6.3717 C   0  0  0  0  0  0  0  0  0  0  0  0
   37.9680   35.6757   -4.9649 C   0  0  0  0  0  0  0  0  0  0  0  0
   40.2628   37.1948   -5.2517 C   0  0  0  0  0  0  0  0  0  0  0  0
   38.5898   36.1788   -3.8439 C   0  0  0  0  0  0  0  0  0  0  0  0
   39.7461   36.9418   -3.9815 C   0  0  0  0  0  0  0  0  0  0  0  0
   34.6466   39.1712   -8.3710 C   0  0  0  0  0  0  0  0  0  0  0  0
   35.5569   39.3039   -9.1983 O   0  0  0  0  0  0  0  0  0  0  0  0
   34.1627   40.1580   -7.6316 N   0  0  0  0  0  0  0  0  0  0  0  0
   33.4729   39.9349   -6.9656 H   0  0  0  0  0  0  0  0  0  0  0  0
   34.5773   41.5434   -7.7339 C   0  0  0  0  0  0  0  0  0  0  0  0
   35.0096   42.0270   -6.3458 C   0  0  0  0  0  0  0  0  0  0  0  0
   36.2277   42.0718   -6.0685 O   0  0  0  0  0  0  0  0  0  0  0  0
   34.1331   42.4001   -5.5515 O   0  0  0  0  0  0  0  0  0  0  0  0
   33.2294   42.3517   -5.7944 H   0  0  0  0  0  0  0  0  0  0  0  0
   33.3548   42.3090   -8.2287 C   0  0  0  0  0  0  0  0  0  0  0  0
   33.2129   42.5859   -9.7140 C   0  0  0  0  0  0  0  0  0  0  0  0
   32.8966   41.5647  -10.6124 C   0  0  0  0  0  0  0  0  0  0  0  0
   32.7419   41.8684  -11.9731 C   0  0  0  0  0  0  0  0  0  0  0  0
   33.3819   43.9029  -10.1544 C   0  0  0  0  0  0  0  0  0  0  0  0
   33.2239   44.2065  -11.5108 C   0  0  0  0  0  0  0  0  0  0  0  0
   32.9031   43.1905  -12.4199 C   0  0  0  0  0  0  0  0  0  0  0  0
   32.7444   43.4896  -13.7370 O   0  0  0  0  0  0  0  0  0  0  0  0
   32.5298   42.8129  -14.3485 H   0  0  0  0  0  0  0  0  0  0  0  0
   32.7196   38.0161   -7.3258 C   0  0  0  0  0  0  0  0  0  0  0  0
   31.4895   37.8512   -8.1452 C   0  0  0  0  0  0  0  0  0  0  0  0
   31.1997   38.7597   -9.1635 C   0  0  0  0  0  0  0  0  0  0  0  0
   30.6017   36.8127   -7.8919 C   0  0  0  0  0  0  0  0  0  0  0  0
   30.0317   38.6357   -9.9256 C   0  0  0  0  0  0  0  0  0  0  0  0
   29.4306   36.6794   -8.6476 C   0  0  0  0  0  0  0  0  0  0  0  0
   29.1460   37.5927   -9.6657 C   0  0  0  0  0  0  0  0  0  0  0  0
  6  7  1  0  0  0
  7  9  1  0  0  0
  7  2  1  0  0  0
  9 10  1  0  0  0
 10 11  2  0  0  0
 10 12  1  0  0  0
 11 13  1  0  0  0
 12 14  2  0  0  0
 13 15  2  0  0  0
 14 15  1  0  0  0
  2  3  2  0  0  0
  2  4  1  0  0  0
  4  1  1  0  0  0
  1 34  1  0  0  0
  1 16  1  0  0  0
 34 35  1  0  0  0
 35 36  2  0  0  0
 35 37  1  0  0  0
 36 38  1  0  0  0
 37 39  2  0  0  0
 38 40  2  0  0  0
 39 40  1  0  0  0
 16 17  2  0  0  0
 16 18  1  0  0  0
 18 20  1  0  0  0
 20 25  1  0  0  0
 20 21  1  0  0  0
 25 26  1  0  0  0
 26 27  2  0  0  0
 26 29  1  0  0  0
 27 28  1  0  0  0
 28 31  2  0  0  0
 29 30  2  0  0  0
 30 31  1  0  0  0
 31 32  1  0  0  0
 21 22  2  0  0  0
 21 23  1  0  0  0
  6  8  1  0  0  0
  4  5  1  0  0  0
 18 19  1  0  0  0
 32 33  1  0  0  0
 23 24  1  0  0  0
M  END
> <minimizedAffinity>
-8.79285

$$$$
1QF0_TI2_A_317


 40 42  0  0  0  0  0  0  0  0999 V2000
   34.0679   37.7150   -8.1352 C   0  0  0  0  0  0  0  0  0  0  0  0
   35.6448   35.8910   -8.2229 C   0  0  0  0  0  0  0  0  0  0  0  0
   35.5351   35.7855   -9.4496 O   0  0  0  0  0  0  0  0  0  0  0  0
   34.9663   36.7711   -7.5052 N   0  0  0  0  0  0  0  0  0  0  0  0
   35.0741   36.7842   -6.5267 H   0  0  0  0  0  0  0  0  0  0  0  0
   35.3618   33.5061   -7.2618 S   0  0  0  0  0  0  0  0  0  0  0  0
   36.5155   34.9239   -7.4465 C   0  0  0  0  0  0  0  0  0  0  0  0
   35.9767   32.5083   -6.5719 H   0  0  0  0  0  0  0  0  0  0  0  0
   37.7565   34.5820   -8.2539 C   0  0  0  0  0  0  0  0  0  0  0  0
   39.0030   35.0791   -7.6349 C   0  0  0  0  0  0  0  0  0  0  0  0
   40.1900   34.3920   -7.7951 C   0  0  0  0  0  0  0  0  0  0  0  0
   38.9744   36.2166   -6.8274 C   0  0  0  0  0  0  0  0  0  0  0  0
   41.3415   34.8216   -7.1538 C   0  0  0  0  0  0  0  0  0  0  0  0
   40.1113   36.6554   -6.1860 C   0  0  0  0  0  0  0  0  0  0  0  0
   41.3047   35.9563   -6.3443 C   0  0  0  0  0  0  0  0  0  0  0  0
   34.6898   39.0831   -8.3512 C   0  0  0  0  0  0  0  0  0  0  0  0
   35.5663   39.2592   -9.2064 O   0  0  0  0  0  0  0  0  0  0  0  0
   34.2295   40.0324   -7.5501 N   0  0  0  0  0  0  0  0  0  0  0  0
   33.5675   39.7747   -6.8686 H   0  0  0  0  0  0  0  0  0  0  0  0
   34.6320   41.4240   -7.6062 C   0  0  0  0  0  0  0  0  0  0  0  0
   35.0978   41.8536   -6.2111 C   0  0  0  0  0  0  0  0  0  0  0  0
   36.0734   41.2721   -5.6888 O   0  0  0  0  0  0  0  0  0  0  0  0
   34.5141   42.7985   -5.6592 O   0  0  0  0  0  0  0  0  0  0  0  0
   33.7859   43.2102   -6.0814 H   0  0  0  0  0  0  0  0  0  0  0  0
   33.3918   42.1997   -8.0368 C   0  0  0  0  0  0  0  0  0  0  0  0
   33.2128   42.5432   -9.5041 C   0  0  0  0  0  0  0  0  0  0  0  0
   33.3771   43.8509   -9.9653 C   0  0  0  0  0  0  0  0  0  0  0  0
   33.2354   44.1209  -11.3344 C   0  0  0  0  0  0  0  0  0  0  0  0
   32.9043   41.5036  -10.3879 C   0  0  0  0  0  0  0  0  0  0  0  0
   32.7667   41.7721  -11.7538 C   0  0  0  0  0  0  0  0  0  0  0  0
   32.9330   43.0796  -12.2276 C   0  0  0  0  0  0  0  0  0  0  0  0
   32.8043   43.3367  -13.5567 O   0  0  0  0  0  0  0  0  0  0  0  0
   32.9147   44.2100  -13.8778 H   0  0  0  0  0  0  0  0  0  0  0  0
   32.8089   37.8690   -7.2889 C   0  0  0  0  0  0  0  0  0  0  0  0
   31.5516   37.7728   -8.0773 C   0  0  0  0  0  0  0  0  0  0  0  0
   30.6446   36.7430   -7.8257 C   0  0  0  0  0  0  0  0  0  0  0  0
   31.2765   38.6847   -9.0891 C   0  0  0  0  0  0  0  0  0  0  0  0
   29.4699   36.6209   -8.5778 C   0  0  0  0  0  0  0  0  0  0  0  0
   30.1050   38.5719   -9.8474 C   0  0  0  0  0  0  0  0  0  0  0  0
   29.2009   37.5382   -9.5908 C   0  0  0  0  0  0  0  0  0  0  0  0
  6  7  1  0  0  0
  7  9  1  0  0  0
  7  2  1  0  0  0
  9 10  1  0  0  0
 10 11  2  0  0  0
 10 12  1  0  0  0
 11 13  1  0  0  0
 12 14  2  0  0  0
 13 15  2  0  0  0
 14 15  1  0  0  0
  2  3  2  0  0  0
  2  4  1  0  0  0
  4  1  1  0  0  0
  1 34  1  0  0  0
  1 16  1  0  0  0
 34 35  1  0  0  0
 35 36  2  0  0  0
 35 37  1  0  0  0
 36 38  1  0  0  0
 37 39  2  0  0  0
 38 40  2  0  0  0
 39 40  1  0  0  0
 16 17  2  0  0  0
 16 18  1  0  0  0
 18 20  1  0  0  0
 20 25  1  0  0  0
 20 21  1  0  0  0
 25 26  1  0  0  0
 26 27  2  0  0  0
 26 29  1  0  0  0
 27 28  1  0  0  0
 28 31  2  0  0  0
 29 30  2  0  0  0
 30 31  1  0  0  0
 31 32  1  0  0  0
 21 22  2  0  0  0
 21 23  1  0  0  0
  6  8  1  0  0  0
  4  5  1  0  0  0
 18 19  1  0  0  0
 32 33  1  0  0  0
 23 24  1  0  0  0
M  END
> <minimizedAffinity>
-8.78831

$$$$
1QF0_TI2_A_317


 40 42  0  0  0  0  0  0  0  0999 V2000
   35.2173   37.5357   -7.4706 C   0  0  0  0  0  0  0  0  0  0  0  0
   32.9131   36.8260   -7.5617 C   0  0  0  0  0  0  0  0  0  0  0  0
   32.6671   37.3025   -6.4480 O   0  0  0  0  0  0  0  0  0  0  0  0
   34.1100   36.8704   -8.1234 N   0  0  0  0  0  0  0  0  0  0  0  0
   34.2499   36.4440   -8.9997 H   0  0  0  0  0  0  0  0  0  0  0  0
   32.1908   34.3487   -7.7436 S   0  0  0  0  0  0  0  0  0  0  0  0
   31.8473   36.0595   -8.3184 C   0  0  0  0  0  0  0  0  0  0  0  0
   31.3134   33.4894   -8.3280 H   0  0  0  0  0  0  0  0  0  0  0  0
   30.4688   36.5579   -7.9182 C   0  0  0  0  0  0  0  0  0  0  0  0
   29.8329   37.3941   -8.9577 C   0  0  0  0  0  0  0  0  0  0  0  0
   30.4467   38.5474   -9.4048 C   0  0  0  0  0  0  0  0  0  0  0  0
   28.5719   37.0553   -9.4493 C   0  0  0  0  0  0  0  0  0  0  0  0
   29.8141   39.3667  -10.3269 C   0  0  0  0  0  0  0  0  0  0  0  0
   27.9329   37.8593  -10.3669 C   0  0  0  0  0  0  0  0  0  0  0  0
   28.5518   39.0248  -10.8103 C   0  0  0  0  0  0  0  0  0  0  0  0
   35.3977   38.9765   -7.9140 C   0  0  0  0  0  0  0  0  0  0  0  0
   35.8748   39.2494   -9.0224 O   0  0  0  0  0  0  0  0  0  0  0  0
   35.0230   39.8808   -7.0215 N   0  0  0  0  0  0  0  0  0  0  0  0
   34.7033   39.5569   -6.1485 H   0  0  0  0  0  0  0  0  0  0  0  0
   35.0505   41.3137   -7.2395 C   0  0  0  0  0  0  0  0  0  0  0  0
   35.3888   42.0025   -5.9134 C   0  0  0  0  0  0  0  0  0  0  0  0
   36.5867   42.2128   -5.6245 O   0  0  0  0  0  0  0  0  0  0  0  0
   34.4551   42.3689   -5.1838 O   0  0  0  0  0  0  0  0  0  0  0  0
   33.5691   42.1935   -5.4331 H   0  0  0  0  0  0  0  0  0  0  0  0
   33.6514   41.6900   -7.7153 C   0  0  0  0  0  0  0  0  0  0  0  0
   33.4429   42.0451   -9.1760 C   0  0  0  0  0  0  0  0  0  0  0  0
   33.0913   41.0715  -10.1132 C   0  0  0  0  0  0  0  0  0  0  0  0
   32.8753   41.4466  -11.4474 C   0  0  0  0  0  0  0  0  0  0  0  0
   33.5869   43.3849   -9.5520 C   0  0  0  0  0  0  0  0  0  0  0  0
   33.3679   43.7596  -10.8818 C   0  0  0  0  0  0  0  0  0  0  0  0
   33.0113   42.7917  -11.8293 C   0  0  0  0  0  0  0  0  0  0  0  0
   32.7934   43.1598  -13.1200 O   0  0  0  0  0  0  0  0  0  0  0  0
   32.5546   42.5155  -13.7571 H   0  0  0  0  0  0  0  0  0  0  0  0
   36.5073   36.7679   -7.7376 C   0  0  0  0  0  0  0  0  0  0  0  0
   37.2370   36.3894   -6.4983 C   0  0  0  0  0  0  0  0  0  0  0  0
   37.1992   35.0730   -6.0380 C   0  0  0  0  0  0  0  0  0  0  0  0
   37.9395   37.3413   -5.7693 C   0  0  0  0  0  0  0  0  0  0  0  0
   37.8568   34.7056   -4.8577 C   0  0  0  0  0  0  0  0  0  0  0  0
   38.6004   36.9851   -4.5876 C   0  0  0  0  0  0  0  0  0  0  0  0
   38.5585   35.6651   -4.1318 C   0  0  0  0  0  0  0  0  0  0  0  0
  6  7  1  0  0  0
  7  9  1  0  0  0
  7  2  1  0  0  0
  9 10  1  0  0  0
 10 11  2  0  0  0
 10 12  1  0  0  0
 11 13  1  0  0  0
 12 14  2  0  0  0
 13 15  2  0  0  0
 14 15  1  0  0  0
  2  3  2  0  0  0
  2  4  1  0  0  0
  4  1  1  0  0  0
  1 34  1  0  0  0
  1 16  1  0  0  0
 34 35  1  0  0  0
 35 36  2  0  0  0
 35 37  1  0  0  0
 36 38  1  0  0  0
 37 39  2  0  0  0
 38 40  2  0  0  0
 39 40  1  0  0  0
 16 17  2  0  0  0
 16 18  1  0  0  0
 18 20  1  0  0  0
 20 25  1  0  0  0
 20 21  1  0  0  0
 25 26  1  0  0  0
 26 27  2  0  0  0
 26 29  1  0  0  0
 27 28  1  0  0  0
 28 31  2  0  0  0
 29 30  2  0  0  0
 30 31  1  0  0  0
 31 32  1  0  0  0
 21 22  2  0  0  0
 21 23  1  0  0  0
  6  8  1  0  0  0
  4  5  1  0  0  0
 18 19  1  0  0  0
 32 33  1  0  0  0
 23 24  1  0  0  0
M  END
> <minimizedAffinity>
-8.78555

$$$$
