3T3U_BK6_A_701


 32 36  0  0  0  0  0  0  0  0999 V2000
   21.5540   12.5031   63.7922 N   0  0  0  0  0  0  0  0  0  0  0  0
   22.7453   13.1043   63.6841 C   0  0  0  0  0  0  0  0  0  0  0  0
   22.8480   14.4300   63.7062 N   0  0  0  0  0  0  0  0  0  0  0  0
   21.7432   15.1905   63.8228 C   0  0  0  0  0  0  0  0  0  0  0  0
   20.4834   14.6077   63.9489 C   0  0  0  0  0  0  0  0  0  0  0  0
   20.4098   13.2047   63.9355 C   0  0  0  0  0  0  0  0  0  0  0  0
   19.2542   12.5304   64.0428 N   0  0  0  0  0  0  0  0  0  0  0  0
   20.3648   16.8118   64.0295 N   0  0  0  0  0  0  0  0  0  0  0  0
   19.6134   15.7043   64.0740 C   0  0  0  0  0  0  0  0  0  0  0  0
   21.5586   16.5049   63.8699 N   0  0  0  0  0  0  0  0  0  0  0  0
   19.2556   11.5460   64.0280 H   0  0  0  0  0  0  0  0  0  0  0  0
   18.4053   13.0202   64.1362 H   0  0  0  0  0  0  0  0  0  0  0  0
   14.3573   14.4763   66.9449 C   0  0  0  0  0  0  0  0  0  0  0  0
   17.3872   16.3250   63.3463 C   0  0  0  0  0  0  0  0  0  0  0  0
   15.7296   14.4996   66.7234 C   0  0  0  0  0  0  0  0  0  0  0  0
   15.9996   16.3235   63.5551 C   0  0  0  0  0  0  0  0  0  0  0  0
   14.0556   15.7097   64.8973 C   0  0  0  0  0  0  0  0  0  0  0  0
   17.6628   15.0928   65.3933 C   0  0  0  0  0  0  0  0  0  0  0  0
   13.5118   15.0913   66.0221 C   0  0  0  0  0  0  0  0  0  0  0  0
   18.2315   15.6788   64.2528 C   0  0  0  0  0  0  0  0  0  0  0  0
   15.4394   15.7109   64.6852 C   0  0  0  0  0  0  0  0  0  0  0  0
   16.2790   15.0997   65.6053 C   0  0  0  0  0  0  0  0  0  0  0  0
   11.3126   15.5283   65.1572 C   0  0  0  0  0  0  0  0  0  0  0  0
   12.1634   15.0590   66.2451 O   0  0  0  0  0  0  0  0  0  0  0  0
   22.6556   17.4939   63.7745 C   0  0  0  0  0  0  0  0  0  0  0  0
   22.3749   19.0601   60.2189 C   0  0  0  0  0  0  0  0  0  0  0  0
   23.5575   20.6600   61.5822 C   0  0  0  0  0  0  0  0  0  0  0  0
   22.4523   17.9751   61.3050 C   0  0  0  0  0  0  0  0  0  0  0  0
   23.4845   19.7113   62.8063 C   0  0  0  0  0  0  0  0  0  0  0  0
   23.5878   19.8916   60.3222 N   0  0  0  0  0  0  0  0  0  0  0  0
   22.4062   18.6146   62.7013 C   0  0  0  0  0  0  0  0  0  0  0  0
   24.4125   19.2914   60.3107 H   0  0  0  0  0  0  0  0  0  0  0  0
  1  6  2  0  0  0
  2  1  1  0  0  0
  3  2  2  0  0  0
  3  4  1  0  0  0
  4 10  1  0  0  0
  4  5  2  0  0  0
  5  6  1  0  0  0
  5  9  1  0  0  0
  6  7  1  0  0  0
 23 24  1  0  0  0
 14 16  2  0  0  0
 14 20  1  0  0  0
 15 13  2  0  0  0
 16 21  1  0  0  0
 17 19  2  0  0  0
 18 22  1  0  0  0
 26 28  1  0  0  0
 27 30  1  0  0  0
 27 29  1  0  0  0
 28 31  1  0  0  0
 29 31  1  0  0  0
 25 10  1  0  0  0
  8  9  2  0  0  0
 30 26  1  0  0  0
 19 13  1  0  0  0
 19 24  1  0  0  0
 20 18  2  0  0  0
  9 20  1  0  0  0
 21 17  1  0  0  0
 21 22  2  0  0  0
 22 15  1  0  0  0
 31 25  1  0  0  0
 10  8  1  0  0  0
  7 11  1  0  0  0
  7 12  1  0  0  0
 30 32  1  0  0  0
M  END
> <minimizedAffinity>
-10.95928

$$$$
3T3U_BK6_A_701


 32 36  0  0  0  0  0  0  0  0999 V2000
   21.7564   18.9685   62.8870 N   0  0  0  0  0  0  0  0  0  0  0  0
   22.9854   18.4378   62.8688 C   0  0  0  0  0  0  0  0  0  0  0  0
   23.1886   17.1690   63.2114 N   0  0  0  0  0  0  0  0  0  0  0  0
   22.1534   16.4006   63.5993 C   0  0  0  0  0  0  0  0  0  0  0  0
   20.8554   16.9079   63.6232 C   0  0  0  0  0  0  0  0  0  0  0  0
   20.6720   18.2479   63.2427 C   0  0  0  0  0  0  0  0  0  0  0  0
   19.4719   18.8488   63.2315 N   0  0  0  0  0  0  0  0  0  0  0  0
   20.9027   14.7828   64.2236 N   0  0  0  0  0  0  0  0  0  0  0  0
   20.0733   15.8186   64.0437 C   0  0  0  0  0  0  0  0  0  0  0  0
   22.0715   15.1329   63.9863 N   0  0  0  0  0  0  0  0  0  0  0  0
   19.3957   19.7911   62.9565 H   0  0  0  0  0  0  0  0  0  0  0  0
   18.6678   18.3474   63.4983 H   0  0  0  0  0  0  0  0  0  0  0  0
   14.8116   14.5972   66.9072 C   0  0  0  0  0  0  0  0  0  0  0  0
   17.8446   16.3855   63.2807 C   0  0  0  0  0  0  0  0  0  0  0  0
   16.1853   14.6341   66.6959 C   0  0  0  0  0  0  0  0  0  0  0  0
   16.4554   16.3696   63.4784 C   0  0  0  0  0  0  0  0  0  0  0  0
   14.5093   15.7665   64.8223 C   0  0  0  0  0  0  0  0  0  0  0  0
   18.1208   15.2169   65.3646 C   0  0  0  0  0  0  0  0  0  0  0  0
   13.9651   15.1729   65.9602 C   0  0  0  0  0  0  0  0  0  0  0  0
   18.6905   15.7780   64.2123 C   0  0  0  0  0  0  0  0  0  0  0  0
   15.8947   15.7818   64.6213 C   0  0  0  0  0  0  0  0  0  0  0  0
   16.7353   15.2097   65.5653 C   0  0  0  0  0  0  0  0  0  0  0  0
   11.7652   15.4237   65.0258 C   0  0  0  0  0  0  0  0  0  0  0  0
   12.6155   15.1272   66.1734 O   0  0  0  0  0  0  0  0  0  0  0  0
   23.2379   14.2281   64.0932 C   0  0  0  0  0  0  0  0  0  0  0  0
   25.2351   14.2443   60.7488 C   0  0  0  0  0  0  0  0  0  0  0  0
   26.8491   13.9144   62.5104 C   0  0  0  0  0  0  0  0  0  0  0  0
   24.0486   14.0609   61.7087 C   0  0  0  0  0  0  0  0  0  0  0  0
   25.7270   13.9407   63.5801 C   0  0  0  0  0  0  0  0  0  0  0  0
   26.3399   13.3932   61.2266 N   0  0  0  0  0  0  0  0  0  0  0  0
   24.4087   14.5850   63.1074 C   0  0  0  0  0  0  0  0  0  0  0  0
   26.0014   12.4400   61.3579 H   0  0  0  0  0  0  0  0  0  0  0  0
  1  6  2  0  0  0
  2  1  1  0  0  0
  3  2  2  0  0  0
  3  4  1  0  0  0
  4 10  1  0  0  0
  4  5  2  0  0  0
  5  6  1  0  0  0
  5  9  1  0  0  0
  6  7  1  0  0  0
 23 24  1  0  0  0
 14 16  2  0  0  0
 14 20  1  0  0  0
 15 13  2  0  0  0
 16 21  1  0  0  0
 17 19  2  0  0  0
 18 22  1  0  0  0
 26 28  1  0  0  0
 27 30  1  0  0  0
 27 29  1  0  0  0
 28 31  1  0  0  0
 29 31  1  0  0  0
 25 10  1  0  0  0
  8  9  2  0  0  0
 30 26  1  0  0  0
 19 13  1  0  0  0
 19 24  1  0  0  0
 20 18  2  0  0  0
  9 20  1  0  0  0
 21 17  1  0  0  0
 21 22  2  0  0  0
 22 15  1  0  0  0
 31 25  1  0  0  0
 10  8  1  0  0  0
  7 11  1  0  0  0
  7 12  1  0  0  0
 30 32  1  0  0  0
M  END
> <minimizedAffinity>
-9.81742

$$$$
3T3U_BK6_A_701


 32 36  0  0  0  0  0  0  0  0999 V2000
   20.7972   13.3845   63.8450 N   0  0  0  0  0  0  0  0  0  0  0  0
   21.7177   14.2149   63.3396 C   0  0  0  0  0  0  0  0  0  0  0  0
   21.4607   15.5107   63.1863 N   0  0  0  0  0  0  0  0  0  0  0  0
   20.2551   16.0043   63.5262 C   0  0  0  0  0  0  0  0  0  0  0  0
   19.2703   15.1789   64.0662 C   0  0  0  0  0  0  0  0  0  0  0  0
   19.5775   13.8174   64.2279 C   0  0  0  0  0  0  0  0  0  0  0  0
   18.7098   12.9251   64.7304 N   0  0  0  0  0  0  0  0  0  0  0  0
   18.5844   17.2743   63.9351 N   0  0  0  0  0  0  0  0  0  0  0  0
   18.1948   16.0496   64.3110 C   0  0  0  0  0  0  0  0  0  0  0  0
   19.7399   17.2274   63.4793 N   0  0  0  0  0  0  0  0  0  0  0  0
   18.9733   11.9811   64.8238 H   0  0  0  0  0  0  0  0  0  0  0  0
   17.8100   13.2146   65.0056 H   0  0  0  0  0  0  0  0  0  0  0  0
   12.1068   15.5327   64.5286 C   0  0  0  0  0  0  0  0  0  0  0  0
   16.8857   15.1077   66.1194 C   0  0  0  0  0  0  0  0  0  0  0  0
   13.3551   15.8520   64.0062 C   0  0  0  0  0  0  0  0  0  0  0  0
   15.6372   14.7667   66.6617 C   0  0  0  0  0  0  0  0  0  0  0  0
   13.2039   14.6750   66.4948 C   0  0  0  0  0  0  0  0  0  0  0  0
   15.7677   15.9587   64.1673 C   0  0  0  0  0  0  0  0  0  0  0  0
   12.0319   14.9347   65.7862 C   0  0  0  0  0  0  0  0  0  0  0  0
   16.9587   15.7385   64.8747 C   0  0  0  0  0  0  0  0  0  0  0  0
   14.4507   15.0162   65.9572 C   0  0  0  0  0  0  0  0  0  0  0  0
   14.5233   15.6098   64.7053 C   0  0  0  0  0  0  0  0  0  0  0  0
    9.6682   14.7682   65.3848 C   0  0  0  0  0  0  0  0  0  0  0  0
   10.8001   14.6291   66.2944 O   0  0  0  0  0  0  0  0  0  0  0  0
   20.4708   18.4094   62.9702 C   0  0  0  0  0  0  0  0  0  0  0  0
   24.1458   18.6079   61.6938 C   0  0  0  0  0  0  0  0  0  0  0  0
   22.7444   18.4871   59.7346 C   0  0  0  0  0  0  0  0  0  0  0  0
   22.9404   18.8029   62.6275 C   0  0  0  0  0  0  0  0  0  0  0  0
   21.4692   18.4527   60.6159 C   0  0  0  0  0  0  0  0  0  0  0  0
   23.8246   19.2403   60.4015 N   0  0  0  0  0  0  0  0  0  0  0  0
   21.7171   18.0494   62.0829 C   0  0  0  0  0  0  0  0  0  0  0  0
   23.5203   20.2008   60.5603 H   0  0  0  0  0  0  0  0  0  0  0  0
  1  6  2  0  0  0
  2  1  1  0  0  0
  3  2  2  0  0  0
  3  4  1  0  0  0
  4 10  1  0  0  0
  4  5  2  0  0  0
  5  6  1  0  0  0
  5  9  1  0  0  0
  6  7  1  0  0  0
 23 24  1  0  0  0
 14 16  2  0  0  0
 14 20  1  0  0  0
 15 13  2  0  0  0
 16 21  1  0  0  0
 17 19  2  0  0  0
 18 22  1  0  0  0
 26 28  1  0  0  0
 27 30  1  0  0  0
 27 29  1  0  0  0
 28 31  1  0  0  0
 29 31  1  0  0  0
 25 10  1  0  0  0
  8  9  2  0  0  0
 30 26  1  0  0  0
 19 13  1  0  0  0
 19 24  1  0  0  0
 20 18  2  0  0  0
  9 20  1  0  0  0
 21 17  1  0  0  0
 21 22  2  0  0  0
 22 15  1  0  0  0
 31 25  1  0  0  0
 10  8  1  0  0  0
  7 11  1  0  0  0
  7 12  1  0  0  0
 30 32  1  0  0  0
M  END
> <minimizedAffinity>
-9.41477

$$$$
3T3U_BK6_A_701


 32 36  0  0  0  0  0  0  0  0999 V2000
   23.8391   20.2997   62.8374 N   0  0  0  0  0  0  0  0  0  0  0  0
   24.8927   20.1831   62.0197 C   0  0  0  0  0  0  0  0  0  0  0  0
   25.2022   19.0155   61.4636 N   0  0  0  0  0  0  0  0  0  0  0  0
   24.4618   17.9233   61.7312 C   0  0  0  0  0  0  0  0  0  0  0  0
   23.3498   18.0002   62.5680 C   0  0  0  0  0  0  0  0  0  0  0  0
   23.0414   19.2507   63.1292 C   0  0  0  0  0  0  0  0  0  0  0  0
   22.0007   19.4474   63.9537 N   0  0  0  0  0  0  0  0  0  0  0  0
   23.6241   15.9567   61.7757 N   0  0  0  0  0  0  0  0  0  0  0  0
   22.8384   16.6912   62.5735 C   0  0  0  0  0  0  0  0  0  0  0  0
   24.5429   16.6617   61.3244 N   0  0  0  0  0  0  0  0  0  0  0  0
   21.8265   20.3439   64.3213 H   0  0  0  0  0  0  0  0  0  0  0  0
   21.4116   18.6951   64.1909 H   0  0  0  0  0  0  0  0  0  0  0  0
   16.9064   16.4094   64.0257 C   0  0  0  0  0  0  0  0  0  0  0  0
   21.7919   15.1146   64.0868 C   0  0  0  0  0  0  0  0  0  0  0  0
   18.0588   16.8676   63.3972 C   0  0  0  0  0  0  0  0  0  0  0  0
   20.6401   14.6282   64.7238 C   0  0  0  0  0  0  0  0  0  0  0  0
   18.2354   14.7298   65.1293 C   0  0  0  0  0  0  0  0  0  0  0  0
   20.4445   16.7830   62.9980 C   0  0  0  0  0  0  0  0  0  0  0  0
   16.9966   15.3261   64.8993 C   0  0  0  0  0  0  0  0  0  0  0  0
   21.7073   16.2218   63.2386 C   0  0  0  0  0  0  0  0  0  0  0  0
   19.3866   15.2143   64.4968 C   0  0  0  0  0  0  0  0  0  0  0  0
   19.2946   16.2913   63.6270 C   0  0  0  0  0  0  0  0  0  0  0  0
   14.6541   15.6795   65.3040 C   0  0  0  0  0  0  0  0  0  0  0  0
   15.8593   14.8856   65.5170 O   0  0  0  0  0  0  0  0  0  0  0  0
   25.5922   16.1576   60.4103 C   0  0  0  0  0  0  0  0  0  0  0  0
   27.4476   13.2182   62.1685 C   0  0  0  0  0  0  0  0  0  0  0  0
   27.8965   15.1938   63.4771 C   0  0  0  0  0  0  0  0  0  0  0  0
   26.3951   13.9413   61.3128 C   0  0  0  0  0  0  0  0  0  0  0  0
   27.0242   16.0541   62.5269 C   0  0  0  0  0  0  0  0  0  0  0  0
   27.4091   13.8012   63.5220 N   0  0  0  0  0  0  0  0  0  0  0  0
   26.7710   15.4215   61.1441 C   0  0  0  0  0  0  0  0  0  0  0  0
   26.4502   13.7884   63.8696 H   0  0  0  0  0  0  0  0  0  0  0  0
  1  6  2  0  0  0
  2  1  1  0  0  0
  3  2  2  0  0  0
  3  4  1  0  0  0
  4 10  1  0  0  0
  4  5  2  0  0  0
  5  6  1  0  0  0
  5  9  1  0  0  0
  6  7  1  0  0  0
 23 24  1  0  0  0
 14 16  2  0  0  0
 14 20  1  0  0  0
 15 13  2  0  0  0
 16 21  1  0  0  0
 17 19  2  0  0  0
 18 22  1  0  0  0
 26 28  1  0  0  0
 27 30  1  0  0  0
 27 29  1  0  0  0
 28 31  1  0  0  0
 29 31  1  0  0  0
 25 10  1  0  0  0
  8  9  2  0  0  0
 30 26  1  0  0  0
 19 13  1  0  0  0
 19 24  1  0  0  0
 20 18  2  0  0  0
  9 20  1  0  0  0
 21 17  1  0  0  0
 21 22  2  0  0  0
 22 15  1  0  0  0
 31 25  1  0  0  0
 10  8  1  0  0  0
  7 11  1  0  0  0
  7 12  1  0  0  0
 30 32  1  0  0  0
M  END
> <minimizedAffinity>
-8.95458

$$$$
3T3U_BK6_A_701


 32 36  0  0  0  0  0  0  0  0999 V2000
   21.3497   13.3331   63.8327 N   0  0  0  0  0  0  0  0  0  0  0  0
   20.1180   12.8228   63.9542 C   0  0  0  0  0  0  0  0  0  0  0  0
   19.0427   13.5998   63.8631 N   0  0  0  0  0  0  0  0  0  0  0  0
   19.1819   14.9237   63.6614 C   0  0  0  0  0  0  0  0  0  0  0  0
   20.4443   15.4967   63.5183 C   0  0  0  0  0  0  0  0  0  0  0  0
   21.5598   14.6470   63.6061 C   0  0  0  0  0  0  0  0  0  0  0  0
   22.8240   15.0829   63.4909 N   0  0  0  0  0  0  0  0  0  0  0  0
   18.8447   17.0058   63.3116 N   0  0  0  0  0  0  0  0  0  0  0  0
   20.1757   16.8586   63.2988 C   0  0  0  0  0  0  0  0  0  0  0  0
   18.3018   15.9102   63.5347 N   0  0  0  0  0  0  0  0  0  0  0  0
   23.5722   14.4469   63.5600 H   0  0  0  0  0  0  0  0  0  0  0  0
   23.0030   16.0388   63.3374 H   0  0  0  0  0  0  0  0  0  0  0  0
   22.8387   21.4004   60.1912 C   0  0  0  0  0  0  0  0  0  0  0  0
   21.9885   18.2704   64.0678 C   0  0  0  0  0  0  0  0  0  0  0  0
   21.9526   20.3597   60.4460 C   0  0  0  0  0  0  0  0  0  0  0  0
   22.8850   19.3249   63.8368 C   0  0  0  0  0  0  0  0  0  0  0  0
   23.7692   21.0809   62.3906 C   0  0  0  0  0  0  0  0  0  0  0  0
   21.0770   18.6076   61.8678 C   0  0  0  0  0  0  0  0  0  0  0  0
   23.7551   21.7661   61.1766 C   0  0  0  0  0  0  0  0  0  0  0  0
   21.0939   17.8811   63.0675 C   0  0  0  0  0  0  0  0  0  0  0  0
   22.8775   20.0270   62.6230 C   0  0  0  0  0  0  0  0  0  0  0  0
   21.9657   19.6655   61.6418 C   0  0  0  0  0  0  0  0  0  0  0  0
   25.5237   22.6019   59.7805 C   0  0  0  0  0  0  0  0  0  0  0  0
   24.6262   22.7869   60.9155 O   0  0  0  0  0  0  0  0  0  0  0  0
   16.8362   15.7214   63.6184 C   0  0  0  0  0  0  0  0  0  0  0  0
   16.1274   14.4657   67.2371 C   0  0  0  0  0  0  0  0  0  0  0  0
   14.0774   15.4554   66.4401 C   0  0  0  0  0  0  0  0  0  0  0  0
   16.7833   14.5411   65.8489 C   0  0  0  0  0  0  0  0  0  0  0  0
   14.7323   15.7753   65.0716 C   0  0  0  0  0  0  0  0  0  0  0  0
   14.6817   14.2515   67.0438 N   0  0  0  0  0  0  0  0  0  0  0  0
   16.2738   15.7731   65.0850 C   0  0  0  0  0  0  0  0  0  0  0  0
   14.5368   13.4530   66.4260 H   0  0  0  0  0  0  0  0  0  0  0  0
  1  6  2  0  0  0
  2  1  1  0  0  0
  3  2  2  0  0  0
  3  4  1  0  0  0
  4 10  1  0  0  0
  4  5  2  0  0  0
  5  6  1  0  0  0
  5  9  1  0  0  0
  6  7  1  0  0  0
 23 24  1  0  0  0
 14 16  2  0  0  0
 14 20  1  0  0  0
 15 13  2  0  0  0
 16 21  1  0  0  0
 17 19  2  0  0  0
 18 22  1  0  0  0
 26 28  1  0  0  0
 27 30  1  0  0  0
 27 29  1  0  0  0
 28 31  1  0  0  0
 29 31  1  0  0  0
 25 10  1  0  0  0
  8  9  2  0  0  0
 30 26  1  0  0  0
 19 13  1  0  0  0
 19 24  1  0  0  0
 20 18  2  0  0  0
  9 20  1  0  0  0
 21 17  1  0  0  0
 21 22  2  0  0  0
 22 15  1  0  0  0
 31 25  1  0  0  0
 10  8  1  0  0  0
  7 11  1  0  0  0
  7 12  1  0  0  0
 30 32  1  0  0  0
M  END
> <minimizedAffinity>
-8.89563

$$$$
3T3U_BK6_A_701


 32 36  0  0  0  0  0  0  0  0999 V2000
   20.8390   20.3601   60.5572 N   0  0  0  0  0  0  0  0  0  0  0  0
   21.9445   20.3922   59.8027 C   0  0  0  0  0  0  0  0  0  0  0  0
   22.8274   19.3984   59.8387 N   0  0  0  0  0  0  0  0  0  0  0  0
   22.6257   18.3458   60.6535 C   0  0  0  0  0  0  0  0  0  0  0  0
   21.4838   18.2649   61.4486 C   0  0  0  0  0  0  0  0  0  0  0  0
   20.5638   19.3244   61.3779 C   0  0  0  0  0  0  0  0  0  0  0  0
   19.4326   19.3621   62.0995 N   0  0  0  0  0  0  0  0  0  0  0  0
   22.7659   16.4831   61.6937 N   0  0  0  0  0  0  0  0  0  0  0  0
   21.6215   17.0357   62.1158 C   0  0  0  0  0  0  0  0  0  0  0  0
   23.3269   17.2419   60.8848 N   0  0  0  0  0  0  0  0  0  0  0  0
   18.8197   20.1278   62.0142 H   0  0  0  0  0  0  0  0  0  0  0  0
   19.2159   18.6241   62.7140 H   0  0  0  0  0  0  0  0  0  0  0  0
   16.2112   15.9516   64.7485 C   0  0  0  0  0  0  0  0  0  0  0  0
   21.1673   15.4508   63.8914 C   0  0  0  0  0  0  0  0  0  0  0  0
   17.1273   16.5292   63.8767 C   0  0  0  0  0  0  0  0  0  0  0  0
   20.2581   14.8463   64.7729 C   0  0  0  0  0  0  0  0  0  0  0  0
   17.9932   14.6033   65.6493 C   0  0  0  0  0  0  0  0  0  0  0  0
   19.3722   16.7865   63.0092 C   0  0  0  0  0  0  0  0  0  0  0  0
   16.6498   14.9755   65.6426 C   0  0  0  0  0  0  0  0  0  0  0  0
   20.7347   16.4535   63.0197 C   0  0  0  0  0  0  0  0  0  0  0  0
   18.9029   15.2062   64.7725 C   0  0  0  0  0  0  0  0  0  0  0  0
   18.4643   16.1763   63.8828 C   0  0  0  0  0  0  0  0  0  0  0  0
   14.3713   14.9030   66.4033 C   0  0  0  0  0  0  0  0  0  0  0  0
   15.7432   14.4167   66.4998 O   0  0  0  0  0  0  0  0  0  0  0  0
   24.6176   16.9343   60.2290 C   0  0  0  0  0  0  0  0  0  0  0  0
   28.0897   15.7494   61.5384 C   0  0  0  0  0  0  0  0  0  0  0  0
   26.6513   13.8136   61.5592 C   0  0  0  0  0  0  0  0  0  0  0  0
   27.0594   16.5913   60.7686 C   0  0  0  0  0  0  0  0  0  0  0  0
   25.4759   14.6474   60.9872 C   0  0  0  0  0  0  0  0  0  0  0  0
   27.9482   14.3489   61.1004 N   0  0  0  0  0  0  0  0  0  0  0  0
   25.6327   16.1717   61.1553 C   0  0  0  0  0  0  0  0  0  0  0  0
   27.9919   14.3059   60.0823 H   0  0  0  0  0  0  0  0  0  0  0  0
  1  6  2  0  0  0
  2  1  1  0  0  0
  3  2  2  0  0  0
  3  4  1  0  0  0
  4 10  1  0  0  0
  4  5  2  0  0  0
  5  6  1  0  0  0
  5  9  1  0  0  0
  6  7  1  0  0  0
 23 24  1  0  0  0
 14 16  2  0  0  0
 14 20  1  0  0  0
 15 13  2  0  0  0
 16 21  1  0  0  0
 17 19  2  0  0  0
 18 22  1  0  0  0
 26 28  1  0  0  0
 27 30  1  0  0  0
 27 29  1  0  0  0
 28 31  1  0  0  0
 29 31  1  0  0  0
 25 10  1  0  0  0
  8  9  2  0  0  0
 30 26  1  0  0  0
 19 13  1  0  0  0
 19 24  1  0  0  0
 20 18  2  0  0  0
  9 20  1  0  0  0
 21 17  1  0  0  0
 21 22  2  0  0  0
 22 15  1  0  0  0
 31 25  1  0  0  0
 10  8  1  0  0  0
  7 11  1  0  0  0
  7 12  1  0  0  0
 30 32  1  0  0  0
M  END
> <minimizedAffinity>
-8.83404

$$$$
3T3U_BK6_A_701


 32 36  0  0  0  0  0  0  0  0999 V2000
   20.9644   19.5634   61.5740 N   0  0  0  0  0  0  0  0  0  0  0  0
   22.1521   19.3012   61.0145 C   0  0  0  0  0  0  0  0  0  0  0  0
   22.7520   18.1288   61.1988 N   0  0  0  0  0  0  0  0  0  0  0  0
   22.1740   17.1888   61.9701 C   0  0  0  0  0  0  0  0  0  0  0  0
   20.9332   17.4140   62.5636 C   0  0  0  0  0  0  0  0  0  0  0  0
   20.3191   18.6576   62.3388 C   0  0  0  0  0  0  0  0  0  0  0  0
   19.1290   18.9923   62.8614 N   0  0  0  0  0  0  0  0  0  0  0  0
   21.6918   15.3909   63.0219 N   0  0  0  0  0  0  0  0  0  0  0  0
   20.6613   16.2161   63.2462 C   0  0  0  0  0  0  0  0  0  0  0  0
   22.5421   15.9608   62.3168 N   0  0  0  0  0  0  0  0  0  0  0  0
   18.7404   19.8773   62.6739 H   0  0  0  0  0  0  0  0  0  0  0  0
   18.6446   18.3530   63.4322 H   0  0  0  0  0  0  0  0  0  0  0  0
   14.6848   15.9262   64.5011 C   0  0  0  0  0  0  0  0  0  0  0  0
   19.6348   15.1467   65.1629 C   0  0  0  0  0  0  0  0  0  0  0  0
   15.8393   16.2469   63.7960 C   0  0  0  0  0  0  0  0  0  0  0  0
   18.4822   14.8024   65.8855 C   0  0  0  0  0  0  0  0  0  0  0  0
   16.0560   14.8270   66.1493 C   0  0  0  0  0  0  0  0  0  0  0  0
   18.2452   16.2387   63.5316 C   0  0  0  0  0  0  0  0  0  0  0  0
   14.7955   15.2054   65.6898 C   0  0  0  0  0  0  0  0  0  0  0  0
   19.5264   15.8988   63.9903 C   0  0  0  0  0  0  0  0  0  0  0  0
   17.2077   15.1709   65.4317 C   0  0  0  0  0  0  0  0  0  0  0  0
   17.0954   15.8869   64.2485 C   0  0  0  0  0  0  0  0  0  0  0  0
   12.4011   15.0051   65.6423 C   0  0  0  0  0  0  0  0  0  0  0  0
   13.6554   14.8991   66.3794 O   0  0  0  0  0  0  0  0  0  0  0  0
   23.8093   15.3290   61.8860 C   0  0  0  0  0  0  0  0  0  0  0  0
   27.2990   16.9715   62.4320 C   0  0  0  0  0  0  0  0  0  0  0  0
   27.2730   14.9577   63.7591 C   0  0  0  0  0  0  0  0  0  0  0  0
   25.9797   16.6082   61.7317 C   0  0  0  0  0  0  0  0  0  0  0  0
   25.8389   14.6241   63.2735 C   0  0  0  0  0  0  0  0  0  0  0  0
   28.0129   15.7170   62.7319 N   0  0  0  0  0  0  0  0  0  0  0  0
   25.0677   15.8233   62.6872 C   0  0  0  0  0  0  0  0  0  0  0  0
   28.0855   15.1568   61.8827 H   0  0  0  0  0  0  0  0  0  0  0  0
  1  6  2  0  0  0
  2  1  1  0  0  0
  3  2  2  0  0  0
  3  4  1  0  0  0
  4 10  1  0  0  0
  4  5  2  0  0  0
  5  6  1  0  0  0
  5  9  1  0  0  0
  6  7  1  0  0  0
 23 24  1  0  0  0
 14 16  2  0  0  0
 14 20  1  0  0  0
 15 13  2  0  0  0
 16 21  1  0  0  0
 17 19  2  0  0  0
 18 22  1  0  0  0
 26 28  1  0  0  0
 27 30  1  0  0  0
 27 29  1  0  0  0
 28 31  1  0  0  0
 29 31  1  0  0  0
 25 10  1  0  0  0
  8  9  2  0  0  0
 30 26  1  0  0  0
 19 13  1  0  0  0
 19 24  1  0  0  0
 20 18  2  0  0  0
  9 20  1  0  0  0
 21 17  1  0  0  0
 21 22  2  0  0  0
 22 15  1  0  0  0
 31 25  1  0  0  0
 10  8  1  0  0  0
  7 11  1  0  0  0
  7 12  1  0  0  0
 30 32  1  0  0  0
M  END
> <minimizedAffinity>
-8.60301

$$$$
3T3U_BK6_A_701


 32 36  0  0  0  0  0  0  0  0999 V2000
   25.7390   14.6552   61.0946 N   0  0  0  0  0  0  0  0  0  0  0  0
   26.6129   15.6313   60.8196 C   0  0  0  0  0  0  0  0  0  0  0  0
   26.3657   16.8904   61.1689 N   0  0  0  0  0  0  0  0  0  0  0  0
   25.2157   17.2036   61.7952 C   0  0  0  0  0  0  0  0  0  0  0  0
   24.2818   16.2184   62.1112 C   0  0  0  0  0  0  0  0  0  0  0  0
   24.5785   14.8960   61.7406 C   0  0  0  0  0  0  0  0  0  0  0  0
   23.7555   13.8642   61.9850 N   0  0  0  0  0  0  0  0  0  0  0  0
   23.6266   18.2070   62.8145 N   0  0  0  0  0  0  0  0  0  0  0  0
   23.2577   16.9205   62.7693 C   0  0  0  0  0  0  0  0  0  0  0  0
   24.7224   18.3512   62.2460 N   0  0  0  0  0  0  0  0  0  0  0  0
   24.0093   12.9551   61.7050 H   0  0  0  0  0  0  0  0  0  0  0  0
   22.8981   14.0166   62.4441 H   0  0  0  0  0  0  0  0  0  0  0  0
   17.2444   16.5369   63.8041 C   0  0  0  0  0  0  0  0  0  0  0  0
   22.1191   15.2291   64.0785 C   0  0  0  0  0  0  0  0  0  0  0  0
   18.4341   17.0416   63.2912 C   0  0  0  0  0  0  0  0  0  0  0  0
   20.9296   14.6956   64.5976 C   0  0  0  0  0  0  0  0  0  0  0  0
   18.5033   14.7700   64.8522 C   0  0  0  0  0  0  0  0  0  0  0  0
   20.8410   16.9836   63.0429 C   0  0  0  0  0  0  0  0  0  0  0  0
   17.2805   15.3862   64.5910 C   0  0  0  0  0  0  0  0  0  0  0  0
   22.0869   16.4016   63.3191 C   0  0  0  0  0  0  0  0  0  0  0  0
   19.6919   15.3013   64.3375 C   0  0  0  0  0  0  0  0  0  0  0  0
   19.6538   16.4455   63.5537 C   0  0  0  0  0  0  0  0  0  0  0  0
   14.9607   15.8021   65.0616 C   0  0  0  0  0  0  0  0  0  0  0  0
   16.1065   14.9000   65.0956 O   0  0  0  0  0  0  0  0  0  0  0  0
   25.4145   19.6528   62.1143 C   0  0  0  0  0  0  0  0  0  0  0  0
   25.0017   22.8719   59.9600 C   0  0  0  0  0  0  0  0  0  0  0  0
   22.7769   22.1488   60.5469 C   0  0  0  0  0  0  0  0  0  0  0  0
   25.6559   21.8609   60.9153 C   0  0  0  0  0  0  0  0  0  0  0  0
   23.3489   20.9574   61.3575 C   0  0  0  0  0  0  0  0  0  0  0  0
   23.7166   23.2873   60.5509 N   0  0  0  0  0  0  0  0  0  0  0  0
   24.8034   20.5858   61.0070 C   0  0  0  0  0  0  0  0  0  0  0  0
   23.8691   23.5978   61.5104 H   0  0  0  0  0  0  0  0  0  0  0  0
  1  6  2  0  0  0
  2  1  1  0  0  0
  3  2  2  0  0  0
  3  4  1  0  0  0
  4 10  1  0  0  0
  4  5  2  0  0  0
  5  6  1  0  0  0
  5  9  1  0  0  0
  6  7  1  0  0  0
 23 24  1  0  0  0
 14 16  2  0  0  0
 14 20  1  0  0  0
 15 13  2  0  0  0
 16 21  1  0  0  0
 17 19  2  0  0  0
 18 22  1  0  0  0
 26 28  1  0  0  0
 27 30  1  0  0  0
 27 29  1  0  0  0
 28 31  1  0  0  0
 29 31  1  0  0  0
 25 10  1  0  0  0
  8  9  2  0  0  0
 30 26  1  0  0  0
 19 13  1  0  0  0
 19 24  1  0  0  0
 20 18  2  0  0  0
  9 20  1  0  0  0
 21 17  1  0  0  0
 21 22  2  0  0  0
 22 15  1  0  0  0
 31 25  1  0  0  0
 10  8  1  0  0  0
  7 11  1  0  0  0
  7 12  1  0  0  0
 30 32  1  0  0  0
M  END
> <minimizedAffinity>
-8.53113

$$$$
3T3U_BK6_A_701


 32 36  0  0  0  0  0  0  0  0999 V2000
   23.2993   13.4605   63.9747 N   0  0  0  0  0  0  0  0  0  0  0  0
   22.2451   12.6511   64.1355 C   0  0  0  0  0  0  0  0  0  0  0  0
   21.0035   13.1096   64.0062 N   0  0  0  0  0  0  0  0  0  0  0  0
   20.7898   14.4087   63.7249 C   0  0  0  0  0  0  0  0  0  0  0  0
   21.8572   15.2854   63.5385 C   0  0  0  0  0  0  0  0  0  0  0  0
   23.1567   14.7674   63.6686 C   0  0  0  0  0  0  0  0  0  0  0  0
   24.2618   15.5142   63.5183 N   0  0  0  0  0  0  0  0  0  0  0  0
   19.9176   16.3031   63.2540 N   0  0  0  0  0  0  0  0  0  0  0  0
   21.2402   16.5123   63.2402 C   0  0  0  0  0  0  0  0  0  0  0  0
   19.6815   15.1183   63.5460 N   0  0  0  0  0  0  0  0  0  0  0  0
   25.1509   15.1037   63.6196 H   0  0  0  0  0  0  0  0  0  0  0  0
   24.1833   16.4724   63.3066 H   0  0  0  0  0  0  0  0  0  0  0  0
   22.8417   21.2765   59.7596 C   0  0  0  0  0  0  0  0  0  0  0  0
   22.5030   18.4578   63.9414 C   0  0  0  0  0  0  0  0  0  0  0  0
   22.2576   20.0578   60.0860 C   0  0  0  0  0  0  0  0  0  0  0  0
   23.0907   19.6952   63.6374 C   0  0  0  0  0  0  0  0  0  0  0  0
   23.5958   21.4698   62.0397 C   0  0  0  0  0  0  0  0  0  0  0  0
   21.7621   18.2868   61.6597 C   0  0  0  0  0  0  0  0  0  0  0  0
   23.5158   21.9911   60.7493 C   0  0  0  0  0  0  0  0  0  0  0  0
   21.8577   17.7255   62.9415 C   0  0  0  0  0  0  0  0  0  0  0  0
   23.0123   20.2345   62.3454 C   0  0  0  0  0  0  0  0  0  0  0  0
   22.3410   19.5257   61.3596 C   0  0  0  0  0  0  0  0  0  0  0  0
   25.5461   23.2539   60.5067 C   0  0  0  0  0  0  0  0  0  0  0  0
   24.0917   23.1860   60.4181 O   0  0  0  0  0  0  0  0  0  0  0  0
   18.3173   14.5543   63.6517 C   0  0  0  0  0  0  0  0  0  0  0  0
   16.3391   14.6329   67.0065 C   0  0  0  0  0  0  0  0  0  0  0  0
   15.0314   15.8803   65.4093 C   0  0  0  0  0  0  0  0  0  0  0  0
   17.3026   14.1238   65.9225 C   0  0  0  0  0  0  0  0  0  0  0  0
   16.0748   15.6014   64.2968 C   0  0  0  0  0  0  0  0  0  0  0  0
   15.0062   14.7812   66.3944 N   0  0  0  0  0  0  0  0  0  0  0  0
   17.4631   15.1766   64.8150 C   0  0  0  0  0  0  0  0  0  0  0  0
   14.7494   13.9120   65.9263 H   0  0  0  0  0  0  0  0  0  0  0  0
  1  6  2  0  0  0
  2  1  1  0  0  0
  3  2  2  0  0  0
  3  4  1  0  0  0
  4 10  1  0  0  0
  4  5  2  0  0  0
  5  6  1  0  0  0
  5  9  1  0  0  0
  6  7  1  0  0  0
 23 24  1  0  0  0
 14 16  2  0  0  0
 14 20  1  0  0  0
 15 13  2  0  0  0
 16 21  1  0  0  0
 17 19  2  0  0  0
 18 22  1  0  0  0
 26 28  1  0  0  0
 27 30  1  0  0  0
 27 29  1  0  0  0
 28 31  1  0  0  0
 29 31  1  0  0  0
 25 10  1  0  0  0
  8  9  2  0  0  0
 30 26  1  0  0  0
 19 13  1  0  0  0
 19 24  1  0  0  0
 20 18  2  0  0  0
  9 20  1  0  0  0
 21 17  1  0  0  0
 21 22  2  0  0  0
 22 15  1  0  0  0
 31 25  1  0  0  0
 10  8  1  0  0  0
  7 11  1  0  0  0
  7 12  1  0  0  0
 30 32  1  0  0  0
M  END
> <minimizedAffinity>
-8.41695

$$$$
3T3U_BK6_A_701


 32 36  0  0  0  0  0  0  0  0999 V2000
   24.3630   14.0695   63.9253 N   0  0  0  0  0  0  0  0  0  0  0  0
   23.4488   13.1741   64.3188 C   0  0  0  0  0  0  0  0  0  0  0  0
   22.1484   13.4234   64.1950 N   0  0  0  0  0  0  0  0  0  0  0  0
   21.7320   14.5964   63.6820 C   0  0  0  0  0  0  0  0  0  0  0  0
   22.6482   15.5536   63.2493 C   0  0  0  0  0  0  0  0  0  0  0  0
   24.0146   15.2547   63.3813 C   0  0  0  0  0  0  0  0  0  0  0  0
   24.9889   16.0983   63.0064 N   0  0  0  0  0  0  0  0  0  0  0  0
   20.5683   16.2183   62.9162 N   0  0  0  0  0  0  0  0  0  0  0  0
   21.8433   16.5983   62.7637 C   0  0  0  0  0  0  0  0  0  0  0  0
   20.5239   15.0971   63.4507 N   0  0  0  0  0  0  0  0  0  0  0  0
   25.9327   15.8420   63.1198 H   0  0  0  0  0  0  0  0  0  0  0  0
   24.7598   16.9736   62.6182 H   0  0  0  0  0  0  0  0  0  0  0  0
   24.9569   21.8461   62.3856 C   0  0  0  0  0  0  0  0  0  0  0  0
   21.8597   18.1403   60.8948 C   0  0  0  0  0  0  0  0  0  0  0  0
   24.5027   20.6543   62.9390 C   0  0  0  0  0  0  0  0  0  0  0  0
   22.3138   19.3333   60.3120 C   0  0  0  0  0  0  0  0  0  0  0  0
   23.6552   21.3697   60.4149 C   0  0  0  0  0  0  0  0  0  0  0  0
   23.1662   18.6383   62.8517 C   0  0  0  0  0  0  0  0  0  0  0  0
   24.5298   22.2054   61.1076 C   0  0  0  0  0  0  0  0  0  0  0  0
   22.2600   17.7975   62.1889 C   0  0  0  0  0  0  0  0  0  0  0  0
   23.1987   20.1801   60.9947 C   0  0  0  0  0  0  0  0  0  0  0  0
   23.6258   19.8237   62.2658 C   0  0  0  0  0  0  0  0  0  0  0  0
   26.3912   23.6859   60.7627 C   0  0  0  0  0  0  0  0  0  0  0  0
   24.9772   23.3817   60.5734 O   0  0  0  0  0  0  0  0  0  0  0  0
   19.2644   14.3863   63.7654 C   0  0  0  0  0  0  0  0  0  0  0  0
   16.6244   15.0939   66.5409 C   0  0  0  0  0  0  0  0  0  0  0  0
   15.8533   16.2258   64.5556 C   0  0  0  0  0  0  0  0  0  0  0  0
   17.7348   14.3589   65.7730 C   0  0  0  0  0  0  0  0  0  0  0  0
   17.0743   15.7071   63.7531 C   0  0  0  0  0  0  0  0  0  0  0  0
   15.4844   15.2766   65.6242 N   0  0  0  0  0  0  0  0  0  0  0  0
   18.2561   15.2339   64.6226 C   0  0  0  0  0  0  0  0  0  0  0  0
   15.2356   14.3787   65.2093 H   0  0  0  0  0  0  0  0  0  0  0  0
  1  6  2  0  0  0
  2  1  1  0  0  0
  3  2  2  0  0  0
  3  4  1  0  0  0
  4 10  1  0  0  0
  4  5  2  0  0  0
  5  6  1  0  0  0
  5  9  1  0  0  0
  6  7  1  0  0  0
 23 24  1  0  0  0
 14 16  2  0  0  0
 14 20  1  0  0  0
 15 13  2  0  0  0
 16 21  1  0  0  0
 17 19  2  0  0  0
 18 22  1  0  0  0
 26 28  1  0  0  0
 27 30  1  0  0  0
 27 29  1  0  0  0
 28 31  1  0  0  0
 29 31  1  0  0  0
 25 10  1  0  0  0
  8  9  2  0  0  0
 30 26  1  0  0  0
 19 13  1  0  0  0
 19 24  1  0  0  0
 20 18  2  0  0  0
  9 20  1  0  0  0
 21 17  1  0  0  0
 21 22  2  0  0  0
 22 15  1  0  0  0
 31 25  1  0  0  0
 10  8  1  0  0  0
  7 11  1  0  0  0
  7 12  1  0  0  0
 30 32  1  0  0  0
M  END
> <minimizedAffinity>
-8.25728

$$$$
