1NVQ_UCN_A_400


 39 46  0  0  0  0  0  0  0  0999 V2000
    8.4316    9.9268   17.2886 O   0  0  0  0  0  0  0  0  0  0  0  0
    7.9433    9.2781   18.4580 C   0  0  0  0  0  0  0  0  0  0  0  0
    7.0944   10.1526   19.2366 N   0  0  0  0  0  0  0  0  0  0  0  0
    5.8091    9.7908   19.3859 C   0  0  0  0  0  0  0  0  0  0  0  0
    4.9273   10.3806   19.9922 O   0  0  0  0  0  0  0  0  0  0  0  0
    5.7241    8.5057   18.6273 C   0  0  0  0  0  0  0  0  0  0  0  0
    4.5050    7.6423   18.4456 C   0  0  0  0  0  0  0  0  0  0  0  0
    3.1492    7.6709   18.8459 C   0  0  0  0  0  0  0  0  0  0  0  0
    2.5226    6.4904   18.2832 C   0  0  0  0  0  0  0  0  0  0  0  0
    1.1279    6.1973   18.4863 C   0  0  0  0  0  0  0  0  0  0  0  0
    0.3747    7.0959   19.2561 C   0  0  0  0  0  0  0  0  0  0  0  0
    0.9934    8.2694   19.8189 C   0  0  0  0  0  0  0  0  0  0  0  0
    2.3374    8.5358   19.6122 C   0  0  0  0  0  0  0  0  0  0  0  0
    3.4641    5.7862   17.5865 N   0  0  0  0  0  0  0  0  0  0  0  0
    4.7294    6.4580   17.6420 C   0  0  0  0  0  0  0  0  0  0  0  0
    5.9632    6.1586   17.0861 C   0  0  0  0  0  0  0  0  0  0  0  0
    6.4259    5.0783   16.2423 N   0  0  0  0  0  0  0  0  0  0  0  0
    7.8132    5.2442   15.9363 C   0  0  0  0  0  0  0  0  0  0  0  0
    8.2381    6.4653   16.5969 C   0  0  0  0  0  0  0  0  0  0  0  0
    9.5798    6.8798   16.4531 C   0  0  0  0  0  0  0  0  0  0  0  0
   10.5111    6.1534   15.6995 C   0  0  0  0  0  0  0  0  0  0  0  0
   10.0551    4.9419   15.0512 C   0  0  0  0  0  0  0  0  0  0  0  0
    8.7394    4.5177   15.1768 C   0  0  0  0  0  0  0  0  0  0  0  0
    7.1264    7.0264   17.2893 C   0  0  0  0  0  0  0  0  0  0  0  0
    6.9081    8.2047   18.0968 C   0  0  0  0  0  0  0  0  0  0  0  0
    5.4242    4.0063   15.8188 C   0  0  0  0  0  0  0  0  0  0  0  0
    4.5369    3.7715   16.8963 O   0  0  0  0  0  0  0  0  0  0  0  0
    3.2660    4.3950   17.1161 C   0  0  0  0  0  0  0  0  0  0  0  0
    2.4667    4.4535   15.7543 C   0  0  0  0  0  0  0  0  0  0  0  0
    3.2557    3.8258   14.5698 C   0  0  0  0  0  0  0  0  0  0  0  0
    4.7012    4.4437   14.4598 C   0  0  0  0  0  0  0  0  0  0  0  0
    6.0950    2.6552   15.5934 C   0  0  0  0  0  0  0  0  0  0  0  0
    9.0831   10.5998   17.5404 H   0  0  0  0  0  0  0  0  0  0  0  0
    7.4442   10.9793   19.6409 H   0  0  0  0  0  0  0  0  0  0  0  0
    2.3749    4.0613   13.2775 N   0  0  0  0  0  0  0  0  0  0  0  0
    3.0629    3.5250   12.0566 C   0  0  0  0  0  0  0  0  0  0  0  0
    2.2162    5.0620   13.1591 H   0  0  0  0  0  0  0  0  0  0  0  0
    4.5279    5.8866   14.4155 O   0  0  0  0  0  0  0  0  0  0  0  0
    5.3081    6.4954   13.3979 C   0  0  0  0  0  0  0  0  0  0  0  0
  1  2  1  0  0  0
  2  3  1  0  0  0
  2 25  1  0  0  0
  3  4  1  0  0  0
  4  5  2  0  0  0
  4  6  1  0  0  0
  6  7  2  0  0  0
  6 25  1  0  0  0
  7  8  1  0  0  0
  7 15  1  0  0  0
  8  9  2  0  0  0
  8 13  1  0  0  0
  9 10  1  0  0  0
  9 14  1  0  0  0
 10 11  2  0  0  0
 11 12  1  0  0  0
 12 13  2  0  0  0
 14 15  1  0  0  0
 14 28  1  0  0  0
 15 16  2  0  0  0
 16 17  1  0  0  0
 16 24  1  0  0  0
 17 18  1  0  0  0
 17 26  1  0  0  0
 18 19  2  0  0  0
 18 23  1  0  0  0
 19 20  1  0  0  0
 19 24  1  0  0  0
 20 21  2  0  0  0
 21 22  1  0  0  0
 22 23  2  0  0  0
 24 25  2  0  0  0
 26 27  1  0  0  0
 26 31  1  0  0  0
 26 32  1  0  0  0
 27 28  1  0  0  0
 28 29  1  0  0  0
 29 30  1  0  0  0
 30 35  1  0  0  0
 30 31  1  0  0  0
 35 36  1  0  0  0
 31 38  1  0  0  0
 38 39  1  0  0  0
  1 33  1  0  0  0
  3 34  1  0  0  0
 35 37  1  0  0  0
M  END
> <minimizedAffinity>
-14.02239

$$$$
1NVQ_UCN_A_400


 39 46  0  0  0  0  0  0  0  0999 V2000
    4.3911   10.3145   19.0916 O   0  0  0  0  0  0  0  0  0  0  0  0
    3.9301    9.1983   19.8455 C   0  0  0  0  0  0  0  0  0  0  0  0
    2.5617    9.3767   20.2780 N   0  0  0  0  0  0  0  0  0  0  0  0
    1.6496    8.5083   19.8100 C   0  0  0  0  0  0  0  0  0  0  0  0
    0.4498    8.4809   20.0399 O   0  0  0  0  0  0  0  0  0  0  0  0
    2.4564    7.5986   18.9407 C   0  0  0  0  0  0  0  0  0  0  0  0
    1.9510    6.4253   18.1453 C   0  0  0  0  0  0  0  0  0  0  0  0
    0.7090    5.7887   17.9180 C   0  0  0  0  0  0  0  0  0  0  0  0
    0.9625    4.6941   17.0011 C   0  0  0  0  0  0  0  0  0  0  0  0
   -0.0893    3.8250   16.5421 C   0  0  0  0  0  0  0  0  0  0  0  0
   -1.3892    4.0649   17.0110 C   0  0  0  0  0  0  0  0  0  0  0  0
   -1.6457    5.1503   17.9236 C   0  0  0  0  0  0  0  0  0  0  0  0
   -0.6208    5.9773   18.3544 C   0  0  0  0  0  0  0  0  0  0  0  0
    2.2960    4.6742   16.7025 N   0  0  0  0  0  0  0  0  0  0  0  0
    2.9736    5.7393   17.3822 C   0  0  0  0  0  0  0  0  0  0  0  0
    4.2998    6.1417   17.3850 C   0  0  0  0  0  0  0  0  0  0  0  0
    5.4777    5.6525   16.7019 N   0  0  0  0  0  0  0  0  0  0  0  0
    6.6192    6.4405   17.0506 C   0  0  0  0  0  0  0  0  0  0  0  0
    6.1508    7.4600   17.9722 C   0  0  0  0  0  0  0  0  0  0  0  0
    7.0810    8.3947   18.4759 C   0  0  0  0  0  0  0  0  0  0  0  0
    8.4356    8.3692   18.1194 C   0  0  0  0  0  0  0  0  0  0  0  0
    8.8703    7.3419   17.1965 C   0  0  0  0  0  0  0  0  0  0  0  0
    7.9717    6.4148   16.6866 C   0  0  0  0  0  0  0  0  0  0  0  0
    4.7508    7.2899   18.1759 C   0  0  0  0  0  0  0  0  0  0  0  0
    3.7348    7.9720   18.9444 C   0  0  0  0  0  0  0  0  0  0  0  0
    5.3291    4.4599   15.7598 C   0  0  0  0  0  0  0  0  0  0  0  0
    4.3733    3.5718   16.3085 O   0  0  0  0  0  0  0  0  0  0  0  0
    2.9687    3.5389   16.0287 C   0  0  0  0  0  0  0  0  0  0  0  0
    2.7390    3.6940   14.4730 C   0  0  0  0  0  0  0  0  0  0  0  0
    4.0713    3.8309   13.6820 C   0  0  0  0  0  0  0  0  0  0  0  0
    4.9752    4.9720   14.2855 C   0  0  0  0  0  0  0  0  0  0  0  0
    6.6052    3.6278   15.6865 C   0  0  0  0  0  0  0  0  0  0  0  0
    4.5073   11.0766   19.6803 H   0  0  0  0  0  0  0  0  0  0  0  0
    2.3088   10.1048   20.8905 H   0  0  0  0  0  0  0  0  0  0  0  0
    3.6664    4.0852   12.1744 N   0  0  0  0  0  0  0  0  0  0  0  0
    3.5582    2.7902   11.4242 C   0  0  0  0  0  0  0  0  0  0  0  0
    4.3758    4.6694   11.7320 H   0  0  0  0  0  0  0  0  0  0  0  0
    4.1450    6.1641   14.3449 O   0  0  0  0  0  0  0  0  0  0  0  0
    4.7149    7.2573   13.6414 C   0  0  0  0  0  0  0  0  0  0  0  0
  1  2  1  0  0  0
  2  3  1  0  0  0
  2 25  1  0  0  0
  3  4  1  0  0  0
  4  5  2  0  0  0
  4  6  1  0  0  0
  6  7  2  0  0  0
  6 25  1  0  0  0
  7  8  1  0  0  0
  7 15  1  0  0  0
  8  9  2  0  0  0
  8 13  1  0  0  0
  9 10  1  0  0  0
  9 14  1  0  0  0
 10 11  2  0  0  0
 11 12  1  0  0  0
 12 13  2  0  0  0
 14 15  1  0  0  0
 14 28  1  0  0  0
 15 16  2  0  0  0
 16 17  1  0  0  0
 16 24  1  0  0  0
 17 18  1  0  0  0
 17 26  1  0  0  0
 18 19  2  0  0  0
 18 23  1  0  0  0
 19 20  1  0  0  0
 19 24  1  0  0  0
 20 21  2  0  0  0
 21 22  1  0  0  0
 22 23  2  0  0  0
 24 25  2  0  0  0
 26 27  1  0  0  0
 26 31  1  0  0  0
 26 32  1  0  0  0
 27 28  1  0  0  0
 28 29  1  0  0  0
 29 30  1  0  0  0
 30 35  1  0  0  0
 30 31  1  0  0  0
 35 36  1  0  0  0
 31 38  1  0  0  0
 38 39  1  0  0  0
  1 33  1  0  0  0
  3 34  1  0  0  0
 35 37  1  0  0  0
M  END
> <minimizedAffinity>
-11.88341

$$$$
