5J82_6GV_A_301


 32 34  0  0  0  0  0  0  0  0999 V2000
   -0.7748   33.0639  -23.0712 C   0  0  0  0  0  0  0  0  0  0  0  0
   -2.0170   33.3644  -23.6332 C   0  0  0  0  0  0  0  0  0  0  0  0
   -2.0769   34.1336  -24.7852 C   0  0  0  0  0  0  0  0  0  0  0  0
   -0.9048   34.6200  -25.3613 C   0  0  0  0  0  0  0  0  0  0  0  0
    0.3243   34.2918  -24.8083 C   0  0  0  0  0  0  0  0  0  0  0  0
    0.4106   33.5613  -23.6545 C   0  0  0  0  0  0  0  0  0  0  0  0
   -0.7407   32.2759  -21.9615 O   0  0  0  0  0  0  0  0  0  0  0  0
   -3.2644   34.4103  -25.3455 O   0  0  0  0  0  0  0  0  0  0  0  0
    0.0806   32.0598  -21.5655 H   0  0  0  0  0  0  0  0  0  0  0  0
   -3.3053   34.9301  -26.1241 H   0  0  0  0  0  0  0  0  0  0  0  0
   -0.9034   35.5255  -26.5214 C   0  0  0  0  0  0  0  0  0  0  0  0
   -0.4406   37.3000  -27.7496 C   0  0  0  0  0  0  0  0  0  0  0  0
   -1.4836   35.3153  -27.6694 N   0  0  0  0  0  0  0  0  0  0  0  0
   -1.2020   36.4362  -28.4659 N   0  0  0  0  0  0  0  0  0  0  0  0
   -0.2516   36.7570  -26.5385 N   0  0  0  0  0  0  0  0  0  0  0  0
    0.0114   38.3812  -28.0947 O   0  0  0  0  0  0  0  0  0  0  0  0
   -1.5070   36.5728  -29.3919 H   0  0  0  0  0  0  0  0  0  0  0  0
    0.4776   37.3775  -25.4865 C   0  0  0  0  0  0  0  0  0  0  0  0
    1.8753   37.2306  -25.3623 C   0  0  0  0  0  0  0  0  0  0  0  0
    2.5646   37.8263  -24.3017 C   0  0  0  0  0  0  0  0  0  0  0  0
   -0.2025   38.1748  -24.5627 C   0  0  0  0  0  0  0  0  0  0  0  0
    1.8639   38.5971  -23.3729 C   0  0  0  0  0  0  0  0  0  0  0  0
    0.4925   38.7803  -23.5190 C   0  0  0  0  0  0  0  0  0  0  0  0
    2.5631   36.4943  -26.2582 F   0  0  0  0  0  0  0  0  0  0  0  0
    2.0450   33.2365  -23.0447 S   0  0  0  0  0  0  0  0  0  0  0  0
    2.8272   34.3961  -23.3380 O   0  0  0  0  0  0  0  0  0  0  0  0
    1.8537   32.8374  -21.6976 O   0  0  0  0  0  0  0  0  0  0  0  0
    2.6231   31.9422  -23.9409 N   0  0  0  0  0  0  0  0  0  0  0  0
    1.8862   30.6753  -23.8526 C   0  0  0  0  0  0  0  0  0  0  0  0
    5.1670   32.1131  -24.0999 C   0  0  0  0  0  0  0  0  0  0  0  0
    3.8182   32.0520  -24.8383 C   0  0  0  0  0  0  0  0  0  0  0  0
    3.9306   30.9921  -25.9549 C   0  0  0  0  0  0  0  0  0  0  0  0
 14 12  1  0  0  0
 14 13  1  0  0  0
 16 12  2  0  0  0
 12 15  1  0  0  0
 13 11  2  0  0  0
 24 19  1  0  0  0
 15 11  1  0  0  0
 15 18  1  0  0  0
 11  4  1  0  0  0
 32 31  1  0  0  0
 19 18  2  0  0  0
 19 20  1  0  0  0
 18 21  1  0  0  0
  4  5  2  0  0  0
  4  3  1  0  0  0
  8  3  1  0  0  0
  5  6  1  0  0  0
 31 30  1  0  0  0
 31 28  1  0  0  0
  3  2  2  0  0  0
 20 22  2  0  0  0
 21 23  2  0  0  0
 28 29  1  0  0  0
 28 25  1  0  0  0
  6 25  1  0  0  0
  6  1  2  0  0  0
 26 25  2  0  0  0
 22 23  1  0  0  0
  2  1  1  0  0  0
 25 27  2  0  0  0
  1  7  1  0  0  0
  7  9  1  0  0  0
  8 10  1  0  0  0
 14 17  1  0  0  0
M  END
> <minimizedAffinity>
-9.96285

$$$$
5J82_6GV_A_301


 32 34  0  0  0  0  0  0  0  0999 V2000
   -0.3922   35.8803  -27.0490 C   0  0  0  0  0  0  0  0  0  0  0  0
   -1.6157   35.2089  -27.0108 C   0  0  0  0  0  0  0  0  0  0  0  0
   -1.9820   34.5224  -25.8633 C   0  0  0  0  0  0  0  0  0  0  0  0
   -1.1222   34.4863  -24.7672 C   0  0  0  0  0  0  0  0  0  0  0  0
    0.0785   35.1797  -24.8082 C   0  0  0  0  0  0  0  0  0  0  0  0
    0.4787   35.8387  -25.9387 C   0  0  0  0  0  0  0  0  0  0  0  0
   -0.0722   36.5780  -28.1734 O   0  0  0  0  0  0  0  0  0  0  0  0
   -3.1652   33.8916  -25.8084 O   0  0  0  0  0  0  0  0  0  0  0  0
    0.7431   37.0370  -28.2237 H   0  0  0  0  0  0  0  0  0  0  0  0
   -3.4132   33.4276  -25.0331 H   0  0  0  0  0  0  0  0  0  0  0  0
   -1.4028   33.6924  -23.5602 C   0  0  0  0  0  0  0  0  0  0  0  0
   -1.0448   32.3317  -21.8596 C   0  0  0  0  0  0  0  0  0  0  0  0
   -2.5355   33.6320  -22.9182 N   0  0  0  0  0  0  0  0  0  0  0  0
   -2.3285   32.7679  -21.8316 N   0  0  0  0  0  0  0  0  0  0  0  0
   -0.4569   32.8874  -22.9287 N   0  0  0  0  0  0  0  0  0  0  0  0
   -0.4821   31.5747  -21.0834 O   0  0  0  0  0  0  0  0  0  0  0  0
   -3.0040   32.5194  -21.1599 H   0  0  0  0  0  0  0  0  0  0  0  0
    0.8911   32.6499  -23.3162 C   0  0  0  0  0  0  0  0  0  0  0  0
    1.2330   31.6395  -24.2396 C   0  0  0  0  0  0  0  0  0  0  0  0
    2.5686   31.4064  -24.5811 C   0  0  0  0  0  0  0  0  0  0  0  0
    1.9045   33.4533  -22.7879 C   0  0  0  0  0  0  0  0  0  0  0  0
    3.5701   32.2017  -24.0222 C   0  0  0  0  0  0  0  0  0  0  0  0
    3.2311   33.2280  -23.1460 C   0  0  0  0  0  0  0  0  0  0  0  0
    0.2729   30.8702  -24.7912 F   0  0  0  0  0  0  0  0  0  0  0  0
    2.0486   36.6619  -25.8601 S   0  0  0  0  0  0  0  0  0  0  0  0
    2.8584   35.9094  -24.9544 O   0  0  0  0  0  0  0  0  0  0  0  0
    2.4488   36.8033  -27.2130 O   0  0  0  0  0  0  0  0  0  0  0  0
    1.7444   38.1734  -25.1999 N   0  0  0  0  0  0  0  0  0  0  0  0
    2.7955   39.1907  -25.3260 C   0  0  0  0  0  0  0  0  0  0  0  0
    0.5904   39.1865  -23.1583 C   0  0  0  0  0  0  0  0  0  0  0  0
    0.4455   38.5173  -24.5364 C   0  0  0  0  0  0  0  0  0  0  0  0
   -0.5458   39.3537  -25.3735 C   0  0  0  0  0  0  0  0  0  0  0  0
 14 12  1  0  0  0
 14 13  1  0  0  0
 16 12  2  0  0  0
 12 15  1  0  0  0
 13 11  2  0  0  0
 24 19  1  0  0  0
 15 11  1  0  0  0
 15 18  1  0  0  0
 11  4  1  0  0  0
 32 31  1  0  0  0
 19 18  2  0  0  0
 19 20  1  0  0  0
 18 21  1  0  0  0
  4  5  2  0  0  0
  4  3  1  0  0  0
  8  3  1  0  0  0
  5  6  1  0  0  0
 31 30  1  0  0  0
 31 28  1  0  0  0
  3  2  2  0  0  0
 20 22  2  0  0  0
 21 23  2  0  0  0
 28 29  1  0  0  0
 28 25  1  0  0  0
  6 25  1  0  0  0
  6  1  2  0  0  0
 26 25  2  0  0  0
 22 23  1  0  0  0
  2  1  1  0  0  0
 25 27  2  0  0  0
  1  7  1  0  0  0
  7  9  1  0  0  0
  8 10  1  0  0  0
 14 17  1  0  0  0
M  END
> <minimizedAffinity>
-9.00714

$$$$
5J82_6GV_A_301


 32 34  0  0  0  0  0  0  0  0999 V2000
    3.8740   39.5794  -26.3087 C   0  0  0  0  0  0  0  0  0  0  0  0
    4.8515   40.1696  -25.5053 C   0  0  0  0  0  0  0  0  0  0  0  0
    4.9883   39.7631  -24.1868 C   0  0  0  0  0  0  0  0  0  0  0  0
    4.1392   38.7889  -23.6652 C   0  0  0  0  0  0  0  0  0  0  0  0
    3.1900   38.1913  -24.4814 C   0  0  0  0  0  0  0  0  0  0  0  0
    3.0126   38.5956  -25.7765 C   0  0  0  0  0  0  0  0  0  0  0  0
    3.7845   39.9691  -27.6100 O   0  0  0  0  0  0  0  0  0  0  0  0
    5.9386   40.3088  -23.4123 O   0  0  0  0  0  0  0  0  0  0  0  0
    3.1369   39.5879  -28.1697 H   0  0  0  0  0  0  0  0  0  0  0  0
    6.0314   40.0343  -22.5212 H   0  0  0  0  0  0  0  0  0  0  0  0
    4.1621   38.3870  -22.2497 C   0  0  0  0  0  0  0  0  0  0  0  0
    4.5010   37.1242  -20.4714 C   0  0  0  0  0  0  0  0  0  0  0  0
    3.8009   39.1157  -21.2311 N   0  0  0  0  0  0  0  0  0  0  0  0
    4.0075   38.3277  -20.0881 N   0  0  0  0  0  0  0  0  0  0  0  0
    4.5962   37.1386  -21.8087 N   0  0  0  0  0  0  0  0  0  0  0  0
    4.8137   36.1729  -19.7717 O   0  0  0  0  0  0  0  0  0  0  0  0
    3.8244   38.6033  -19.1609 H   0  0  0  0  0  0  0  0  0  0  0  0
    5.0490   36.0409  -22.5921 C   0  0  0  0  0  0  0  0  0  0  0  0
    6.4037   35.8972  -22.9593 C   0  0  0  0  0  0  0  0  0  0  0  0
    6.8180   34.8251  -23.7553 C   0  0  0  0  0  0  0  0  0  0  0  0
    4.1338   35.0635  -22.9906 C   0  0  0  0  0  0  0  0  0  0  0  0
    5.8841   33.8729  -24.1665 C   0  0  0  0  0  0  0  0  0  0  0  0
    4.5561   33.9883  -23.7680 C   0  0  0  0  0  0  0  0  0  0  0  0
    7.3154   36.8073  -22.5613 F   0  0  0  0  0  0  0  0  0  0  0  0
    1.7457   37.7628  -26.6983 S   0  0  0  0  0  0  0  0  0  0  0  0
    1.4674   38.5792  -27.8378 O   0  0  0  0  0  0  0  0  0  0  0  0
    2.2386   36.4455  -26.8783 O   0  0  0  0  0  0  0  0  0  0  0  0
    0.3965   37.7301  -25.7025 N   0  0  0  0  0  0  0  0  0  0  0  0
   -0.1981   39.0187  -25.3264 C   0  0  0  0  0  0  0  0  0  0  0  0
   -0.7420   35.5389  -26.3572 C   0  0  0  0  0  0  0  0  0  0  0  0
   -0.2269   36.4518  -25.2305 C   0  0  0  0  0  0  0  0  0  0  0  0
    0.6236   35.5939  -24.2696 C   0  0  0  0  0  0  0  0  0  0  0  0
 14 12  1  0  0  0
 14 13  1  0  0  0
 16 12  2  0  0  0
 12 15  1  0  0  0
 13 11  2  0  0  0
 24 19  1  0  0  0
 15 11  1  0  0  0
 15 18  1  0  0  0
 11  4  1  0  0  0
 32 31  1  0  0  0
 19 18  2  0  0  0
 19 20  1  0  0  0
 18 21  1  0  0  0
  4  5  2  0  0  0
  4  3  1  0  0  0
  8  3  1  0  0  0
  5  6  1  0  0  0
 31 30  1  0  0  0
 31 28  1  0  0  0
  3  2  2  0  0  0
 20 22  2  0  0  0
 21 23  2  0  0  0
 28 29  1  0  0  0
 28 25  1  0  0  0
  6 25  1  0  0  0
  6  1  2  0  0  0
 26 25  2  0  0  0
 22 23  1  0  0  0
  2  1  1  0  0  0
 25 27  2  0  0  0
  1  7  1  0  0  0
  7  9  1  0  0  0
  8 10  1  0  0  0
 14 17  1  0  0  0
M  END
> <minimizedAffinity>
-8.75790

$$$$
5J82_6GV_A_301


 32 34  0  0  0  0  0  0  0  0999 V2000
    0.2628   37.3721  -26.6732 C   0  0  0  0  0  0  0  0  0  0  0  0
   -0.2744   36.2245  -27.2593 C   0  0  0  0  0  0  0  0  0  0  0  0
   -0.8171   35.2362  -26.4525 C   0  0  0  0  0  0  0  0  0  0  0  0
   -0.8035   35.3810  -25.0665 C   0  0  0  0  0  0  0  0  0  0  0  0
   -0.2910   36.5380  -24.4982 C   0  0  0  0  0  0  0  0  0  0  0  0
    0.2790   37.5145  -25.2688 C   0  0  0  0  0  0  0  0  0  0  0  0
    0.7557   38.3446  -27.4886 O   0  0  0  0  0  0  0  0  0  0  0  0
   -1.3553   34.1389  -27.0067 O   0  0  0  0  0  0  0  0  0  0  0  0
    1.1216   39.1244  -27.1197 H   0  0  0  0  0  0  0  0  0  0  0  0
   -1.7222   33.4707  -26.4618 H   0  0  0  0  0  0  0  0  0  0  0  0
   -1.2676   34.3268  -24.1505 C   0  0  0  0  0  0  0  0  0  0  0  0
   -1.1717   32.6043  -22.7739 C   0  0  0  0  0  0  0  0  0  0  0  0
   -2.4955   34.1203  -23.7652 N   0  0  0  0  0  0  0  0  0  0  0  0
   -2.4558   33.0248  -22.8885 N   0  0  0  0  0  0  0  0  0  0  0  0
   -0.4211   33.3938  -23.5553 N   0  0  0  0  0  0  0  0  0  0  0  0
   -0.7300   31.6848  -22.1017 O   0  0  0  0  0  0  0  0  0  0  0  0
   -3.2322   32.6273  -22.4320 H   0  0  0  0  0  0  0  0  0  0  0  0
    0.9839   33.2505  -23.7260 C   0  0  0  0  0  0  0  0  0  0  0  0
    1.5464   32.1148  -24.3460 C   0  0  0  0  0  0  0  0  0  0  0  0
    2.9325   31.9843  -24.4744 C   0  0  0  0  0  0  0  0  0  0  0  0
    1.8318   34.2717  -23.2902 C   0  0  0  0  0  0  0  0  0  0  0  0
    3.7651   33.0029  -24.0086 C   0  0  0  0  0  0  0  0  0  0  0  0
    3.2105   34.1439  -23.4376 C   0  0  0  0  0  0  0  0  0  0  0  0
    0.7509   31.1284  -24.8062 F   0  0  0  0  0  0  0  0  0  0  0  0
    0.9176   38.9288  -24.4083 S   0  0  0  0  0  0  0  0  0  0  0  0
    0.6622   40.0619  -25.2409 O   0  0  0  0  0  0  0  0  0  0  0  0
    0.3358   38.8573  -23.1172 O   0  0  0  0  0  0  0  0  0  0  0  0
    2.5740   38.6912  -24.2957 N   0  0  0  0  0  0  0  0  0  0  0  0
    3.3932   39.0796  -25.4506 C   0  0  0  0  0  0  0  0  0  0  0  0
    4.5273   37.3612  -23.3253 C   0  0  0  0  0  0  0  0  0  0  0  0
    3.2286   38.1442  -23.0637 C   0  0  0  0  0  0  0  0  0  0  0  0
    3.4992   39.1565  -21.9302 C   0  0  0  0  0  0  0  0  0  0  0  0
 14 12  1  0  0  0
 14 13  1  0  0  0
 16 12  2  0  0  0
 12 15  1  0  0  0
 13 11  2  0  0  0
 24 19  1  0  0  0
 15 11  1  0  0  0
 15 18  1  0  0  0
 11  4  1  0  0  0
 32 31  1  0  0  0
 19 18  2  0  0  0
 19 20  1  0  0  0
 18 21  1  0  0  0
  4  5  2  0  0  0
  4  3  1  0  0  0
  8  3  1  0  0  0
  5  6  1  0  0  0
 31 30  1  0  0  0
 31 28  1  0  0  0
  3  2  2  0  0  0
 20 22  2  0  0  0
 21 23  2  0  0  0
 28 29  1  0  0  0
 28 25  1  0  0  0
  6 25  1  0  0  0
  6  1  2  0  0  0
 26 25  2  0  0  0
 22 23  1  0  0  0
  2  1  1  0  0  0
 25 27  2  0  0  0
  1  7  1  0  0  0
  7  9  1  0  0  0
  8 10  1  0  0  0
 14 17  1  0  0  0
M  END
> <minimizedAffinity>
-8.62084

$$$$
5J82_6GV_A_301


 32 34  0  0  0  0  0  0  0  0999 V2000
    5.8315   33.8532  -23.9733 C   0  0  0  0  0  0  0  0  0  0  0  0
    6.8260   34.6427  -23.3929 C   0  0  0  0  0  0  0  0  0  0  0  0
    6.4778   35.5882  -22.4405 C   0  0  0  0  0  0  0  0  0  0  0  0
    5.1414   35.7616  -22.0852 C   0  0  0  0  0  0  0  0  0  0  0  0
    4.1663   34.9525  -22.6496 C   0  0  0  0  0  0  0  0  0  0  0  0
    4.4781   34.0337  -23.6145 C   0  0  0  0  0  0  0  0  0  0  0  0
    6.2033   32.9065  -24.8782 O   0  0  0  0  0  0  0  0  0  0  0  0
    7.4283   36.3375  -21.8609 O   0  0  0  0  0  0  0  0  0  0  0  0
    5.5547   32.3638  -25.2818 H   0  0  0  0  0  0  0  0  0  0  0  0
    7.1934   36.9766  -21.2173 H   0  0  0  0  0  0  0  0  0  0  0  0
    4.6930   36.8149  -21.1604 C   0  0  0  0  0  0  0  0  0  0  0  0
    3.8922   38.7561  -20.4807 C   0  0  0  0  0  0  0  0  0  0  0  0
    4.6528   36.7388  -19.8599 N   0  0  0  0  0  0  0  0  0  0  0  0
    4.1469   37.9674  -19.4074 N   0  0  0  0  0  0  0  0  0  0  0  0
    4.2321   38.0623  -21.5764 N   0  0  0  0  0  0  0  0  0  0  0  0
    3.4408   39.8911  -20.5000 O   0  0  0  0  0  0  0  0  0  0  0  0
    4.0009   38.2157  -18.4659 H   0  0  0  0  0  0  0  0  0  0  0  0
    4.1369   38.5636  -22.9043 C   0  0  0  0  0  0  0  0  0  0  0  0
    2.9959   38.3413  -23.7037 C   0  0  0  0  0  0  0  0  0  0  0  0
    2.9396   38.8190  -25.0165 C   0  0  0  0  0  0  0  0  0  0  0  0
    5.1909   39.3176  -23.4261 C   0  0  0  0  0  0  0  0  0  0  0  0
    4.0138   39.5473  -25.5298 C   0  0  0  0  0  0  0  0  0  0  0  0
    5.1211   39.8062  -24.7281 C   0  0  0  0  0  0  0  0  0  0  0  0
    1.9495   37.6454  -23.2153 F   0  0  0  0  0  0  0  0  0  0  0  0
    3.1289   33.0845  -24.2679 S   0  0  0  0  0  0  0  0  0  0  0  0
    3.6009   32.4832  -25.4754 O   0  0  0  0  0  0  0  0  0  0  0  0
    2.7098   32.2650  -23.1893 O   0  0  0  0  0  0  0  0  0  0  0  0
    1.9238   34.1903  -24.6388 N   0  0  0  0  0  0  0  0  0  0  0  0
    2.2559   35.2599  -25.5883 C   0  0  0  0  0  0  0  0  0  0  0  0
   -0.4053   35.2311  -24.5030 C   0  0  0  0  0  0  0  0  0  0  0  0
    0.5396   34.0954  -24.0725 C   0  0  0  0  0  0  0  0  0  0  0  0
   -0.1935   32.7542  -24.2881 C   0  0  0  0  0  0  0  0  0  0  0  0
 14 12  1  0  0  0
 14 13  1  0  0  0
 16 12  2  0  0  0
 12 15  1  0  0  0
 13 11  2  0  0  0
 24 19  1  0  0  0
 15 11  1  0  0  0
 15 18  1  0  0  0
 11  4  1  0  0  0
 32 31  1  0  0  0
 19 18  2  0  0  0
 19 20  1  0  0  0
 18 21  1  0  0  0
  4  5  2  0  0  0
  4  3  1  0  0  0
  8  3  1  0  0  0
  5  6  1  0  0  0
 31 30  1  0  0  0
 31 28  1  0  0  0
  3  2  2  0  0  0
 20 22  2  0  0  0
 21 23  2  0  0  0
 28 29  1  0  0  0
 28 25  1  0  0  0
  6 25  1  0  0  0
  6  1  2  0  0  0
 26 25  2  0  0  0
 22 23  1  0  0  0
  2  1  1  0  0  0
 25 27  2  0  0  0
  1  7  1  0  0  0
  7  9  1  0  0  0
  8 10  1  0  0  0
 14 17  1  0  0  0
M  END
> <minimizedAffinity>
-8.39604

$$$$
5J82_6GV_A_301


 32 34  0  0  0  0  0  0  0  0999 V2000
    1.5496   38.0167  -24.5946 C   0  0  0  0  0  0  0  0  0  0  0  0
    2.3829   37.5546  -23.5742 C   0  0  0  0  0  0  0  0  0  0  0  0
    2.8271   36.2414  -23.5978 C   0  0  0  0  0  0  0  0  0  0  0  0
    2.4235   35.3864  -24.6217 C   0  0  0  0  0  0  0  0  0  0  0  0
    1.6172   35.8654  -25.6438 C   0  0  0  0  0  0  0  0  0  0  0  0
    1.1391   37.1474  -25.6284 C   0  0  0  0  0  0  0  0  0  0  0  0
    1.1575   39.3202  -24.5689 O   0  0  0  0  0  0  0  0  0  0  0  0
    3.6456   35.7931  -22.6335 O   0  0  0  0  0  0  0  0  0  0  0  0
    0.5983   39.6546  -25.2423 H   0  0  0  0  0  0  0  0  0  0  0  0
    3.9460   34.9057  -22.6490 H   0  0  0  0  0  0  0  0  0  0  0  0
    2.7732   33.9572  -24.6507 C   0  0  0  0  0  0  0  0  0  0  0  0
    2.5312   31.7723  -24.4527 C   0  0  0  0  0  0  0  0  0  0  0  0
    3.9152   33.4459  -25.0156 N   0  0  0  0  0  0  0  0  0  0  0  0
    3.7819   32.0538  -24.8946 N   0  0  0  0  0  0  0  0  0  0  0  0
    1.8931   32.9398  -24.2876 N   0  0  0  0  0  0  0  0  0  0  0  0
    2.0317   30.6800  -24.2294 O   0  0  0  0  0  0  0  0  0  0  0  0
    4.4812   31.3911  -25.0971 H   0  0  0  0  0  0  0  0  0  0  0  0
    0.5601   33.0639  -23.8067 C   0  0  0  0  0  0  0  0  0  0  0  0
    0.2262   32.7982  -22.4619 C   0  0  0  0  0  0  0  0  0  0  0  0
   -1.0969   32.8985  -22.0214 C   0  0  0  0  0  0  0  0  0  0  0  0
   -0.4448   33.4834  -24.6819 C   0  0  0  0  0  0  0  0  0  0  0  0
   -2.0919   33.2929  -22.9171 C   0  0  0  0  0  0  0  0  0  0  0  0
   -1.7576   33.5990  -24.2325 C   0  0  0  0  0  0  0  0  0  0  0  0
    1.1807   32.4236  -21.5864 F   0  0  0  0  0  0  0  0  0  0  0  0
    0.0977   37.6192  -26.9853 S   0  0  0  0  0  0  0  0  0  0  0  0
   -0.6992   36.4764  -27.3038 O   0  0  0  0  0  0  0  0  0  0  0  0
   -0.5278   38.8182  -26.5589 O   0  0  0  0  0  0  0  0  0  0  0  0
    1.1292   37.9448  -28.2671 N   0  0  0  0  0  0  0  0  0  0  0  0
    0.5217   38.3829  -29.5299 C   0  0  0  0  0  0  0  0  0  0  0  0
    3.3173   37.2443  -29.3840 C   0  0  0  0  0  0  0  0  0  0  0  0
    2.6195   37.8419  -28.1494 C   0  0  0  0  0  0  0  0  0  0  0  0
    3.3625   39.1374  -27.7591 C   0  0  0  0  0  0  0  0  0  0  0  0
 14 12  1  0  0  0
 14 13  1  0  0  0
 16 12  2  0  0  0
 12 15  1  0  0  0
 13 11  2  0  0  0
 24 19  1  0  0  0
 15 11  1  0  0  0
 15 18  1  0  0  0
 11  4  1  0  0  0
 32 31  1  0  0  0
 19 18  2  0  0  0
 19 20  1  0  0  0
 18 21  1  0  0  0
  4  5  2  0  0  0
  4  3  1  0  0  0
  8  3  1  0  0  0
  5  6  1  0  0  0
 31 30  1  0  0  0
 31 28  1  0  0  0
  3  2  2  0  0  0
 20 22  2  0  0  0
 21 23  2  0  0  0
 28 29  1  0  0  0
 28 25  1  0  0  0
  6 25  1  0  0  0
  6  1  2  0  0  0
 26 25  2  0  0  0
 22 23  1  0  0  0
  2  1  1  0  0  0
 25 27  2  0  0  0
  1  7  1  0  0  0
  7  9  1  0  0  0
  8 10  1  0  0  0
 14 17  1  0  0  0
M  END
> <minimizedAffinity>
-8.24411

$$$$
5J82_6GV_A_301


 32 34  0  0  0  0  0  0  0  0999 V2000
    0.1652   34.3365  -24.1731 C   0  0  0  0  0  0  0  0  0  0  0  0
   -0.6125   35.1597  -24.9897 C   0  0  0  0  0  0  0  0  0  0  0  0
    0.0095   36.0516  -25.8499 C   0  0  0  0  0  0  0  0  0  0  0  0
    1.4001   36.1386  -25.8792 C   0  0  0  0  0  0  0  0  0  0  0  0
    2.1616   35.2963  -25.0824 C   0  0  0  0  0  0  0  0  0  0  0  0
    1.5736   34.4295  -24.2018 C   0  0  0  0  0  0  0  0  0  0  0  0
   -0.4684   33.4431  -23.3645 O   0  0  0  0  0  0  0  0  0  0  0  0
   -0.7282   36.8322  -26.6544 O   0  0  0  0  0  0  0  0  0  0  0  0
    0.0311   32.8794  -22.8071 H   0  0  0  0  0  0  0  0  0  0  0  0
   -0.3083   37.4351  -27.2359 H   0  0  0  0  0  0  0  0  0  0  0  0
    2.1193   37.1334  -26.6908 C   0  0  0  0  0  0  0  0  0  0  0  0
    3.2444   38.9678  -27.1815 C   0  0  0  0  0  0  0  0  0  0  0  0
    2.3723   37.0558  -27.9671 N   0  0  0  0  0  0  0  0  0  0  0  0
    3.0874   38.2169  -28.2997 N   0  0  0  0  0  0  0  0  0  0  0  0
    2.6439   38.3168  -26.1751 N   0  0  0  0  0  0  0  0  0  0  0  0
    3.8145   40.0414  -27.0606 O   0  0  0  0  0  0  0  0  0  0  0  0
    3.4201   38.4481  -29.1970 H   0  0  0  0  0  0  0  0  0  0  0  0
    2.5679   38.8005  -24.8395 C   0  0  0  0  0  0  0  0  0  0  0  0
    1.4169   39.4520  -24.3481 C   0  0  0  0  0  0  0  0  0  0  0  0
    1.3788   39.9450  -23.0404 C   0  0  0  0  0  0  0  0  0  0  0  0
    3.6523   38.6057  -23.9805 C   0  0  0  0  0  0  0  0  0  0  0  0
    2.4824   39.7648  -22.2052 C   0  0  0  0  0  0  0  0  0  0  0  0
    3.6012   39.0830  -22.6735 C   0  0  0  0  0  0  0  0  0  0  0  0
    0.3425   39.6249  -25.1441 F   0  0  0  0  0  0  0  0  0  0  0  0
    2.6679   33.4298  -23.2265 S   0  0  0  0  0  0  0  0  0  0  0  0
    3.9058   34.1396  -23.1467 O   0  0  0  0  0  0  0  0  0  0  0  0
    1.9393   33.1481  -22.0432 O   0  0  0  0  0  0  0  0  0  0  0  0
    2.9002   32.0155  -24.0974 N   0  0  0  0  0  0  0  0  0  0  0  0
    1.8762   30.9702  -23.9758 C   0  0  0  0  0  0  0  0  0  0  0  0
    5.3989   31.5157  -24.2782 C   0  0  0  0  0  0  0  0  0  0  0  0
    4.0749   31.8106  -25.0050 C   0  0  0  0  0  0  0  0  0  0  0  0
    3.8969   30.7601  -26.1219 C   0  0  0  0  0  0  0  0  0  0  0  0
 14 12  1  0  0  0
 14 13  1  0  0  0
 16 12  2  0  0  0
 12 15  1  0  0  0
 13 11  2  0  0  0
 24 19  1  0  0  0
 15 11  1  0  0  0
 15 18  1  0  0  0
 11  4  1  0  0  0
 32 31  1  0  0  0
 19 18  2  0  0  0
 19 20  1  0  0  0
 18 21  1  0  0  0
  4  5  2  0  0  0
  4  3  1  0  0  0
  8  3  1  0  0  0
  5  6  1  0  0  0
 31 30  1  0  0  0
 31 28  1  0  0  0
  3  2  2  0  0  0
 20 22  2  0  0  0
 21 23  2  0  0  0
 28 29  1  0  0  0
 28 25  1  0  0  0
  6 25  1  0  0  0
  6  1  2  0  0  0
 26 25  2  0  0  0
 22 23  1  0  0  0
  2  1  1  0  0  0
 25 27  2  0  0  0
  1  7  1  0  0  0
  7  9  1  0  0  0
  8 10  1  0  0  0
 14 17  1  0  0  0
M  END
> <minimizedAffinity>
-7.93054

$$$$
5J82_6GV_A_301


 32 34  0  0  0  0  0  0  0  0999 V2000
    0.4819   35.3773  -24.7350 C   0  0  0  0  0  0  0  0  0  0  0  0
    0.8584   34.4003  -23.8114 C   0  0  0  0  0  0  0  0  0  0  0  0
    2.1945   34.2664  -23.4660 C   0  0  0  0  0  0  0  0  0  0  0  0
    3.1536   35.0876  -24.0559 C   0  0  0  0  0  0  0  0  0  0  0  0
    2.7631   36.0721  -24.9517 C   0  0  0  0  0  0  0  0  0  0  0  0
    1.4560   36.2052  -25.3340 C   0  0  0  0  0  0  0  0  0  0  0  0
   -0.8403   35.5136  -25.0293 O   0  0  0  0  0  0  0  0  0  0  0  0
    2.5644   33.3448  -22.5634 O   0  0  0  0  0  0  0  0  0  0  0  0
   -1.1186   36.1620  -25.6459 H   0  0  0  0  0  0  0  0  0  0  0  0
    3.4673   33.2540  -22.3296 H   0  0  0  0  0  0  0  0  0  0  0  0
    4.5964   34.9296  -23.8126 C   0  0  0  0  0  0  0  0  0  0  0  0
    6.6347   35.4167  -23.1202 C   0  0  0  0  0  0  0  0  0  0  0  0
    5.3251   33.8932  -24.1188 N   0  0  0  0  0  0  0  0  0  0  0  0
    6.6285   34.1849  -23.6873 N   0  0  0  0  0  0  0  0  0  0  0  0
    5.3857   35.8981  -23.1958 N   0  0  0  0  0  0  0  0  0  0  0  0
    7.5733   36.0196  -22.6223 O   0  0  0  0  0  0  0  0  0  0  0  0
    7.4095   33.5928  -23.7809 H   0  0  0  0  0  0  0  0  0  0  0  0
    4.9924   37.1834  -22.7303 C   0  0  0  0  0  0  0  0  0  0  0  0
    4.5368   37.3900  -21.4111 C   0  0  0  0  0  0  0  0  0  0  0  0
    4.1274   38.6579  -20.9873 C   0  0  0  0  0  0  0  0  0  0  0  0
    5.0809   38.2782  -23.5936 C   0  0  0  0  0  0  0  0  0  0  0  0
    4.1975   39.7346  -21.8724 C   0  0  0  0  0  0  0  0  0  0  0  0
    4.6889   39.5419  -23.1597 C   0  0  0  0  0  0  0  0  0  0  0  0
    4.4720   36.3583  -20.5456 F   0  0  0  0  0  0  0  0  0  0  0  0
    1.1018   37.4895  -26.5059 S   0  0  0  0  0  0  0  0  0  0  0  0
    2.3559   37.8928  -27.0599 O   0  0  0  0  0  0  0  0  0  0  0  0
    0.1021   36.9416  -27.3490 O   0  0  0  0  0  0  0  0  0  0  0  0
    0.4589   38.7592  -25.6185 N   0  0  0  0  0  0  0  0  0  0  0  0
   -0.8749   39.2423  -25.9973 C   0  0  0  0  0  0  0  0  0  0  0  0
    1.1902   40.9112  -24.4522 C   0  0  0  0  0  0  0  0  0  0  0  0
    1.1740   39.3724  -24.4531 C   0  0  0  0  0  0  0  0  0  0  0  0
    0.7277   38.8969  -23.0540 C   0  0  0  0  0  0  0  0  0  0  0  0
 14 12  1  0  0  0
 14 13  1  0  0  0
 16 12  2  0  0  0
 12 15  1  0  0  0
 13 11  2  0  0  0
 24 19  1  0  0  0
 15 11  1  0  0  0
 15 18  1  0  0  0
 11  4  1  0  0  0
 32 31  1  0  0  0
 19 18  2  0  0  0
 19 20  1  0  0  0
 18 21  1  0  0  0
  4  5  2  0  0  0
  4  3  1  0  0  0
  8  3  1  0  0  0
  5  6  1  0  0  0
 31 30  1  0  0  0
 31 28  1  0  0  0
  3  2  2  0  0  0
 20 22  2  0  0  0
 21 23  2  0  0  0
 28 29  1  0  0  0
 28 25  1  0  0  0
  6 25  1  0  0  0
  6  1  2  0  0  0
 26 25  2  0  0  0
 22 23  1  0  0  0
  2  1  1  0  0  0
 25 27  2  0  0  0
  1  7  1  0  0  0
  7  9  1  0  0  0
  8 10  1  0  0  0
 14 17  1  0  0  0
M  END
> <minimizedAffinity>
-7.78189

$$$$
5J82_6GV_A_301


 32 34  0  0  0  0  0  0  0  0999 V2000
   -1.3070   33.2731  -23.2259 C   0  0  0  0  0  0  0  0  0  0  0  0
   -0.6438   32.4745  -22.2923 C   0  0  0  0  0  0  0  0  0  0  0  0
    0.6662   32.0889  -22.5319 C   0  0  0  0  0  0  0  0  0  0  0  0
    1.3045   32.4787  -23.7078 C   0  0  0  0  0  0  0  0  0  0  0  0
    0.6436   33.2943  -24.6146 C   0  0  0  0  0  0  0  0  0  0  0  0
   -0.6594   33.6632  -24.4182 C   0  0  0  0  0  0  0  0  0  0  0  0
   -2.5799   33.6693  -22.9500 O   0  0  0  0  0  0  0  0  0  0  0  0
    1.3198   31.3392  -21.6311 O   0  0  0  0  0  0  0  0  0  0  0  0
   -3.0463   34.2057  -23.5605 H   0  0  0  0  0  0  0  0  0  0  0  0
    2.2052   31.0783  -21.7926 H   0  0  0  0  0  0  0  0  0  0  0  0
    2.6545   32.0195  -24.0716 C   0  0  0  0  0  0  0  0  0  0  0  0
    4.8380   32.0855  -24.3875 C   0  0  0  0  0  0  0  0  0  0  0  0
    2.9826   30.8280  -24.4859 N   0  0  0  0  0  0  0  0  0  0  0  0
    4.3704   30.8502  -24.6947 N   0  0  0  0  0  0  0  0  0  0  0  0
    3.7880   32.8273  -24.0069 N   0  0  0  0  0  0  0  0  0  0  0  0
    5.9875   32.4964  -24.4334 O   0  0  0  0  0  0  0  0  0  0  0  0
    4.9147   30.0937  -25.0120 H   0  0  0  0  0  0  0  0  0  0  0  0
    3.8682   34.1969  -23.6311 C   0  0  0  0  0  0  0  0  0  0  0  0
    3.3755   35.2264  -24.4606 C   0  0  0  0  0  0  0  0  0  0  0  0
    3.4936   36.5670  -24.0816 C   0  0  0  0  0  0  0  0  0  0  0  0
    4.4280   34.5340  -22.3964 C   0  0  0  0  0  0  0  0  0  0  0  0
    4.0805   36.8860  -22.8562 C   0  0  0  0  0  0  0  0  0  0  0  0
    4.5262   35.8700  -22.0165 C   0  0  0  0  0  0  0  0  0  0  0  0
    2.8001   34.9290  -25.6431 F   0  0  0  0  0  0  0  0  0  0  0  0
   -1.3887   34.6869  -25.6705 S   0  0  0  0  0  0  0  0  0  0  0  0
   -1.2919   33.9609  -26.8977 O   0  0  0  0  0  0  0  0  0  0  0  0
   -2.6634   35.0332  -25.1550 O   0  0  0  0  0  0  0  0  0  0  0  0
   -0.4260   36.0571  -25.7648 N   0  0  0  0  0  0  0  0  0  0  0  0
   -0.0979   36.7412  -24.5078 C   0  0  0  0  0  0  0  0  0  0  0  0
   -0.9177   37.1976  -27.9972 C   0  0  0  0  0  0  0  0  0  0  0  0
    0.1277   36.5664  -27.0608 C   0  0  0  0  0  0  0  0  0  0  0  0
    1.3243   37.5358  -26.9555 C   0  0  0  0  0  0  0  0  0  0  0  0
 14 12  1  0  0  0
 14 13  1  0  0  0
 16 12  2  0  0  0
 12 15  1  0  0  0
 13 11  2  0  0  0
 24 19  1  0  0  0
 15 11  1  0  0  0
 15 18  1  0  0  0
 11  4  1  0  0  0
 32 31  1  0  0  0
 19 18  2  0  0  0
 19 20  1  0  0  0
 18 21  1  0  0  0
  4  5  2  0  0  0
  4  3  1  0  0  0
  8  3  1  0  0  0
  5  6  1  0  0  0
 31 30  1  0  0  0
 31 28  1  0  0  0
  3  2  2  0  0  0
 20 22  2  0  0  0
 21 23  2  0  0  0
 28 29  1  0  0  0
 28 25  1  0  0  0
  6 25  1  0  0  0
  6  1  2  0  0  0
 26 25  2  0  0  0
 22 23  1  0  0  0
  2  1  1  0  0  0
 25 27  2  0  0  0
  1  7  1  0  0  0
  7  9  1  0  0  0
  8 10  1  0  0  0
 14 17  1  0  0  0
M  END
> <minimizedAffinity>
-7.51736

$$$$
5J82_6GV_A_301


 32 34  0  0  0  0  0  0  0  0999 V2000
    0.2799   35.9485  -24.5646 C   0  0  0  0  0  0  0  0  0  0  0  0
    0.6538   34.7773  -23.9031 C   0  0  0  0  0  0  0  0  0  0  0  0
    1.9859   34.5728  -23.5777 C   0  0  0  0  0  0  0  0  0  0  0  0
    2.9442   35.5211  -23.9306 C   0  0  0  0  0  0  0  0  0  0  0  0
    2.5558   36.6927  -24.5638 C   0  0  0  0  0  0  0  0  0  0  0  0
    1.2532   36.9057  -24.9245 C   0  0  0  0  0  0  0  0  0  0  0  0
   -1.0392   36.1430  -24.8396 O   0  0  0  0  0  0  0  0  0  0  0  0
    2.3529   33.4604  -22.9229 O   0  0  0  0  0  0  0  0  0  0  0  0
   -1.3156   36.9210  -25.2827 H   0  0  0  0  0  0  0  0  0  0  0  0
    3.2531   33.3217  -22.7028 H   0  0  0  0  0  0  0  0  0  0  0  0
    4.3849   35.3191  -23.7083 C   0  0  0  0  0  0  0  0  0  0  0  0
    6.4545   35.7592  -23.0803 C   0  0  0  0  0  0  0  0  0  0  0  0
    5.0673   34.2419  -23.9785 N   0  0  0  0  0  0  0  0  0  0  0  0
    6.3897   34.5031  -23.5872 N   0  0  0  0  0  0  0  0  0  0  0  0
    5.2232   36.2844  -23.1545 N   0  0  0  0  0  0  0  0  0  0  0  0
    7.4255   36.3483  -22.6305 O   0  0  0  0  0  0  0  0  0  0  0  0
    7.1456   33.8775  -23.6674 H   0  0  0  0  0  0  0  0  0  0  0  0
    4.8886   37.6047  -22.7438 C   0  0  0  0  0  0  0  0  0  0  0  0
    4.3895   37.8786  -21.4530 C   0  0  0  0  0  0  0  0  0  0  0  0
    4.0397   39.1811  -21.0842 C   0  0  0  0  0  0  0  0  0  0  0  0
    5.0809   38.6650  -23.6328 C   0  0  0  0  0  0  0  0  0  0  0  0
    4.2134   40.2239  -21.9953 C   0  0  0  0  0  0  0  0  0  0  0  0
    4.7477   39.9626  -23.2531 C   0  0  0  0  0  0  0  0  0  0  0  0
    4.2247   36.8799  -20.5624 F   0  0  0  0  0  0  0  0  0  0  0  0
    0.9018   38.4361  -25.7509 S   0  0  0  0  0  0  0  0  0  0  0  0
   -0.4648   38.7462  -25.4703 O   0  0  0  0  0  0  0  0  0  0  0  0
    1.9267   39.3185  -25.3251 O   0  0  0  0  0  0  0  0  0  0  0  0
    1.0695   38.1243  -27.3903 N   0  0  0  0  0  0  0  0  0  0  0  0
    2.4281   37.9035  -27.9014 C   0  0  0  0  0  0  0  0  0  0  0  0
    0.2353   38.2516  -29.8015 C   0  0  0  0  0  0  0  0  0  0  0  0
   -0.1039   38.0277  -28.3172 C   0  0  0  0  0  0  0  0  0  0  0  0
   -0.9536   36.7436  -28.2081 C   0  0  0  0  0  0  0  0  0  0  0  0
 14 12  1  0  0  0
 14 13  1  0  0  0
 16 12  2  0  0  0
 12 15  1  0  0  0
 13 11  2  0  0  0
 24 19  1  0  0  0
 15 11  1  0  0  0
 15 18  1  0  0  0
 11  4  1  0  0  0
 32 31  1  0  0  0
 19 18  2  0  0  0
 19 20  1  0  0  0
 18 21  1  0  0  0
  4  5  2  0  0  0
  4  3  1  0  0  0
  8  3  1  0  0  0
  5  6  1  0  0  0
 31 30  1  0  0  0
 31 28  1  0  0  0
  3  2  2  0  0  0
 20 22  2  0  0  0
 21 23  2  0  0  0
 28 29  1  0  0  0
 28 25  1  0  0  0
  6 25  1  0  0  0
  6  1  2  0  0  0
 26 25  2  0  0  0
 22 23  1  0  0  0
  2  1  1  0  0  0
 25 27  2  0  0  0
  1  7  1  0  0  0
  7  9  1  0  0  0
  8 10  1  0  0  0
 14 17  1  0  0  0
M  END
> <minimizedAffinity>
-7.50008

$$$$
