1DY4_SNP_A_437


 21 22  0  0  0  0  0  0  0  0999 V2000
   25.4817   55.9949   90.5932 O   0  0  0  0  0  0  0  0  0  0  0  0
   24.3231   55.3007   90.9064 C   0  0  0  0  0  0  0  0  0  0  0  0
   24.1286   54.5733   92.1178 C   0  0  0  0  0  0  0  0  0  0  0  0
   22.9202   53.8687   92.4018 C   0  0  0  0  0  0  0  0  0  0  0  0
   21.8586   53.8899   91.4449 C   0  0  0  0  0  0  0  0  0  0  0  0
   20.9619   54.6091   89.3060 C   0  0  0  0  0  0  0  0  0  0  0  0
   21.0911   55.3219   88.0733 C   0  0  0  0  0  0  0  0  0  0  0  0
   22.3017   56.0260   87.7904 C   0  0  0  0  0  0  0  0  0  0  0  0
   23.3644   56.0041   88.7502 C   0  0  0  0  0  0  0  0  0  0  0  0
   23.2424   55.3009   89.9758 C   0  0  0  0  0  0  0  0  0  0  0  0
   22.0182   54.5986   90.2396 C   0  0  0  0  0  0  0  0  0  0  0  0
   26.5587   56.0578   91.5171 C   0  0  0  0  0  0  0  0  0  0  0  0
   27.7816   56.6281   90.7972 C   0  0  0  0  0  0  0  0  0  0  0  0
   28.7596   55.6130   90.6790 O   0  0  0  0  0  0  0  0  0  0  0  0
   28.4040   54.8813   90.1508 H   0  0  0  0  0  0  0  0  0  0  0  0
   27.4426   57.1483   89.3903 C   0  0  0  0  0  0  0  0  0  0  0  0
   28.0305   58.4639   89.2128 N   0  0  0  0  0  0  0  0  0  0  0  0
   28.8946   58.5017   89.7533 H   0  0  0  0  0  0  0  0  0  0  0  0
   28.3412   58.8056   87.8386 C   0  0  0  0  0  0  0  0  0  0  0  0
   28.5100   60.3356   87.7466 C   0  0  0  0  0  0  0  0  0  0  0  0
   27.2286   58.3494   86.8735 C   0  0  0  0  0  0  0  0  0  0  0  0
  2  3  2  0  0  0
  2 10  1  0  0  0
  2  1  1  0  0  0
  3  4  1  0  0  0
  4  5  2  0  0  0
  5 11  1  0  0  0
  6  7  2  0  0  0
  6 11  1  0  0  0
  7  8  1  0  0  0
  8  9  2  0  0  0
  9 10  1  0  0  0
 10 11  2  0  0  0
  1 12  1  0  0  0
 12 13  1  0  0  0
 13 14  1  0  0  0
 13 16  1  0  0  0
 16 17  1  0  0  0
 17 19  1  0  0  0
 19 20  1  0  0  0
 19 21  1  0  0  0
 14 15  1  0  0  0
 17 18  1  0  0  0
M  END
> <minimizedAffinity>
-9.24873

$$$$
1DY4_SNP_A_437


 21 22  0  0  0  0  0  0  0  0999 V2000
   27.3391   57.3614   88.9129 O   0  0  0  0  0  0  0  0  0  0  0  0
   26.0791   56.7829   88.9258 C   0  0  0  0  0  0  0  0  0  0  0  0
   25.1912   56.7737   87.8095 C   0  0  0  0  0  0  0  0  0  0  0  0
   23.8995   56.1689   87.8642 C   0  0  0  0  0  0  0  0  0  0  0  0
   23.4722   55.5436   89.0764 C   0  0  0  0  0  0  0  0  0  0  0  0
   23.8881   54.9145   91.3846 C   0  0  0  0  0  0  0  0  0  0  0  0
   24.7310   54.8858   92.5392 C   0  0  0  0  0  0  0  0  0  0  0  0
   26.0233   55.4924   92.4829 C   0  0  0  0  0  0  0  0  0  0  0  0
   26.4501   56.1183   91.2675 C   0  0  0  0  0  0  0  0  0  0  0  0
   25.6201   56.1487   90.1179 C   0  0  0  0  0  0  0  0  0  0  0  0
   24.3246   55.5348   90.1963 C   0  0  0  0  0  0  0  0  0  0  0  0
   28.2031   57.1870   87.7992 C   0  0  0  0  0  0  0  0  0  0  0  0
   28.5280   58.5639   87.2181 C   0  0  0  0  0  0  0  0  0  0  0  0
   29.9286   58.6735   87.0527 O   0  0  0  0  0  0  0  0  0  0  0  0
   30.2347   57.9958   86.4299 H   0  0  0  0  0  0  0  0  0  0  0  0
   27.8537   58.7981   85.8560 C   0  0  0  0  0  0  0  0  0  0  0  0
   28.4553   59.9551   85.2176 N   0  0  0  0  0  0  0  0  0  0  0  0
   28.8149   59.6655   84.3081 H   0  0  0  0  0  0  0  0  0  0  0  0
   27.5509   61.0694   85.0124 C   0  0  0  0  0  0  0  0  0  0  0  0
   26.4856   60.6447   83.9816 C   0  0  0  0  0  0  0  0  0  0  0  0
   28.2953   62.3193   84.5014 C   0  0  0  0  0  0  0  0  0  0  0  0
  2  3  2  0  0  0
  2 10  1  0  0  0
  2  1  1  0  0  0
  3  4  1  0  0  0
  4  5  2  0  0  0
  5 11  1  0  0  0
  6  7  2  0  0  0
  6 11  1  0  0  0
  7  8  1  0  0  0
  8  9  2  0  0  0
  9 10  1  0  0  0
 10 11  2  0  0  0
  1 12  1  0  0  0
 12 13  1  0  0  0
 13 14  1  0  0  0
 13 16  1  0  0  0
 16 17  1  0  0  0
 17 19  1  0  0  0
 19 20  1  0  0  0
 19 21  1  0  0  0
 14 15  1  0  0  0
 17 18  1  0  0  0
M  END
> <minimizedAffinity>
-8.81038

$$$$
1DY4_SNP_A_437


 21 22  0  0  0  0  0  0  0  0999 V2000
   24.7743   55.5108   90.6720 O   0  0  0  0  0  0  0  0  0  0  0  0
   23.6866   55.5103   89.8122 C   0  0  0  0  0  0  0  0  0  0  0  0
   23.6491   56.2078   88.5686 C   0  0  0  0  0  0  0  0  0  0  0  0
   22.5075   56.1841   87.7120 C   0  0  0  0  0  0  0  0  0  0  0  0
   21.3560   55.4336   88.1043 C   0  0  0  0  0  0  0  0  0  0  0  0
   20.2168   53.9988   89.6980 C   0  0  0  0  0  0  0  0  0  0  0  0
   20.1904   53.2745   90.9305 C   0  0  0  0  0  0  0  0  0  0  0  0
   21.3336   53.3000   91.7870 C   0  0  0  0  0  0  0  0  0  0  0  0
   22.4868   54.0521   91.3925 C   0  0  0  0  0  0  0  0  0  0  0  0
   22.5207   54.7712   90.1705 C   0  0  0  0  0  0  0  0  0  0  0  0
   21.3607   54.7337   89.3253 C   0  0  0  0  0  0  0  0  0  0  0  0
   25.9131   56.3136   90.3963 C   0  0  0  0  0  0  0  0  0  0  0  0
   26.9452   56.0861   91.5019 C   0  0  0  0  0  0  0  0  0  0  0  0
   27.9755   57.0466   91.3729 O   0  0  0  0  0  0  0  0  0  0  0  0
   27.6030   57.9362   91.4768 H   0  0  0  0  0  0  0  0  0  0  0  0
   26.3337   56.2088   92.9075 C   0  0  0  0  0  0  0  0  0  0  0  0
   25.8452   54.9090   93.3313 N   0  0  0  0  0  0  0  0  0  0  0  0
   26.5965   54.2305   93.2062 H   0  0  0  0  0  0  0  0  0  0  0  0
   25.4076   54.8496   94.7121 C   0  0  0  0  0  0  0  0  0  0  0  0
   23.8963   54.5439   94.7282 C   0  0  0  0  0  0  0  0  0  0  0  0
   25.6744   56.1764   95.4509 C   0  0  0  0  0  0  0  0  0  0  0  0
  2  3  2  0  0  0
  2 10  1  0  0  0
  2  1  1  0  0  0
  3  4  1  0  0  0
  4  5  2  0  0  0
  5 11  1  0  0  0
  6  7  2  0  0  0
  6 11  1  0  0  0
  7  8  1  0  0  0
  8  9  2  0  0  0
  9 10  1  0  0  0
 10 11  2  0  0  0
  1 12  1  0  0  0
 12 13  1  0  0  0
 13 14  1  0  0  0
 13 16  1  0  0  0
 16 17  1  0  0  0
 17 19  1  0  0  0
 19 20  1  0  0  0
 19 21  1  0  0  0
 14 15  1  0  0  0
 17 18  1  0  0  0
M  END
> <minimizedAffinity>
-8.78273

$$$$
1DY4_SNP_A_437


 21 22  0  0  0  0  0  0  0  0999 V2000
   25.8352   55.6168   90.8944 O   0  0  0  0  0  0  0  0  0  0  0  0
   24.8444   55.0191   91.6582 C   0  0  0  0  0  0  0  0  0  0  0  0
   24.9996   54.6570   93.0291 C   0  0  0  0  0  0  0  0  0  0  0  0
   23.9546   54.0403   93.7807 C   0  0  0  0  0  0  0  0  0  0  0  0
   22.7016   53.7750   93.1464 C   0  0  0  0  0  0  0  0  0  0  0  0
   21.2739   53.8513   91.1836 C   0  0  0  0  0  0  0  0  0  0  0  0
   21.0517   54.1923   89.8130 C   0  0  0  0  0  0  0  0  0  0  0  0
   22.0991   54.8088   89.0619 C   0  0  0  0  0  0  0  0  0  0  0  0
   23.3540   55.0743   89.6989 C   0  0  0  0  0  0  0  0  0  0  0  0
   23.5807   54.7407   91.0586 C   0  0  0  0  0  0  0  0  0  0  0  0
   22.5156   54.1202   91.7948 C   0  0  0  0  0  0  0  0  0  0  0  0
   26.8533   56.3925   91.5101 C   0  0  0  0  0  0  0  0  0  0  0  0
   28.0104   56.5451   90.5216 C   0  0  0  0  0  0  0  0  0  0  0  0
   28.7501   55.3398   90.4910 O   0  0  0  0  0  0  0  0  0  0  0  0
   28.1784   54.6173   90.1876 H   0  0  0  0  0  0  0  0  0  0  0  0
   27.5251   56.8588   89.0965 C   0  0  0  0  0  0  0  0  0  0  0  0
   27.3473   58.2929   88.9571 N   0  0  0  0  0  0  0  0  0  0  0  0
   28.0065   58.7575   89.5817 H   0  0  0  0  0  0  0  0  0  0  0  0
   27.5611   58.8000   87.6159 C   0  0  0  0  0  0  0  0  0  0  0  0
   26.8251   57.8750   86.6257 C   0  0  0  0  0  0  0  0  0  0  0  0
   29.0603   58.8506   87.2593 C   0  0  0  0  0  0  0  0  0  0  0  0
  2  3  2  0  0  0
  2 10  1  0  0  0
  2  1  1  0  0  0
  3  4  1  0  0  0
  4  5  2  0  0  0
  5 11  1  0  0  0
  6  7  2  0  0  0
  6 11  1  0  0  0
  7  8  1  0  0  0
  8  9  2  0  0  0
  9 10  1  0  0  0
 10 11  2  0  0  0
  1 12  1  0  0  0
 12 13  1  0  0  0
 13 14  1  0  0  0
 13 16  1  0  0  0
 16 17  1  0  0  0
 17 19  1  0  0  0
 19 20  1  0  0  0
 19 21  1  0  0  0
 14 15  1  0  0  0
 17 18  1  0  0  0
M  END
> <minimizedAffinity>
-8.73281

$$$$
1DY4_SNP_A_437


 21 22  0  0  0  0  0  0  0  0999 V2000
   27.9672   57.5689   88.5131 O   0  0  0  0  0  0  0  0  0  0  0  0
   27.1606   56.9331   89.4445 C   0  0  0  0  0  0  0  0  0  0  0  0
   27.5586   56.6441   90.7834 C   0  0  0  0  0  0  0  0  0  0  0  0
   26.6983   55.9848   91.7121 C   0  0  0  0  0  0  0  0  0  0  0  0
   25.3864   55.5992   91.2958 C   0  0  0  0  0  0  0  0  0  0  0  0
   23.6658   55.4827   89.5863 C   0  0  0  0  0  0  0  0  0  0  0  0
   23.2036   55.7457   88.2591 C   0  0  0  0  0  0  0  0  0  0  0  0
   24.0664   56.4051   87.3306 C   0  0  0  0  0  0  0  0  0  0  0  0
   25.3805   56.7911   87.7492 C   0  0  0  0  0  0  0  0  0  0  0  0
   25.8448   56.5352   89.0647 C   0  0  0  0  0  0  0  0  0  0  0  0
   24.9625   55.8700   89.9814 C   0  0  0  0  0  0  0  0  0  0  0  0
   28.2975   58.9424   88.6608 C   0  0  0  0  0  0  0  0  0  0  0  0
   28.9329   59.4305   87.3581 C   0  0  0  0  0  0  0  0  0  0  0  0
   29.9667   58.5383   86.9890 O   0  0  0  0  0  0  0  0  0  0  0  0
   29.5937   57.6556   86.8386 H   0  0  0  0  0  0  0  0  0  0  0  0
   27.9180   59.5085   86.2053 C   0  0  0  0  0  0  0  0  0  0  0  0
   28.3965   58.7084   85.0924 N   0  0  0  0  0  0  0  0  0  0  0  0
   28.9741   57.9556   85.4669 H   0  0  0  0  0  0  0  0  0  0  0  0
   27.3509   58.1155   84.2819 C   0  0  0  0  0  0  0  0  0  0  0  0
   26.0460   58.9003   84.5254 C   0  0  0  0  0  0  0  0  0  0  0  0
   27.1334   56.6297   84.6319 C   0  0  0  0  0  0  0  0  0  0  0  0
  2  3  2  0  0  0
  2 10  1  0  0  0
  2  1  1  0  0  0
  3  4  1  0  0  0
  4  5  2  0  0  0
  5 11  1  0  0  0
  6  7  2  0  0  0
  6 11  1  0  0  0
  7  8  1  0  0  0
  8  9  2  0  0  0
  9 10  1  0  0  0
 10 11  2  0  0  0
  1 12  1  0  0  0
 12 13  1  0  0  0
 13 14  1  0  0  0
 13 16  1  0  0  0
 16 17  1  0  0  0
 17 19  1  0  0  0
 19 20  1  0  0  0
 19 21  1  0  0  0
 14 15  1  0  0  0
 17 18  1  0  0  0
M  END
> <minimizedAffinity>
-8.72969

$$$$
1DY4_SNP_A_437


 21 22  0  0  0  0  0  0  0  0999 V2000
   25.6922   55.8021   89.4842 O   0  0  0  0  0  0  0  0  0  0  0  0
   24.4106   55.7699   88.9562 C   0  0  0  0  0  0  0  0  0  0  0  0
   24.0440   56.3561   87.7085 C   0  0  0  0  0  0  0  0  0  0  0  0
   22.7112   56.3032   87.2004 C   0  0  0  0  0  0  0  0  0  0  0  0
   21.7003   55.6375   87.9606 C   0  0  0  0  0  0  0  0  0  0  0  0
   21.0204   54.3959   89.9336 C   0  0  0  0  0  0  0  0  0  0  0  0
   21.3220   53.7847   91.1905 C   0  0  0  0  0  0  0  0  0  0  0  0
   22.6565   53.8392   91.6980 C   0  0  0  0  0  0  0  0  0  0  0  0
   23.6684   54.5064   90.9349 C   0  0  0  0  0  0  0  0  0  0  0  0
   23.3767   55.1130   89.6866 C   0  0  0  0  0  0  0  0  0  0  0  0
   22.0290   55.0482   89.1957 C   0  0  0  0  0  0  0  0  0  0  0  0
   26.2615   57.0263   89.9255 C   0  0  0  0  0  0  0  0  0  0  0  0
   27.7466   57.0293   89.5600 C   0  0  0  0  0  0  0  0  0  0  0  0
   28.3185   55.7965   89.9524 O   0  0  0  0  0  0  0  0  0  0  0  0
   27.8847   55.0722   89.4748 H   0  0  0  0  0  0  0  0  0  0  0  0
   27.9776   57.2188   88.0515 C   0  0  0  0  0  0  0  0  0  0  0  0
   27.4286   58.4986   87.6411 N   0  0  0  0  0  0  0  0  0  0  0  0
   26.9053   58.8868   88.4260 H   0  0  0  0  0  0  0  0  0  0  0  0
   28.4176   59.4755   87.2296 C   0  0  0  0  0  0  0  0  0  0  0  0
   28.6373   60.4620   88.3943 C   0  0  0  0  0  0  0  0  0  0  0  0
   27.9648   60.2495   85.9752 C   0  0  0  0  0  0  0  0  0  0  0  0
  2  3  2  0  0  0
  2 10  1  0  0  0
  2  1  1  0  0  0
  3  4  1  0  0  0
  4  5  2  0  0  0
  5 11  1  0  0  0
  6  7  2  0  0  0
  6 11  1  0  0  0
  7  8  1  0  0  0
  8  9  2  0  0  0
  9 10  1  0  0  0
 10 11  2  0  0  0
  1 12  1  0  0  0
 12 13  1  0  0  0
 13 14  1  0  0  0
 13 16  1  0  0  0
 16 17  1  0  0  0
 17 19  1  0  0  0
 19 20  1  0  0  0
 19 21  1  0  0  0
 14 15  1  0  0  0
 17 18  1  0  0  0
M  END
> <minimizedAffinity>
-8.71258

$$$$
1DY4_SNP_A_437


 21 22  0  0  0  0  0  0  0  0999 V2000
   22.6557   55.5819   87.2686 O   0  0  0  0  0  0  0  0  0  0  0  0
   23.1053   55.4122   88.5691 C   0  0  0  0  0  0  0  0  0  0  0  0
   24.3732   55.8623   89.0428 C   0  0  0  0  0  0  0  0  0  0  0  0
   24.8003   55.6657   90.3905 C   0  0  0  0  0  0  0  0  0  0  0  0
   23.9313   54.9975   91.3077 C   0  0  0  0  0  0  0  0  0  0  0  0
   21.8280   53.8835   91.7892 C   0  0  0  0  0  0  0  0  0  0  0  0
   20.5425   53.4104   91.3794 C   0  0  0  0  0  0  0  0  0  0  0  0
   20.1169   53.6074   90.0299 C   0  0  0  0  0  0  0  0  0  0  0  0
   20.9886   54.2774   89.1120 C   0  0  0  0  0  0  0  0  0  0  0  0
   22.2642   54.7510   89.5121 C   0  0  0  0  0  0  0  0  0  0  0  0
   22.6732   54.5412   90.8723 C   0  0  0  0  0  0  0  0  0  0  0  0
   23.0944   56.6863   86.4905 C   0  0  0  0  0  0  0  0  0  0  0  0
   23.7345   56.1517   85.2085 C   0  0  0  0  0  0  0  0  0  0  0  0
   23.4984   57.0710   84.1596 O   0  0  0  0  0  0  0  0  0  0  0  0
   23.9088   57.9225   84.3775 H   0  0  0  0  0  0  0  0  0  0  0  0
   25.2524   55.9509   85.3520 C   0  0  0  0  0  0  0  0  0  0  0  0
   25.9420   56.8716   84.4664 N   0  0  0  0  0  0  0  0  0  0  0  0
   25.2405   57.3969   83.9446 H   0  0  0  0  0  0  0  0  0  0  0  0
   26.8095   57.8194   85.1380 C   0  0  0  0  0  0  0  0  0  0  0  0
   26.8913   57.4294   86.6276 C   0  0  0  0  0  0  0  0  0  0  0  0
   26.2823   59.2627   85.0098 C   0  0  0  0  0  0  0  0  0  0  0  0
  2  3  2  0  0  0
  2 10  1  0  0  0
  2  1  1  0  0  0
  3  4  1  0  0  0
  4  5  2  0  0  0
  5 11  1  0  0  0
  6  7  2  0  0  0
  6 11  1  0  0  0
  7  8  1  0  0  0
  8  9  2  0  0  0
  9 10  1  0  0  0
 10 11  2  0  0  0
  1 12  1  0  0  0
 12 13  1  0  0  0
 13 14  1  0  0  0
 13 16  1  0  0  0
 16 17  1  0  0  0
 17 19  1  0  0  0
 19 20  1  0  0  0
 19 21  1  0  0  0
 14 15  1  0  0  0
 17 18  1  0  0  0
M  END
> <minimizedAffinity>
-8.68837

$$$$
1DY4_SNP_A_437


 21 22  0  0  0  0  0  0  0  0999 V2000
   24.5184   55.3845   91.7255 O   0  0  0  0  0  0  0  0  0  0  0  0
   23.5702   54.4996   92.2157 C   0  0  0  0  0  0  0  0  0  0  0  0
   23.6523   53.8634   93.4898 C   0  0  0  0  0  0  0  0  0  0  0  0
   22.6552   52.9555   93.9574 C   0  0  0  0  0  0  0  0  0  0  0  0
   21.5273   52.6694   93.1273 C   0  0  0  0  0  0  0  0  0  0  0  0
   20.2976   52.9877   91.0578 C   0  0  0  0  0  0  0  0  0  0  0  0
   20.1531   53.5942   89.7711 C   0  0  0  0  0  0  0  0  0  0  0  0
   21.1526   54.5022   89.3043 C   0  0  0  0  0  0  0  0  0  0  0  0
   22.2820   54.7881   90.1372 C   0  0  0  0  0  0  0  0  0  0  0  0
   22.4307   54.1917   91.4154 C   0  0  0  0  0  0  0  0  0  0  0  0
   21.4159   53.2808   91.8646 C   0  0  0  0  0  0  0  0  0  0  0  0
   25.8995   55.1829   91.9887 C   0  0  0  0  0  0  0  0  0  0  0  0
   26.6322   56.5079   91.7723 C   0  0  0  0  0  0  0  0  0  0  0  0
   27.6991   56.5989   92.6966 O   0  0  0  0  0  0  0  0  0  0  0  0
   28.3232   55.8725   92.5425 H   0  0  0  0  0  0  0  0  0  0  0  0
   27.2034   56.6352   90.3502 C   0  0  0  0  0  0  0  0  0  0  0  0
   26.2660   56.0558   89.4051 N   0  0  0  0  0  0  0  0  0  0  0  0
   25.4836   55.6665   89.9311 H   0  0  0  0  0  0  0  0  0  0  0  0
   25.7360   56.9897   88.4311 C   0  0  0  0  0  0  0  0  0  0  0  0
   24.5592   56.3116   87.7008 C   0  0  0  0  0  0  0  0  0  0  0  0
   26.8074   57.4106   87.4052 C   0  0  0  0  0  0  0  0  0  0  0  0
  2  3  2  0  0  0
  2 10  1  0  0  0
  2  1  1  0  0  0
  3  4  1  0  0  0
  4  5  2  0  0  0
  5 11  1  0  0  0
  6  7  2  0  0  0
  6 11  1  0  0  0
  7  8  1  0  0  0
  8  9  2  0  0  0
  9 10  1  0  0  0
 10 11  2  0  0  0
  1 12  1  0  0  0
 12 13  1  0  0  0
 13 14  1  0  0  0
 13 16  1  0  0  0
 16 17  1  0  0  0
 17 19  1  0  0  0
 19 20  1  0  0  0
 19 21  1  0  0  0
 14 15  1  0  0  0
 17 18  1  0  0  0
M  END
> <minimizedAffinity>
-8.66116

$$$$
1DY4_SNP_A_437


 21 22  0  0  0  0  0  0  0  0999 V2000
   25.9633   56.2832   88.8677 O   0  0  0  0  0  0  0  0  0  0  0  0
   24.6219   56.0413   88.6135 C   0  0  0  0  0  0  0  0  0  0  0  0
   23.9542   56.4202   87.4114 C   0  0  0  0  0  0  0  0  0  0  0  0
   22.5695   56.1548   87.1889 C   0  0  0  0  0  0  0  0  0  0  0  0
   21.8165   55.4819   88.2004 C   0  0  0  0  0  0  0  0  0  0  0  0
   21.6887   54.4318   90.3861 C   0  0  0  0  0  0  0  0  0  0  0  0
   22.2983   54.0221   91.6129 C   0  0  0  0  0  0  0  0  0  0  0  0
   23.6843   54.2893   91.8342 C   0  0  0  0  0  0  0  0  0  0  0  0
   24.4375   54.9635   90.8196 C   0  0  0  0  0  0  0  0  0  0  0  0
   23.8398   55.3708   89.5997 C   0  0  0  0  0  0  0  0  0  0  0  0
   22.4455   55.0941   89.3982 C   0  0  0  0  0  0  0  0  0  0  0  0
   26.3783   57.5087   89.4537 C   0  0  0  0  0  0  0  0  0  0  0  0
   27.3148   58.2203   88.4760 C   0  0  0  0  0  0  0  0  0  0  0  0
   28.3979   58.7737   89.1981 O   0  0  0  0  0  0  0  0  0  0  0  0
   28.8915   58.0627   89.6360 H   0  0  0  0  0  0  0  0  0  0  0  0
   27.8744   57.2696   87.4047 C   0  0  0  0  0  0  0  0  0  0  0  0
   27.9810   57.9807   86.1434 N   0  0  0  0  0  0  0  0  0  0  0  0
   27.9746   57.2938   85.3894 H   0  0  0  0  0  0  0  0  0  0  0  0
   26.9168   58.9336   85.8961 C   0  0  0  0  0  0  0  0  0  0  0  0
   25.9225   58.3015   84.9013 C   0  0  0  0  0  0  0  0  0  0  0  0
   27.4599   60.2545   85.3150 C   0  0  0  0  0  0  0  0  0  0  0  0
  2  3  2  0  0  0
  2 10  1  0  0  0
  2  1  1  0  0  0
  3  4  1  0  0  0
  4  5  2  0  0  0
  5 11  1  0  0  0
  6  7  2  0  0  0
  6 11  1  0  0  0
  7  8  1  0  0  0
  8  9  2  0  0  0
  9 10  1  0  0  0
 10 11  2  0  0  0
  1 12  1  0  0  0
 12 13  1  0  0  0
 13 14  1  0  0  0
 13 16  1  0  0  0
 16 17  1  0  0  0
 17 19  1  0  0  0
 19 20  1  0  0  0
 19 21  1  0  0  0
 14 15  1  0  0  0
 17 18  1  0  0  0
M  END
> <minimizedAffinity>
-8.54560

$$$$
1DY4_SNP_A_437


 21 22  0  0  0  0  0  0  0  0999 V2000
   23.9574   56.5047   87.5276 O   0  0  0  0  0  0  0  0  0  0  0  0
   23.6361   55.8740   88.7198 C   0  0  0  0  0  0  0  0  0  0  0  0
   22.4033   55.1983   88.9608 C   0  0  0  0  0  0  0  0  0  0  0  0
   22.1095   54.5627   90.2046 C   0  0  0  0  0  0  0  0  0  0  0  0
   23.0814   54.5958   91.2521 C   0  0  0  0  0  0  0  0  0  0  0  0
   25.2560   55.2783   92.0900 C   0  0  0  0  0  0  0  0  0  0  0  0
   26.5131   55.9360   91.9123 C   0  0  0  0  0  0  0  0  0  0  0  0
   26.8051   56.5724   90.6669 C   0  0  0  0  0  0  0  0  0  0  0  0
   25.8304   56.5380   89.6182 C   0  0  0  0  0  0  0  0  0  0  0  0
   24.5824   55.8858   89.7867 C   0  0  0  0  0  0  0  0  0  0  0  0
   24.3083   55.2540   91.0466 C   0  0  0  0  0  0  0  0  0  0  0  0
   23.0532   56.4843   86.4325 C   0  0  0  0  0  0  0  0  0  0  0  0
   23.8029   55.9897   85.1946 C   0  0  0  0  0  0  0  0  0  0  0  0
   23.2019   56.5459   84.0412 O   0  0  0  0  0  0  0  0  0  0  0  0
   23.2685   57.5130   84.0763 H   0  0  0  0  0  0  0  0  0  0  0  0
   25.2885   56.3863   85.2129 C   0  0  0  0  0  0  0  0  0  0  0  0
   25.4580   57.6376   84.4965 N   0  0  0  0  0  0  0  0  0  0  0  0
   24.6261   58.2074   84.6503 H   0  0  0  0  0  0  0  0  0  0  0  0
   26.6165   58.4110   84.8982 C   0  0  0  0  0  0  0  0  0  0  0  0
   26.8354   58.2047   86.4106 C   0  0  0  0  0  0  0  0  0  0  0  0
   26.4280   59.9126   84.6033 C   0  0  0  0  0  0  0  0  0  0  0  0
  2  3  2  0  0  0
  2 10  1  0  0  0
  2  1  1  0  0  0
  3  4  1  0  0  0
  4  5  2  0  0  0
  5 11  1  0  0  0
  6  7  2  0  0  0
  6 11  1  0  0  0
  7  8  1  0  0  0
  8  9  2  0  0  0
  9 10  1  0  0  0
 10 11  2  0  0  0
  1 12  1  0  0  0
 12 13  1  0  0  0
 13 14  1  0  0  0
 13 16  1  0  0  0
 16 17  1  0  0  0
 17 19  1  0  0  0
 19 20  1  0  0  0
 19 21  1  0  0  0
 14 15  1  0  0  0
 17 18  1  0  0  0
M  END
> <minimizedAffinity>
-8.38719

$$$$
