1ADL_ACD_A_135


 23 22  0  0  0  0  0  0  0  0999 V2000
  -50.8002   71.3061   -9.1114 C   0  0  0  0  0  0  0  0  0  0  0  0
  -50.3464   70.0749   -9.5718 C   0  0  0  0  0  0  0  0  0  0  0  0
  -49.8717   72.2941   -8.5985 C   0  0  0  0  0  0  0  0  0  0  0  0
  -49.3980   72.3051   -6.1719 C   0  0  0  0  0  0  0  0  0  0  0  0
  -50.1838   72.7133   -7.2433 C   0  0  0  0  0  0  0  0  0  0  0  0
  -48.2497   71.4527   -6.3921 C   0  0  0  0  0  0  0  0  0  0  0  0
  -47.0996   71.7503   -5.4481 C   0  0  0  0  0  0  0  0  0  0  0  0
  -45.9858   72.4677   -6.1795 C   0  0  0  0  0  0  0  0  0  0  0  0
  -46.0138   73.9604   -5.9865 C   0  0  0  0  0  0  0  0  0  0  0  0
  -46.5741   74.4485   -4.9750 O   0  0  0  0  0  0  0  0  0  0  0  0
  -45.4755   74.6731   -6.8633 O   0  0  0  0  0  0  0  0  0  0  0  0
  -45.0663   74.2737   -7.6055 H   0  0  0  0  0  0  0  0  0  0  0  0
  -48.9307   69.7381   -9.5545 C   0  0  0  0  0  0  0  0  0  0  0  0
  -48.6382   68.5787   -8.7277 C   0  0  0  0  0  0  0  0  0  0  0  0
  -48.3023   67.3486   -9.2928 C   0  0  0  0  0  0  0  0  0  0  0  0
  -48.2286   67.1734  -10.7325 C   0  0  0  0  0  0  0  0  0  0  0  0
  -49.4191   66.5450  -11.2895 C   0  0  0  0  0  0  0  0  0  0  0  0
  -50.1027   67.1282  -12.3565 C   0  0  0  0  0  0  0  0  0  0  0  0
  -49.6446   68.3778  -12.9334 C   0  0  0  0  0  0  0  0  0  0  0  0
  -50.7807   69.2500  -13.4554 C   0  0  0  0  0  0  0  0  0  0  0  0
  -52.0706   68.9736  -12.7040 C   0  0  0  0  0  0  0  0  0  0  0  0
  -52.8894   70.2416  -12.5175 C   0  0  0  0  0  0  0  0  0  0  0  0
  -52.0245   71.4666  -12.6799 C   0  0  0  0  0  0  0  0  0  0  0  0
  9  8  1  0  0  0
  9 10  2  0  0  0
  9 11  1  0  0  0
  8  7  1  0  0  0
  7  6  1  0  0  0
  6  4  1  0  0  0
  4  5  2  0  0  0
  5  3  1  0  0  0
  3  1  1  0  0  0
  1  2  2  0  0  0
  2 13  1  0  0  0
 13 14  1  0  0  0
 14 15  2  0  0  0
 15 16  1  0  0  0
 16 17  1  0  0  0
 17 18  2  0  0  0
 18 19  1  0  0  0
 19 20  1  0  0  0
 20 21  1  0  0  0
 21 22  1  0  0  0
 22 23  1  0  0  0
 11 12  1  0  0  0
M  END
> <minimizedAffinity>
-6.52981

$$$$
1ADL_ACD_A_135


 23 22  0  0  0  0  0  0  0  0999 V2000
  -45.0471   66.3330   -5.2302 C   0  0  0  0  0  0  0  0  0  0  0  0
  -43.9178   66.3598   -6.0413 C   0  0  0  0  0  0  0  0  0  0  0  0
  -45.6008   67.5586   -4.6892 C   0  0  0  0  0  0  0  0  0  0  0  0
  -46.7363   69.4178   -5.8581 C   0  0  0  0  0  0  0  0  0  0  0  0
  -46.7004   68.0804   -5.4818 C   0  0  0  0  0  0  0  0  0  0  0  0
  -45.6717   70.3154   -5.4648 C   0  0  0  0  0  0  0  0  0  0  0  0
  -45.4339   71.4297   -6.4669 C   0  0  0  0  0  0  0  0  0  0  0  0
  -46.5724   72.4261   -6.4315 C   0  0  0  0  0  0  0  0  0  0  0  0
  -46.1393   73.8080   -6.0206 C   0  0  0  0  0  0  0  0  0  0  0  0
  -46.5187   74.2799   -4.9213 O   0  0  0  0  0  0  0  0  0  0  0  0
  -45.4109   74.4509   -6.8097 O   0  0  0  0  0  0  0  0  0  0  0  0
  -45.1469   74.0664   -7.6224 H   0  0  0  0  0  0  0  0  0  0  0  0
  -43.2567   67.6133   -6.3730 C   0  0  0  0  0  0  0  0  0  0  0  0
  -42.6663   67.6036   -7.7013 C   0  0  0  0  0  0  0  0  0  0  0  0
  -43.3825   68.0323   -8.8188 C   0  0  0  0  0  0  0  0  0  0  0  0
  -44.7495   68.5087   -8.7028 C   0  0  0  0  0  0  0  0  0  0  0  0
  -45.7367   67.4653   -8.9460 C   0  0  0  0  0  0  0  0  0  0  0  0
  -47.0345   67.7875   -9.3434 C   0  0  0  0  0  0  0  0  0  0  0  0
  -47.4315   69.1715   -9.5195 C   0  0  0  0  0  0  0  0  0  0  0  0
  -48.8788   69.4363   -9.1203 C   0  0  0  0  0  0  0  0  0  0  0  0
  -49.0350   70.8227   -8.5217 C   0  0  0  0  0  0  0  0  0  0  0  0
  -50.4986   71.2217   -8.4147 C   0  0  0  0  0  0  0  0  0  0  0  0
  -50.6365   72.5942   -7.8046 C   0  0  0  0  0  0  0  0  0  0  0  0
  9  8  1  0  0  0
  9 10  2  0  0  0
  9 11  1  0  0  0
  8  7  1  0  0  0
  7  6  1  0  0  0
  6  4  1  0  0  0
  4  5  2  0  0  0
  5  3  1  0  0  0
  3  1  1  0  0  0
  1  2  2  0  0  0
  2 13  1  0  0  0
 13 14  1  0  0  0
 14 15  2  0  0  0
 15 16  1  0  0  0
 16 17  1  0  0  0
 17 18  2  0  0  0
 18 19  1  0  0  0
 19 20  1  0  0  0
 20 21  1  0  0  0
 21 22  1  0  0  0
 22 23  1  0  0  0
 11 12  1  0  0  0
M  END
> <minimizedAffinity>
-6.20600

$$$$
1ADL_ACD_A_135


 23 22  0  0  0  0  0  0  0  0999 V2000
  -51.8829   72.7157   -8.5011 C   0  0  0  0  0  0  0  0  0  0  0  0
  -52.3352   72.1390   -9.6829 C   0  0  0  0  0  0  0  0  0  0  0  0
  -50.4719   72.7161   -8.1687 C   0  0  0  0  0  0  0  0  0  0  0  0
  -49.2435   72.8853   -6.0298 C   0  0  0  0  0  0  0  0  0  0  0  0
  -50.1866   73.3929   -6.9156 C   0  0  0  0  0  0  0  0  0  0  0  0
  -48.5266   71.6686   -6.3452 C   0  0  0  0  0  0  0  0  0  0  0  0
  -47.0820   71.6934   -5.8815 C   0  0  0  0  0  0  0  0  0  0  0  0
  -46.6252   73.1169   -5.6468 C   0  0  0  0  0  0  0  0  0  0  0  0
  -45.6304   73.5974   -6.6694 C   0  0  0  0  0  0  0  0  0  0  0  0
  -44.8336   72.7829   -7.1958 O   0  0  0  0  0  0  0  0  0  0  0  0
  -45.6284   74.8159   -6.9550 O   0  0  0  0  0  0  0  0  0  0  0  0
  -46.2382   75.3950   -6.5418 H   0  0  0  0  0  0  0  0  0  0  0  0
  -51.4118   71.5193  -10.6217 C   0  0  0  0  0  0  0  0  0  0  0  0
  -51.8804   71.5821  -11.9964 C   0  0  0  0  0  0  0  0  0  0  0  0
  -51.7232   70.5048  -12.8683 C   0  0  0  0  0  0  0  0  0  0  0  0
  -51.0858   69.2725  -12.4393 C   0  0  0  0  0  0  0  0  0  0  0  0
  -49.8701   68.9732  -13.1843 C   0  0  0  0  0  0  0  0  0  0  0  0
  -49.1331   67.8196  -12.9165 C   0  0  0  0  0  0  0  0  0  0  0  0
  -49.5596   66.8927  -11.8853 C   0  0  0  0  0  0  0  0  0  0  0  0
  -48.8002   67.0624  -10.5744 C   0  0  0  0  0  0  0  0  0  0  0  0
  -49.7532   67.3192   -9.4208 C   0  0  0  0  0  0  0  0  0  0  0  0
  -49.7765   68.7899   -9.0342 C   0  0  0  0  0  0  0  0  0  0  0  0
  -48.4957   69.4723   -9.4452 C   0  0  0  0  0  0  0  0  0  0  0  0
  9  8  1  0  0  0
  9 10  2  0  0  0
  9 11  1  0  0  0
  8  7  1  0  0  0
  7  6  1  0  0  0
  6  4  1  0  0  0
  4  5  2  0  0  0
  5  3  1  0  0  0
  3  1  1  0  0  0
  1  2  2  0  0  0
  2 13  1  0  0  0
 13 14  1  0  0  0
 14 15  2  0  0  0
 15 16  1  0  0  0
 16 17  1  0  0  0
 17 18  2  0  0  0
 18 19  1  0  0  0
 19 20  1  0  0  0
 20 21  1  0  0  0
 21 22  1  0  0  0
 22 23  1  0  0  0
 11 12  1  0  0  0
M  END
> <minimizedAffinity>
-6.16432

$$$$
1ADL_ACD_A_135


 23 22  0  0  0  0  0  0  0  0999 V2000
  -46.4889   73.6172   -7.7836 C   0  0  0  0  0  0  0  0  0  0  0  0
  -46.1841   73.1956   -9.0733 C   0  0  0  0  0  0  0  0  0  0  0  0
  -45.7487   73.1125   -6.6440 C   0  0  0  0  0  0  0  0  0  0  0  0
  -46.0780   70.9986   -5.4049 C   0  0  0  0  0  0  0  0  0  0  0  0
  -46.5455   72.2497   -5.7894 C   0  0  0  0  0  0  0  0  0  0  0  0
  -44.7823   70.5347   -5.8517 C   0  0  0  0  0  0  0  0  0  0  0  0
  -44.3979   69.1898   -5.2635 C   0  0  0  0  0  0  0  0  0  0  0  0
  -44.9490   68.0637   -6.1111 C   0  0  0  0  0  0  0  0  0  0  0  0
  -45.7815   67.0840   -5.3280 C   0  0  0  0  0  0  0  0  0  0  0  0
  -45.5065   65.8600   -5.3670 O   0  0  0  0  0  0  0  0  0  0  0  0
  -46.7411   67.5339   -4.6621 O   0  0  0  0  0  0  0  0  0  0  0  0
  -46.9167   68.4542   -4.6565 H   0  0  0  0  0  0  0  0  0  0  0  0
  -45.1166   72.2381   -9.3215 C   0  0  0  0  0  0  0  0  0  0  0  0
  -45.3160   71.4776  -10.5442 C   0  0  0  0  0  0  0  0  0  0  0  0
  -45.6594   70.1261  -10.5123 C   0  0  0  0  0  0  0  0  0  0  0  0
  -45.8344   69.4205   -9.2551 C   0  0  0  0  0  0  0  0  0  0  0  0
  -46.9794   68.5199   -9.2644 C   0  0  0  0  0  0  0  0  0  0  0  0
  -48.2223   68.9384   -8.7889 C   0  0  0  0  0  0  0  0  0  0  0  0
  -48.4011   70.2810   -8.2697 C   0  0  0  0  0  0  0  0  0  0  0  0
  -49.7292   70.9096   -8.6760 C   0  0  0  0  0  0  0  0  0  0  0  0
  -49.8177   72.3504   -8.2057 C   0  0  0  0  0  0  0  0  0  0  0  0
  -50.0367   72.4335   -6.7030 C   0  0  0  0  0  0  0  0  0  0  0  0
  -49.9617   73.8635   -6.2289 C   0  0  0  0  0  0  0  0  0  0  0  0
  9  8  1  0  0  0
  9 10  2  0  0  0
  9 11  1  0  0  0
  8  7  1  0  0  0
  7  6  1  0  0  0
  6  4  1  0  0  0
  4  5  2  0  0  0
  5  3  1  0  0  0
  3  1  1  0  0  0
  1  2  2  0  0  0
  2 13  1  0  0  0
 13 14  1  0  0  0
 14 15  2  0  0  0
 15 16  1  0  0  0
 16 17  1  0  0  0
 17 18  2  0  0  0
 18 19  1  0  0  0
 19 20  1  0  0  0
 20 21  1  0  0  0
 21 22  1  0  0  0
 22 23  1  0  0  0
 11 12  1  0  0  0
M  END
> <minimizedAffinity>
-6.03312

$$$$
1ADL_ACD_A_135


 23 22  0  0  0  0  0  0  0  0999 V2000
  -51.8969   72.0256  -10.0816 C   0  0  0  0  0  0  0  0  0  0  0  0
  -51.0642   71.4545   -9.1255 C   0  0  0  0  0  0  0  0  0  0  0  0
  -51.7547   71.6900  -11.4846 C   0  0  0  0  0  0  0  0  0  0  0  0
  -52.4627   69.7820  -12.8884 C   0  0  0  0  0  0  0  0  0  0  0  0
  -52.7687   70.7594  -11.9489 C   0  0  0  0  0  0  0  0  0  0  0  0
  -51.1212   69.6752  -13.4201 C   0  0  0  0  0  0  0  0  0  0  0  0
  -50.4397   68.3698  -13.0545 C   0  0  0  0  0  0  0  0  0  0  0  0
  -48.9406   68.5598  -12.9713 C   0  0  0  0  0  0  0  0  0  0  0  0
  -48.1821   67.2629  -12.8764 C   0  0  0  0  0  0  0  0  0  0  0  0
  -48.5872   66.3579  -12.1070 O   0  0  0  0  0  0  0  0  0  0  0  0
  -47.1509   67.1368  -13.5744 O   0  0  0  0  0  0  0  0  0  0  0  0
  -46.8784   67.8340  -14.1379 H   0  0  0  0  0  0  0  0  0  0  0  0
  -50.0266   70.5048   -9.4992 C   0  0  0  0  0  0  0  0  0  0  0  0
  -50.4432   69.1220   -9.3332 C   0  0  0  0  0  0  0  0  0  0  0  0
  -49.5126   68.0981   -9.1575 C   0  0  0  0  0  0  0  0  0  0  0  0
  -48.0862   68.3699   -9.1311 C   0  0  0  0  0  0  0  0  0  0  0  0
  -47.4521   67.9536   -7.8874 C   0  0  0  0  0  0  0  0  0  0  0  0
  -47.0618   68.8942   -6.9340 C   0  0  0  0  0  0  0  0  0  0  0  0
  -47.2754   70.3107   -7.1626 C   0  0  0  0  0  0  0  0  0  0  0  0
  -46.6111   71.1948   -6.1133 C   0  0  0  0  0  0  0  0  0  0  0  0
  -47.5713   72.2560   -5.6065 C   0  0  0  0  0  0  0  0  0  0  0  0
  -48.9736   72.0470   -6.1568 C   0  0  0  0  0  0  0  0  0  0  0  0
  -49.7538   73.3378   -6.1393 C   0  0  0  0  0  0  0  0  0  0  0  0
  9  8  1  0  0  0
  9 10  2  0  0  0
  9 11  1  0  0  0
  8  7  1  0  0  0
  7  6  1  0  0  0
  6  4  1  0  0  0
  4  5  2  0  0  0
  5  3  1  0  0  0
  3  1  1  0  0  0
  1  2  2  0  0  0
  2 13  1  0  0  0
 13 14  1  0  0  0
 14 15  2  0  0  0
 15 16  1  0  0  0
 16 17  1  0  0  0
 17 18  2  0  0  0
 18 19  1  0  0  0
 19 20  1  0  0  0
 20 21  1  0  0  0
 21 22  1  0  0  0
 22 23  1  0  0  0
 11 12  1  0  0  0
M  END
> <minimizedAffinity>
-6.00384

$$$$
1ADL_ACD_A_135


 23 22  0  0  0  0  0  0  0  0999 V2000
  -50.6036   73.1104   -7.6800 C   0  0  0  0  0  0  0  0  0  0  0  0
  -50.8309   72.2462   -8.7455 C   0  0  0  0  0  0  0  0  0  0  0  0
  -50.0854   72.6143   -6.4203 C   0  0  0  0  0  0  0  0  0  0  0  0
  -47.7522   73.1114   -5.7712 C   0  0  0  0  0  0  0  0  0  0  0  0
  -49.0874   73.4921   -5.8346 C   0  0  0  0  0  0  0  0  0  0  0  0
  -47.3337   71.8280   -6.2923 C   0  0  0  0  0  0  0  0  0  0  0  0
  -45.9846   71.8797   -6.9850 C   0  0  0  0  0  0  0  0  0  0  0  0
  -45.8180   73.1900   -7.7236 C   0  0  0  0  0  0  0  0  0  0  0  0
  -46.4591   73.1895   -9.0856 C   0  0  0  0  0  0  0  0  0  0  0  0
  -45.8426   72.7047  -10.0654 O   0  0  0  0  0  0  0  0  0  0  0  0
  -47.6009   73.6907   -9.1941 O   0  0  0  0  0  0  0  0  0  0  0  0
  -48.0312   74.0436   -8.4403 H   0  0  0  0  0  0  0  0  0  0  0  0
  -50.5576   70.8212   -8.6327 C   0  0  0  0  0  0  0  0  0  0  0  0
  -49.2646   70.4509   -9.1843 C   0  0  0  0  0  0  0  0  0  0  0  0
  -49.0730   69.2312   -9.8332 C   0  0  0  0  0  0  0  0  0  0  0  0
  -50.1584   68.2787   -9.9873 C   0  0  0  0  0  0  0  0  0  0  0  0
  -49.7151   66.9926  -10.5084 C   0  0  0  0  0  0  0  0  0  0  0  0
  -49.7138   66.7389  -11.8802 C   0  0  0  0  0  0  0  0  0  0  0  0
  -50.1588   67.7509  -12.8194 C   0  0  0  0  0  0  0  0  0  0  0  0
  -51.6241   67.6021  -13.2126 C   0  0  0  0  0  0  0  0  0  0  0  0
  -52.3899   68.8887  -12.9621 C   0  0  0  0  0  0  0  0  0  0  0  0
  -51.4712   70.1002  -12.9994 C   0  0  0  0  0  0  0  0  0  0  0  0
  -51.9408   71.1586  -12.0327 C   0  0  0  0  0  0  0  0  0  0  0  0
  9  8  1  0  0  0
  9 10  2  0  0  0
  9 11  1  0  0  0
  8  7  1  0  0  0
  7  6  1  0  0  0
  6  4  1  0  0  0
  4  5  2  0  0  0
  5  3  1  0  0  0
  3  1  1  0  0  0
  1  2  2  0  0  0
  2 13  1  0  0  0
 13 14  1  0  0  0
 14 15  2  0  0  0
 15 16  1  0  0  0
 16 17  1  0  0  0
 17 18  2  0  0  0
 18 19  1  0  0  0
 19 20  1  0  0  0
 20 21  1  0  0  0
 21 22  1  0  0  0
 22 23  1  0  0  0
 11 12  1  0  0  0
M  END
> <minimizedAffinity>
-5.96327

$$$$
1ADL_ACD_A_135


 23 22  0  0  0  0  0  0  0  0999 V2000
  -49.9963   73.1403   -6.8247 C   0  0  0  0  0  0  0  0  0  0  0  0
  -50.4429   72.4882   -7.9688 C   0  0  0  0  0  0  0  0  0  0  0  0
  -49.1536   72.4573   -5.8630 C   0  0  0  0  0  0  0  0  0  0  0  0
  -46.7744   71.7883   -5.7970 C   0  0  0  0  0  0  0  0  0  0  0  0
  -47.7427   72.7566   -6.0345 C   0  0  0  0  0  0  0  0  0  0  0  0
  -47.1598   70.4593   -5.3742 C   0  0  0  0  0  0  0  0  0  0  0  0
  -46.1164   69.4067   -5.6998 C   0  0  0  0  0  0  0  0  0  0  0  0
  -46.7225   68.0216   -5.6336 C   0  0  0  0  0  0  0  0  0  0  0  0
  -45.9459   66.9958   -6.4152 C   0  0  0  0  0  0  0  0  0  0  0  0
  -45.9410   65.7980   -6.0405 O   0  0  0  0  0  0  0  0  0  0  0  0
  -45.3143   67.3847   -7.4233 O   0  0  0  0  0  0  0  0  0  0  0  0
  -45.3410   68.2873   -7.6735 H   0  0  0  0  0  0  0  0  0  0  0  0
  -50.0811   71.1046   -8.2385 C   0  0  0  0  0  0  0  0  0  0  0  0
  -48.8442   70.9831   -8.9926 C   0  0  0  0  0  0  0  0  0  0  0  0
  -48.2161   69.7499   -9.1658 C   0  0  0  0  0  0  0  0  0  0  0  0
  -48.7721   68.5329   -8.6012 C   0  0  0  0  0  0  0  0  0  0  0  0
  -48.3401   67.3323   -9.3042 C   0  0  0  0  0  0  0  0  0  0  0  0
  -49.2108   66.6482  -10.1526 C   0  0  0  0  0  0  0  0  0  0  0  0
  -50.5695   67.1160  -10.3508 C   0  0  0  0  0  0  0  0  0  0  0  0
  -50.7896   67.7601  -11.7148 C   0  0  0  0  0  0  0  0  0  0  0  0
  -49.6235   67.4795  -12.6455 C   0  0  0  0  0  0  0  0  0  0  0  0
  -48.9629   68.7665  -13.1148 C   0  0  0  0  0  0  0  0  0  0  0  0
  -47.4687   68.7043  -12.9183 C   0  0  0  0  0  0  0  0  0  0  0  0
  9  8  1  0  0  0
  9 10  2  0  0  0
  9 11  1  0  0  0
  8  7  1  0  0  0
  7  6  1  0  0  0
  6  4  1  0  0  0
  4  5  2  0  0  0
  5  3  1  0  0  0
  3  1  1  0  0  0
  1  2  2  0  0  0
  2 13  1  0  0  0
 13 14  1  0  0  0
 14 15  2  0  0  0
 15 16  1  0  0  0
 16 17  1  0  0  0
 17 18  2  0  0  0
 18 19  1  0  0  0
 19 20  1  0  0  0
 20 21  1  0  0  0
 21 22  1  0  0  0
 22 23  1  0  0  0
 11 12  1  0  0  0
M  END
> <minimizedAffinity>
-5.95986

$$$$
1ADL_ACD_A_135


 23 22  0  0  0  0  0  0  0  0999 V2000
  -47.6828   67.1675   -9.4247 C   0  0  0  0  0  0  0  0  0  0  0  0
  -46.8733   67.4215   -8.3229 C   0  0  0  0  0  0  0  0  0  0  0  0
  -49.0936   67.4998   -9.4008 C   0  0  0  0  0  0  0  0  0  0  0  0
  -50.5135   67.0915  -11.3831 C   0  0  0  0  0  0  0  0  0  0  0  0
  -49.8961   66.6188  -10.2312 C   0  0  0  0  0  0  0  0  0  0  0  0
  -50.3641   68.4762  -11.7755 C   0  0  0  0  0  0  0  0  0  0  0  0
  -49.5934   68.6463  -13.0715 C   0  0  0  0  0  0  0  0  0  0  0  0
  -48.1313   68.9144  -12.7872 C   0  0  0  0  0  0  0  0  0  0  0  0
  -47.2104   67.8942  -13.4014 C   0  0  0  0  0  0  0  0  0  0  0  0
  -47.3764   66.6749  -13.1549 O   0  0  0  0  0  0  0  0  0  0  0  0
  -46.2899   68.3086  -14.1415 O   0  0  0  0  0  0  0  0  0  0  0  0
  -46.1962   69.2267  -14.3033 H   0  0  0  0  0  0  0  0  0  0  0  0
  -47.4124   68.0268   -7.1141 C   0  0  0  0  0  0  0  0  0  0  0  0
  -46.6337   67.7068   -5.9291 C   0  0  0  0  0  0  0  0  0  0  0  0
  -45.7672   68.6369   -5.3552 C   0  0  0  0  0  0  0  0  0  0  0  0
  -45.6069   69.9667   -5.9162 C   0  0  0  0  0  0  0  0  0  0  0  0
  -46.1857   71.0093   -5.0794 C   0  0  0  0  0  0  0  0  0  0  0  0
  -47.0958   71.9260   -5.6061 C   0  0  0  0  0  0  0  0  0  0  0  0
  -47.4833   71.8636   -7.0026 C   0  0  0  0  0  0  0  0  0  0  0  0
  -48.9305   71.4293   -7.2050 C   0  0  0  0  0  0  0  0  0  0  0  0
  -49.1812   71.0200   -8.6453 C   0  0  0  0  0  0  0  0  0  0  0  0
  -50.6687   70.9112   -8.9429 C   0  0  0  0  0  0  0  0  0  0  0  0
  -51.1558   72.1272   -9.6907 C   0  0  0  0  0  0  0  0  0  0  0  0
  9  8  1  0  0  0
  9 10  2  0  0  0
  9 11  1  0  0  0
  8  7  1  0  0  0
  7  6  1  0  0  0
  6  4  1  0  0  0
  4  5  2  0  0  0
  5  3  1  0  0  0
  3  1  1  0  0  0
  1  2  2  0  0  0
  2 13  1  0  0  0
 13 14  1  0  0  0
 14 15  2  0  0  0
 15 16  1  0  0  0
 16 17  1  0  0  0
 17 18  2  0  0  0
 18 19  1  0  0  0
 19 20  1  0  0  0
 20 21  1  0  0  0
 21 22  1  0  0  0
 22 23  1  0  0  0
 11 12  1  0  0  0
M  END
> <minimizedAffinity>
-5.95511

$$$$
1ADL_ACD_A_135


 23 22  0  0  0  0  0  0  0  0999 V2000
  -47.7304   69.3424   -8.9274 C   0  0  0  0  0  0  0  0  0  0  0  0
  -48.4457   70.5348   -8.9452 C   0  0  0  0  0  0  0  0  0  0  0  0
  -48.3622   68.1047   -8.5148 C   0  0  0  0  0  0  0  0  0  0  0  0
  -49.2269   66.7105  -10.3644 C   0  0  0  0  0  0  0  0  0  0  0  0
  -48.2006   67.0365   -9.4856 C   0  0  0  0  0  0  0  0  0  0  0  0
  -50.4784   67.4356  -10.3261 C   0  0  0  0  0  0  0  0  0  0  0  0
  -50.8411   68.0650  -11.6583 C   0  0  0  0  0  0  0  0  0  0  0  0
  -49.8102   69.1001  -12.0535 C   0  0  0  0  0  0  0  0  0  0  0  0
  -49.0955   68.7666  -13.3357 C   0  0  0  0  0  0  0  0  0  0  0  0
  -48.2227   69.5485  -13.7853 O   0  0  0  0  0  0  0  0  0  0  0  0
  -49.4110   67.7067  -13.9219 O   0  0  0  0  0  0  0  0  0  0  0  0
  -50.0676   67.1469  -13.5565 H   0  0  0  0  0  0  0  0  0  0  0  0
  -49.8463   70.5803   -8.5523 C   0  0  0  0  0  0  0  0  0  0  0  0
  -50.3666   71.9358   -8.4800 C   0  0  0  0  0  0  0  0  0  0  0  0
  -50.1347   72.7456   -7.3684 C   0  0  0  0  0  0  0  0  0  0  0  0
  -49.3613   72.2697   -6.2351 C   0  0  0  0  0  0  0  0  0  0  0  0
  -48.0258   72.8489   -6.1761 C   0  0  0  0  0  0  0  0  0  0  0  0
  -46.9606   72.1352   -5.6267 C   0  0  0  0  0  0  0  0  0  0  0  0
  -47.1605   70.7996   -5.0972 C   0  0  0  0  0  0  0  0  0  0  0  0
  -46.1153   69.8001   -5.5793 C   0  0  0  0  0  0  0  0  0  0  0  0
  -46.6420   68.3784   -5.4996 C   0  0  0  0  0  0  0  0  0  0  0  0
  -45.7942   67.5213   -4.5724 C   0  0  0  0  0  0  0  0  0  0  0  0
  -45.0962   66.4281   -5.3424 C   0  0  0  0  0  0  0  0  0  0  0  0
  9  8  1  0  0  0
  9 10  2  0  0  0
  9 11  1  0  0  0
  8  7  1  0  0  0
  7  6  1  0  0  0
  6  4  1  0  0  0
  4  5  2  0  0  0
  5  3  1  0  0  0
  3  1  1  0  0  0
  1  2  2  0  0  0
  2 13  1  0  0  0
 13 14  1  0  0  0
 14 15  2  0  0  0
 15 16  1  0  0  0
 16 17  1  0  0  0
 17 18  2  0  0  0
 18 19  1  0  0  0
 19 20  1  0  0  0
 20 21  1  0  0  0
 21 22  1  0  0  0
 22 23  1  0  0  0
 11 12  1  0  0  0
M  END
> <minimizedAffinity>
-5.94449

$$$$
1ADL_ACD_A_135


 23 22  0  0  0  0  0  0  0  0999 V2000
  -47.3620   70.3477   -7.5721 C   0  0  0  0  0  0  0  0  0  0  0  0
  -46.9290   69.6900   -6.4259 C   0  0  0  0  0  0  0  0  0  0  0  0
  -47.8032   69.6009   -8.7337 C   0  0  0  0  0  0  0  0  0  0  0  0
  -50.0239   68.6220   -9.2052 C   0  0  0  0  0  0  0  0  0  0  0  0
  -49.2265   69.7394   -8.9877 C   0  0  0  0  0  0  0  0  0  0  0  0
  -49.4449   67.2962   -9.1804 C   0  0  0  0  0  0  0  0  0  0  0  0
  -49.8595   66.4448  -10.3659 C   0  0  0  0  0  0  0  0  0  0  0  0
  -50.0815   67.3098  -11.5877 C   0  0  0  0  0  0  0  0  0  0  0  0
  -48.9222   67.2898  -12.5478 C   0  0  0  0  0  0  0  0  0  0  0  0
  -47.8154   66.8260  -12.1804 O   0  0  0  0  0  0  0  0  0  0  0  0
  -49.1061   67.7539  -13.6956 O   0  0  0  0  0  0  0  0  0  0  0  0
  -49.9465   68.0919  -13.9351 H   0  0  0  0  0  0  0  0  0  0  0  0
  -46.9042   68.2366   -6.3539 C   0  0  0  0  0  0  0  0  0  0  0  0
  -46.4618   67.7449   -5.0594 C   0  0  0  0  0  0  0  0  0  0  0  0
  -45.3417   66.9227   -4.9378 C   0  0  0  0  0  0  0  0  0  0  0  0
  -44.5676   66.5237   -6.0999 C   0  0  0  0  0  0  0  0  0  0  0  0
  -43.3572   67.3154   -6.2746 C   0  0  0  0  0  0  0  0  0  0  0  0
  -43.0795   67.9379   -7.4917 C   0  0  0  0  0  0  0  0  0  0  0  0
  -43.9896   67.8069   -8.6136 C   0  0  0  0  0  0  0  0  0  0  0  0
  -44.2390   69.1231   -9.3411 C   0  0  0  0  0  0  0  0  0  0  0  0
  -43.7177   70.2994   -8.5353 C   0  0  0  0  0  0  0  0  0  0  0  0
  -44.2612   71.6192   -9.0604 C   0  0  0  0  0  0  0  0  0  0  0  0
  -44.9213   71.4303  -10.4034 C   0  0  0  0  0  0  0  0  0  0  0  0
  9  8  1  0  0  0
  9 10  2  0  0  0
  9 11  1  0  0  0
  8  7  1  0  0  0
  7  6  1  0  0  0
  6  4  1  0  0  0
  4  5  2  0  0  0
  5  3  1  0  0  0
  3  1  1  0  0  0
  1  2  2  0  0  0
  2 13  1  0  0  0
 13 14  1  0  0  0
 14 15  2  0  0  0
 15 16  1  0  0  0
 16 17  1  0  0  0
 17 18  2  0  0  0
 18 19  1  0  0  0
 19 20  1  0  0  0
 20 21  1  0  0  0
 21 22  1  0  0  0
 22 23  1  0  0  0
 11 12  1  0  0  0
M  END
> <minimizedAffinity>
-5.90158

$$$$
