3SUW_GC2_A_2000


 20 21  0  0  0  0  0  0  0  0999 V2000
   35.2818   18.1638  -17.1894 C   0  0  0  0  0  0  0  0  0  0  0  0
   34.8100   16.9396  -16.3647 C   0  0  0  0  0  0  0  0  0  0  0  0
   34.3005   15.9425  -17.2282 O   0  0  0  0  0  0  0  0  0  0  0  0
   35.9307   16.3028  -15.4907 C   0  0  0  0  0  0  0  0  0  0  0  0
   35.3237   15.5227  -14.4677 O   0  0  0  0  0  0  0  0  0  0  0  0
   36.1864   19.1179  -16.3611 C   0  0  0  0  0  0  0  0  0  0  0  0
   37.3147   18.2793  -15.8513 N   0  0  0  0  0  0  0  0  0  0  0  0
   36.8066   17.3471  -14.8247 C   0  0  0  0  0  0  0  0  0  0  0  0
   38.3974   19.0005  -15.1536 C   0  0  0  0  0  0  0  0  0  0  0  0
   39.1437   17.8342  -14.4769 C   0  0  0  0  0  0  0  0  0  0  0  0
   38.0687   16.7699  -14.1662 C   0  0  0  0  0  0  0  0  0  0  0  0
   38.4089   15.4935  -14.7518 O   0  0  0  0  0  0  0  0  0  0  0  0
   35.0077   15.6297  -17.8138 H   0  0  0  0  0  0  0  0  0  0  0  0
   34.7770   16.0946  -13.9065 H   0  0  0  0  0  0  0  0  0  0  0  0
   38.5235   15.5973  -15.7094 H   0  0  0  0  0  0  0  0  0  0  0  0
   33.2853   19.8543  -15.9042 O   0  0  0  0  0  0  0  0  0  0  0  0
   33.2760   19.6581  -17.1286 C   0  0  0  0  0  0  0  0  0  0  0  0
   32.2081   20.3042  -18.0118 C   0  0  0  0  0  0  0  0  0  0  0  0
   34.1417   18.8943  -17.8029 N   0  0  0  0  0  0  0  0  0  0  0  0
   34.0150   18.8096  -18.7755 H   0  0  0  0  0  0  0  0  0  0  0  0
 16 17  2  0  0  0
 17 18  1  0  0  0
 17 19  1  0  0  0
 19  1  1  0  0  0
  1  2  1  0  0  0
  1  6  1  0  0  0
  2  3  1  0  0  0
  2  4  1  0  0  0
  4  5  1  0  0  0
  4  8  1  0  0  0
  6  7  1  0  0  0
  7  8  1  0  0  0
  7  9  1  0  0  0
  8 11  1  0  0  0
  9 10  1  0  0  0
 10 11  1  0  0  0
 11 12  1  0  0  0
 19 20  1  0  0  0
  3 13  1  0  0  0
  5 14  1  0  0  0
 12 15  1  0  0  0
M  END
> <minimizedAffinity>
-8.97025

$$$$
3SUW_GC2_A_2000


 20 21  0  0  0  0  0  0  0  0999 V2000
   37.2748   18.1321  -15.9241 C   0  0  0  0  0  0  0  0  0  0  0  0
   37.3585   16.7575  -15.2136 C   0  0  0  0  0  0  0  0  0  0  0  0
   36.6211   15.7931  -15.9386 O   0  0  0  0  0  0  0  0  0  0  0  0
   38.8133   16.2297  -15.0385 C   0  0  0  0  0  0  0  0  0  0  0  0
   38.8204   15.2429  -14.0140 O   0  0  0  0  0  0  0  0  0  0  0  0
   38.3507   19.1276  -15.4080 C   0  0  0  0  0  0  0  0  0  0  0  0
   39.6685   18.4459  -15.5948 N   0  0  0  0  0  0  0  0  0  0  0  0
   39.7808   17.3271  -14.6373 C   0  0  0  0  0  0  0  0  0  0  0  0
   40.8674   19.2597  -15.3132 C   0  0  0  0  0  0  0  0  0  0  0  0
   41.9568   18.1716  -15.2474 C   0  0  0  0  0  0  0  0  0  0  0  0
   41.2570   16.9072  -14.7029 C   0  0  0  0  0  0  0  0  0  0  0  0
   41.4271   15.7861  -15.5985 O   0  0  0  0  0  0  0  0  0  0  0  0
   37.0152   15.6784  -16.8175 H   0  0  0  0  0  0  0  0  0  0  0  0
   38.5302   15.6418  -13.1788 H   0  0  0  0  0  0  0  0  0  0  0  0
   41.0843   16.0181  -16.4757 H   0  0  0  0  0  0  0  0  0  0  0  0
   35.0472   17.8496  -17.7825 O   0  0  0  0  0  0  0  0  0  0  0  0
   34.9449   18.5244  -16.7472 C   0  0  0  0  0  0  0  0  0  0  0  0
   33.6340   19.2349  -16.4082 C   0  0  0  0  0  0  0  0  0  0  0  0
   35.9110   18.7180  -15.8435 N   0  0  0  0  0  0  0  0  0  0  0  0
   35.7043   19.2897  -15.0690 H   0  0  0  0  0  0  0  0  0  0  0  0
 16 17  2  0  0  0
 17 18  1  0  0  0
 17 19  1  0  0  0
 19  1  1  0  0  0
  1  2  1  0  0  0
  1  6  1  0  0  0
  2  3  1  0  0  0
  2  4  1  0  0  0
  4  5  1  0  0  0
  4  8  1  0  0  0
  6  7  1  0  0  0
  7  8  1  0  0  0
  7  9  1  0  0  0
  8 11  1  0  0  0
  9 10  1  0  0  0
 10 11  1  0  0  0
 11 12  1  0  0  0
 19 20  1  0  0  0
  3 13  1  0  0  0
  5 14  1  0  0  0
 12 15  1  0  0  0
M  END
> <minimizedAffinity>
-6.79259

$$$$
3SUW_GC2_A_2000


 20 21  0  0  0  0  0  0  0  0999 V2000
   39.2028   17.5212  -14.3999 C   0  0  0  0  0  0  0  0  0  0  0  0
   39.1534   16.1295  -15.0796 C   0  0  0  0  0  0  0  0  0  0  0  0
   39.5301   15.1271  -14.1562 O   0  0  0  0  0  0  0  0  0  0  0  0
   37.7538   15.7622  -15.6555 C   0  0  0  0  0  0  0  0  0  0  0  0
   37.9142   14.7300  -16.6210 O   0  0  0  0  0  0  0  0  0  0  0  0
   38.4489   18.6041  -15.2209 C   0  0  0  0  0  0  0  0  0  0  0  0
   37.0581   18.0875  -15.4081 N   0  0  0  0  0  0  0  0  0  0  0  0
   37.0832   16.9399  -16.3372 C   0  0  0  0  0  0  0  0  0  0  0  0
   36.0984   19.0165  -16.0367 C   0  0  0  0  0  0  0  0  0  0  0  0
   34.9459   18.0575  -16.3928 C   0  0  0  0  0  0  0  0  0  0  0  0
   35.6085   16.6947  -16.6907 C   0  0  0  0  0  0  0  0  0  0  0  0
   35.0544   15.6490  -15.8616 O   0  0  0  0  0  0  0  0  0  0  0  0
   38.8925   15.1044  -13.4256 H   0  0  0  0  0  0  0  0  0  0  0  0
   38.4759   15.0487  -17.3447 H   0  0  0  0  0  0  0  0  0  0  0  0
   35.1611   15.8865  -14.9272 H   0  0  0  0  0  0  0  0  0  0  0  0
   40.8982   16.7609  -12.1542 O   0  0  0  0  0  0  0  0  0  0  0  0
   41.3013   17.5321  -13.0376 C   0  0  0  0  0  0  0  0  0  0  0  0
   42.7146   18.1127  -12.9777 C   0  0  0  0  0  0  0  0  0  0  0  0
   40.5954   17.9431  -14.0961 N   0  0  0  0  0  0  0  0  0  0  0  0
   41.0291   18.5701  -14.7190 H   0  0  0  0  0  0  0  0  0  0  0  0
 16 17  2  0  0  0
 17 18  1  0  0  0
 17 19  1  0  0  0
 19  1  1  0  0  0
  1  2  1  0  0  0
  1  6  1  0  0  0
  2  3  1  0  0  0
  2  4  1  0  0  0
  4  5  1  0  0  0
  4  8  1  0  0  0
  6  7  1  0  0  0
  7  8  1  0  0  0
  7  9  1  0  0  0
  8 11  1  0  0  0
  9 10  1  0  0  0
 10 11  1  0  0  0
 11 12  1  0  0  0
 19 20  1  0  0  0
  3 13  1  0  0  0
  5 14  1  0  0  0
 12 15  1  0  0  0
M  END
> <minimizedAffinity>
-6.76990

$$$$
3SUW_GC2_A_2000


 20 21  0  0  0  0  0  0  0  0999 V2000
   38.9137   18.1446  -14.7467 C   0  0  0  0  0  0  0  0  0  0  0  0
   39.0078   16.6893  -15.2708 C   0  0  0  0  0  0  0  0  0  0  0  0
   39.6294   15.8665  -14.3033 O   0  0  0  0  0  0  0  0  0  0  0  0
   37.6285   16.0624  -15.6318 C   0  0  0  0  0  0  0  0  0  0  0  0
   37.8433   14.9563  -16.5000 O   0  0  0  0  0  0  0  0  0  0  0  0
   37.9199   19.0053  -15.5753 C   0  0  0  0  0  0  0  0  0  0  0  0
   36.6133   18.2789  -15.5384 N   0  0  0  0  0  0  0  0  0  0  0  0
   36.7166   17.0445  -16.3426 C   0  0  0  0  0  0  0  0  0  0  0  0
   35.4612   18.9820  -16.1364 C   0  0  0  0  0  0  0  0  0  0  0  0
   34.4390   17.8344  -16.2505 C   0  0  0  0  0  0  0  0  0  0  0  0
   35.2683   16.5534  -16.4872 C   0  0  0  0  0  0  0  0  0  0  0  0
   34.9722   15.5454  -15.4951 O   0  0  0  0  0  0  0  0  0  0  0  0
   39.0835   15.8406  -13.5020 H   0  0  0  0  0  0  0  0  0  0  0  0
   38.2699   15.2633  -17.3153 H   0  0  0  0  0  0  0  0  0  0  0  0
   35.1389   15.9044  -14.6096 H   0  0  0  0  0  0  0  0  0  0  0  0
   40.7872   18.7758  -16.8884 O   0  0  0  0  0  0  0  0  0  0  0  0
   41.0397   19.0500  -15.7058 C   0  0  0  0  0  0  0  0  0  0  0  0
   42.3534   19.7363  -15.3299 C   0  0  0  0  0  0  0  0  0  0  0  0
   40.2490   18.7919  -14.6591 N   0  0  0  0  0  0  0  0  0  0  0  0
   40.5744   19.0490  -13.7662 H   0  0  0  0  0  0  0  0  0  0  0  0
 16 17  2  0  0  0
 17 18  1  0  0  0
 17 19  1  0  0  0
 19  1  1  0  0  0
  1  2  1  0  0  0
  1  6  1  0  0  0
  2  3  1  0  0  0
  2  4  1  0  0  0
  4  5  1  0  0  0
  4  8  1  0  0  0
  6  7  1  0  0  0
  7  8  1  0  0  0
  7  9  1  0  0  0
  8 11  1  0  0  0
  9 10  1  0  0  0
 10 11  1  0  0  0
 11 12  1  0  0  0
 19 20  1  0  0  0
  3 13  1  0  0  0
  5 14  1  0  0  0
 12 15  1  0  0  0
M  END
> <minimizedAffinity>
-6.64449

$$$$
3SUW_GC2_A_2000


 20 21  0  0  0  0  0  0  0  0999 V2000
   35.5869   16.8375  -15.7602 C   0  0  0  0  0  0  0  0  0  0  0  0
   36.3629   17.2097  -14.4715 C   0  0  0  0  0  0  0  0  0  0  0  0
   35.5562   16.9696  -13.3353 O   0  0  0  0  0  0  0  0  0  0  0  0
   37.6987   16.4284  -14.2961 C   0  0  0  0  0  0  0  0  0  0  0  0
   38.5250   17.1371  -13.3805 O   0  0  0  0  0  0  0  0  0  0  0  0
   36.5222   16.7130  -16.9949 C   0  0  0  0  0  0  0  0  0  0  0  0
   37.5661   15.7086  -16.6235 N   0  0  0  0  0  0  0  0  0  0  0  0
   38.4603   16.2875  -15.6006 C   0  0  0  0  0  0  0  0  0  0  0  0
   38.4924   15.3050  -17.6997 C   0  0  0  0  0  0  0  0  0  0  0  0
   39.5960   14.5953  -16.8915 C   0  0  0  0  0  0  0  0  0  0  0  0
   39.6453   15.3130  -15.5250 C   0  0  0  0  0  0  0  0  0  0  0  0
   39.4676   14.3806  -14.4355 O   0  0  0  0  0  0  0  0  0  0  0  0
   35.3540   16.0228  -13.2766 H   0  0  0  0  0  0  0  0  0  0  0  0
   38.7224   18.0171  -13.7375 H   0  0  0  0  0  0  0  0  0  0  0  0
   38.6269   13.9097  -14.5467 H   0  0  0  0  0  0  0  0  0  0  0  0
   35.6810   19.5788  -16.7458 O   0  0  0  0  0  0  0  0  0  0  0  0
   34.6045   19.0208  -16.4866 C   0  0  0  0  0  0  0  0  0  0  0  0
   33.2794   19.7592  -16.6793 C   0  0  0  0  0  0  0  0  0  0  0  0
   34.4634   17.7746  -16.0234 N   0  0  0  0  0  0  0  0  0  0  0  0
   33.5498   17.4545  -15.8439 H   0  0  0  0  0  0  0  0  0  0  0  0
 16 17  2  0  0  0
 17 18  1  0  0  0
 17 19  1  0  0  0
 19  1  1  0  0  0
  1  2  1  0  0  0
  1  6  1  0  0  0
  2  3  1  0  0  0
  2  4  1  0  0  0
  4  5  1  0  0  0
  4  8  1  0  0  0
  6  7  1  0  0  0
  7  8  1  0  0  0
  7  9  1  0  0  0
  8 11  1  0  0  0
  9 10  1  0  0  0
 10 11  1  0  0  0
 11 12  1  0  0  0
 19 20  1  0  0  0
  3 13  1  0  0  0
  5 14  1  0  0  0
 12 15  1  0  0  0
M  END
> <minimizedAffinity>
-6.31159

$$$$
3SUW_GC2_A_2000


 20 21  0  0  0  0  0  0  0  0999 V2000
   39.5687   18.8957  -15.2068 C   0  0  0  0  0  0  0  0  0  0  0  0
   38.2398   18.1115  -15.0645 C   0  0  0  0  0  0  0  0  0  0  0  0
   37.5043   18.1842  -16.2700 O   0  0  0  0  0  0  0  0  0  0  0  0
   38.4338   16.6097  -14.7004 C   0  0  0  0  0  0  0  0  0  0  0  0
   37.2174   16.1110  -14.1572 O   0  0  0  0  0  0  0  0  0  0  0  0
   40.5811   18.5470  -14.0806 C   0  0  0  0  0  0  0  0  0  0  0  0
   40.7627   17.0635  -14.1324 N   0  0  0  0  0  0  0  0  0  0  0  0
   39.5262   16.4026  -13.6683 C   0  0  0  0  0  0  0  0  0  0  0  0
   41.8032   16.5044  -13.2470 C   0  0  0  0  0  0  0  0  0  0  0  0
   41.4548   15.0037  -13.2895 C   0  0  0  0  0  0  0  0  0  0  0  0
   39.9230   14.9318  -13.4714 C   0  0  0  0  0  0  0  0  0  0  0  0
   39.5683   14.1499  -14.6336 O   0  0  0  0  0  0  0  0  0  0  0  0
   38.0066   17.7570  -16.9814 H   0  0  0  0  0  0  0  0  0  0  0  0
   36.9983   16.6023  -13.3501 H   0  0  0  0  0  0  0  0  0  0  0  0
   39.9906   14.5297  -15.4200 H   0  0  0  0  0  0  0  0  0  0  0  0
   40.9589   20.8656  -16.8446 O   0  0  0  0  0  0  0  0  0  0  0  0
   40.0304   21.1907  -16.0898 C   0  0  0  0  0  0  0  0  0  0  0  0
   39.5795   22.6487  -15.9946 C   0  0  0  0  0  0  0  0  0  0  0  0
   39.3425   20.3621  -15.2974 N   0  0  0  0  0  0  0  0  0  0  0  0
   38.6354   20.7511  -14.7335 H   0  0  0  0  0  0  0  0  0  0  0  0
 16 17  2  0  0  0
 17 18  1  0  0  0
 17 19  1  0  0  0
 19  1  1  0  0  0
  1  2  1  0  0  0
  1  6  1  0  0  0
  2  3  1  0  0  0
  2  4  1  0  0  0
  4  5  1  0  0  0
  4  8  1  0  0  0
  6  7  1  0  0  0
  7  8  1  0  0  0
  7  9  1  0  0  0
  8 11  1  0  0  0
  9 10  1  0  0  0
 10 11  1  0  0  0
 11 12  1  0  0  0
 19 20  1  0  0  0
  3 13  1  0  0  0
  5 14  1  0  0  0
 12 15  1  0  0  0
M  END
> <minimizedAffinity>
-6.14669

$$$$
3SUW_GC2_A_2000


 20 21  0  0  0  0  0  0  0  0999 V2000
   38.7034   17.0635  -14.5247 C   0  0  0  0  0  0  0  0  0  0  0  0
   38.6504   18.5234  -15.0418 C   0  0  0  0  0  0  0  0  0  0  0  0
   39.8379   18.8302  -15.7454 O   0  0  0  0  0  0  0  0  0  0  0  0
   37.4395   18.8138  -15.9771 C   0  0  0  0  0  0  0  0  0  0  0  0
   37.2226   20.2190  -16.0198 O   0  0  0  0  0  0  0  0  0  0  0  0
   37.3063   16.5438  -14.0855 C   0  0  0  0  0  0  0  0  0  0  0  0
   36.4091   16.7187  -15.2692 N   0  0  0  0  0  0  0  0  0  0  0  0
   36.1620   18.1582  -15.4875 C   0  0  0  0  0  0  0  0  0  0  0  0
   35.0514   16.1528  -15.1452 C   0  0  0  0  0  0  0  0  0  0  0  0
   34.3395   16.8244  -16.3357 C   0  0  0  0  0  0  0  0  0  0  0  0
   35.0118   18.2044  -16.5046 C   0  0  0  0  0  0  0  0  0  0  0  0
   35.5248   18.3781  -17.8443 O   0  0  0  0  0  0  0  0  0  0  0  0
   39.9078   18.2591  -16.5263 H   0  0  0  0  0  0  0  0  0  0  0  0
   37.0135   20.5411  -15.1290 H   0  0  0  0  0  0  0  0  0  0  0  0
   36.1494   17.6641  -18.0464 H   0  0  0  0  0  0  0  0  0  0  0  0
   41.5329   16.3998  -14.7457 O   0  0  0  0  0  0  0  0  0  0  0  0
   40.9975   16.5929  -13.6441 C   0  0  0  0  0  0  0  0  0  0  0  0
   41.8125   16.4900  -12.3544 C   0  0  0  0  0  0  0  0  0  0  0  0
   39.7098   16.8921  -13.4442 N   0  0  0  0  0  0  0  0  0  0  0  0
   39.4064   17.0070  -12.5147 H   0  0  0  0  0  0  0  0  0  0  0  0
 16 17  2  0  0  0
 17 18  1  0  0  0
 17 19  1  0  0  0
 19  1  1  0  0  0
  1  2  1  0  0  0
  1  6  1  0  0  0
  2  3  1  0  0  0
  2  4  1  0  0  0
  4  5  1  0  0  0
  4  8  1  0  0  0
  6  7  1  0  0  0
  7  8  1  0  0  0
  7  9  1  0  0  0
  8 11  1  0  0  0
  9 10  1  0  0  0
 10 11  1  0  0  0
 11 12  1  0  0  0
 19 20  1  0  0  0
  3 13  1  0  0  0
  5 14  1  0  0  0
 12 15  1  0  0  0
M  END
> <minimizedAffinity>
-6.05214

$$$$
3SUW_GC2_A_2000


 20 21  0  0  0  0  0  0  0  0999 V2000
   38.3929   17.6093  -15.2014 C   0  0  0  0  0  0  0  0  0  0  0  0
   39.0027   16.7364  -14.0755 C   0  0  0  0  0  0  0  0  0  0  0  0
   38.9014   15.3679  -14.4165 O   0  0  0  0  0  0  0  0  0  0  0  0
   40.4970   17.0556  -13.7744 C   0  0  0  0  0  0  0  0  0  0  0  0
   40.8175   16.5605  -12.4800 O   0  0  0  0  0  0  0  0  0  0  0  0
   38.8051   19.1024  -15.0769 C   0  0  0  0  0  0  0  0  0  0  0  0
   40.3004   19.1187  -15.0617 N   0  0  0  0  0  0  0  0  0  0  0  0
   40.7832   18.5453  -13.7892 C   0  0  0  0  0  0  0  0  0  0  0  0
   40.9367   20.4501  -15.1009 C   0  0  0  0  0  0  0  0  0  0  0  0
   42.3845   20.0996  -14.7057 C   0  0  0  0  0  0  0  0  0  0  0  0
   42.2797   18.8900  -13.7515 C   0  0  0  0  0  0  0  0  0  0  0  0
   43.0696   17.7769  -14.2259 O   0  0  0  0  0  0  0  0  0  0  0  0
   39.4209   15.1949  -15.2173 H   0  0  0  0  0  0  0  0  0  0  0  0
   40.2639   17.0037  -11.8181 H   0  0  0  0  0  0  0  0  0  0  0  0
   42.7830   17.5352  -15.1206 H   0  0  0  0  0  0  0  0  0  0  0  0
   36.8281   15.7147  -16.7691 O   0  0  0  0  0  0  0  0  0  0  0  0
   36.2838   16.5486  -16.0302 C   0  0  0  0  0  0  0  0  0  0  0  0
   34.7603   16.6089  -15.9152 C   0  0  0  0  0  0  0  0  0  0  0  0
   36.9161   17.4597  -15.2834 N   0  0  0  0  0  0  0  0  0  0  0  0
   36.3641   18.0757  -14.7495 H   0  0  0  0  0  0  0  0  0  0  0  0
 16 17  2  0  0  0
 17 18  1  0  0  0
 17 19  1  0  0  0
 19  1  1  0  0  0
  1  2  1  0  0  0
  1  6  1  0  0  0
  2  3  1  0  0  0
  2  4  1  0  0  0
  4  5  1  0  0  0
  4  8  1  0  0  0
  6  7  1  0  0  0
  7  8  1  0  0  0
  7  9  1  0  0  0
  8 11  1  0  0  0
  9 10  1  0  0  0
 10 11  1  0  0  0
 11 12  1  0  0  0
 19 20  1  0  0  0
  3 13  1  0  0  0
  5 14  1  0  0  0
 12 15  1  0  0  0
M  END
> <minimizedAffinity>
-6.00701

$$$$
