6B4D_53X_A_305


 21 23  0  0  0  0  0  0  0  0999 V2000
   -3.8751    2.1081   13.3007 C   0  0  0  0  0  0  0  0  0  0  0  0
   -3.1236    3.1027   12.6760 C   0  0  0  0  0  0  0  0  0  0  0  0
   -3.7540    0.9620   12.5090 C   0  0  0  0  0  0  0  0  0  0  0  0
   -4.2582   -0.3370   12.5924 C   0  0  0  0  0  0  0  0  0  0  0  0
   -3.9285   -1.2617   11.6028 C   0  0  0  0  0  0  0  0  0  0  0  0
   -3.1037   -0.8987   10.5385 C   0  0  0  0  0  0  0  0  0  0  0  0
   -2.6083    0.3897   10.4530 C   0  0  0  0  0  0  0  0  0  0  0  0
   -2.9341    1.3201   11.4499 C   0  0  0  0  0  0  0  0  0  0  0  0
   -2.5777    2.6002   11.5800 N   0  0  0  0  0  0  0  0  0  0  0  0
   -5.5351    1.8137   16.5886 C   0  0  0  0  0  0  0  0  0  0  0  0
   -4.6360    1.3103   15.6442 C   0  0  0  0  0  0  0  0  0  0  0  0
   -6.0315    2.9378   16.0899 N   0  0  0  0  0  0  0  0  0  0  0  0
   -6.9969    3.8217   16.7235 C   0  0  0  0  0  0  0  0  0  0  0  0
   -5.5153    3.1809   14.8946 N   0  0  0  0  0  0  0  0  0  0  0  0
   -4.6845    2.2235   14.5770 C   0  0  0  0  0  0  0  0  0  0  0  0
   -5.7881   -0.0290   18.0940 O   0  0  0  0  0  0  0  0  0  0  0  0
   -5.8769    1.2128   17.9391 C   0  0  0  0  0  0  0  0  0  0  0  0
   -6.2529    1.9411   18.8984 O   0  0  0  0  0  0  0  0  0  0  0  0
   -6.3197    2.8687   18.7842 H   0  0  0  0  0  0  0  0  0  0  0  0
   -1.7236    3.2954   10.6201 C   0  0  0  0  0  0  0  0  0  0  0  0
   -0.2414    3.1636   10.9470 C   0  0  0  0  0  0  0  0  0  0  0  0
 21 20  1  0  0  0
 20  9  1  0  0  0
  9  2  1  0  0  0
  9  8  1  0  0  0
  2  1  2  0  0  0
  8  7  2  0  0  0
  8  3  1  0  0  0
  7  6  1  0  0  0
  1  3  1  0  0  0
  1 15  1  0  0  0
  3  4  2  0  0  0
  6  5  2  0  0  0
 15 14  2  0  0  0
 15 11  1  0  0  0
 14 12  1  0  0  0
  4  5  1  0  0  0
 11 10  2  0  0  0
 12 13  1  0  0  0
 12 10  1  0  0  0
 10 17  1  0  0  0
 16 17  2  0  0  0
 17 18  1  0  0  0
 18 19  1  0  0  0
M  END
> <minimizedAffinity>
-7.64363

$$$$
6B4D_53X_A_305


 21 23  0  0  0  0  0  0  0  0999 V2000
   -2.1838    2.4825   11.2333 C   0  0  0  0  0  0  0  0  0  0  0  0
   -2.8443    3.2773   12.1694 C   0  0  0  0  0  0  0  0  0  0  0  0
   -2.7242    1.1982   11.3503 C   0  0  0  0  0  0  0  0  0  0  0  0
   -2.4912   -0.0187   10.7073 C   0  0  0  0  0  0  0  0  0  0  0  0
   -3.2321   -1.1395   11.0788 C   0  0  0  0  0  0  0  0  0  0  0  0
   -4.1973   -1.0520   12.0815 C   0  0  0  0  0  0  0  0  0  0  0  0
   -4.4247    0.1524   12.7222 C   0  0  0  0  0  0  0  0  0  0  0  0
   -3.6846    1.2824   12.3466 C   0  0  0  0  0  0  0  0  0  0  0  0
   -3.7296    2.5329   12.8126 N   0  0  0  0  0  0  0  0  0  0  0  0
    0.8951    3.4811    9.4512 C   0  0  0  0  0  0  0  0  0  0  0  0
    0.2551    3.1211   10.6406 C   0  0  0  0  0  0  0  0  0  0  0  0
   -0.0195    3.4407    8.4918 N   0  0  0  0  0  0  0  0  0  0  0  0
    0.1840    3.7243    7.0801 C   0  0  0  0  0  0  0  0  0  0  0  0
   -1.1950    3.0855    8.9883 N   0  0  0  0  0  0  0  0  0  0  0  0
   -1.0841    2.8987   10.2769 C   0  0  0  0  0  0  0  0  0  0  0  0
    2.7088    5.0382    9.3436 O   0  0  0  0  0  0  0  0  0  0  0  0
    2.3590    3.8356    9.2699 C   0  0  0  0  0  0  0  0  0  0  0  0
    3.2207    2.9427    9.0410 O   0  0  0  0  0  0  0  0  0  0  0  0
    2.9609    2.0441    8.9856 H   0  0  0  0  0  0  0  0  0  0  0  0
   -4.6296    2.9571   13.8823 C   0  0  0  0  0  0  0  0  0  0  0  0
   -3.9652    2.9380   15.2533 C   0  0  0  0  0  0  0  0  0  0  0  0
 21 20  1  0  0  0
 20  9  1  0  0  0
  9  2  1  0  0  0
  9  8  1  0  0  0
  2  1  2  0  0  0
  8  7  2  0  0  0
  8  3  1  0  0  0
  7  6  1  0  0  0
  1  3  1  0  0  0
  1 15  1  0  0  0
  3  4  2  0  0  0
  6  5  2  0  0  0
 15 14  2  0  0  0
 15 11  1  0  0  0
 14 12  1  0  0  0
  4  5  1  0  0  0
 11 10  2  0  0  0
 12 13  1  0  0  0
 12 10  1  0  0  0
 10 17  1  0  0  0
 16 17  2  0  0  0
 17 18  1  0  0  0
 18 19  1  0  0  0
M  END
> <minimizedAffinity>
-7.61266

$$$$
6B4D_53X_A_305


 21 23  0  0  0  0  0  0  0  0999 V2000
   -2.1844    5.3504   13.8802 C   0  0  0  0  0  0  0  0  0  0  0  0
   -1.3139    5.0691   12.8279 C   0  0  0  0  0  0  0  0  0  0  0  0
   -1.9320    6.6714   14.2625 C   0  0  0  0  0  0  0  0  0  0  0  0
   -2.4604    7.5215   15.2356 C   0  0  0  0  0  0  0  0  0  0  0  0
   -1.9658    8.8198   15.3488 C   0  0  0  0  0  0  0  0  0  0  0  0
   -0.9540    9.2704   14.5014 C   0  0  0  0  0  0  0  0  0  0  0  0
   -0.4268    8.4266   13.5407 C   0  0  0  0  0  0  0  0  0  0  0  0
   -0.9263    7.1221   13.4213 C   0  0  0  0  0  0  0  0  0  0  0  0
   -0.5817    6.1436   12.5807 N   0  0  0  0  0  0  0  0  0  0  0  0
   -4.1215    2.7437   15.6423 C   0  0  0  0  0  0  0  0  0  0  0  0
   -2.8860    3.2783   15.2663 C   0  0  0  0  0  0  0  0  0  0  0  0
   -5.0562    3.5459   15.1509 N   0  0  0  0  0  0  0  0  0  0  0  0
   -6.4956    3.4014   15.2987 C   0  0  0  0  0  0  0  0  0  0  0  0
   -4.5020    4.5484   14.4859 N   0  0  0  0  0  0  0  0  0  0  0  0
   -3.2016    4.4222   14.5133 C   0  0  0  0  0  0  0  0  0  0  0  0
   -3.7699    0.4351   16.1641 O   0  0  0  0  0  0  0  0  0  0  0  0
   -4.3659    1.4959   16.4698 C   0  0  0  0  0  0  0  0  0  0  0  0
   -5.1605    1.5109   17.4500 O   0  0  0  0  0  0  0  0  0  0  0  0
   -5.6063    2.3025   17.6795 H   0  0  0  0  0  0  0  0  0  0  0  0
    0.4629    6.2873   11.5696 C   0  0  0  0  0  0  0  0  0  0  0  0
    1.2935    5.0217   11.3969 C   0  0  0  0  0  0  0  0  0  0  0  0
 21 20  1  0  0  0
 20  9  1  0  0  0
  9  2  1  0  0  0
  9  8  1  0  0  0
  2  1  2  0  0  0
  8  7  2  0  0  0
  8  3  1  0  0  0
  7  6  1  0  0  0
  1  3  1  0  0  0
  1 15  1  0  0  0
  3  4  2  0  0  0
  6  5  2  0  0  0
 15 14  2  0  0  0
 15 11  1  0  0  0
 14 12  1  0  0  0
  4  5  1  0  0  0
 11 10  2  0  0  0
 12 13  1  0  0  0
 12 10  1  0  0  0
 10 17  1  0  0  0
 16 17  2  0  0  0
 17 18  1  0  0  0
 18 19  1  0  0  0
M  END
> <minimizedAffinity>
-7.04666

$$$$
6B4D_53X_A_305


 21 23  0  0  0  0  0  0  0  0999 V2000
   -3.5911    3.2749   13.8161 C   0  0  0  0  0  0  0  0  0  0  0  0
   -3.2888    2.5428   12.6685 C   0  0  0  0  0  0  0  0  0  0  0  0
   -2.8794    4.4746   13.7214 C   0  0  0  0  0  0  0  0  0  0  0  0
   -2.7600    5.6030   14.5344 C   0  0  0  0  0  0  0  0  0  0  0  0
   -1.9407    6.6544   14.1264 C   0  0  0  0  0  0  0  0  0  0  0  0
   -1.2454    6.5854   12.9196 C   0  0  0  0  0  0  0  0  0  0  0  0
   -1.3595    5.4653   12.1164 C   0  0  0  0  0  0  0  0  0  0  0  0
   -2.1871    4.4088   12.5219 C   0  0  0  0  0  0  0  0  0  0  0  0
   -2.4529    3.2462   11.9214 N   0  0  0  0  0  0  0  0  0  0  0  0
   -5.3855    1.7471   16.6620 C   0  0  0  0  0  0  0  0  0  0  0  0
   -4.3360    1.7087   15.7397 C   0  0  0  0  0  0  0  0  0  0  0  0
   -6.0675    2.8598   16.4265 N   0  0  0  0  0  0  0  0  0  0  0  0
   -7.2383    3.3343   17.1466 C   0  0  0  0  0  0  0  0  0  0  0  0
   -5.5285    3.5276   15.4175 N   0  0  0  0  0  0  0  0  0  0  0  0
   -4.4963    2.8683   14.9618 C   0  0  0  0  0  0  0  0  0  0  0  0
   -6.0287   -0.4323   17.4117 O   0  0  0  0  0  0  0  0  0  0  0  0
   -5.6911    0.7292   17.7446 C   0  0  0  0  0  0  0  0  0  0  0  0
   -5.6167    1.0370   18.9661 O   0  0  0  0  0  0  0  0  0  0  0  0
   -5.3647    1.9041   19.2162 H   0  0  0  0  0  0  0  0  0  0  0  0
   -1.8700    2.8548   10.6404 C   0  0  0  0  0  0  0  0  0  0  0  0
   -1.3886    1.4093   10.6293 C   0  0  0  0  0  0  0  0  0  0  0  0
 21 20  1  0  0  0
 20  9  1  0  0  0
  9  2  1  0  0  0
  9  8  1  0  0  0
  2  1  2  0  0  0
  8  7  2  0  0  0
  8  3  1  0  0  0
  7  6  1  0  0  0
  1  3  1  0  0  0
  1 15  1  0  0  0
  3  4  2  0  0  0
  6  5  2  0  0  0
 15 14  2  0  0  0
 15 11  1  0  0  0
 14 12  1  0  0  0
  4  5  1  0  0  0
 11 10  2  0  0  0
 12 13  1  0  0  0
 12 10  1  0  0  0
 10 17  1  0  0  0
 16 17  2  0  0  0
 17 18  1  0  0  0
 18 19  1  0  0  0
M  END
> <minimizedAffinity>
-6.96059

$$$$
6B4D_53X_A_305


 21 23  0  0  0  0  0  0  0  0999 V2000
   -1.9941    1.7269   10.9451 C   0  0  0  0  0  0  0  0  0  0  0  0
   -2.3241    0.3833   10.7713 C   0  0  0  0  0  0  0  0  0  0  0  0
   -2.8650    2.2275   11.9177 C   0  0  0  0  0  0  0  0  0  0  0  0
   -3.0406    3.4754   12.5182 C   0  0  0  0  0  0  0  0  0  0  0  0
   -4.0330    3.6342   13.4842 C   0  0  0  0  0  0  0  0  0  0  0  0
   -4.8447    2.5612   13.8510 C   0  0  0  0  0  0  0  0  0  0  0  0
   -4.6743    1.3261   13.2524 C   0  0  0  0  0  0  0  0  0  0  0  0
   -3.6733    1.1624   12.2845 C   0  0  0  0  0  0  0  0  0  0  0  0
   -3.3250    0.0811   11.5829 N   0  0  0  0  0  0  0  0  0  0  0  0
    0.9136    3.6997    9.8025 C   0  0  0  0  0  0  0  0  0  0  0  0
    0.2169    3.0713   10.8385 C   0  0  0  0  0  0  0  0  0  0  0  0
    0.2238    3.4906    8.6894 N   0  0  0  0  0  0  0  0  0  0  0  0
    0.5686    3.9438    7.3513 C   0  0  0  0  0  0  0  0  0  0  0  0
   -0.8633    2.7787    8.9460 N   0  0  0  0  0  0  0  0  0  0  0  0
   -0.9195    2.5168   10.2251 C   0  0  0  0  0  0  0  0  0  0  0  0
    2.1888    5.7131   10.0162 O   0  0  0  0  0  0  0  0  0  0  0  0
    2.2201    4.4636    9.9088 C   0  0  0  0  0  0  0  0  0  0  0  0
    3.3290    3.8619    9.8838 O   0  0  0  0  0  0  0  0  0  0  0  0
    3.3539    2.9286    9.8036 H   0  0  0  0  0  0  0  0  0  0  0  0
   -3.9915   -1.2115   11.7201 C   0  0  0  0  0  0  0  0  0  0  0  0
   -3.0615   -2.3861   11.4433 C   0  0  0  0  0  0  0  0  0  0  0  0
 21 20  1  0  0  0
 20  9  1  0  0  0
  9  2  1  0  0  0
  9  8  1  0  0  0
  2  1  2  0  0  0
  8  7  2  0  0  0
  8  3  1  0  0  0
  7  6  1  0  0  0
  1  3  1  0  0  0
  1 15  1  0  0  0
  3  4  2  0  0  0
  6  5  2  0  0  0
 15 14  2  0  0  0
 15 11  1  0  0  0
 14 12  1  0  0  0
  4  5  1  0  0  0
 11 10  2  0  0  0
 12 13  1  0  0  0
 12 10  1  0  0  0
 10 17  1  0  0  0
 16 17  2  0  0  0
 17 18  1  0  0  0
 18 19  1  0  0  0
M  END
> <minimizedAffinity>
-6.87500

$$$$
6B4D_53X_A_305


 21 23  0  0  0  0  0  0  0  0999 V2000
   -4.1918    2.5366   12.1414 C   0  0  0  0  0  0  0  0  0  0  0  0
   -4.2218    1.3313   11.4410 C   0  0  0  0  0  0  0  0  0  0  0  0
   -4.2147    2.2075   13.5001 C   0  0  0  0  0  0  0  0  0  0  0  0
   -4.2043    2.9498   14.6823 C   0  0  0  0  0  0  0  0  0  0  0  0
   -4.2340    2.2838   15.9065 C   0  0  0  0  0  0  0  0  0  0  0  0
   -4.2733    0.8907   15.9558 C   0  0  0  0  0  0  0  0  0  0  0  0
   -4.2888    0.1552   14.7847 C   0  0  0  0  0  0  0  0  0  0  0  0
   -4.2537    0.8226   13.5522 C   0  0  0  0  0  0  0  0  0  0  0  0
   -4.2574    0.3335   12.3098 N   0  0  0  0  0  0  0  0  0  0  0  0
   -3.5099    6.0055   11.0670 C   0  0  0  0  0  0  0  0  0  0  0  0
   -3.1189    4.8650   11.7741 C   0  0  0  0  0  0  0  0  0  0  0  0
   -4.6718    5.7255   10.4923 N   0  0  0  0  0  0  0  0  0  0  0  0
   -5.4582    6.6039    9.6411 C   0  0  0  0  0  0  0  0  0  0  0  0
   -5.0482    4.4905   10.7884 N   0  0  0  0  0  0  0  0  0  0  0  0
   -4.1564    3.9395   11.5686 C   0  0  0  0  0  0  0  0  0  0  0  0
   -2.9722    8.2215   11.7924 O   0  0  0  0  0  0  0  0  0  0  0  0
   -2.7540    7.3159   10.9520 C   0  0  0  0  0  0  0  0  0  0  0  0
   -1.9200    7.5062   10.0244 O   0  0  0  0  0  0  0  0  0  0  0  0
   -1.7560    6.8308    9.3960 H   0  0  0  0  0  0  0  0  0  0  0  0
   -4.3084   -1.0957   12.0119 C   0  0  0  0  0  0  0  0  0  0  0  0
   -3.0896   -1.5795   11.2361 C   0  0  0  0  0  0  0  0  0  0  0  0
 21 20  1  0  0  0
 20  9  1  0  0  0
  9  2  1  0  0  0
  9  8  1  0  0  0
  2  1  2  0  0  0
  8  7  2  0  0  0
  8  3  1  0  0  0
  7  6  1  0  0  0
  1  3  1  0  0  0
  1 15  1  0  0  0
  3  4  2  0  0  0
  6  5  2  0  0  0
 15 14  2  0  0  0
 15 11  1  0  0  0
 14 12  1  0  0  0
  4  5  1  0  0  0
 11 10  2  0  0  0
 12 13  1  0  0  0
 12 10  1  0  0  0
 10 17  1  0  0  0
 16 17  2  0  0  0
 17 18  1  0  0  0
 18 19  1  0  0  0
M  END
> <minimizedAffinity>
-6.68592

$$$$
6B4D_53X_A_305


 21 23  0  0  0  0  0  0  0  0999 V2000
   -2.9975    4.5346   14.0686 C   0  0  0  0  0  0  0  0  0  0  0  0
   -2.4850    5.7860   14.4085 C   0  0  0  0  0  0  0  0  0  0  0  0
   -2.4779    4.2210   12.8090 C   0  0  0  0  0  0  0  0  0  0  0  0
   -2.6103    3.1333   11.9441 C   0  0  0  0  0  0  0  0  0  0  0  0
   -1.9306    3.1425   10.7271 C   0  0  0  0  0  0  0  0  0  0  0  0
   -1.1252    4.2242   10.3721 C   0  0  0  0  0  0  0  0  0  0  0  0
   -0.9980    5.3043   11.2265 C   0  0  0  0  0  0  0  0  0  0  0  0
   -1.6763    5.2949   12.4535 C   0  0  0  0  0  0  0  0  0  0  0  0
   -1.7036    6.2082   13.4272 N   0  0  0  0  0  0  0  0  0  0  0  0
   -4.8170    1.9585   15.9937 C   0  0  0  0  0  0  0  0  0  0  0  0
   -3.6803    2.3501   15.2808 C   0  0  0  0  0  0  0  0  0  0  0  0
   -5.6437    2.9953   16.0043 N   0  0  0  0  0  0  0  0  0  0  0  0
   -6.9493    3.0636   16.6410 C   0  0  0  0  0  0  0  0  0  0  0  0
   -5.1148    4.0151   15.3448 N   0  0  0  0  0  0  0  0  0  0  0  0
   -3.9437    3.6707   14.8783 C   0  0  0  0  0  0  0  0  0  0  0  0
   -5.0335   -0.4241   15.9501 O   0  0  0  0  0  0  0  0  0  0  0  0
   -5.0672    0.6149   16.6523 C   0  0  0  0  0  0  0  0  0  0  0  0
   -5.3137    0.5320   17.8871 O   0  0  0  0  0  0  0  0  0  0  0  0
   -5.3392    1.3071   18.4129 H   0  0  0  0  0  0  0  0  0  0  0  0
   -0.9734    7.4717   13.3609 C   0  0  0  0  0  0  0  0  0  0  0  0
   -1.3649    8.4373   14.4725 C   0  0  0  0  0  0  0  0  0  0  0  0
 21 20  1  0  0  0
 20  9  1  0  0  0
  9  2  1  0  0  0
  9  8  1  0  0  0
  2  1  2  0  0  0
  8  7  2  0  0  0
  8  3  1  0  0  0
  7  6  1  0  0  0
  1  3  1  0  0  0
  1 15  1  0  0  0
  3  4  2  0  0  0
  6  5  2  0  0  0
 15 14  2  0  0  0
 15 11  1  0  0  0
 14 12  1  0  0  0
  4  5  1  0  0  0
 11 10  2  0  0  0
 12 13  1  0  0  0
 12 10  1  0  0  0
 10 17  1  0  0  0
 16 17  2  0  0  0
 17 18  1  0  0  0
 18 19  1  0  0  0
M  END
> <minimizedAffinity>
-6.60045

$$$$
6B4D_53X_A_305


 21 23  0  0  0  0  0  0  0  0999 V2000
   -3.7260    5.9047   12.1511 C   0  0  0  0  0  0  0  0  0  0  0  0
   -2.5548    6.5609   11.7747 C   0  0  0  0  0  0  0  0  0  0  0  0
   -4.7864    6.7264   11.7570 C   0  0  0  0  0  0  0  0  0  0  0  0
   -6.1762    6.6340   11.8485 C   0  0  0  0  0  0  0  0  0  0  0  0
   -6.9638    7.6635   11.3356 C   0  0  0  0  0  0  0  0  0  0  0  0
   -6.3749    8.7763   10.7360 C   0  0  0  0  0  0  0  0  0  0  0  0
   -4.9978    8.8705   10.6499 C   0  0  0  0  0  0  0  0  0  0  0  0
   -4.2037    7.8339   11.1602 C   0  0  0  0  0  0  0  0  0  0  0  0
   -2.8752    7.7033   11.1881 N   0  0  0  0  0  0  0  0  0  0  0  0
   -3.9556    3.0202   14.4488 C   0  0  0  0  0  0  0  0  0  0  0  0
   -3.7929    4.3947   14.2542 C   0  0  0  0  0  0  0  0  0  0  0  0
   -4.1160    2.4756   13.2503 N   0  0  0  0  0  0  0  0  0  0  0  0
   -4.3345    1.0690   12.9534 C   0  0  0  0  0  0  0  0  0  0  0  0
   -4.0617    3.4058   12.3089 N   0  0  0  0  0  0  0  0  0  0  0  0
   -3.8530    4.5717   12.8612 C   0  0  0  0  0  0  0  0  0  0  0  0
   -5.0056    2.3040   16.4762 O   0  0  0  0  0  0  0  0  0  0  0  0
   -3.9679    2.2776   15.7717 C   0  0  0  0  0  0  0  0  0  0  0  0
   -2.9521    1.6446   16.1715 O   0  0  0  0  0  0  0  0  0  0  0  0
   -2.1763    1.6239   15.6464 H   0  0  0  0  0  0  0  0  0  0  0  0
   -1.9602    8.7073   10.6506 C   0  0  0  0  0  0  0  0  0  0  0  0
   -1.4313    8.3428    9.2691 C   0  0  0  0  0  0  0  0  0  0  0  0
 21 20  1  0  0  0
 20  9  1  0  0  0
  9  2  1  0  0  0
  9  8  1  0  0  0
  2  1  2  0  0  0
  8  7  2  0  0  0
  8  3  1  0  0  0
  7  6  1  0  0  0
  1  3  1  0  0  0
  1 15  1  0  0  0
  3  4  2  0  0  0
  6  5  2  0  0  0
 15 14  2  0  0  0
 15 11  1  0  0  0
 14 12  1  0  0  0
  4  5  1  0  0  0
 11 10  2  0  0  0
 12 13  1  0  0  0
 12 10  1  0  0  0
 10 17  1  0  0  0
 16 17  2  0  0  0
 17 18  1  0  0  0
 18 19  1  0  0  0
M  END
> <minimizedAffinity>
-6.41618

$$$$
6B4D_53X_A_305


 21 23  0  0  0  0  0  0  0  0999 V2000
   -3.4483    2.7207   11.5808 C   0  0  0  0  0  0  0  0  0  0  0  0
   -3.9515    3.0898   12.8277 C   0  0  0  0  0  0  0  0  0  0  0  0
   -3.5180    1.3255   11.5212 C   0  0  0  0  0  0  0  0  0  0  0  0
   -3.1745    0.3735   10.5598 C   0  0  0  0  0  0  0  0  0  0  0  0
   -3.3842   -0.9775   10.8320 C   0  0  0  0  0  0  0  0  0  0  0  0
   -3.9314   -1.3796   12.0501 C   0  0  0  0  0  0  0  0  0  0  0  0
   -4.2670   -0.4368   13.0047 C   0  0  0  0  0  0  0  0  0  0  0  0
   -4.0620    0.9229   12.7312 C   0  0  0  0  0  0  0  0  0  0  0  0
   -4.3075    1.9975   13.4848 N   0  0  0  0  0  0  0  0  0  0  0  0
   -1.5585    4.9058    9.2771 C   0  0  0  0  0  0  0  0  0  0  0  0
   -1.5970    4.1226   10.4342 C   0  0  0  0  0  0  0  0  0  0  0  0
   -2.7607    4.8353    8.7217 N   0  0  0  0  0  0  0  0  0  0  0  0
   -3.1919    5.4778    7.4905 C   0  0  0  0  0  0  0  0  0  0  0  0
   -3.5604    4.0674    9.4464 N   0  0  0  0  0  0  0  0  0  0  0  0
   -2.9118    3.6297   10.4930 C   0  0  0  0  0  0  0  0  0  0  0  0
   -0.2590    6.8979    9.0158 O   0  0  0  0  0  0  0  0  0  0  0  0
   -0.3724    5.6806    8.7346 C   0  0  0  0  0  0  0  0  0  0  0  0
    0.4908    5.1207    8.0040 O   0  0  0  0  0  0  0  0  0  0  0  0
    0.4074    4.2115    7.7931 H   0  0  0  0  0  0  0  0  0  0  0  0
   -4.8714    1.9203   14.8302 C   0  0  0  0  0  0  0  0  0  0  0  0
   -3.8029    1.8876   15.9158 C   0  0  0  0  0  0  0  0  0  0  0  0
 21 20  1  0  0  0
 20  9  1  0  0  0
  9  2  1  0  0  0
  9  8  1  0  0  0
  2  1  2  0  0  0
  8  7  2  0  0  0
  8  3  1  0  0  0
  7  6  1  0  0  0
  1  3  1  0  0  0
  1 15  1  0  0  0
  3  4  2  0  0  0
  6  5  2  0  0  0
 15 14  2  0  0  0
 15 11  1  0  0  0
 14 12  1  0  0  0
  4  5  1  0  0  0
 11 10  2  0  0  0
 12 13  1  0  0  0
 12 10  1  0  0  0
 10 17  1  0  0  0
 16 17  2  0  0  0
 17 18  1  0  0  0
 18 19  1  0  0  0
M  END
> <minimizedAffinity>
-6.26043

$$$$
6B4D_53X_A_305


 21 23  0  0  0  0  0  0  0  0999 V2000
   -2.6550    4.0852   13.0835 C   0  0  0  0  0  0  0  0  0  0  0  0
   -2.6824    3.3872   11.8767 C   0  0  0  0  0  0  0  0  0  0  0  0
   -3.3123    3.2833   14.0215 C   0  0  0  0  0  0  0  0  0  0  0  0
   -3.6110    3.4174   15.3784 C   0  0  0  0  0  0  0  0  0  0  0  0
   -4.2995    2.3952   16.0298 C   0  0  0  0  0  0  0  0  0  0  0  0
   -4.6881    1.2482   15.3383 C   0  0  0  0  0  0  0  0  0  0  0  0
   -4.3967    1.1175   13.9926 C   0  0  0  0  0  0  0  0  0  0  0  0
   -3.6996    2.1418   13.3365 C   0  0  0  0  0  0  0  0  0  0  0  0
   -3.3096    2.2367   12.0631 N   0  0  0  0  0  0  0  0  0  0  0  0
   -1.6632    7.4603   14.2137 C   0  0  0  0  0  0  0  0  0  0  0  0
   -2.5046    6.3503   14.3301 C   0  0  0  0  0  0  0  0  0  0  0  0
   -0.7925    7.1870   13.2515 N   0  0  0  0  0  0  0  0  0  0  0  0
    0.2883    8.0406   12.7847 C   0  0  0  0  0  0  0  0  0  0  0  0
   -1.0245    5.9850   12.7458 N   0  0  0  0  0  0  0  0  0  0  0  0
   -2.0526    5.4502   13.3499 C   0  0  0  0  0  0  0  0  0  0  0  0
   -1.3713    8.6957   16.2421 O   0  0  0  0  0  0  0  0  0  0  0  0
   -1.7100    8.7352   15.0347 C   0  0  0  0  0  0  0  0  0  0  0  0
   -2.0891    9.8245   14.5230 O   0  0  0  0  0  0  0  0  0  0  0  0
   -2.3424    9.8556   13.6214 H   0  0  0  0  0  0  0  0  0  0  0  0
   -3.5744    1.2032   11.0651 C   0  0  0  0  0  0  0  0  0  0  0  0
   -2.3697    0.3051   10.8135 C   0  0  0  0  0  0  0  0  0  0  0  0
 21 20  1  0  0  0
 20  9  1  0  0  0
  9  2  1  0  0  0
  9  8  1  0  0  0
  2  1  2  0  0  0
  8  7  2  0  0  0
  8  3  1  0  0  0
  7  6  1  0  0  0
  1  3  1  0  0  0
  1 15  1  0  0  0
  3  4  2  0  0  0
  6  5  2  0  0  0
 15 14  2  0  0  0
 15 11  1  0  0  0
 14 12  1  0  0  0
  4  5  1  0  0  0
 11 10  2  0  0  0
 12 13  1  0  0  0
 12 10  1  0  0  0
 10 17  1  0  0  0
 16 17  2  0  0  0
 17 18  1  0  0  0
 18 19  1  0  0  0
M  END
> <minimizedAffinity>
-6.22403

$$$$
