1YQJ_6NP_A_362


 36 41  0  0  0  0  0  0  0  0999 V2000
   23.6012   15.0134   32.0880 C   0  0  0  0  0  0  0  0  0  0  0  0
   22.4239   15.7114   32.1585 N   0  0  0  0  0  0  0  0  0  0  0  0
   21.2692   15.0206   32.2447 N   0  0  0  0  0  0  0  0  0  0  0  0
   21.1446   13.6431   32.2719 C   0  0  0  0  0  0  0  0  0  0  0  0
   22.4475   12.8477   32.1961 C   0  0  0  0  0  0  0  0  0  0  0  0
   23.6229   13.5916   32.1059 C   0  0  0  0  0  0  0  0  0  0  0  0
   19.7743   13.0262   32.3660 C   0  0  0  0  0  0  0  0  0  0  0  0
   18.8874   13.1389   31.2670 C   0  0  0  0  0  0  0  0  0  0  0  0
   17.5911   12.5312   31.3353 C   0  0  0  0  0  0  0  0  0  0  0  0
   17.1790   11.7988   32.5223 C   0  0  0  0  0  0  0  0  0  0  0  0
   18.0780   11.7009   33.6160 C   0  0  0  0  0  0  0  0  0  0  0  0
   19.3570   12.3094   33.5289 C   0  0  0  0  0  0  0  0  0  0  0  0
   16.6937   12.6352   30.2254 C   0  0  0  0  0  0  0  0  0  0  0  0
   15.4104   12.0167   30.2958 C   0  0  0  0  0  0  0  0  0  0  0  0
   15.0150   11.2993   31.4625 C   0  0  0  0  0  0  0  0  0  0  0  0
   15.8891   11.1856   32.5812 C   0  0  0  0  0  0  0  0  0  0  0  0
   26.5895   14.9027   30.6037 C   0  0  0  0  0  0  0  0  0  0  0  0
   26.1305   15.1488   32.0565 C   0  0  0  0  0  0  0  0  0  0  0  0
   24.7877   15.7712   31.9898 N   0  0  0  0  0  0  0  0  0  0  0  0
   24.7570   17.0851   31.2890 C   0  0  0  0  0  0  0  0  0  0  0  0
   25.4134   16.9587   29.8876 C   0  0  0  0  0  0  0  0  0  0  0  0
   26.6977   16.2074   29.9136 N   0  0  0  0  0  0  0  0  0  0  0  0
   26.9979   16.0432   28.9527 H   0  0  0  0  0  0  0  0  0  0  0  0
   27.8652   14.0537   30.4866 C   0  0  0  0  0  0  0  0  0  0  0  0
   26.4770   11.9262   30.1971 C   0  0  0  0  0  0  0  0  0  0  0  0
   26.2148   10.5622   30.4705 C   0  0  0  0  0  0  0  0  0  0  0  0
   27.0677    9.8453   31.3369 C   0  0  0  0  0  0  0  0  0  0  0  0
   28.1858   10.4932   31.9265 C   0  0  0  0  0  0  0  0  0  0  0  0
   28.4472   11.8573   31.6513 C   0  0  0  0  0  0  0  0  0  0  0  0
   27.5964   12.5902   30.7850 C   0  0  0  0  0  0  0  0  0  0  0  0
   22.5078   11.3301   32.2144 C   0  0  0  0  0  0  0  0  0  0  0  0
   23.2940   10.6549   33.1732 C   0  0  0  0  0  0  0  0  0  0  0  0
   23.3263    9.2460   33.1757 C   0  0  0  0  0  0  0  0  0  0  0  0
   22.6227    8.4893   32.2842 N   0  0  0  0  0  0  0  0  0  0  0  0
   21.8602    9.1349   31.3527 C   0  0  0  0  0  0  0  0  0  0  0  0
   21.7799   10.5378   31.2864 C   0  0  0  0  0  0  0  0  0  0  0  0
  1  2  1  0  0  0
  1  6  2  0  0  0
  1 19  1  0  0  0
  2  3  2  0  0  0
  3  4  1  0  0  0
  4  5  2  0  0  0
  4  7  1  0  0  0
  5 31  1  0  0  0
  5  6  1  0  0  0
 31 32  2  0  0  0
 31 36  1  0  0  0
 32 33  1  0  0  0
 33 34  2  0  0  0
 34 35  1  0  0  0
 35 36  2  0  0  0
 24 30  1  0  0  0
 24 17  1  0  0  0
 25 26  2  0  0  0
 25 30  1  0  0  0
 26 27  1  0  0  0
 27 28  2  0  0  0
 28 29  1  0  0  0
 29 30  2  0  0  0
  7  8  2  0  0  0
  7 12  1  0  0  0
  8  9  1  0  0  0
  9 10  2  0  0  0
  9 13  1  0  0  0
 10 11  1  0  0  0
 10 16  1  0  0  0
 11 12  2  0  0  0
 13 14  2  0  0  0
 14 15  1  0  0  0
 15 16  2  0  0  0
 17 18  1  0  0  0
 17 22  1  0  0  0
 18 19  1  0  0  0
 19 20  1  0  0  0
 20 21  1  0  0  0
 21 22  1  0  0  0
 22 23  1  0  0  0
M  END
> <minimizedAffinity>
-12.44345

$$$$
1YQJ_6NP_A_362


 36 41  0  0  0  0  0  0  0  0999 V2000
   23.5973   14.8971   32.1159 C   0  0  0  0  0  0  0  0  0  0  0  0
   22.4257   15.6075   32.1445 N   0  0  0  0  0  0  0  0  0  0  0  0
   21.2628   14.9297   32.2239 N   0  0  0  0  0  0  0  0  0  0  0  0
   21.1243   13.5545   32.2829 C   0  0  0  0  0  0  0  0  0  0  0  0
   22.4207   12.7455   32.2541 C   0  0  0  0  0  0  0  0  0  0  0  0
   23.6049   13.4761   32.1698 C   0  0  0  0  0  0  0  0  0  0  0  0
   19.7465   12.9527   32.3639 C   0  0  0  0  0  0  0  0  0  0  0  0
   18.8607   13.1013   31.2682 C   0  0  0  0  0  0  0  0  0  0  0  0
   17.5569   12.5084   31.3236 C   0  0  0  0  0  0  0  0  0  0  0  0
   17.1361   11.7546   32.4940 C   0  0  0  0  0  0  0  0  0  0  0  0
   18.0341   11.6209   33.5847 C   0  0  0  0  0  0  0  0  0  0  0  0
   19.3206   12.2153   33.5106 C   0  0  0  0  0  0  0  0  0  0  0  0
   16.6606   12.6486   30.2168 C   0  0  0  0  0  0  0  0  0  0  0  0
   15.3697   12.0447   30.2740 C   0  0  0  0  0  0  0  0  0  0  0  0
   14.9657   11.3062   31.4245 C   0  0  0  0  0  0  0  0  0  0  0  0
   15.8387   11.1564   32.5398 C   0  0  0  0  0  0  0  0  0  0  0  0
   26.4910   14.8891   30.4509 C   0  0  0  0  0  0  0  0  0  0  0  0
   26.1229   14.9933   31.9461 C   0  0  0  0  0  0  0  0  0  0  0  0
   24.7929   15.6413   32.0235 N   0  0  0  0  0  0  0  0  0  0  0  0
   24.7511   17.0202   31.4620 C   0  0  0  0  0  0  0  0  0  0  0  0
   25.3218   17.0266   30.0180 C   0  0  0  0  0  0  0  0  0  0  0  0
   26.5882   16.2556   29.8908 N   0  0  0  0  0  0  0  0  0  0  0  0
   26.8282   16.1853   28.9019 H   0  0  0  0  0  0  0  0  0  0  0  0
   27.7382   14.0356   30.1722 C   0  0  0  0  0  0  0  0  0  0  0  0
   29.0885   12.9271   32.0390 C   0  0  0  0  0  0  0  0  0  0  0  0
   30.0147   12.9812   33.1082 C   0  0  0  0  0  0  0  0  0  0  0  0
   30.5976   14.2152   33.4679 C   0  0  0  0  0  0  0  0  0  0  0  0
   30.2561   15.3948   32.7542 C   0  0  0  0  0  0  0  0  0  0  0  0
   29.3302   15.3389   31.6843 C   0  0  0  0  0  0  0  0  0  0  0  0
   28.7349   14.1059   31.3146 C   0  0  0  0  0  0  0  0  0  0  0  0
   22.4659   11.2284   32.3115 C   0  0  0  0  0  0  0  0  0  0  0  0
   23.1102   10.5699   33.3814 C   0  0  0  0  0  0  0  0  0  0  0  0
   23.1306    9.1612   33.4172 C   0  0  0  0  0  0  0  0  0  0  0  0
   22.5476    8.3891   32.4547 N   0  0  0  0  0  0  0  0  0  0  0  0
   21.9229    9.0185   31.4156 C   0  0  0  0  0  0  0  0  0  0  0  0
   21.8635   10.4201   31.3103 C   0  0  0  0  0  0  0  0  0  0  0  0
  1  2  1  0  0  0
  1  6  2  0  0  0
  1 19  1  0  0  0
  2  3  2  0  0  0
  3  4  1  0  0  0
  4  5  2  0  0  0
  4  7  1  0  0  0
  5 31  1  0  0  0
  5  6  1  0  0  0
 31 32  2  0  0  0
 31 36  1  0  0  0
 32 33  1  0  0  0
 33 34  2  0  0  0
 34 35  1  0  0  0
 35 36  2  0  0  0
 24 30  1  0  0  0
 24 17  1  0  0  0
 25 26  2  0  0  0
 25 30  1  0  0  0
 26 27  1  0  0  0
 27 28  2  0  0  0
 28 29  1  0  0  0
 29 30  2  0  0  0
  7  8  2  0  0  0
  7 12  1  0  0  0
  8  9  1  0  0  0
  9 10  2  0  0  0
  9 13  1  0  0  0
 10 11  1  0  0  0
 10 16  1  0  0  0
 11 12  2  0  0  0
 13 14  2  0  0  0
 14 15  1  0  0  0
 15 16  2  0  0  0
 17 18  1  0  0  0
 17 22  1  0  0  0
 18 19  1  0  0  0
 19 20  1  0  0  0
 20 21  1  0  0  0
 21 22  1  0  0  0
 22 23  1  0  0  0
M  END
> <minimizedAffinity>
-11.03373

$$$$
1YQJ_6NP_A_362


 36 41  0  0  0  0  0  0  0  0999 V2000
   24.6377   11.4365   30.7128 C   0  0  0  0  0  0  0  0  0  0  0  0
   23.8822   10.3438   31.0494 N   0  0  0  0  0  0  0  0  0  0  0  0
   22.6057   10.5377   31.4379 N   0  0  0  0  0  0  0  0  0  0  0  0
   21.9601   11.7575   31.5335 C   0  0  0  0  0  0  0  0  0  0  0  0
   22.7866   12.9877   31.1600 C   0  0  0  0  0  0  0  0  0  0  0  0
   24.1026   12.7531   30.7646 C   0  0  0  0  0  0  0  0  0  0  0  0
   20.5263   11.8015   31.9911 C   0  0  0  0  0  0  0  0  0  0  0  0
   19.5075   12.0880   31.0493 C   0  0  0  0  0  0  0  0  0  0  0  0
   18.1370   12.1047   31.4686 C   0  0  0  0  0  0  0  0  0  0  0  0
   17.7832   11.8287   32.8520 C   0  0  0  0  0  0  0  0  0  0  0  0
   18.8171   11.5494   33.7831 C   0  0  0  0  0  0  0  0  0  0  0  0
   20.1679   11.5376   33.3483 C   0  0  0  0  0  0  0  0  0  0  0  0
   17.1028   12.3860   30.5202 C   0  0  0  0  0  0  0  0  0  0  0  0
   15.7404   12.3879   30.9423 C   0  0  0  0  0  0  0  0  0  0  0  0
   15.4022   12.1148   32.3000 C   0  0  0  0  0  0  0  0  0  0  0  0
   16.4141   11.8362   33.2628 C   0  0  0  0  0  0  0  0  0  0  0  0
   27.7217   12.5741   31.2966 C   0  0  0  0  0  0  0  0  0  0  0  0
   26.9161   12.2924   30.0106 C   0  0  0  0  0  0  0  0  0  0  0  0
   25.9714   11.1939   30.3199 N   0  0  0  0  0  0  0  0  0  0  0  0
   26.6273    9.9174   30.7180 C   0  0  0  0  0  0  0  0  0  0  0  0
   27.6299   10.1702   31.8763 C   0  0  0  0  0  0  0  0  0  0  0  0
   28.4929   11.3608   31.6477 N   0  0  0  0  0  0  0  0  0  0  0  0
   29.0222   11.5471   32.4995 H   0  0  0  0  0  0  0  0  0  0  0  0
   28.5916   13.8389   31.2246 C   0  0  0  0  0  0  0  0  0  0  0  0
   26.5891   15.3517   31.7127 C   0  0  0  0  0  0  0  0  0  0  0  0
   25.9832   16.4382   32.3883 C   0  0  0  0  0  0  0  0  0  0  0  0
   26.7337   17.1922   33.3159 C   0  0  0  0  0  0  0  0  0  0  0  0
   28.0900   16.8556   33.5702 C   0  0  0  0  0  0  0  0  0  0  0  0
   28.6942   15.7679   32.8944 C   0  0  0  0  0  0  0  0  0  0  0  0
   27.9524   15.0040   31.9576 C   0  0  0  0  0  0  0  0  0  0  0  0
   22.2471   14.4069   31.2023 C   0  0  0  0  0  0  0  0  0  0  0  0
   21.5067   14.9255   30.1177 C   0  0  0  0  0  0  0  0  0  0  0  0
   21.0086   16.2421   30.1846 C   0  0  0  0  0  0  0  0  0  0  0  0
   21.2079   17.0536   31.2636 N   0  0  0  0  0  0  0  0  0  0  0  0
   21.9241   16.5597   32.3168 C   0  0  0  0  0  0  0  0  0  0  0  0
   22.4547   15.2568   32.3218 C   0  0  0  0  0  0  0  0  0  0  0  0
  1  2  1  0  0  0
  1  6  2  0  0  0
  1 19  1  0  0  0
  2  3  2  0  0  0
  3  4  1  0  0  0
  4  5  2  0  0  0
  4  7  1  0  0  0
  5 31  1  0  0  0
  5  6  1  0  0  0
 31 32  2  0  0  0
 31 36  1  0  0  0
 32 33  1  0  0  0
 33 34  2  0  0  0
 34 35  1  0  0  0
 35 36  2  0  0  0
 24 30  1  0  0  0
 24 17  1  0  0  0
 25 26  2  0  0  0
 25 30  1  0  0  0
 26 27  1  0  0  0
 27 28  2  0  0  0
 28 29  1  0  0  0
 29 30  2  0  0  0
  7  8  2  0  0  0
  7 12  1  0  0  0
  8  9  1  0  0  0
  9 10  2  0  0  0
  9 13  1  0  0  0
 10 11  1  0  0  0
 10 16  1  0  0  0
 11 12  2  0  0  0
 13 14  2  0  0  0
 14 15  1  0  0  0
 15 16  2  0  0  0
 17 18  1  0  0  0
 17 22  1  0  0  0
 18 19  1  0  0  0
 19 20  1  0  0  0
 20 21  1  0  0  0
 21 22  1  0  0  0
 22 23  1  0  0  0
M  END
> <minimizedAffinity>
-10.35538

$$$$
1YQJ_6NP_A_362


 36 41  0  0  0  0  0  0  0  0999 V2000
   24.9982   16.3893   32.2158 C   0  0  0  0  0  0  0  0  0  0  0  0
   23.7742   16.9965   32.3227 N   0  0  0  0  0  0  0  0  0  0  0  0
   22.6659   16.2399   32.1930 N   0  0  0  0  0  0  0  0  0  0  0  0
   22.6333   14.8768   31.9585 C   0  0  0  0  0  0  0  0  0  0  0  0
   23.9893   14.1819   31.8382 C   0  0  0  0  0  0  0  0  0  0  0  0
   25.1150   14.9926   31.9753 C   0  0  0  0  0  0  0  0  0  0  0  0
   21.3048   14.1794   31.8335 C   0  0  0  0  0  0  0  0  0  0  0  0
   20.8310   13.3941   32.9133 C   0  0  0  0  0  0  0  0  0  0  0  0
   19.5548   12.7487   32.8158 C   0  0  0  0  0  0  0  0  0  0  0  0
   18.7418   12.8944   31.6188 C   0  0  0  0  0  0  0  0  0  0  0  0
   19.2346   13.6800   30.5447 C   0  0  0  0  0  0  0  0  0  0  0  0
   20.5004   14.3108   30.6606 C   0  0  0  0  0  0  0  0  0  0  0  0
   19.0676   11.9603   33.9063 C   0  0  0  0  0  0  0  0  0  0  0  0
   17.7910   11.3320   33.8069 C   0  0  0  0  0  0  0  0  0  0  0  0
   16.9997   11.4811   32.6305 C   0  0  0  0  0  0  0  0  0  0  0  0
   17.4651   12.2573   31.5309 C   0  0  0  0  0  0  0  0  0  0  0  0
   28.2312   16.4425   31.3850 C   0  0  0  0  0  0  0  0  0  0  0  0
   27.4670   16.6754   32.7055 C   0  0  0  0  0  0  0  0  0  0  0  0
   26.1345   17.2157   32.3485 N   0  0  0  0  0  0  0  0  0  0  0  0
   26.1761   18.5182   31.6274 C   0  0  0  0  0  0  0  0  0  0  0  0
   27.1156   18.4172   30.3954 C   0  0  0  0  0  0  0  0  0  0  0  0
   28.4067   17.7444   30.7034 N   0  0  0  0  0  0  0  0  0  0  0  0
   28.9089   17.5888   29.8293 H   0  0  0  0  0  0  0  0  0  0  0  0
   29.5491   15.6702   31.5534 C   0  0  0  0  0  0  0  0  0  0  0  0
   28.2966   13.5423   30.8899 C   0  0  0  0  0  0  0  0  0  0  0  0
   28.0670   12.1490   30.9892 C   0  0  0  0  0  0  0  0  0  0  0  0
   28.8514   11.3709   31.8675 C   0  0  0  0  0  0  0  0  0  0  0  0
   29.8686   11.9875   32.6438 C   0  0  0  0  0  0  0  0  0  0  0  0
   30.0976   13.3811   32.5426 C   0  0  0  0  0  0  0  0  0  0  0  0
   29.3147   14.1751   31.6662 C   0  0  0  0  0  0  0  0  0  0  0  0
   24.1509   12.6933   31.5835 C   0  0  0  0  0  0  0  0  0  0  0  0
   24.3341   12.2059   30.2712 C   0  0  0  0  0  0  0  0  0  0  0  0
   24.4912   10.8212   30.0614 C   0  0  0  0  0  0  0  0  0  0  0  0
   24.4767    9.9132   31.0801 N   0  0  0  0  0  0  0  0  0  0  0  0
   24.2991   10.3766   32.3528 C   0  0  0  0  0  0  0  0  0  0  0  0
   24.1332   11.7437   32.6402 C   0  0  0  0  0  0  0  0  0  0  0  0
  1  2  1  0  0  0
  1  6  2  0  0  0
  1 19  1  0  0  0
  2  3  2  0  0  0
  3  4  1  0  0  0
  4  5  2  0  0  0
  4  7  1  0  0  0
  5 31  1  0  0  0
  5  6  1  0  0  0
 31 32  2  0  0  0
 31 36  1  0  0  0
 32 33  1  0  0  0
 33 34  2  0  0  0
 34 35  1  0  0  0
 35 36  2  0  0  0
 24 30  1  0  0  0
 24 17  1  0  0  0
 25 26  2  0  0  0
 25 30  1  0  0  0
 26 27  1  0  0  0
 27 28  2  0  0  0
 28 29  1  0  0  0
 29 30  2  0  0  0
  7  8  2  0  0  0
  7 12  1  0  0  0
  8  9  1  0  0  0
  9 10  2  0  0  0
  9 13  1  0  0  0
 10 11  1  0  0  0
 10 16  1  0  0  0
 11 12  2  0  0  0
 13 14  2  0  0  0
 14 15  1  0  0  0
 15 16  2  0  0  0
 17 18  1  0  0  0
 17 22  1  0  0  0
 18 19  1  0  0  0
 19 20  1  0  0  0
 20 21  1  0  0  0
 21 22  1  0  0  0
 22 23  1  0  0  0
M  END
> <minimizedAffinity>
-9.80616

$$$$
1YQJ_6NP_A_362


 36 41  0  0  0  0  0  0  0  0999 V2000
   22.0972   14.9538   31.1594 C   0  0  0  0  0  0  0  0  0  0  0  0
   22.2199   15.9505   30.2267 N   0  0  0  0  0  0  0  0  0  0  0  0
   21.1507   16.2543   29.4636 N   0  0  0  0  0  0  0  0  0  0  0  0
   19.9077   15.6501   29.5260 C   0  0  0  0  0  0  0  0  0  0  0  0
   19.7515   14.5373   30.5620 C   0  0  0  0  0  0  0  0  0  0  0  0
   20.8758   14.2465   31.3330 C   0  0  0  0  0  0  0  0  0  0  0  0
   18.8162   16.1060   28.5945 C   0  0  0  0  0  0  0  0  0  0  0  0
   18.3620   17.4462   28.6637 C   0  0  0  0  0  0  0  0  0  0  0  0
   17.3431   17.8981   27.7626 C   0  0  0  0  0  0  0  0  0  0  0  0
   16.7726   16.9934   26.7772 C   0  0  0  0  0  0  0  0  0  0  0  0
   17.2353   15.6529   26.7259 C   0  0  0  0  0  0  0  0  0  0  0  0
   18.2448   15.2247   27.6266 C   0  0  0  0  0  0  0  0  0  0  0  0
   16.8856   19.2529   27.8227 C   0  0  0  0  0  0  0  0  0  0  0  0
   15.8807   19.6987   26.9140 C   0  0  0  0  0  0  0  0  0  0  0  0
   15.3278   18.8057   25.9501 C   0  0  0  0  0  0  0  0  0  0  0  0
   15.7642   17.4521   25.8738 C   0  0  0  0  0  0  0  0  0  0  0  0
   24.8472   13.0648   31.0382 C   0  0  0  0  0  0  0  0  0  0  0  0
   23.7464   13.2764   32.0990 C   0  0  0  0  0  0  0  0  0  0  0  0
   23.2405   14.6589   31.9325 N   0  0  0  0  0  0  0  0  0  0  0  0
   24.2679   15.7158   32.1462 C   0  0  0  0  0  0  0  0  0  0  0  0
   25.5127   15.4378   31.2608 C   0  0  0  0  0  0  0  0  0  0  0  0
   25.9497   14.0159   31.3034 N   0  0  0  0  0  0  0  0  0  0  0  0
   26.6750   13.8774   30.5997 H   0  0  0  0  0  0  0  0  0  0  0  0
   25.3258   11.6096   30.9157 C   0  0  0  0  0  0  0  0  0  0  0  0
   24.6550   10.0319   32.8125 C   0  0  0  0  0  0  0  0  0  0  0  0
   23.7536    9.1242   33.4187 C   0  0  0  0  0  0  0  0  0  0  0  0
   22.5363    8.8120   32.7762 C   0  0  0  0  0  0  0  0  0  0  0  0
   22.2196    9.4119   31.5283 C   0  0  0  0  0  0  0  0  0  0  0  0
   23.1218   10.3204   30.9238 C   0  0  0  0  0  0  0  0  0  0  0  0
   24.3498   10.6404   31.5571 C   0  0  0  0  0  0  0  0  0  0  0  0
   18.4624   13.7628   30.7753 C   0  0  0  0  0  0  0  0  0  0  0  0
   18.4828   12.4905   31.3870 C   0  0  0  0  0  0  0  0  0  0  0  0
   17.2725   11.7956   31.5824 C   0  0  0  0  0  0  0  0  0  0  0  0
   16.0617   12.3001   31.2056 N   0  0  0  0  0  0  0  0  0  0  0  0
   16.0333   13.5301   30.6123 C   0  0  0  0  0  0  0  0  0  0  0  0
   17.1998   14.2821   30.3818 C   0  0  0  0  0  0  0  0  0  0  0  0
  1  2  1  0  0  0
  1  6  2  0  0  0
  1 19  1  0  0  0
  2  3  2  0  0  0
  3  4  1  0  0  0
  4  5  2  0  0  0
  4  7  1  0  0  0
  5 31  1  0  0  0
  5  6  1  0  0  0
 31 32  2  0  0  0
 31 36  1  0  0  0
 32 33  1  0  0  0
 33 34  2  0  0  0
 34 35  1  0  0  0
 35 36  2  0  0  0
 24 30  1  0  0  0
 24 17  1  0  0  0
 25 26  2  0  0  0
 25 30  1  0  0  0
 26 27  1  0  0  0
 27 28  2  0  0  0
 28 29  1  0  0  0
 29 30  2  0  0  0
  7  8  2  0  0  0
  7 12  1  0  0  0
  8  9  1  0  0  0
  9 10  2  0  0  0
  9 13  1  0  0  0
 10 11  1  0  0  0
 10 16  1  0  0  0
 11 12  2  0  0  0
 13 14  2  0  0  0
 14 15  1  0  0  0
 15 16  2  0  0  0
 17 18  1  0  0  0
 17 22  1  0  0  0
 18 19  1  0  0  0
 19 20  1  0  0  0
 20 21  1  0  0  0
 21 22  1  0  0  0
 22 23  1  0  0  0
M  END
> <minimizedAffinity>
-9.80613

$$$$
1YQJ_6NP_A_362


 36 41  0  0  0  0  0  0  0  0999 V2000
   21.9115   11.3809   30.7287 C   0  0  0  0  0  0  0  0  0  0  0  0
   22.5008   12.3705   29.9861 N   0  0  0  0  0  0  0  0  0  0  0  0
   21.7753   13.4648   29.6792 N   0  0  0  0  0  0  0  0  0  0  0  0
   20.4626   13.7008   30.0468 C   0  0  0  0  0  0  0  0  0  0  0  0
   19.7894   12.6086   30.8774 C   0  0  0  0  0  0  0  0  0  0  0  0
   20.5659   11.4900   31.1757 C   0  0  0  0  0  0  0  0  0  0  0  0
   19.7921   14.9782   29.6159 C   0  0  0  0  0  0  0  0  0  0  0  0
   18.9093   14.9571   28.5081 C   0  0  0  0  0  0  0  0  0  0  0  0
   18.2442   16.1617   28.1070 C   0  0  0  0  0  0  0  0  0  0  0  0
   18.4666   17.4049   28.8282 C   0  0  0  0  0  0  0  0  0  0  0  0
   19.3587   17.4090   29.9318 C   0  0  0  0  0  0  0  0  0  0  0  0
   20.0075   16.2060   30.3133 C   0  0  0  0  0  0  0  0  0  0  0  0
   17.3454   16.1450   26.9934 C   0  0  0  0  0  0  0  0  0  0  0  0
   16.6773   17.3449   26.6084 C   0  0  0  0  0  0  0  0  0  0  0  0
   16.8999   18.5589   27.3217 C   0  0  0  0  0  0  0  0  0  0  0  0
   17.7927   18.6012   28.4306 C   0  0  0  0  0  0  0  0  0  0  0  0
   24.8406   10.5968   32.1257 C   0  0  0  0  0  0  0  0  0  0  0  0
   24.1631   10.2218   30.7907 C   0  0  0  0  0  0  0  0  0  0  0  0
   22.6999   10.2477   31.0220 N   0  0  0  0  0  0  0  0  0  0  0  0
   22.2256    9.2754   32.0457 C   0  0  0  0  0  0  0  0  0  0  0  0
   23.0293    9.4511   33.3625 C   0  0  0  0  0  0  0  0  0  0  0  0
   24.4951    9.5724   33.1364 N   0  0  0  0  0  0  0  0  0  0  0  0
   24.9407    9.8231   34.0190 H   0  0  0  0  0  0  0  0  0  0  0  0
   26.3534   10.8419   32.0117 C   0  0  0  0  0  0  0  0  0  0  0  0
   27.9838   12.6460   31.2218 C   0  0  0  0  0  0  0  0  0  0  0  0
   28.2851   13.9802   30.8568 C   0  0  0  0  0  0  0  0  0  0  0  0
   27.2702   14.9606   30.8868 C   0  0  0  0  0  0  0  0  0  0  0  0
   25.9523   14.6042   31.2785 C   0  0  0  0  0  0  0  0  0  0  0  0
   25.6523   13.2691   31.6424 C   0  0  0  0  0  0  0  0  0  0  0  0
   26.6634   12.2748   31.6195 C   0  0  0  0  0  0  0  0  0  0  0  0
   18.3559   12.6927   31.3724 C   0  0  0  0  0  0  0  0  0  0  0  0
   17.9859   12.1052   32.6017 C   0  0  0  0  0  0  0  0  0  0  0  0
   16.6515   12.2048   33.0441 C   0  0  0  0  0  0  0  0  0  0  0  0
   15.6838   12.8531   32.3329 N   0  0  0  0  0  0  0  0  0  0  0  0
   16.0334   13.4235   31.1420 C   0  0  0  0  0  0  0  0  0  0  0  0
   17.3440   13.3635   30.6342 C   0  0  0  0  0  0  0  0  0  0  0  0
  1  2  1  0  0  0
  1  6  2  0  0  0
  1 19  1  0  0  0
  2  3  2  0  0  0
  3  4  1  0  0  0
  4  5  2  0  0  0
  4  7  1  0  0  0
  5 31  1  0  0  0
  5  6  1  0  0  0
 31 32  2  0  0  0
 31 36  1  0  0  0
 32 33  1  0  0  0
 33 34  2  0  0  0
 34 35  1  0  0  0
 35 36  2  0  0  0
 24 30  1  0  0  0
 24 17  1  0  0  0
 25 26  2  0  0  0
 25 30  1  0  0  0
 26 27  1  0  0  0
 27 28  2  0  0  0
 28 29  1  0  0  0
 29 30  2  0  0  0
  7  8  2  0  0  0
  7 12  1  0  0  0
  8  9  1  0  0  0
  9 10  2  0  0  0
  9 13  1  0  0  0
 10 11  1  0  0  0
 10 16  1  0  0  0
 11 12  2  0  0  0
 13 14  2  0  0  0
 14 15  1  0  0  0
 15 16  2  0  0  0
 17 18  1  0  0  0
 17 22  1  0  0  0
 18 19  1  0  0  0
 19 20  1  0  0  0
 20 21  1  0  0  0
 21 22  1  0  0  0
 22 23  1  0  0  0
M  END
> <minimizedAffinity>
-9.78227

$$$$
1YQJ_6NP_A_362


 36 41  0  0  0  0  0  0  0  0999 V2000
   21.2048   15.0498   29.5673 C   0  0  0  0  0  0  0  0  0  0  0  0
   21.1779   13.6798   29.5918 N   0  0  0  0  0  0  0  0  0  0  0  0
   22.2587   13.0222   30.0579 N   0  0  0  0  0  0  0  0  0  0  0  0
   23.4236   13.6010   30.5288 C   0  0  0  0  0  0  0  0  0  0  0  0
   23.4711   15.1286   30.5110 C   0  0  0  0  0  0  0  0  0  0  0  0
   22.3388   15.7778   30.0215 C   0  0  0  0  0  0  0  0  0  0  0  0
   24.5448   12.7196   31.0115 C   0  0  0  0  0  0  0  0  0  0  0  0
   25.8843   13.0914   30.7382 C   0  0  0  0  0  0  0  0  0  0  0  0
   26.9600   12.2742   31.2174 C   0  0  0  0  0  0  0  0  0  0  0  0
   26.6883   11.0677   31.9827 C   0  0  0  0  0  0  0  0  0  0  0  0
   25.3404   10.7074   32.2421 C   0  0  0  0  0  0  0  0  0  0  0  0
   24.2895   11.5297   31.7592 C   0  0  0  0  0  0  0  0  0  0  0  0
   28.3153   12.6486   30.9509 C   0  0  0  0  0  0  0  0  0  0  0  0
   29.3806   11.8373   31.4423 C   0  0  0  0  0  0  0  0  0  0  0  0
   29.1055   10.6571   32.1930 C   0  0  0  0  0  0  0  0  0  0  0  0
   27.7649   10.2619   32.4673 C   0  0  0  0  0  0  0  0  0  0  0  0
   17.8759   14.8642   29.7402 C   0  0  0  0  0  0  0  0  0  0  0  0
   18.8782   14.9554   28.5701 C   0  0  0  0  0  0  0  0  0  0  0  0
   20.0586   15.7018   29.0644 N   0  0  0  0  0  0  0  0  0  0  0  0
   19.7624   17.0946   29.5010 C   0  0  0  0  0  0  0  0  0  0  0  0
   18.5972   17.0966   30.5273 C   0  0  0  0  0  0  0  0  0  0  0  0
   17.4575   16.2338   30.1134 N   0  0  0  0  0  0  0  0  0  0  0  0
   16.7978   16.1724   30.8889 H   0  0  0  0  0  0  0  0  0  0  0  0
   16.6889   13.9249   29.4746 C   0  0  0  0  0  0  0  0  0  0  0  0
   17.4655   12.8155   31.6433 C   0  0  0  0  0  0  0  0  0  0  0  0
   17.2900   11.8958   32.7050 C   0  0  0  0  0  0  0  0  0  0  0  0
   16.1355   11.0848   32.7453 C   0  0  0  0  0  0  0  0  0  0  0  0
   15.1545   11.1977   31.7243 C   0  0  0  0  0  0  0  0  0  0  0  0
   15.3311   12.1188   30.6636 C   0  0  0  0  0  0  0  0  0  0  0  0
   16.4879   12.9375   30.6094 C   0  0  0  0  0  0  0  0  0  0  0  0
   24.6641   15.9378   30.9895 C   0  0  0  0  0  0  0  0  0  0  0  0
   25.5478   16.5302   30.0613 C   0  0  0  0  0  0  0  0  0  0  0  0
   26.6423   17.2842   30.5299 C   0  0  0  0  0  0  0  0  0  0  0  0
   26.8938   17.4751   31.8576 N   0  0  0  0  0  0  0  0  0  0  0  0
   26.0440   16.9046   32.7621 C   0  0  0  0  0  0  0  0  0  0  0  0
   24.9322   16.1367   32.3705 C   0  0  0  0  0  0  0  0  0  0  0  0
  1  2  1  0  0  0
  1  6  2  0  0  0
  1 19  1  0  0  0
  2  3  2  0  0  0
  3  4  1  0  0  0
  4  5  2  0  0  0
  4  7  1  0  0  0
  5 31  1  0  0  0
  5  6  1  0  0  0
 31 32  2  0  0  0
 31 36  1  0  0  0
 32 33  1  0  0  0
 33 34  2  0  0  0
 34 35  1  0  0  0
 35 36  2  0  0  0
 24 30  1  0  0  0
 24 17  1  0  0  0
 25 26  2  0  0  0
 25 30  1  0  0  0
 26 27  1  0  0  0
 27 28  2  0  0  0
 28 29  1  0  0  0
 29 30  2  0  0  0
  7  8  2  0  0  0
  7 12  1  0  0  0
  8  9  1  0  0  0
  9 10  2  0  0  0
  9 13  1  0  0  0
 10 11  1  0  0  0
 10 16  1  0  0  0
 11 12  2  0  0  0
 13 14  2  0  0  0
 14 15  1  0  0  0
 15 16  2  0  0  0
 17 18  1  0  0  0
 17 22  1  0  0  0
 18 19  1  0  0  0
 19 20  1  0  0  0
 20 21  1  0  0  0
 21 22  1  0  0  0
 22 23  1  0  0  0
M  END
> <minimizedAffinity>
-9.58847

$$$$
