4U6C_Q06_A_404


 17 17  0  0  0  0  0  0  0  0999 V2000
   22.4239   -3.8251    9.9271 C   0  0  0  0  0  0  0  0  0  0  0  0
   23.6982   -3.1575    9.6563 N   0  0  0  0  0  0  0  0  0  0  0  0
   23.9381   -2.5515   10.4409 H   0  0  0  0  0  0  0  0  0  0  0  0
   23.6153   -2.5979    8.8075 H   0  0  0  0  0  0  0  0  0  0  0  0
   19.8262   -2.7482    9.5847 O   0  0  0  0  0  0  0  0  0  0  0  0
   21.1107   -2.7426   10.4973 P   0  0  0  0  0  0  0  0  0  0  0  0
   20.7579   -3.1305   11.8337 O   0  0  0  0  0  0  0  0  0  0  0  0
   21.7495   -1.3367   10.6004 O   0  0  0  0  0  0  0  0  0  0  0  0
   19.1643   -2.1431    9.9543 H   0  0  0  0  0  0  0  0  0  0  0  0
   21.0840   -0.7008   10.9065 H   0  0  0  0  0  0  0  0  0  0  0  0
   22.1910   -4.5778   11.1824 C   0  0  0  0  0  0  0  0  0  0  0  0
   23.3249   -5.3636   11.5596 C   0  0  0  0  0  0  0  0  0  0  0  0
   23.3364   -6.4905   10.6274 C   0  0  0  0  0  0  0  0  0  0  0  0
   22.0954   -7.3659   10.5330 C   0  0  0  0  0  0  0  0  0  0  0  0
   22.6441   -8.6958   10.0626 C   0  0  0  0  0  0  0  0  0  0  0  0
   24.0758   -8.7242   10.5680 C   0  0  0  0  0  0  0  0  0  0  0  0
   24.3483   -7.4114   11.2587 C   0  0  0  0  0  0  0  0  0  0  0  0
  5  6  1  0  0  0
  6  7  2  0  0  0
  6  8  1  0  0  0
  6  1  1  0  0  0
  1  2  1  0  0  0
  1 11  1  0  0  0
 11 12  1  0  0  0
 12 13  1  0  0  0
 13 14  1  0  0  0
 13 17  1  0  0  0
 14 15  1  0  0  0
 15 16  1  0  0  0
 16 17  1  0  0  0
  5  9  1  0  0  0
  8 10  1  0  0  0
  2  3  1  0  0  0
  2  4  1  0  0  0
M  END
> <minimizedAffinity>
-8.34638

$$$$
4U6C_Q06_A_404


 17 17  0  0  0  0  0  0  0  0999 V2000
   22.9675   -3.9741   11.2939 C   0  0  0  0  0  0  0  0  0  0  0  0
   22.3412   -2.6960   11.6359 N   0  0  0  0  0  0  0  0  0  0  0  0
   21.6032   -2.4882   10.9631 H   0  0  0  0  0  0  0  0  0  0  0  0
   23.0427   -1.9560   11.6104 H   0  0  0  0  0  0  0  0  0  0  0  0
   24.1976   -2.9176    8.9711 O   0  0  0  0  0  0  0  0  0  0  0  0
   23.4231   -4.1536    9.5671 P   0  0  0  0  0  0  0  0  0  0  0  0
   24.2241   -5.3376    9.4351 O   0  0  0  0  0  0  0  0  0  0  0  0
   22.0982   -4.4316    8.8170 O   0  0  0  0  0  0  0  0  0  0  0  0
   24.4088   -3.0870    8.0396 H   0  0  0  0  0  0  0  0  0  0  0  0
   22.2792   -4.5390    7.8701 H   0  0  0  0  0  0  0  0  0  0  0  0
   22.1658   -5.2040   11.0905 C   0  0  0  0  0  0  0  0  0  0  0  0
   22.0351   -5.9688   12.2920 C   0  0  0  0  0  0  0  0  0  0  0  0
   22.5586   -7.2936   11.9608 C   0  0  0  0  0  0  0  0  0  0  0  0
   24.0571   -7.4482   11.7468 C   0  0  0  0  0  0  0  0  0  0  0  0
   24.1543   -8.6471   10.8280 C   0  0  0  0  0  0  0  0  0  0  0  0
   22.8432   -8.6546   10.0619 C   0  0  0  0  0  0  0  0  0  0  0  0
   21.9984   -7.5177   10.5801 C   0  0  0  0  0  0  0  0  0  0  0  0
  5  6  1  0  0  0
  6  7  2  0  0  0
  6  8  1  0  0  0
  6  1  1  0  0  0
  1  2  1  0  0  0
  1 11  1  0  0  0
 11 12  1  0  0  0
 12 13  1  0  0  0
 13 14  1  0  0  0
 13 17  1  0  0  0
 14 15  1  0  0  0
 15 16  1  0  0  0
 16 17  1  0  0  0
  5  9  1  0  0  0
  8 10  1  0  0  0
  2  3  1  0  0  0
  2  4  1  0  0  0
M  END
> <minimizedAffinity>
-7.98383

$$$$
4U6C_Q06_A_404


 17 17  0  0  0  0  0  0  0  0999 V2000
   22.3970   -3.8662    9.7688 C   0  0  0  0  0  0  0  0  0  0  0  0
   23.6864   -3.1908    9.6131 N   0  0  0  0  0  0  0  0  0  0  0  0
   23.9839   -2.8143   10.5131 H   0  0  0  0  0  0  0  0  0  0  0  0
   23.5925   -2.4297    8.9405 H   0  0  0  0  0  0  0  0  0  0  0  0
   20.7021   -3.5831   12.0209 O   0  0  0  0  0  0  0  0  0  0  0  0
   21.1557   -2.9269   10.6621 P   0  0  0  0  0  0  0  0  0  0  0  0
   21.6788   -1.6129   10.9088 O   0  0  0  0  0  0  0  0  0  0  0  0
   19.9775   -2.7539    9.6734 O   0  0  0  0  0  0  0  0  0  0  0  0
   20.0339   -3.0216   12.4440 H   0  0  0  0  0  0  0  0  0  0  0  0
   19.2680   -2.2494   10.1010 H   0  0  0  0  0  0  0  0  0  0  0  0
   22.1841   -4.9087   10.8006 C   0  0  0  0  0  0  0  0  0  0  0  0
   23.4080   -5.3142   11.4197 C   0  0  0  0  0  0  0  0  0  0  0  0
   23.3150   -6.7693   11.5341 C   0  0  0  0  0  0  0  0  0  0  0  0
   24.5690   -7.5970   11.2941 C   0  0  0  0  0  0  0  0  0  0  0  0
   24.0212   -8.9331   10.8410 C   0  0  0  0  0  0  0  0  0  0  0  0
   22.6803   -8.6067   10.2073 C   0  0  0  0  0  0  0  0  0  0  0  0
   22.4490   -7.1235   10.3529 C   0  0  0  0  0  0  0  0  0  0  0  0
  5  6  1  0  0  0
  6  7  2  0  0  0
  6  8  1  0  0  0
  6  1  1  0  0  0
  1  2  1  0  0  0
  1 11  1  0  0  0
 11 12  1  0  0  0
 12 13  1  0  0  0
 13 14  1  0  0  0
 13 17  1  0  0  0
 14 15  1  0  0  0
 15 16  1  0  0  0
 16 17  1  0  0  0
  5  9  1  0  0  0
  8 10  1  0  0  0
  2  3  1  0  0  0
  2  4  1  0  0  0
M  END
> <minimizedAffinity>
-7.90203

$$$$
4U6C_Q06_A_404


 17 17  0  0  0  0  0  0  0  0999 V2000
   21.2670   -3.3945   12.0508 C   0  0  0  0  0  0  0  0  0  0  0  0
   20.1327   -3.6514   12.9398 N   0  0  0  0  0  0  0  0  0  0  0  0
   19.4437   -4.2260   12.4546 H   0  0  0  0  0  0  0  0  0  0  0  0
   19.7061   -2.7656   13.2114 H   0  0  0  0  0  0  0  0  0  0  0  0
   21.2974   -3.8051    9.2481 O   0  0  0  0  0  0  0  0  0  0  0  0
   20.8236   -2.8420   10.4017 P   0  0  0  0  0  0  0  0  0  0  0  0
   19.3974   -2.6867   10.3488 O   0  0  0  0  0  0  0  0  0  0  0  0
   21.4271   -1.4234   10.2649 O   0  0  0  0  0  0  0  0  0  0  0  0
   21.0232   -3.4426    8.3912 H   0  0  0  0  0  0  0  0  0  0  0  0
   21.2199   -1.0672    9.3868 H   0  0  0  0  0  0  0  0  0  0  0  0
   21.9826   -4.4958   11.3641 C   0  0  0  0  0  0  0  0  0  0  0  0
   21.9679   -5.7069   12.1248 C   0  0  0  0  0  0  0  0  0  0  0  0
   22.3743   -6.7527   11.1866 C   0  0  0  0  0  0  0  0  0  0  0  0
   23.1246   -7.9607   11.7281 C   0  0  0  0  0  0  0  0  0  0  0  0
   23.9226   -8.4373   10.5336 C   0  0  0  0  0  0  0  0  0  0  0  0
   24.1363   -7.1930    9.6897 C   0  0  0  0  0  0  0  0  0  0  0  0
   23.4226   -6.0485   10.3645 C   0  0  0  0  0  0  0  0  0  0  0  0
  5  6  1  0  0  0
  6  7  2  0  0  0
  6  8  1  0  0  0
  6  1  1  0  0  0
  1  2  1  0  0  0
  1 11  1  0  0  0
 11 12  1  0  0  0
 12 13  1  0  0  0
 13 14  1  0  0  0
 13 17  1  0  0  0
 14 15  1  0  0  0
 15 16  1  0  0  0
 16 17  1  0  0  0
  5  9  1  0  0  0
  8 10  1  0  0  0
  2  3  1  0  0  0
  2  4  1  0  0  0
M  END
> <minimizedAffinity>
-6.58828

$$$$
4U6C_Q06_A_404


 17 17  0  0  0  0  0  0  0  0999 V2000
   20.0079   -5.9916   14.1368 C   0  0  0  0  0  0  0  0  0  0  0  0
   20.0955   -4.5306   14.1117 N   0  0  0  0  0  0  0  0  0  0  0  0
   20.9331   -4.2315   14.6110 H   0  0  0  0  0  0  0  0  0  0  0  0
   19.2711   -4.1327   14.5617 H   0  0  0  0  0  0  0  0  0  0  0  0
   21.4262   -6.0974   16.5868 O   0  0  0  0  0  0  0  0  0  0  0  0
   20.2513   -6.7348   15.7523 P   0  0  0  0  0  0  0  0  0  0  0  0
   19.0217   -6.6274   16.4855 O   0  0  0  0  0  0  0  0  0  0  0  0
   20.4745   -8.2427   15.4842 O   0  0  0  0  0  0  0  0  0  0  0  0
   21.4964   -6.5483   17.4428 H   0  0  0  0  0  0  0  0  0  0  0  0
   20.6133   -8.7037   16.3262 H   0  0  0  0  0  0  0  0  0  0  0  0
   21.1375   -6.8466   13.7013 C   0  0  0  0  0  0  0  0  0  0  0  0
   21.8369   -6.2905   12.5845 C   0  0  0  0  0  0  0  0  0  0  0  0
   22.5576   -7.4140   11.9867 C   0  0  0  0  0  0  0  0  0  0  0  0
   23.9989   -7.1998   11.5484 C   0  0  0  0  0  0  0  0  0  0  0  0
   24.1846   -8.2277   10.4530 C   0  0  0  0  0  0  0  0  0  0  0  0
   22.7937   -8.4397    9.8816 C   0  0  0  0  0  0  0  0  0  0  0  0
   21.8327   -7.5927   10.6778 C   0  0  0  0  0  0  0  0  0  0  0  0
  5  6  1  0  0  0
  6  7  2  0  0  0
  6  8  1  0  0  0
  6  1  1  0  0  0
  1  2  1  0  0  0
  1 11  1  0  0  0
 11 12  1  0  0  0
 12 13  1  0  0  0
 13 14  1  0  0  0
 13 17  1  0  0  0
 14 15  1  0  0  0
 15 16  1  0  0  0
 16 17  1  0  0  0
  5  9  1  0  0  0
  8 10  1  0  0  0
  2  3  1  0  0  0
  2  4  1  0  0  0
M  END
> <minimizedAffinity>
-6.10070

$$$$
4U6C_Q06_A_404


 17 17  0  0  0  0  0  0  0  0999 V2000
   19.8919   -2.6922   12.6895 C   0  0  0  0  0  0  0  0  0  0  0  0
   19.9999   -3.8443   13.5862 N   0  0  0  0  0  0  0  0  0  0  0  0
   19.6040   -4.6671   13.1318 H   0  0  0  0  0  0  0  0  0  0  0  0
   19.4891   -3.6532   14.4483 H   0  0  0  0  0  0  0  0  0  0  0  0
   18.2573   -2.5982   10.3778 O   0  0  0  0  0  0  0  0  0  0  0  0
   18.2740   -2.4620   11.9475 P   0  0  0  0  0  0  0  0  0  0  0  0
   17.3743   -3.4190   12.5271 O   0  0  0  0  0  0  0  0  0  0  0  0
   17.7976   -1.0671   12.4193 O   0  0  0  0  0  0  0  0  0  0  0  0
   17.3542   -2.4620   10.0511 H   0  0  0  0  0  0  0  0  0  0  0  0
   16.9206   -0.8823   12.0483 H   0  0  0  0  0  0  0  0  0  0  0  0
   20.3961   -2.7402   11.2966 C   0  0  0  0  0  0  0  0  0  0  0  0
   21.8245   -2.7855   11.2402 C   0  0  0  0  0  0  0  0  0  0  0  0
   22.1402   -4.0300   10.5398 C   0  0  0  0  0  0  0  0  0  0  0  0
   22.5499   -5.2418   11.3638 C   0  0  0  0  0  0  0  0  0  0  0  0
   23.3952   -6.0466   10.4002 C   0  0  0  0  0  0  0  0  0  0  0  0
   23.9699   -5.0205    9.4396 C   0  0  0  0  0  0  0  0  0  0  0  0
   23.4128   -3.6708    9.8172 C   0  0  0  0  0  0  0  0  0  0  0  0
  5  6  1  0  0  0
  6  7  2  0  0  0
  6  8  1  0  0  0
  6  1  1  0  0  0
  1  2  1  0  0  0
  1 11  1  0  0  0
 11 12  1  0  0  0
 12 13  1  0  0  0
 13 14  1  0  0  0
 13 17  1  0  0  0
 14 15  1  0  0  0
 15 16  1  0  0  0
 16 17  1  0  0  0
  5  9  1  0  0  0
  8 10  1  0  0  0
  2  3  1  0  0  0
  2  4  1  0  0  0
M  END
> <minimizedAffinity>
-6.05010

$$$$
4U6C_Q06_A_404


 17 17  0  0  0  0  0  0  0  0999 V2000
   21.1005   -6.7375   14.6993 C   0  0  0  0  0  0  0  0  0  0  0  0
   20.7210   -8.0255   15.2823 N   0  0  0  0  0  0  0  0  0  0  0  0
   19.7870   -8.2817   14.9621 H   0  0  0  0  0  0  0  0  0  0  0  0
   20.7233   -7.9521   16.2996 H   0  0  0  0  0  0  0  0  0  0  0  0
   20.0022   -4.2954   13.7748 O   0  0  0  0  0  0  0  0  0  0  0  0
   19.8567   -5.4509   14.8361 P   0  0  0  0  0  0  0  0  0  0  0  0
   18.5635   -6.0622   14.7134 O   0  0  0  0  0  0  0  0  0  0  0  0
   19.9611   -4.9280   16.2891 O   0  0  0  0  0  0  0  0  0  0  0  0
   19.2990   -3.6412   13.9106 H   0  0  0  0  0  0  0  0  0  0  0  0
   19.3081   -4.2241   16.4271 H   0  0  0  0  0  0  0  0  0  0  0  0
   21.0274   -6.4922   13.2394 C   0  0  0  0  0  0  0  0  0  0  0  0
   22.3064   -6.1837   12.6786 C   0  0  0  0  0  0  0  0  0  0  0  0
   22.7446   -7.4162   12.0244 C   0  0  0  0  0  0  0  0  0  0  0  0
   24.1632   -7.4821   11.4780 C   0  0  0  0  0  0  0  0  0  0  0  0
   24.0602   -8.5068   10.3688 C   0  0  0  0  0  0  0  0  0  0  0  0
   22.6164   -8.4307    9.9046 C   0  0  0  0  0  0  0  0  0  0  0  0
   21.9036   -7.4255   10.7741 C   0  0  0  0  0  0  0  0  0  0  0  0
  5  6  1  0  0  0
  6  7  2  0  0  0
  6  8  1  0  0  0
  6  1  1  0  0  0
  1  2  1  0  0  0
  1 11  1  0  0  0
 11 12  1  0  0  0
 12 13  1  0  0  0
 13 14  1  0  0  0
 13 17  1  0  0  0
 14 15  1  0  0  0
 15 16  1  0  0  0
 16 17  1  0  0  0
  5  9  1  0  0  0
  8 10  1  0  0  0
  2  3  1  0  0  0
  2  4  1  0  0  0
M  END
> <minimizedAffinity>
-5.88583

$$$$
4U6C_Q06_A_404


 17 17  0  0  0  0  0  0  0  0999 V2000
   23.0622   -3.8041   10.9267 C   0  0  0  0  0  0  0  0  0  0  0  0
   23.4974   -3.1271    9.7039 N   0  0  0  0  0  0  0  0  0  0  0  0
   23.0054   -3.5226    8.9027 H   0  0  0  0  0  0  0  0  0  0  0  0
   24.5021   -3.2555    9.5833 H   0  0  0  0  0  0  0  0  0  0  0  0
   24.3462   -6.2182   10.1860 O   0  0  0  0  0  0  0  0  0  0  0  0
   23.0516   -5.5965   10.8343 P   0  0  0  0  0  0  0  0  0  0  0  0
   22.8782   -6.1133   12.1624 O   0  0  0  0  0  0  0  0  0  0  0  0
   21.7696   -5.9622   10.0480 O   0  0  0  0  0  0  0  0  0  0  0  0
   24.2678   -7.1849   10.1706 H   0  0  0  0  0  0  0  0  0  0  0  0
   21.7060   -6.9264    9.9636 H   0  0  0  0  0  0  0  0  0  0  0  0
   21.6279   -3.9291   11.2788 C   0  0  0  0  0  0  0  0  0  0  0  0
   20.9453   -2.6737   11.2185 C   0  0  0  0  0  0  0  0  0  0  0  0
   20.1183   -2.6298   12.4240 C   0  0  0  0  0  0  0  0  0  0  0  0
   20.0100   -3.8866   13.2749 C   0  0  0  0  0  0  0  0  0  0  0  0
   18.6716   -3.7252   13.9630 C   0  0  0  0  0  0  0  0  0  0  0  0
   17.8532   -2.8616   13.0194 C   0  0  0  0  0  0  0  0  0  0  0  0
   18.7318   -2.4936   11.8501 C   0  0  0  0  0  0  0  0  0  0  0  0
  5  6  1  0  0  0
  6  7  2  0  0  0
  6  8  1  0  0  0
  6  1  1  0  0  0
  1  2  1  0  0  0
  1 11  1  0  0  0
 11 12  1  0  0  0
 12 13  1  0  0  0
 13 14  1  0  0  0
 13 17  1  0  0  0
 14 15  1  0  0  0
 15 16  1  0  0  0
 16 17  1  0  0  0
  5  9  1  0  0  0
  8 10  1  0  0  0
  2  3  1  0  0  0
  2  4  1  0  0  0
M  END
> <minimizedAffinity>
-5.64137

$$$$
4U6C_Q06_A_404


 17 17  0  0  0  0  0  0  0  0999 V2000
   21.9577   -4.2754   10.2862 C   0  0  0  0  0  0  0  0  0  0  0  0
   23.0155   -4.2520    9.2744 N   0  0  0  0  0  0  0  0  0  0  0  0
   23.8082   -3.7135    9.6237 H   0  0  0  0  0  0  0  0  0  0  0  0
   22.6605   -3.8200    8.4213 H   0  0  0  0  0  0  0  0  0  0  0  0
   21.2714   -1.5504    9.9277 O   0  0  0  0  0  0  0  0  0  0  0  0
   21.5541   -2.6760   10.9936 P   0  0  0  0  0  0  0  0  0  0  0  0
   20.4086   -2.8376   11.8438 O   0  0  0  0  0  0  0  0  0  0  0  0
   22.7432   -2.3212   11.9185 O   0  0  0  0  0  0  0  0  0  0  0  0
   21.0617   -0.7198   10.3826 H   0  0  0  0  0  0  0  0  0  0  0  0
   22.5835   -1.4596   12.3343 H   0  0  0  0  0  0  0  0  0  0  0  0
   22.2250   -4.6960   11.6820 C   0  0  0  0  0  0  0  0  0  0  0  0
   22.2921   -6.1186   11.8142 C   0  0  0  0  0  0  0  0  0  0  0  0
   21.1890   -6.4720   12.7072 C   0  0  0  0  0  0  0  0  0  0  0  0
   20.6028   -5.3879   13.5996 C   0  0  0  0  0  0  0  0  0  0  0  0
   20.0349   -6.1680   14.7656 C   0  0  0  0  0  0  0  0  0  0  0  0
   20.8783   -7.4290   14.8349 C   0  0  0  0  0  0  0  0  0  0  0  0
   21.8640   -7.3891   13.6941 C   0  0  0  0  0  0  0  0  0  0  0  0
  5  6  1  0  0  0
  6  7  2  0  0  0
  6  8  1  0  0  0
  6  1  1  0  0  0
  1  2  1  0  0  0
  1 11  1  0  0  0
 11 12  1  0  0  0
 12 13  1  0  0  0
 13 14  1  0  0  0
 13 17  1  0  0  0
 14 15  1  0  0  0
 15 16  1  0  0  0
 16 17  1  0  0  0
  5  9  1  0  0  0
  8 10  1  0  0  0
  2  3  1  0  0  0
  2  4  1  0  0  0
M  END
> <minimizedAffinity>
-5.38829

$$$$
