4LOY_6XS_H_304


 41 44  0  0  0  0  0  0  0  0999 V2000
   13.8598  -14.9657   14.9009 C   0  0  0  0  0  0  0  0  0  0  0  0
   12.9682  -13.7603   14.6069 C   0  0  0  0  0  0  0  0  0  0  0  0
   12.8987  -13.3499   13.4415 O   0  0  0  0  0  0  0  0  0  0  0  0
   12.2691  -13.1504   15.5796 N   0  0  0  0  0  0  0  0  0  0  0  0
   12.2790  -13.5541   17.0011 C   0  0  0  0  0  0  0  0  0  0  0  0
   10.8196  -13.8179   17.3728 C   0  0  0  0  0  0  0  0  0  0  0  0
   10.0453  -12.5799   17.1752 N   0  0  0  0  0  0  0  0  0  0  0  0
    8.6717  -12.7667   17.6683 C   0  0  0  0  0  0  0  0  0  0  0  0
   10.0233  -12.2186   15.7446 C   0  0  0  0  0  0  0  0  0  0  0  0
   11.4558  -11.9546   15.2643 C   0  0  0  0  0  0  0  0  0  0  0  0
   13.7716  -15.8510   13.7335 N   0  0  0  0  0  0  0  0  0  0  0  0
   14.6875  -16.2892   13.6357 H   0  0  0  0  0  0  0  0  0  0  0  0
   12.7231  -17.0036   13.6574 S   0  0  0  0  0  0  0  0  0  0  0  0
   13.0009  -17.7739   12.4218 O   0  0  0  0  0  0  0  0  0  0  0  0
   13.0096  -17.8694   14.8281 O   0  0  0  0  0  0  0  0  0  0  0  0
   11.1598  -16.5076   13.6870 C   0  0  0  0  0  0  0  0  0  0  0  0
   10.4452  -15.9864   12.5733 C   0  0  0  0  0  0  0  0  0  0  0  0
   11.1953  -15.8271   10.9586 Cl  0  0  0  0  0  0  0  0  0  0  0  0
   10.4542  -16.5782   14.9068 C   0  0  0  0  0  0  0  0  0  0  0  0
    9.1160  -16.1541   15.0031 C   0  0  0  0  0  0  0  0  0  0  0  0
    8.4671  -16.1817   16.1848 F   0  0  0  0  0  0  0  0  0  0  0  0
    8.4357  -15.6543   13.8789 C   0  0  0  0  0  0  0  0  0  0  0  0
    9.1036  -15.5657   12.6538 C   0  0  0  0  0  0  0  0  0  0  0  0
    8.4501  -15.0473   11.5497 N   0  0  0  0  0  0  0  0  0  0  0  0
    8.4327  -13.5717   11.4614 C   0  0  0  0  0  0  0  0  0  0  0  0
    7.6362  -13.0466   10.2532 C   0  0  0  0  0  0  0  0  0  0  0  0
    7.7278  -13.9639    9.0349 C   0  0  0  0  0  0  0  0  0  0  0  0
    7.2143  -15.3595    9.4030 C   0  0  0  0  0  0  0  0  0  0  0  0
    7.9089  -15.9127   10.6440 C   0  0  0  0  0  0  0  0  0  0  0  0
    7.9566  -17.1331   10.7590 O   0  0  0  0  0  0  0  0  0  0  0  0
   15.3640  -14.6538   15.2503 C   0  0  0  0  0  0  0  0  0  0  0  0
   16.0276  -12.3582   14.5091 C   0  0  0  0  0  0  0  0  0  0  0  0
   15.8181  -11.8506   15.6095 O   0  0  0  0  0  0  0  0  0  0  0  0
   15.8570  -13.6652   14.2718 N   0  0  0  0  0  0  0  0  0  0  0  0
   16.0786  -13.9935   13.3705 H   0  0  0  0  0  0  0  0  0  0  0  0
   17.2315  -11.6544   12.4137 C   0  0  0  0  0  0  0  0  0  0  0  0
   17.3574  -10.5317   11.5934 C   0  0  0  0  0  0  0  0  0  0  0  0
   16.6197   -9.5129   12.0320 C   0  0  0  0  0  0  0  0  0  0  0  0
   16.4452   -7.9368   11.2619 Cl  0  0  0  0  0  0  0  0  0  0  0  0
   15.7760   -9.8631   13.4738 S   0  0  0  0  0  0  0  0  0  0  0  0
   16.3908  -11.4536   13.4284 C   0  0  0  0  0  0  0  0  0  0  0  0
 36 37  1  0  0  0
 36 41  2  0  0  0
 37 38  2  0  0  0
 38 39  1  0  0  0
 38 40  1  0  0  0
 40 41  1  0  0  0
 41 32  1  0  0  0
 32 33  2  0  0  0
 32 34  1  0  0  0
 34 31  1  0  0  0
 31  1  1  0  0  0
  1  2  1  0  0  0
  1 11  1  0  0  0
  2  3  2  0  0  0
  2  4  1  0  0  0
  4  5  1  0  0  0
  4 10  1  0  0  0
  5  6  1  0  0  0
  6  7  1  0  0  0
  7  8  1  0  0  0
  7  9  1  0  0  0
  9 10  1  0  0  0
 11 13  1  0  0  0
 13 14  2  0  0  0
 13 15  2  0  0  0
 13 16  1  0  0  0
 16 17  1  0  0  0
 16 19  2  0  0  0
 17 18  1  0  0  0
 17 23  2  0  0  0
 19 20  1  0  0  0
 20 21  1  0  0  0
 20 22  2  0  0  0
 22 23  1  0  0  0
 23 24  1  0  0  0
 24 25  1  0  0  0
 24 29  1  0  0  0
 25 26  1  0  0  0
 26 27  1  0  0  0
 27 28  1  0  0  0
 28 29  1  0  0  0
 29 30  2  0  0  0
 34 35  1  0  0  0
 11 12  1  0  0  0
M  END
> <minimizedAffinity>
-10.56286

$$$$
4LOY_6XS_H_304


 41 44  0  0  0  0  0  0  0  0999 V2000
   13.9772  -14.9084   15.3398 C   0  0  0  0  0  0  0  0  0  0  0  0
   13.4257  -16.2275   15.8785 C   0  0  0  0  0  0  0  0  0  0  0  0
   13.0961  -16.2850   17.0699 O   0  0  0  0  0  0  0  0  0  0  0  0
   13.2946  -17.3080   15.0895 N   0  0  0  0  0  0  0  0  0  0  0  0
   13.6572  -17.3518   13.6577 C   0  0  0  0  0  0  0  0  0  0  0  0
   12.3926  -17.7879   12.9174 C   0  0  0  0  0  0  0  0  0  0  0  0
   11.9878  -19.1178   13.4062 N   0  0  0  0  0  0  0  0  0  0  0  0
   10.8625  -19.6228   12.6040 C   0  0  0  0  0  0  0  0  0  0  0  0
   11.5990  -19.0388   14.8276 C   0  0  0  0  0  0  0  0  0  0  0  0
   12.8038  -18.5825   15.6601 C   0  0  0  0  0  0  0  0  0  0  0  0
   13.1465  -13.8400   15.9080 N   0  0  0  0  0  0  0  0  0  0  0  0
   13.7422  -13.3289   16.5593 H   0  0  0  0  0  0  0  0  0  0  0  0
   12.4615  -12.7676   15.0055 S   0  0  0  0  0  0  0  0  0  0  0  0
   12.7054  -11.4445   15.6274 O   0  0  0  0  0  0  0  0  0  0  0  0
   13.1890  -12.8233   13.7132 O   0  0  0  0  0  0  0  0  0  0  0  0
   10.8562  -13.0030   14.7641 C   0  0  0  0  0  0  0  0  0  0  0  0
   10.2860  -13.6713   13.6457 C   0  0  0  0  0  0  0  0  0  0  0  0
   11.2948  -14.3680   12.3448 Cl  0  0  0  0  0  0  0  0  0  0  0  0
    9.9503  -12.4957   15.7195 C   0  0  0  0  0  0  0  0  0  0  0  0
    8.5604  -12.6502   15.5636 C   0  0  0  0  0  0  0  0  0  0  0  0
    7.7028  -12.1196   16.4587 F   0  0  0  0  0  0  0  0  0  0  0  0
    8.0308  -13.3267   14.4509 C   0  0  0  0  0  0  0  0  0  0  0  0
    8.8975  -13.8397   13.4811 C   0  0  0  0  0  0  0  0  0  0  0  0
    8.3827  -14.4810   12.3682 N   0  0  0  0  0  0  0  0  0  0  0  0
    8.1545  -13.6167   11.1907 C   0  0  0  0  0  0  0  0  0  0  0  0
    7.5186  -14.3645   10.0047 C   0  0  0  0  0  0  0  0  0  0  0  0
    7.9694  -15.8210    9.9078 C   0  0  0  0  0  0  0  0  0  0  0  0
    7.6191  -16.5547   11.2062 C   0  0  0  0  0  0  0  0  0  0  0  0
    8.1544  -15.8247   12.4348 C   0  0  0  0  0  0  0  0  0  0  0  0
    8.3680  -16.5007   13.4360 O   0  0  0  0  0  0  0  0  0  0  0  0
   15.5041  -14.6279   15.6074 C   0  0  0  0  0  0  0  0  0  0  0  0
   16.0830  -12.3620   14.7187 C   0  0  0  0  0  0  0  0  0  0  0  0
   15.8235  -11.7884   15.7751 O   0  0  0  0  0  0  0  0  0  0  0  0
   15.9768  -13.6890   14.5718 N   0  0  0  0  0  0  0  0  0  0  0  0
   16.2355  -14.0693   13.7013 H   0  0  0  0  0  0  0  0  0  0  0  0
   17.2422  -11.7870   12.5597 C   0  0  0  0  0  0  0  0  0  0  0  0
   17.3650  -10.7097   11.6802 C   0  0  0  0  0  0  0  0  0  0  0  0
   16.6568   -9.6567   12.0853 C   0  0  0  0  0  0  0  0  0  0  0  0
   16.4885   -8.1186   11.2407 Cl  0  0  0  0  0  0  0  0  0  0  0  0
   15.8462   -9.9182   13.5644 S   0  0  0  0  0  0  0  0  0  0  0  0
   16.4325  -11.5199   13.5843 C   0  0  0  0  0  0  0  0  0  0  0  0
 36 37  1  0  0  0
 36 41  2  0  0  0
 37 38  2  0  0  0
 38 39  1  0  0  0
 38 40  1  0  0  0
 40 41  1  0  0  0
 41 32  1  0  0  0
 32 33  2  0  0  0
 32 34  1  0  0  0
 34 31  1  0  0  0
 31  1  1  0  0  0
  1  2  1  0  0  0
  1 11  1  0  0  0
  2  3  2  0  0  0
  2  4  1  0  0  0
  4  5  1  0  0  0
  4 10  1  0  0  0
  5  6  1  0  0  0
  6  7  1  0  0  0
  7  8  1  0  0  0
  7  9  1  0  0  0
  9 10  1  0  0  0
 11 13  1  0  0  0
 13 14  2  0  0  0
 13 15  2  0  0  0
 13 16  1  0  0  0
 16 17  1  0  0  0
 16 19  2  0  0  0
 17 18  1  0  0  0
 17 23  2  0  0  0
 19 20  1  0  0  0
 20 21  1  0  0  0
 20 22  2  0  0  0
 22 23  1  0  0  0
 23 24  1  0  0  0
 24 25  1  0  0  0
 24 29  1  0  0  0
 25 26  1  0  0  0
 26 27  1  0  0  0
 27 28  1  0  0  0
 28 29  1  0  0  0
 29 30  2  0  0  0
 34 35  1  0  0  0
 11 12  1  0  0  0
M  END
> <minimizedAffinity>
-9.65672

$$$$
4LOY_6XS_H_304


 41 44  0  0  0  0  0  0  0  0999 V2000
   14.3270  -15.1783   14.6489 C   0  0  0  0  0  0  0  0  0  0  0  0
   14.3442  -16.7054   14.6934 C   0  0  0  0  0  0  0  0  0  0  0  0
   14.2436  -17.3266   13.6279 O   0  0  0  0  0  0  0  0  0  0  0  0
   14.4661  -17.3725   15.8541 N   0  0  0  0  0  0  0  0  0  0  0  0
   14.5910  -16.7342   17.1810 C   0  0  0  0  0  0  0  0  0  0  0  0
   15.8869  -17.2742   17.7864 C   0  0  0  0  0  0  0  0  0  0  0  0
   15.7836  -18.7392   17.9067 N   0  0  0  0  0  0  0  0  0  0  0  0
   16.9558  -19.2646   18.6240 C   0  0  0  0  0  0  0  0  0  0  0  0
   15.6944  -19.3528   16.5676 C   0  0  0  0  0  0  0  0  0  0  0  0
   14.4280  -18.8521   15.8617 C   0  0  0  0  0  0  0  0  0  0  0  0
   13.1054  -14.7494   15.3403 N   0  0  0  0  0  0  0  0  0  0  0  0
   13.3086  -14.7979   16.3387 H   0  0  0  0  0  0  0  0  0  0  0  0
   12.4719  -13.3462   15.0888 S   0  0  0  0  0  0  0  0  0  0  0  0
   12.8014  -12.4958   16.2573 O   0  0  0  0  0  0  0  0  0  0  0  0
   13.1768  -12.8076   13.8991 O   0  0  0  0  0  0  0  0  0  0  0  0
   10.8524  -13.3648   14.8291 C   0  0  0  0  0  0  0  0  0  0  0  0
   10.2158  -13.8800   13.6665 C   0  0  0  0  0  0  0  0  0  0  0  0
   11.1444  -14.6054   12.3223 Cl  0  0  0  0  0  0  0  0  0  0  0  0
   10.0061  -12.8160   15.8157 C   0  0  0  0  0  0  0  0  0  0  0  0
    8.6094  -12.7870   15.6473 C   0  0  0  0  0  0  0  0  0  0  0  0
    7.8145  -12.2170   16.5754 F   0  0  0  0  0  0  0  0  0  0  0  0
    8.0119  -13.3157   14.4898 C   0  0  0  0  0  0  0  0  0  0  0  0
    8.8188  -13.8644   13.4884 C   0  0  0  0  0  0  0  0  0  0  0  0
    8.2404  -14.3600   12.3331 N   0  0  0  0  0  0  0  0  0  0  0  0
    8.2244  -13.4285   11.1852 C   0  0  0  0  0  0  0  0  0  0  0  0
    7.5104  -14.0036    9.9484 C   0  0  0  0  0  0  0  0  0  0  0  0
    7.6877  -15.5144    9.8069 C   0  0  0  0  0  0  0  0  0  0  0  0
    7.1548  -16.2140   11.0613 C   0  0  0  0  0  0  0  0  0  0  0  0
    7.7650  -15.6391   12.3364 C   0  0  0  0  0  0  0  0  0  0  0  0
    7.8086  -16.3769   13.3155 O   0  0  0  0  0  0  0  0  0  0  0  0
   15.5892  -14.4475   15.2443 C   0  0  0  0  0  0  0  0  0  0  0  0
   16.1413  -12.1480   14.4277 C   0  0  0  0  0  0  0  0  0  0  0  0
   15.8607  -11.6092   15.4971 O   0  0  0  0  0  0  0  0  0  0  0  0
   16.0582  -13.4717   14.2416 N   0  0  0  0  0  0  0  0  0  0  0  0
   16.3327  -13.8226   13.3637 H   0  0  0  0  0  0  0  0  0  0  0  0
   17.3074  -11.4964   12.2944 C   0  0  0  0  0  0  0  0  0  0  0  0
   17.4258  -10.3912   11.4495 C   0  0  0  0  0  0  0  0  0  0  0  0
   16.7063   -9.3574   11.8830 C   0  0  0  0  0  0  0  0  0  0  0  0
   16.5294   -7.7951   11.0856 Cl  0  0  0  0  0  0  0  0  0  0  0  0
   15.8898   -9.6715   13.3486 S   0  0  0  0  0  0  0  0  0  0  0  0
   16.4897  -11.2681   13.3221 C   0  0  0  0  0  0  0  0  0  0  0  0
 36 37  1  0  0  0
 36 41  2  0  0  0
 37 38  2  0  0  0
 38 39  1  0  0  0
 38 40  1  0  0  0
 40 41  1  0  0  0
 41 32  1  0  0  0
 32 33  2  0  0  0
 32 34  1  0  0  0
 34 31  1  0  0  0
 31  1  1  0  0  0
  1  2  1  0  0  0
  1 11  1  0  0  0
  2  3  2  0  0  0
  2  4  1  0  0  0
  4  5  1  0  0  0
  4 10  1  0  0  0
  5  6  1  0  0  0
  6  7  1  0  0  0
  7  8  1  0  0  0
  7  9  1  0  0  0
  9 10  1  0  0  0
 11 13  1  0  0  0
 13 14  2  0  0  0
 13 15  2  0  0  0
 13 16  1  0  0  0
 16 17  1  0  0  0
 16 19  2  0  0  0
 17 18  1  0  0  0
 17 23  2  0  0  0
 19 20  1  0  0  0
 20 21  1  0  0  0
 20 22  2  0  0  0
 22 23  1  0  0  0
 23 24  1  0  0  0
 24 25  1  0  0  0
 24 29  1  0  0  0
 25 26  1  0  0  0
 26 27  1  0  0  0
 27 28  1  0  0  0
 28 29  1  0  0  0
 29 30  2  0  0  0
 34 35  1  0  0  0
 11 12  1  0  0  0
M  END
> <minimizedAffinity>
-9.62827

$$$$
4LOY_6XS_H_304


 41 44  0  0  0  0  0  0  0  0999 V2000
   13.8036  -15.0673   16.3851 C   0  0  0  0  0  0  0  0  0  0  0  0
   14.2502  -16.2415   17.2546 C   0  0  0  0  0  0  0  0  0  0  0  0
   13.7822  -16.3402   18.3960 O   0  0  0  0  0  0  0  0  0  0  0  0
   15.1286  -17.1541   16.8045 N   0  0  0  0  0  0  0  0  0  0  0  0
   15.7495  -17.1329   15.4638 C   0  0  0  0  0  0  0  0  0  0  0  0
   15.4122  -18.4796   14.8234 C   0  0  0  0  0  0  0  0  0  0  0  0
   15.9750  -19.5580   15.6550 N   0  0  0  0  0  0  0  0  0  0  0  0
   15.7935  -20.8535   14.9814 C   0  0  0  0  0  0  0  0  0  0  0  0
   15.3144  -19.5782   16.9744 C   0  0  0  0  0  0  0  0  0  0  0  0
   15.5753  -18.2492   17.6945 C   0  0  0  0  0  0  0  0  0  0  0  0
   12.3377  -15.1167   16.3294 N   0  0  0  0  0  0  0  0  0  0  0  0
   12.0143  -14.1537   16.4212 H   0  0  0  0  0  0  0  0  0  0  0  0
   11.5847  -15.7174   15.1022 S   0  0  0  0  0  0  0  0  0  0  0  0
   12.5508  -15.7861   13.9802 O   0  0  0  0  0  0  0  0  0  0  0  0
   11.2273  -17.1009   15.5030 O   0  0  0  0  0  0  0  0  0  0  0  0
   10.2404  -14.8908   14.6545 C   0  0  0  0  0  0  0  0  0  0  0  0
    9.5824  -15.0163   13.3999 C   0  0  0  0  0  0  0  0  0  0  0  0
   10.1597  -16.1423   12.1373 Cl  0  0  0  0  0  0  0  0  0  0  0  0
    9.6862  -13.9643   15.5628 C   0  0  0  0  0  0  0  0  0  0  0  0
    8.5433  -13.2121   15.2341 C   0  0  0  0  0  0  0  0  0  0  0  0
    8.0509  -12.2953   16.0915 F   0  0  0  0  0  0  0  0  0  0  0  0
    7.9107  -13.3695   13.9885 C   0  0  0  0  0  0  0  0  0  0  0  0
    8.4336  -14.2755   13.0609 C   0  0  0  0  0  0  0  0  0  0  0  0
    7.8340  -14.4146   11.8216 N   0  0  0  0  0  0  0  0  0  0  0  0
    8.2521  -13.4274   10.8035 C   0  0  0  0  0  0  0  0  0  0  0  0
    7.5063  -13.5840    9.4659 C   0  0  0  0  0  0  0  0  0  0  0  0
    7.1631  -15.0370    9.1415 C   0  0  0  0  0  0  0  0  0  0  0  0
    6.3026  -15.6245   10.2646 C   0  0  0  0  0  0  0  0  0  0  0  0
    6.9477  -15.4351   11.6345 C   0  0  0  0  0  0  0  0  0  0  0  0
    6.6387  -16.2350   12.5118 O   0  0  0  0  0  0  0  0  0  0  0  0
   14.2955  -13.6393   16.8328 C   0  0  0  0  0  0  0  0  0  0  0  0
   15.2939  -11.7235   15.5708 C   0  0  0  0  0  0  0  0  0  0  0  0
   15.0499  -10.9041   16.4548 O   0  0  0  0  0  0  0  0  0  0  0  0
   14.9889  -13.0226   15.6854 N   0  0  0  0  0  0  0  0  0  0  0  0
   15.2487  -13.6148   14.9431 H   0  0  0  0  0  0  0  0  0  0  0  0
   16.7631  -11.7591   13.5274 C   0  0  0  0  0  0  0  0  0  0  0  0
   17.0923  -10.9374   12.4478 C   0  0  0  0  0  0  0  0  0  0  0  0
   16.4363   -9.7788   12.4894 C   0  0  0  0  0  0  0  0  0  0  0  0
   16.5150   -8.4857   11.2938 Cl  0  0  0  0  0  0  0  0  0  0  0  0
   15.4254   -9.6252   13.8561 S   0  0  0  0  0  0  0  0  0  0  0  0
   15.8580  -11.2046   14.3336 C   0  0  0  0  0  0  0  0  0  0  0  0
 36 37  1  0  0  0
 36 41  2  0  0  0
 37 38  2  0  0  0
 38 39  1  0  0  0
 38 40  1  0  0  0
 40 41  1  0  0  0
 41 32  1  0  0  0
 32 33  2  0  0  0
 32 34  1  0  0  0
 34 31  1  0  0  0
 31  1  1  0  0  0
  1  2  1  0  0  0
  1 11  1  0  0  0
  2  3  2  0  0  0
  2  4  1  0  0  0
  4  5  1  0  0  0
  4 10  1  0  0  0
  5  6  1  0  0  0
  6  7  1  0  0  0
  7  8  1  0  0  0
  7  9  1  0  0  0
  9 10  1  0  0  0
 11 13  1  0  0  0
 13 14  2  0  0  0
 13 15  2  0  0  0
 13 16  1  0  0  0
 16 17  1  0  0  0
 16 19  2  0  0  0
 17 18  1  0  0  0
 17 23  2  0  0  0
 19 20  1  0  0  0
 20 21  1  0  0  0
 20 22  2  0  0  0
 22 23  1  0  0  0
 23 24  1  0  0  0
 24 25  1  0  0  0
 24 29  1  0  0  0
 25 26  1  0  0  0
 26 27  1  0  0  0
 27 28  1  0  0  0
 28 29  1  0  0  0
 29 30  2  0  0  0
 34 35  1  0  0  0
 11 12  1  0  0  0
M  END
> <minimizedAffinity>
-9.01109

$$$$
4LOY_6XS_H_304


 41 44  0  0  0  0  0  0  0  0999 V2000
   13.4175  -15.0642   15.5026 C   0  0  0  0  0  0  0  0  0  0  0  0
   13.9725  -15.7375   16.7567 C   0  0  0  0  0  0  0  0  0  0  0  0
   13.3496  -15.6094   17.8183 O   0  0  0  0  0  0  0  0  0  0  0  0
   15.1081  -16.4560   16.7236 N   0  0  0  0  0  0  0  0  0  0  0  0
   15.9305  -16.6724   15.5151 C   0  0  0  0  0  0  0  0  0  0  0  0
   16.0418  -18.1882   15.3488 C   0  0  0  0  0  0  0  0  0  0  0  0
   16.6916  -18.7532   16.5446 N   0  0  0  0  0  0  0  0  0  0  0  0
   16.9453  -20.1885   16.3431 C   0  0  0  0  0  0  0  0  0  0  0  0
   15.8348  -18.5536   17.7293 C   0  0  0  0  0  0  0  0  0  0  0  0
   15.6408  -17.0512   17.9697 C   0  0  0  0  0  0  0  0  0  0  0  0
   12.1531  -15.7388   15.1855 N   0  0  0  0  0  0  0  0  0  0  0  0
   11.5529  -15.0357   14.7544 H   0  0  0  0  0  0  0  0  0  0  0  0
   12.1033  -16.9893   14.2541 S   0  0  0  0  0  0  0  0  0  0  0  0
   13.2179  -16.8642   13.2851 O   0  0  0  0  0  0  0  0  0  0  0  0
   12.3764  -18.1473   15.1411 O   0  0  0  0  0  0  0  0  0  0  0  0
   10.6786  -17.1993   13.4687 C   0  0  0  0  0  0  0  0  0  0  0  0
   10.0628  -16.2390   12.6195 C   0  0  0  0  0  0  0  0  0  0  0  0
   10.8110  -14.6492   12.2905 Cl  0  0  0  0  0  0  0  0  0  0  0  0
    9.9833  -18.4138   13.6487 C   0  0  0  0  0  0  0  0  0  0  0  0
    8.7490  -18.6505   13.0160 C   0  0  0  0  0  0  0  0  0  0  0  0
    8.0709  -19.7956   13.2333 F   0  0  0  0  0  0  0  0  0  0  0  0
    8.1739  -17.6832   12.1733 C   0  0  0  0  0  0  0  0  0  0  0  0
    8.8319  -16.4658   11.9740 C   0  0  0  0  0  0  0  0  0  0  0  0
    8.2579  -15.4971   11.1696 N   0  0  0  0  0  0  0  0  0  0  0  0
    7.2835  -14.6128   11.8437 C   0  0  0  0  0  0  0  0  0  0  0  0
    6.6253  -13.5989   10.8903 C   0  0  0  0  0  0  0  0  0  0  0  0
    7.5633  -13.1296    9.7795 C   0  0  0  0  0  0  0  0  0  0  0  0
    8.0445  -14.3372    8.9691 C   0  0  0  0  0  0  0  0  0  0  0  0
    8.6415  -15.4210    9.8623 C   0  0  0  0  0  0  0  0  0  0  0  0
    9.4621  -16.1758    9.3507 O   0  0  0  0  0  0  0  0  0  0  0  0
   13.2117  -13.5042   15.5797 C   0  0  0  0  0  0  0  0  0  0  0  0
   14.9423  -11.8394   14.8778 C   0  0  0  0  0  0  0  0  0  0  0  0
   15.0084  -11.3136   15.9876 O   0  0  0  0  0  0  0  0  0  0  0  0
   14.1405  -12.8802   14.6177 N   0  0  0  0  0  0  0  0  0  0  0  0
   14.1735  -13.2602   13.7101 H   0  0  0  0  0  0  0  0  0  0  0  0
   16.6959  -11.7455   13.0746 C   0  0  0  0  0  0  0  0  0  0  0  0
   17.2350  -10.8278   12.1712 C   0  0  0  0  0  0  0  0  0  0  0  0
   16.6556   -9.6328   12.2743 C   0  0  0  0  0  0  0  0  0  0  0  0
   16.9950   -8.2139   11.2847 Cl  0  0  0  0  0  0  0  0  0  0  0  0
   15.4631   -9.5648   13.4937 S   0  0  0  0  0  0  0  0  0  0  0  0
   15.7174  -11.2211   13.8124 C   0  0  0  0  0  0  0  0  0  0  0  0
 36 37  1  0  0  0
 36 41  2  0  0  0
 37 38  2  0  0  0
 38 39  1  0  0  0
 38 40  1  0  0  0
 40 41  1  0  0  0
 41 32  1  0  0  0
 32 33  2  0  0  0
 32 34  1  0  0  0
 34 31  1  0  0  0
 31  1  1  0  0  0
  1  2  1  0  0  0
  1 11  1  0  0  0
  2  3  2  0  0  0
  2  4  1  0  0  0
  4  5  1  0  0  0
  4 10  1  0  0  0
  5  6  1  0  0  0
  6  7  1  0  0  0
  7  8  1  0  0  0
  7  9  1  0  0  0
  9 10  1  0  0  0
 11 13  1  0  0  0
 13 14  2  0  0  0
 13 15  2  0  0  0
 13 16  1  0  0  0
 16 17  1  0  0  0
 16 19  2  0  0  0
 17 18  1  0  0  0
 17 23  2  0  0  0
 19 20  1  0  0  0
 20 21  1  0  0  0
 20 22  2  0  0  0
 22 23  1  0  0  0
 23 24  1  0  0  0
 24 25  1  0  0  0
 24 29  1  0  0  0
 25 26  1  0  0  0
 26 27  1  0  0  0
 27 28  1  0  0  0
 28 29  1  0  0  0
 29 30  2  0  0  0
 34 35  1  0  0  0
 11 12  1  0  0  0
M  END
> <minimizedAffinity>
-8.59526

$$$$
4LOY_6XS_H_304


 41 44  0  0  0  0  0  0  0  0999 V2000
   13.9896  -12.9751   16.5099 C   0  0  0  0  0  0  0  0  0  0  0  0
   14.0086  -11.8664   17.5610 C   0  0  0  0  0  0  0  0  0  0  0  0
   14.7969  -10.9246   17.4090 O   0  0  0  0  0  0  0  0  0  0  0  0
   13.1940  -11.8984   18.6298 N   0  0  0  0  0  0  0  0  0  0  0  0
   12.2182  -12.9718   18.9107 C   0  0  0  0  0  0  0  0  0  0  0  0
   10.8599  -12.2816   19.0386 C   0  0  0  0  0  0  0  0  0  0  0  0
   10.9196  -11.3117   20.1463 N   0  0  0  0  0  0  0  0  0  0  0  0
    9.5831  -10.7447   20.3853 C   0  0  0  0  0  0  0  0  0  0  0  0
   11.8752  -10.2338   19.8254 C   0  0  0  0  0  0  0  0  0  0  0  0
   13.2772  -10.8315   19.6525 C   0  0  0  0  0  0  0  0  0  0  0  0
   12.9217  -12.6389   15.5608 N   0  0  0  0  0  0  0  0  0  0  0  0
   13.2969  -11.9111   14.9526 H   0  0  0  0  0  0  0  0  0  0  0  0
   12.2922  -13.7142   14.6220 S   0  0  0  0  0  0  0  0  0  0  0  0
   13.0001  -13.6360   13.3221 O   0  0  0  0  0  0  0  0  0  0  0  0
   12.6096  -15.0184   15.2549 O   0  0  0  0  0  0  0  0  0  0  0  0
   10.6729  -13.5674   14.4052 C   0  0  0  0  0  0  0  0  0  0  0  0
    9.9599  -13.9919   13.2502 C   0  0  0  0  0  0  0  0  0  0  0  0
   10.7787  -14.7761   11.8682 Cl  0  0  0  0  0  0  0  0  0  0  0  0
    9.9097  -12.9594   15.4243 C   0  0  0  0  0  0  0  0  0  0  0  0
    8.5190  -12.7891   15.2937 C   0  0  0  0  0  0  0  0  0  0  0  0
    7.8076  -12.1638   16.2534 F   0  0  0  0  0  0  0  0  0  0  0  0
    7.8438  -13.2311   14.1426 C   0  0  0  0  0  0  0  0  0  0  0  0
    8.5674  -13.8348   13.1097 C   0  0  0  0  0  0  0  0  0  0  0  0
    7.9145  -14.2458   11.9610 N   0  0  0  0  0  0  0  0  0  0  0  0
    7.9548  -13.2885   10.8351 C   0  0  0  0  0  0  0  0  0  0  0  0
    7.1573  -13.7640    9.6070 C   0  0  0  0  0  0  0  0  0  0  0  0
    7.1889  -15.2808    9.4268 C   0  0  0  0  0  0  0  0  0  0  0  0
    6.6269  -15.9589   10.6802 C   0  0  0  0  0  0  0  0  0  0  0  0
    7.3221  -15.4750   11.9495 C   0  0  0  0  0  0  0  0  0  0  0  0
    7.3228  -16.2378   12.9103 O   0  0  0  0  0  0  0  0  0  0  0  0
   15.3443  -13.2424   15.7515 C   0  0  0  0  0  0  0  0  0  0  0  0
   15.9146  -15.6708   15.5604 C   0  0  0  0  0  0  0  0  0  0  0  0
   15.5025  -15.7636   14.4054 O   0  0  0  0  0  0  0  0  0  0  0  0
   15.8916  -14.5205   16.2459 N   0  0  0  0  0  0  0  0  0  0  0  0
   16.2711  -14.5282   17.1543 H   0  0  0  0  0  0  0  0  0  0  0  0
   16.9718  -17.0641   17.3705 C   0  0  0  0  0  0  0  0  0  0  0  0
   17.2786  -18.4007   17.6324 C   0  0  0  0  0  0  0  0  0  0  0  0
   16.9003  -19.1999   16.6360 C   0  0  0  0  0  0  0  0  0  0  0  0
   17.0463  -20.9560   16.5873 Cl  0  0  0  0  0  0  0  0  0  0  0  0
   16.1936  -18.3596   15.3292 S   0  0  0  0  0  0  0  0  0  0  0  0
   16.3562  -16.9016   16.1995 C   0  0  0  0  0  0  0  0  0  0  0  0
 36 37  1  0  0  0
 36 41  2  0  0  0
 37 38  2  0  0  0
 38 39  1  0  0  0
 38 40  1  0  0  0
 40 41  1  0  0  0
 41 32  1  0  0  0
 32 33  2  0  0  0
 32 34  1  0  0  0
 34 31  1  0  0  0
 31  1  1  0  0  0
  1  2  1  0  0  0
  1 11  1  0  0  0
  2  3  2  0  0  0
  2  4  1  0  0  0
  4  5  1  0  0  0
  4 10  1  0  0  0
  5  6  1  0  0  0
  6  7  1  0  0  0
  7  8  1  0  0  0
  7  9  1  0  0  0
  9 10  1  0  0  0
 11 13  1  0  0  0
 13 14  2  0  0  0
 13 15  2  0  0  0
 13 16  1  0  0  0
 16 17  1  0  0  0
 16 19  2  0  0  0
 17 18  1  0  0  0
 17 23  2  0  0  0
 19 20  1  0  0  0
 20 21  1  0  0  0
 20 22  2  0  0  0
 22 23  1  0  0  0
 23 24  1  0  0  0
 24 25  1  0  0  0
 24 29  1  0  0  0
 25 26  1  0  0  0
 26 27  1  0  0  0
 27 28  1  0  0  0
 28 29  1  0  0  0
 29 30  2  0  0  0
 34 35  1  0  0  0
 11 12  1  0  0  0
M  END
> <minimizedAffinity>
-8.58654

$$$$
4LOY_6XS_H_304


 41 44  0  0  0  0  0  0  0  0999 V2000
   14.0674  -14.8793   14.9689 C   0  0  0  0  0  0  0  0  0  0  0  0
   13.2979  -13.5796   14.7384 C   0  0  0  0  0  0  0  0  0  0  0  0
   13.4586  -12.9827   13.6664 O   0  0  0  0  0  0  0  0  0  0  0  0
   12.4621  -13.0844   15.6675 N   0  0  0  0  0  0  0  0  0  0  0  0
   12.1969  -13.7117   16.9789 C   0  0  0  0  0  0  0  0  0  0  0  0
   10.6841  -13.9232   17.0449 C   0  0  0  0  0  0  0  0  0  0  0  0
   10.0139  -12.6157   16.9336 N   0  0  0  0  0  0  0  0  0  0  0  0
    8.5669  -12.7773   17.1453 C   0  0  0  0  0  0  0  0  0  0  0  0
   10.2669  -12.0278   15.6039 C   0  0  0  0  0  0  0  0  0  0  0  0
   11.7730  -11.7966   15.4280 C   0  0  0  0  0  0  0  0  0  0  0  0
   13.8746  -15.7026   13.7691 N   0  0  0  0  0  0  0  0  0  0  0  0
   14.8001  -16.0331   13.4961 H   0  0  0  0  0  0  0  0  0  0  0  0
   12.9455  -16.9558   13.7766 S   0  0  0  0  0  0  0  0  0  0  0  0
   13.3066  -17.7817   12.6000 O   0  0  0  0  0  0  0  0  0  0  0  0
   13.3078  -17.7025   15.0069 O   0  0  0  0  0  0  0  0  0  0  0  0
   11.3407  -16.6160   13.7705 C   0  0  0  0  0  0  0  0  0  0  0  0
   10.6265  -16.0579   12.6747 C   0  0  0  0  0  0  0  0  0  0  0  0
   11.4259  -15.6695   11.1237 Cl  0  0  0  0  0  0  0  0  0  0  0  0
   10.5937  -16.8732   14.9394 C   0  0  0  0  0  0  0  0  0  0  0  0
    9.2170  -16.5899   15.0047 C   0  0  0  0  0  0  0  0  0  0  0  0
    8.5236  -16.7955   16.1428 F   0  0  0  0  0  0  0  0  0  0  0  0
    8.5394  -16.0487   13.8982 C   0  0  0  0  0  0  0  0  0  0  0  0
    9.2474  -15.7765   12.7236 C   0  0  0  0  0  0  0  0  0  0  0  0
    8.5937  -15.2164   11.6403 N   0  0  0  0  0  0  0  0  0  0  0  0
    8.5302  -13.7393   11.6358 C   0  0  0  0  0  0  0  0  0  0  0  0
    7.7349  -13.1709   10.4465 C   0  0  0  0  0  0  0  0  0  0  0  0
    7.8737  -14.0135    9.1796 C   0  0  0  0  0  0  0  0  0  0  0  0
    7.4000  -15.4433    9.4592 C   0  0  0  0  0  0  0  0  0  0  0  0
    8.0939  -16.0448   10.6780 C   0  0  0  0  0  0  0  0  0  0  0  0
    8.1791  -17.2678   10.7241 O   0  0  0  0  0  0  0  0  0  0  0  0
   15.5999  -14.7342   15.3038 C   0  0  0  0  0  0  0  0  0  0  0  0
   16.4360  -16.5633   16.7919 C   0  0  0  0  0  0  0  0  0  0  0  0
   16.8905  -17.2274   15.8620 O   0  0  0  0  0  0  0  0  0  0  0  0
   15.8376  -15.3791   16.6096 N   0  0  0  0  0  0  0  0  0  0  0  0
   15.5311  -14.8993   17.4128 H   0  0  0  0  0  0  0  0  0  0  0  0
   17.5620  -17.4341   18.8678 C   0  0  0  0  0  0  0  0  0  0  0  0
   17.2247  -18.0547   20.0721 C   0  0  0  0  0  0  0  0  0  0  0  0
   15.9112  -18.2499   20.1776 C   0  0  0  0  0  0  0  0  0  0  0  0
   15.0620  -18.9459   21.5567 Cl  0  0  0  0  0  0  0  0  0  0  0  0
   15.0395  -17.7242   18.8075 S   0  0  0  0  0  0  0  0  0  0  0  0
   16.4948  -17.1639   18.1163 C   0  0  0  0  0  0  0  0  0  0  0  0
 36 37  1  0  0  0
 36 41  2  0  0  0
 37 38  2  0  0  0
 38 39  1  0  0  0
 38 40  1  0  0  0
 40 41  1  0  0  0
 41 32  1  0  0  0
 32 33  2  0  0  0
 32 34  1  0  0  0
 34 31  1  0  0  0
 31  1  1  0  0  0
  1  2  1  0  0  0
  1 11  1  0  0  0
  2  3  2  0  0  0
  2  4  1  0  0  0
  4  5  1  0  0  0
  4 10  1  0  0  0
  5  6  1  0  0  0
  6  7  1  0  0  0
  7  8  1  0  0  0
  7  9  1  0  0  0
  9 10  1  0  0  0
 11 13  1  0  0  0
 13 14  2  0  0  0
 13 15  2  0  0  0
 13 16  1  0  0  0
 16 17  1  0  0  0
 16 19  2  0  0  0
 17 18  1  0  0  0
 17 23  2  0  0  0
 19 20  1  0  0  0
 20 21  1  0  0  0
 20 22  2  0  0  0
 22 23  1  0  0  0
 23 24  1  0  0  0
 24 25  1  0  0  0
 24 29  1  0  0  0
 25 26  1  0  0  0
 26 27  1  0  0  0
 27 28  1  0  0  0
 28 29  1  0  0  0
 29 30  2  0  0  0
 34 35  1  0  0  0
 11 12  1  0  0  0
M  END
> <minimizedAffinity>
-8.57385

$$$$
4LOY_6XS_H_304


 41 44  0  0  0  0  0  0  0  0999 V2000
   13.8672  -15.3768   15.0727 C   0  0  0  0  0  0  0  0  0  0  0  0
   14.3442  -15.9083   16.4233 C   0  0  0  0  0  0  0  0  0  0  0  0
   13.6775  -15.6394   17.4305 O   0  0  0  0  0  0  0  0  0  0  0  0
   15.4586  -16.6525   16.5309 N   0  0  0  0  0  0  0  0  0  0  0  0
   16.3286  -17.0314   15.3982 C   0  0  0  0  0  0  0  0  0  0  0  0
   16.4026  -18.5584   15.4181 C   0  0  0  0  0  0  0  0  0  0  0  0
   16.9801  -18.9917   16.7026 N   0  0  0  0  0  0  0  0  0  0  0  0
   17.2004  -20.4464   16.6850 C   0  0  0  0  0  0  0  0  0  0  0  0
   16.0763  -18.6315   17.8121 C   0  0  0  0  0  0  0  0  0  0  0  0
   15.9159  -17.1069   17.8633 C   0  0  0  0  0  0  0  0  0  0  0  0
   12.5967  -16.0502   14.7787 N   0  0  0  0  0  0  0  0  0  0  0  0
   11.9897  -15.3469   14.3576 H   0  0  0  0  0  0  0  0  0  0  0  0
   12.5290  -17.3015   13.8494 S   0  0  0  0  0  0  0  0  0  0  0  0
   13.6396  -17.1893   12.8743 O   0  0  0  0  0  0  0  0  0  0  0  0
   12.7948  -18.4610   14.7366 O   0  0  0  0  0  0  0  0  0  0  0  0
   11.0980  -17.4978   13.0718 C   0  0  0  0  0  0  0  0  0  0  0  0
   10.4042  -16.4777   12.3645 C   0  0  0  0  0  0  0  0  0  0  0  0
   11.0489  -14.8162   12.2263 Cl  0  0  0  0  0  0  0  0  0  0  0  0
   10.4801  -18.7657   13.1091 C   0  0  0  0  0  0  0  0  0  0  0  0
    9.2449  -18.9961   12.4758 C   0  0  0  0  0  0  0  0  0  0  0  0
    8.6411  -20.1989   12.5586 F   0  0  0  0  0  0  0  0  0  0  0  0
    8.5913  -17.9674   11.7750 C   0  0  0  0  0  0  0  0  0  0  0  0
    9.1714  -16.6964   11.7197 C   0  0  0  0  0  0  0  0  0  0  0  0
    8.5200  -15.6711   11.0570 N   0  0  0  0  0  0  0  0  0  0  0  0
    7.6206  -14.8491   11.8944 C   0  0  0  0  0  0  0  0  0  0  0  0
    6.8703  -13.7675   11.0961 C   0  0  0  0  0  0  0  0  0  0  0  0
    7.6911  -13.2059    9.9363 C   0  0  0  0  0  0  0  0  0  0  0  0
    8.0854  -14.3428    8.9882 C   0  0  0  0  0  0  0  0  0  0  0  0
    8.7686  -15.4896    9.7276 C   0  0  0  0  0  0  0  0  0  0  0  0
    9.5317  -16.1964    9.0771 O   0  0  0  0  0  0  0  0  0  0  0  0
   13.7093  -13.8139   14.9529 C   0  0  0  0  0  0  0  0  0  0  0  0
   12.8872  -12.3590   16.8148 C   0  0  0  0  0  0  0  0  0  0  0  0
   13.8831  -11.6376   16.8041 O   0  0  0  0  0  0  0  0  0  0  0  0
   12.7269  -13.3825   15.9660 N   0  0  0  0  0  0  0  0  0  0  0  0
   11.8844  -13.8887   16.0227 H   0  0  0  0  0  0  0  0  0  0  0  0
   12.0840  -11.5420   19.0560 C   0  0  0  0  0  0  0  0  0  0  0  0
   10.9106  -11.5129   19.8121 C   0  0  0  0  0  0  0  0  0  0  0  0
    9.8923  -12.0805   19.1677 C   0  0  0  0  0  0  0  0  0  0  0  0
    8.2283  -12.2022   19.7369 Cl  0  0  0  0  0  0  0  0  0  0  0  0
   10.3254  -12.7038   17.6388 S   0  0  0  0  0  0  0  0  0  0  0  0
   11.9085  -12.1095   17.8628 C   0  0  0  0  0  0  0  0  0  0  0  0
 36 37  1  0  0  0
 36 41  2  0  0  0
 37 38  2  0  0  0
 38 39  1  0  0  0
 38 40  1  0  0  0
 40 41  1  0  0  0
 41 32  1  0  0  0
 32 33  2  0  0  0
 32 34  1  0  0  0
 34 31  1  0  0  0
 31  1  1  0  0  0
  1  2  1  0  0  0
  1 11  1  0  0  0
  2  3  2  0  0  0
  2  4  1  0  0  0
  4  5  1  0  0  0
  4 10  1  0  0  0
  5  6  1  0  0  0
  6  7  1  0  0  0
  7  8  1  0  0  0
  7  9  1  0  0  0
  9 10  1  0  0  0
 11 13  1  0  0  0
 13 14  2  0  0  0
 13 15  2  0  0  0
 13 16  1  0  0  0
 16 17  1  0  0  0
 16 19  2  0  0  0
 17 18  1  0  0  0
 17 23  2  0  0  0
 19 20  1  0  0  0
 20 21  1  0  0  0
 20 22  2  0  0  0
 22 23  1  0  0  0
 23 24  1  0  0  0
 24 25  1  0  0  0
 24 29  1  0  0  0
 25 26  1  0  0  0
 26 27  1  0  0  0
 27 28  1  0  0  0
 28 29  1  0  0  0
 29 30  2  0  0  0
 34 35  1  0  0  0
 11 12  1  0  0  0
M  END
> <minimizedAffinity>
-8.51054

$$$$
4LOY_6XS_H_304


 41 44  0  0  0  0  0  0  0  0999 V2000
   14.4943  -13.5640   16.5839 C   0  0  0  0  0  0  0  0  0  0  0  0
   14.6467  -12.0830   16.2406 C   0  0  0  0  0  0  0  0  0  0  0  0
   14.5822  -11.2562   17.1591 O   0  0  0  0  0  0  0  0  0  0  0  0
   14.8477  -11.6725   14.9765 N   0  0  0  0  0  0  0  0  0  0  0  0
   14.9395  -12.5699   13.8061 C   0  0  0  0  0  0  0  0  0  0  0  0
   16.2886  -12.2703   13.1521 C   0  0  0  0  0  0  0  0  0  0  0  0
   16.3169  -10.8551   12.7426 N   0  0  0  0  0  0  0  0  0  0  0  0
   17.5436  -10.5817   11.9775 C   0  0  0  0  0  0  0  0  0  0  0  0
   16.2582   -9.9822   13.9311 C   0  0  0  0  0  0  0  0  0  0  0  0
   14.9403  -10.2259   14.6769 C   0  0  0  0  0  0  0  0  0  0  0  0
   13.2973  -14.0395   15.8799 N   0  0  0  0  0  0  0  0  0  0  0  0
   13.5762  -14.8814   15.3760 H   0  0  0  0  0  0  0  0  0  0  0  0
   11.9864  -14.3998   16.6450 S   0  0  0  0  0  0  0  0  0  0  0  0
   12.0599  -15.8379   16.9964 O   0  0  0  0  0  0  0  0  0  0  0  0
   12.0345  -13.6046   17.8970 O   0  0  0  0  0  0  0  0  0  0  0  0
   10.6048  -14.0787   15.8211 C   0  0  0  0  0  0  0  0  0  0  0  0
   10.2390  -14.6631   14.5772 C   0  0  0  0  0  0  0  0  0  0  0  0
   11.2742  -15.8676   13.7570 Cl  0  0  0  0  0  0  0  0  0  0  0  0
    9.7017  -13.1390   16.3615 C   0  0  0  0  0  0  0  0  0  0  0  0
    8.5066  -12.8073   15.6969 C   0  0  0  0  0  0  0  0  0  0  0  0
    7.6745  -11.8728   16.1994 F   0  0  0  0  0  0  0  0  0  0  0  0
    8.1703  -13.4129   14.4736 C   0  0  0  0  0  0  0  0  0  0  0  0
    9.0426  -14.3461   13.9052 C   0  0  0  0  0  0  0  0  0  0  0  0
    8.7327  -14.9246   12.6869 N   0  0  0  0  0  0  0  0  0  0  0  0
    9.2282  -14.1978   11.4987 C   0  0  0  0  0  0  0  0  0  0  0  0
    8.7988  -14.8458   10.1698 C   0  0  0  0  0  0  0  0  0  0  0  0
    8.7095  -16.3688   10.2510 C   0  0  0  0  0  0  0  0  0  0  0  0
    7.7142  -16.7674   11.3452 C   0  0  0  0  0  0  0  0  0  0  0  0
    8.0352  -16.0974   12.6782 C   0  0  0  0  0  0  0  0  0  0  0  0
    7.6518  -16.6667   13.6950 O   0  0  0  0  0  0  0  0  0  0  0  0
   15.7308  -14.4863   16.2645 C   0  0  0  0  0  0  0  0  0  0  0  0
   14.9343  -16.5803   15.1509 C   0  0  0  0  0  0  0  0  0  0  0  0
   15.0414  -16.1182   14.0162 O   0  0  0  0  0  0  0  0  0  0  0  0
   15.2569  -15.8838   16.2483 N   0  0  0  0  0  0  0  0  0  0  0  0
   15.1708  -16.3417   17.1156 H   0  0  0  0  0  0  0  0  0  0  0  0
   13.6961  -18.6185   14.3458 C   0  0  0  0  0  0  0  0  0  0  0  0
   13.2410  -19.8425   14.8397 C   0  0  0  0  0  0  0  0  0  0  0  0
   13.5503  -20.0034   16.1253 C   0  0  0  0  0  0  0  0  0  0  0  0
   13.2158  -21.4237   17.1145 Cl  0  0  0  0  0  0  0  0  0  0  0  0
   14.3701  -18.6640   16.7942 S   0  0  0  0  0  0  0  0  0  0  0  0
   14.3491  -17.9079   15.2653 C   0  0  0  0  0  0  0  0  0  0  0  0
 36 37  1  0  0  0
 36 41  2  0  0  0
 37 38  2  0  0  0
 38 39  1  0  0  0
 38 40  1  0  0  0
 40 41  1  0  0  0
 41 32  1  0  0  0
 32 33  2  0  0  0
 32 34  1  0  0  0
 34 31  1  0  0  0
 31  1  1  0  0  0
  1  2  1  0  0  0
  1 11  1  0  0  0
  2  3  2  0  0  0
  2  4  1  0  0  0
  4  5  1  0  0  0
  4 10  1  0  0  0
  5  6  1  0  0  0
  6  7  1  0  0  0
  7  8  1  0  0  0
  7  9  1  0  0  0
  9 10  1  0  0  0
 11 13  1  0  0  0
 13 14  2  0  0  0
 13 15  2  0  0  0
 13 16  1  0  0  0
 16 17  1  0  0  0
 16 19  2  0  0  0
 17 18  1  0  0  0
 17 23  2  0  0  0
 19 20  1  0  0  0
 20 21  1  0  0  0
 20 22  2  0  0  0
 22 23  1  0  0  0
 23 24  1  0  0  0
 24 25  1  0  0  0
 24 29  1  0  0  0
 25 26  1  0  0  0
 26 27  1  0  0  0
 27 28  1  0  0  0
 28 29  1  0  0  0
 29 30  2  0  0  0
 34 35  1  0  0  0
 11 12  1  0  0  0
M  END
> <minimizedAffinity>
-8.35531

$$$$
4LOY_6XS_H_304


 41 44  0  0  0  0  0  0  0  0999 V2000
    9.9964  -14.5281   16.2575 C   0  0  0  0  0  0  0  0  0  0  0  0
    9.5701  -13.6778   17.4532 C   0  0  0  0  0  0  0  0  0  0  0  0
    8.5920  -14.0439   18.1170 O   0  0  0  0  0  0  0  0  0  0  0  0
   10.2321  -12.5571   17.7892 N   0  0  0  0  0  0  0  0  0  0  0  0
   11.4083  -12.0278   17.0682 C   0  0  0  0  0  0  0  0  0  0  0  0
   12.5206  -11.9078   18.1103 C   0  0  0  0  0  0  0  0  0  0  0  0
   12.0838  -10.9824   19.1705 N   0  0  0  0  0  0  0  0  0  0  0  0
   13.1934  -10.7346   20.1045 C   0  0  0  0  0  0  0  0  0  0  0  0
   10.9308  -11.5501   19.8957 C   0  0  0  0  0  0  0  0  0  0  0  0
    9.7583  -11.7330   18.9238 C   0  0  0  0  0  0  0  0  0  0  0  0
   11.2517  -15.1883   16.6350 N   0  0  0  0  0  0  0  0  0  0  0  0
   10.9932  -15.9852   17.2168 H   0  0  0  0  0  0  0  0  0  0  0  0
   12.2457  -15.7319   15.5625 S   0  0  0  0  0  0  0  0  0  0  0  0
   12.2735  -17.2082   15.6925 O   0  0  0  0  0  0  0  0  0  0  0  0
   11.6367  -15.3844   14.2546 O   0  0  0  0  0  0  0  0  0  0  0  0
   13.7629  -15.1167   15.6637 C   0  0  0  0  0  0  0  0  0  0  0  0
   14.1857  -13.8835   15.0953 C   0  0  0  0  0  0  0  0  0  0  0  0
   13.0642  -12.8242   14.1924 Cl  0  0  0  0  0  0  0  0  0  0  0  0
   14.7467  -15.8606   16.3489 C   0  0  0  0  0  0  0  0  0  0  0  0
   16.0705  -15.3964   16.4583 C   0  0  0  0  0  0  0  0  0  0  0  0
   17.0129  -16.1384   17.0742 F   0  0  0  0  0  0  0  0  0  0  0  0
   16.4518  -14.1666   15.8939 C   0  0  0  0  0  0  0  0  0  0  0  0
   15.5052  -13.4033   15.2038 C   0  0  0  0  0  0  0  0  0  0  0  0
   15.8799  -12.2059   14.6202 N   0  0  0  0  0  0  0  0  0  0  0  0
   16.5101  -12.3228   13.2880 C   0  0  0  0  0  0  0  0  0  0  0  0
   16.9688  -10.9698   12.7142 C   0  0  0  0  0  0  0  0  0  0  0  0
   16.0580   -9.8116   13.1183 C   0  0  0  0  0  0  0  0  0  0  0  0
   16.0005   -9.7123   14.6460 C   0  0  0  0  0  0  0  0  0  0  0  0
   15.6252  -11.0442   15.2893 C   0  0  0  0  0  0  0  0  0  0  0  0
   15.0914  -10.9996   16.3929 O   0  0  0  0  0  0  0  0  0  0  0  0
    8.9467  -15.5827   15.7402 C   0  0  0  0  0  0  0  0  0  0  0  0
    8.3713  -14.5938   13.5152 C   0  0  0  0  0  0  0  0  0  0  0  0
    7.7889  -13.6258   14.0013 O   0  0  0  0  0  0  0  0  0  0  0  0
    8.9541  -15.5380   14.2652 N   0  0  0  0  0  0  0  0  0  0  0  0
    9.4264  -16.2618   13.7937 H   0  0  0  0  0  0  0  0  0  0  0  0
    8.8005  -15.7071   11.2990 C   0  0  0  0  0  0  0  0  0  0  0  0
    8.6082  -15.4619    9.9380 C   0  0  0  0  0  0  0  0  0  0  0  0
    8.0128  -14.2894    9.7256 C   0  0  0  0  0  0  0  0  0  0  0  0
    7.5349  -13.6236    8.1648 Cl  0  0  0  0  0  0  0  0  0  0  0  0
    7.6977  -13.4233   11.1622 S   0  0  0  0  0  0  0  0  0  0  0  0
    8.3275  -14.7253   12.0664 C   0  0  0  0  0  0  0  0  0  0  0  0
 36 37  1  0  0  0
 36 41  2  0  0  0
 37 38  2  0  0  0
 38 39  1  0  0  0
 38 40  1  0  0  0
 40 41  1  0  0  0
 41 32  1  0  0  0
 32 33  2  0  0  0
 32 34  1  0  0  0
 34 31  1  0  0  0
 31  1  1  0  0  0
  1  2  1  0  0  0
  1 11  1  0  0  0
  2  3  2  0  0  0
  2  4  1  0  0  0
  4  5  1  0  0  0
  4 10  1  0  0  0
  5  6  1  0  0  0
  6  7  1  0  0  0
  7  8  1  0  0  0
  7  9  1  0  0  0
  9 10  1  0  0  0
 11 13  1  0  0  0
 13 14  2  0  0  0
 13 15  2  0  0  0
 13 16  1  0  0  0
 16 17  1  0  0  0
 16 19  2  0  0  0
 17 18  1  0  0  0
 17 23  2  0  0  0
 19 20  1  0  0  0
 20 21  1  0  0  0
 20 22  2  0  0  0
 22 23  1  0  0  0
 23 24  1  0  0  0
 24 25  1  0  0  0
 24 29  1  0  0  0
 25 26  1  0  0  0
 26 27  1  0  0  0
 27 28  1  0  0  0
 28 29  1  0  0  0
 29 30  2  0  0  0
 34 35  1  0  0  0
 11 12  1  0  0  0
M  END
> <minimizedAffinity>
-8.31950

$$$$
