5HZ6_65Y_A_201


 27 29  0  0  0  0  0  0  0  0999 V2000
   15.3749   -4.1668  -24.3013 C   0  0  0  0  0  0  0  0  0  0  0  0
   12.6784   -4.2536  -24.9869 C   0  0  0  0  0  0  0  0  0  0  0  0
   14.4538   -4.2768  -23.2867 C   0  0  0  0  0  0  0  0  0  0  0  0
   12.4465   -4.5791  -21.3705 C   0  0  0  0  0  0  0  0  0  0  0  0
   14.7987   -4.3799  -21.9143 C   0  0  0  0  0  0  0  0  0  0  0  0
   13.6239   -4.1251  -25.9620 C   0  0  0  0  0  0  0  0  0  0  0  0
   14.9529   -4.0850  -25.5958 C   0  0  0  0  0  0  0  0  0  0  0  0
   13.0730   -4.3108  -23.6433 C   0  0  0  0  0  0  0  0  0  0  0  0
   13.7853   -4.5193  -20.9747 C   0  0  0  0  0  0  0  0  0  0  0  0
   12.1033   -4.4432  -22.6818 N   0  0  0  0  0  0  0  0  0  0  0  0
   16.1773   -3.9720  -26.8393 Cl  0  0  0  0  0  0  0  0  0  0  0  0
   16.9529   -5.5439  -21.5640 C   0  0  0  0  0  0  0  0  0  0  0  0
   18.2716   -5.5703  -21.2391 C   0  0  0  0  0  0  0  0  0  0  0  0
   18.9227   -4.4592  -20.8428 C   0  0  0  0  0  0  0  0  0  0  0  0
   18.2335   -3.2367  -20.7738 C   0  0  0  0  0  0  0  0  0  0  0  0
   16.8908   -3.1944  -21.1163 C   0  0  0  0  0  0  0  0  0  0  0  0
   16.1927   -4.3648  -21.5350 C   0  0  0  0  0  0  0  0  0  0  0  0
   18.9771   -2.0139  -20.3051 C   0  0  0  0  0  0  0  0  0  0  0  0
   18.4285   -0.7293  -20.8921 C   0  0  0  0  0  0  0  0  0  0  0  0
   18.8977   -1.9102  -18.8180 C   0  0  0  0  0  0  0  0  0  0  0  0
   14.1925   -4.6091  -19.5560 C   0  0  0  0  0  0  0  0  0  0  0  0
   14.3993   -5.7510  -19.0697 O   0  0  0  0  0  0  0  0  0  0  0  0
   14.2592   -3.5861  -18.8472 O   0  0  0  0  0  0  0  0  0  0  0  0
   14.3452   -6.5099  -19.6165 H   0  0  0  0  0  0  0  0  0  0  0  0
   11.3514   -4.7846  -20.3767 C   0  0  0  0  0  0  0  0  0  0  0  0
   10.7850   -3.5473  -19.7974 C   0  0  0  0  0  0  0  0  0  0  0  0
   10.2807   -5.5888  -21.0667 C   0  0  0  0  0  0  0  0  0  0  0  0
 11  7  1  0  0  0
  6  7  2  0  0  0
  6  2  1  0  0  0
  7  1  1  0  0  0
  2  8  2  0  0  0
  1  3  2  0  0  0
  8  3  1  0  0  0
  8 10  1  0  0  0
  3  5  1  0  0  0
 10  4  2  0  0  0
  5 17  1  0  0  0
  5  9  2  0  0  0
 12 17  2  0  0  0
 12 13  1  0  0  0
 17 16  1  0  0  0
 13 14  2  0  0  0
  4  9  1  0  0  0
  4 25  1  0  0  0
 16 15  2  0  0  0
 14 15  1  0  0  0
  9 21  1  0  0  0
 15 18  1  0  0  0
 19 18  1  0  0  0
 18 20  1  0  0  0
 27 25  1  0  0  0
 25 26  1  0  0  0
 21 23  2  0  0  0
 21 22  1  0  0  0
 22 24  1  0  0  0
M  END
> <minimizedAffinity>
-10.81573

$$$$
5HZ6_65Y_A_201


 27 29  0  0  0  0  0  0  0  0999 V2000
   15.5244   -3.4509  -20.9596 C   0  0  0  0  0  0  0  0  0  0  0  0
   16.5388   -1.6852  -19.0616 C   0  0  0  0  0  0  0  0  0  0  0  0
   14.6454   -2.5964  -20.3374 C   0  0  0  0  0  0  0  0  0  0  0  0
   13.0270   -0.7345  -19.0311 C   0  0  0  0  0  0  0  0  0  0  0  0
   13.2579   -2.5409  -20.6286 C   0  0  0  0  0  0  0  0  0  0  0  0
   17.3741   -2.5634  -19.6881 C   0  0  0  0  0  0  0  0  0  0  0  0
   16.8465   -3.4273  -20.6247 C   0  0  0  0  0  0  0  0  0  0  0  0
   15.1693   -1.7008  -19.3586 C   0  0  0  0  0  0  0  0  0  0  0  0
   12.4669   -1.6148  -19.9608 C   0  0  0  0  0  0  0  0  0  0  0  0
   14.3507   -0.8056  -18.7174 N   0  0  0  0  0  0  0  0  0  0  0  0
   17.9144   -4.5228  -21.4719 Cl  0  0  0  0  0  0  0  0  0  0  0  0
   11.8878   -4.5017  -21.2582 C   0  0  0  0  0  0  0  0  0  0  0  0
   11.3339   -5.3450  -22.1677 C   0  0  0  0  0  0  0  0  0  0  0  0
   11.5678   -5.2111  -23.4878 C   0  0  0  0  0  0  0  0  0  0  0  0
   12.3919   -4.1693  -23.9458 C   0  0  0  0  0  0  0  0  0  0  0  0
   12.9518   -3.2937  -23.0284 C   0  0  0  0  0  0  0  0  0  0  0  0
   12.7118   -3.4282  -21.6295 C   0  0  0  0  0  0  0  0  0  0  0  0
   12.6575   -4.0550  -25.4237 C   0  0  0  0  0  0  0  0  0  0  0  0
   14.1110   -4.2896  -25.7813 C   0  0  0  0  0  0  0  0  0  0  0  0
   11.8344   -5.0549  -26.1664 C   0  0  0  0  0  0  0  0  0  0  0  0
   11.0248   -1.6034  -20.2874 C   0  0  0  0  0  0  0  0  0  0  0  0
   10.6462   -0.9234  -21.2760 O   0  0  0  0  0  0  0  0  0  0  0  0
   10.2030   -2.1945  -19.5603 O   0  0  0  0  0  0  0  0  0  0  0  0
   11.2771   -0.4852  -21.8125 H   0  0  0  0  0  0  0  0  0  0  0  0
   12.1990    0.3027  -18.3472 C   0  0  0  0  0  0  0  0  0  0  0  0
   12.3892    0.3975  -16.8836 C   0  0  0  0  0  0  0  0  0  0  0  0
   12.5108    1.6182  -19.0114 C   0  0  0  0  0  0  0  0  0  0  0  0
 11  7  1  0  0  0
  6  7  2  0  0  0
  6  2  1  0  0  0
  7  1  1  0  0  0
  2  8  2  0  0  0
  1  3  2  0  0  0
  8  3  1  0  0  0
  8 10  1  0  0  0
  3  5  1  0  0  0
 10  4  2  0  0  0
  5 17  1  0  0  0
  5  9  2  0  0  0
 12 17  2  0  0  0
 12 13  1  0  0  0
 17 16  1  0  0  0
 13 14  2  0  0  0
  4  9  1  0  0  0
  4 25  1  0  0  0
 16 15  2  0  0  0
 14 15  1  0  0  0
  9 21  1  0  0  0
 15 18  1  0  0  0
 19 18  1  0  0  0
 18 20  1  0  0  0
 27 25  1  0  0  0
 25 26  1  0  0  0
 21 23  2  0  0  0
 21 22  1  0  0  0
 22 24  1  0  0  0
M  END
> <minimizedAffinity>
-8.89278

$$$$
5HZ6_65Y_A_201


 27 29  0  0  0  0  0  0  0  0999 V2000
   13.9192   -4.4559  -23.6937 C   0  0  0  0  0  0  0  0  0  0  0  0
   16.4146   -3.8628  -24.7752 C   0  0  0  0  0  0  0  0  0  0  0  0
   14.9604   -4.2246  -22.8265 C   0  0  0  0  0  0  0  0  0  0  0  0
   17.1712   -3.6468  -21.2229 C   0  0  0  0  0  0  0  0  0  0  0  0
   14.8301   -4.2398  -21.4137 C   0  0  0  0  0  0  0  0  0  0  0  0
   15.3591   -4.1184  -25.6011 C   0  0  0  0  0  0  0  0  0  0  0  0
   14.1334   -4.4093  -25.0400 C   0  0  0  0  0  0  0  0  0  0  0  0
   16.2391   -3.9309  -23.3865 C   0  0  0  0  0  0  0  0  0  0  0  0
   15.9440   -3.9601  -20.6324 C   0  0  0  0  0  0  0  0  0  0  0  0
   17.3152   -3.6667  -22.5774 N   0  0  0  0  0  0  0  0  0  0  0  0
   12.7606   -4.6884  -26.0868 Cl  0  0  0  0  0  0  0  0  0  0  0  0
   13.3287   -5.6931  -20.0902 C   0  0  0  0  0  0  0  0  0  0  0  0
   12.1387   -5.9824  -19.5023 C   0  0  0  0  0  0  0  0  0  0  0  0
   11.0770   -5.1610  -19.6175 C   0  0  0  0  0  0  0  0  0  0  0  0
   11.1971   -3.9678  -20.3497 C   0  0  0  0  0  0  0  0  0  0  0  0
   12.4105   -3.6548  -20.9427 C   0  0  0  0  0  0  0  0  0  0  0  0
   13.5392   -4.5182  -20.8280 C   0  0  0  0  0  0  0  0  0  0  0  0
    9.9895   -3.0782  -20.4841 C   0  0  0  0  0  0  0  0  0  0  0  0
   10.1894   -1.7139  -19.8561 C   0  0  0  0  0  0  0  0  0  0  0  0
    9.6653   -2.8767  -21.9273 C   0  0  0  0  0  0  0  0  0  0  0  0
   15.7630   -4.0012  -19.1654 C   0  0  0  0  0  0  0  0  0  0  0  0
   15.3632   -2.9574  -18.5878 O   0  0  0  0  0  0  0  0  0  0  0  0
   16.0661   -5.0205  -18.5153 O   0  0  0  0  0  0  0  0  0  0  0  0
   15.1393   -2.1997  -19.0915 H   0  0  0  0  0  0  0  0  0  0  0  0
   18.3620   -3.2897  -20.3963 C   0  0  0  0  0  0  0  0  0  0  0  0
   19.5423   -4.1617  -20.5805 C   0  0  0  0  0  0  0  0  0  0  0  0
   18.7023   -1.8577  -20.7164 C   0  0  0  0  0  0  0  0  0  0  0  0
 11  7  1  0  0  0
  6  7  2  0  0  0
  6  2  1  0  0  0
  7  1  1  0  0  0
  2  8  2  0  0  0
  1  3  2  0  0  0
  8  3  1  0  0  0
  8 10  1  0  0  0
  3  5  1  0  0  0
 10  4  2  0  0  0
  5 17  1  0  0  0
  5  9  2  0  0  0
 12 17  2  0  0  0
 12 13  1  0  0  0
 17 16  1  0  0  0
 13 14  2  0  0  0
  4  9  1  0  0  0
  4 25  1  0  0  0
 16 15  2  0  0  0
 14 15  1  0  0  0
  9 21  1  0  0  0
 15 18  1  0  0  0
 19 18  1  0  0  0
 18 20  1  0  0  0
 27 25  1  0  0  0
 25 26  1  0  0  0
 21 23  2  0  0  0
 21 22  1  0  0  0
 22 24  1  0  0  0
M  END
> <minimizedAffinity>
-8.81448

$$$$
5HZ6_65Y_A_201


 27 29  0  0  0  0  0  0  0  0999 V2000
   13.6932   -3.7560  -23.7196 C   0  0  0  0  0  0  0  0  0  0  0  0
   16.2584   -4.2694  -24.6708 C   0  0  0  0  0  0  0  0  0  0  0  0
   14.7504   -3.5644  -22.8620 C   0  0  0  0  0  0  0  0  0  0  0  0
   17.0224   -3.1550  -21.2926 C   0  0  0  0  0  0  0  0  0  0  0  0
   14.6125   -3.0908  -21.5317 C   0  0  0  0  0  0  0  0  0  0  0  0
   15.1802   -4.4658  -25.4833 C   0  0  0  0  0  0  0  0  0  0  0  0
   13.9201   -4.2037  -24.9880 C   0  0  0  0  0  0  0  0  0  0  0  0
   16.0617   -3.8386  -23.3518 C   0  0  0  0  0  0  0  0  0  0  0  0
   15.7540   -2.9033  -20.7627 C   0  0  0  0  0  0  0  0  0  0  0  0
   17.1624   -3.6456  -22.5557 N   0  0  0  0  0  0  0  0  0  0  0  0
   12.5335   -4.4022  -26.0350 Cl  0  0  0  0  0  0  0  0  0  0  0  0
   12.7659   -1.4952  -21.1289 C   0  0  0  0  0  0  0  0  0  0  0  0
   11.5219   -1.1756  -20.6868 C   0  0  0  0  0  0  0  0  0  0  0  0
   10.7280   -2.0885  -20.0937 C   0  0  0  0  0  0  0  0  0  0  0  0
   11.1833   -3.4085  -19.9364 C   0  0  0  0  0  0  0  0  0  0  0  0
   12.4457   -3.7502  -20.3962 C   0  0  0  0  0  0  0  0  0  0  0  0
   13.2938   -2.7911  -21.0234 C   0  0  0  0  0  0  0  0  0  0  0  0
   10.2870   -4.4045  -19.2490 C   0  0  0  0  0  0  0  0  0  0  0  0
    9.9637   -5.6038  -20.1167 C   0  0  0  0  0  0  0  0  0  0  0  0
   10.9421   -4.9019  -18.0032 C   0  0  0  0  0  0  0  0  0  0  0  0
   15.5596   -2.4216  -19.3783 C   0  0  0  0  0  0  0  0  0  0  0  0
   15.5780   -1.1802  -19.1744 O   0  0  0  0  0  0  0  0  0  0  0  0
   15.4516   -3.2273  -18.4335 O   0  0  0  0  0  0  0  0  0  0  0  0
   15.6598   -0.5880  -19.8960 H   0  0  0  0  0  0  0  0  0  0  0  0
   18.2602   -2.9048  -20.4963 C   0  0  0  0  0  0  0  0  0  0  0  0
   19.3167   -3.9305  -20.6337 C   0  0  0  0  0  0  0  0  0  0  0  0
   18.7763   -1.5500  -20.9054 C   0  0  0  0  0  0  0  0  0  0  0  0
 11  7  1  0  0  0
  6  7  2  0  0  0
  6  2  1  0  0  0
  7  1  1  0  0  0
  2  8  2  0  0  0
  1  3  2  0  0  0
  8  3  1  0  0  0
  8 10  1  0  0  0
  3  5  1  0  0  0
 10  4  2  0  0  0
  5 17  1  0  0  0
  5  9  2  0  0  0
 12 17  2  0  0  0
 12 13  1  0  0  0
 17 16  1  0  0  0
 13 14  2  0  0  0
  4  9  1  0  0  0
  4 25  1  0  0  0
 16 15  2  0  0  0
 14 15  1  0  0  0
  9 21  1  0  0  0
 15 18  1  0  0  0
 19 18  1  0  0  0
 18 20  1  0  0  0
 27 25  1  0  0  0
 25 26  1  0  0  0
 21 23  2  0  0  0
 21 22  1  0  0  0
 22 24  1  0  0  0
M  END
> <minimizedAffinity>
-8.73335

$$$$
5HZ6_65Y_A_201


 27 29  0  0  0  0  0  0  0  0999 V2000
   15.7056   -1.5893  -20.3096 C   0  0  0  0  0  0  0  0  0  0  0  0
   16.2237   -4.0660  -21.4698 C   0  0  0  0  0  0  0  0  0  0  0  0
   14.6874   -2.2061  -20.9971 C   0  0  0  0  0  0  0  0  0  0  0  0
   12.7215   -3.6440  -22.3611 C   0  0  0  0  0  0  0  0  0  0  0  0
   13.3803   -1.6687  -21.1229 C   0  0  0  0  0  0  0  0  0  0  0  0
   17.2125   -3.4109  -20.7956 C   0  0  0  0  0  0  0  0  0  0  0  0
   16.9298   -2.1855  -20.2297 C   0  0  0  0  0  0  0  0  0  0  0  0
   14.9616   -3.4704  -21.5979 C   0  0  0  0  0  0  0  0  0  0  0  0
   12.4184   -2.3942  -21.8143 C   0  0  0  0  0  0  0  0  0  0  0  0
   13.9833   -4.1508  -22.2780 N   0  0  0  0  0  0  0  0  0  0  0  0
   18.1733   -1.3590  -19.3193 Cl  0  0  0  0  0  0  0  0  0  0  0  0
   13.0794    0.7822  -21.2665 C   0  0  0  0  0  0  0  0  0  0  0  0
   12.7778    1.9944  -20.7327 C   0  0  0  0  0  0  0  0  0  0  0  0
   12.4828    2.1359  -19.4257 C   0  0  0  0  0  0  0  0  0  0  0  0
   12.4710    1.0069  -18.5893 C   0  0  0  0  0  0  0  0  0  0  0  0
   12.7635   -0.2377  -19.1253 C   0  0  0  0  0  0  0  0  0  0  0  0
   13.0786   -0.3975  -20.5065 C   0  0  0  0  0  0  0  0  0  0  0  0
   12.1619    1.1944  -17.1274 C   0  0  0  0  0  0  0  0  0  0  0  0
   12.0897   -0.1145  -16.3676 C   0  0  0  0  0  0  0  0  0  0  0  0
   13.2153    2.0383  -16.4898 C   0  0  0  0  0  0  0  0  0  0  0  0
   11.0749   -1.7878  -21.9310 C   0  0  0  0  0  0  0  0  0  0  0  0
   10.2732   -1.9337  -20.9723 O   0  0  0  0  0  0  0  0  0  0  0  0
   10.7264   -1.2101  -22.9790 O   0  0  0  0  0  0  0  0  0  0  0  0
   10.5513   -2.3704  -20.1914 H   0  0  0  0  0  0  0  0  0  0  0  0
   11.6829   -4.4591  -23.0581 C   0  0  0  0  0  0  0  0  0  0  0  0
   12.1339   -5.1298  -24.2968 C   0  0  0  0  0  0  0  0  0  0  0  0
   11.1767   -5.4674  -22.0601 C   0  0  0  0  0  0  0  0  0  0  0  0
 11  7  1  0  0  0
  6  7  2  0  0  0
  6  2  1  0  0  0
  7  1  1  0  0  0
  2  8  2  0  0  0
  1  3  2  0  0  0
  8  3  1  0  0  0
  8 10  1  0  0  0
  3  5  1  0  0  0
 10  4  2  0  0  0
  5 17  1  0  0  0
  5  9  2  0  0  0
 12 17  2  0  0  0
 12 13  1  0  0  0
 17 16  1  0  0  0
 13 14  2  0  0  0
  4  9  1  0  0  0
  4 25  1  0  0  0
 16 15  2  0  0  0
 14 15  1  0  0  0
  9 21  1  0  0  0
 15 18  1  0  0  0
 19 18  1  0  0  0
 18 20  1  0  0  0
 27 25  1  0  0  0
 25 26  1  0  0  0
 21 23  2  0  0  0
 21 22  1  0  0  0
 22 24  1  0  0  0
M  END
> <minimizedAffinity>
-8.46282

$$$$
5HZ6_65Y_A_201


 27 29  0  0  0  0  0  0  0  0999 V2000
   15.9512   -2.7996  -20.6391 C   0  0  0  0  0  0  0  0  0  0  0  0
   16.5027   -3.5122  -18.0054 C   0  0  0  0  0  0  0  0  0  0  0  0
   14.9773   -3.4644  -19.9325 C   0  0  0  0  0  0  0  0  0  0  0  0
   13.0942   -4.7458  -18.3186 C   0  0  0  0  0  0  0  0  0  0  0  0
   13.6974   -3.7805  -20.4570 C   0  0  0  0  0  0  0  0  0  0  0  0
   17.4492   -2.8688  -18.7480 C   0  0  0  0  0  0  0  0  0  0  0  0
   17.1508   -2.5264  -20.0501 C   0  0  0  0  0  0  0  0  0  0  0  0
   15.2692   -3.8359  -18.5865 C   0  0  0  0  0  0  0  0  0  0  0  0
   12.7774   -4.4275  -19.6419 C   0  0  0  0  0  0  0  0  0  0  0  0
   14.3330   -4.4802  -17.8180 N   0  0  0  0  0  0  0  0  0  0  0  0
   18.3361   -1.6561  -20.9965 Cl  0  0  0  0  0  0  0  0  0  0  0  0
   12.8334   -2.1327  -22.0869 C   0  0  0  0  0  0  0  0  0  0  0  0
   12.5403   -1.7224  -23.3483 C   0  0  0  0  0  0  0  0  0  0  0  0
   12.7337   -2.5242  -24.4136 C   0  0  0  0  0  0  0  0  0  0  0  0
   13.2635   -3.8123  -24.2274 C   0  0  0  0  0  0  0  0  0  0  0  0
   13.5797   -4.2373  -22.9463 C   0  0  0  0  0  0  0  0  0  0  0  0
   13.3769   -3.3970  -21.8125 C   0  0  0  0  0  0  0  0  0  0  0  0
   13.4480   -4.6982  -25.4311 C   0  0  0  0  0  0  0  0  0  0  0  0
   12.2009   -4.7989  -26.2856 C   0  0  0  0  0  0  0  0  0  0  0  0
   14.5501   -4.1685  -26.2874 C   0  0  0  0  0  0  0  0  0  0  0  0
   11.4621   -4.7484  -20.2365 C   0  0  0  0  0  0  0  0  0  0  0  0
   10.5277   -3.9184  -20.0917 O   0  0  0  0  0  0  0  0  0  0  0  0
   11.2696   -5.8419  -20.8028 O   0  0  0  0  0  0  0  0  0  0  0  0
   10.6894   -3.1008  -19.6636 H   0  0  0  0  0  0  0  0  0  0  0  0
   12.0961   -5.3908  -17.4148 C   0  0  0  0  0  0  0  0  0  0  0  0
   12.3169   -6.8301  -17.1562 C   0  0  0  0  0  0  0  0  0  0  0  0
   12.1050   -4.6103  -16.1265 C   0  0  0  0  0  0  0  0  0  0  0  0
 11  7  1  0  0  0
  6  7  2  0  0  0
  6  2  1  0  0  0
  7  1  1  0  0  0
  2  8  2  0  0  0
  1  3  2  0  0  0
  8  3  1  0  0  0
  8 10  1  0  0  0
  3  5  1  0  0  0
 10  4  2  0  0  0
  5 17  1  0  0  0
  5  9  2  0  0  0
 12 17  2  0  0  0
 12 13  1  0  0  0
 17 16  1  0  0  0
 13 14  2  0  0  0
  4  9  1  0  0  0
  4 25  1  0  0  0
 16 15  2  0  0  0
 14 15  1  0  0  0
  9 21  1  0  0  0
 15 18  1  0  0  0
 19 18  1  0  0  0
 18 20  1  0  0  0
 27 25  1  0  0  0
 25 26  1  0  0  0
 21 23  2  0  0  0
 21 22  1  0  0  0
 22 24  1  0  0  0
M  END
> <minimizedAffinity>
-8.32606

$$$$
5HZ6_65Y_A_201


 27 29  0  0  0  0  0  0  0  0999 V2000
   14.9600   -3.8714  -19.8784 C   0  0  0  0  0  0  0  0  0  0  0  0
   16.9798   -4.8760  -21.5093 C   0  0  0  0  0  0  0  0  0  0  0  0
   14.8177   -3.7379  -21.2392 C   0  0  0  0  0  0  0  0  0  0  0  0
   14.6645   -3.6306  -24.0245 C   0  0  0  0  0  0  0  0  0  0  0  0
   13.6878   -3.1465  -21.8611 C   0  0  0  0  0  0  0  0  0  0  0  0
   17.0913   -4.9703  -20.1528 C   0  0  0  0  0  0  0  0  0  0  0  0
   16.0767   -4.4651  -19.3673 C   0  0  0  0  0  0  0  0  0  0  0  0
   15.8605   -4.2457  -22.0696 C   0  0  0  0  0  0  0  0  0  0  0  0
   13.6345   -3.0930  -23.2481 C   0  0  0  0  0  0  0  0  0  0  0  0
   15.7703   -4.1663  -23.4363 N   0  0  0  0  0  0  0  0  0  0  0  0
   16.1830   -4.6252  -17.6291 Cl  0  0  0  0  0  0  0  0  0  0  0  0
   11.4355   -3.3855  -20.8669 C   0  0  0  0  0  0  0  0  0  0  0  0
   10.4113   -2.9604  -20.0824 C   0  0  0  0  0  0  0  0  0  0  0  0
   10.4601   -1.7781  -19.4382 C   0  0  0  0  0  0  0  0  0  0  0  0
   11.5987   -0.9643  -19.5635 C   0  0  0  0  0  0  0  0  0  0  0  0
   12.6563   -1.3936  -20.3503 C   0  0  0  0  0  0  0  0  0  0  0  0
   12.6135   -2.6421  -21.0373 C   0  0  0  0  0  0  0  0  0  0  0  0
   11.6192    0.3633  -18.8531 C   0  0  0  0  0  0  0  0  0  0  0  0
   12.0210    0.2465  -17.3969 C   0  0  0  0  0  0  0  0  0  0  0  0
   12.5848    1.2833  -19.5238 C   0  0  0  0  0  0  0  0  0  0  0  0
   12.4441   -2.4553  -23.8503 C   0  0  0  0  0  0  0  0  0  0  0  0
   11.4471   -3.1801  -24.1029 O   0  0  0  0  0  0  0  0  0  0  0  0
   12.4579   -1.2486  -24.1621 O   0  0  0  0  0  0  0  0  0  0  0  0
   11.4530   -4.0855  -23.8618 H   0  0  0  0  0  0  0  0  0  0  0  0
   14.5942   -3.6299  -25.5158 C   0  0  0  0  0  0  0  0  0  0  0  0
   15.9005   -3.6576  -26.2088 C   0  0  0  0  0  0  0  0  0  0  0  0
   13.7543   -4.8152  -25.9140 C   0  0  0  0  0  0  0  0  0  0  0  0
 11  7  1  0  0  0
  6  7  2  0  0  0
  6  2  1  0  0  0
  7  1  1  0  0  0
  2  8  2  0  0  0
  1  3  2  0  0  0
  8  3  1  0  0  0
  8 10  1  0  0  0
  3  5  1  0  0  0
 10  4  2  0  0  0
  5 17  1  0  0  0
  5  9  2  0  0  0
 12 17  2  0  0  0
 12 13  1  0  0  0
 17 16  1  0  0  0
 13 14  2  0  0  0
  4  9  1  0  0  0
  4 25  1  0  0  0
 16 15  2  0  0  0
 14 15  1  0  0  0
  9 21  1  0  0  0
 15 18  1  0  0  0
 19 18  1  0  0  0
 18 20  1  0  0  0
 27 25  1  0  0  0
 25 26  1  0  0  0
 21 23  2  0  0  0
 21 22  1  0  0  0
 22 24  1  0  0  0
M  END
> <minimizedAffinity>
-8.24267

$$$$
5HZ6_65Y_A_201


 27 29  0  0  0  0  0  0  0  0999 V2000
   13.4324   -4.8342  -19.3672 C   0  0  0  0  0  0  0  0  0  0  0  0
   10.7936   -5.2119  -20.1687 C   0  0  0  0  0  0  0  0  0  0  0  0
   13.1474   -4.7533  -20.7096 C   0  0  0  0  0  0  0  0  0  0  0  0
   12.3661   -4.5463  -23.3816 C   0  0  0  0  0  0  0  0  0  0  0  0
   14.1134   -4.4581  -21.7059 C   0  0  0  0  0  0  0  0  0  0  0  0
   11.1225   -5.3033  -18.8478 C   0  0  0  0  0  0  0  0  0  0  0  0
   12.4369   -5.1116  -18.4769 C   0  0  0  0  0  0  0  0  0  0  0  0
   11.7952   -4.9576  -21.1154 C   0  0  0  0  0  0  0  0  0  0  0  0
   13.7073   -4.3695  -23.0313 C   0  0  0  0  0  0  0  0  0  0  0  0
   11.4383   -4.8672  -22.4371 N   0  0  0  0  0  0  0  0  0  0  0  0
   12.8631   -5.1754  -16.7821 Cl  0  0  0  0  0  0  0  0  0  0  0  0
   16.4241   -5.2722  -21.3651 C   0  0  0  0  0  0  0  0  0  0  0  0
   17.7282   -5.0964  -21.0279 C   0  0  0  0  0  0  0  0  0  0  0  0
   18.1909   -3.9070  -20.5960 C   0  0  0  0  0  0  0  0  0  0  0  0
   17.3146   -2.8126  -20.5016 C   0  0  0  0  0  0  0  0  0  0  0  0
   15.9843   -2.9760  -20.8561 C   0  0  0  0  0  0  0  0  0  0  0  0
   15.4848   -4.2309  -21.3125 C   0  0  0  0  0  0  0  0  0  0  0  0
   17.8503   -1.5002  -19.9934 C   0  0  0  0  0  0  0  0  0  0  0  0
   18.8201   -1.6658  -18.8412 C   0  0  0  0  0  0  0  0  0  0  0  0
   18.5609   -0.7820  -21.0925 C   0  0  0  0  0  0  0  0  0  0  0  0
   14.7516   -4.0733  -24.0354 C   0  0  0  0  0  0  0  0  0  0  0  0
   14.8343   -2.8976  -24.4758 O   0  0  0  0  0  0  0  0  0  0  0  0
   15.4805   -4.9804  -24.4819 O   0  0  0  0  0  0  0  0  0  0  0  0
   14.2788   -2.2273  -24.1292 H   0  0  0  0  0  0  0  0  0  0  0  0
   11.9066   -4.3988  -24.7944 C   0  0  0  0  0  0  0  0  0  0  0  0
   12.2360   -5.5317  -25.6863 C   0  0  0  0  0  0  0  0  0  0  0  0
   10.4181   -4.1724  -24.7481 C   0  0  0  0  0  0  0  0  0  0  0  0
 11  7  1  0  0  0
  6  7  2  0  0  0
  6  2  1  0  0  0
  7  1  1  0  0  0
  2  8  2  0  0  0
  1  3  2  0  0  0
  8  3  1  0  0  0
  8 10  1  0  0  0
  3  5  1  0  0  0
 10  4  2  0  0  0
  5 17  1  0  0  0
  5  9  2  0  0  0
 12 17  2  0  0  0
 12 13  1  0  0  0
 17 16  1  0  0  0
 13 14  2  0  0  0
  4  9  1  0  0  0
  4 25  1  0  0  0
 16 15  2  0  0  0
 14 15  1  0  0  0
  9 21  1  0  0  0
 15 18  1  0  0  0
 19 18  1  0  0  0
 18 20  1  0  0  0
 27 25  1  0  0  0
 25 26  1  0  0  0
 21 23  2  0  0  0
 21 22  1  0  0  0
 22 24  1  0  0  0
M  END
> <minimizedAffinity>
-8.20640

$$$$
5HZ6_65Y_A_201


 27 29  0  0  0  0  0  0  0  0999 V2000
   14.8317   -4.0423  -17.9918 C   0  0  0  0  0  0  0  0  0  0  0  0
   12.1080   -3.8732  -17.4426 C   0  0  0  0  0  0  0  0  0  0  0  0
   13.9605   -3.9936  -19.0541 C   0  0  0  0  0  0  0  0  0  0  0  0
   12.0492   -3.8039  -21.0798 C   0  0  0  0  0  0  0  0  0  0  0  0
   14.3703   -3.9931  -20.4124 C   0  0  0  0  0  0  0  0  0  0  0  0
   13.0052   -3.9435  -16.4171 C   0  0  0  0  0  0  0  0  0  0  0  0
   14.3489   -4.0263  -16.7161 C   0  0  0  0  0  0  0  0  0  0  0  0
   12.5654   -3.9170  -18.7666 C   0  0  0  0  0  0  0  0  0  0  0  0
   13.4039   -3.9085  -21.4066 C   0  0  0  0  0  0  0  0  0  0  0  0
   11.6435   -3.8415  -19.7799 N   0  0  0  0  0  0  0  0  0  0  0  0
   15.5124   -4.0654  -15.4112 Cl  0  0  0  0  0  0  0  0  0  0  0  0
   16.3309   -5.1957  -21.3224 C   0  0  0  0  0  0  0  0  0  0  0  0
   17.6453   -5.2845  -21.6536 C   0  0  0  0  0  0  0  0  0  0  0  0
   18.5061   -4.2796  -21.3997 C   0  0  0  0  0  0  0  0  0  0  0  0
   18.0403   -3.1022  -20.7904 C   0  0  0  0  0  0  0  0  0  0  0  0
   16.6982   -2.9942  -20.4603 C   0  0  0  0  0  0  0  0  0  0  0  0
   15.7799   -4.0526  -20.7233 C   0  0  0  0  0  0  0  0  0  0  0  0
   19.0263   -2.0030  -20.4951 C   0  0  0  0  0  0  0  0  0  0  0  0
   18.5964   -0.6605  -21.0506 C   0  0  0  0  0  0  0  0  0  0  0  0
   19.1966   -1.8565  -19.0193 C   0  0  0  0  0  0  0  0  0  0  0  0
   13.8778   -3.9253  -22.8071 C   0  0  0  0  0  0  0  0  0  0  0  0
   14.2442   -2.8374  -23.3221 O   0  0  0  0  0  0  0  0  0  0  0  0
   13.8470   -4.9761  -23.4767 O   0  0  0  0  0  0  0  0  0  0  0  0
   14.2616   -2.0564  -22.8047 H   0  0  0  0  0  0  0  0  0  0  0  0
   11.0048   -3.6562  -22.1364 C   0  0  0  0  0  0  0  0  0  0  0  0
    9.8107   -4.5122  -21.9669 C   0  0  0  0  0  0  0  0  0  0  0  0
   10.6172   -2.2009  -22.1670 C   0  0  0  0  0  0  0  0  0  0  0  0
 11  7  1  0  0  0
  6  7  2  0  0  0
  6  2  1  0  0  0
  7  1  1  0  0  0
  2  8  2  0  0  0
  1  3  2  0  0  0
  8  3  1  0  0  0
  8 10  1  0  0  0
  3  5  1  0  0  0
 10  4  2  0  0  0
  5 17  1  0  0  0
  5  9  2  0  0  0
 12 17  2  0  0  0
 12 13  1  0  0  0
 17 16  1  0  0  0
 13 14  2  0  0  0
  4  9  1  0  0  0
  4 25  1  0  0  0
 16 15  2  0  0  0
 14 15  1  0  0  0
  9 21  1  0  0  0
 15 18  1  0  0  0
 19 18  1  0  0  0
 18 20  1  0  0  0
 27 25  1  0  0  0
 25 26  1  0  0  0
 21 23  2  0  0  0
 21 22  1  0  0  0
 22 24  1  0  0  0
M  END
> <minimizedAffinity>
-8.06359

$$$$
5HZ6_65Y_A_201


 27 29  0  0  0  0  0  0  0  0999 V2000
   16.0626   -2.5704  -20.0692 C   0  0  0  0  0  0  0  0  0  0  0  0
   16.8654   -3.8843  -22.3882 C   0  0  0  0  0  0  0  0  0  0  0  0
   15.1118   -2.8261  -21.0287 C   0  0  0  0  0  0  0  0  0  0  0  0
   13.3081   -3.5016  -23.0493 C   0  0  0  0  0  0  0  0  0  0  0  0
   13.7408   -2.4874  -20.8923 C   0  0  0  0  0  0  0  0  0  0  0  0
   17.7813   -3.5938  -21.4197 C   0  0  0  0  0  0  0  0  0  0  0  0
   17.3578   -2.9426  -20.2803 C   0  0  0  0  0  0  0  0  0  0  0  0
   15.5310   -3.4908  -22.2192 C   0  0  0  0  0  0  0  0  0  0  0  0
   12.8603   -2.8226  -21.9130 C   0  0  0  0  0  0  0  0  0  0  0  0
   14.6286   -3.7974  -23.2062 N   0  0  0  0  0  0  0  0  0  0  0  0
   18.5116   -2.6099  -19.0090 Cl  0  0  0  0  0  0  0  0  0  0  0  0
   13.1206   -2.5569  -18.4988 C   0  0  0  0  0  0  0  0  0  0  0  0
   12.7260   -1.9742  -17.3369 C   0  0  0  0  0  0  0  0  0  0  0  0
   12.4523   -0.6568  -17.2660 C   0  0  0  0  0  0  0  0  0  0  0  0
   12.5884    0.1444  -18.4122 C   0  0  0  0  0  0  0  0  0  0  0  0
   13.0039   -0.4362  -19.6006 C   0  0  0  0  0  0  0  0  0  0  0  0
   13.2940   -1.8294  -19.6862 C   0  0  0  0  0  0  0  0  0  0  0  0
   12.2536    1.6093  -18.3133 C   0  0  0  0  0  0  0  0  0  0  0  0
   12.9788    2.3045  -17.1791 C   0  0  0  0  0  0  0  0  0  0  0  0
   12.6193    2.3008  -19.5848 C   0  0  0  0  0  0  0  0  0  0  0  0
   11.4443   -2.4372  -21.7321 C   0  0  0  0  0  0  0  0  0  0  0  0
   10.6986   -3.2099  -21.0763 O   0  0  0  0  0  0  0  0  0  0  0  0
   10.9898   -1.4113  -22.2747 O   0  0  0  0  0  0  0  0  0  0  0  0
   11.0564   -3.9770  -20.6745 H   0  0  0  0  0  0  0  0  0  0  0  0
   12.3634   -3.9172  -24.1281 C   0  0  0  0  0  0  0  0  0  0  0  0
   12.9580   -4.0318  -25.4775 C   0  0  0  0  0  0  0  0  0  0  0  0
   11.7596   -5.2287  -23.6987 C   0  0  0  0  0  0  0  0  0  0  0  0
 11  7  1  0  0  0
  6  7  2  0  0  0
  6  2  1  0  0  0
  7  1  1  0  0  0
  2  8  2  0  0  0
  1  3  2  0  0  0
  8  3  1  0  0  0
  8 10  1  0  0  0
  3  5  1  0  0  0
 10  4  2  0  0  0
  5 17  1  0  0  0
  5  9  2  0  0  0
 12 17  2  0  0  0
 12 13  1  0  0  0
 17 16  1  0  0  0
 13 14  2  0  0  0
  4  9  1  0  0  0
  4 25  1  0  0  0
 16 15  2  0  0  0
 14 15  1  0  0  0
  9 21  1  0  0  0
 15 18  1  0  0  0
 19 18  1  0  0  0
 18 20  1  0  0  0
 27 25  1  0  0  0
 25 26  1  0  0  0
 21 23  2  0  0  0
 21 22  1  0  0  0
 22 24  1  0  0  0
M  END
> <minimizedAffinity>
-7.83720

$$$$
