5AMG_IW7_A_266


 26 26  0  0  0  0  0  0  0  0999 V2000
   -5.6957    1.6554   15.7680 C   0  0  0  0  0  0  0  0  0  0  0  0
   -4.9953    0.8214   14.8599 C   0  0  0  0  0  0  0  0  0  0  0  0
   -4.4523    1.3088   13.6619 C   0  0  0  0  0  0  0  0  0  0  0  0
   -4.5932    2.6495   13.3305 C   0  0  0  0  0  0  0  0  0  0  0  0
   -5.8799    3.0110   15.4265 C   0  0  0  0  0  0  0  0  0  0  0  0
   -5.3606    3.5426   14.2333 C   0  0  0  0  0  0  0  0  0  0  0  0
   -5.6297   -0.0882   17.6327 O   0  0  0  0  0  0  0  0  0  0  0  0
   -6.3444    1.0868   17.1892 S   0  0  0  0  0  0  0  0  0  0  0  0
   -7.7400    0.8479   16.9873 O   0  0  0  0  0  0  0  0  0  0  0  0
   -6.3243    2.2034   18.3123 N   0  0  0  0  0  0  0  0  0  0  0  0
   -6.7270    1.8289   19.1713 H   0  0  0  0  0  0  0  0  0  0  0  0
   -6.8710    3.0070   18.0027 H   0  0  0  0  0  0  0  0  0  0  0  0
   -4.0563    3.1061   12.0299 C   0  0  0  0  0  0  0  0  0  0  0  0
   -2.9031    3.4339   11.9821 O   0  0  0  0  0  0  0  0  0  0  0  0
   -4.7957    3.0938   10.9469 O   0  0  0  0  0  0  0  0  0  0  0  0
   -5.6952    2.8359   10.9966 H   0  0  0  0  0  0  0  0  0  0  0  0
   -5.5466    5.1195   13.8997 S   0  0  0  0  0  0  0  0  0  0  0  0
   -5.9499    5.4814   12.5749 O   0  0  0  0  0  0  0  0  0  0  0  0
   -6.2061    5.7848   14.9505 O   0  0  0  0  0  0  0  0  0  0  0  0
   -4.0956    5.8130   13.9399 N   0  0  0  0  0  0  0  0  0  0  0  0
   -3.4107    5.0593   13.8834 H   0  0  0  0  0  0  0  0  0  0  0  0
   -3.7126    6.8017   12.9326 C   0  0  0  0  0  0  0  0  0  0  0  0
   -2.6773    7.7912   13.4771 C   0  0  0  0  0  0  0  0  0  0  0  0
   -2.7925    7.9742   14.9656 C   0  0  0  0  0  0  0  0  0  0  0  0
   -1.5617    8.6873   15.5354 C   0  0  0  0  0  0  0  0  0  0  0  0
   -0.5827    9.1881   14.4879 C   0  0  0  0  0  0  0  0  0  0  0  0
  7  8  2  0  0  0
  8  9  2  0  0  0
  8 10  1  0  0  0
  8  1  1  0  0  0
  1  2  1  0  0  0
  1  5  2  0  0  0
  2  3  2  0  0  0
  3  4  1  0  0  0
  4 13  1  0  0  0
  4  6  2  0  0  0
 13 14  2  0  0  0
 13 15  1  0  0  0
  5  6  1  0  0  0
  6 17  1  0  0  0
 17 18  2  0  0  0
 17 19  2  0  0  0
 17 20  1  0  0  0
 20 22  1  0  0  0
 22 23  1  0  0  0
 23 24  1  0  0  0
 24 25  1  0  0  0
 25 26  1  0  0  0
 10 11  1  0  0  0
 10 12  1  0  0  0
 15 16  1  0  0  0
 20 21  1  0  0  0
M  END
> <minimizedAffinity>
-7.09826

$$$$
5AMG_IW7_A_266


 26 26  0  0  0  0  0  0  0  0999 V2000
   -5.6783    1.6776   15.7688 C   0  0  0  0  0  0  0  0  0  0  0  0
   -4.9663    0.8697   14.8463 C   0  0  0  0  0  0  0  0  0  0  0  0
   -4.4205    1.3881   13.6627 C   0  0  0  0  0  0  0  0  0  0  0  0
   -4.5703    2.7347   13.3605 C   0  0  0  0  0  0  0  0  0  0  0  0
   -5.8714    3.0391   15.4566 C   0  0  0  0  0  0  0  0  0  0  0  0
   -5.3497    3.6013   14.2786 C   0  0  0  0  0  0  0  0  0  0  0  0
   -5.6109   -0.1086   17.5926 O   0  0  0  0  0  0  0  0  0  0  0  0
   -6.3305    1.0722   17.1731 S   0  0  0  0  0  0  0  0  0  0  0  0
   -7.7236    0.8299   16.9589 O   0  0  0  0  0  0  0  0  0  0  0  0
   -6.3224    2.1624   18.3220 N   0  0  0  0  0  0  0  0  0  0  0  0
   -6.7269    1.7656   19.1701 H   0  0  0  0  0  0  0  0  0  0  0  0
   -6.8724    2.9697   18.0285 H   0  0  0  0  0  0  0  0  0  0  0  0
   -4.0297    3.2246   12.0736 C   0  0  0  0  0  0  0  0  0  0  0  0
   -4.6459    2.9760   11.0745 O   0  0  0  0  0  0  0  0  0  0  0  0
   -2.9463    3.9621   12.0277 O   0  0  0  0  0  0  0  0  0  0  0  0
   -2.4735    4.1495   12.8147 H   0  0  0  0  0  0  0  0  0  0  0  0
   -5.5464    5.1838   13.9794 S   0  0  0  0  0  0  0  0  0  0  0  0
   -6.6700    5.8435   14.5720 O   0  0  0  0  0  0  0  0  0  0  0  0
   -4.3187    5.8689   14.0506 O   0  0  0  0  0  0  0  0  0  0  0  0
   -5.9211    5.3553   12.4243 N   0  0  0  0  0  0  0  0  0  0  0  0
   -6.9033    5.0965   12.3311 H   0  0  0  0  0  0  0  0  0  0  0  0
   -5.7641    6.6469   11.7567 C   0  0  0  0  0  0  0  0  0  0  0  0
   -7.1088    7.2009   11.2746 C   0  0  0  0  0  0  0  0  0  0  0  0
   -6.9995    7.8743    9.9341 C   0  0  0  0  0  0  0  0  0  0  0  0
   -7.6973    7.0567    8.8421 C   0  0  0  0  0  0  0  0  0  0  0  0
   -8.9342    7.7149    8.2560 C   0  0  0  0  0  0  0  0  0  0  0  0
  7  8  2  0  0  0
  8  9  2  0  0  0
  8 10  1  0  0  0
  8  1  1  0  0  0
  1  2  1  0  0  0
  1  5  2  0  0  0
  2  3  2  0  0  0
  3  4  1  0  0  0
  4 13  1  0  0  0
  4  6  2  0  0  0
 13 14  2  0  0  0
 13 15  1  0  0  0
  5  6  1  0  0  0
  6 17  1  0  0  0
 17 18  2  0  0  0
 17 19  2  0  0  0
 17 20  1  0  0  0
 20 22  1  0  0  0
 22 23  1  0  0  0
 23 24  1  0  0  0
 24 25  1  0  0  0
 25 26  1  0  0  0
 10 11  1  0  0  0
 10 12  1  0  0  0
 15 16  1  0  0  0
 20 21  1  0  0  0
M  END
> <minimizedAffinity>
-6.84653

$$$$
5AMG_IW7_A_266


 26 26  0  0  0  0  0  0  0  0999 V2000
   -6.0481    2.3369   15.8855 C   0  0  0  0  0  0  0  0  0  0  0  0
   -6.5554    3.6521   16.0392 C   0  0  0  0  0  0  0  0  0  0  0  0
   -6.2867    4.6711   15.1134 C   0  0  0  0  0  0  0  0  0  0  0  0
   -5.4984    4.4088   14.0013 C   0  0  0  0  0  0  0  0  0  0  0  0
   -5.2144    2.0656   14.7811 C   0  0  0  0  0  0  0  0  0  0  0  0
   -4.9110    3.0569   13.8318 C   0  0  0  0  0  0  0  0  0  0  0  0
   -7.7827    0.8989   17.0875 O   0  0  0  0  0  0  0  0  0  0  0  0
   -6.3593    1.1231   16.9780 S   0  0  0  0  0  0  0  0  0  0  0  0
   -5.7513    1.4685   18.2256 O   0  0  0  0  0  0  0  0  0  0  0  0
   -5.6182   -0.2157   16.5695 N   0  0  0  0  0  0  0  0  0  0  0  0
   -5.8257   -0.9420   17.2550 H   0  0  0  0  0  0  0  0  0  0  0  0
   -4.6117   -0.0523   16.5415 H   0  0  0  0  0  0  0  0  0  0  0  0
   -5.1928    5.5283   13.0838 C   0  0  0  0  0  0  0  0  0  0  0  0
   -4.2333    6.2068   13.3257 O   0  0  0  0  0  0  0  0  0  0  0  0
   -5.9072    5.7369   12.0041 O   0  0  0  0  0  0  0  0  0  0  0  0
   -6.6545    5.2005   11.8258 H   0  0  0  0  0  0  0  0  0  0  0  0
   -3.9917    2.6931   12.5453 S   0  0  0  0  0  0  0  0  0  0  0  0
   -3.4328    1.3774   12.4713 O   0  0  0  0  0  0  0  0  0  0  0  0
   -4.5623    3.1903   11.3584 O   0  0  0  0  0  0  0  0  0  0  0  0
   -2.6380    3.5573   12.6384 N   0  0  0  0  0  0  0  0  0  0  0  0
   -1.9210    2.9362   13.0135 H   0  0  0  0  0  0  0  0  0  0  0  0
   -2.0673    4.1816   11.4454 C   0  0  0  0  0  0  0  0  0  0  0  0
   -1.0609    5.2784   11.8081 C   0  0  0  0  0  0  0  0  0  0  0  0
    0.1268    5.2890   10.8852 C   0  0  0  0  0  0  0  0  0  0  0  0
    0.8852    3.9586   10.9391 C   0  0  0  0  0  0  0  0  0  0  0  0
    1.9088    3.7720    9.8327 C   0  0  0  0  0  0  0  0  0  0  0  0
  7  8  2  0  0  0
  8  9  2  0  0  0
  8 10  1  0  0  0
  8  1  1  0  0  0
  1  2  1  0  0  0
  1  5  2  0  0  0
  2  3  2  0  0  0
  3  4  1  0  0  0
  4 13  1  0  0  0
  4  6  2  0  0  0
 13 14  2  0  0  0
 13 15  1  0  0  0
  5  6  1  0  0  0
  6 17  1  0  0  0
 17 18  2  0  0  0
 17 19  2  0  0  0
 17 20  1  0  0  0
 20 22  1  0  0  0
 22 23  1  0  0  0
 23 24  1  0  0  0
 24 25  1  0  0  0
 25 26  1  0  0  0
 10 11  1  0  0  0
 10 12  1  0  0  0
 15 16  1  0  0  0
 20 21  1  0  0  0
M  END
> <minimizedAffinity>
-6.77634

$$$$
5AMG_IW7_A_266


 26 26  0  0  0  0  0  0  0  0999 V2000
   -6.0155    2.6827   15.7325 C   0  0  0  0  0  0  0  0  0  0  0  0
   -6.5613    3.9882   15.8239 C   0  0  0  0  0  0  0  0  0  0  0  0
   -6.3774    4.9487   14.8183 C   0  0  0  0  0  0  0  0  0  0  0  0
   -5.6384    4.6355   13.6857 C   0  0  0  0  0  0  0  0  0  0  0  0
   -5.2304    2.3625   14.6057 C   0  0  0  0  0  0  0  0  0  0  0  0
   -5.0122    3.2948   13.5766 C   0  0  0  0  0  0  0  0  0  0  0  0
   -7.4626    0.8198   16.7108 O   0  0  0  0  0  0  0  0  0  0  0  0
   -6.2262    1.5381   16.9197 S   0  0  0  0  0  0  0  0  0  0  0  0
   -6.1667    2.1880   18.1923 O   0  0  0  0  0  0  0  0  0  0  0  0
   -5.0033    0.5327   16.9661 N   0  0  0  0  0  0  0  0  0  0  0  0
   -5.1581   -0.1572   17.7013 H   0  0  0  0  0  0  0  0  0  0  0  0
   -4.1455    1.0494   17.1598 H   0  0  0  0  0  0  0  0  0  0  0  0
   -5.4208    5.6979   12.6795 C   0  0  0  0  0  0  0  0  0  0  0  0
   -4.6650    6.5876   12.9565 O   0  0  0  0  0  0  0  0  0  0  0  0
   -5.9841    5.6398   11.4967 O   0  0  0  0  0  0  0  0  0  0  0  0
   -6.5727    4.9401   11.2919 H   0  0  0  0  0  0  0  0  0  0  0  0
   -4.1477    2.8726   12.2701 S   0  0  0  0  0  0  0  0  0  0  0  0
   -3.2195    1.7908   12.4014 O   0  0  0  0  0  0  0  0  0  0  0  0
   -4.9503    2.8619   11.1137 O   0  0  0  0  0  0  0  0  0  0  0  0
   -3.1240    4.0690   11.9406 N   0  0  0  0  0  0  0  0  0  0  0  0
   -3.5381    4.9199   12.3212 H   0  0  0  0  0  0  0  0  0  0  0  0
   -1.7438    4.0246   12.4221 C   0  0  0  0  0  0  0  0  0  0  0  0
   -1.2050    5.4269   12.7232 C   0  0  0  0  0  0  0  0  0  0  0  0
   -1.7619    5.9881   14.0028 C   0  0  0  0  0  0  0  0  0  0  0  0
   -1.5538    7.5042   14.0824 C   0  0  0  0  0  0  0  0  0  0  0  0
   -2.4159    8.2046   15.1181 C   0  0  0  0  0  0  0  0  0  0  0  0
  7  8  2  0  0  0
  8  9  2  0  0  0
  8 10  1  0  0  0
  8  1  1  0  0  0
  1  2  1  0  0  0
  1  5  2  0  0  0
  2  3  2  0  0  0
  3  4  1  0  0  0
  4 13  1  0  0  0
  4  6  2  0  0  0
 13 14  2  0  0  0
 13 15  1  0  0  0
  5  6  1  0  0  0
  6 17  1  0  0  0
 17 18  2  0  0  0
 17 19  2  0  0  0
 17 20  1  0  0  0
 20 22  1  0  0  0
 22 23  1  0  0  0
 23 24  1  0  0  0
 24 25  1  0  0  0
 25 26  1  0  0  0
 10 11  1  0  0  0
 10 12  1  0  0  0
 15 16  1  0  0  0
 20 21  1  0  0  0
M  END
> <minimizedAffinity>
-6.72965

$$$$
5AMG_IW7_A_266


 26 26  0  0  0  0  0  0  0  0999 V2000
   -4.6172    1.7448   14.2601 C   0  0  0  0  0  0  0  0  0  0  0  0
   -4.1354    1.3668   12.9811 C   0  0  0  0  0  0  0  0  0  0  0  0
   -4.0688    2.2693   11.9094 C   0  0  0  0  0  0  0  0  0  0  0  0
   -4.4842    3.5827   12.0807 C   0  0  0  0  0  0  0  0  0  0  0  0
   -5.0785    3.0653   14.4384 C   0  0  0  0  0  0  0  0  0  0  0  0
   -5.0385    4.0026   13.3915 C   0  0  0  0  0  0  0  0  0  0  0  0
   -3.6407    0.9463   16.4805 O   0  0  0  0  0  0  0  0  0  0  0  0
   -4.7018    0.6822   15.5358 S   0  0  0  0  0  0  0  0  0  0  0  0
   -4.6696   -0.6509   15.0189 O   0  0  0  0  0  0  0  0  0  0  0  0
   -6.1124    0.7618   16.2517 N   0  0  0  0  0  0  0  0  0  0  0  0
   -6.1371    0.1013   17.0286 H   0  0  0  0  0  0  0  0  0  0  0  0
   -6.8465    0.5280   15.5833 H   0  0  0  0  0  0  0  0  0  0  0  0
   -4.4516    4.4829   10.9072 C   0  0  0  0  0  0  0  0  0  0  0  0
   -3.3798    4.7838   10.4597 O   0  0  0  0  0  0  0  0  0  0  0  0
   -5.5574    4.8899   10.3316 O   0  0  0  0  0  0  0  0  0  0  0  0
   -6.3887    4.6485   10.6904 H   0  0  0  0  0  0  0  0  0  0  0  0
   -5.5284    5.5276   13.6495 S   0  0  0  0  0  0  0  0  0  0  0  0
   -6.6028    6.0311   12.8489 O   0  0  0  0  0  0  0  0  0  0  0  0
   -5.5979    5.8109   15.0267 O   0  0  0  0  0  0  0  0  0  0  0  0
   -4.3515    6.5171   13.1763 N   0  0  0  0  0  0  0  0  0  0  0  0
   -4.7131    7.4662   13.2711 H   0  0  0  0  0  0  0  0  0  0  0  0
   -3.0484    6.4983   13.8397 C   0  0  0  0  0  0  0  0  0  0  0  0
   -2.8714    7.7012   14.7719 C   0  0  0  0  0  0  0  0  0  0  0  0
   -1.4948    8.2994   14.6743 C   0  0  0  0  0  0  0  0  0  0  0  0
   -1.5578    9.8272   14.5746 C   0  0  0  0  0  0  0  0  0  0  0  0
   -1.7299   10.3596   13.1627 C   0  0  0  0  0  0  0  0  0  0  0  0
  7  8  2  0  0  0
  8  9  2  0  0  0
  8 10  1  0  0  0
  8  1  1  0  0  0
  1  2  1  0  0  0
  1  5  2  0  0  0
  2  3  2  0  0  0
  3  4  1  0  0  0
  4 13  1  0  0  0
  4  6  2  0  0  0
 13 14  2  0  0  0
 13 15  1  0  0  0
  5  6  1  0  0  0
  6 17  1  0  0  0
 17 18  2  0  0  0
 17 19  2  0  0  0
 17 20  1  0  0  0
 20 22  1  0  0  0
 22 23  1  0  0  0
 23 24  1  0  0  0
 24 25  1  0  0  0
 25 26  1  0  0  0
 10 11  1  0  0  0
 10 12  1  0  0  0
 15 16  1  0  0  0
 20 21  1  0  0  0
M  END
> <minimizedAffinity>
-6.65518

$$$$
5AMG_IW7_A_266


 26 26  0  0  0  0  0  0  0  0999 V2000
   -0.2218    4.9100   10.9766 C   0  0  0  0  0  0  0  0  0  0  0  0
   -0.8693    4.8600    9.7161 C   0  0  0  0  0  0  0  0  0  0  0  0
   -2.2333    4.5594    9.5864 C   0  0  0  0  0  0  0  0  0  0  0  0
   -2.9968    4.2965   10.7155 C   0  0  0  0  0  0  0  0  0  0  0  0
   -0.9759    4.6076   12.1291 C   0  0  0  0  0  0  0  0  0  0  0  0
   -2.3435    4.2932   12.0477 C   0  0  0  0  0  0  0  0  0  0  0  0
    1.5773    6.3608   12.0627 O   0  0  0  0  0  0  0  0  0  0  0  0
    1.3943    5.2635   11.1405 S   0  0  0  0  0  0  0  0  0  0  0  0
    1.9346    5.5290    9.8432 O   0  0  0  0  0  0  0  0  0  0  0  0
    2.2098    3.9940   11.6223 N   0  0  0  0  0  0  0  0  0  0  0  0
    3.1958    4.2382   11.7144 H   0  0  0  0  0  0  0  0  0  0  0  0
    2.1076    3.2445   10.9381 H   0  0  0  0  0  0  0  0  0  0  0  0
   -4.4165    3.9260   10.5262 C   0  0  0  0  0  0  0  0  0  0  0  0
   -4.6797    2.7640   10.3847 O   0  0  0  0  0  0  0  0  0  0  0  0
   -5.3669    4.8282   10.5749 O   0  0  0  0  0  0  0  0  0  0  0  0
   -5.1490    5.7328   10.6858 H   0  0  0  0  0  0  0  0  0  0  0  0
   -3.1907    4.0031   13.4007 S   0  0  0  0  0  0  0  0  0  0  0  0
   -2.4920    4.0378   14.6495 O   0  0  0  0  0  0  0  0  0  0  0  0
   -4.4350    4.6608   13.3697 O   0  0  0  0  0  0  0  0  0  0  0  0
   -3.6422    2.4591   13.3860 N   0  0  0  0  0  0  0  0  0  0  0  0
   -2.9003    1.9342   13.8492 H   0  0  0  0  0  0  0  0  0  0  0  0
   -4.8989    2.0429   14.0072 C   0  0  0  0  0  0  0  0  0  0  0  0
   -4.6668    1.0114   15.1161 C   0  0  0  0  0  0  0  0  0  0  0  0
   -5.0032    1.5542   16.4780 C   0  0  0  0  0  0  0  0  0  0  0  0
   -6.0243    0.6645   17.1948 C   0  0  0  0  0  0  0  0  0  0  0  0
   -7.4688    1.1026   17.0271 C   0  0  0  0  0  0  0  0  0  0  0  0
  7  8  2  0  0  0
  8  9  2  0  0  0
  8 10  1  0  0  0
  8  1  1  0  0  0
  1  2  1  0  0  0
  1  5  2  0  0  0
  2  3  2  0  0  0
  3  4  1  0  0  0
  4 13  1  0  0  0
  4  6  2  0  0  0
 13 14  2  0  0  0
 13 15  1  0  0  0
  5  6  1  0  0  0
  6 17  1  0  0  0
 17 18  2  0  0  0
 17 19  2  0  0  0
 17 20  1  0  0  0
 20 22  1  0  0  0
 22 23  1  0  0  0
 23 24  1  0  0  0
 24 25  1  0  0  0
 25 26  1  0  0  0
 10 11  1  0  0  0
 10 12  1  0  0  0
 15 16  1  0  0  0
 20 21  1  0  0  0
M  END
> <minimizedAffinity>
-6.40009

$$$$
5AMG_IW7_A_266


 26 26  0  0  0  0  0  0  0  0999 V2000
   -4.9905    2.7054   15.2014 C   0  0  0  0  0  0  0  0  0  0  0  0
   -6.1327    3.5443   15.2478 C   0  0  0  0  0  0  0  0  0  0  0  0
   -6.3259    4.5969   14.3411 C   0  0  0  0  0  0  0  0  0  0  0  0
   -5.3802    4.8475   13.3563 C   0  0  0  0  0  0  0  0  0  0  0  0
   -4.0029    2.9720   14.2308 C   0  0  0  0  0  0  0  0  0  0  0  0
   -4.1493    4.0206   13.3062 C   0  0  0  0  0  0  0  0  0  0  0  0
   -5.4516    1.7157   17.5099 O   0  0  0  0  0  0  0  0  0  0  0  0
   -4.7516    1.4567   16.2726 S   0  0  0  0  0  0  0  0  0  0  0  0
   -3.3443    1.2779   16.4546 O   0  0  0  0  0  0  0  0  0  0  0  0
   -5.2173    0.0759   15.6520 N   0  0  0  0  0  0  0  0  0  0  0  0
   -5.0600   -0.6712   16.3284 H   0  0  0  0  0  0  0  0  0  0  0  0
   -4.6818   -0.1140   14.8050 H   0  0  0  0  0  0  0  0  0  0  0  0
   -5.5968    6.0044   12.4601 C   0  0  0  0  0  0  0  0  0  0  0  0
   -6.6254    6.0532   11.8444 O   0  0  0  0  0  0  0  0  0  0  0  0
   -4.7238    6.9802   12.3864 O   0  0  0  0  0  0  0  0  0  0  0  0
   -3.9239    6.9309   12.8719 H   0  0  0  0  0  0  0  0  0  0  0  0
   -3.0170    4.2633   12.1697 S   0  0  0  0  0  0  0  0  0  0  0  0
   -1.8922    3.3784   12.1443 O   0  0  0  0  0  0  0  0  0  0  0  0
   -3.6044    4.5528   10.9236 O   0  0  0  0  0  0  0  0  0  0  0  0
   -2.2656    5.6467   12.5007 N   0  0  0  0  0  0  0  0  0  0  0  0
   -2.9499    6.3904   12.3620 H   0  0  0  0  0  0  0  0  0  0  0  0
   -1.6629    5.8733   13.8137 C   0  0  0  0  0  0  0  0  0  0  0  0
   -2.3856    6.9837   14.5833 C   0  0  0  0  0  0  0  0  0  0  0  0
   -1.4574    8.0993   14.9787 C   0  0  0  0  0  0  0  0  0  0  0  0
   -1.9994    9.4600   14.5282 C   0  0  0  0  0  0  0  0  0  0  0  0
   -1.7828    9.7684   13.0570 C   0  0  0  0  0  0  0  0  0  0  0  0
  7  8  2  0  0  0
  8  9  2  0  0  0
  8 10  1  0  0  0
  8  1  1  0  0  0
  1  2  1  0  0  0
  1  5  2  0  0  0
  2  3  2  0  0  0
  3  4  1  0  0  0
  4 13  1  0  0  0
  4  6  2  0  0  0
 13 14  2  0  0  0
 13 15  1  0  0  0
  5  6  1  0  0  0
  6 17  1  0  0  0
 17 18  2  0  0  0
 17 19  2  0  0  0
 17 20  1  0  0  0
 20 22  1  0  0  0
 22 23  1  0  0  0
 23 24  1  0  0  0
 24 25  1  0  0  0
 25 26  1  0  0  0
 10 11  1  0  0  0
 10 12  1  0  0  0
 15 16  1  0  0  0
 20 21  1  0  0  0
M  END
> <minimizedAffinity>
-6.39665

$$$$
5AMG_IW7_A_266


 26 26  0  0  0  0  0  0  0  0999 V2000
   -4.5372    1.8430   14.2113 C   0  0  0  0  0  0  0  0  0  0  0  0
   -4.6188    1.3003   12.9039 C   0  0  0  0  0  0  0  0  0  0  0  0
   -4.5222    2.0984   11.7545 C   0  0  0  0  0  0  0  0  0  0  0  0
   -4.3419    3.4696   11.8744 C   0  0  0  0  0  0  0  0  0  0  0  0
   -4.3927    3.2390   14.3490 C   0  0  0  0  0  0  0  0  0  0  0  0
   -4.2994    4.0796   13.2263 C   0  0  0  0  0  0  0  0  0  0  0  0
   -3.5677    1.2051   16.4861 O   0  0  0  0  0  0  0  0  0  0  0  0
   -4.6526    0.9058   15.5796 S   0  0  0  0  0  0  0  0  0  0  0  0
   -4.6879   -0.4688   15.1863 O   0  0  0  0  0  0  0  0  0  0  0  0
   -6.0482    1.1154   16.2985 N   0  0  0  0  0  0  0  0  0  0  0  0
   -6.0922    0.5301   17.1327 H   0  0  0  0  0  0  0  0  0  0  0  0
   -6.8012    0.8562   15.6612 H   0  0  0  0  0  0  0  0  0  0  0  0
   -4.3051    4.2787   10.6365 C   0  0  0  0  0  0  0  0  0  0  0  0
   -3.3049    4.2473    9.9745 O   0  0  0  0  0  0  0  0  0  0  0  0
   -5.3525    4.9596   10.2378 O   0  0  0  0  0  0  0  0  0  0  0  0
   -6.1280    4.9767   10.7634 H   0  0  0  0  0  0  0  0  0  0  0  0
   -4.0799    5.6750   13.4241 S   0  0  0  0  0  0  0  0  0  0  0  0
   -4.7108    6.5591   12.4919 O   0  0  0  0  0  0  0  0  0  0  0  0
   -4.1778    6.0350   14.7815 O   0  0  0  0  0  0  0  0  0  0  0  0
   -2.5374    6.0094   13.1128 N   0  0  0  0  0  0  0  0  0  0  0  0
   -2.2461    6.7058   13.7987 H   0  0  0  0  0  0  0  0  0  0  0  0
   -1.5257    4.9536   13.1339 C   0  0  0  0  0  0  0  0  0  0  0  0
   -0.5235    5.1082   11.9854 C   0  0  0  0  0  0  0  0  0  0  0  0
   -0.0960    3.7814   11.4204 C   0  0  0  0  0  0  0  0  0  0  0  0
    1.2246    3.9030   10.6526 C   0  0  0  0  0  0  0  0  0  0  0  0
    2.2656    4.7806   11.3254 C   0  0  0  0  0  0  0  0  0  0  0  0
  7  8  2  0  0  0
  8  9  2  0  0  0
  8 10  1  0  0  0
  8  1  1  0  0  0
  1  2  1  0  0  0
  1  5  2  0  0  0
  2  3  2  0  0  0
  3  4  1  0  0  0
  4 13  1  0  0  0
  4  6  2  0  0  0
 13 14  2  0  0  0
 13 15  1  0  0  0
  5  6  1  0  0  0
  6 17  1  0  0  0
 17 18  2  0  0  0
 17 19  2  0  0  0
 17 20  1  0  0  0
 20 22  1  0  0  0
 22 23  1  0  0  0
 23 24  1  0  0  0
 24 25  1  0  0  0
 25 26  1  0  0  0
 10 11  1  0  0  0
 10 12  1  0  0  0
 15 16  1  0  0  0
 20 21  1  0  0  0
M  END
> <minimizedAffinity>
-6.36737

$$$$
5AMG_IW7_A_266


 26 26  0  0  0  0  0  0  0  0999 V2000
   -4.9931    2.2048   14.7589 C   0  0  0  0  0  0  0  0  0  0  0  0
   -5.4770    3.3752   15.3964 C   0  0  0  0  0  0  0  0  0  0  0  0
   -5.6367    4.5891   14.7120 C   0  0  0  0  0  0  0  0  0  0  0  0
   -5.3155    4.6738   13.3641 C   0  0  0  0  0  0  0  0  0  0  0  0
   -4.6264    2.2856   13.3997 C   0  0  0  0  0  0  0  0  0  0  0  0
   -4.7615    3.4824   12.6748 C   0  0  0  0  0  0  0  0  0  0  0  0
   -3.6136    0.8032   16.3879 O   0  0  0  0  0  0  0  0  0  0  0  0
   -4.7985    0.7622   15.5618 S   0  0  0  0  0  0  0  0  0  0  0  0
   -4.7701   -0.2937   14.5975 O   0  0  0  0  0  0  0  0  0  0  0  0
   -6.0727    0.4211   16.4386 N   0  0  0  0  0  0  0  0  0  0  0  0
   -5.9269   -0.4667   16.9192 H   0  0  0  0  0  0  0  0  0  0  0  0
   -6.8918    0.3504   15.8349 H   0  0  0  0  0  0  0  0  0  0  0  0
   -5.4436    5.9886   12.6983 C   0  0  0  0  0  0  0  0  0  0  0  0
   -4.4661    6.6810   12.6296 O   0  0  0  0  0  0  0  0  0  0  0  0
   -6.5711    6.3624   12.1427 O   0  0  0  0  0  0  0  0  0  0  0  0
   -7.3278    5.8132   12.2030 H   0  0  0  0  0  0  0  0  0  0  0  0
   -4.3796    3.5230   11.0984 S   0  0  0  0  0  0  0  0  0  0  0  0
   -4.0799    2.2830   10.4492 O   0  0  0  0  0  0  0  0  0  0  0  0
   -5.2258    4.4008   10.3949 O   0  0  0  0  0  0  0  0  0  0  0  0
   -2.9565    4.2580   10.9481 N   0  0  0  0  0  0  0  0  0  0  0  0
   -3.1264    5.2536   11.0901 H   0  0  0  0  0  0  0  0  0  0  0  0
   -1.8349    3.8978   11.8147 C   0  0  0  0  0  0  0  0  0  0  0  0
   -1.2638    5.1217   12.5379 C   0  0  0  0  0  0  0  0  0  0  0  0
    0.0425    5.5748   11.9457 C   0  0  0  0  0  0  0  0  0  0  0  0
    0.7108    4.4509   11.1467 C   0  0  0  0  0  0  0  0  0  0  0  0
    2.2243    4.5481   11.0681 C   0  0  0  0  0  0  0  0  0  0  0  0
  7  8  2  0  0  0
  8  9  2  0  0  0
  8 10  1  0  0  0
  8  1  1  0  0  0
  1  2  1  0  0  0
  1  5  2  0  0  0
  2  3  2  0  0  0
  3  4  1  0  0  0
  4 13  1  0  0  0
  4  6  2  0  0  0
 13 14  2  0  0  0
 13 15  1  0  0  0
  5  6  1  0  0  0
  6 17  1  0  0  0
 17 18  2  0  0  0
 17 19  2  0  0  0
 17 20  1  0  0  0
 20 22  1  0  0  0
 22 23  1  0  0  0
 23 24  1  0  0  0
 24 25  1  0  0  0
 25 26  1  0  0  0
 10 11  1  0  0  0
 10 12  1  0  0  0
 15 16  1  0  0  0
 20 21  1  0  0  0
M  END
> <minimizedAffinity>
-6.31215

$$$$
5AMG_IW7_A_266


 26 26  0  0  0  0  0  0  0  0999 V2000
   -5.0326    6.5590   11.3922 C   0  0  0  0  0  0  0  0  0  0  0  0
   -3.9640    7.3387   11.9028 C   0  0  0  0  0  0  0  0  0  0  0  0
   -2.8624    6.7642   12.5539 C   0  0  0  0  0  0  0  0  0  0  0  0
   -2.7932    5.3875   12.7180 C   0  0  0  0  0  0  0  0  0  0  0  0
   -4.9946    5.1627   11.5854 C   0  0  0  0  0  0  0  0  0  0  0  0
   -3.9151    4.5431   12.2387 C   0  0  0  0  0  0  0  0  0  0  0  0
   -5.9784    8.4916   10.0168 O   0  0  0  0  0  0  0  0  0  0  0  0
   -6.3433    7.2306   10.6208 S   0  0  0  0  0  0  0  0  0  0  0  0
   -7.4116    7.3520   11.5639 O   0  0  0  0  0  0  0  0  0  0  0  0
   -6.9303    6.2438    9.5299 N   0  0  0  0  0  0  0  0  0  0  0  0
   -7.7314    6.6797    9.0731 H   0  0  0  0  0  0  0  0  0  0  0  0
   -7.2252    5.3769    9.9791 H   0  0  0  0  0  0  0  0  0  0  0  0
   -1.6424    4.8312   13.4627 C   0  0  0  0  0  0  0  0  0  0  0  0
   -1.8008    4.5599   14.6207 O   0  0  0  0  0  0  0  0  0  0  0  0
   -0.5024    4.5809   12.8648 O   0  0  0  0  0  0  0  0  0  0  0  0
   -0.3905    4.7973   11.9600 H   0  0  0  0  0  0  0  0  0  0  0  0
   -3.8808    2.9285   12.3951 S   0  0  0  0  0  0  0  0  0  0  0  0
   -4.9456    2.1751   11.8055 O   0  0  0  0  0  0  0  0  0  0  0  0
   -2.5813    2.4275   12.1899 O   0  0  0  0  0  0  0  0  0  0  0  0
   -4.1226    2.5715   13.9450 N   0  0  0  0  0  0  0  0  0  0  0  0
   -3.6690    3.3066   14.4874 H   0  0  0  0  0  0  0  0  0  0  0  0
   -5.4780    2.4355   14.4771 C   0  0  0  0  0  0  0  0  0  0  0  0
   -5.9092    3.6853   15.2512 C   0  0  0  0  0  0  0  0  0  0  0  0
   -6.8210    3.3563   16.4013 C   0  0  0  0  0  0  0  0  0  0  0  0
   -6.4079    2.0471   17.0820 C   0  0  0  0  0  0  0  0  0  0  0  0
   -7.4713    0.9630   17.0602 C   0  0  0  0  0  0  0  0  0  0  0  0
  7  8  2  0  0  0
  8  9  2  0  0  0
  8 10  1  0  0  0
  8  1  1  0  0  0
  1  2  1  0  0  0
  1  5  2  0  0  0
  2  3  2  0  0  0
  3  4  1  0  0  0
  4 13  1  0  0  0
  4  6  2  0  0  0
 13 14  2  0  0  0
 13 15  1  0  0  0
  5  6  1  0  0  0
  6 17  1  0  0  0
 17 18  2  0  0  0
 17 19  2  0  0  0
 17 20  1  0  0  0
 20 22  1  0  0  0
 22 23  1  0  0  0
 23 24  1  0  0  0
 24 25  1  0  0  0
 25 26  1  0  0  0
 10 11  1  0  0  0
 10 12  1  0  0  0
 15 16  1  0  0  0
 20 21  1  0  0  0
M  END
> <minimizedAffinity>
-6.29733

$$$$
