1UWU_GOX_A_1490


 19 19  0  0  0  0  0  0  0  0999 V2000
   74.7046   21.0475   89.5161 C   0  0  0  0  0  0  0  0  0  0  0  0
   75.2239   21.1952   90.7256 N   0  0  0  0  0  0  0  0  0  0  0  0
   74.0461   22.3174   88.9348 C   0  0  0  0  0  0  0  0  0  0  0  0
   74.7784   19.7945   88.8711 N   0  0  0  0  0  0  0  0  0  0  0  0
   75.9888   20.1373   91.2257 O   0  0  0  0  0  0  0  0  0  0  0  0
   73.0629   22.7668   89.8276 O   0  0  0  0  0  0  0  0  0  0  0  0
   73.4098   22.0353   87.5700 C   0  0  0  0  0  0  0  0  0  0  0  0
   73.2544   23.3436   86.9789 O   0  0  0  0  0  0  0  0  0  0  0  0
   74.3321   21.0455   86.7722 C   0  0  0  0  0  0  0  0  0  0  0  0
   73.9010   20.9396   85.4377 O   0  0  0  0  0  0  0  0  0  0  0  0
   74.3037   19.6634   87.4890 C   0  0  0  0  0  0  0  0  0  0  0  0
   75.1459   19.0139   89.3452 H   0  0  0  0  0  0  0  0  0  0  0  0
   76.3748   20.1998   92.0772 H   0  0  0  0  0  0  0  0  0  0  0  0
   72.3882   22.0788   89.9386 H   0  0  0  0  0  0  0  0  0  0  0  0
   74.1149   23.7903   86.9515 H   0  0  0  0  0  0  0  0  0  0  0  0
   72.9895   20.6085   85.4177 H   0  0  0  0  0  0  0  0  0  0  0  0
   75.1856   18.5595   86.8766 C   0  0  0  0  0  0  0  0  0  0  0  0
   76.5381   18.9181   86.9714 O   0  0  0  0  0  0  0  0  0  0  0  0
   76.6876   19.7460   86.4886 H   0  0  0  0  0  0  0  0  0  0  0  0
  1  2  2  0  0  0
  1  3  1  0  0  0
  1  4  1  0  0  0
  2  5  1  0  0  0
  3  6  1  0  0  0
  3  7  1  0  0  0
  4 11  1  0  0  0
  7  8  1  0  0  0
  7  9  1  0  0  0
  9 10  1  0  0  0
  9 11  1  0  0  0
 11 17  1  0  0  0
 17 18  1  0  0  0
  4 12  1  0  0  0
  5 13  1  0  0  0
  6 14  1  0  0  0
  8 15  1  0  0  0
 10 16  1  0  0  0
 18 19  1  0  0  0
M  END
> <minimizedAffinity>
-8.02885

$$$$
1UWU_GOX_A_1490


 19 19  0  0  0  0  0  0  0  0999 V2000
   75.0179   21.5827   89.2469 C   0  0  0  0  0  0  0  0  0  0  0  0
   73.9460   22.3368   89.0548 N   0  0  0  0  0  0  0  0  0  0  0  0
   76.0520   21.6237   88.1011 C   0  0  0  0  0  0  0  0  0  0  0  0
   75.1350   20.8214   90.4294 N   0  0  0  0  0  0  0  0  0  0  0  0
   73.0655   22.4812   90.1311 O   0  0  0  0  0  0  0  0  0  0  0  0
   75.4173   21.2597   86.9051 O   0  0  0  0  0  0  0  0  0  0  0  0
   77.2185   20.6688   88.3744 C   0  0  0  0  0  0  0  0  0  0  0  0
   78.2665   21.1362   87.4979 O   0  0  0  0  0  0  0  0  0  0  0  0
   77.5606   20.7071   89.9068 C   0  0  0  0  0  0  0  0  0  0  0  0
   78.7621   20.0212   90.1594 O   0  0  0  0  0  0  0  0  0  0  0  0
   76.3718   20.0765   90.6904 C   0  0  0  0  0  0  0  0  0  0  0  0
   74.3920   20.7903   91.0746 H   0  0  0  0  0  0  0  0  0  0  0  0
   72.2947   23.0059   90.0388 H   0  0  0  0  0  0  0  0  0  0  0  0
   75.0657   20.3594   86.9867 H   0  0  0  0  0  0  0  0  0  0  0  0
   78.4452   22.0724   87.6782 H   0  0  0  0  0  0  0  0  0  0  0  0
   78.6723   19.0973   89.8782 H   0  0  0  0  0  0  0  0  0  0  0  0
   76.4999   20.0582   92.2249 C   0  0  0  0  0  0  0  0  0  0  0  0
   77.2960   21.1306   92.6527 O   0  0  0  0  0  0  0  0  0  0  0  0
   78.1801   21.0533   92.2610 H   0  0  0  0  0  0  0  0  0  0  0  0
  1  2  2  0  0  0
  1  3  1  0  0  0
  1  4  1  0  0  0
  2  5  1  0  0  0
  3  6  1  0  0  0
  3  7  1  0  0  0
  4 11  1  0  0  0
  7  8  1  0  0  0
  7  9  1  0  0  0
  9 10  1  0  0  0
  9 11  1  0  0  0
 11 17  1  0  0  0
 17 18  1  0  0  0
  4 12  1  0  0  0
  5 13  1  0  0  0
  6 14  1  0  0  0
  8 15  1  0  0  0
 10 16  1  0  0  0
 18 19  1  0  0  0
M  END
> <minimizedAffinity>
-7.25501

$$$$
1UWU_GOX_A_1490


 19 19  0  0  0  0  0  0  0  0999 V2000
   78.1810   20.5393   88.7971 C   0  0  0  0  0  0  0  0  0  0  0  0
   79.3570   20.8054   88.2487 N   0  0  0  0  0  0  0  0  0  0  0  0
   78.1459   20.6455   90.3370 C   0  0  0  0  0  0  0  0  0  0  0  0
   77.0896   20.1859   87.9752 N   0  0  0  0  0  0  0  0  0  0  0  0
   79.4043   20.9025   86.8548 O   0  0  0  0  0  0  0  0  0  0  0  0
   79.1274   19.7989   90.8717 O   0  0  0  0  0  0  0  0  0  0  0  0
   76.7719   20.2504   90.8876 C   0  0  0  0  0  0  0  0  0  0  0  0
   76.7516   20.8147   92.2166 O   0  0  0  0  0  0  0  0  0  0  0  0
   75.6600   20.7856   89.9159 C   0  0  0  0  0  0  0  0  0  0  0  0
   74.3878   20.6410   90.4976 O   0  0  0  0  0  0  0  0  0  0  0  0
   75.7629   20.0020   88.5742 C   0  0  0  0  0  0  0  0  0  0  0  0
   77.2175   20.0636   87.0067 H   0  0  0  0  0  0  0  0  0  0  0  0
   80.2159   21.0894   86.4255 H   0  0  0  0  0  0  0  0  0  0  0  0
   78.9422   18.8835   90.6099 H   0  0  0  0  0  0  0  0  0  0  0  0
   76.9198   21.7686   92.1654 H   0  0  0  0  0  0  0  0  0  0  0  0
   74.2216   19.7034   90.6828 H   0  0  0  0  0  0  0  0  0  0  0  0
   74.7745   20.4130   87.4671 C   0  0  0  0  0  0  0  0  0  0  0  0
   73.5542   19.7443   87.6410 O   0  0  0  0  0  0  0  0  0  0  0  0
   73.7007   18.7865   87.5940 H   0  0  0  0  0  0  0  0  0  0  0  0
  1  2  2  0  0  0
  1  3  1  0  0  0
  1  4  1  0  0  0
  2  5  1  0  0  0
  3  6  1  0  0  0
  3  7  1  0  0  0
  4 11  1  0  0  0
  7  8  1  0  0  0
  7  9  1  0  0  0
  9 10  1  0  0  0
  9 11  1  0  0  0
 11 17  1  0  0  0
 17 18  1  0  0  0
  4 12  1  0  0  0
  5 13  1  0  0  0
  6 14  1  0  0  0
  8 15  1  0  0  0
 10 16  1  0  0  0
 18 19  1  0  0  0
M  END
> <minimizedAffinity>
-7.13895

$$$$
1UWU_GOX_A_1490


 19 19  0  0  0  0  0  0  0  0999 V2000
   75.3620   21.3933   88.0573 C   0  0  0  0  0  0  0  0  0  0  0  0
   74.3206   21.2703   87.2480 N   0  0  0  0  0  0  0  0  0  0  0  0
   75.1167   20.9158   89.5050 C   0  0  0  0  0  0  0  0  0  0  0  0
   76.5695   21.9342   87.5665 N   0  0  0  0  0  0  0  0  0  0  0  0
   74.5359   21.5152   85.8885 O   0  0  0  0  0  0  0  0  0  0  0  0
   74.0166   21.6085   90.0300 O   0  0  0  0  0  0  0  0  0  0  0  0
   76.3464   21.1630   90.3848 C   0  0  0  0  0  0  0  0  0  0  0  0
   76.1461   20.2925   91.5193 O   0  0  0  0  0  0  0  0  0  0  0  0
   77.6413   20.8783   89.5429 C   0  0  0  0  0  0  0  0  0  0  0  0
   78.7765   20.8752   90.3731 O   0  0  0  0  0  0  0  0  0  0  0  0
   77.7532   21.9648   88.4329 C   0  0  0  0  0  0  0  0  0  0  0  0
   76.6173   22.2885   86.6492 H   0  0  0  0  0  0  0  0  0  0  0  0
   73.8267   21.4396   85.2808 H   0  0  0  0  0  0  0  0  0  0  0  0
   74.2058   22.5598   90.0347 H   0  0  0  0  0  0  0  0  0  0  0  0
   76.0330   19.3799   91.2106 H   0  0  0  0  0  0  0  0  0  0  0  0
   78.8635   21.7393   90.8051 H   0  0  0  0  0  0  0  0  0  0  0  0
   78.9463   21.8338   87.4683 C   0  0  0  0  0  0  0  0  0  0  0  0
   79.3154   20.4867   87.3420 O   0  0  0  0  0  0  0  0  0  0  0  0
   79.5717   20.1388   88.2104 H   0  0  0  0  0  0  0  0  0  0  0  0
  1  2  2  0  0  0
  1  3  1  0  0  0
  1  4  1  0  0  0
  2  5  1  0  0  0
  3  6  1  0  0  0
  3  7  1  0  0  0
  4 11  1  0  0  0
  7  8  1  0  0  0
  7  9  1  0  0  0
  9 10  1  0  0  0
  9 11  1  0  0  0
 11 17  1  0  0  0
 17 18  1  0  0  0
  4 12  1  0  0  0
  5 13  1  0  0  0
  6 14  1  0  0  0
  8 15  1  0  0  0
 10 16  1  0  0  0
 18 19  1  0  0  0
M  END
> <minimizedAffinity>
-7.02697

$$$$
1UWU_GOX_A_1490


 19 19  0  0  0  0  0  0  0  0999 V2000
   74.4458   21.4563   88.8304 C   0  0  0  0  0  0  0  0  0  0  0  0
   73.2971   22.1122   88.7624 N   0  0  0  0  0  0  0  0  0  0  0  0
   74.6423   20.3801   87.7409 C   0  0  0  0  0  0  0  0  0  0  0  0
   75.3689   21.7660   89.8519 N   0  0  0  0  0  0  0  0  0  0  0  0
   73.1410   23.2160   89.6061 O   0  0  0  0  0  0  0  0  0  0  0  0
   73.5705   19.4779   87.7970 O   0  0  0  0  0  0  0  0  0  0  0  0
   75.9601   19.6247   87.9408 C   0  0  0  0  0  0  0  0  0  0  0  0
   76.2104   19.0113   86.6578 O   0  0  0  0  0  0  0  0  0  0  0  0
   77.0595   20.6364   88.4251 C   0  0  0  0  0  0  0  0  0  0  0  0
   78.3286   20.0308   88.4032 O   0  0  0  0  0  0  0  0  0  0  0  0
   76.6854   21.1182   89.8579 C   0  0  0  0  0  0  0  0  0  0  0  0
   75.1313   22.4123   90.5556 H   0  0  0  0  0  0  0  0  0  0  0  0
   72.3441   23.7086   89.5905 H   0  0  0  0  0  0  0  0  0  0  0  0
   73.5521   19.0516   88.6681 H   0  0  0  0  0  0  0  0  0  0  0  0
   76.2239   19.6949   85.9697 H   0  0  0  0  0  0  0  0  0  0  0  0
   78.3286   19.2586   88.9902 H   0  0  0  0  0  0  0  0  0  0  0  0
   77.6278   22.1553   90.4962 C   0  0  0  0  0  0  0  0  0  0  0  0
   78.5127   22.6575   89.5311 O   0  0  0  0  0  0  0  0  0  0  0  0
   79.0425   21.9304   89.1685 H   0  0  0  0  0  0  0  0  0  0  0  0
  1  2  2  0  0  0
  1  3  1  0  0  0
  1  4  1  0  0  0
  2  5  1  0  0  0
  3  6  1  0  0  0
  3  7  1  0  0  0
  4 11  1  0  0  0
  7  8  1  0  0  0
  7  9  1  0  0  0
  9 10  1  0  0  0
  9 11  1  0  0  0
 11 17  1  0  0  0
 17 18  1  0  0  0
  4 12  1  0  0  0
  5 13  1  0  0  0
  6 14  1  0  0  0
  8 15  1  0  0  0
 10 16  1  0  0  0
 18 19  1  0  0  0
M  END
> <minimizedAffinity>
-6.76517

$$$$
1UWU_GOX_A_1490


 19 19  0  0  0  0  0  0  0  0999 V2000
   77.1913   19.5610   93.5156 C   0  0  0  0  0  0  0  0  0  0  0  0
   76.5948   19.0612   94.5875 N   0  0  0  0  0  0  0  0  0  0  0  0
   78.7311   19.4466   93.5191 C   0  0  0  0  0  0  0  0  0  0  0  0
   76.4155   20.1444   92.4913 N   0  0  0  0  0  0  0  0  0  0  0  0
   75.1999   18.9727   94.5591 O   0  0  0  0  0  0  0  0  0  0  0  0
   79.2283   20.0628   94.6762 O   0  0  0  0  0  0  0  0  0  0  0  0
   79.3381   20.1139   92.2808 C   0  0  0  0  0  0  0  0  0  0  0  0
   80.6651   19.5508   92.1946 O   0  0  0  0  0  0  0  0  0  0  0  0
   78.4107   19.8344   91.0446 C   0  0  0  0  0  0  0  0  0  0  0  0
   79.0439   20.2351   89.8545 O   0  0  0  0  0  0  0  0  0  0  0  0
   77.0684   20.5947   91.2569 C   0  0  0  0  0  0  0  0  0  0  0  0
   75.4430   20.2485   92.6041 H   0  0  0  0  0  0  0  0  0  0  0  0
   74.7374   18.6252   95.2962 H   0  0  0  0  0  0  0  0  0  0  0  0
   78.9772   20.9998   94.6769 H   0  0  0  0  0  0  0  0  0  0  0  0
   80.6040   18.5835   92.1572 H   0  0  0  0  0  0  0  0  0  0  0  0
   79.2387   21.1845   89.8957 H   0  0  0  0  0  0  0  0  0  0  0  0
   76.0010   20.4125   90.1620 C   0  0  0  0  0  0  0  0  0  0  0  0
   74.7214   20.6048   90.7027 O   0  0  0  0  0  0  0  0  0  0  0  0
   74.5665   19.9550   91.4061 H   0  0  0  0  0  0  0  0  0  0  0  0
  1  2  2  0  0  0
  1  3  1  0  0  0
  1  4  1  0  0  0
  2  5  1  0  0  0
  3  6  1  0  0  0
  3  7  1  0  0  0
  4 11  1  0  0  0
  7  8  1  0  0  0
  7  9  1  0  0  0
  9 10  1  0  0  0
  9 11  1  0  0  0
 11 17  1  0  0  0
 17 18  1  0  0  0
  4 12  1  0  0  0
  5 13  1  0  0  0
  6 14  1  0  0  0
  8 15  1  0  0  0
 10 16  1  0  0  0
 18 19  1  0  0  0
M  END
> <minimizedAffinity>
-6.32691

$$$$
1UWU_GOX_A_1490


 19 19  0  0  0  0  0  0  0  0999 V2000
   77.3348   20.9458   88.4320 C   0  0  0  0  0  0  0  0  0  0  0  0
   78.5790   21.3825   88.3060 N   0  0  0  0  0  0  0  0  0  0  0  0
   76.3844   21.9059   89.1797 C   0  0  0  0  0  0  0  0  0  0  0  0
   76.9784   19.6865   87.9042 N   0  0  0  0  0  0  0  0  0  0  0  0
   79.4353   20.6429   87.4849 O   0  0  0  0  0  0  0  0  0  0  0  0
   76.9250   22.1856   90.4427 O   0  0  0  0  0  0  0  0  0  0  0  0
   74.9913   21.2894   89.3427 C   0  0  0  0  0  0  0  0  0  0  0  0
   74.1389   22.4200   89.6258 O   0  0  0  0  0  0  0  0  0  0  0  0
   74.6319   20.4897   88.0396 C   0  0  0  0  0  0  0  0  0  0  0  0
   73.2806   20.1005   88.0587 O   0  0  0  0  0  0  0  0  0  0  0  0
   75.5766   19.2554   87.9456 C   0  0  0  0  0  0  0  0  0  0  0  0
   77.6656   19.1013   87.5111 H   0  0  0  0  0  0  0  0  0  0  0  0
   80.3239   20.9162   87.3677 H   0  0  0  0  0  0  0  0  0  0  0  0
   77.0098   21.3617   90.9478 H   0  0  0  0  0  0  0  0  0  0  0  0
   74.2229   23.0744   88.9146 H   0  0  0  0  0  0  0  0  0  0  0  0
   73.1174   19.5368   88.8311 H   0  0  0  0  0  0  0  0  0  0  0  0
   75.4069   18.3598   86.7045 C   0  0  0  0  0  0  0  0  0  0  0  0
   74.5018   18.9475   85.8089 O   0  0  0  0  0  0  0  0  0  0  0  0
   73.6404   19.0530   86.2424 H   0  0  0  0  0  0  0  0  0  0  0  0
  1  2  2  0  0  0
  1  3  1  0  0  0
  1  4  1  0  0  0
  2  5  1  0  0  0
  3  6  1  0  0  0
  3  7  1  0  0  0
  4 11  1  0  0  0
  7  8  1  0  0  0
  7  9  1  0  0  0
  9 10  1  0  0  0
  9 11  1  0  0  0
 11 17  1  0  0  0
 17 18  1  0  0  0
  4 12  1  0  0  0
  5 13  1  0  0  0
  6 14  1  0  0  0
  8 15  1  0  0  0
 10 16  1  0  0  0
 18 19  1  0  0  0
M  END
> <minimizedAffinity>
-6.31264

$$$$
1UWU_GOX_A_1490


 19 19  0  0  0  0  0  0  0  0999 V2000
   74.6739   19.9144   87.3258 C   0  0  0  0  0  0  0  0  0  0  0  0
   74.7065   18.8444   86.5457 N   0  0  0  0  0  0  0  0  0  0  0  0
   73.9762   21.1453   86.7076 C   0  0  0  0  0  0  0  0  0  0  0  0
   75.2584   19.8627   88.6092 N   0  0  0  0  0  0  0  0  0  0  0  0
   75.1612   17.6518   87.1161 O   0  0  0  0  0  0  0  0  0  0  0  0
   74.6010   21.4568   85.4917 O   0  0  0  0  0  0  0  0  0  0  0  0
   74.0505   22.3532   87.6472 C   0  0  0  0  0  0  0  0  0  0  0  0
   73.0142   23.2358   87.1656 O   0  0  0  0  0  0  0  0  0  0  0  0
   73.8747   21.8593   89.1276 C   0  0  0  0  0  0  0  0  0  0  0  0
   73.7121   22.9542   89.9951 O   0  0  0  0  0  0  0  0  0  0  0  0
   75.1222   21.0106   89.5128 C   0  0  0  0  0  0  0  0  0  0  0  0
   75.7540   19.0619   88.8963 H   0  0  0  0  0  0  0  0  0  0  0  0
   75.2005   16.8708   86.6000 H   0  0  0  0  0  0  0  0  0  0  0  0
   75.5346   21.6653   85.6521 H   0  0  0  0  0  0  0  0  0  0  0  0
   72.1658   22.7656   87.1600 H   0  0  0  0  0  0  0  0  0  0  0  0
   74.4935   23.5267   89.9431 H   0  0  0  0  0  0  0  0  0  0  0  0
   75.1200   20.3973   90.9253 C   0  0  0  0  0  0  0  0  0  0  0  0
   76.3477   20.6434   91.5571 O   0  0  0  0  0  0  0  0  0  0  0  0
   77.0636   20.2424   91.0398 H   0  0  0  0  0  0  0  0  0  0  0  0
  1  2  2  0  0  0
  1  3  1  0  0  0
  1  4  1  0  0  0
  2  5  1  0  0  0
  3  6  1  0  0  0
  3  7  1  0  0  0
  4 11  1  0  0  0
  7  8  1  0  0  0
  7  9  1  0  0  0
  9 10  1  0  0  0
  9 11  1  0  0  0
 11 17  1  0  0  0
 17 18  1  0  0  0
  4 12  1  0  0  0
  5 13  1  0  0  0
  6 14  1  0  0  0
  8 15  1  0  0  0
 10 16  1  0  0  0
 18 19  1  0  0  0
M  END
> <minimizedAffinity>
-6.24981

$$$$
1UWU_GOX_A_1490


 19 19  0  0  0  0  0  0  0  0999 V2000
   76.7427   20.4592   90.7206 C   0  0  0  0  0  0  0  0  0  0  0  0
   76.9266   19.8036   91.8568 N   0  0  0  0  0  0  0  0  0  0  0  0
   77.8772   20.2931   89.6865 C   0  0  0  0  0  0  0  0  0  0  0  0
   75.5782   21.2359   90.5414 N   0  0  0  0  0  0  0  0  0  0  0  0
   75.8555   19.7691   92.7547 O   0  0  0  0  0  0  0  0  0  0  0  0
   79.0878   20.6843   90.2757 O   0  0  0  0  0  0  0  0  0  0  0  0
   77.6162   21.1417   88.4379 C   0  0  0  0  0  0  0  0  0  0  0  0
   78.4709   20.5566   87.4318 O   0  0  0  0  0  0  0  0  0  0  0  0
   76.0801   21.1104   88.1120 C   0  0  0  0  0  0  0  0  0  0  0  0
   75.8328   21.6874   86.8536 O   0  0  0  0  0  0  0  0  0  0  0  0
   75.3236   21.8686   89.2424 C   0  0  0  0  0  0  0  0  0  0  0  0
   74.9411   21.3523   91.2829 H   0  0  0  0  0  0  0  0  0  0  0  0
   75.9425   19.3164   93.5705 H   0  0  0  0  0  0  0  0  0  0  0  0
   79.0317   21.6153   90.5422 H   0  0  0  0  0  0  0  0  0  0  0  0
   78.2661   19.6127   87.3427 H   0  0  0  0  0  0  0  0  0  0  0  0
   76.1374   22.6083   86.8546 H   0  0  0  0  0  0  0  0  0  0  0  0
   73.7889   21.9136   89.1243 C   0  0  0  0  0  0  0  0  0  0  0  0
   73.2380   22.5249   90.2600 O   0  0  0  0  0  0  0  0  0  0  0  0
   73.4793   22.0164   91.0500 H   0  0  0  0  0  0  0  0  0  0  0  0
  1  2  2  0  0  0
  1  3  1  0  0  0
  1  4  1  0  0  0
  2  5  1  0  0  0
  3  6  1  0  0  0
  3  7  1  0  0  0
  4 11  1  0  0  0
  7  8  1  0  0  0
  7  9  1  0  0  0
  9 10  1  0  0  0
  9 11  1  0  0  0
 11 17  1  0  0  0
 17 18  1  0  0  0
  4 12  1  0  0  0
  5 13  1  0  0  0
  6 14  1  0  0  0
  8 15  1  0  0  0
 10 16  1  0  0  0
 18 19  1  0  0  0
M  END
> <minimizedAffinity>
-6.14108

$$$$
1UWU_GOX_A_1490


 19 19  0  0  0  0  0  0  0  0999 V2000
   76.1901   20.5141   90.2348 C   0  0  0  0  0  0  0  0  0  0  0  0
   75.5049   20.2071   91.3261 N   0  0  0  0  0  0  0  0  0  0  0  0
   75.3253   20.8690   89.0059 C   0  0  0  0  0  0  0  0  0  0  0  0
   77.6008   20.4908   90.2646 N   0  0  0  0  0  0  0  0  0  0  0  0
   76.2284   20.0548   92.5126 O   0  0  0  0  0  0  0  0  0  0  0  0
   74.4546   19.8023   88.7417 O   0  0  0  0  0  0  0  0  0  0  0  0
   76.1970   21.1371   87.7749 C   0  0  0  0  0  0  0  0  0  0  0  0
   75.3280   21.8678   86.8827 O   0  0  0  0  0  0  0  0  0  0  0  0
   77.4923   21.9032   88.2243 C   0  0  0  0  0  0  0  0  0  0  0  0
   78.2052   22.3633   87.1027 O   0  0  0  0  0  0  0  0  0  0  0  0
   78.3565   20.9395   89.0898 C   0  0  0  0  0  0  0  0  0  0  0  0
   78.0745   20.1758   91.0681 H   0  0  0  0  0  0  0  0  0  0  0  0
   75.7834   19.8377   93.3081 H   0  0  0  0  0  0  0  0  0  0  0  0
   74.9705   19.0037   88.5498 H   0  0  0  0  0  0  0  0  0  0  0  0
   74.9921   22.6581   87.3338 H   0  0  0  0  0  0  0  0  0  0  0  0
   78.4600   21.6083   86.5495 H   0  0  0  0  0  0  0  0  0  0  0  0
   79.6606   21.5231   89.6642 C   0  0  0  0  0  0  0  0  0  0  0  0
   79.6664   22.9181   89.5199 O   0  0  0  0  0  0  0  0  0  0  0  0
   79.6058   23.1461   88.5791 H   0  0  0  0  0  0  0  0  0  0  0  0
  1  2  2  0  0  0
  1  3  1  0  0  0
  1  4  1  0  0  0
  2  5  1  0  0  0
  3  6  1  0  0  0
  3  7  1  0  0  0
  4 11  1  0  0  0
  7  8  1  0  0  0
  7  9  1  0  0  0
  9 10  1  0  0  0
  9 11  1  0  0  0
 11 17  1  0  0  0
 17 18  1  0  0  0
  4 12  1  0  0  0
  5 13  1  0  0  0
  6 14  1  0  0  0
  8 15  1  0  0  0
 10 16  1  0  0  0
 18 19  1  0  0  0
M  END
> <minimizedAffinity>
-6.12114

$$$$
