4UYE_9F9_A_1739


 30 33  0  0  0  0  0  0  0  0999 V2000
    5.7098   44.6304   19.3582 C   0  0  0  0  0  0  0  0  0  0  0  0
    5.1100   44.1919   18.1688 C   0  0  0  0  0  0  0  0  0  0  0  0
    4.1911   45.0110   17.5341 C   0  0  0  0  0  0  0  0  0  0  0  0
    3.4402   44.8771   16.3676 N   0  0  0  0  0  0  0  0  0  0  0  0
    3.3988   43.7038   15.4808 C   0  0  0  0  0  0  0  0  0  0  0  0
    2.6848   46.0184   16.1690 C   0  0  0  0  0  0  0  0  0  0  0  0
    1.9319   46.2361   15.2428 O   0  0  0  0  0  0  0  0  0  0  0  0
    2.9857   46.8704   17.2035 N   0  0  0  0  0  0  0  0  0  0  0  0
    2.4009   48.2103   17.3727 C   0  0  0  0  0  0  0  0  0  0  0  0
    3.9189   46.2687   18.0446 C   0  0  0  0  0  0  0  0  0  0  0  0
    4.5099   46.6760   19.1941 C   0  0  0  0  0  0  0  0  0  0  0  0
    5.4506   45.8964   19.9108 C   0  0  0  0  0  0  0  0  0  0  0  0
    6.0198   46.3386   21.0894 N   0  0  0  0  0  0  0  0  0  0  0  0
    5.0989   46.2377   22.2242 C   0  0  0  0  0  0  0  0  0  0  0  0
    5.8183   46.3098   23.5455 C   0  0  0  0  0  0  0  0  0  0  0  0
    6.7121   47.5302   23.6114 C   0  0  0  0  0  0  0  0  0  0  0  0
    7.6331   47.6086   22.4107 C   0  0  0  0  0  0  0  0  0  0  0  0
    6.8665   47.5254   21.1120 C   0  0  0  0  0  0  0  0  0  0  0  0
    6.5060   42.8207   20.9459 C   0  0  0  0  0  0  0  0  0  0  0  0
    5.4034   42.4105   21.2725 O   0  0  0  0  0  0  0  0  0  0  0  0
    6.6530   43.8256   20.0561 N   0  0  0  0  0  0  0  0  0  0  0  0
    7.5912   44.0426   19.8512 H   0  0  0  0  0  0  0  0  0  0  0  0
    8.9362   42.9014   21.9132 C   0  0  0  0  0  0  0  0  0  0  0  0
   10.0365   42.2110   22.4025 C   0  0  0  0  0  0  0  0  0  0  0  0
    9.9908   40.8313   22.4867 C   0  0  0  0  0  0  0  0  0  0  0  0
    8.8630   40.1512   22.0882 C   0  0  0  0  0  0  0  0  0  0  0  0
    7.7657   40.8278   21.5951 C   0  0  0  0  0  0  0  0  0  0  0  0
    7.7775   42.2228   21.4935 C   0  0  0  0  0  0  0  0  0  0  0  0
   10.1242   44.9581   22.1844 C   0  0  0  0  0  0  0  0  0  0  0  0
    8.9268   44.2628   21.8152 O   0  0  0  0  0  0  0  0  0  0  0  0
 29 30  1  0  0  0
 30 23  1  0  0  0
 23 24  1  0  0  0
 23 28  2  0  0  0
 24 25  2  0  0  0
 25 26  1  0  0  0
 26 27  2  0  0  0
 27 28  1  0  0  0
 28 19  1  0  0  0
 19 20  2  0  0  0
 19 21  1  0  0  0
 21  1  1  0  0  0
  1  2  1  0  0  0
  1 12  2  0  0  0
  2  3  2  0  0  0
  3  4  1  0  0  0
  3 10  1  0  0  0
  4  5  1  0  0  0
  4  6  1  0  0  0
  6  7  2  0  0  0
  6  8  1  0  0  0
  8  9  1  0  0  0
  8 10  1  0  0  0
 10 11  2  0  0  0
 11 12  1  0  0  0
 12 13  1  0  0  0
 13 14  1  0  0  0
 13 18  1  0  0  0
 14 15  1  0  0  0
 15 16  1  0  0  0
 16 17  1  0  0  0
 17 18  1  0  0  0
 21 22  1  0  0  0
M  END
> <minimizedAffinity>
-7.53314

$$$$
4UYE_9F9_A_1739


 30 33  0  0  0  0  0  0  0  0999 V2000
    6.1974   46.1309   21.3660 C   0  0  0  0  0  0  0  0  0  0  0  0
    6.4342   47.4377   21.8164 C   0  0  0  0  0  0  0  0  0  0  0  0
    7.1895   47.6308   22.9612 C   0  0  0  0  0  0  0  0  0  0  0  0
    7.6002   48.7697   23.6518 N   0  0  0  0  0  0  0  0  0  0  0  0
    7.2512   50.1629   23.3322 C   0  0  0  0  0  0  0  0  0  0  0  0
    8.3745   48.4001   24.7363 C   0  0  0  0  0  0  0  0  0  0  0  0
    8.9014   49.1442   25.5368 O   0  0  0  0  0  0  0  0  0  0  0  0
    8.4620   47.0297   24.7044 N   0  0  0  0  0  0  0  0  0  0  0  0
    9.2063   46.2220   25.6840 C   0  0  0  0  0  0  0  0  0  0  0  0
    7.7475   46.5438   23.6118 C   0  0  0  0  0  0  0  0  0  0  0  0
    7.5092   45.2883   23.1605 C   0  0  0  0  0  0  0  0  0  0  0  0
    6.7393   45.0031   22.0063 C   0  0  0  0  0  0  0  0  0  0  0  0
    6.5038   43.7083   21.5863 N   0  0  0  0  0  0  0  0  0  0  0  0
    5.8336   42.9042   22.6111 C   0  0  0  0  0  0  0  0  0  0  0  0
    5.2069   41.6614   22.0356 C   0  0  0  0  0  0  0  0  0  0  0  0
    6.2120   40.8723   21.2234 C   0  0  0  0  0  0  0  0  0  0  0  0
    6.8971   41.7440   20.1905 C   0  0  0  0  0  0  0  0  0  0  0  0
    7.5028   42.9788   20.8145 C   0  0  0  0  0  0  0  0  0  0  0  0
    5.2981   46.5342   19.0297 C   0  0  0  0  0  0  0  0  0  0  0  0
    5.9487   47.5388   18.7887 O   0  0  0  0  0  0  0  0  0  0  0  0
    5.4207   45.8749   20.2017 N   0  0  0  0  0  0  0  0  0  0  0  0
    4.8676   45.0627   20.2620 H   0  0  0  0  0  0  0  0  0  0  0  0
    3.1921   46.5579   17.4765 C   0  0  0  0  0  0  0  0  0  0  0  0
    2.3931   45.8894   16.5592 C   0  0  0  0  0  0  0  0  0  0  0  0
    2.7270   44.6027   16.1777 C   0  0  0  0  0  0  0  0  0  0  0  0
    3.8422   43.9926   16.7044 C   0  0  0  0  0  0  0  0  0  0  0  0
    4.6401   44.6464   17.6213 C   0  0  0  0  0  0  0  0  0  0  0  0
    4.3315   45.9475   18.0319 C   0  0  0  0  0  0  0  0  0  0  0  0
    2.6199   48.7968   16.8646 C   0  0  0  0  0  0  0  0  0  0  0  0
    2.9111   47.8306   17.8819 O   0  0  0  0  0  0  0  0  0  0  0  0
 29 30  1  0  0  0
 30 23  1  0  0  0
 23 24  1  0  0  0
 23 28  2  0  0  0
 24 25  2  0  0  0
 25 26  1  0  0  0
 26 27  2  0  0  0
 27 28  1  0  0  0
 28 19  1  0  0  0
 19 20  2  0  0  0
 19 21  1  0  0  0
 21  1  1  0  0  0
  1  2  1  0  0  0
  1 12  2  0  0  0
  2  3  2  0  0  0
  3  4  1  0  0  0
  3 10  1  0  0  0
  4  5  1  0  0  0
  4  6  1  0  0  0
  6  7  2  0  0  0
  6  8  1  0  0  0
  8  9  1  0  0  0
  8 10  1  0  0  0
 10 11  2  0  0  0
 11 12  1  0  0  0
 12 13  1  0  0  0
 13 14  1  0  0  0
 13 18  1  0  0  0
 14 15  1  0  0  0
 15 16  1  0  0  0
 16 17  1  0  0  0
 17 18  1  0  0  0
 21 22  1  0  0  0
M  END
> <minimizedAffinity>
-7.32255

$$$$
4UYE_9F9_A_1739


 30 33  0  0  0  0  0  0  0  0999 V2000
    5.7610   44.5094   19.4559 C   0  0  0  0  0  0  0  0  0  0  0  0
    5.0809   44.0873   18.3044 C   0  0  0  0  0  0  0  0  0  0  0  0
    4.2073   44.9606   17.6780 C   0  0  0  0  0  0  0  0  0  0  0  0
    3.4025   44.8550   16.5450 N   0  0  0  0  0  0  0  0  0  0  0  0
    3.2307   43.6637   15.6988 C   0  0  0  0  0  0  0  0  0  0  0  0
    2.7353   46.0485   16.3376 C   0  0  0  0  0  0  0  0  0  0  0  0
    1.9666   46.3004   15.4333 O   0  0  0  0  0  0  0  0  0  0  0  0
    3.1452   46.9027   17.3321 N   0  0  0  0  0  0  0  0  0  0  0  0
    2.6786   48.2907   17.4793 C   0  0  0  0  0  0  0  0  0  0  0  0
    4.0589   46.2508   18.1571 C   0  0  0  0  0  0  0  0  0  0  0  0
    4.7261   46.6414   19.2702 C   0  0  0  0  0  0  0  0  0  0  0  0
    5.6278   45.8081   19.9765 C   0  0  0  0  0  0  0  0  0  0  0  0
    6.2773   46.2361   21.1182 N   0  0  0  0  0  0  0  0  0  0  0  0
    5.3430   46.6064   22.1841 C   0  0  0  0  0  0  0  0  0  0  0  0
    6.0145   46.6638   23.5310 C   0  0  0  0  0  0  0  0  0  0  0  0
    7.2459   47.5438   23.4870 C   0  0  0  0  0  0  0  0  0  0  0  0
    8.1748   47.1419   22.3593 C   0  0  0  0  0  0  0  0  0  0  0  0
    7.4545   47.0922   21.0328 C   0  0  0  0  0  0  0  0  0  0  0  0
    6.4927   42.7961   21.1761 C   0  0  0  0  0  0  0  0  0  0  0  0
    5.3971   42.6135   21.6829 O   0  0  0  0  0  0  0  0  0  0  0  0
    6.6625   43.6502   20.1442 N   0  0  0  0  0  0  0  0  0  0  0  0
    7.5853   43.6850   19.8031 H   0  0  0  0  0  0  0  0  0  0  0  0
    7.9435   40.6785   21.6855 C   0  0  0  0  0  0  0  0  0  0  0  0
    9.1410   40.1502   22.1478 C   0  0  0  0  0  0  0  0  0  0  0  0
   10.1415   41.0048   22.5736 C   0  0  0  0  0  0  0  0  0  0  0  0
    9.9491   42.3668   22.5383 C   0  0  0  0  0  0  0  0  0  0  0  0
    8.7602   42.9022   22.0856 C   0  0  0  0  0  0  0  0  0  0  0  0
    7.7256   42.0680   21.6495 C   0  0  0  0  0  0  0  0  0  0  0  0
    7.0649   39.2890   19.9500 C   0  0  0  0  0  0  0  0  0  0  0  0
    6.9266   39.8802   21.2480 O   0  0  0  0  0  0  0  0  0  0  0  0
 29 30  1  0  0  0
 30 23  1  0  0  0
 23 24  1  0  0  0
 23 28  2  0  0  0
 24 25  2  0  0  0
 25 26  1  0  0  0
 26 27  2  0  0  0
 27 28  1  0  0  0
 28 19  1  0  0  0
 19 20  2  0  0  0
 19 21  1  0  0  0
 21  1  1  0  0  0
  1  2  1  0  0  0
  1 12  2  0  0  0
  2  3  2  0  0  0
  3  4  1  0  0  0
  3 10  1  0  0  0
  4  5  1  0  0  0
  4  6  1  0  0  0
  6  7  2  0  0  0
  6  8  1  0  0  0
  8  9  1  0  0  0
  8 10  1  0  0  0
 10 11  2  0  0  0
 11 12  1  0  0  0
 12 13  1  0  0  0
 13 14  1  0  0  0
 13 18  1  0  0  0
 14 15  1  0  0  0
 15 16  1  0  0  0
 16 17  1  0  0  0
 17 18  1  0  0  0
 21 22  1  0  0  0
M  END
> <minimizedAffinity>
-7.26333

$$$$
4UYE_9F9_A_1739


 30 33  0  0  0  0  0  0  0  0999 V2000
    6.1005   43.1363   19.9348 C   0  0  0  0  0  0  0  0  0  0  0  0
    6.0871   41.8096   19.4806 C   0  0  0  0  0  0  0  0  0  0  0  0
    6.8888   40.8722   20.1104 C   0  0  0  0  0  0  0  0  0  0  0  0
    7.0980   39.5086   19.9116 N   0  0  0  0  0  0  0  0  0  0  0  0
    6.5053   38.6753   18.8537 C   0  0  0  0  0  0  0  0  0  0  0  0
    7.9969   39.0359   20.8503 C   0  0  0  0  0  0  0  0  0  0  0  0
    8.3872   37.8931   20.9674 O   0  0  0  0  0  0  0  0  0  0  0  0
    8.3282   40.1050   21.6464 N   0  0  0  0  0  0  0  0  0  0  0  0
    9.2609   40.0368   22.7827 C   0  0  0  0  0  0  0  0  0  0  0  0
    7.6457   41.2383   21.2101 C   0  0  0  0  0  0  0  0  0  0  0  0
    7.6443   42.5250   21.6358 C   0  0  0  0  0  0  0  0  0  0  0  0
    6.8635   43.5464   21.0416 C   0  0  0  0  0  0  0  0  0  0  0  0
    6.9012   44.8515   21.4930 N   0  0  0  0  0  0  0  0  0  0  0  0
    8.2675   45.3744   21.5699 C   0  0  0  0  0  0  0  0  0  0  0  0
    8.2948   46.8783   21.6468 C   0  0  0  0  0  0  0  0  0  0  0  0
    7.4017   47.3816   22.7611 C   0  0  0  0  0  0  0  0  0  0  0  0
    6.0056   46.8017   22.6575 C   0  0  0  0  0  0  0  0  0  0  0  0
    6.0314   45.2938   22.5764 C   0  0  0  0  0  0  0  0  0  0  0  0
    4.8703   44.3046   18.0502 C   0  0  0  0  0  0  0  0  0  0  0  0
    5.1155   43.4852   17.1789 O   0  0  0  0  0  0  0  0  0  0  0  0
    5.3039   44.1414   19.3185 N   0  0  0  0  0  0  0  0  0  0  0  0
    5.0137   44.8531   19.9337 H   0  0  0  0  0  0  0  0  0  0  0  0
    4.1706   46.8035   18.3885 C   0  0  0  0  0  0  0  0  0  0  0  0
    3.3408   47.8569   18.0300 C   0  0  0  0  0  0  0  0  0  0  0  0
    2.3838   47.6651   17.0502 C   0  0  0  0  0  0  0  0  0  0  0  0
    2.2573   46.4396   16.4375 C   0  0  0  0  0  0  0  0  0  0  0  0
    3.0736   45.3841   16.7906 C   0  0  0  0  0  0  0  0  0  0  0  0
    4.0508   45.5412   17.7790 C   0  0  0  0  0  0  0  0  0  0  0  0
    6.2159   47.8395   19.0653 C   0  0  0  0  0  0  0  0  0  0  0  0
    5.1351   46.9410   19.3445 O   0  0  0  0  0  0  0  0  0  0  0  0
 29 30  1  0  0  0
 30 23  1  0  0  0
 23 24  1  0  0  0
 23 28  2  0  0  0
 24 25  2  0  0  0
 25 26  1  0  0  0
 26 27  2  0  0  0
 27 28  1  0  0  0
 28 19  1  0  0  0
 19 20  2  0  0  0
 19 21  1  0  0  0
 21  1  1  0  0  0
  1  2  1  0  0  0
  1 12  2  0  0  0
  2  3  2  0  0  0
  3  4  1  0  0  0
  3 10  1  0  0  0
  4  5  1  0  0  0
  4  6  1  0  0  0
  6  7  2  0  0  0
  6  8  1  0  0  0
  8  9  1  0  0  0
  8 10  1  0  0  0
 10 11  2  0  0  0
 11 12  1  0  0  0
 12 13  1  0  0  0
 13 14  1  0  0  0
 13 18  1  0  0  0
 14 15  1  0  0  0
 15 16  1  0  0  0
 16 17  1  0  0  0
 17 18  1  0  0  0
 21 22  1  0  0  0
M  END
> <minimizedAffinity>
-6.90730

$$$$
4UYE_9F9_A_1739


 30 33  0  0  0  0  0  0  0  0999 V2000
    6.3296   43.1290   20.2666 C   0  0  0  0  0  0  0  0  0  0  0  0
    6.4984   41.7588   20.0198 C   0  0  0  0  0  0  0  0  0  0  0  0
    7.3746   41.0334   20.8098 C   0  0  0  0  0  0  0  0  0  0  0  0
    7.7558   39.6928   20.8278 N   0  0  0  0  0  0  0  0  0  0  0  0
    7.3209   38.6445   19.8915 C   0  0  0  0  0  0  0  0  0  0  0  0
    8.6571   39.4810   21.8551 C   0  0  0  0  0  0  0  0  0  0  0  0
    9.1757   38.4266   22.1572 O   0  0  0  0  0  0  0  0  0  0  0  0
    8.8176   40.6891   22.4888 N   0  0  0  0  0  0  0  0  0  0  0  0
    9.6941   40.9074   23.6507 C   0  0  0  0  0  0  0  0  0  0  0  0
    8.0264   41.6503   21.8638 C   0  0  0  0  0  0  0  0  0  0  0  0
    7.8492   42.9750   22.0882 C   0  0  0  0  0  0  0  0  0  0  0  0
    6.9818   43.7908   21.3211 C   0  0  0  0  0  0  0  0  0  0  0  0
    6.8399   45.1424   21.5692 N   0  0  0  0  0  0  0  0  0  0  0  0
    8.1105   45.8638   21.4637 C   0  0  0  0  0  0  0  0  0  0  0  0
    7.9079   47.3487   21.3137 C   0  0  0  0  0  0  0  0  0  0  0  0
    7.0071   47.8870   22.4053 C   0  0  0  0  0  0  0  0  0  0  0  0
    5.7145   47.1013   22.4953 C   0  0  0  0  0  0  0  0  0  0  0  0
    5.9700   45.6196   22.6377 C   0  0  0  0  0  0  0  0  0  0  0  0
    5.5832   44.4898   18.2614 C   0  0  0  0  0  0  0  0  0  0  0  0
    6.5930   44.3389   17.5921 O   0  0  0  0  0  0  0  0  0  0  0  0
    5.4496   43.9234   19.4799 N   0  0  0  0  0  0  0  0  0  0  0  0
    4.5777   44.0924   19.9047 H   0  0  0  0  0  0  0  0  0  0  0  0
    3.5598   45.0082   16.6848 C   0  0  0  0  0  0  0  0  0  0  0  0
    2.5089   45.8509   16.3498 C   0  0  0  0  0  0  0  0  0  0  0  0
    2.2869   46.9917   17.0994 C   0  0  0  0  0  0  0  0  0  0  0  0
    3.1022   47.2867   18.1678 C   0  0  0  0  0  0  0  0  0  0  0  0
    4.1533   46.4584   18.5059 C   0  0  0  0  0  0  0  0  0  0  0  0
    4.4089   45.2975   17.7686 C   0  0  0  0  0  0  0  0  0  0  0  0
    3.1350   42.6747   16.3873 C   0  0  0  0  0  0  0  0  0  0  0  0
    3.8187   43.8671   15.9822 O   0  0  0  0  0  0  0  0  0  0  0  0
 29 30  1  0  0  0
 30 23  1  0  0  0
 23 24  1  0  0  0
 23 28  2  0  0  0
 24 25  2  0  0  0
 25 26  1  0  0  0
 26 27  2  0  0  0
 27 28  1  0  0  0
 28 19  1  0  0  0
 19 20  2  0  0  0
 19 21  1  0  0  0
 21  1  1  0  0  0
  1  2  1  0  0  0
  1 12  2  0  0  0
  2  3  2  0  0  0
  3  4  1  0  0  0
  3 10  1  0  0  0
  4  5  1  0  0  0
  4  6  1  0  0  0
  6  7  2  0  0  0
  6  8  1  0  0  0
  8  9  1  0  0  0
  8 10  1  0  0  0
 10 11  2  0  0  0
 11 12  1  0  0  0
 12 13  1  0  0  0
 13 14  1  0  0  0
 13 18  1  0  0  0
 14 15  1  0  0  0
 15 16  1  0  0  0
 16 17  1  0  0  0
 17 18  1  0  0  0
 21 22  1  0  0  0
M  END
> <minimizedAffinity>
-6.78090

$$$$
4UYE_9F9_A_1739


 30 33  0  0  0  0  0  0  0  0999 V2000
    5.6228   45.8067   19.7613 C   0  0  0  0  0  0  0  0  0  0  0  0
    4.7875   46.7630   19.1659 C   0  0  0  0  0  0  0  0  0  0  0  0
    4.0166   46.4001   18.0741 C   0  0  0  0  0  0  0  0  0  0  0  0
    3.1051   47.0917   17.2782 N   0  0  0  0  0  0  0  0  0  0  0  0
    2.7539   48.5167   17.3824 C   0  0  0  0  0  0  0  0  0  0  0  0
    2.5858   46.2395   16.3208 C   0  0  0  0  0  0  0  0  0  0  0  0
    1.7583   46.5162   15.4777 O   0  0  0  0  0  0  0  0  0  0  0  0
    3.1607   45.0112   16.5385 N   0  0  0  0  0  0  0  0  0  0  0  0
    2.8774   43.8082   15.7394 C   0  0  0  0  0  0  0  0  0  0  0  0
    4.0342   45.0923   17.6206 C   0  0  0  0  0  0  0  0  0  0  0  0
    4.8464   44.1814   18.2099 C   0  0  0  0  0  0  0  0  0  0  0  0
    5.6740   44.4726   19.3219 C   0  0  0  0  0  0  0  0  0  0  0  0
    6.5021   43.5214   19.8858 N   0  0  0  0  0  0  0  0  0  0  0  0
    6.3257   42.1999   19.2788 C   0  0  0  0  0  0  0  0  0  0  0  0
    7.4818   41.2814   19.5757 C   0  0  0  0  0  0  0  0  0  0  0  0
    7.7592   41.2206   21.0630 C   0  0  0  0  0  0  0  0  0  0  0  0
    7.9140   42.6067   21.6553 C   0  0  0  0  0  0  0  0  0  0  0  0
    6.7347   43.4906   21.3248 C   0  0  0  0  0  0  0  0  0  0  0  0
    7.3383   47.1155   21.0932 C   0  0  0  0  0  0  0  0  0  0  0  0
    7.5524   47.9787   20.2567 O   0  0  0  0  0  0  0  0  0  0  0  0
    6.4426   46.1280   20.8789 N   0  0  0  0  0  0  0  0  0  0  0  0
    6.3367   45.5136   21.6408 H   0  0  0  0  0  0  0  0  0  0  0  0
    9.1394   46.3150   22.8148 C   0  0  0  0  0  0  0  0  0  0  0  0
    9.6841   46.4159   24.0875 C   0  0  0  0  0  0  0  0  0  0  0  0
    9.1413   47.3122   24.9901 C   0  0  0  0  0  0  0  0  0  0  0  0
    8.0703   48.0961   24.6272 C   0  0  0  0  0  0  0  0  0  0  0  0
    7.5177   47.9996   23.3661 C   0  0  0  0  0  0  0  0  0  0  0  0
    8.0394   47.1024   22.4283 C   0  0  0  0  0  0  0  0  0  0  0  0
   10.9161   44.8575   22.1565 C   0  0  0  0  0  0  0  0  0  0  0  0
    9.6409   45.4516   21.8842 O   0  0  0  0  0  0  0  0  0  0  0  0
 29 30  1  0  0  0
 30 23  1  0  0  0
 23 24  1  0  0  0
 23 28  2  0  0  0
 24 25  2  0  0  0
 25 26  1  0  0  0
 26 27  2  0  0  0
 27 28  1  0  0  0
 28 19  1  0  0  0
 19 20  2  0  0  0
 19 21  1  0  0  0
 21  1  1  0  0  0
  1  2  1  0  0  0
  1 12  2  0  0  0
  2  3  2  0  0  0
  3  4  1  0  0  0
  3 10  1  0  0  0
  4  5  1  0  0  0
  4  6  1  0  0  0
  6  7  2  0  0  0
  6  8  1  0  0  0
  8  9  1  0  0  0
  8 10  1  0  0  0
 10 11  2  0  0  0
 11 12  1  0  0  0
 12 13  1  0  0  0
 13 14  1  0  0  0
 13 18  1  0  0  0
 14 15  1  0  0  0
 15 16  1  0  0  0
 16 17  1  0  0  0
 17 18  1  0  0  0
 21 22  1  0  0  0
M  END
> <minimizedAffinity>
-6.66467

$$$$
4UYE_9F9_A_1739


 30 33  0  0  0  0  0  0  0  0999 V2000
    4.5129   41.3816   17.7192 C   0  0  0  0  0  0  0  0  0  0  0  0
    4.0581   40.5146   16.7151 C   0  0  0  0  0  0  0  0  0  0  0  0
    4.4290   39.1808   16.7557 C   0  0  0  0  0  0  0  0  0  0  0  0
    4.1513   38.0885   15.9358 N   0  0  0  0  0  0  0  0  0  0  0  0
    3.3728   38.1041   14.6874 C   0  0  0  0  0  0  0  0  0  0  0  0
    4.7577   36.9570   16.4500 C   0  0  0  0  0  0  0  0  0  0  0  0
    4.7064   35.8356   15.9897 O   0  0  0  0  0  0  0  0  0  0  0  0
    5.3943   37.3453   17.6036 N   0  0  0  0  0  0  0  0  0  0  0  0
    6.1631   36.4404   18.4729 C   0  0  0  0  0  0  0  0  0  0  0  0
    5.1913   38.7079   17.8100 C   0  0  0  0  0  0  0  0  0  0  0  0
    5.6200   39.5605   18.7723 C   0  0  0  0  0  0  0  0  0  0  0  0
    5.2961   40.9391   18.7991 C   0  0  0  0  0  0  0  0  0  0  0  0
    5.7661   41.7814   19.7882 N   0  0  0  0  0  0  0  0  0  0  0  0
    7.2294   41.8465   19.8144 C   0  0  0  0  0  0  0  0  0  0  0  0
    7.7293   43.0457   20.5764 C   0  0  0  0  0  0  0  0  0  0  0  0
    7.1061   43.1120   21.9547 C   0  0  0  0  0  0  0  0  0  0  0  0
    5.5951   43.0203   21.8851 C   0  0  0  0  0  0  0  0  0  0  0  0
    5.1442   41.8072   21.1067 C   0  0  0  0  0  0  0  0  0  0  0  0
    3.8647   43.6228   16.7260 C   0  0  0  0  0  0  0  0  0  0  0  0
    3.8078   43.2611   15.5613 O   0  0  0  0  0  0  0  0  0  0  0  0
    4.1700   42.7625   17.7209 N   0  0  0  0  0  0  0  0  0  0  0  0
    4.1519   43.1677   18.6179 H   0  0  0  0  0  0  0  0  0  0  0  0
    4.2248   45.7990   18.1342 C   0  0  0  0  0  0  0  0  0  0  0  0
    3.8508   47.1089   18.4009 C   0  0  0  0  0  0  0  0  0  0  0  0
    2.8294   47.6865   17.6691 C   0  0  0  0  0  0  0  0  0  0  0  0
    2.1907   46.9669   16.6855 C   0  0  0  0  0  0  0  0  0  0  0  0
    2.5511   45.6620   16.4161 C   0  0  0  0  0  0  0  0  0  0  0  0
    3.5781   45.0449   17.1379 C   0  0  0  0  0  0  0  0  0  0  0  0
    5.9701   45.9780   19.7579 C   0  0  0  0  0  0  0  0  0  0  0  0
    5.2302   45.1838   18.8224 O   0  0  0  0  0  0  0  0  0  0  0  0
 29 30  1  0  0  0
 30 23  1  0  0  0
 23 24  1  0  0  0
 23 28  2  0  0  0
 24 25  2  0  0  0
 25 26  1  0  0  0
 26 27  2  0  0  0
 27 28  1  0  0  0
 28 19  1  0  0  0
 19 20  2  0  0  0
 19 21  1  0  0  0
 21  1  1  0  0  0
  1  2  1  0  0  0
  1 12  2  0  0  0
  2  3  2  0  0  0
  3  4  1  0  0  0
  3 10  1  0  0  0
  4  5  1  0  0  0
  4  6  1  0  0  0
  6  7  2  0  0  0
  6  8  1  0  0  0
  8  9  1  0  0  0
  8 10  1  0  0  0
 10 11  2  0  0  0
 11 12  1  0  0  0
 12 13  1  0  0  0
 13 14  1  0  0  0
 13 18  1  0  0  0
 14 15  1  0  0  0
 15 16  1  0  0  0
 16 17  1  0  0  0
 17 18  1  0  0  0
 21 22  1  0  0  0
M  END
> <minimizedAffinity>
-6.59878

$$$$
4UYE_9F9_A_1739


 30 33  0  0  0  0  0  0  0  0999 V2000
    6.8634   42.6956   20.5158 C   0  0  0  0  0  0  0  0  0  0  0  0
    7.2204   41.3405   20.4620 C   0  0  0  0  0  0  0  0  0  0  0  0
    8.0809   40.8303   21.4199 C   0  0  0  0  0  0  0  0  0  0  0  0
    8.6137   39.5622   21.6447 N   0  0  0  0  0  0  0  0  0  0  0  0
    8.4156   38.3668   20.8100 C   0  0  0  0  0  0  0  0  0  0  0  0
    9.4110   39.5880   22.7743 C   0  0  0  0  0  0  0  0  0  0  0  0
   10.0131   38.6518   23.2569 O   0  0  0  0  0  0  0  0  0  0  0  0
    9.3540   40.8704   23.2630 N   0  0  0  0  0  0  0  0  0  0  0  0
   10.0605   41.3319   24.4688 C   0  0  0  0  0  0  0  0  0  0  0  0
    8.5307   41.6426   22.4466 C   0  0  0  0  0  0  0  0  0  0  0  0
    8.1734   42.9493   22.4832 C   0  0  0  0  0  0  0  0  0  0  0  0
    7.3083   43.5522   21.5374 C   0  0  0  0  0  0  0  0  0  0  0  0
    6.9799   44.8927   21.5975 N   0  0  0  0  0  0  0  0  0  0  0  0
    8.1615   45.7575   21.5547 C   0  0  0  0  0  0  0  0  0  0  0  0
    7.8109   47.1784   21.1990 C   0  0  0  0  0  0  0  0  0  0  0  0
    6.7170   47.7100   22.1009 C   0  0  0  0  0  0  0  0  0  0  0  0
    5.5232   46.7774   22.1337 C   0  0  0  0  0  0  0  0  0  0  0  0
    5.9265   45.3657   22.4879 C   0  0  0  0  0  0  0  0  0  0  0  0
    5.1929   42.7293   18.6084 C   0  0  0  0  0  0  0  0  0  0  0  0
    5.0888   41.5199   18.4775 O   0  0  0  0  0  0  0  0  0  0  0  0
    5.9908   43.2736   19.5520 N   0  0  0  0  0  0  0  0  0  0  0  0
    5.9636   44.2574   19.5781 H   0  0  0  0  0  0  0  0  0  0  0  0
    4.4181   45.1023   17.8230 C   0  0  0  0  0  0  0  0  0  0  0  0
    3.6576   45.8677   16.9497 C   0  0  0  0  0  0  0  0  0  0  0  0
    2.8986   45.2392   15.9794 C   0  0  0  0  0  0  0  0  0  0  0  0
    2.8989   43.8666   15.8825 C   0  0  0  0  0  0  0  0  0  0  0  0
    3.6471   43.0961   16.7494 C   0  0  0  0  0  0  0  0  0  0  0  0
    4.4247   43.6975   17.7445 C   0  0  0  0  0  0  0  0  0  0  0  0
    5.3972   47.0883   18.7236 C   0  0  0  0  0  0  0  0  0  0  0  0
    5.1894   45.6723   18.7941 O   0  0  0  0  0  0  0  0  0  0  0  0
 29 30  1  0  0  0
 30 23  1  0  0  0
 23 24  1  0  0  0
 23 28  2  0  0  0
 24 25  2  0  0  0
 25 26  1  0  0  0
 26 27  2  0  0  0
 27 28  1  0  0  0
 28 19  1  0  0  0
 19 20  2  0  0  0
 19 21  1  0  0  0
 21  1  1  0  0  0
  1  2  1  0  0  0
  1 12  2  0  0  0
  2  3  2  0  0  0
  3  4  1  0  0  0
  3 10  1  0  0  0
  4  5  1  0  0  0
  4  6  1  0  0  0
  6  7  2  0  0  0
  6  8  1  0  0  0
  8  9  1  0  0  0
  8 10  1  0  0  0
 10 11  2  0  0  0
 11 12  1  0  0  0
 12 13  1  0  0  0
 13 14  1  0  0  0
 13 18  1  0  0  0
 14 15  1  0  0  0
 15 16  1  0  0  0
 16 17  1  0  0  0
 17 18  1  0  0  0
 21 22  1  0  0  0
M  END
> <minimizedAffinity>
-6.54270

$$$$
4UYE_9F9_A_1739


 30 33  0  0  0  0  0  0  0  0999 V2000
    5.0113   45.9292   19.9606 C   0  0  0  0  0  0  0  0  0  0  0  0
    4.1962   46.8126   19.2383 C   0  0  0  0  0  0  0  0  0  0  0  0
    3.7377   46.4378   17.9863 C   0  0  0  0  0  0  0  0  0  0  0  0
    2.9298   47.0651   17.0395 N   0  0  0  0  0  0  0  0  0  0  0  0
    2.3653   48.4209   17.1280 C   0  0  0  0  0  0  0  0  0  0  0  0
    2.7552   46.2286   15.9521 C   0  0  0  0  0  0  0  0  0  0  0  0
    2.0976   46.4600   14.9591 O   0  0  0  0  0  0  0  0  0  0  0  0
    3.4386   45.0715   16.2361 N   0  0  0  0  0  0  0  0  0  0  0  0
    3.5079   43.9065   15.3394 C   0  0  0  0  0  0  0  0  0  0  0  0
    4.0384   45.1816   17.4885 C   0  0  0  0  0  0  0  0  0  0  0  0
    4.8260   44.3405   18.2020 C   0  0  0  0  0  0  0  0  0  0  0  0
    5.3450   44.6502   19.4830 C   0  0  0  0  0  0  0  0  0  0  0  0
    6.1593   43.7732   20.1733 N   0  0  0  0  0  0  0  0  0  0  0  0
    6.7356   42.7462   19.3022 C   0  0  0  0  0  0  0  0  0  0  0  0
    7.9210   42.0664   19.9356 C   0  0  0  0  0  0  0  0  0  0  0  0
    7.5771   41.5503   21.3169 C   0  0  0  0  0  0  0  0  0  0  0  0
    6.9651   42.6364   22.1782 C   0  0  0  0  0  0  0  0  0  0  0  0
    5.7863   43.2913   21.4979 C   0  0  0  0  0  0  0  0  0  0  0  0
    6.4617   47.1447   21.6484 C   0  0  0  0  0  0  0  0  0  0  0  0
    7.0433   47.8676   20.8549 O   0  0  0  0  0  0  0  0  0  0  0  0
    5.5173   46.2672   21.2468 N   0  0  0  0  0  0  0  0  0  0  0  0
    5.0995   45.7659   21.9839 H   0  0  0  0  0  0  0  0  0  0  0  0
    6.0496   46.5257   24.1575 C   0  0  0  0  0  0  0  0  0  0  0  0
    6.4254   46.6672   25.4862 C   0  0  0  0  0  0  0  0  0  0  0  0
    7.5019   47.4742   25.8059 C   0  0  0  0  0  0  0  0  0  0  0  0
    8.1932   48.1304   24.8134 C   0  0  0  0  0  0  0  0  0  0  0  0
    7.8243   48.0009   23.4897 C   0  0  0  0  0  0  0  0  0  0  0  0
    6.7391   47.1950   23.1298 C   0  0  0  0  0  0  0  0  0  0  0  0
    3.9190   45.5984   24.7186 C   0  0  0  0  0  0  0  0  0  0  0  0
    4.9991   45.7368   23.7872 O   0  0  0  0  0  0  0  0  0  0  0  0
 29 30  1  0  0  0
 30 23  1  0  0  0
 23 24  1  0  0  0
 23 28  2  0  0  0
 24 25  2  0  0  0
 25 26  1  0  0  0
 26 27  2  0  0  0
 27 28  1  0  0  0
 28 19  1  0  0  0
 19 20  2  0  0  0
 19 21  1  0  0  0
 21  1  1  0  0  0
  1  2  1  0  0  0
  1 12  2  0  0  0
  2  3  2  0  0  0
  3  4  1  0  0  0
  3 10  1  0  0  0
  4  5  1  0  0  0
  4  6  1  0  0  0
  6  7  2  0  0  0
  6  8  1  0  0  0
  8  9  1  0  0  0
  8 10  1  0  0  0
 10 11  2  0  0  0
 11 12  1  0  0  0
 12 13  1  0  0  0
 13 14  1  0  0  0
 13 18  1  0  0  0
 14 15  1  0  0  0
 15 16  1  0  0  0
 16 17  1  0  0  0
 17 18  1  0  0  0
 21 22  1  0  0  0
M  END
> <minimizedAffinity>
-6.50684

$$$$
4UYE_9F9_A_1739


 30 33  0  0  0  0  0  0  0  0999 V2000
    6.3620   45.3341   21.2246 C   0  0  0  0  0  0  0  0  0  0  0  0
    6.7490   46.4379   21.9982 C   0  0  0  0  0  0  0  0  0  0  0  0
    7.6190   46.2473   23.0589 C   0  0  0  0  0  0  0  0  0  0  0  0
    8.1861   47.1112   23.9941 N   0  0  0  0  0  0  0  0  0  0  0  0
    7.9293   48.5540   24.1244 C   0  0  0  0  0  0  0  0  0  0  0  0
    9.0216   46.3996   24.8356 C   0  0  0  0  0  0  0  0  0  0  0  0
    9.6805   46.8480   25.7503 O   0  0  0  0  0  0  0  0  0  0  0  0
    8.9890   45.0952   24.4063 N   0  0  0  0  0  0  0  0  0  0  0  0
    9.7480   43.9974   25.0266 C   0  0  0  0  0  0  0  0  0  0  0  0
    8.1394   44.9888   23.3075 C   0  0  0  0  0  0  0  0  0  0  0  0
    7.7552   43.9344   22.5478 C   0  0  0  0  0  0  0  0  0  0  0  0
    6.8620   44.0407   21.4536 C   0  0  0  0  0  0  0  0  0  0  0  0
    6.4800   42.9394   20.7122 N   0  0  0  0  0  0  0  0  0  0  0  0
    5.5686   42.0611   21.4497 C   0  0  0  0  0  0  0  0  0  0  0  0
    4.8310   41.1161   20.5378 C   0  0  0  0  0  0  0  0  0  0  0  0
    5.7930   40.3606   19.6454 C   0  0  0  0  0  0  0  0  0  0  0  0
    6.7308   41.3027   18.9178 C   0  0  0  0  0  0  0  0  0  0  0  0
    7.4404   42.2328   19.8729 C   0  0  0  0  0  0  0  0  0  0  0  0
    5.3966   46.3626   19.1175 C   0  0  0  0  0  0  0  0  0  0  0  0
    6.2260   47.2492   18.9885 O   0  0  0  0  0  0  0  0  0  0  0  0
    5.4637   45.4716   20.1298 N   0  0  0  0  0  0  0  0  0  0  0  0
    4.7566   44.7869   20.1058 H   0  0  0  0  0  0  0  0  0  0  0  0
    3.9281   45.0375   17.4040 C   0  0  0  0  0  0  0  0  0  0  0  0
    2.8364   45.0228   16.5468 C   0  0  0  0  0  0  0  0  0  0  0  0
    2.0510   46.1547   16.4269 C   0  0  0  0  0  0  0  0  0  0  0  0
    2.3513   47.2848   17.1522 C   0  0  0  0  0  0  0  0  0  0  0  0
    3.4377   47.3117   18.0031 C   0  0  0  0  0  0  0  0  0  0  0  0
    4.2554   46.1861   18.1476 C   0  0  0  0  0  0  0  0  0  0  0  0
    4.2092   42.6771   17.1508 C   0  0  0  0  0  0  0  0  0  0  0  0
    4.7316   43.9458   17.5641 O   0  0  0  0  0  0  0  0  0  0  0  0
 29 30  1  0  0  0
 30 23  1  0  0  0
 23 24  1  0  0  0
 23 28  2  0  0  0
 24 25  2  0  0  0
 25 26  1  0  0  0
 26 27  2  0  0  0
 27 28  1  0  0  0
 28 19  1  0  0  0
 19 20  2  0  0  0
 19 21  1  0  0  0
 21  1  1  0  0  0
  1  2  1  0  0  0
  1 12  2  0  0  0
  2  3  2  0  0  0
  3  4  1  0  0  0
  3 10  1  0  0  0
  4  5  1  0  0  0
  4  6  1  0  0  0
  6  7  2  0  0  0
  6  8  1  0  0  0
  8  9  1  0  0  0
  8 10  1  0  0  0
 10 11  2  0  0  0
 11 12  1  0  0  0
 12 13  1  0  0  0
 13 14  1  0  0  0
 13 18  1  0  0  0
 14 15  1  0  0  0
 15 16  1  0  0  0
 16 17  1  0  0  0
 17 18  1  0  0  0
 21 22  1  0  0  0
M  END
> <minimizedAffinity>
-6.47135

$$$$
