4XOC_KGM_A_501


 23 23  0  0  0  0  0  0  0  0999 V2000
  -56.8131   -3.5565    3.8193 C   0  0  0  0  0  0  0  0  0  0  0  0
  -56.0592   -3.7412    2.6431 O   0  0  0  0  0  0  0  0  0  0  0  0
  -57.8310   -4.6894    4.0338 C   0  0  0  0  0  0  0  0  0  0  0  0
  -58.6496   -4.4167    5.1440 O   0  0  0  0  0  0  0  0  0  0  0  0
  -58.7248   -4.7957    2.7724 C   0  0  0  0  0  0  0  0  0  0  0  0
  -59.5851   -5.9090    2.9017 O   0  0  0  0  0  0  0  0  0  0  0  0
  -57.8411   -4.9496    1.5461 C   0  0  0  0  0  0  0  0  0  0  0  0
  -57.1030   -6.1507    1.5701 O   0  0  0  0  0  0  0  0  0  0  0  0
  -56.8352   -3.8126    1.4651 C   0  0  0  0  0  0  0  0  0  0  0  0
  -59.1320   -3.5885    4.9945 H   0  0  0  0  0  0  0  0  0  0  0  0
  -59.0566   -6.7166    2.9985 H   0  0  0  0  0  0  0  0  0  0  0  0
  -56.5069   -6.1486    2.3353 H   0  0  0  0  0  0  0  0  0  0  0  0
  -55.4057   -4.7525    5.3950 O   0  0  0  0  0  0  0  0  0  0  0  0
  -55.7698   -3.4552    4.9223 C   0  0  0  0  0  0  0  0  0  0  0  0
  -54.7411   -4.6664    6.0963 H   0  0  0  0  0  0  0  0  0  0  0  0
  -57.6091   -2.6436    1.2664 O   0  0  0  0  0  0  0  0  0  0  0  0
  -56.9987   -1.6991    0.3677 C   0  0  0  0  0  0  0  0  0  0  0  0
  -56.6696   -0.4115    1.1111 C   0  0  0  0  0  0  0  0  0  0  0  0
  -57.4824   -0.2699    2.4068 C   0  0  0  0  0  0  0  0  0  0  0  0
  -57.5554    1.2135    2.7578 C   0  0  0  0  0  0  0  0  0  0  0  0
  -56.3216    2.0047    2.3833 C   0  0  0  0  0  0  0  0  0  0  0  0
  -56.7247    2.4723    4.8480 C   0  0  0  0  0  0  0  0  0  0  0  0
  -56.0403    2.9263    3.5701 C   0  0  0  0  0  0  0  0  0  0  0  0
 22 23  1  0  0  0
 23 21  1  0  0  0
 21 20  1  0  0  0
 20 19  1  0  0  0
 19 18  1  0  0  0
 18 17  1  0  0  0
 17 16  1  0  0  0
 16  9  1  0  0  0
  9  7  1  0  0  0
  9  2  1  0  0  0
  7  8  1  0  0  0
  7  5  1  0  0  0
  5  6  1  0  0  0
  5  3  1  0  0  0
  3  4  1  0  0  0
  3  1  1  0  0  0
  1  2  1  0  0  0
  1 14  1  0  0  0
 14 13  1  0  0  0
 13 15  1  0  0  0
  4 10  1  0  0  0
  6 11  1  0  0  0
  8 12  1  0  0  0
M  END
> <minimizedAffinity>
-7.34594

$$$$
4XOC_KGM_A_501


 23 23  0  0  0  0  0  0  0  0999 V2000
  -57.9335   -4.9412    1.8721 C   0  0  0  0  0  0  0  0  0  0  0  0
  -58.6206   -3.8919    1.2297 O   0  0  0  0  0  0  0  0  0  0  0  0
  -58.4235   -5.1513    3.3147 C   0  0  0  0  0  0  0  0  0  0  0  0
  -57.6396   -6.1183    3.9687 O   0  0  0  0  0  0  0  0  0  0  0  0
  -58.2969   -3.8096    4.0797 C   0  0  0  0  0  0  0  0  0  0  0  0
  -58.8552   -3.9527    5.3697 O   0  0  0  0  0  0  0  0  0  0  0  0
  -59.0244   -2.7233    3.3058 C   0  0  0  0  0  0  0  0  0  0  0  0
  -60.4110   -2.9657    3.2255 O   0  0  0  0  0  0  0  0  0  0  0  0
  -58.5049   -2.6431    1.8792 C   0  0  0  0  0  0  0  0  0  0  0  0
  -56.7159   -5.8231    3.9932 H   0  0  0  0  0  0  0  0  0  0  0  0
  -59.7901   -4.1991    5.2918 H   0  0  0  0  0  0  0  0  0  0  0  0
  -60.5672   -3.7928    2.7434 H   0  0  0  0  0  0  0  0  0  0  0  0
  -57.3701   -7.2555    1.4017 O   0  0  0  0  0  0  0  0  0  0  0  0
  -58.1573   -6.1453    0.9690 C   0  0  0  0  0  0  0  0  0  0  0  0
  -57.5267   -8.0113    0.8143 H   0  0  0  0  0  0  0  0  0  0  0  0
  -57.1564   -2.2274    1.9964 O   0  0  0  0  0  0  0  0  0  0  0  0
  -56.8639   -1.0216    1.2664 C   0  0  0  0  0  0  0  0  0  0  0  0
  -57.0998    0.1937    2.1533 C   0  0  0  0  0  0  0  0  0  0  0  0
  -56.3922    1.4463    1.6149 C   0  0  0  0  0  0  0  0  0  0  0  0
  -56.4384    2.5172    2.7012 C   0  0  0  0  0  0  0  0  0  0  0  0
  -57.0217    2.0479    4.0158 C   0  0  0  0  0  0  0  0  0  0  0  0
  -55.5296    4.0326    4.5550 C   0  0  0  0  0  0  0  0  0  0  0  0
  -56.2925    2.8384    5.1022 C   0  0  0  0  0  0  0  0  0  0  0  0
 22 23  1  0  0  0
 23 21  1  0  0  0
 21 20  1  0  0  0
 20 19  1  0  0  0
 19 18  1  0  0  0
 18 17  1  0  0  0
 17 16  1  0  0  0
 16  9  1  0  0  0
  9  7  1  0  0  0
  9  2  1  0  0  0
  7  8  1  0  0  0
  7  5  1  0  0  0
  5  6  1  0  0  0
  5  3  1  0  0  0
  3  4  1  0  0  0
  3  1  1  0  0  0
  1  2  1  0  0  0
  1 14  1  0  0  0
 14 13  1  0  0  0
 13 15  1  0  0  0
  4 10  1  0  0  0
  6 11  1  0  0  0
  8 12  1  0  0  0
M  END
> <minimizedAffinity>
-6.41116

$$$$
4XOC_KGM_A_501


 23 23  0  0  0  0  0  0  0  0999 V2000
  -57.3615   -3.4641    4.3508 C   0  0  0  0  0  0  0  0  0  0  0  0
  -56.6290   -2.7622    3.3729 O   0  0  0  0  0  0  0  0  0  0  0  0
  -57.7836   -4.8598    3.8616 C   0  0  0  0  0  0  0  0  0  0  0  0
  -58.6141   -5.4866    4.8075 O   0  0  0  0  0  0  0  0  0  0  0  0
  -58.5717   -4.7015    2.5368 C   0  0  0  0  0  0  0  0  0  0  0  0
  -58.8622   -5.9799    2.0101 O   0  0  0  0  0  0  0  0  0  0  0  0
  -57.7367   -3.9007    1.5520 C   0  0  0  0  0  0  0  0  0  0  0  0
  -56.5510   -4.5729    1.1908 O   0  0  0  0  0  0  0  0  0  0  0  0
  -57.3242   -2.5691    2.1587 C   0  0  0  0  0  0  0  0  0  0  0  0
  -59.4106   -4.9502    4.9442 H   0  0  0  0  0  0  0  0  0  0  0  0
  -58.0341   -6.4571    1.8444 H   0  0  0  0  0  0  0  0  0  0  0  0
  -55.9973   -4.6972    1.9774 H   0  0  0  0  0  0  0  0  0  0  0  0
  -55.5341   -4.5942    5.4811 O   0  0  0  0  0  0  0  0  0  0  0  0
  -56.4402   -3.4934    5.5615 C   0  0  0  0  0  0  0  0  0  0  0  0
  -54.9566   -4.5953    6.2604 H   0  0  0  0  0  0  0  0  0  0  0  0
  -58.5322   -1.8543    2.3452 O   0  0  0  0  0  0  0  0  0  0  0  0
  -58.3528   -0.4263    2.3783 C   0  0  0  0  0  0  0  0  0  0  0  0
  -57.0969   -0.0417    1.6078 C   0  0  0  0  0  0  0  0  0  0  0  0
  -56.9504    1.4810    1.4674 C   0  0  0  0  0  0  0  0  0  0  0  0
  -56.1921    1.9959    2.6876 C   0  0  0  0  0  0  0  0  0  0  0  0
  -56.7933    3.2314    3.3204 C   0  0  0  0  0  0  0  0  0  0  0  0
  -58.8167    3.0956    4.8512 C   0  0  0  0  0  0  0  0  0  0  0  0
  -58.2928    2.9559    3.4322 C   0  0  0  0  0  0  0  0  0  0  0  0
 22 23  1  0  0  0
 23 21  1  0  0  0
 21 20  1  0  0  0
 20 19  1  0  0  0
 19 18  1  0  0  0
 18 17  1  0  0  0
 17 16  1  0  0  0
 16  9  1  0  0  0
  9  7  1  0  0  0
  9  2  1  0  0  0
  7  8  1  0  0  0
  7  5  1  0  0  0
  5  6  1  0  0  0
  5  3  1  0  0  0
  3  4  1  0  0  0
  3  1  1  0  0  0
  1  2  1  0  0  0
  1 14  1  0  0  0
 14 13  1  0  0  0
 13 15  1  0  0  0
  4 10  1  0  0  0
  6 11  1  0  0  0
  8 12  1  0  0  0
M  END
> <minimizedAffinity>
-6.22435

$$$$
4XOC_KGM_A_501


 23 23  0  0  0  0  0  0  0  0999 V2000
  -56.8542   -3.5688    3.8854 C   0  0  0  0  0  0  0  0  0  0  0  0
  -56.0715   -3.7428    2.7265 O   0  0  0  0  0  0  0  0  0  0  0  0
  -57.8771   -4.7032    4.0642 C   0  0  0  0  0  0  0  0  0  0  0  0
  -58.7229   -4.4406    5.1564 O   0  0  0  0  0  0  0  0  0  0  0  0
  -58.7395   -4.7976    2.7802 C   0  0  0  0  0  0  0  0  0  0  0  0
  -59.6029   -5.9117    2.8779 O   0  0  0  0  0  0  0  0  0  0  0  0
  -57.8259   -4.9404    1.5747 C   0  0  0  0  0  0  0  0  0  0  0  0
  -57.0887   -6.1419    1.6058 O   0  0  0  0  0  0  0  0  0  0  0  0
  -56.8181   -3.8030    1.5291 C   0  0  0  0  0  0  0  0  0  0  0  0
  -59.2013   -3.6109    5.0027 H   0  0  0  0  0  0  0  0  0  0  0  0
  -59.0770   -6.7203    2.9802 H   0  0  0  0  0  0  0  0  0  0  0  0
  -56.5116   -6.1471    2.3855 H   0  0  0  0  0  0  0  0  0  0  0  0
  -55.2751   -4.7603    5.2929 O   0  0  0  0  0  0  0  0  0  0  0  0
  -55.8384   -3.4779    5.0148 C   0  0  0  0  0  0  0  0  0  0  0  0
  -54.6315   -4.6812    6.0142 H   0  0  0  0  0  0  0  0  0  0  0  0
  -57.5868   -2.6320    1.3222 O   0  0  0  0  0  0  0  0  0  0  0  0
  -57.5197   -2.1344   -0.0270 C   0  0  0  0  0  0  0  0  0  0  0  0
  -58.8252   -1.4402   -0.3911 C   0  0  0  0  0  0  0  0  0  0  0  0
  -59.3665   -0.5868    0.7658 C   0  0  0  0  0  0  0  0  0  0  0  0
  -60.2787    0.4844    0.1746 C   0  0  0  0  0  0  0  0  0  0  0  0
  -61.3525   -0.0497   -0.7474 C   0  0  0  0  0  0  0  0  0  0  0  0
  -62.8164    1.4747    0.6630 C   0  0  0  0  0  0  0  0  0  0  0  0
  -62.4699    0.9934   -0.7355 C   0  0  0  0  0  0  0  0  0  0  0  0
 22 23  1  0  0  0
 23 21  1  0  0  0
 21 20  1  0  0  0
 20 19  1  0  0  0
 19 18  1  0  0  0
 18 17  1  0  0  0
 17 16  1  0  0  0
 16  9  1  0  0  0
  9  7  1  0  0  0
  9  2  1  0  0  0
  7  8  1  0  0  0
  7  5  1  0  0  0
  5  6  1  0  0  0
  5  3  1  0  0  0
  3  4  1  0  0  0
  3  1  1  0  0  0
  1  2  1  0  0  0
  1 14  1  0  0  0
 14 13  1  0  0  0
 13 15  1  0  0  0
  4 10  1  0  0  0
  6 11  1  0  0  0
  8 12  1  0  0  0
M  END
> <minimizedAffinity>
-5.98790

$$$$
4XOC_KGM_A_501


 23 23  0  0  0  0  0  0  0  0999 V2000
  -56.9337   -3.5991    3.9888 C   0  0  0  0  0  0  0  0  0  0  0  0
  -56.1074   -3.6039    2.8473 O   0  0  0  0  0  0  0  0  0  0  0  0
  -57.8849   -4.8074    4.0153 C   0  0  0  0  0  0  0  0  0  0  0  0
  -58.7780   -4.7118    5.0971 O   0  0  0  0  0  0  0  0  0  0  0  0
  -58.7010   -4.8225    2.6980 C   0  0  0  0  0  0  0  0  0  0  0  0
  -59.4920   -5.9923    2.6517 O   0  0  0  0  0  0  0  0  0  0  0  0
  -57.7447   -4.7833    1.5180 C   0  0  0  0  0  0  0  0  0  0  0  0
  -56.9316   -5.9334    1.4543 O   0  0  0  0  0  0  0  0  0  0  0  0
  -56.8128   -3.5868    1.6238 C   0  0  0  0  0  0  0  0  0  0  0  0
  -59.3050   -3.9020    5.0108 H   0  0  0  0  0  0  0  0  0  0  0  0
  -58.9174   -6.7729    2.6908 H   0  0  0  0  0  0  0  0  0  0  0  0
  -56.3787   -5.9829    2.2498 H   0  0  0  0  0  0  0  0  0  0  0  0
  -55.2806   -4.8112    5.2898 O   0  0  0  0  0  0  0  0  0  0  0  0
  -55.9599   -3.5621    5.1575 C   0  0  0  0  0  0  0  0  0  0  0  0
  -54.6657   -4.7672    6.0387 H   0  0  0  0  0  0  0  0  0  0  0  0
  -57.6502   -2.4508    1.5085 O   0  0  0  0  0  0  0  0  0  0  0  0
  -57.8192   -1.9998    0.1518 C   0  0  0  0  0  0  0  0  0  0  0  0
  -58.4372   -0.6082    0.1393 C   0  0  0  0  0  0  0  0  0  0  0  0
  -57.3708    0.4966    0.1831 C   0  0  0  0  0  0  0  0  0  0  0  0
  -56.3603    0.2205   -0.9267 C   0  0  0  0  0  0  0  0  0  0  0  0
  -55.1928    1.1819   -0.9609 C   0  0  0  0  0  0  0  0  0  0  0  0
  -53.7787   -0.8152   -1.6453 C   0  0  0  0  0  0  0  0  0  0  0  0
  -54.2060    0.6046   -1.9758 C   0  0  0  0  0  0  0  0  0  0  0  0
 22 23  1  0  0  0
 23 21  1  0  0  0
 21 20  1  0  0  0
 20 19  1  0  0  0
 19 18  1  0  0  0
 18 17  1  0  0  0
 17 16  1  0  0  0
 16  9  1  0  0  0
  9  7  1  0  0  0
  9  2  1  0  0  0
  7  8  1  0  0  0
  7  5  1  0  0  0
  5  6  1  0  0  0
  5  3  1  0  0  0
  3  4  1  0  0  0
  3  1  1  0  0  0
  1  2  1  0  0  0
  1 14  1  0  0  0
 14 13  1  0  0  0
 13 15  1  0  0  0
  4 10  1  0  0  0
  6 11  1  0  0  0
  8 12  1  0  0  0
M  END
> <minimizedAffinity>
-5.88855

$$$$
4XOC_KGM_A_501


 23 23  0  0  0  0  0  0  0  0999 V2000
  -57.7592   -3.6061    3.2045 C   0  0  0  0  0  0  0  0  0  0  0  0
  -57.0365   -4.0190    2.0674 O   0  0  0  0  0  0  0  0  0  0  0  0
  -59.2301   -3.3032    2.8723 C   0  0  0  0  0  0  0  0  0  0  0  0
  -59.8940   -2.7781    3.9951 O   0  0  0  0  0  0  0  0  0  0  0  0
  -59.2732   -2.2526    1.7341 C   0  0  0  0  0  0  0  0  0  0  0  0
  -60.6131   -2.0526    1.3330 O   0  0  0  0  0  0  0  0  0  0  0  0
  -58.4394   -2.7490    0.5649 C   0  0  0  0  0  0  0  0  0  0  0  0
  -58.9704   -3.9240   -0.0056 O   0  0  0  0  0  0  0  0  0  0  0  0
  -57.0249   -3.0754    1.0165 C   0  0  0  0  0  0  0  0  0  0  0  0
  -59.4610   -1.9552    4.2712 H   0  0  0  0  0  0  0  0  0  0  0  0
  -60.9854   -2.8916    1.0195 H   0  0  0  0  0  0  0  0  0  0  0  0
  -58.9632   -4.6353    0.6538 H   0  0  0  0  0  0  0  0  0  0  0  0
  -58.8421   -5.2989    4.5669 O   0  0  0  0  0  0  0  0  0  0  0  0
  -57.5789   -4.7443    4.1982 C   0  0  0  0  0  0  0  0  0  0  0  0
  -58.7057   -6.0215    5.1996 H   0  0  0  0  0  0  0  0  0  0  0  0
  -56.4672   -1.8377    1.4191 O   0  0  0  0  0  0  0  0  0  0  0  0
  -56.3423   -0.8894    0.3432 C   0  0  0  0  0  0  0  0  0  0  0  0
  -56.5491    0.5246    0.8694 C   0  0  0  0  0  0  0  0  0  0  0  0
  -56.9173    0.5367    2.3607 C   0  0  0  0  0  0  0  0  0  0  0  0
  -57.3311    1.9578    2.7324 C   0  0  0  0  0  0  0  0  0  0  0  0
  -58.7405    2.0773    3.2687 C   0  0  0  0  0  0  0  0  0  0  0  0
  -57.2171    3.3895    4.8222 C   0  0  0  0  0  0  0  0  0  0  0  0
  -58.6422    2.9690    4.5065 C   0  0  0  0  0  0  0  0  0  0  0  0
 22 23  1  0  0  0
 23 21  1  0  0  0
 21 20  1  0  0  0
 20 19  1  0  0  0
 19 18  1  0  0  0
 18 17  1  0  0  0
 17 16  1  0  0  0
 16  9  1  0  0  0
  9  7  1  0  0  0
  9  2  1  0  0  0
  7  8  1  0  0  0
  7  5  1  0  0  0
  5  6  1  0  0  0
  5  3  1  0  0  0
  3  4  1  0  0  0
  3  1  1  0  0  0
  1  2  1  0  0  0
  1 14  1  0  0  0
 14 13  1  0  0  0
 13 15  1  0  0  0
  4 10  1  0  0  0
  6 11  1  0  0  0
  8 12  1  0  0  0
M  END
> <minimizedAffinity>
-5.43979

$$$$
4XOC_KGM_A_501


 23 23  0  0  0  0  0  0  0  0999 V2000
  -57.7074   -3.1288    3.7159 C   0  0  0  0  0  0  0  0  0  0  0  0
  -56.6750   -2.3132    3.2113 O   0  0  0  0  0  0  0  0  0  0  0  0
  -58.2317   -4.1138    2.6575 C   0  0  0  0  0  0  0  0  0  0  0  0
  -59.3391   -4.8271    3.1493 O   0  0  0  0  0  0  0  0  0  0  0  0
  -58.6744   -3.3086    1.4097 C   0  0  0  0  0  0  0  0  0  0  0  0
  -59.0449   -4.2049    0.3823 O   0  0  0  0  0  0  0  0  0  0  0  0
  -57.5259   -2.4252    0.9525 C   0  0  0  0  0  0  0  0  0  0  0  0
  -56.4144   -3.1787    0.5225 O   0  0  0  0  0  0  0  0  0  0  0  0
  -57.0469   -1.5383    2.0905 C   0  0  0  0  0  0  0  0  0  0  0  0
  -60.0490   -4.2061    3.3759 H   0  0  0  0  0  0  0  0  0  0  0  0
  -58.2887   -4.7694    0.1574 H   0  0  0  0  0  0  0  0  0  0  0  0
  -56.0739   -3.7041    1.2633 H   0  0  0  0  0  0  0  0  0  0  0  0
  -56.8728   -5.1960    4.6775 O   0  0  0  0  0  0  0  0  0  0  0  0
  -57.0906   -3.8075    4.9302 C   0  0  0  0  0  0  0  0  0  0  0  0
  -56.4800   -5.6096    5.4620 H   0  0  0  0  0  0  0  0  0  0  0  0
  -58.1349   -0.6781    2.3760 O   0  0  0  0  0  0  0  0  0  0  0  0
  -57.9201    0.6786    1.9450 C   0  0  0  0  0  0  0  0  0  0  0  0
  -59.0784    1.5577    2.3970 C   0  0  0  0  0  0  0  0  0  0  0  0
  -58.7367    2.3544    3.6652 C   0  0  0  0  0  0  0  0  0  0  0  0
  -58.5894    3.8222    3.2742 C   0  0  0  0  0  0  0  0  0  0  0  0
  -57.4415    4.5366    3.9527 C   0  0  0  0  0  0  0  0  0  0  0  0
  -55.5619    3.7112    5.4501 C   0  0  0  0  0  0  0  0  0  0  0  0
  -56.3666    3.4745    4.1836 C   0  0  0  0  0  0  0  0  0  0  0  0
 22 23  1  0  0  0
 23 21  1  0  0  0
 21 20  1  0  0  0
 20 19  1  0  0  0
 19 18  1  0  0  0
 18 17  1  0  0  0
 17 16  1  0  0  0
 16  9  1  0  0  0
  9  7  1  0  0  0
  9  2  1  0  0  0
  7  8  1  0  0  0
  7  5  1  0  0  0
  5  6  1  0  0  0
  5  3  1  0  0  0
  3  4  1  0  0  0
  3  1  1  0  0  0
  1  2  1  0  0  0
  1 14  1  0  0  0
 14 13  1  0  0  0
 13 15  1  0  0  0
  4 10  1  0  0  0
  6 11  1  0  0  0
  8 12  1  0  0  0
M  END
> <minimizedAffinity>
-5.26233

$$$$
4XOC_KGM_A_501


 23 23  0  0  0  0  0  0  0  0999 V2000
  -57.9792   -2.7964    3.2795 C   0  0  0  0  0  0  0  0  0  0  0  0
  -56.9067   -2.7699    2.3658 O   0  0  0  0  0  0  0  0  0  0  0  0
  -59.3390   -2.8938    2.5675 C   0  0  0  0  0  0  0  0  0  0  0  0
  -60.3921   -2.7949    3.4940 O   0  0  0  0  0  0  0  0  0  0  0  0
  -59.4536   -1.7228    1.5591 C   0  0  0  0  0  0  0  0  0  0  0  0
  -60.6430   -1.8658    0.8100 O   0  0  0  0  0  0  0  0  0  0  0  0
  -58.2443   -1.7360    0.6393 C   0  0  0  0  0  0  0  0  0  0  0  0
  -58.1955   -2.8980   -0.1579 O   0  0  0  0  0  0  0  0  0  0  0  0
  -56.9570   -1.6983    1.4472 C   0  0  0  0  0  0  0  0  0  0  0  0
  -60.3406   -1.9414    3.9521 H   0  0  0  0  0  0  0  0  0  0  0  0
  -60.6248   -2.7098    0.3322 H   0  0  0  0  0  0  0  0  0  0  0  0
  -58.1109   -3.6781    0.4124 H   0  0  0  0  0  0  0  0  0  0  0  0
  -57.5058   -5.1739    3.4116 O   0  0  0  0  0  0  0  0  0  0  0  0
  -57.6752   -3.9834    4.1817 C   0  0  0  0  0  0  0  0  0  0  0  0
  -57.3132   -5.9175    4.0039 H   0  0  0  0  0  0  0  0  0  0  0  0
  -56.9617   -0.4403    2.0973 O   0  0  0  0  0  0  0  0  0  0  0  0
  -56.5470    0.6447    1.2469 C   0  0  0  0  0  0  0  0  0  0  0  0
  -56.4752    1.9368    2.0496 C   0  0  0  0  0  0  0  0  0  0  0  0
  -56.8167    1.7149    3.5308 C   0  0  0  0  0  0  0  0  0  0  0  0
  -56.8875    3.0807    4.2079 C   0  0  0  0  0  0  0  0  0  0  0  0
  -55.8746    3.2826    5.3132 C   0  0  0  0  0  0  0  0  0  0  0  0
  -54.5401    4.7687    3.7425 C   0  0  0  0  0  0  0  0  0  0  0  0
  -55.2647    4.6637    5.0735 C   0  0  0  0  0  0  0  0  0  0  0  0
 22 23  1  0  0  0
 23 21  1  0  0  0
 21 20  1  0  0  0
 20 19  1  0  0  0
 19 18  1  0  0  0
 18 17  1  0  0  0
 17 16  1  0  0  0
 16  9  1  0  0  0
  9  7  1  0  0  0
  9  2  1  0  0  0
  7  8  1  0  0  0
  7  5  1  0  0  0
  5  6  1  0  0  0
  5  3  1  0  0  0
  3  4  1  0  0  0
  3  1  1  0  0  0
  1  2  1  0  0  0
  1 14  1  0  0  0
 14 13  1  0  0  0
 13 15  1  0  0  0
  4 10  1  0  0  0
  6 11  1  0  0  0
  8 12  1  0  0  0
M  END
> <minimizedAffinity>
-5.13664

$$$$
4XOC_KGM_A_501


 23 23  0  0  0  0  0  0  0  0999 V2000
  -57.3253   -2.0802    1.8255 C   0  0  0  0  0  0  0  0  0  0  0  0
  -57.8478   -1.3527    0.7376 O   0  0  0  0  0  0  0  0  0  0  0  0
  -58.3950   -2.9573    2.4977 C   0  0  0  0  0  0  0  0  0  0  0  0
  -57.8775   -3.5748    3.6501 O   0  0  0  0  0  0  0  0  0  0  0  0
  -59.5855   -2.0552    2.9103 C   0  0  0  0  0  0  0  0  0  0  0  0
  -60.6284   -2.8613    3.4190 O   0  0  0  0  0  0  0  0  0  0  0  0
  -60.0638   -1.2744    1.6978 C   0  0  0  0  0  0  0  0  0  0  0  0
  -60.5789   -2.1176    0.6920 O   0  0  0  0  0  0  0  0  0  0  0  0
  -58.9163   -0.4938    1.0772 C   0  0  0  0  0  0  0  0  0  0  0  0
  -57.5908   -2.8952    4.2800 H   0  0  0  0  0  0  0  0  0  0  0  0
  -60.9135   -3.4895    2.7371 H   0  0  0  0  0  0  0  0  0  0  0  0
  -59.8779   -2.7083    0.3748 H   0  0  0  0  0  0  0  0  0  0  0  0
  -55.4297   -3.5358    2.2526 O   0  0  0  0  0  0  0  0  0  0  0  0
  -56.1718   -2.8728    1.2283 C   0  0  0  0  0  0  0  0  0  0  0  0
  -54.7004   -4.0345    1.8522 H   0  0  0  0  0  0  0  0  0  0  0  0
  -58.5422    0.4596    2.0550 O   0  0  0  0  0  0  0  0  0  0  0  0
  -57.7308    1.5276    1.5319 C   0  0  0  0  0  0  0  0  0  0  0  0
  -56.5088    1.7339    2.4167 C   0  0  0  0  0  0  0  0  0  0  0  0
  -56.8833    1.8318    3.9033 C   0  0  0  0  0  0  0  0  0  0  0  0
  -56.1368    3.0217    4.5000 C   0  0  0  0  0  0  0  0  0  0  0  0
  -57.0270    4.1716    4.9167 C   0  0  0  0  0  0  0  0  0  0  0  0
  -54.6639    4.7235    5.6696 C   0  0  0  0  0  0  0  0  0  0  0  0
  -56.1206    5.1540    5.6584 C   0  0  0  0  0  0  0  0  0  0  0  0
 22 23  1  0  0  0
 23 21  1  0  0  0
 21 20  1  0  0  0
 20 19  1  0  0  0
 19 18  1  0  0  0
 18 17  1  0  0  0
 17 16  1  0  0  0
 16  9  1  0  0  0
  9  7  1  0  0  0
  9  2  1  0  0  0
  7  8  1  0  0  0
  7  5  1  0  0  0
  5  6  1  0  0  0
  5  3  1  0  0  0
  3  4  1  0  0  0
  3  1  1  0  0  0
  1  2  1  0  0  0
  1 14  1  0  0  0
 14 13  1  0  0  0
 13 15  1  0  0  0
  4 10  1  0  0  0
  6 11  1  0  0  0
  8 12  1  0  0  0
M  END
> <minimizedAffinity>
-4.94049

$$$$
4XOC_KGM_A_501


 23 23  0  0  0  0  0  0  0  0999 V2000
  -58.5488    0.8943    1.5084 C   0  0  0  0  0  0  0  0  0  0  0  0
  -58.1648   -0.1354    2.3903 O   0  0  0  0  0  0  0  0  0  0  0  0
  -60.0048    0.7361    1.0387 C   0  0  0  0  0  0  0  0  0  0  0  0
  -60.3208    1.7036    0.0686 O   0  0  0  0  0  0  0  0  0  0  0  0
  -60.1708   -0.6703    0.4094 C   0  0  0  0  0  0  0  0  0  0  0  0
  -61.5295   -0.8788    0.0829 O   0  0  0  0  0  0  0  0  0  0  0  0
  -59.6978   -1.7197    1.4011 C   0  0  0  0  0  0  0  0  0  0  0  0
  -60.4924   -1.7471    2.5655 O   0  0  0  0  0  0  0  0  0  0  0  0
  -58.2719   -1.4335    1.8441 C   0  0  0  0  0  0  0  0  0  0  0  0
  -59.7335    1.5985   -0.6962 H   0  0  0  0  0  0  0  0  0  0  0  0
  -62.0689   -0.8130    0.8864 H   0  0  0  0  0  0  0  0  0  0  0  0
  -60.4267   -0.8938    3.0219 H   0  0  0  0  0  0  0  0  0  0  0  0
  -59.5239    2.8363    2.5909 O   0  0  0  0  0  0  0  0  0  0  0  0
  -58.2947    2.1741    2.2914 C   0  0  0  0  0  0  0  0  0  0  0  0
  -59.3408    3.6481    3.0893 H   0  0  0  0  0  0  0  0  0  0  0  0
  -57.4817   -1.5872    0.6792 O   0  0  0  0  0  0  0  0  0  0  0  0
  -57.3628   -2.9545    0.2447 C   0  0  0  0  0  0  0  0  0  0  0  0
  -56.8058   -3.8123    1.3728 C   0  0  0  0  0  0  0  0  0  0  0  0
  -57.7895   -4.9119    1.8005 C   0  0  0  0  0  0  0  0  0  0  0  0
  -57.5595   -5.2001    3.2814 C   0  0  0  0  0  0  0  0  0  0  0  0
  -58.2951   -4.2692    4.2199 C   0  0  0  0  0  0  0  0  0  0  0  0
  -55.9611   -4.0103    5.1903 C   0  0  0  0  0  0  0  0  0  0  0  0
  -57.2397   -3.3079    4.7667 C   0  0  0  0  0  0  0  0  0  0  0  0
 22 23  1  0  0  0
 23 21  1  0  0  0
 21 20  1  0  0  0
 20 19  1  0  0  0
 19 18  1  0  0  0
 18 17  1  0  0  0
 17 16  1  0  0  0
 16  9  1  0  0  0
  9  7  1  0  0  0
  9  2  1  0  0  0
  7  8  1  0  0  0
  7  5  1  0  0  0
  5  6  1  0  0  0
  5  3  1  0  0  0
  3  4  1  0  0  0
  3  1  1  0  0  0
  1  2  1  0  0  0
  1 14  1  0  0  0
 14 13  1  0  0  0
 13 15  1  0  0  0
  4 10  1  0  0  0
  6 11  1  0  0  0
  8 12  1  0  0  0
M  END
> <minimizedAffinity>
-4.74189

$$$$
