6GNR_6J3_A_201


 20 21  0  0  0  0  0  0  0  0999 V2000
    5.1025    8.1841   -0.5121 C   0  0  0  0  0  0  0  0  0  0  0  0
    5.1799    9.5449   -0.2390 C   0  0  0  0  0  0  0  0  0  0  0  0
    4.4849   10.0739    0.8670 C   0  0  0  0  0  0  0  0  0  0  0  0
    3.7252    9.1837    1.6531 C   0  0  0  0  0  0  0  0  0  0  0  0
    3.6304    7.8480    1.4128 N   0  0  0  0  0  0  0  0  0  0  0  0
    4.3015    7.3557    0.3485 C   0  0  0  0  0  0  0  0  0  0  0  0
    7.0584    8.0413   -1.9072 O   0  0  0  0  0  0  0  0  0  0  0  0
    5.8460    7.6274   -1.6860 C   0  0  0  0  0  0  0  0  0  0  0  0
    5.2766    6.7985   -2.3896 O   0  0  0  0  0  0  0  0  0  0  0  0
    4.4011    6.5338   -2.1863 H   0  0  0  0  0  0  0  0  0  0  0  0
    4.2210    6.0336    0.0944 N   0  0  0  0  0  0  0  0  0  0  0  0
    5.0887    5.5803   -0.0093 H   0  0  0  0  0  0  0  0  0  0  0  0
    3.1162    5.2099   -0.0444 C   0  0  0  0  0  0  0  0  0  0  0  0
    3.3006    3.8356    0.0865 C   0  0  0  0  0  0  0  0  0  0  0  0
    4.6523    3.2314    0.4343 C   0  0  0  0  0  0  0  0  0  0  0  0
    2.1740    3.0244   -0.0964 C   0  0  0  0  0  0  0  0  0  0  0  0
    2.3136    1.3029    0.0655 Cl  0  0  0  0  0  0  0  0  0  0  0  0
    0.9091    3.5179   -0.4142 C   0  0  0  0  0  0  0  0  0  0  0  0
    0.7637    4.9078   -0.5587 C   0  0  0  0  0  0  0  0  0  0  0  0
    1.8476    5.7420   -0.3826 C   0  0  0  0  0  0  0  0  0  0  0  0
  7  8  2  0  0  0
  2  3  2  0  0  0
  2  1  1  0  0  0
  8  1  1  0  0  0
  8  9  1  0  0  0
  3  4  1  0  0  0
  1  6  2  0  0  0
  4  5  2  0  0  0
  6  5  1  0  0  0
  6 11  1  0  0  0
 11 13  1  0  0  0
 13 20  2  0  0  0
 13 14  1  0  0  0
 15 14  1  0  0  0
 20 19  1  0  0  0
 14 16  2  0  0  0
 19 18  2  0  0  0
 16 18  1  0  0  0
 16 17  1  0  0  0
  9 10  1  0  0  0
 11 12  1  0  0  0
M  END
> <minimizedAffinity>
-7.83840

$$$$
6GNR_6J3_A_201


 20 21  0  0  0  0  0  0  0  0999 V2000
    4.5269    8.3072    0.4740 C   0  0  0  0  0  0  0  0  0  0  0  0
    5.6532    9.0582    0.1579 C   0  0  0  0  0  0  0  0  0  0  0  0
    6.3793    8.7652   -1.0138 C   0  0  0  0  0  0  0  0  0  0  0  0
    5.9253    7.7015   -1.8199 C   0  0  0  0  0  0  0  0  0  0  0  0
    4.8271    6.9493   -1.5388 N   0  0  0  0  0  0  0  0  0  0  0  0
    4.1418    7.2415   -0.4116 C   0  0  0  0  0  0  0  0  0  0  0  0
    3.4669    9.8678    1.9684 O   0  0  0  0  0  0  0  0  0  0  0  0
    3.7575    8.6256    1.7180 C   0  0  0  0  0  0  0  0  0  0  0  0
    3.4308    7.6952    2.4485 O   0  0  0  0  0  0  0  0  0  0  0  0
    3.6656    6.8169    2.2219 H   0  0  0  0  0  0  0  0  0  0  0  0
    3.0494    6.5078   -0.1162 N   0  0  0  0  0  0  0  0  0  0  0  0
    2.2357    7.0330    0.0609 H   0  0  0  0  0  0  0  0  0  0  0  0
    2.8859    5.1357   -0.0215 C   0  0  0  0  0  0  0  0  0  0  0  0
    1.6038    4.6144   -0.1773 C   0  0  0  0  0  0  0  0  0  0  0  0
    0.4081    5.4950   -0.5056 C   0  0  0  0  0  0  0  0  0  0  0  0
    1.4618    3.2283   -0.0387 C   0  0  0  0  0  0  0  0  0  0  0  0
   -0.0986    2.4960   -0.2340 Cl  0  0  0  0  0  0  0  0  0  0  0  0
    2.5185    2.3686    0.2593 C   0  0  0  0  0  0  0  0  0  0  0  0
    3.7946    2.9311    0.4300 C   0  0  0  0  0  0  0  0  0  0  0  0
    3.9778    4.2914    0.2978 C   0  0  0  0  0  0  0  0  0  0  0  0
  7  8  2  0  0  0
  2  3  2  0  0  0
  2  1  1  0  0  0
  8  1  1  0  0  0
  8  9  1  0  0  0
  3  4  1  0  0  0
  1  6  2  0  0  0
  4  5  2  0  0  0
  6  5  1  0  0  0
  6 11  1  0  0  0
 11 13  1  0  0  0
 13 20  2  0  0  0
 13 14  1  0  0  0
 15 14  1  0  0  0
 20 19  1  0  0  0
 14 16  2  0  0  0
 19 18  2  0  0  0
 16 18  1  0  0  0
 16 17  1  0  0  0
  9 10  1  0  0  0
 11 12  1  0  0  0
M  END
> <minimizedAffinity>
-7.79440

$$$$
6GNR_6J3_A_201


 20 21  0  0  0  0  0  0  0  0999 V2000
    4.9180    7.7974   -0.5355 C   0  0  0  0  0  0  0  0  0  0  0  0
    5.1015    8.9670    0.1929 C   0  0  0  0  0  0  0  0  0  0  0  0
    4.4163    9.1430    1.4118 C   0  0  0  0  0  0  0  0  0  0  0  0
    3.5570    8.1099    1.8381 C   0  0  0  0  0  0  0  0  0  0  0  0
    3.3572    6.9540    1.1491 N   0  0  0  0  0  0  0  0  0  0  0  0
    4.0203    6.8000   -0.0180 C   0  0  0  0  0  0  0  0  0  0  0  0
    6.9002    7.9709   -1.8895 O   0  0  0  0  0  0  0  0  0  0  0  0
    5.6515    7.6144   -1.8276 C   0  0  0  0  0  0  0  0  0  0  0  0
    5.0396    7.1308   -2.7751 O   0  0  0  0  0  0  0  0  0  0  0  0
    4.1393    6.8904   -2.6778 H   0  0  0  0  0  0  0  0  0  0  0  0
    3.8364    5.6602   -0.7152 N   0  0  0  0  0  0  0  0  0  0  0  0
    3.9505    5.7498   -1.6889 H   0  0  0  0  0  0  0  0  0  0  0  0
    3.5133    4.3842   -0.2841 C   0  0  0  0  0  0  0  0  0  0  0  0
    2.1770    3.9941   -0.3295 C   0  0  0  0  0  0  0  0  0  0  0  0
    1.0901    4.8982   -0.8900 C   0  0  0  0  0  0  0  0  0  0  0  0
    1.8739    2.7131    0.1479 C   0  0  0  0  0  0  0  0  0  0  0  0
    0.2360    2.1429    0.1117 Cl  0  0  0  0  0  0  0  0  0  0  0  0
    2.8250    1.8378    0.6713 C   0  0  0  0  0  0  0  0  0  0  0  0
    4.1602    2.2719    0.7206 C   0  0  0  0  0  0  0  0  0  0  0  0
    4.5012    3.5249    0.2566 C   0  0  0  0  0  0  0  0  0  0  0  0
  7  8  2  0  0  0
  2  3  2  0  0  0
  2  1  1  0  0  0
  8  1  1  0  0  0
  8  9  1  0  0  0
  3  4  1  0  0  0
  1  6  2  0  0  0
  4  5  2  0  0  0
  6  5  1  0  0  0
  6 11  1  0  0  0
 11 13  1  0  0  0
 13 20  2  0  0  0
 13 14  1  0  0  0
 15 14  1  0  0  0
 20 19  1  0  0  0
 14 16  2  0  0  0
 19 18  2  0  0  0
 16 18  1  0  0  0
 16 17  1  0  0  0
  9 10  1  0  0  0
 11 12  1  0  0  0
M  END
> <minimizedAffinity>
-7.74909

$$$$
6GNR_6J3_A_201


 20 21  0  0  0  0  0  0  0  0999 V2000
    4.2287    8.3044    0.5170 C   0  0  0  0  0  0  0  0  0  0  0  0
    5.1427    9.0689   -0.1988 C   0  0  0  0  0  0  0  0  0  0  0  0
    5.6917    8.5606   -1.3931 C   0  0  0  0  0  0  0  0  0  0  0  0
    5.2864    7.2758   -1.8084 C   0  0  0  0  0  0  0  0  0  0  0  0
    4.3938    6.5040   -1.1313 N   0  0  0  0  0  0  0  0  0  0  0  0
    3.8767    7.0044    0.0123 C   0  0  0  0  0  0  0  0  0  0  0  0
    3.2857   10.1000    1.8128 O   0  0  0  0  0  0  0  0  0  0  0  0
    3.6460    8.8512    1.7828 C   0  0  0  0  0  0  0  0  0  0  0  0
    3.5307    8.0921    2.7402 O   0  0  0  0  0  0  0  0  0  0  0  0
    3.8062    7.1996    2.6663 H   0  0  0  0  0  0  0  0  0  0  0  0
    2.9891    6.2549    0.6973 N   0  0  0  0  0  0  0  0  0  0  0  0
    3.0310    6.3577    1.6755 H   0  0  0  0  0  0  0  0  0  0  0  0
    2.0283    5.3639    0.2486 C   0  0  0  0  0  0  0  0  0  0  0  0
    2.3317    4.0047    0.2694 C   0  0  0  0  0  0  0  0  0  0  0  0
    3.6474    3.4791    0.8222 C   0  0  0  0  0  0  0  0  0  0  0  0
    1.3568    3.1298   -0.2254 C   0  0  0  0  0  0  0  0  0  0  0  0
    1.6481    1.4197   -0.2202 Cl  0  0  0  0  0  0  0  0  0  0  0  0
    0.1318    3.5497   -0.7429 C   0  0  0  0  0  0  0  0  0  0  0  0
   -0.1325    4.9293   -0.7673 C   0  0  0  0  0  0  0  0  0  0  0  0
    0.7995    5.8242   -0.2855 C   0  0  0  0  0  0  0  0  0  0  0  0
  7  8  2  0  0  0
  2  3  2  0  0  0
  2  1  1  0  0  0
  8  1  1  0  0  0
  8  9  1  0  0  0
  3  4  1  0  0  0
  1  6  2  0  0  0
  4  5  2  0  0  0
  6  5  1  0  0  0
  6 11  1  0  0  0
 11 13  1  0  0  0
 13 20  2  0  0  0
 13 14  1  0  0  0
 15 14  1  0  0  0
 20 19  1  0  0  0
 14 16  2  0  0  0
 19 18  2  0  0  0
 16 18  1  0  0  0
 16 17  1  0  0  0
  9 10  1  0  0  0
 11 12  1  0  0  0
M  END
> <minimizedAffinity>
-7.68190

$$$$
6GNR_6J3_A_201


 20 21  0  0  0  0  0  0  0  0999 V2000
    1.7472    3.8073   -0.4608 C   0  0  0  0  0  0  0  0  0  0  0  0
    1.5679    2.4569   -0.1837 C   0  0  0  0  0  0  0  0  0  0  0  0
    2.6803    1.6629    0.1600 C   0  0  0  0  0  0  0  0  0  0  0  0
    3.9448    2.2849    0.2002 C   0  0  0  0  0  0  0  0  0  0  0  0
    4.1527    3.6031   -0.0641 N   0  0  0  0  0  0  0  0  0  0  0  0
    3.0769    4.3513   -0.3930 C   0  0  0  0  0  0  0  0  0  0  0  0
    0.0797    4.5573   -2.0258 O   0  0  0  0  0  0  0  0  0  0  0  0
    0.5613    4.6465   -0.8215 C   0  0  0  0  0  0  0  0  0  0  0  0
    0.0917    5.3831    0.0405 O   0  0  0  0  0  0  0  0  0  0  0  0
    0.4770    5.4101    0.8943 H   0  0  0  0  0  0  0  0  0  0  0  0
    3.2623    5.6608   -0.6575 N   0  0  0  0  0  0  0  0  0  0  0  0
    3.2143    5.8994   -1.6114 H   0  0  0  0  0  0  0  0  0  0  0  0
    3.5093    6.7244    0.1946 C   0  0  0  0  0  0  0  0  0  0  0  0
    4.3151    7.7625   -0.2668 C   0  0  0  0  0  0  0  0  0  0  0  0
    4.8704    7.7861   -1.6824 C   0  0  0  0  0  0  0  0  0  0  0  0
    4.5793    8.8061    0.6287 C   0  0  0  0  0  0  0  0  0  0  0  0
    5.5606   10.1462    0.1282 Cl  0  0  0  0  0  0  0  0  0  0  0  0
    4.0980    8.8430    1.9370 C   0  0  0  0  0  0  0  0  0  0  0  0
    3.3051    7.7693    2.3756 C   0  0  0  0  0  0  0  0  0  0  0  0
    3.0181    6.7238    1.5234 C   0  0  0  0  0  0  0  0  0  0  0  0
  7  8  2  0  0  0
  2  3  2  0  0  0
  2  1  1  0  0  0
  8  1  1  0  0  0
  8  9  1  0  0  0
  3  4  1  0  0  0
  1  6  2  0  0  0
  4  5  2  0  0  0
  6  5  1  0  0  0
  6 11  1  0  0  0
 11 13  1  0  0  0
 13 20  2  0  0  0
 13 14  1  0  0  0
 15 14  1  0  0  0
 20 19  1  0  0  0
 14 16  2  0  0  0
 19 18  2  0  0  0
 16 18  1  0  0  0
 16 17  1  0  0  0
  9 10  1  0  0  0
 11 12  1  0  0  0
M  END
> <minimizedAffinity>
-7.60363

$$$$
6GNR_6J3_A_201


 20 21  0  0  0  0  0  0  0  0999 V2000
    2.4088    3.4174    0.4699 C   0  0  0  0  0  0  0  0  0  0  0  0
    1.3225    2.5955    0.1933 C   0  0  0  0  0  0  0  0  0  0  0  0
    0.0865    3.1712   -0.1631 C   0  0  0  0  0  0  0  0  0  0  0  0
    0.0073    4.5778   -0.2160 C   0  0  0  0  0  0  0  0  0  0  0  0
    1.0517    5.4088    0.0477 N   0  0  0  0  0  0  0  0  0  0  0  0
    2.2299    4.8422    0.3887 C   0  0  0  0  0  0  0  0  0  0  0  0
    4.6694    2.7705   -0.0437 O   0  0  0  0  0  0  0  0  0  0  0  0
    3.7201    2.8000    0.8441 C   0  0  0  0  0  0  0  0  0  0  0  0
    3.8429    2.3494    1.9790 O   0  0  0  0  0  0  0  0  0  0  0  0
    3.1268    2.3957    2.5815 H   0  0  0  0  0  0  0  0  0  0  0  0
    3.2777    5.6493    0.6527 N   0  0  0  0  0  0  0  0  0  0  0  0
    3.5146    5.7187    1.6057 H   0  0  0  0  0  0  0  0  0  0  0  0
    4.0747    6.3963   -0.1988 C   0  0  0  0  0  0  0  0  0  0  0  0
    4.5647    7.6162    0.2612 C   0  0  0  0  0  0  0  0  0  0  0  0
    4.3017    8.1110    1.6750 C   0  0  0  0  0  0  0  0  0  0  0  0
    5.3359    8.3679   -0.6338 C   0  0  0  0  0  0  0  0  0  0  0  0
    5.9983    9.8915   -0.1348 Cl  0  0  0  0  0  0  0  0  0  0  0  0
    5.6136    7.9678   -1.9405 C   0  0  0  0  0  0  0  0  0  0  0  0
    5.0862    6.7412   -2.3778 C   0  0  0  0  0  0  0  0  0  0  0  0
    4.3251    5.9687   -1.5260 C   0  0  0  0  0  0  0  0  0  0  0  0
  7  8  2  0  0  0
  2  3  2  0  0  0
  2  1  1  0  0  0
  8  1  1  0  0  0
  8  9  1  0  0  0
  3  4  1  0  0  0
  1  6  2  0  0  0
  4  5  2  0  0  0
  6  5  1  0  0  0
  6 11  1  0  0  0
 11 13  1  0  0  0
 13 20  2  0  0  0
 13 14  1  0  0  0
 15 14  1  0  0  0
 20 19  1  0  0  0
 14 16  2  0  0  0
 19 18  2  0  0  0
 16 18  1  0  0  0
 16 17  1  0  0  0
  9 10  1  0  0  0
 11 12  1  0  0  0
M  END
> <minimizedAffinity>
-7.60293

$$$$
6GNR_6J3_A_201


 20 21  0  0  0  0  0  0  0  0999 V2000
    1.6240    3.5818   -0.0640 C   0  0  0  0  0  0  0  0  0  0  0  0
    1.3555    2.2183   -0.1006 C   0  0  0  0  0  0  0  0  0  0  0  0
    2.2991    1.3086    0.4173 C   0  0  0  0  0  0  0  0  0  0  0  0
    3.4941    1.8331    0.9505 C   0  0  0  0  0  0  0  0  0  0  0  0
    3.7856    3.1609    1.0019 N   0  0  0  0  0  0  0  0  0  0  0  0
    2.8717    4.0208    0.5008 C   0  0  0  0  0  0  0  0  0  0  0  0
    0.0128    5.3482    0.2114 O   0  0  0  0  0  0  0  0  0  0  0  0
    0.6163    4.5435   -0.6122 C   0  0  0  0  0  0  0  0  0  0  0  0
    0.4056    4.5319   -1.8211 O   0  0  0  0  0  0  0  0  0  0  0  0
    0.8681    3.9311   -2.3716 H   0  0  0  0  0  0  0  0  0  0  0  0
    3.1418    5.3414    0.5437 N   0  0  0  0  0  0  0  0  0  0  0  0
    2.7366    5.8206    1.3023 H   0  0  0  0  0  0  0  0  0  0  0  0
    3.8966    6.1333   -0.3058 C   0  0  0  0  0  0  0  0  0  0  0  0
    4.2170    7.4234    0.1101 C   0  0  0  0  0  0  0  0  0  0  0  0
    3.8179    7.9535    1.4785 C   0  0  0  0  0  0  0  0  0  0  0  0
    4.9481    8.2147   -0.7843 C   0  0  0  0  0  0  0  0  0  0  0  0
    5.4028    9.8281   -0.3377 Cl  0  0  0  0  0  0  0  0  0  0  0  0
    5.3449    7.7855   -2.0505 C   0  0  0  0  0  0  0  0  0  0  0  0
    4.9868    6.4856   -2.4453 C   0  0  0  0  0  0  0  0  0  0  0  0
    4.2706    5.6726   -1.5922 C   0  0  0  0  0  0  0  0  0  0  0  0
  7  8  2  0  0  0
  2  3  2  0  0  0
  2  1  1  0  0  0
  8  1  1  0  0  0
  8  9  1  0  0  0
  3  4  1  0  0  0
  1  6  2  0  0  0
  4  5  2  0  0  0
  6  5  1  0  0  0
  6 11  1  0  0  0
 11 13  1  0  0  0
 13 20  2  0  0  0
 13 14  1  0  0  0
 15 14  1  0  0  0
 20 19  1  0  0  0
 14 16  2  0  0  0
 19 18  2  0  0  0
 16 18  1  0  0  0
 16 17  1  0  0  0
  9 10  1  0  0  0
 11 12  1  0  0  0
M  END
> <minimizedAffinity>
-7.41036

$$$$
6GNR_6J3_A_201


 20 21  0  0  0  0  0  0  0  0999 V2000
    2.3222    3.0877    0.2341 C   0  0  0  0  0  0  0  0  0  0  0  0
    1.2966    2.1524    0.3115 C   0  0  0  0  0  0  0  0  0  0  0  0
    0.0159    2.4813   -0.1761 C   0  0  0  0  0  0  0  0  0  0  0  0
   -0.1693    3.7679   -0.7220 C   0  0  0  0  0  0  0  0  0  0  0  0
    0.8135    4.7041   -0.8130 N   0  0  0  0  0  0  0  0  0  0  0  0
    2.0357    4.3746   -0.3406 C   0  0  0  0  0  0  0  0  0  0  0  0
    4.6806    2.7261   -0.0815 O   0  0  0  0  0  0  0  0  0  0  0  0
    3.6813    2.7312    0.7502 C   0  0  0  0  0  0  0  0  0  0  0  0
    3.7936    2.4611    1.9421 O   0  0  0  0  0  0  0  0  0  0  0  0
    3.0407    2.4795    2.4996 H   0  0  0  0  0  0  0  0  0  0  0  0
    3.0237    5.2889   -0.4230 N   0  0  0  0  0  0  0  0  0  0  0  0
    3.6295    5.1732   -1.1903 H   0  0  0  0  0  0  0  0  0  0  0  0
    3.3247    6.3643    0.3963 C   0  0  0  0  0  0  0  0  0  0  0  0
    4.2642    7.2895   -0.0524 C   0  0  0  0  0  0  0  0  0  0  0  0
    4.9110    7.1832   -1.4246 C   0  0  0  0  0  0  0  0  0  0  0  0
    4.5772    8.3455    0.8123 C   0  0  0  0  0  0  0  0  0  0  0  0
    5.7253    9.5507    0.3237 Cl  0  0  0  0  0  0  0  0  0  0  0  0
    4.0173    8.4988    2.0802 C   0  0  0  0  0  0  0  0  0  0  0  0
    3.0885    7.5357    2.5087 C   0  0  0  0  0  0  0  0  0  0  0  0
    2.7496    6.4825    1.6856 C   0  0  0  0  0  0  0  0  0  0  0  0
  7  8  2  0  0  0
  2  3  2  0  0  0
  2  1  1  0  0  0
  8  1  1  0  0  0
  8  9  1  0  0  0
  3  4  1  0  0  0
  1  6  2  0  0  0
  4  5  2  0  0  0
  6  5  1  0  0  0
  6 11  1  0  0  0
 11 13  1  0  0  0
 13 20  2  0  0  0
 13 14  1  0  0  0
 15 14  1  0  0  0
 20 19  1  0  0  0
 14 16  2  0  0  0
 19 18  2  0  0  0
 16 18  1  0  0  0
 16 17  1  0  0  0
  9 10  1  0  0  0
 11 12  1  0  0  0
M  END
> <minimizedAffinity>
-7.38865

$$$$
6GNR_6J3_A_201


 20 21  0  0  0  0  0  0  0  0999 V2000
    4.5613    7.1842   -0.6394 C   0  0  0  0  0  0  0  0  0  0  0  0
    4.6019    8.4578   -0.0839 C   0  0  0  0  0  0  0  0  0  0  0  0
    3.9629    8.7007    1.1485 C   0  0  0  0  0  0  0  0  0  0  0  0
    3.2953    7.6237    1.7664 C   0  0  0  0  0  0  0  0  0  0  0  0
    3.2387    6.3666    1.2494 N   0  0  0  0  0  0  0  0  0  0  0  0
    3.8552    6.1493    0.0670 C   0  0  0  0  0  0  0  0  0  0  0  0
    6.2404    7.6959   -2.2860 O   0  0  0  0  0  0  0  0  0  0  0  0
    5.2452    6.9314   -1.9468 C   0  0  0  0  0  0  0  0  0  0  0  0
    4.8361    6.0070   -2.6428 O   0  0  0  0  0  0  0  0  0  0  0  0
    4.1142    5.4853   -2.3518 H   0  0  0  0  0  0  0  0  0  0  0  0
    3.8114    4.9093   -0.4614 N   0  0  0  0  0  0  0  0  0  0  0  0
    4.5382    4.7045   -1.0932 H   0  0  0  0  0  0  0  0  0  0  0  0
    2.9103    3.8769   -0.2599 C   0  0  0  0  0  0  0  0  0  0  0  0
    3.3780    2.7003    0.3202 C   0  0  0  0  0  0  0  0  0  0  0  0
    4.8171    2.5465    0.7873 C   0  0  0  0  0  0  0  0  0  0  0  0
    2.4541    1.6598    0.4771 C   0  0  0  0  0  0  0  0  0  0  0  0
    2.9508    0.1662    1.2061 Cl  0  0  0  0  0  0  0  0  0  0  0  0
    1.1224    1.7404    0.0714 C   0  0  0  0  0  0  0  0  0  0  0  0
    0.6898    2.9349   -0.5286 C   0  0  0  0  0  0  0  0  0  0  0  0
    1.5673    3.9851   -0.6977 C   0  0  0  0  0  0  0  0  0  0  0  0
  7  8  2  0  0  0
  2  3  2  0  0  0
  2  1  1  0  0  0
  8  1  1  0  0  0
  8  9  1  0  0  0
  3  4  1  0  0  0
  1  6  2  0  0  0
  4  5  2  0  0  0
  6  5  1  0  0  0
  6 11  1  0  0  0
 11 13  1  0  0  0
 13 20  2  0  0  0
 13 14  1  0  0  0
 15 14  1  0  0  0
 20 19  1  0  0  0
 14 16  2  0  0  0
 19 18  2  0  0  0
 16 18  1  0  0  0
 16 17  1  0  0  0
  9 10  1  0  0  0
 11 12  1  0  0  0
M  END
> <minimizedAffinity>
-7.08171

$$$$
6GNR_6J3_A_201


 20 21  0  0  0  0  0  0  0  0999 V2000
    4.9850    9.7128    0.1417 C   0  0  0  0  0  0  0  0  0  0  0  0
    6.1849   10.4127    0.0901 C   0  0  0  0  0  0  0  0  0  0  0  0
    7.2716    9.8795   -0.6318 C   0  0  0  0  0  0  0  0  0  0  0  0
    7.0892    8.6369   -1.2721 C   0  0  0  0  0  0  0  0  0  0  0  0
    5.9280    7.9287   -1.2415 N   0  0  0  0  0  0  0  0  0  0  0  0
    4.8955    8.4522   -0.5448 C   0  0  0  0  0  0  0  0  0  0  0  0
    3.2180   11.3229    0.4204 O   0  0  0  0  0  0  0  0  0  0  0  0
    3.8331   10.2860    0.9068 C   0  0  0  0  0  0  0  0  0  0  0  0
    3.5166    9.7472    1.9631 O   0  0  0  0  0  0  0  0  0  0  0  0
    3.9933    9.0012    2.2698 H   0  0  0  0  0  0  0  0  0  0  0  0
    3.7354    7.7656   -0.5035 N   0  0  0  0  0  0  0  0  0  0  0  0
    3.0248    8.1216   -1.0846 H   0  0  0  0  0  0  0  0  0  0  0  0
    3.3809    6.6411    0.2233 C   0  0  0  0  0  0  0  0  0  0  0  0
    3.5094    5.3962   -0.3879 C   0  0  0  0  0  0  0  0  0  0  0  0
    4.0789    5.2392   -1.7893 C   0  0  0  0  0  0  0  0  0  0  0  0
    3.1080    4.2800    0.3563 C   0  0  0  0  0  0  0  0  0  0  0  0
    3.2505    2.6910   -0.3248 Cl  0  0  0  0  0  0  0  0  0  0  0  0
    2.5807    4.3586    1.6449 C   0  0  0  0  0  0  0  0  0  0  0  0
    2.4463    5.6320    2.2229 C   0  0  0  0  0  0  0  0  0  0  0  0
    2.8338    6.7565    1.5249 C   0  0  0  0  0  0  0  0  0  0  0  0
  7  8  2  0  0  0
  2  3  2  0  0  0
  2  1  1  0  0  0
  8  1  1  0  0  0
  8  9  1  0  0  0
  3  4  1  0  0  0
  1  6  2  0  0  0
  4  5  2  0  0  0
  6  5  1  0  0  0
  6 11  1  0  0  0
 11 13  1  0  0  0
 13 20  2  0  0  0
 13 14  1  0  0  0
 15 14  1  0  0  0
 20 19  1  0  0  0
 14 16  2  0  0  0
 19 18  2  0  0  0
 16 18  1  0  0  0
 16 17  1  0  0  0
  9 10  1  0  0  0
 11 12  1  0  0  0
M  END
> <minimizedAffinity>
-6.83427

$$$$
