4HYM_CJC_A_401


 34 38  0  0  0  0  0  0  0  0999 V2000
    5.9968   -0.8410   -7.2620 C   0  0  0  0  0  0  0  0  0  0  0  0
    6.2268   -1.7524   -6.2924 N   0  0  0  0  0  0  0  0  0  0  0  0
    5.6842   -1.6246   -5.0595 C   0  0  0  0  0  0  0  0  0  0  0  0
    4.8443   -0.3958   -4.8488 C   0  0  0  0  0  0  0  0  0  0  0  0
    4.6291    0.5591   -5.9608 C   0  0  0  0  0  0  0  0  0  0  0  0
    5.2592    0.2678   -7.1004 N   0  0  0  0  0  0  0  0  0  0  0  0
    3.8036    1.5942   -5.6196 N   0  0  0  0  0  0  0  0  0  0  0  0
    3.3978    1.5104   -4.3275 C   0  0  0  0  0  0  0  0  0  0  0  0
    4.0388    0.2846   -3.8399 C   0  0  0  0  0  0  0  0  0  0  0  0
    3.6946   -0.3716   -2.2044 Cl  0  0  0  0  0  0  0  0  0  0  0  0
    3.5360    2.3133   -6.2365 H   0  0  0  0  0  0  0  0  0  0  0  0
    6.0797   -2.5858   -4.1203 N   0  0  0  0  0  0  0  0  0  0  0  0
    6.1884   -3.9897   -4.4961 C   0  0  0  0  0  0  0  0  0  0  0  0
    7.4243   -4.4126   -3.6886 C   0  0  0  0  0  0  0  0  0  0  0  0
    7.8293   -3.2633   -2.7573 C   0  0  0  0  0  0  0  0  0  0  0  0
    9.0923   -2.6500   -3.2089 N   0  0  0  0  0  0  0  0  0  0  0  0
    6.6693   -2.2537   -2.8293 C   0  0  0  0  0  0  0  0  0  0  0  0
    8.9831   -2.3115   -4.1649 H   0  0  0  0  0  0  0  0  0  0  0  0
    9.8381   -3.3451   -3.1774 H   0  0  0  0  0  0  0  0  0  0  0  0
    2.5237    2.4358   -3.5037 C   0  0  0  0  0  0  0  0  0  0  0  0
    3.3995    3.1154   -2.4640 C   0  0  0  0  0  0  0  0  0  0  0  0
    6.6230   -1.0992   -8.8031 S   0  0  0  0  0  0  0  0  0  0  0  0
   12.6648    2.7041   -6.9967 O   0  0  0  0  0  0  0  0  0  0  0  0
   11.8411    2.3151   -7.8603 C   0  0  0  0  0  0  0  0  0  0  0  0
   12.0191    2.7060   -9.1970 C   0  0  0  0  0  0  0  0  0  0  0  0
   10.8016    1.5277   -7.4915 N   0  0  0  0  0  0  0  0  0  0  0  0
    9.9231    1.0968   -8.4134 C   0  0  0  0  0  0  0  0  0  0  0  0
   10.1096    1.5180   -9.8373 C   0  0  0  0  0  0  0  0  0  0  0  0
   11.1659    2.3118  -10.1620 N   0  0  0  0  0  0  0  0  0  0  0  0
    9.2260    1.0949  -10.7770 N   0  0  0  0  0  0  0  0  0  0  0  0
    8.1929    0.3111  -10.4277 C   0  0  0  0  0  0  0  0  0  0  0  0
    7.9715   -0.1073   -9.1112 C   0  0  0  0  0  0  0  0  0  0  0  0
    8.8437    0.2868   -8.0886 C   0  0  0  0  0  0  0  0  0  0  0  0
   10.6897    1.2711   -6.5477 H   0  0  0  0  0  0  0  0  0  0  0  0
 23 24  2  0  0  0
 25 24  1  0  0  0
 25 29  2  0  0  0
 24 26  1  0  0  0
 29 28  1  0  0  0
 26 27  1  0  0  0
 28 27  2  0  0  0
 28 30  1  0  0  0
 27 33  1  0  0  0
 30 31  2  0  0  0
 33 32  2  0  0  0
 31 32  1  0  0  0
 32 22  1  0  0  0
 16 15  1  0  0  0
 22  1  1  0  0  0
 14 13  1  0  0  0
 14 15  1  0  0  0
 13 12  1  0  0  0
 15 17  1  0  0  0
  1  2  2  0  0  0
  1  6  1  0  0  0
  2  3  1  0  0  0
 12  3  1  0  0  0
 12 17  1  0  0  0
  6  5  2  0  0  0
  3  4  2  0  0  0
  5  4  1  0  0  0
  5  7  1  0  0  0
  4  9  1  0  0  0
  7  8  1  0  0  0
  9  8  2  0  0  0
  9 10  1  0  0  0
  8 20  1  0  0  0
 20 21  1  0  0  0
 26 34  1  0  0  0
 16 18  1  0  0  0
 16 19  1  0  0  0
  7 11  1  0  0  0
M  END
> <minimizedAffinity>
-8.66045

$$$$
4HYM_CJC_A_401


 34 38  0  0  0  0  0  0  0  0999 V2000
    5.8175   -0.5928   -6.7152 C   0  0  0  0  0  0  0  0  0  0  0  0
    5.3377    0.0715   -5.6418 N   0  0  0  0  0  0  0  0  0  0  0  0
    5.3972   -0.4584   -4.3983 C   0  0  0  0  0  0  0  0  0  0  0  0
    6.0018   -1.8320   -4.3110 C   0  0  0  0  0  0  0  0  0  0  0  0
    6.5145   -2.4991   -5.5303 C   0  0  0  0  0  0  0  0  0  0  0  0
    6.3541   -1.8214   -6.6685 N   0  0  0  0  0  0  0  0  0  0  0  0
    7.0759   -3.7188   -5.2721 N   0  0  0  0  0  0  0  0  0  0  0  0
    7.0049   -4.0376   -3.9551 C   0  0  0  0  0  0  0  0  0  0  0  0
    6.3388   -2.8787   -3.3515 C   0  0  0  0  0  0  0  0  0  0  0  0
    6.1375   -2.7286   -1.5736 Cl  0  0  0  0  0  0  0  0  0  0  0  0
    7.4824   -4.2957   -5.9585 H   0  0  0  0  0  0  0  0  0  0  0  0
    4.7783    0.2909   -3.3895 N   0  0  0  0  0  0  0  0  0  0  0  0
    5.0859    1.7055   -3.2210 C   0  0  0  0  0  0  0  0  0  0  0  0
    3.7053    2.2606   -2.8413 C   0  0  0  0  0  0  0  0  0  0  0  0
    2.7358    1.0901   -2.6360 C   0  0  0  0  0  0  0  0  0  0  0  0
    1.7399    1.0445   -3.7229 N   0  0  0  0  0  0  0  0  0  0  0  0
    3.6163   -0.1727   -2.6414 C   0  0  0  0  0  0  0  0  0  0  0  0
    2.2187    0.9568   -4.6193 H   0  0  0  0  0  0  0  0  0  0  0  0
    1.1882    1.9024   -3.7147 H   0  0  0  0  0  0  0  0  0  0  0  0
    7.4505   -5.2831   -3.2140 C   0  0  0  0  0  0  0  0  0  0  0  0
    8.9102   -5.1093   -2.8284 C   0  0  0  0  0  0  0  0  0  0  0  0
    5.7998    0.1539   -8.2239 S   0  0  0  0  0  0  0  0  0  0  0  0
   12.6194    2.6407   -6.9824 O   0  0  0  0  0  0  0  0  0  0  0  0
   11.7113    2.3068   -7.7820 C   0  0  0  0  0  0  0  0  0  0  0  0
   11.9576    2.3798   -9.1622 C   0  0  0  0  0  0  0  0  0  0  0  0
   10.5166    1.8824   -7.3034 N   0  0  0  0  0  0  0  0  0  0  0  0
    9.5440    1.5110   -8.1540 C   0  0  0  0  0  0  0  0  0  0  0  0
    9.8046    1.5939   -9.6254 C   0  0  0  0  0  0  0  0  0  0  0  0
   11.0179    2.0289  -10.0614 N   0  0  0  0  0  0  0  0  0  0  0  0
    8.8287    1.2278  -10.4952 N   0  0  0  0  0  0  0  0  0  0  0  0
    7.6408    0.8014  -10.0363 C   0  0  0  0  0  0  0  0  0  0  0  0
    7.3453    0.7090   -8.6719 C   0  0  0  0  0  0  0  0  0  0  0  0
    8.3043    1.0662   -7.7156 C   0  0  0  0  0  0  0  0  0  0  0  0
   10.3607    1.8460   -6.3320 H   0  0  0  0  0  0  0  0  0  0  0  0
 23 24  2  0  0  0
 25 24  1  0  0  0
 25 29  2  0  0  0
 24 26  1  0  0  0
 29 28  1  0  0  0
 26 27  1  0  0  0
 28 27  2  0  0  0
 28 30  1  0  0  0
 27 33  1  0  0  0
 30 31  2  0  0  0
 33 32  2  0  0  0
 31 32  1  0  0  0
 32 22  1  0  0  0
 16 15  1  0  0  0
 22  1  1  0  0  0
 14 13  1  0  0  0
 14 15  1  0  0  0
 13 12  1  0  0  0
 15 17  1  0  0  0
  1  2  2  0  0  0
  1  6  1  0  0  0
  2  3  1  0  0  0
 12  3  1  0  0  0
 12 17  1  0  0  0
  6  5  2  0  0  0
  3  4  2  0  0  0
  5  4  1  0  0  0
  5  7  1  0  0  0
  4  9  1  0  0  0
  7  8  1  0  0  0
  9  8  2  0  0  0
  9 10  1  0  0  0
  8 20  1  0  0  0
 20 21  1  0  0  0
 26 34  1  0  0  0
 16 18  1  0  0  0
 16 19  1  0  0  0
  7 11  1  0  0  0
M  END
> <minimizedAffinity>
-8.39842

$$$$
4HYM_CJC_A_401


 34 38  0  0  0  0  0  0  0  0999 V2000
    6.5330   -0.7138   -6.6739 C   0  0  0  0  0  0  0  0  0  0  0  0
    6.1177   -0.8695   -7.9494 N   0  0  0  0  0  0  0  0  0  0  0  0
    6.8287   -0.3758   -8.9893 C   0  0  0  0  0  0  0  0  0  0  0  0
    8.0793    0.3712   -8.6185 C   0  0  0  0  0  0  0  0  0  0  0  0
    8.4780    0.4974   -7.1973 C   0  0  0  0  0  0  0  0  0  0  0  0
    7.6390   -0.0457   -6.3132 N   0  0  0  0  0  0  0  0  0  0  0  0
    9.6621    1.1615   -7.0349 N   0  0  0  0  0  0  0  0  0  0  0  0
   10.1777    1.5700   -8.2216 C   0  0  0  0  0  0  0  0  0  0  0  0
    9.2046    1.0895   -9.2082 C   0  0  0  0  0  0  0  0  0  0  0  0
    9.5003    1.2392  -10.9729 Cl  0  0  0  0  0  0  0  0  0  0  0  0
   10.0889    1.3236   -6.1626 H   0  0  0  0  0  0  0  0  0  0  0  0
    6.2387   -0.5224  -10.2514 N   0  0  0  0  0  0  0  0  0  0  0  0
    5.5125    0.5829  -10.8639 C   0  0  0  0  0  0  0  0  0  0  0  0
    5.9063    0.4087  -12.3380 C   0  0  0  0  0  0  0  0  0  0  0  0
    6.6861   -0.9027  -12.4948 C   0  0  0  0  0  0  0  0  0  0  0  0
    8.1066   -0.6303  -12.7831 N   0  0  0  0  0  0  0  0  0  0  0  0
    6.5266   -1.6338  -11.1495 C   0  0  0  0  0  0  0  0  0  0  0  0
    8.5044   -0.0678  -12.0310 H   0  0  0  0  0  0  0  0  0  0  0  0
    8.1834   -0.1227  -13.6645 H   0  0  0  0  0  0  0  0  0  0  0  0
   11.4309    2.3643   -8.5341 C   0  0  0  0  0  0  0  0  0  0  0  0
   12.0164    2.8624   -7.2231 C   0  0  0  0  0  0  0  0  0  0  0  0
    5.6561   -1.4281   -5.4271 S   0  0  0  0  0  0  0  0  0  0  0  0
   10.9519   -4.9287   -1.6944 O   0  0  0  0  0  0  0  0  0  0  0  0
    9.9006   -4.9598   -2.3796 C   0  0  0  0  0  0  0  0  0  0  0  0
    9.3066   -6.2004   -2.6608 C   0  0  0  0  0  0  0  0  0  0  0  0
    9.3586   -3.8031   -2.8322 N   0  0  0  0  0  0  0  0  0  0  0  0
    8.2258   -3.8281   -3.5556 C   0  0  0  0  0  0  0  0  0  0  0  0
    7.5955   -5.1509   -3.8600 C   0  0  0  0  0  0  0  0  0  0  0  0
    8.1759   -6.2873   -3.3879 N   0  0  0  0  0  0  0  0  0  0  0  0
    6.4547   -5.1905   -4.5949 N   0  0  0  0  0  0  0  0  0  0  0  0
    5.9034   -4.0525   -5.0473 C   0  0  0  0  0  0  0  0  0  0  0  0
    6.4545   -2.7917   -4.7942 C   0  0  0  0  0  0  0  0  0  0  0  0
    7.6287   -2.6724   -4.0400 C   0  0  0  0  0  0  0  0  0  0  0  0
    9.7948   -2.9437   -2.6311 H   0  0  0  0  0  0  0  0  0  0  0  0
 23 24  2  0  0  0
 25 24  1  0  0  0
 25 29  2  0  0  0
 24 26  1  0  0  0
 29 28  1  0  0  0
 26 27  1  0  0  0
 28 27  2  0  0  0
 28 30  1  0  0  0
 27 33  1  0  0  0
 30 31  2  0  0  0
 33 32  2  0  0  0
 31 32  1  0  0  0
 32 22  1  0  0  0
 16 15  1  0  0  0
 22  1  1  0  0  0
 14 13  1  0  0  0
 14 15  1  0  0  0
 13 12  1  0  0  0
 15 17  1  0  0  0
  1  2  2  0  0  0
  1  6  1  0  0  0
  2  3  1  0  0  0
 12  3  1  0  0  0
 12 17  1  0  0  0
  6  5  2  0  0  0
  3  4  2  0  0  0
  5  4  1  0  0  0
  5  7  1  0  0  0
  4  9  1  0  0  0
  7  8  1  0  0  0
  9  8  2  0  0  0
  9 10  1  0  0  0
  8 20  1  0  0  0
 20 21  1  0  0  0
 26 34  1  0  0  0
 16 18  1  0  0  0
 16 19  1  0  0  0
  7 11  1  0  0  0
M  END
> <minimizedAffinity>
-8.06724

$$$$
4HYM_CJC_A_401


 34 38  0  0  0  0  0  0  0  0999 V2000
    6.2411   -1.4080   -6.6114 C   0  0  0  0  0  0  0  0  0  0  0  0
    5.4629   -2.4752   -6.8924 N   0  0  0  0  0  0  0  0  0  0  0  0
    5.5531   -3.6225   -6.1809 C   0  0  0  0  0  0  0  0  0  0  0  0
    6.5891   -3.6260   -5.0917 C   0  0  0  0  0  0  0  0  0  0  0  0
    7.4037   -2.4156   -4.8346 C   0  0  0  0  0  0  0  0  0  0  0  0
    7.1785   -1.3852   -5.6519 N   0  0  0  0  0  0  0  0  0  0  0  0
    8.2623   -2.5672   -3.7813 N   0  0  0  0  0  0  0  0  0  0  0  0
    8.1786   -3.8075   -3.2374 C   0  0  0  0  0  0  0  0  0  0  0  0
    7.1489   -4.4724   -4.0428 C   0  0  0  0  0  0  0  0  0  0  0  0
    6.5419   -6.1108   -3.6292 Cl  0  0  0  0  0  0  0  0  0  0  0  0
    8.8678   -1.8620   -3.4569 H   0  0  0  0  0  0  0  0  0  0  0  0
    4.7590   -4.6828   -6.6366 N   0  0  0  0  0  0  0  0  0  0  0  0
    3.3245   -4.5077   -6.8252 C   0  0  0  0  0  0  0  0  0  0  0  0
    3.0918   -5.3504   -8.0878 C   0  0  0  0  0  0  0  0  0  0  0  0
    4.3828   -6.1045   -8.4296 C   0  0  0  0  0  0  0  0  0  0  0  0
    4.9970   -5.5541   -9.6524 N   0  0  0  0  0  0  0  0  0  0  0  0
    5.3040   -5.9060   -7.2123 C   0  0  0  0  0  0  0  0  0  0  0  0
    5.1896   -4.5614   -9.5188 H   0  0  0  0  0  0  0  0  0  0  0  0
    4.3571   -5.6736  -10.4377 H   0  0  0  0  0  0  0  0  0  0  0  0
    8.9510   -4.4410   -2.0967 C   0  0  0  0  0  0  0  0  0  0  0  0
    9.9790   -5.3908   -2.6892 C   0  0  0  0  0  0  0  0  0  0  0  0
    6.0213    0.0231   -7.4701 S   0  0  0  0  0  0  0  0  0  0  0  0
   12.7988    2.8906   -7.1966 O   0  0  0  0  0  0  0  0  0  0  0  0
   11.8313    2.4454   -7.8608 C   0  0  0  0  0  0  0  0  0  0  0  0
   11.9305    2.3958   -9.2604 C   0  0  0  0  0  0  0  0  0  0  0  0
   10.7149    2.0207   -7.2206 N   0  0  0  0  0  0  0  0  0  0  0  0
    9.6800    1.5307   -7.9249 C   0  0  0  0  0  0  0  0  0  0  0  0
    9.7835    1.4830   -9.4172 C   0  0  0  0  0  0  0  0  0  0  0  0
   10.9221    1.9229  -10.0181 N   0  0  0  0  0  0  0  0  0  0  0  0
    8.7430    0.9962  -10.1406 N   0  0  0  0  0  0  0  0  0  0  0  0
    7.6314    0.5681   -9.5204 C   0  0  0  0  0  0  0  0  0  0  0  0
    7.4827    0.5948   -8.1295 C   0  0  0  0  0  0  0  0  0  0  0  0
    8.5158    1.0803   -7.3178 C   0  0  0  0  0  0  0  0  0  0  0  0
   10.6617    2.0711   -6.2388 H   0  0  0  0  0  0  0  0  0  0  0  0
 23 24  2  0  0  0
 25 24  1  0  0  0
 25 29  2  0  0  0
 24 26  1  0  0  0
 29 28  1  0  0  0
 26 27  1  0  0  0
 28 27  2  0  0  0
 28 30  1  0  0  0
 27 33  1  0  0  0
 30 31  2  0  0  0
 33 32  2  0  0  0
 31 32  1  0  0  0
 32 22  1  0  0  0
 16 15  1  0  0  0
 22  1  1  0  0  0
 14 13  1  0  0  0
 14 15  1  0  0  0
 13 12  1  0  0  0
 15 17  1  0  0  0
  1  2  2  0  0  0
  1  6  1  0  0  0
  2  3  1  0  0  0
 12  3  1  0  0  0
 12 17  1  0  0  0
  6  5  2  0  0  0
  3  4  2  0  0  0
  5  4  1  0  0  0
  5  7  1  0  0  0
  4  9  1  0  0  0
  7  8  1  0  0  0
  9  8  2  0  0  0
  9 10  1  0  0  0
  8 20  1  0  0  0
 20 21  1  0  0  0
 26 34  1  0  0  0
 16 18  1  0  0  0
 16 19  1  0  0  0
  7 11  1  0  0  0
M  END
> <minimizedAffinity>
-7.86016

$$$$
4HYM_CJC_A_401


 34 38  0  0  0  0  0  0  0  0999 V2000
    6.2609   -1.3864   -6.5221 C   0  0  0  0  0  0  0  0  0  0  0  0
    5.0798   -1.4693   -5.8728 N   0  0  0  0  0  0  0  0  0  0  0  0
    5.0054   -1.9056   -4.5942 C   0  0  0  0  0  0  0  0  0  0  0  0
    6.3134   -2.3112   -3.9742 C   0  0  0  0  0  0  0  0  0  0  0  0
    7.5729   -2.1872   -4.7441 C   0  0  0  0  0  0  0  0  0  0  0  0
    7.4413   -1.7485   -5.9974 N   0  0  0  0  0  0  0  0  0  0  0  0
    8.6752   -2.5502   -4.0211 N   0  0  0  0  0  0  0  0  0  0  0  0
    8.3446   -2.9637   -2.7717 C   0  0  0  0  0  0  0  0  0  0  0  0
    6.8852   -2.8233   -2.7330 C   0  0  0  0  0  0  0  0  0  0  0  0
    5.9523   -3.0990   -1.2238 Cl  0  0  0  0  0  0  0  0  0  0  0  0
    9.5969   -2.5158   -4.3652 H   0  0  0  0  0  0  0  0  0  0  0  0
    3.7121   -2.0346   -4.0717 N   0  0  0  0  0  0  0  0  0  0  0  0
    3.1987   -3.3397   -3.6750 C   0  0  0  0  0  0  0  0  0  0  0  0
    2.3877   -2.9661   -2.4255 C   0  0  0  0  0  0  0  0  0  0  0  0
    2.3404   -1.4383   -2.2994 C   0  0  0  0  0  0  0  0  0  0  0  0
    3.1550   -0.9867   -1.1558 N   0  0  0  0  0  0  0  0  0  0  0  0
    2.9081   -0.9032   -3.6265 C   0  0  0  0  0  0  0  0  0  0  0  0
    4.1168   -1.3040   -1.2771 H   0  0  0  0  0  0  0  0  0  0  0  0
    2.7749   -1.3757   -0.2929 H   0  0  0  0  0  0  0  0  0  0  0  0
    9.2098   -3.4904   -1.6434 C   0  0  0  0  0  0  0  0  0  0  0  0
    9.8912   -4.7619   -2.1215 C   0  0  0  0  0  0  0  0  0  0  0  0
    6.3038   -0.7500   -8.0800 S   0  0  0  0  0  0  0  0  0  0  0  0
   11.9564    3.6413   -6.3489 O   0  0  0  0  0  0  0  0  0  0  0  0
   11.3500    2.9250   -7.1825 C   0  0  0  0  0  0  0  0  0  0  0  0
   11.8852    2.7781   -8.4720 C   0  0  0  0  0  0  0  0  0  0  0  0
   10.1974    2.3078   -6.8261 N   0  0  0  0  0  0  0  0  0  0  0  0
    9.5496    1.5288   -7.7097 C   0  0  0  0  0  0  0  0  0  0  0  0
   10.1172    1.3765   -9.0862 C   0  0  0  0  0  0  0  0  0  0  0  0
   11.2753    2.0172   -9.4014 N   0  0  0  0  0  0  0  0  0  0  0  0
    9.4695    0.5978   -9.9900 N   0  0  0  0  0  0  0  0  0  0  0  0
    8.3282   -0.0235   -9.6507 C   0  0  0  0  0  0  0  0  0  0  0  0
    7.7542    0.0890   -8.3797 C   0  0  0  0  0  0  0  0  0  0  0  0
    8.3679    0.8724   -7.3942 C   0  0  0  0  0  0  0  0  0  0  0  0
    9.8341    2.4299   -5.9192 H   0  0  0  0  0  0  0  0  0  0  0  0
 23 24  2  0  0  0
 25 24  1  0  0  0
 25 29  2  0  0  0
 24 26  1  0  0  0
 29 28  1  0  0  0
 26 27  1  0  0  0
 28 27  2  0  0  0
 28 30  1  0  0  0
 27 33  1  0  0  0
 30 31  2  0  0  0
 33 32  2  0  0  0
 31 32  1  0  0  0
 32 22  1  0  0  0
 16 15  1  0  0  0
 22  1  1  0  0  0
 14 13  1  0  0  0
 14 15  1  0  0  0
 13 12  1  0  0  0
 15 17  1  0  0  0
  1  2  2  0  0  0
  1  6  1  0  0  0
  2  3  1  0  0  0
 12  3  1  0  0  0
 12 17  1  0  0  0
  6  5  2  0  0  0
  3  4  2  0  0  0
  5  4  1  0  0  0
  5  7  1  0  0  0
  4  9  1  0  0  0
  7  8  1  0  0  0
  9  8  2  0  0  0
  9 10  1  0  0  0
  8 20  1  0  0  0
 20 21  1  0  0  0
 26 34  1  0  0  0
 16 18  1  0  0  0
 16 19  1  0  0  0
  7 11  1  0  0  0
M  END
> <minimizedAffinity>
-7.84579

$$$$
4HYM_CJC_A_401


 34 38  0  0  0  0  0  0  0  0999 V2000
    6.0460   -0.9722   -6.3305 C   0  0  0  0  0  0  0  0  0  0  0  0
    6.6055   -1.4426   -5.1950 N   0  0  0  0  0  0  0  0  0  0  0  0
    6.6165   -2.7648   -4.9078 C   0  0  0  0  0  0  0  0  0  0  0  0
    5.9436   -3.6500   -5.9194 C   0  0  0  0  0  0  0  0  0  0  0  0
    5.3561   -3.0652   -7.1472 C   0  0  0  0  0  0  0  0  0  0  0  0
    5.4321   -1.7367   -7.2460 N   0  0  0  0  0  0  0  0  0  0  0  0
    4.8278   -4.0085   -7.9843 N   0  0  0  0  0  0  0  0  0  0  0  0
    4.9473   -5.2597   -7.4731 C   0  0  0  0  0  0  0  0  0  0  0  0
    5.6331   -5.0493   -6.1938 C   0  0  0  0  0  0  0  0  0  0  0  0
    6.1759   -6.4271   -5.1786 Cl  0  0  0  0  0  0  0  0  0  0  0  0
    4.4112   -3.8045   -8.8527 H   0  0  0  0  0  0  0  0  0  0  0  0
    7.1414   -3.1090   -3.6554 N   0  0  0  0  0  0  0  0  0  0  0  0
    8.5824   -3.1599   -3.4433 C   0  0  0  0  0  0  0  0  0  0  0  0
    8.6861   -2.6068   -2.0144 C   0  0  0  0  0  0  0  0  0  0  0  0
    7.2744   -2.4509   -1.4357 C   0  0  0  0  0  0  0  0  0  0  0  0
    6.9213   -1.0248   -1.3063 N   0  0  0  0  0  0  0  0  0  0  0  0
    6.3443   -3.1609   -2.4362 C   0  0  0  0  0  0  0  0  0  0  0  0
    6.9829   -0.5750   -2.2197 H   0  0  0  0  0  0  0  0  0  0  0  0
    7.5674   -0.5718   -0.6600 H   0  0  0  0  0  0  0  0  0  0  0  0
    4.4808   -6.5972   -8.0138 C   0  0  0  0  0  0  0  0  0  0  0  0
    3.8412   -6.3632   -9.3723 C   0  0  0  0  0  0  0  0  0  0  0  0
    6.1428    0.6719   -6.6790 S   0  0  0  0  0  0  0  0  0  0  0  0
   13.0553    3.1652   -7.1612 O   0  0  0  0  0  0  0  0  0  0  0  0
   12.0307    2.6857   -7.7051 C   0  0  0  0  0  0  0  0  0  0  0  0
   12.0465    2.4340   -9.0861 C   0  0  0  0  0  0  0  0  0  0  0  0
   10.9339    2.4187   -6.9552 N   0  0  0  0  0  0  0  0  0  0  0  0
    9.8377    1.8931   -7.5289 C   0  0  0  0  0  0  0  0  0  0  0  0
    9.8525    1.6298   -9.0021 C   0  0  0  0  0  0  0  0  0  0  0  0
   10.9745    1.9162   -9.7165 N   0  0  0  0  0  0  0  0  0  0  0  0
    8.7497    1.1050   -9.5949 N   0  0  0  0  0  0  0  0  0  0  0  0
    7.6564    0.8315   -8.8646 C   0  0  0  0  0  0  0  0  0  0  0  0
    7.5897    1.0622   -7.4862 C   0  0  0  0  0  0  0  0  0  0  0  0
    8.6901    1.5985   -6.8056 C   0  0  0  0  0  0  0  0  0  0  0  0
   10.9400    2.6098   -5.9894 H   0  0  0  0  0  0  0  0  0  0  0  0
 23 24  2  0  0  0
 25 24  1  0  0  0
 25 29  2  0  0  0
 24 26  1  0  0  0
 29 28  1  0  0  0
 26 27  1  0  0  0
 28 27  2  0  0  0
 28 30  1  0  0  0
 27 33  1  0  0  0
 30 31  2  0  0  0
 33 32  2  0  0  0
 31 32  1  0  0  0
 32 22  1  0  0  0
 16 15  1  0  0  0
 22  1  1  0  0  0
 14 13  1  0  0  0
 14 15  1  0  0  0
 13 12  1  0  0  0
 15 17  1  0  0  0
  1  2  2  0  0  0
  1  6  1  0  0  0
  2  3  1  0  0  0
 12  3  1  0  0  0
 12 17  1  0  0  0
  6  5  2  0  0  0
  3  4  2  0  0  0
  5  4  1  0  0  0
  5  7  1  0  0  0
  4  9  1  0  0  0
  7  8  1  0  0  0
  9  8  2  0  0  0
  9 10  1  0  0  0
  8 20  1  0  0  0
 20 21  1  0  0  0
 26 34  1  0  0  0
 16 18  1  0  0  0
 16 19  1  0  0  0
  7 11  1  0  0  0
M  END
> <minimizedAffinity>
-7.84559

$$$$
4HYM_CJC_A_401


 34 38  0  0  0  0  0  0  0  0999 V2000
    6.2646   -1.5248   -5.8912 C   0  0  0  0  0  0  0  0  0  0  0  0
    5.2593   -2.3807   -5.6075 N   0  0  0  0  0  0  0  0  0  0  0  0
    5.4162   -3.3831   -4.7123 C   0  0  0  0  0  0  0  0  0  0  0  0
    6.7814   -3.4852   -4.0914 C   0  0  0  0  0  0  0  0  0  0  0  0
    7.8358   -2.5065   -4.4451 C   0  0  0  0  0  0  0  0  0  0  0  0
    7.4941   -1.5967   -5.3594 N   0  0  0  0  0  0  0  0  0  0  0  0
    9.0003   -2.7088   -3.7576 N   0  0  0  0  0  0  0  0  0  0  0  0
    8.9171   -3.7806   -2.9298 C   0  0  0  0  0  0  0  0  0  0  0  0
    7.5495   -4.2710   -3.1310 C   0  0  0  0  0  0  0  0  0  0  0  0
    6.8718   -5.6050   -2.1384 Cl  0  0  0  0  0  0  0  0  0  0  0  0
    9.8019   -2.1451   -3.8519 H   0  0  0  0  0  0  0  0  0  0  0  0
    4.3283   -4.2559   -4.5824 N   0  0  0  0  0  0  0  0  0  0  0  0
    4.4771   -5.6759   -4.8752 C   0  0  0  0  0  0  0  0  0  0  0  0
    3.5813   -6.2923   -3.7908 C   0  0  0  0  0  0  0  0  0  0  0  0
    2.8308   -5.1687   -3.0651 C   0  0  0  0  0  0  0  0  0  0  0  0
    3.3394   -5.0089   -1.6900 N   0  0  0  0  0  0  0  0  0  0  0  0
    3.0901   -3.9015   -3.9000 C   0  0  0  0  0  0  0  0  0  0  0  0
    4.3391   -4.8083   -1.7185 H   0  0  0  0  0  0  0  0  0  0  0  0
    3.1801   -5.8696   -1.1664 H   0  0  0  0  0  0  0  0  0  0  0  0
    9.9516   -4.4050   -2.0138 C   0  0  0  0  0  0  0  0  0  0  0  0
   10.5220   -5.6309   -2.7077 C   0  0  0  0  0  0  0  0  0  0  0  0
    5.9840   -0.2416   -6.9441 S   0  0  0  0  0  0  0  0  0  0  0  0
   12.5397    3.1066   -7.1538 O   0  0  0  0  0  0  0  0  0  0  0  0
   11.6233    2.4708   -7.7296 C   0  0  0  0  0  0  0  0  0  0  0  0
   11.7637    2.1547   -9.0902 C   0  0  0  0  0  0  0  0  0  0  0  0
   10.5215    2.1005   -7.0328 N   0  0  0  0  0  0  0  0  0  0  0  0
    9.5421    1.4081   -7.6399 C   0  0  0  0  0  0  0  0  0  0  0  0
    9.6892    1.0759   -9.0917 C   0  0  0  0  0  0  0  0  0  0  0  0
   10.8110    1.4704   -9.7527 N   0  0  0  0  0  0  0  0  0  0  0  0
    8.7045    0.3825   -9.7182 N   0  0  0  0  0  0  0  0  0  0  0  0
    7.6083    0.0052   -9.0403 C   0  0  0  0  0  0  0  0  0  0  0  0
    7.4203    0.2937   -7.6842 C   0  0  0  0  0  0  0  0  0  0  0  0
    8.3953    1.0026   -6.9710 C   0  0  0  0  0  0  0  0  0  0  0  0
   10.4383    2.3387   -6.0812 H   0  0  0  0  0  0  0  0  0  0  0  0
 23 24  2  0  0  0
 25 24  1  0  0  0
 25 29  2  0  0  0
 24 26  1  0  0  0
 29 28  1  0  0  0
 26 27  1  0  0  0
 28 27  2  0  0  0
 28 30  1  0  0  0
 27 33  1  0  0  0
 30 31  2  0  0  0
 33 32  2  0  0  0
 31 32  1  0  0  0
 32 22  1  0  0  0
 16 15  1  0  0  0
 22  1  1  0  0  0
 14 13  1  0  0  0
 14 15  1  0  0  0
 13 12  1  0  0  0
 15 17  1  0  0  0
  1  2  2  0  0  0
  1  6  1  0  0  0
  2  3  1  0  0  0
 12  3  1  0  0  0
 12 17  1  0  0  0
  6  5  2  0  0  0
  3  4  2  0  0  0
  5  4  1  0  0  0
  5  7  1  0  0  0
  4  9  1  0  0  0
  7  8  1  0  0  0
  9  8  2  0  0  0
  9 10  1  0  0  0
  8 20  1  0  0  0
 20 21  1  0  0  0
 26 34  1  0  0  0
 16 18  1  0  0  0
 16 19  1  0  0  0
  7 11  1  0  0  0
M  END
> <minimizedAffinity>
-7.76900

$$$$
4HYM_CJC_A_401


 34 38  0  0  0  0  0  0  0  0999 V2000
    5.9671   -0.8683   -7.0189 C   0  0  0  0  0  0  0  0  0  0  0  0
    5.6711   -0.9551   -8.3336 N   0  0  0  0  0  0  0  0  0  0  0  0
    6.4906   -0.4383   -9.2781 C   0  0  0  0  0  0  0  0  0  0  0  0
    7.7196    0.2529   -8.7572 C   0  0  0  0  0  0  0  0  0  0  0  0
    7.9844    0.3044   -7.3005 C   0  0  0  0  0  0  0  0  0  0  0  0
    7.0511   -0.2510   -6.5253 N   0  0  0  0  0  0  0  0  0  0  0  0
    9.1649    0.9240   -6.9969 N   0  0  0  0  0  0  0  0  0  0  0  0
    9.8017    1.3681   -8.1097 C   0  0  0  0  0  0  0  0  0  0  0  0
    8.9145    0.9615   -9.2045 C   0  0  0  0  0  0  0  0  0  0  0  0
    9.3806    1.1793  -10.9248 Cl  0  0  0  0  0  0  0  0  0  0  0  0
    9.5108    1.0344   -6.0818 H   0  0  0  0  0  0  0  0  0  0  0  0
    6.0196   -0.5112  -10.5954 N   0  0  0  0  0  0  0  0  0  0  0  0
    5.3475    0.6281  -11.2072 C   0  0  0  0  0  0  0  0  0  0  0  0
    5.8758    0.5394  -12.6464 C   0  0  0  0  0  0  0  0  0  0  0  0
    6.6729   -0.7610  -12.8064 C   0  0  0  0  0  0  0  0  0  0  0  0
    8.1126   -0.4732  -12.9467 N   0  0  0  0  0  0  0  0  0  0  0  0
    6.3942   -1.5688  -11.5259 C   0  0  0  0  0  0  0  0  0  0  0  0
    8.4370    0.0447  -12.1299 H   0  0  0  0  0  0  0  0  0  0  0  0
    8.2676    0.0847  -13.7865 H   0  0  0  0  0  0  0  0  0  0  0  0
   11.0994    2.1365   -8.2659 C   0  0  0  0  0  0  0  0  0  0  0  0
   11.4166    2.8072   -6.9395 C   0  0  0  0  0  0  0  0  0  0  0  0
    4.9570   -1.6093   -5.8945 S   0  0  0  0  0  0  0  0  0  0  0  0
    9.3215   -6.5332   -2.5870 O   0  0  0  0  0  0  0  0  0  0  0  0
    8.6413   -5.4791   -2.5438 C   0  0  0  0  0  0  0  0  0  0  0  0
    8.5824   -4.7545   -1.3428 C   0  0  0  0  0  0  0  0  0  0  0  0
    7.9808   -5.0594   -3.6502 N   0  0  0  0  0  0  0  0  0  0  0  0
    7.2609   -3.9246   -3.6147 C   0  0  0  0  0  0  0  0  0  0  0  0
    7.1936   -3.1550   -2.3328 C   0  0  0  0  0  0  0  0  0  0  0  0
    7.8701   -3.6152   -1.2458 N   0  0  0  0  0  0  0  0  0  0  0  0
    6.4651   -2.0107   -2.2819 N   0  0  0  0  0  0  0  0  0  0  0  0
    5.8080   -1.5797   -3.3710 C   0  0  0  0  0  0  0  0  0  0  0  0
    5.8352   -2.2635   -4.5913 C   0  0  0  0  0  0  0  0  0  0  0  0
    6.5687   -3.4496   -4.7202 C   0  0  0  0  0  0  0  0  0  0  0  0
    8.0281   -5.5859   -4.4807 H   0  0  0  0  0  0  0  0  0  0  0  0
 23 24  2  0  0  0
 25 24  1  0  0  0
 25 29  2  0  0  0
 24 26  1  0  0  0
 29 28  1  0  0  0
 26 27  1  0  0  0
 28 27  2  0  0  0
 28 30  1  0  0  0
 27 33  1  0  0  0
 30 31  2  0  0  0
 33 32  2  0  0  0
 31 32  1  0  0  0
 32 22  1  0  0  0
 16 15  1  0  0  0
 22  1  1  0  0  0
 14 13  1  0  0  0
 14 15  1  0  0  0
 13 12  1  0  0  0
 15 17  1  0  0  0
  1  2  2  0  0  0
  1  6  1  0  0  0
  2  3  1  0  0  0
 12  3  1  0  0  0
 12 17  1  0  0  0
  6  5  2  0  0  0
  3  4  2  0  0  0
  5  4  1  0  0  0
  5  7  1  0  0  0
  4  9  1  0  0  0
  7  8  1  0  0  0
  9  8  2  0  0  0
  9 10  1  0  0  0
  8 20  1  0  0  0
 20 21  1  0  0  0
 26 34  1  0  0  0
 16 18  1  0  0  0
 16 19  1  0  0  0
  7 11  1  0  0  0
M  END
> <minimizedAffinity>
-7.75925

$$$$
4HYM_CJC_A_401


 34 38  0  0  0  0  0  0  0  0999 V2000
    5.0957   -0.1601   -7.1775 C   0  0  0  0  0  0  0  0  0  0  0  0
    5.0902   -1.4169   -6.6835 N   0  0  0  0  0  0  0  0  0  0  0  0
    4.5358   -1.7017   -5.4826 C   0  0  0  0  0  0  0  0  0  0  0  0
    3.9629   -0.5258   -4.7418 C   0  0  0  0  0  0  0  0  0  0  0  0
    3.9977    0.8255   -5.3480 C   0  0  0  0  0  0  0  0  0  0  0  0
    4.5998    0.9086   -6.5360 N   0  0  0  0  0  0  0  0  0  0  0  0
    3.3930    1.7727   -4.5692 N   0  0  0  0  0  0  0  0  0  0  0  0
    2.9257    1.2476   -3.4086 C   0  0  0  0  0  0  0  0  0  0  0  0
    3.2761   -0.1735   -3.5032 C   0  0  0  0  0  0  0  0  0  0  0  0
    2.7352   -1.3609   -2.2698 Cl  0  0  0  0  0  0  0  0  0  0  0  0
    3.3071    2.7208   -4.8200 H   0  0  0  0  0  0  0  0  0  0  0  0
    4.6828   -3.0243   -5.0450 N   0  0  0  0  0  0  0  0  0  0  0  0
    4.5921   -4.1321   -5.9877 C   0  0  0  0  0  0  0  0  0  0  0  0
    5.6650   -5.0783   -5.4291 C   0  0  0  0  0  0  0  0  0  0  0  0
    6.1692   -4.5264   -4.0899 C   0  0  0  0  0  0  0  0  0  0  0  0
    7.5509   -4.0276   -4.2215 N   0  0  0  0  0  0  0  0  0  0  0  0
    5.2020   -3.3837   -3.7313 C   0  0  0  0  0  0  0  0  0  0  0  0
    7.5842   -3.3040   -4.9396 H   0  0  0  0  0  0  0  0  0  0  0  0
    8.1664   -4.7970   -4.4853 H   0  0  0  0  0  0  0  0  0  0  0  0
    2.2306    1.9078   -2.2339 C   0  0  0  0  0  0  0  0  0  0  0  0
    2.9501    3.2110   -1.9279 C   0  0  0  0  0  0  0  0  0  0  0  0
    5.7174    0.1193   -8.7167 S   0  0  0  0  0  0  0  0  0  0  0  0
   12.0475    2.5611  -11.5801 O   0  0  0  0  0  0  0  0  0  0  0  0
   11.3587    2.2326  -10.5835 C   0  0  0  0  0  0  0  0  0  0  0  0
   11.9270    2.3217   -9.3028 C   0  0  0  0  0  0  0  0  0  0  0  0
   10.0856    1.8022  -10.7584 N   0  0  0  0  0  0  0  0  0  0  0  0
    9.3381    1.4611   -9.6945 C   0  0  0  0  0  0  0  0  0  0  0  0
    9.9456    1.5507   -8.3296 C   0  0  0  0  0  0  0  0  0  0  0  0
   11.2285    1.9853   -8.2012 N   0  0  0  0  0  0  0  0  0  0  0  0
    9.2034    1.2033   -7.2474 N   0  0  0  0  0  0  0  0  0  0  0  0
    7.9390    0.7785   -7.4041 C   0  0  0  0  0  0  0  0  0  0  0  0
    7.3259    0.6729   -8.6573 C   0  0  0  0  0  0  0  0  0  0  0  0
    8.0287    1.0172   -9.8189 C   0  0  0  0  0  0  0  0  0  0  0  0
    9.7080    1.7392  -11.6654 H   0  0  0  0  0  0  0  0  0  0  0  0
 23 24  2  0  0  0
 25 24  1  0  0  0
 25 29  2  0  0  0
 24 26  1  0  0  0
 29 28  1  0  0  0
 26 27  1  0  0  0
 28 27  2  0  0  0
 28 30  1  0  0  0
 27 33  1  0  0  0
 30 31  2  0  0  0
 33 32  2  0  0  0
 31 32  1  0  0  0
 32 22  1  0  0  0
 16 15  1  0  0  0
 22  1  1  0  0  0
 14 13  1  0  0  0
 14 15  1  0  0  0
 13 12  1  0  0  0
 15 17  1  0  0  0
  1  2  2  0  0  0
  1  6  1  0  0  0
  2  3  1  0  0  0
 12  3  1  0  0  0
 12 17  1  0  0  0
  6  5  2  0  0  0
  3  4  2  0  0  0
  5  4  1  0  0  0
  5  7  1  0  0  0
  4  9  1  0  0  0
  7  8  1  0  0  0
  9  8  2  0  0  0
  9 10  1  0  0  0
  8 20  1  0  0  0
 20 21  1  0  0  0
 26 34  1  0  0  0
 16 18  1  0  0  0
 16 19  1  0  0  0
  7 11  1  0  0  0
M  END
> <minimizedAffinity>
-7.45560

$$$$
4HYM_CJC_A_401


 34 38  0  0  0  0  0  0  0  0999 V2000
    5.3940   -0.3922   -8.4036 C   0  0  0  0  0  0  0  0  0  0  0  0
    4.2044    0.0337   -8.8801 N   0  0  0  0  0  0  0  0  0  0  0  0
    3.3150    0.6760   -8.0882 C   0  0  0  0  0  0  0  0  0  0  0  0
    3.7352    0.8494   -6.6553 C   0  0  0  0  0  0  0  0  0  0  0  0
    5.0592    0.3625   -6.2031 C   0  0  0  0  0  0  0  0  0  0  0  0
    5.7917   -0.2588   -7.1294 N   0  0  0  0  0  0  0  0  0  0  0  0
    5.3066    0.6413   -4.8876 N   0  0  0  0  0  0  0  0  0  0  0  0
    4.2616    1.2790   -4.3024 C   0  0  0  0  0  0  0  0  0  0  0  0
    3.2821    1.4098   -5.3862 C   0  0  0  0  0  0  0  0  0  0  0  0
    1.7581    2.3346   -5.1718 Cl  0  0  0  0  0  0  0  0  0  0  0  0
    6.1417    0.4077   -4.4215 H   0  0  0  0  0  0  0  0  0  0  0  0
    2.0824    0.9781   -8.6813 N   0  0  0  0  0  0  0  0  0  0  0  0
    2.0254    1.6660   -9.9649 C   0  0  0  0  0  0  0  0  0  0  0  0
    0.8262    0.9637  -10.6186 C   0  0  0  0  0  0  0  0  0  0  0  0
    0.1609    0.0463   -9.5853 C   0  0  0  0  0  0  0  0  0  0  0  0
    0.3934   -1.3704   -9.9232 N   0  0  0  0  0  0  0  0  0  0  0  0
    0.8161    0.4071   -8.2398 C   0  0  0  0  0  0  0  0  0  0  0  0
    1.3967   -1.5498   -9.9644 H   0  0  0  0  0  0  0  0  0  0  0  0
   -0.0265   -1.5771  -10.8295 H   0  0  0  0  0  0  0  0  0  0  0  0
    4.0626    1.7453   -2.8734 C   0  0  0  0  0  0  0  0  0  0  0  0
    2.8679    1.0054   -2.2947 C   0  0  0  0  0  0  0  0  0  0  0  0
    6.4982   -1.1036   -9.4564 S   0  0  0  0  0  0  0  0  0  0  0  0
   12.7901    2.2365   -7.5887 O   0  0  0  0  0  0  0  0  0  0  0  0
   11.8896    2.0043   -8.4318 C   0  0  0  0  0  0  0  0  0  0  0  0
   11.9782    2.5926   -9.7034 C   0  0  0  0  0  0  0  0  0  0  0  0
   10.8544    1.1934   -8.1039 N   0  0  0  0  0  0  0  0  0  0  0  0
    9.8934    0.9301   -9.0062 C   0  0  0  0  0  0  0  0  0  0  0  0
    9.9849    1.5616  -10.3600 C   0  0  0  0  0  0  0  0  0  0  0  0
   11.0403    2.3717  -10.6447 N   0  0  0  0  0  0  0  0  0  0  0  0
    9.0176    1.3089  -11.2783 N   0  0  0  0  0  0  0  0  0  0  0  0
    7.9875    0.5044  -10.9696 C   0  0  0  0  0  0  0  0  0  0  0  0
    7.8531   -0.1071   -9.7184 C   0  0  0  0  0  0  0  0  0  0  0  0
    8.8143    0.1045   -8.7219 C   0  0  0  0  0  0  0  0  0  0  0  0
   10.8063    0.7968   -7.2041 H   0  0  0  0  0  0  0  0  0  0  0  0
 23 24  2  0  0  0
 25 24  1  0  0  0
 25 29  2  0  0  0
 24 26  1  0  0  0
 29 28  1  0  0  0
 26 27  1  0  0  0
 28 27  2  0  0  0
 28 30  1  0  0  0
 27 33  1  0  0  0
 30 31  2  0  0  0
 33 32  2  0  0  0
 31 32  1  0  0  0
 32 22  1  0  0  0
 16 15  1  0  0  0
 22  1  1  0  0  0
 14 13  1  0  0  0
 14 15  1  0  0  0
 13 12  1  0  0  0
 15 17  1  0  0  0
  1  2  2  0  0  0
  1  6  1  0  0  0
  2  3  1  0  0  0
 12  3  1  0  0  0
 12 17  1  0  0  0
  6  5  2  0  0  0
  3  4  2  0  0  0
  5  4  1  0  0  0
  5  7  1  0  0  0
  4  9  1  0  0  0
  7  8  1  0  0  0
  9  8  2  0  0  0
  9 10  1  0  0  0
  8 20  1  0  0  0
 20 21  1  0  0  0
 26 34  1  0  0  0
 16 18  1  0  0  0
 16 19  1  0  0  0
  7 11  1  0  0  0
M  END
> <minimizedAffinity>
-7.37141

$$$$
