6FV4_16G_A_402


 25 25  0  0  0  0  0  0  0  0999 V2000
  124.4911 -112.0759  102.1311 C   0  0  0  0  0  0  0  0  0  0  0  0
  125.7059 -112.0877  103.0630 C   0  0  0  0  0  0  0  0  0  0  0  0
  125.7291 -113.3640  103.9063 C   0  0  0  0  0  0  0  0  0  0  0  0
  124.3778 -113.6313  104.5598 C   0  0  0  0  0  0  0  0  0  0  0  0
  123.2923 -113.6179  103.4918 C   0  0  0  0  0  0  0  0  0  0  0  0
  124.6528 -113.0478  101.1382 O   0  0  0  0  0  0  0  0  0  0  0  0
  126.7218 -113.2307  104.9161 O   0  0  0  0  0  0  0  0  0  0  0  0
  124.3885 -114.9008  105.2039 O   0  0  0  0  0  0  0  0  0  0  0  0
  123.2963 -112.3217  102.8846 O   0  0  0  0  0  0  0  0  0  0  0  0
  124.7292 -113.9222  101.5511 H   0  0  0  0  0  0  0  0  0  0  0  0
  126.5020 -112.4789  105.4883 H   0  0  0  0  0  0  0  0  0  0  0  0
  124.5644 -115.5942  104.5487 H   0  0  0  0  0  0  0  0  0  0  0  0
  128.0390 -111.3475  102.7136 C   0  0  0  0  0  0  0  0  0  0  0  0
  129.2084 -111.3688  101.7743 C   0  0  0  0  0  0  0  0  0  0  0  0
  126.9327 -111.9756  102.2872 N   0  0  0  0  0  0  0  0  0  0  0  0
  128.0867 -110.7734  103.7975 O   0  0  0  0  0  0  0  0  0  0  0  0
  126.9518 -112.3868  101.3929 H   0  0  0  0  0  0  0  0  0  0  0  0
  121.9121 -113.8803  104.0509 C   0  0  0  0  0  0  0  0  0  0  0  0
  121.8238 -113.3043  105.3707 O   0  0  0  0  0  0  0  0  0  0  0  0
  121.1019 -114.1017  106.5374 P   0  0  0  0  0  0  0  0  0  0  0  0
  122.2223 -114.5171  107.4861 O   0  0  0  0  0  0  0  0  0  0  0  0
  120.0146 -113.3277  107.2007 O   0  0  0  0  0  0  0  0  0  0  0  0
  120.5839 -115.3044  105.8210 O   0  0  0  0  0  0  0  0  0  0  0  0
  120.3948 -112.5580  107.6522 H   0  0  0  0  0  0  0  0  0  0  0  0
  121.3225 -115.7764  105.4057 H   0  0  0  0  0  0  0  0  0  0  0  0
  1  2  1  0  0  0
  1  6  1  0  0  0
  1  9  1  0  0  0
  2  3  1  0  0  0
  2 15  1  0  0  0
  3  4  1  0  0  0
  3  7  1  0  0  0
  4  5  1  0  0  0
  4  8  1  0  0  0
  5 18  1  0  0  0
  5  9  1  0  0  0
 18 19  1  0  0  0
 13 14  1  0  0  0
 13 15  1  0  0  0
 13 16  2  0  0  0
 19 20  1  0  0  0
 20 21  2  0  0  0
 20 22  1  0  0  0
 20 23  1  0  0  0
 15 17  1  0  0  0
  6 10  1  0  0  0
  7 11  1  0  0  0
  8 12  1  0  0  0
 22 24  1  0  0  0
 23 25  1  0  0  0
M  END
> <minimizedAffinity>
-7.97197

$$$$
6FV4_16G_A_402


 25 25  0  0  0  0  0  0  0  0999 V2000
  123.3856 -113.8133  105.5754 C   0  0  0  0  0  0  0  0  0  0  0  0
  122.1756 -113.6206  104.6572 C   0  0  0  0  0  0  0  0  0  0  0  0
  122.6108 -113.5689  103.1915 C   0  0  0  0  0  0  0  0  0  0  0  0
  123.7730 -112.6043  102.9832 C   0  0  0  0  0  0  0  0  0  0  0  0
  124.8973 -112.9575  103.9478 C   0  0  0  0  0  0  0  0  0  0  0  0
  123.9019 -115.1021  105.4056 O   0  0  0  0  0  0  0  0  0  0  0  0
  121.5063 -113.1528  102.3976 O   0  0  0  0  0  0  0  0  0  0  0  0
  124.2532 -112.6984  101.6463 O   0  0  0  0  0  0  0  0  0  0  0  0
  124.3848 -112.8288  105.2781 O   0  0  0  0  0  0  0  0  0  0  0  0
  124.1793 -115.2204  104.4836 H   0  0  0  0  0  0  0  0  0  0  0  0
  121.2249 -112.2667  102.6742 H   0  0  0  0  0  0  0  0  0  0  0  0
  124.5597 -113.6028  101.4758 H   0  0  0  0  0  0  0  0  0  0  0  0
  120.1678 -114.6264  105.6918 C   0  0  0  0  0  0  0  0  0  0  0  0
  119.2815 -115.8359  105.7351 C   0  0  0  0  0  0  0  0  0  0  0  0
  121.2175 -114.6980  104.8593 N   0  0  0  0  0  0  0  0  0  0  0  0
  119.9551 -113.6398  106.3904 O   0  0  0  0  0  0  0  0  0  0  0  0
  121.3483 -115.5321  104.3529 H   0  0  0  0  0  0  0  0  0  0  0  0
  126.0998 -112.0513  103.8085 C   0  0  0  0  0  0  0  0  0  0  0  0
  126.7726 -112.3527  102.5684 O   0  0  0  0  0  0  0  0  0  0  0  0
  127.8901 -113.4784  102.5256 P   0  0  0  0  0  0  0  0  0  0  0  0
  128.3150 -113.6708  103.9783 O   0  0  0  0  0  0  0  0  0  0  0  0
  127.4408 -114.7359  101.8638 O   0  0  0  0  0  0  0  0  0  0  0  0
  128.9866 -112.8029  101.7710 O   0  0  0  0  0  0  0  0  0  0  0  0
  126.7303 -115.1400  102.3861 H   0  0  0  0  0  0  0  0  0  0  0  0
  129.2471 -111.9922  102.2356 H   0  0  0  0  0  0  0  0  0  0  0  0
  1  2  1  0  0  0
  1  6  1  0  0  0
  1  9  1  0  0  0
  2  3  1  0  0  0
  2 15  1  0  0  0
  3  4  1  0  0  0
  3  7  1  0  0  0
  4  5  1  0  0  0
  4  8  1  0  0  0
  5 18  1  0  0  0
  5  9  1  0  0  0
 18 19  1  0  0  0
 13 14  1  0  0  0
 13 15  1  0  0  0
 13 16  2  0  0  0
 19 20  1  0  0  0
 20 21  2  0  0  0
 20 22  1  0  0  0
 20 23  1  0  0  0
 15 17  1  0  0  0
  6 10  1  0  0  0
  7 11  1  0  0  0
  8 12  1  0  0  0
 22 24  1  0  0  0
 23 25  1  0  0  0
M  END
> <minimizedAffinity>
-7.95193

$$$$
6FV4_16G_A_402


 25 25  0  0  0  0  0  0  0  0999 V2000
  126.3654 -113.0466  104.5808 C   0  0  0  0  0  0  0  0  0  0  0  0
  124.9641 -112.6543  104.1044 C   0  0  0  0  0  0  0  0  0  0  0  0
  124.8815 -112.6906  102.5772 C   0  0  0  0  0  0  0  0  0  0  0  0
  126.0441 -111.9439  101.9328 C   0  0  0  0  0  0  0  0  0  0  0  0
  127.3558 -112.4789  102.4919 C   0  0  0  0  0  0  0  0  0  0  0  0
  126.5800 -114.4067  104.3350 O   0  0  0  0  0  0  0  0  0  0  0  0
  123.6560 -112.0956  102.1681 O   0  0  0  0  0  0  0  0  0  0  0  0
  126.0233 -112.1305  100.5216 O   0  0  0  0  0  0  0  0  0  0  0  0
  127.3500 -112.2527  103.9052 O   0  0  0  0  0  0  0  0  0  0  0  0
  126.5073 -114.5787  103.3832 H   0  0  0  0  0  0  0  0  0  0  0  0
  123.6306 -111.1720  102.4632 H   0  0  0  0  0  0  0  0  0  0  0  0
  126.1048 -113.0757  100.3193 H   0  0  0  0  0  0  0  0  0  0  0  0
  123.5077 -113.4477  105.9381 C   0  0  0  0  0  0  0  0  0  0  0  0
  122.4633 -114.4493  106.3335 C   0  0  0  0  0  0  0  0  0  0  0  0
  123.9707 -113.5476  104.6828 N   0  0  0  0  0  0  0  0  0  0  0  0
  123.9259 -112.6012  106.7224 O   0  0  0  0  0  0  0  0  0  0  0  0
  123.6162 -114.2710  104.1169 H   0  0  0  0  0  0  0  0  0  0  0  0
  128.5696 -111.7962  101.9029 C   0  0  0  0  0  0  0  0  0  0  0  0
  128.2329 -110.4284  101.5912 O   0  0  0  0  0  0  0  0  0  0  0  0
  128.9888 -109.2394  102.3213 P   0  0  0  0  0  0  0  0  0  0  0  0
  130.4328 -109.3310  101.8374 O   0  0  0  0  0  0  0  0  0  0  0  0
  128.3644 -107.9066  102.0871 O   0  0  0  0  0  0  0  0  0  0  0  0
  128.9159 -109.6543  103.7533 O   0  0  0  0  0  0  0  0  0  0  0  0
  128.4340 -107.6777  101.1471 H   0  0  0  0  0  0  0  0  0  0  0  0
  129.3324 -110.5238  103.8597 H   0  0  0  0  0  0  0  0  0  0  0  0
  1  2  1  0  0  0
  1  6  1  0  0  0
  1  9  1  0  0  0
  2  3  1  0  0  0
  2 15  1  0  0  0
  3  4  1  0  0  0
  3  7  1  0  0  0
  4  5  1  0  0  0
  4  8  1  0  0  0
  5 18  1  0  0  0
  5  9  1  0  0  0
 18 19  1  0  0  0
 13 14  1  0  0  0
 13 15  1  0  0  0
 13 16  2  0  0  0
 19 20  1  0  0  0
 20 21  2  0  0  0
 20 22  1  0  0  0
 20 23  1  0  0  0
 15 17  1  0  0  0
  6 10  1  0  0  0
  7 11  1  0  0  0
  8 12  1  0  0  0
 22 24  1  0  0  0
 23 25  1  0  0  0
M  END
> <minimizedAffinity>
-7.64309

$$$$
6FV4_16G_A_402


 25 25  0  0  0  0  0  0  0  0999 V2000
  123.3690 -113.7373  105.8401 C   0  0  0  0  0  0  0  0  0  0  0  0
  122.2915 -113.6564  104.7553 C   0  0  0  0  0  0  0  0  0  0  0  0
  122.8848 -113.9623  103.3787 C   0  0  0  0  0  0  0  0  0  0  0  0
  124.1569 -113.1615  103.1237 C   0  0  0  0  0  0  0  0  0  0  0  0
  125.1279 -113.3815  104.2761 C   0  0  0  0  0  0  0  0  0  0  0  0
  123.7634 -115.0685  106.0102 O   0  0  0  0  0  0  0  0  0  0  0  0
  121.9215 -113.6453  102.3813 O   0  0  0  0  0  0  0  0  0  0  0  0
  124.7656 -113.5844  101.9083 O   0  0  0  0  0  0  0  0  0  0  0  0
  124.4915 -112.9238  105.4737 O   0  0  0  0  0  0  0  0  0  0  0  0
  124.1245 -115.4078  105.1764 H   0  0  0  0  0  0  0  0  0  0  0  0
  121.7059 -112.7007  102.4287 H   0  0  0  0  0  0  0  0  0  0  0  0
  124.9928 -114.5254  101.9708 H   0  0  0  0  0  0  0  0  0  0  0  0
  119.9180 -114.3488  104.7804 C   0  0  0  0  0  0  0  0  0  0  0  0
  118.9607 -115.4459  105.1412 C   0  0  0  0  0  0  0  0  0  0  0  0
  121.2102 -114.5844  105.0540 N   0  0  0  0  0  0  0  0  0  0  0  0
  119.5383 -113.2927  104.2831 O   0  0  0  0  0  0  0  0  0  0  0  0
  121.4419 -115.4391  105.4841 H   0  0  0  0  0  0  0  0  0  0  0  0
  126.4263 -112.6255  104.1051 C   0  0  0  0  0  0  0  0  0  0  0  0
  126.2753 -111.6709  103.0340 O   0  0  0  0  0  0  0  0  0  0  0  0
  127.4727 -111.4155  102.0246 P   0  0  0  0  0  0  0  0  0  0  0  0
  127.1108 -112.2073  100.7716 O   0  0  0  0  0  0  0  0  0  0  0  0
  127.7312 -109.9711  101.7637 O   0  0  0  0  0  0  0  0  0  0  0  0
  128.6154 -112.0779  102.7199 O   0  0  0  0  0  0  0  0  0  0  0  0
  126.9658 -109.5821  101.3123 H   0  0  0  0  0  0  0  0  0  0  0  0
  128.4050 -113.0129  102.8691 H   0  0  0  0  0  0  0  0  0  0  0  0
  1  2  1  0  0  0
  1  6  1  0  0  0
  1  9  1  0  0  0
  2  3  1  0  0  0
  2 15  1  0  0  0
  3  4  1  0  0  0
  3  7  1  0  0  0
  4  5  1  0  0  0
  4  8  1  0  0  0
  5 18  1  0  0  0
  5  9  1  0  0  0
 18 19  1  0  0  0
 13 14  1  0  0  0
 13 15  1  0  0  0
 13 16  2  0  0  0
 19 20  1  0  0  0
 20 21  2  0  0  0
 20 22  1  0  0  0
 20 23  1  0  0  0
 15 17  1  0  0  0
  6 10  1  0  0  0
  7 11  1  0  0  0
  8 12  1  0  0  0
 22 24  1  0  0  0
 23 25  1  0  0  0
M  END
> <minimizedAffinity>
-7.62541

$$$$
6FV4_16G_A_402


 25 25  0  0  0  0  0  0  0  0999 V2000
  126.4930 -111.8225  101.8304 C   0  0  0  0  0  0  0  0  0  0  0  0
  127.7597 -112.6105  102.1754 C   0  0  0  0  0  0  0  0  0  0  0  0
  127.4216 -113.8297  103.0354 C   0  0  0  0  0  0  0  0  0  0  0  0
  126.5203 -113.4589  104.2079 C   0  0  0  0  0  0  0  0  0  0  0  0
  125.2983 -112.7149  103.6859 C   0  0  0  0  0  0  0  0  0  0  0  0
  125.7070 -112.5645  100.9426 O   0  0  0  0  0  0  0  0  0  0  0  0
  128.6300 -114.3931  103.5308 O   0  0  0  0  0  0  0  0  0  0  0  0
  126.0989 -114.6342  104.8917 O   0  0  0  0  0  0  0  0  0  0  0  0
  125.7594 -111.5306  103.0273 O   0  0  0  0  0  0  0  0  0  0  0  0
  125.4565 -113.4049  101.3573 H   0  0  0  0  0  0  0  0  0  0  0  0
  129.0908 -113.7389  104.0790 H   0  0  0  0  0  0  0  0  0  0  0  0
  125.6042 -115.2034  104.2816 H   0  0  0  0  0  0  0  0  0  0  0  0
  129.6301 -112.5596  100.5590 C   0  0  0  0  0  0  0  0  0  0  0  0
  130.1710 -113.1390   99.2855 C   0  0  0  0  0  0  0  0  0  0  0  0
  128.4370 -113.0277  100.9561 N   0  0  0  0  0  0  0  0  0  0  0  0
  130.2343 -111.6959  101.1880 O   0  0  0  0  0  0  0  0  0  0  0  0
  127.9912 -113.6958  100.3867 H   0  0  0  0  0  0  0  0  0  0  0  0
  124.3413 -112.3099  104.7843 C   0  0  0  0  0  0  0  0  0  0  0  0
  123.0072 -112.7187  104.4178 O   0  0  0  0  0  0  0  0  0  0  0  0
  122.3901 -114.0484  105.0255 P   0  0  0  0  0  0  0  0  0  0  0  0
  121.7196 -114.7488  103.8475 O   0  0  0  0  0  0  0  0  0  0  0  0
  123.3898 -114.8969  105.7338 O   0  0  0  0  0  0  0  0  0  0  0  0
  121.3453 -113.5155  105.9488 O   0  0  0  0  0  0  0  0  0  0  0  0
  124.0473 -115.2206  105.0982 H   0  0  0  0  0  0  0  0  0  0  0  0
  120.7181 -112.9711  105.4476 H   0  0  0  0  0  0  0  0  0  0  0  0
  1  2  1  0  0  0
  1  6  1  0  0  0
  1  9  1  0  0  0
  2  3  1  0  0  0
  2 15  1  0  0  0
  3  4  1  0  0  0
  3  7  1  0  0  0
  4  5  1  0  0  0
  4  8  1  0  0  0
  5 18  1  0  0  0
  5  9  1  0  0  0
 18 19  1  0  0  0
 13 14  1  0  0  0
 13 15  1  0  0  0
 13 16  2  0  0  0
 19 20  1  0  0  0
 20 21  2  0  0  0
 20 22  1  0  0  0
 20 23  1  0  0  0
 15 17  1  0  0  0
  6 10  1  0  0  0
  7 11  1  0  0  0
  8 12  1  0  0  0
 22 24  1  0  0  0
 23 25  1  0  0  0
M  END
> <minimizedAffinity>
-7.37987

$$$$
6FV4_16G_A_402


 25 25  0  0  0  0  0  0  0  0999 V2000
  126.4891 -111.3208  101.1140 C   0  0  0  0  0  0  0  0  0  0  0  0
  127.6198 -111.1869  102.1378 C   0  0  0  0  0  0  0  0  0  0  0  0
  127.6703 -112.4124  103.0522 C   0  0  0  0  0  0  0  0  0  0  0  0
  126.2938 -112.7542  103.6117 C   0  0  0  0  0  0  0  0  0  0  0  0
  125.3028 -112.8831  102.4625 C   0  0  0  0  0  0  0  0  0  0  0  0
  126.8064 -112.3259  100.1945 O   0  0  0  0  0  0  0  0  0  0  0  0
  128.5627 -112.1480  104.1277 O   0  0  0  0  0  0  0  0  0  0  0  0
  126.3479 -113.9842  104.3264 O   0  0  0  0  0  0  0  0  0  0  0  0
  125.2581 -111.6235  101.7841 O   0  0  0  0  0  0  0  0  0  0  0  0
  126.9148 -113.1690  100.6616 H   0  0  0  0  0  0  0  0  0  0  0  0
  128.2394 -111.3882  104.6367 H   0  0  0  0  0  0  0  0  0  0  0  0
  126.6300 -114.6937  103.7280 H   0  0  0  0  0  0  0  0  0  0  0  0
  129.5706 -109.8581  101.4015 C   0  0  0  0  0  0  0  0  0  0  0  0
  130.8814 -109.8978  100.6733 C   0  0  0  0  0  0  0  0  0  0  0  0
  128.8946 -111.0158  101.4558 N   0  0  0  0  0  0  0  0  0  0  0  0
  129.1353 -108.8244  101.9000 O   0  0  0  0  0  0  0  0  0  0  0  0
  129.2854 -111.7994  101.0059 H   0  0  0  0  0  0  0  0  0  0  0  0
  123.9050 -113.2272  102.9255 C   0  0  0  0  0  0  0  0  0  0  0  0
  123.7012 -112.6826  104.2458 O   0  0  0  0  0  0  0  0  0  0  0  0
  123.2096 -113.6240  105.4248 P   0  0  0  0  0  0  0  0  0  0  0  0
  121.6860 -113.5597  105.3745 O   0  0  0  0  0  0  0  0  0  0  0  0
  123.7513 -115.0099  105.3428 O   0  0  0  0  0  0  0  0  0  0  0  0
  123.6994 -112.8958  106.6322 O   0  0  0  0  0  0  0  0  0  0  0  0
  123.4084 -115.4445  104.5462 H   0  0  0  0  0  0  0  0  0  0  0  0
  123.3235 -112.0017  106.6452 H   0  0  0  0  0  0  0  0  0  0  0  0
  1  2  1  0  0  0
  1  6  1  0  0  0
  1  9  1  0  0  0
  2  3  1  0  0  0
  2 15  1  0  0  0
  3  4  1  0  0  0
  3  7  1  0  0  0
  4  5  1  0  0  0
  4  8  1  0  0  0
  5 18  1  0  0  0
  5  9  1  0  0  0
 18 19  1  0  0  0
 13 14  1  0  0  0
 13 15  1  0  0  0
 13 16  2  0  0  0
 19 20  1  0  0  0
 20 21  2  0  0  0
 20 22  1  0  0  0
 20 23  1  0  0  0
 15 17  1  0  0  0
  6 10  1  0  0  0
  7 11  1  0  0  0
  8 12  1  0  0  0
 22 24  1  0  0  0
 23 25  1  0  0  0
M  END
> <minimizedAffinity>
-7.16895

$$$$
6FV4_16G_A_402


 25 25  0  0  0  0  0  0  0  0999 V2000
  127.7396 -112.9942  103.7573 C   0  0  0  0  0  0  0  0  0  0  0  0
  127.4903 -113.0711  102.2485 C   0  0  0  0  0  0  0  0  0  0  0  0
  126.1699 -112.3907  101.8825 C   0  0  0  0  0  0  0  0  0  0  0  0
  125.0281 -112.8600  102.7772 C   0  0  0  0  0  0  0  0  0  0  0  0
  125.4286 -112.6837  104.2359 C   0  0  0  0  0  0  0  0  0  0  0  0
  128.0125 -111.6712  104.1201 O   0  0  0  0  0  0  0  0  0  0  0  0
  125.8584 -112.6892  100.5271 O   0  0  0  0  0  0  0  0  0  0  0  0
  123.8558 -112.0957  102.5155 O   0  0  0  0  0  0  0  0  0  0  0  0
  126.5932 -113.4832  104.4663 O   0  0  0  0  0  0  0  0  0  0  0  0
  127.2540 -111.1107  103.8935 H   0  0  0  0  0  0  0  0  0  0  0  0
  125.7584 -113.6483  100.4219 H   0  0  0  0  0  0  0  0  0  0  0  0
  124.0333 -111.1594  102.6961 H   0  0  0  0  0  0  0  0  0  0  0  0
  129.0847 -112.9078  100.3657 C   0  0  0  0  0  0  0  0  0  0  0  0
  130.2039 -112.1078   99.7679 C   0  0  0  0  0  0  0  0  0  0  0  0
  128.5922 -112.4507  101.5271 N   0  0  0  0  0  0  0  0  0  0  0  0
  128.6594 -113.9289   99.8335 O   0  0  0  0  0  0  0  0  0  0  0  0
  129.0021 -111.6446  101.9162 H   0  0  0  0  0  0  0  0  0  0  0  0
  124.3493 -113.1212  105.2004 C   0  0  0  0  0  0  0  0  0  0  0  0
  123.6500 -114.2517  104.6399 O   0  0  0  0  0  0  0  0  0  0  0  0
  122.0722 -114.2073  104.4773 P   0  0  0  0  0  0  0  0  0  0  0  0
  121.8138 -114.5647  103.0167 O   0  0  0  0  0  0  0  0  0  0  0  0
  121.3512 -115.0844  105.4427 O   0  0  0  0  0  0  0  0  0  0  0  0
  121.7752 -112.7610  104.6965 O   0  0  0  0  0  0  0  0  0  0  0  0
  121.5725 -116.0118  105.2645 H   0  0  0  0  0  0  0  0  0  0  0  0
  122.2635 -112.2289  104.0488 H   0  0  0  0  0  0  0  0  0  0  0  0
  1  2  1  0  0  0
  1  6  1  0  0  0
  1  9  1  0  0  0
  2  3  1  0  0  0
  2 15  1  0  0  0
  3  4  1  0  0  0
  3  7  1  0  0  0
  4  5  1  0  0  0
  4  8  1  0  0  0
  5 18  1  0  0  0
  5  9  1  0  0  0
 18 19  1  0  0  0
 13 14  1  0  0  0
 13 15  1  0  0  0
 13 16  2  0  0  0
 19 20  1  0  0  0
 20 21  2  0  0  0
 20 22  1  0  0  0
 20 23  1  0  0  0
 15 17  1  0  0  0
  6 10  1  0  0  0
  7 11  1  0  0  0
  8 12  1  0  0  0
 22 24  1  0  0  0
 23 25  1  0  0  0
M  END
> <minimizedAffinity>
-7.16068

$$$$
6FV4_16G_A_402


 25 25  0  0  0  0  0  0  0  0999 V2000
  122.9260 -112.7310  103.2347 C   0  0  0  0  0  0  0  0  0  0  0  0
  123.0134 -114.0199  104.0567 C   0  0  0  0  0  0  0  0  0  0  0  0
  124.3110 -114.0591  104.8661 C   0  0  0  0  0  0  0  0  0  0  0  0
  125.5232 -113.7291  104.0023 C   0  0  0  0  0  0  0  0  0  0  0  0
  125.2837 -112.4070  103.2854 C   0  0  0  0  0  0  0  0  0  0  0  0
  122.7382 -111.6412  104.0912 O   0  0  0  0  0  0  0  0  0  0  0  0
  124.4686 -115.3593  105.4208 O   0  0  0  0  0  0  0  0  0  0  0  0
  126.6873 -113.6197  104.8145 O   0  0  0  0  0  0  0  0  0  0  0  0
  124.1227 -112.5630  102.4629 O   0  0  0  0  0  0  0  0  0  0  0  0
  123.4878 -111.5784  104.7036 H   0  0  0  0  0  0  0  0  0  0  0  0
  124.5239 -116.0116  104.7050 H   0  0  0  0  0  0  0  0  0  0  0  0
  126.5620 -112.9116  105.4654 H   0  0  0  0  0  0  0  0  0  0  0  0
  120.6174 -114.4029  104.5323 C   0  0  0  0  0  0  0  0  0  0  0  0
  119.5771 -114.4975  105.6089 C   0  0  0  0  0  0  0  0  0  0  0  0
  121.8641 -114.1264  104.9440 N   0  0  0  0  0  0  0  0  0  0  0  0
  120.3398 -114.5506  103.3458 O   0  0  0  0  0  0  0  0  0  0  0  0
  122.0110 -113.9865  105.9074 H   0  0  0  0  0  0  0  0  0  0  0  0
  126.4422 -111.9958  102.4048 C   0  0  0  0  0  0  0  0  0  0  0  0
  126.7895 -113.0985  101.5419 O   0  0  0  0  0  0  0  0  0  0  0  0
  128.3053 -113.5452  101.3969 P   0  0  0  0  0  0  0  0  0  0  0  0
  128.4809 -114.6829  102.3982 O   0  0  0  0  0  0  0  0  0  0  0  0
  128.6848 -113.9130  100.0034 O   0  0  0  0  0  0  0  0  0  0  0  0
  129.0357 -112.3373  101.8819 O   0  0  0  0  0  0  0  0  0  0  0  0
  128.1882 -114.7001   99.7301 H   0  0  0  0  0  0  0  0  0  0  0  0
  128.7590 -112.1347  102.7893 H   0  0  0  0  0  0  0  0  0  0  0  0
  1  2  1  0  0  0
  1  6  1  0  0  0
  1  9  1  0  0  0
  2  3  1  0  0  0
  2 15  1  0  0  0
  3  4  1  0  0  0
  3  7  1  0  0  0
  4  5  1  0  0  0
  4  8  1  0  0  0
  5 18  1  0  0  0
  5  9  1  0  0  0
 18 19  1  0  0  0
 13 14  1  0  0  0
 13 15  1  0  0  0
 13 16  2  0  0  0
 19 20  1  0  0  0
 20 21  2  0  0  0
 20 22  1  0  0  0
 20 23  1  0  0  0
 15 17  1  0  0  0
  6 10  1  0  0  0
  7 11  1  0  0  0
  8 12  1  0  0  0
 22 24  1  0  0  0
 23 25  1  0  0  0
M  END
> <minimizedAffinity>
-6.99437

$$$$
6FV4_16G_A_402


 25 25  0  0  0  0  0  0  0  0999 V2000
  125.1614 -112.1665  101.8294 C   0  0  0  0  0  0  0  0  0  0  0  0
  126.6035 -111.6780  101.6678 C   0  0  0  0  0  0  0  0  0  0  0  0
  127.5370 -112.4194  102.6267 C   0  0  0  0  0  0  0  0  0  0  0  0
  126.9874 -112.4336  104.0487 C   0  0  0  0  0  0  0  0  0  0  0  0
  125.5644 -112.9759  104.0314 C   0  0  0  0  0  0  0  0  0  0  0  0
  125.0533 -113.4750  101.3471 O   0  0  0  0  0  0  0  0  0  0  0  0
  128.8072 -111.7792  102.6198 O   0  0  0  0  0  0  0  0  0  0  0  0
  127.7963 -113.2615  104.8775 O   0  0  0  0  0  0  0  0  0  0  0  0
  124.7782 -112.1067  103.2098 O   0  0  0  0  0  0  0  0  0  0  0  0
  125.6448 -114.0553  101.8515 H   0  0  0  0  0  0  0  0  0  0  0  0
  128.7089 -110.8626  102.9215 H   0  0  0  0  0  0  0  0  0  0  0  0
  127.7946 -114.1671  104.5299 H   0  0  0  0  0  0  0  0  0  0  0  0
  127.4179 -110.8654   99.4792 C   0  0  0  0  0  0  0  0  0  0  0  0
  127.8666 -111.2706   98.1064 C   0  0  0  0  0  0  0  0  0  0  0  0
  127.0440 -111.8646  100.2928 N   0  0  0  0  0  0  0  0  0  0  0  0
  127.3774 -109.6895   99.8289 O   0  0  0  0  0  0  0  0  0  0  0  0
  127.0691 -112.7824   99.9374 H   0  0  0  0  0  0  0  0  0  0  0  0
  124.9379 -113.0310  105.4065 C   0  0  0  0  0  0  0  0  0  0  0  0
  123.9823 -114.1112  105.4433 O   0  0  0  0  0  0  0  0  0  0  0  0
  122.5757 -113.9506  104.7266 P   0  0  0  0  0  0  0  0  0  0  0  0
  121.6091 -114.7889  105.5578 O   0  0  0  0  0  0  0  0  0  0  0  0
  122.1495 -112.5314  104.5671 O   0  0  0  0  0  0  0  0  0  0  0  0
  122.8145 -114.6203  103.4142 O   0  0  0  0  0  0  0  0  0  0  0  0
  122.0061 -112.1367  105.4415 H   0  0  0  0  0  0  0  0  0  0  0  0
  123.0889 -115.5384  103.5649 H   0  0  0  0  0  0  0  0  0  0  0  0
  1  2  1  0  0  0
  1  6  1  0  0  0
  1  9  1  0  0  0
  2  3  1  0  0  0
  2 15  1  0  0  0
  3  4  1  0  0  0
  3  7  1  0  0  0
  4  5  1  0  0  0
  4  8  1  0  0  0
  5 18  1  0  0  0
  5  9  1  0  0  0
 18 19  1  0  0  0
 13 14  1  0  0  0
 13 15  1  0  0  0
 13 16  2  0  0  0
 19 20  1  0  0  0
 20 21  2  0  0  0
 20 22  1  0  0  0
 20 23  1  0  0  0
 15 17  1  0  0  0
  6 10  1  0  0  0
  7 11  1  0  0  0
  8 12  1  0  0  0
 22 24  1  0  0  0
 23 25  1  0  0  0
M  END
> <minimizedAffinity>
-6.88444

$$$$
6FV4_16G_A_402


 25 25  0  0  0  0  0  0  0  0999 V2000
  124.4847 -112.8985  104.8114 C   0  0  0  0  0  0  0  0  0  0  0  0
  123.3887 -112.3320  103.9046 C   0  0  0  0  0  0  0  0  0  0  0  0
  123.7486 -112.5308  102.4310 C   0  0  0  0  0  0  0  0  0  0  0  0
  125.1717 -112.0723  102.1326 C   0  0  0  0  0  0  0  0  0  0  0  0
  126.1316 -112.7537  103.0988 C   0  0  0  0  0  0  0  0  0  0  0  0
  124.4892 -114.2946  104.7247 O   0  0  0  0  0  0  0  0  0  0  0  0
  122.8375 -111.7879  101.6302 O   0  0  0  0  0  0  0  0  0  0  0  0
  125.5262 -112.4152  100.7971 O   0  0  0  0  0  0  0  0  0  0  0  0
  125.7594 -112.3673  104.4258 O   0  0  0  0  0  0  0  0  0  0  0  0
  124.6642 -114.5611  103.8085 H   0  0  0  0  0  0  0  0  0  0  0  0
  122.9099 -110.8454  101.8479 H   0  0  0  0  0  0  0  0  0  0  0  0
  125.4752 -113.3775  100.6861 H   0  0  0  0  0  0  0  0  0  0  0  0
  121.6827 -114.0984  103.6169 C   0  0  0  0  0  0  0  0  0  0  0  0
  120.3522 -114.6108  104.0834 C   0  0  0  0  0  0  0  0  0  0  0  0
  122.1143 -112.9703  104.2012 N   0  0  0  0  0  0  0  0  0  0  0  0
  122.3269 -114.6670  102.7404 O   0  0  0  0  0  0  0  0  0  0  0  0
  121.5323 -112.5474  104.8732 H   0  0  0  0  0  0  0  0  0  0  0  0
  127.5739 -112.3601  102.8725 C   0  0  0  0  0  0  0  0  0  0  0  0
  127.6582 -110.9230  102.7775 O   0  0  0  0  0  0  0  0  0  0  0  0
  128.5670 -110.2539  101.6620 P   0  0  0  0  0  0  0  0  0  0  0  0
  128.4150 -108.7508  101.8757 O   0  0  0  0  0  0  0  0  0  0  0  0
  129.9821 -110.7205  101.6908 O   0  0  0  0  0  0  0  0  0  0  0  0
  127.8656 -110.6521  100.4060 O   0  0  0  0  0  0  0  0  0  0  0  0
  130.3980 -110.4408  102.5213 H   0  0  0  0  0  0  0  0  0  0  0  0
  126.9513 -110.3291  100.4300 H   0  0  0  0  0  0  0  0  0  0  0  0
  1  2  1  0  0  0
  1  6  1  0  0  0
  1  9  1  0  0  0
  2  3  1  0  0  0
  2 15  1  0  0  0
  3  4  1  0  0  0
  3  7  1  0  0  0
  4  5  1  0  0  0
  4  8  1  0  0  0
  5 18  1  0  0  0
  5  9  1  0  0  0
 18 19  1  0  0  0
 13 14  1  0  0  0
 13 15  1  0  0  0
 13 16  2  0  0  0
 19 20  1  0  0  0
 20 21  2  0  0  0
 20 22  1  0  0  0
 20 23  1  0  0  0
 15 17  1  0  0  0
  6 10  1  0  0  0
  7 11  1  0  0  0
  8 12  1  0  0  0
 22 24  1  0  0  0
 23 25  1  0  0  0
M  END
> <minimizedAffinity>
-6.87927

$$$$
