4LYW_21Q_A_1001


 32 33  0  0  0  0  0  0  0  0999 V2000
    3.3961    5.2711   23.0333 C   0  0  0  0  0  0  0  0  0  0  0  0
    3.4915    4.4481   21.9221 C   0  0  0  0  0  0  0  0  0  0  0  0
    3.1505    3.1069   22.0716 C   0  0  0  0  0  0  0  0  0  0  0  0
    2.7197    2.5863   23.2782 C   0  0  0  0  0  0  0  0  0  0  0  0
    2.6295    3.4100   24.3782 C   0  0  0  0  0  0  0  0  0  0  0  0
    2.9710    4.7371   24.2327 C   0  0  0  0  0  0  0  0  0  0  0  0
    2.8890    5.5883   25.3194 O   0  0  0  0  0  0  0  0  0  0  0  0
    3.1201    6.4915   25.2256 H   0  0  0  0  0  0  0  0  0  0  0  0
    4.9819    7.1328   23.2272 C   0  0  0  0  0  0  0  0  0  0  0  0
    3.7042    6.6537   23.0752 N   0  0  0  0  0  0  0  0  0  0  0  0
    5.9362    6.4241   23.4832 O   0  0  0  0  0  0  0  0  0  0  0  0
    2.9673    7.3012   22.9915 H   0  0  0  0  0  0  0  0  0  0  0  0
    5.4278    9.3723   22.0065 C   0  0  0  0  0  0  0  0  0  0  0  0
    5.0042    9.3522   24.1808 N   0  0  0  0  0  0  0  0  0  0  0  0
    5.1360    8.5484   23.0842 C   0  0  0  0  0  0  0  0  0  0  0  0
    5.4563   10.7068   22.4848 C   0  0  0  0  0  0  0  0  0  0  0  0
    5.1927   10.6592   23.8459 C   0  0  0  0  0  0  0  0  0  0  0  0
    5.0927   11.7000   24.9056 C   0  0  0  0  0  0  0  0  0  0  0  0
    4.8009    9.0310   25.0889 H   0  0  0  0  0  0  0  0  0  0  0  0
    5.7238   11.9359   21.7846 C   0  0  0  0  0  0  0  0  0  0  0  0
    6.8605   12.3335   21.5603 O   0  0  0  0  0  0  0  0  0  0  0  0
    4.5547   12.7041   21.2755 C   0  0  0  0  0  0  0  0  0  0  0  0
    7.1319    9.0427   20.2556 C   0  0  0  0  0  0  0  0  0  0  0  0
    5.6560    8.9333   20.6128 C   0  0  0  0  0  0  0  0  0  0  0  0
    4.4993    1.9508   20.0361 O   0  0  0  0  0  0  0  0  0  0  0  0
    2.6532    0.6812   21.2526 O   0  0  0  0  0  0  0  0  0  0  0  0
    3.2180    1.9153   20.7232 S   0  0  0  0  0  0  0  0  0  0  0  0
    2.0792    2.7213   19.7285 N   0  0  0  0  0  0  0  0  0  0  0  0
    2.4777    2.9750   18.3230 C   0  0  0  0  0  0  0  0  0  0  0  0
    2.6021    4.4633   18.0670 C   0  0  0  0  0  0  0  0  0  0  0  0
    0.6652    2.3175   19.8880 C   0  0  0  0  0  0  0  0  0  0  0  0
   -0.0929    3.4626   20.5248 C   0  0  0  0  0  0  0  0  0  0  0  0
 18 17  1  0  0  0
 30 29  1  0  0  0
 17 14  1  0  0  0
 17 16  2  0  0  0
 14 15  1  0  0  0
 25 27  2  0  0  0
 29 28  1  0  0  0
 11  9  2  0  0  0
 21 20  2  0  0  0
 16 20  1  0  0  0
 16 13  1  0  0  0
 20 22  1  0  0  0
 15  9  1  0  0  0
 15 13  2  0  0  0
 32 31  1  0  0  0
 31 28  1  0  0  0
  9 10  1  0  0  0
 28 27  1  0  0  0
 13 24  1  0  0  0
 27  3  1  0  0  0
 27 26  2  0  0  0
  2  3  2  0  0  0
  2  1  1  0  0  0
 24 23  1  0  0  0
 10  1  1  0  0  0
  3  4  1  0  0  0
  1  6  2  0  0  0
  4  5  2  0  0  0
  6  5  1  0  0  0
  6  7  1  0  0  0
 14 19  1  0  0  0
  7  8  1  0  0  0
 10 12  1  0  0  0
M  END
> <minimizedAffinity>
-6.77019

$$$$
4LYW_21Q_A_1001


 32 33  0  0  0  0  0  0  0  0999 V2000
    3.4663    4.8880   19.9869 C   0  0  0  0  0  0  0  0  0  0  0  0
    3.4043    3.9016   20.9588 C   0  0  0  0  0  0  0  0  0  0  0  0
    2.9020    2.6559   20.5938 C   0  0  0  0  0  0  0  0  0  0  0  0
    2.4776    2.3809   19.3066 C   0  0  0  0  0  0  0  0  0  0  0  0
    2.5405    3.3668   18.3471 C   0  0  0  0  0  0  0  0  0  0  0  0
    3.0335    4.6019   18.7082 C   0  0  0  0  0  0  0  0  0  0  0  0
    3.1098    5.6109   17.7656 O   0  0  0  0  0  0  0  0  0  0  0  0
    3.4442    6.4525   18.0062 H   0  0  0  0  0  0  0  0  0  0  0  0
    4.8870    6.5447   21.1071 C   0  0  0  0  0  0  0  0  0  0  0  0
    3.9393    6.2110   20.1713 N   0  0  0  0  0  0  0  0  0  0  0  0
    5.2951    5.7708   21.9515 O   0  0  0  0  0  0  0  0  0  0  0  0
    3.5711    6.9245   19.6016 H   0  0  0  0  0  0  0  0  0  0  0  0
    4.9485    9.0808   21.6257 C   0  0  0  0  0  0  0  0  0  0  0  0
    6.4629    8.1799   20.2832 N   0  0  0  0  0  0  0  0  0  0  0  0
    5.3700    7.8907   21.0500 C   0  0  0  0  0  0  0  0  0  0  0  0
    5.8317   10.1015   21.1914 C   0  0  0  0  0  0  0  0  0  0  0  0
    6.7621    9.5071   20.3515 C   0  0  0  0  0  0  0  0  0  0  0  0
    7.9245   10.0280   19.5808 C   0  0  0  0  0  0  0  0  0  0  0  0
    6.9655    7.5195   19.7537 H   0  0  0  0  0  0  0  0  0  0  0  0
    5.8328   11.5111   21.4835 C   0  0  0  0  0  0  0  0  0  0  0  0
    6.7060   12.0448   22.1567 O   0  0  0  0  0  0  0  0  0  0  0  0
    4.7494   12.3371   20.8836 C   0  0  0  0  0  0  0  0  0  0  0  0
    4.1811    8.8772   23.9599 C   0  0  0  0  0  0  0  0  0  0  0  0
    3.7936    9.2463   22.5346 C   0  0  0  0  0  0  0  0  0  0  0  0
    1.9127    0.2187   21.2106 O   0  0  0  0  0  0  0  0  0  0  0  0
    4.1131    1.0169   22.2213 O   0  0  0  0  0  0  0  0  0  0  0  0
    2.7624    1.2738   21.7397 S   0  0  0  0  0  0  0  0  0  0  0  0
    1.8537    2.1229   22.9183 N   0  0  0  0  0  0  0  0  0  0  0  0
    0.4035    1.8225   22.9911 C   0  0  0  0  0  0  0  0  0  0  0  0
   -0.3951    2.8792   22.2551 C   0  0  0  0  0  0  0  0  0  0  0  0
    2.4960    2.3046   24.2382 C   0  0  0  0  0  0  0  0  0  0  0  0
    2.6209    3.7881   24.5119 C   0  0  0  0  0  0  0  0  0  0  0  0
 18 17  1  0  0  0
 30 29  1  0  0  0
 17 14  1  0  0  0
 17 16  2  0  0  0
 14 15  1  0  0  0
 25 27  2  0  0  0
 29 28  1  0  0  0
 11  9  2  0  0  0
 21 20  2  0  0  0
 16 20  1  0  0  0
 16 13  1  0  0  0
 20 22  1  0  0  0
 15  9  1  0  0  0
 15 13  2  0  0  0
 32 31  1  0  0  0
 31 28  1  0  0  0
  9 10  1  0  0  0
 28 27  1  0  0  0
 13 24  1  0  0  0
 27  3  1  0  0  0
 27 26  2  0  0  0
  2  3  2  0  0  0
  2  1  1  0  0  0
 24 23  1  0  0  0
 10  1  1  0  0  0
  3  4  1  0  0  0
  1  6  2  0  0  0
  4  5  2  0  0  0
  6  5  1  0  0  0
  6  7  1  0  0  0
 14 19  1  0  0  0
  7  8  1  0  0  0
 10 12  1  0  0  0
M  END
> <minimizedAffinity>
-6.66410

$$$$
4LYW_21Q_A_1001


 32 33  0  0  0  0  0  0  0  0999 V2000
    3.3832    4.9235   20.1057 C   0  0  0  0  0  0  0  0  0  0  0  0
    3.2119    3.9890   21.1149 C   0  0  0  0  0  0  0  0  0  0  0  0
    2.7057    2.7394   20.7688 C   0  0  0  0  0  0  0  0  0  0  0  0
    2.3820    2.4109   19.4650 C   0  0  0  0  0  0  0  0  0  0  0  0
    2.5531    3.3457   18.4682 C   0  0  0  0  0  0  0  0  0  0  0  0
    3.0500    4.5846   18.8101 C   0  0  0  0  0  0  0  0  0  0  0  0
    3.2337    5.5429   17.8301 O   0  0  0  0  0  0  0  0  0  0  0  0
    3.5714    6.3869   18.0576 H   0  0  0  0  0  0  0  0  0  0  0  0
    4.8685    6.5677   21.1586 C   0  0  0  0  0  0  0  0  0  0  0  0
    3.8775    6.2419   20.2659 N   0  0  0  0  0  0  0  0  0  0  0  0
    5.3050    5.7913   21.9864 O   0  0  0  0  0  0  0  0  0  0  0  0
    3.4922    6.9580   19.7109 H   0  0  0  0  0  0  0  0  0  0  0  0
    4.9581    9.1100   21.6408 C   0  0  0  0  0  0  0  0  0  0  0  0
    6.4488    8.1772   20.2936 N   0  0  0  0  0  0  0  0  0  0  0  0
    5.3625    7.9083   21.0770 C   0  0  0  0  0  0  0  0  0  0  0  0
    5.8450   10.1167   21.1820 C   0  0  0  0  0  0  0  0  0  0  0  0
    6.7603    9.5025   20.3398 C   0  0  0  0  0  0  0  0  0  0  0  0
    7.9180   10.0024   19.5484 C   0  0  0  0  0  0  0  0  0  0  0  0
    6.9394    7.5050   19.7676 H   0  0  0  0  0  0  0  0  0  0  0  0
    5.8618   11.5302   21.4543 C   0  0  0  0  0  0  0  0  0  0  0  0
    6.7093   12.0550   22.1662 O   0  0  0  0  0  0  0  0  0  0  0  0
    4.8308   12.3703   20.7855 C   0  0  0  0  0  0  0  0  0  0  0  0
    4.2702    9.1675   24.0077 C   0  0  0  0  0  0  0  0  0  0  0  0
    3.8154    9.2984   22.5607 C   0  0  0  0  0  0  0  0  0  0  0  0
    3.1223    1.6765   23.2174 O   0  0  0  0  0  0  0  0  0  0  0  0
    1.0066    1.1214   21.9076 O   0  0  0  0  0  0  0  0  0  0  0  0
    2.4313    1.4204   21.9636 S   0  0  0  0  0  0  0  0  0  0  0  0
    3.3299    0.2339   21.1146 N   0  0  0  0  0  0  0  0  0  0  0  0
    4.7857    0.1720   21.3892 C   0  0  0  0  0  0  0  0  0  0  0  0
    5.5763    0.4597   20.1290 C   0  0  0  0  0  0  0  0  0  0  0  0
    2.6906   -1.0912   20.9633 C   0  0  0  0  0  0  0  0  0  0  0  0
    2.2937   -1.2709   19.5136 C   0  0  0  0  0  0  0  0  0  0  0  0
 18 17  1  0  0  0
 30 29  1  0  0  0
 17 14  1  0  0  0
 17 16  2  0  0  0
 14 15  1  0  0  0
 25 27  2  0  0  0
 29 28  1  0  0  0
 11  9  2  0  0  0
 21 20  2  0  0  0
 16 20  1  0  0  0
 16 13  1  0  0  0
 20 22  1  0  0  0
 15  9  1  0  0  0
 15 13  2  0  0  0
 32 31  1  0  0  0
 31 28  1  0  0  0
  9 10  1  0  0  0
 28 27  1  0  0  0
 13 24  1  0  0  0
 27  3  1  0  0  0
 27 26  2  0  0  0
  2  3  2  0  0  0
  2  1  1  0  0  0
 24 23  1  0  0  0
 10  1  1  0  0  0
  3  4  1  0  0  0
  1  6  2  0  0  0
  4  5  2  0  0  0
  6  5  1  0  0  0
  6  7  1  0  0  0
 14 19  1  0  0  0
  7  8  1  0  0  0
 10 12  1  0  0  0
M  END
> <minimizedAffinity>
-6.65695

$$$$
4LYW_21Q_A_1001


 32 33  0  0  0  0  0  0  0  0999 V2000
    5.2175    7.0713   21.3577 C   0  0  0  0  0  0  0  0  0  0  0  0
    4.9251    7.5498   22.6253 C   0  0  0  0  0  0  0  0  0  0  0  0
    4.1889    6.7325   23.4781 C   0  0  0  0  0  0  0  0  0  0  0  0
    3.7558    5.4744   23.1010 C   0  0  0  0  0  0  0  0  0  0  0  0
    4.0485    5.0068   21.8391 C   0  0  0  0  0  0  0  0  0  0  0  0
    4.7736    5.8168   20.9922 C   0  0  0  0  0  0  0  0  0  0  0  0
    5.0837    5.3734   19.7196 O   0  0  0  0  0  0  0  0  0  0  0  0
    5.5765    5.9204   19.1400 H   0  0  0  0  0  0  0  0  0  0  0  0
    6.4279    9.0335   20.5195 C   0  0  0  0  0  0  0  0  0  0  0  0
    5.9464    7.7583   20.3552 N   0  0  0  0  0  0  0  0  0  0  0  0
    6.1508    9.7357   21.4727 O   0  0  0  0  0  0  0  0  0  0  0  0
    6.1154    7.2995   19.5007 H   0  0  0  0  0  0  0  0  0  0  0  0
    7.9611   10.7075   19.2740 C   0  0  0  0  0  0  0  0  0  0  0  0
    7.5311    8.7209   18.3932 N   0  0  0  0  0  0  0  0  0  0  0  0
    7.2801    9.5154   19.4757 C   0  0  0  0  0  0  0  0  0  0  0  0
    8.6451   10.6043   18.0362 C   0  0  0  0  0  0  0  0  0  0  0  0
    8.3522    9.3546   17.5101 C   0  0  0  0  0  0  0  0  0  0  0  0
    8.7459    8.6544   16.2566 C   0  0  0  0  0  0  0  0  0  0  0  0
    7.1682    7.8143   18.2684 H   0  0  0  0  0  0  0  0  0  0  0  0
    9.4806   11.5601   17.3575 C   0  0  0  0  0  0  0  0  0  0  0  0
   10.5805   11.8934   17.7814 O   0  0  0  0  0  0  0  0  0  0  0  0
    8.9876   12.1055   16.0631 C   0  0  0  0  0  0  0  0  0  0  0  0
    6.8013   12.7911   19.9001 C   0  0  0  0  0  0  0  0  0  0  0  0
    7.9756   11.8671   20.1918 C   0  0  0  0  0  0  0  0  0  0  0  0
    2.6241    8.1495   25.1641 O   0  0  0  0  0  0  0  0  0  0  0  0
    3.7169    5.9768   25.9292 O   0  0  0  0  0  0  0  0  0  0  0  0
    3.7342    7.2099   25.1538 S   0  0  0  0  0  0  0  0  0  0  0  0
    5.1638    8.1002   25.4694 N   0  0  0  0  0  0  0  0  0  0  0  0
    5.0351    9.5762   25.5280 C   0  0  0  0  0  0  0  0  0  0  0  0
    5.7259   10.1208   26.7618 C   0  0  0  0  0  0  0  0  0  0  0  0
    6.0782    7.5365   26.4861 C   0  0  0  0  0  0  0  0  0  0  0  0
    7.2339    6.8661   25.7745 C   0  0  0  0  0  0  0  0  0  0  0  0
 18 17  1  0  0  0
 30 29  1  0  0  0
 17 14  1  0  0  0
 17 16  2  0  0  0
 14 15  1  0  0  0
 25 27  2  0  0  0
 29 28  1  0  0  0
 11  9  2  0  0  0
 21 20  2  0  0  0
 16 20  1  0  0  0
 16 13  1  0  0  0
 20 22  1  0  0  0
 15  9  1  0  0  0
 15 13  2  0  0  0
 32 31  1  0  0  0
 31 28  1  0  0  0
  9 10  1  0  0  0
 28 27  1  0  0  0
 13 24  1  0  0  0
 27  3  1  0  0  0
 27 26  2  0  0  0
  2  3  2  0  0  0
  2  1  1  0  0  0
 24 23  1  0  0  0
 10  1  1  0  0  0
  3  4  1  0  0  0
  1  6  2  0  0  0
  4  5  2  0  0  0
  6  5  1  0  0  0
  6  7  1  0  0  0
 14 19  1  0  0  0
  7  8  1  0  0  0
 10 12  1  0  0  0
M  END
> <minimizedAffinity>
-6.57349

$$$$
4LYW_21Q_A_1001


 32 33  0  0  0  0  0  0  0  0999 V2000
    5.1031    6.9437   21.7648 C   0  0  0  0  0  0  0  0  0  0  0  0
    4.6856    5.6282   21.6371 C   0  0  0  0  0  0  0  0  0  0  0  0
    4.2680    5.1945   20.3821 C   0  0  0  0  0  0  0  0  0  0  0  0
    4.2663    6.0269   19.2778 C   0  0  0  0  0  0  0  0  0  0  0  0
    4.6806    7.3334   19.4132 C   0  0  0  0  0  0  0  0  0  0  0  0
    5.0902    7.7653   20.6561 C   0  0  0  0  0  0  0  0  0  0  0  0
    5.5129    9.0715   20.8220 O   0  0  0  0  0  0  0  0  0  0  0  0
    5.7923    9.3700   21.6651 H   0  0  0  0  0  0  0  0  0  0  0  0
    4.7032    8.0461   23.9195 C   0  0  0  0  0  0  0  0  0  0  0  0
    5.5547    7.5628   22.9569 N   0  0  0  0  0  0  0  0  0  0  0  0
    3.4984    8.1181   23.7721 O   0  0  0  0  0  0  0  0  0  0  0  0
    6.5245    7.6504   23.1017 H   0  0  0  0  0  0  0  0  0  0  0  0
    5.1950    9.6368   25.9025 C   0  0  0  0  0  0  0  0  0  0  0  0
    6.2654    7.7049   25.7304 N   0  0  0  0  0  0  0  0  0  0  0  0
    5.3226    8.4907   25.1306 C   0  0  0  0  0  0  0  0  0  0  0  0
    6.0848    9.5139   26.9996 C   0  0  0  0  0  0  0  0  0  0  0  0
    6.7408    8.2995   26.8601 C   0  0  0  0  0  0  0  0  0  0  0  0
    7.7831    7.6017   27.6620 C   0  0  0  0  0  0  0  0  0  0  0  0
    6.5608    6.8287   25.3925 H   0  0  0  0  0  0  0  0  0  0  0  0
    6.3508   10.4242   28.0827 C   0  0  0  0  0  0  0  0  0  0  0  0
    7.2247   11.2806   28.0253 O   0  0  0  0  0  0  0  0  0  0  0  0
    5.4766   10.3351   29.2843 C   0  0  0  0  0  0  0  0  0  0  0  0
    4.8791   11.6839   24.5653 C   0  0  0  0  0  0  0  0  0  0  0  0
    4.2867   10.7719   25.6307 C   0  0  0  0  0  0  0  0  0  0  0  0
    3.1240    3.3912   18.7273 O   0  0  0  0  0  0  0  0  0  0  0  0
    4.7651    2.6384   20.5274 O   0  0  0  0  0  0  0  0  0  0  0  0
    3.7025    3.5163   20.0558 S   0  0  0  0  0  0  0  0  0  0  0  0
    2.4084    3.5530   21.1783 N   0  0  0  0  0  0  0  0  0  0  0  0
    1.0422    3.7016   20.6216 C   0  0  0  0  0  0  0  0  0  0  0  0
    0.2952    2.3850   20.6894 C   0  0  0  0  0  0  0  0  0  0  0  0
    2.4950    2.6074   22.3123 C   0  0  0  0  0  0  0  0  0  0  0  0
    2.4533    3.3985   23.6022 C   0  0  0  0  0  0  0  0  0  0  0  0
 18 17  1  0  0  0
 30 29  1  0  0  0
 17 14  1  0  0  0
 17 16  2  0  0  0
 14 15  1  0  0  0
 25 27  2  0  0  0
 29 28  1  0  0  0
 11  9  2  0  0  0
 21 20  2  0  0  0
 16 20  1  0  0  0
 16 13  1  0  0  0
 20 22  1  0  0  0
 15  9  1  0  0  0
 15 13  2  0  0  0
 32 31  1  0  0  0
 31 28  1  0  0  0
  9 10  1  0  0  0
 28 27  1  0  0  0
 13 24  1  0  0  0
 27  3  1  0  0  0
 27 26  2  0  0  0
  2  3  2  0  0  0
  2  1  1  0  0  0
 24 23  1  0  0  0
 10  1  1  0  0  0
  3  4  1  0  0  0
  1  6  2  0  0  0
  4  5  2  0  0  0
  6  5  1  0  0  0
  6  7  1  0  0  0
 14 19  1  0  0  0
  7  8  1  0  0  0
 10 12  1  0  0  0
M  END
> <minimizedAffinity>
-6.57070

$$$$
4LYW_21Q_A_1001


 32 33  0  0  0  0  0  0  0  0999 V2000
    3.5352    5.1809   22.5461 C   0  0  0  0  0  0  0  0  0  0  0  0
    3.1130    4.3117   21.5523 C   0  0  0  0  0  0  0  0  0  0  0  0
    2.4279    3.1628   21.9372 C   0  0  0  0  0  0  0  0  0  0  0  0
    2.1567    2.8760   23.2626 C   0  0  0  0  0  0  0  0  0  0  0  0
    2.5812    3.7435   24.2444 C   0  0  0  0  0  0  0  0  0  0  0  0
    3.2634    4.8791   23.8650 C   0  0  0  0  0  0  0  0  0  0  0  0
    3.7007    5.7692   24.8288 O   0  0  0  0  0  0  0  0  0  0  0  0
    4.1651    6.5428   24.5758 H   0  0  0  0  0  0  0  0  0  0  0  0
    4.8399    6.7246   21.1560 C   0  0  0  0  0  0  0  0  0  0  0  0
    4.2474    6.3899   22.3485 N   0  0  0  0  0  0  0  0  0  0  0  0
    4.9317    5.9586   20.2162 O   0  0  0  0  0  0  0  0  0  0  0  0
    4.3208    7.0196   23.1017 H   0  0  0  0  0  0  0  0  0  0  0  0
    4.9975    9.2652   21.6300 C   0  0  0  0  0  0  0  0  0  0  0  0
    6.4835    8.2820   20.3138 N   0  0  0  0  0  0  0  0  0  0  0  0
    5.3755    8.0494   21.0783 C   0  0  0  0  0  0  0  0  0  0  0  0
    5.9226   10.2427   21.1836 C   0  0  0  0  0  0  0  0  0  0  0  0
    6.8341    9.5975   20.3606 C   0  0  0  0  0  0  0  0  0  0  0  0
    8.0205   10.0587   19.5887 C   0  0  0  0  0  0  0  0  0  0  0  0
    6.9631    7.5930   19.7994 H   0  0  0  0  0  0  0  0  0  0  0  0
    5.9772   11.6562   21.4508 C   0  0  0  0  0  0  0  0  0  0  0  0
    6.8905   12.1736   22.0822 O   0  0  0  0  0  0  0  0  0  0  0  0
    4.8978   12.5054   20.8764 C   0  0  0  0  0  0  0  0  0  0  0  0
    4.3095    9.6001   23.9737 C   0  0  0  0  0  0  0  0  0  0  0  0
    3.8445    9.4920   22.5281 C   0  0  0  0  0  0  0  0  0  0  0  0
    2.8896    1.1368   20.2107 O   0  0  0  0  0  0  0  0  0  0  0  0
    0.6386    1.3462   21.3895 O   0  0  0  0  0  0  0  0  0  0  0  0
    1.8127    1.9415   20.7656 S   0  0  0  0  0  0  0  0  0  0  0  0
    1.3490    3.0755   19.5676 N   0  0  0  0  0  0  0  0  0  0  0  0
    2.0824    3.0278   18.2798 C   0  0  0  0  0  0  0  0  0  0  0  0
    2.5750    4.4090   17.8980 C   0  0  0  0  0  0  0  0  0  0  0  0
   -0.1021    3.3227   19.4233 C   0  0  0  0  0  0  0  0  0  0  0  0
   -0.6115    2.5213   18.2445 C   0  0  0  0  0  0  0  0  0  0  0  0
 18 17  1  0  0  0
 30 29  1  0  0  0
 17 14  1  0  0  0
 17 16  2  0  0  0
 14 15  1  0  0  0
 25 27  2  0  0  0
 29 28  1  0  0  0
 11  9  2  0  0  0
 21 20  2  0  0  0
 16 20  1  0  0  0
 16 13  1  0  0  0
 20 22  1  0  0  0
 15  9  1  0  0  0
 15 13  2  0  0  0
 32 31  1  0  0  0
 31 28  1  0  0  0
  9 10  1  0  0  0
 28 27  1  0  0  0
 13 24  1  0  0  0
 27  3  1  0  0  0
 27 26  2  0  0  0
  2  3  2  0  0  0
  2  1  1  0  0  0
 24 23  1  0  0  0
 10  1  1  0  0  0
  3  4  1  0  0  0
  1  6  2  0  0  0
  4  5  2  0  0  0
  6  5  1  0  0  0
  6  7  1  0  0  0
 14 19  1  0  0  0
  7  8  1  0  0  0
 10 12  1  0  0  0
M  END
> <minimizedAffinity>
-6.44968

$$$$
4LYW_21Q_A_1001


 32 33  0  0  0  0  0  0  0  0999 V2000
    5.0193    6.3052   21.4712 C   0  0  0  0  0  0  0  0  0  0  0  0
    5.0785    6.6994   22.7987 C   0  0  0  0  0  0  0  0  0  0  0  0
    5.1729    8.0610   23.0720 C   0  0  0  0  0  0  0  0  0  0  0  0
    5.2012    9.0134   22.0698 C   0  0  0  0  0  0  0  0  0  0  0  0
    5.1440    8.6136   20.7531 C   0  0  0  0  0  0  0  0  0  0  0  0
    5.0551    7.2657   20.4810 C   0  0  0  0  0  0  0  0  0  0  0  0
    4.9947    6.8347   19.1683 O   0  0  0  0  0  0  0  0  0  0  0  0
    4.9342    5.9193   18.9781 H   0  0  0  0  0  0  0  0  0  0  0  0
    3.7735    4.2307   21.0681 C   0  0  0  0  0  0  0  0  0  0  0  0
    4.9277    4.9714   21.0012 N   0  0  0  0  0  0  0  0  0  0  0  0
    2.7774    4.5961   21.6620 O   0  0  0  0  0  0  0  0  0  0  0  0
    5.7293    4.5564   20.6083 H   0  0  0  0  0  0  0  0  0  0  0  0
    2.9833    2.3554   19.4672 C   0  0  0  0  0  0  0  0  0  0  0  0
    4.8148    2.0851   20.6836 N   0  0  0  0  0  0  0  0  0  0  0  0
    3.8081    2.9645   20.4021 C   0  0  0  0  0  0  0  0  0  0  0  0
    3.5315    1.0794   19.1811 C   0  0  0  0  0  0  0  0  0  0  0  0
    4.6711    0.9400   19.9599 C   0  0  0  0  0  0  0  0  0  0  0  0
    5.6703   -0.1512   20.1247 C   0  0  0  0  0  0  0  0  0  0  0  0
    5.5445    2.2556   21.3221 H   0  0  0  0  0  0  0  0  0  0  0  0
    3.0608    0.0467   18.2955 C   0  0  0  0  0  0  0  0  0  0  0  0
    3.2954    0.0509   17.0933 O   0  0  0  0  0  0  0  0  0  0  0  0
    2.3105   -1.0874   18.9013 C   0  0  0  0  0  0  0  0  0  0  0  0
    2.1218    3.8645   17.7181 C   0  0  0  0  0  0  0  0  0  0  0  0
    1.7617    2.9401   18.8729 C   0  0  0  0  0  0  0  0  0  0  0  0
    6.0782    7.9054   25.6127 O   0  0  0  0  0  0  0  0  0  0  0  0
    5.4735   10.1609   24.5893 O   0  0  0  0  0  0  0  0  0  0  0  0
    5.2539    8.7289   24.7424 S   0  0  0  0  0  0  0  0  0  0  0  0
    3.6163    8.4086   25.1319 N   0  0  0  0  0  0  0  0  0  0  0  0
    3.3623    7.3686   26.1578 C   0  0  0  0  0  0  0  0  0  0  0  0
    2.6258    6.1921   25.5500 C   0  0  0  0  0  0  0  0  0  0  0  0
    2.7231    9.5831   25.2337 C   0  0  0  0  0  0  0  0  0  0  0  0
    1.9281    9.6953   23.9504 C   0  0  0  0  0  0  0  0  0  0  0  0
 18 17  1  0  0  0
 30 29  1  0  0  0
 17 14  1  0  0  0
 17 16  2  0  0  0
 14 15  1  0  0  0
 25 27  2  0  0  0
 29 28  1  0  0  0
 11  9  2  0  0  0
 21 20  2  0  0  0
 16 20  1  0  0  0
 16 13  1  0  0  0
 20 22  1  0  0  0
 15  9  1  0  0  0
 15 13  2  0  0  0
 32 31  1  0  0  0
 31 28  1  0  0  0
  9 10  1  0  0  0
 28 27  1  0  0  0
 13 24  1  0  0  0
 27  3  1  0  0  0
 27 26  2  0  0  0
  2  3  2  0  0  0
  2  1  1  0  0  0
 24 23  1  0  0  0
 10  1  1  0  0  0
  3  4  1  0  0  0
  1  6  2  0  0  0
  4  5  2  0  0  0
  6  5  1  0  0  0
  6  7  1  0  0  0
 14 19  1  0  0  0
  7  8  1  0  0  0
 10 12  1  0  0  0
M  END
> <minimizedAffinity>
-6.32973

$$$$
4LYW_21Q_A_1001


 32 33  0  0  0  0  0  0  0  0999 V2000
    4.4867    5.6306   20.9834 C   0  0  0  0  0  0  0  0  0  0  0  0
    4.3171    5.9872   22.3121 C   0  0  0  0  0  0  0  0  0  0  0  0
    4.5477    7.3133   22.6669 C   0  0  0  0  0  0  0  0  0  0  0  0
    4.9280    8.2681   21.7416 C   0  0  0  0  0  0  0  0  0  0  0  0
    5.0964    7.9055   20.4237 C   0  0  0  0  0  0  0  0  0  0  0  0
    4.8728    6.5921   20.0718 C   0  0  0  0  0  0  0  0  0  0  0  0
    5.0328    6.1991   18.7557 O   0  0  0  0  0  0  0  0  0  0  0  0
    4.8819    5.3072   18.5114 H   0  0  0  0  0  0  0  0  0  0  0  0
    3.0725    3.8256   20.1117 C   0  0  0  0  0  0  0  0  0  0  0  0
    4.3049    4.3352   20.4385 N   0  0  0  0  0  0  0  0  0  0  0  0
    2.0251    4.3758   20.3924 O   0  0  0  0  0  0  0  0  0  0  0  0
    5.0996    3.7742   20.2870 H   0  0  0  0  0  0  0  0  0  0  0  0
    2.3742    2.0746   18.3367 C   0  0  0  0  0  0  0  0  0  0  0  0
    3.9134    1.5761   19.8499 N   0  0  0  0  0  0  0  0  0  0  0  0
    3.0813    2.5715   19.4223 C   0  0  0  0  0  0  0  0  0  0  0  0
    2.8153    0.7458   18.1120 C   0  0  0  0  0  0  0  0  0  0  0  0
    3.7722    0.4640   19.0760 C   0  0  0  0  0  0  0  0  0  0  0  0
    4.5938   -0.7395   19.3808 C   0  0  0  0  0  0  0  0  0  0  0  0
    4.5307    1.6521   20.6131 H   0  0  0  0  0  0  0  0  0  0  0  0
    2.3967   -0.2142   17.1243 C   0  0  0  0  0  0  0  0  0  0  0  0
    1.4218   -0.9393   17.2805 O   0  0  0  0  0  0  0  0  0  0  0  0
    3.1636   -0.2661   15.8495 C   0  0  0  0  0  0  0  0  0  0  0  0
   -0.0383    2.5240   18.0993 C   0  0  0  0  0  0  0  0  0  0  0  0
    1.3548    2.8062   17.5539 C   0  0  0  0  0  0  0  0  0  0  0  0
    3.2890    7.2565   25.0567 O   0  0  0  0  0  0  0  0  0  0  0  0
    5.7155    8.0208   24.8890 O   0  0  0  0  0  0  0  0  0  0  0  0
    4.3656    7.9308   24.3486 S   0  0  0  0  0  0  0  0  0  0  0  0
    3.7922    9.4813   23.8979 N   0  0  0  0  0  0  0  0  0  0  0  0
    2.3284    9.6266   23.7115 C   0  0  0  0  0  0  0  0  0  0  0  0
    1.7334   10.4715   24.8197 C   0  0  0  0  0  0  0  0  0  0  0  0
    4.4301   10.6373   24.5645 C   0  0  0  0  0  0  0  0  0  0  0  0
    5.2616   11.3829   23.5427 C   0  0  0  0  0  0  0  0  0  0  0  0
 18 17  1  0  0  0
 30 29  1  0  0  0
 17 14  1  0  0  0
 17 16  2  0  0  0
 14 15  1  0  0  0
 25 27  2  0  0  0
 29 28  1  0  0  0
 11  9  2  0  0  0
 21 20  2  0  0  0
 16 20  1  0  0  0
 16 13  1  0  0  0
 20 22  1  0  0  0
 15  9  1  0  0  0
 15 13  2  0  0  0
 32 31  1  0  0  0
 31 28  1  0  0  0
  9 10  1  0  0  0
 28 27  1  0  0  0
 13 24  1  0  0  0
 27  3  1  0  0  0
 27 26  2  0  0  0
  2  3  2  0  0  0
  2  1  1  0  0  0
 24 23  1  0  0  0
 10  1  1  0  0  0
  3  4  1  0  0  0
  1  6  2  0  0  0
  4  5  2  0  0  0
  6  5  1  0  0  0
  6  7  1  0  0  0
 14 19  1  0  0  0
  7  8  1  0  0  0
 10 12  1  0  0  0
M  END
> <minimizedAffinity>
-6.06079

$$$$
4LYW_21Q_A_1001


 32 33  0  0  0  0  0  0  0  0999 V2000
    3.1149    4.0179   19.6664 C   0  0  0  0  0  0  0  0  0  0  0  0
    3.2272    2.7477   20.2098 C   0  0  0  0  0  0  0  0  0  0  0  0
    2.8075    1.6678   19.4382 C   0  0  0  0  0  0  0  0  0  0  0  0
    2.2972    1.8278   18.1628 C   0  0  0  0  0  0  0  0  0  0  0  0
    2.1869    3.0933   17.6307 C   0  0  0  0  0  0  0  0  0  0  0  0
    2.5978    4.1635   18.3953 C   0  0  0  0  0  0  0  0  0  0  0  0
    2.5003    5.4458   17.8867 O   0  0  0  0  0  0  0  0  0  0  0  0
    2.7784    6.1768   18.4027 H   0  0  0  0  0  0  0  0  0  0  0  0
    4.7519    5.4819   20.7594 C   0  0  0  0  0  0  0  0  0  0  0  0
    3.4826    5.2309   20.3002 N   0  0  0  0  0  0  0  0  0  0  0  0
    5.6290    4.6406   20.7955 O   0  0  0  0  0  0  0  0  0  0  0  0
    2.7955    5.9263   20.4167 H   0  0  0  0  0  0  0  0  0  0  0  0
    4.5489    7.5362   22.3224 C   0  0  0  0  0  0  0  0  0  0  0  0
    5.8039    7.6411   20.5000 N   0  0  0  0  0  0  0  0  0  0  0  0
    4.9927    6.8140   21.2238 C   0  0  0  0  0  0  0  0  0  0  0  0
    5.1293    8.8277   22.2471 C   0  0  0  0  0  0  0  0  0  0  0  0
    5.9028    8.8620   21.0961 C   0  0  0  0  0  0  0  0  0  0  0  0
    6.7438    9.9127   20.4596 C   0  0  0  0  0  0  0  0  0  0  0  0
    6.2552    7.3893   19.6620 H   0  0  0  0  0  0  0  0  0  0  0  0
    4.9858    9.9600   23.1245 C   0  0  0  0  0  0  0  0  0  0  0  0
    4.4448   11.0017   22.7744 O   0  0  0  0  0  0  0  0  0  0  0  0
    5.4725    9.8102   24.5234 C   0  0  0  0  0  0  0  0  0  0  0  0
    4.4264    6.2570   24.4265 C   0  0  0  0  0  0  0  0  0  0  0  0
    3.6437    7.0401   23.3816 C   0  0  0  0  0  0  0  0  0  0  0  0
    1.6370   -0.4782   20.5885 O   0  0  0  0  0  0  0  0  0  0  0  0
    3.5530   -0.7799   18.9337 O   0  0  0  0  0  0  0  0  0  0  0  0
    2.8936   -0.0403   20.0016 S   0  0  0  0  0  0  0  0  0  0  0  0
    3.9841    0.2612   21.2884 N   0  0  0  0  0  0  0  0  0  0  0  0
    3.5414   -0.1308   22.6481 C   0  0  0  0  0  0  0  0  0  0  0  0
    3.3819    1.0926   23.5278 C   0  0  0  0  0  0  0  0  0  0  0  0
    5.4117   -0.0162   21.0187 C   0  0  0  0  0  0  0  0  0  0  0  0
    5.8255   -1.2310   21.8215 C   0  0  0  0  0  0  0  0  0  0  0  0
 18 17  1  0  0  0
 30 29  1  0  0  0
 17 14  1  0  0  0
 17 16  2  0  0  0
 14 15  1  0  0  0
 25 27  2  0  0  0
 29 28  1  0  0  0
 11  9  2  0  0  0
 21 20  2  0  0  0
 16 20  1  0  0  0
 16 13  1  0  0  0
 20 22  1  0  0  0
 15  9  1  0  0  0
 15 13  2  0  0  0
 32 31  1  0  0  0
 31 28  1  0  0  0
  9 10  1  0  0  0
 28 27  1  0  0  0
 13 24  1  0  0  0
 27  3  1  0  0  0
 27 26  2  0  0  0
  2  3  2  0  0  0
  2  1  1  0  0  0
 24 23  1  0  0  0
 10  1  1  0  0  0
  3  4  1  0  0  0
  1  6  2  0  0  0
  4  5  2  0  0  0
  6  5  1  0  0  0
  6  7  1  0  0  0
 14 19  1  0  0  0
  7  8  1  0  0  0
 10 12  1  0  0  0
M  END
> <minimizedAffinity>
-5.93386

$$$$
4LYW_21Q_A_1001


 32 33  0  0  0  0  0  0  0  0999 V2000
    4.5583    5.5735   21.0908 C   0  0  0  0  0  0  0  0  0  0  0  0
    4.4090    5.9852   22.4059 C   0  0  0  0  0  0  0  0  0  0  0  0
    4.6000    7.3335   22.6938 C   0  0  0  0  0  0  0  0  0  0  0  0
    4.9223    8.2572   21.7163 C   0  0  0  0  0  0  0  0  0  0  0  0
    5.0710    7.8400   20.4123 C   0  0  0  0  0  0  0  0  0  0  0  0
    4.8865    6.5046   20.1266 C   0  0  0  0  0  0  0  0  0  0  0  0
    5.0278    6.0569   18.8258 O   0  0  0  0  0  0  0  0  0  0  0  0
    4.9034    5.1498   18.6265 H   0  0  0  0  0  0  0  0  0  0  0  0
    3.1889    3.6792   20.3463 C   0  0  0  0  0  0  0  0  0  0  0  0
    4.4101    4.2486   20.6104 N   0  0  0  0  0  0  0  0  0  0  0  0
    2.1301    4.2024   20.6355 O   0  0  0  0  0  0  0  0  0  0  0  0
    5.2208    3.7111   20.4588 H   0  0  0  0  0  0  0  0  0  0  0  0
    3.7799    1.1739   20.0661 C   0  0  0  0  0  0  0  0  0  0  0  0
    2.6325    2.2318   18.4939 N   0  0  0  0  0  0  0  0  0  0  0  0
    3.2252    2.3960   19.7137 C   0  0  0  0  0  0  0  0  0  0  0  0
    3.4924    0.2578   19.0228 C   0  0  0  0  0  0  0  0  0  0  0  0
    2.7795    0.9505   18.0551 C   0  0  0  0  0  0  0  0  0  0  0  0
    2.2030    0.5655   16.7377 C   0  0  0  0  0  0  0  0  0  0  0  0
    2.1634    2.9422   17.9995 H   0  0  0  0  0  0  0  0  0  0  0  0
    3.8484   -1.1303   18.8850 C   0  0  0  0  0  0  0  0  0  0  0  0
    3.1814   -2.0342   19.3734 O   0  0  0  0  0  0  0  0  0  0  0  0
    5.0476   -1.4529   18.0640 C   0  0  0  0  0  0  0  0  0  0  0  0
    3.5614    0.5869   22.4507 C   0  0  0  0  0  0  0  0  0  0  0  0
    4.5251    0.8833   21.3101 C   0  0  0  0  0  0  0  0  0  0  0  0
    3.3695    7.3781   25.0986 O   0  0  0  0  0  0  0  0  0  0  0  0
    5.7936    8.1342   24.8701 O   0  0  0  0  0  0  0  0  0  0  0  0
    4.4375    8.0216   24.3500 S   0  0  0  0  0  0  0  0  0  0  0  0
    3.8584    9.5518   23.8409 N   0  0  0  0  0  0  0  0  0  0  0  0
    2.3928    9.6882   23.6621 C   0  0  0  0  0  0  0  0  0  0  0  0
    1.8039   10.5603   24.7524 C   0  0  0  0  0  0  0  0  0  0  0  0
    4.5011   10.7348   24.4533 C   0  0  0  0  0  0  0  0  0  0  0  0
    5.3432   11.4234   23.4006 C   0  0  0  0  0  0  0  0  0  0  0  0
 18 17  1  0  0  0
 30 29  1  0  0  0
 17 14  1  0  0  0
 17 16  2  0  0  0
 14 15  1  0  0  0
 25 27  2  0  0  0
 29 28  1  0  0  0
 11  9  2  0  0  0
 21 20  2  0  0  0
 16 20  1  0  0  0
 16 13  1  0  0  0
 20 22  1  0  0  0
 15  9  1  0  0  0
 15 13  2  0  0  0
 32 31  1  0  0  0
 31 28  1  0  0  0
  9 10  1  0  0  0
 28 27  1  0  0  0
 13 24  1  0  0  0
 27  3  1  0  0  0
 27 26  2  0  0  0
  2  3  2  0  0  0
  2  1  1  0  0  0
 24 23  1  0  0  0
 10  1  1  0  0  0
  3  4  1  0  0  0
  1  6  2  0  0  0
  4  5  2  0  0  0
  6  5  1  0  0  0
  6  7  1  0  0  0
 14 19  1  0  0  0
  7  8  1  0  0  0
 10 12  1  0  0  0
M  END
> <minimizedAffinity>
-5.83736

$$$$
