2FPZ_270_A_1000


 12 13  0  0  0  0  0  0  0  0999 V2000
   31.6442   20.9225   83.7045 N   0  0  0  0  0  0  0  0  0  0  0  0
   31.9843   21.8001   84.6817 C   0  0  0  0  0  0  0  0  0  0  0  0
   30.3128   20.8641   83.6519 C   0  0  0  0  0  0  0  0  0  0  0  0
   29.4219   20.1175   82.8231 C   0  0  0  0  0  0  0  0  0  0  0  0
   28.0039   20.2796   83.0138 C   0  0  0  0  0  0  0  0  0  0  0  0
   27.5085   21.1784   84.0233 C   0  0  0  0  0  0  0  0  0  0  0  0
   28.4192   21.9224   84.8490 C   0  0  0  0  0  0  0  0  0  0  0  0
   29.8257   21.7515   84.6452 C   0  0  0  0  0  0  0  0  0  0  0  0
   30.8798   22.3131   85.2641 N   0  0  0  0  0  0  0  0  0  0  0  0
   33.2497   22.1120   85.0194 N   0  0  0  0  0  0  0  0  0  0  0  0
   33.8976   21.5645   84.4530 H   0  0  0  0  0  0  0  0  0  0  0  0
   33.3998   21.9021   86.0063 H   0  0  0  0  0  0  0  0  0  0  0  0
  1  2  1  0  0  0
  1  3  2  0  0  0
  2  9  1  0  0  0
  2 10  1  0  0  0
  3  4  1  0  0  0
  3  8  1  0  0  0
  4  5  2  0  0  0
  5  6  1  0  0  0
  6  7  2  0  0  0
  7  8  1  0  0  0
  8  9  2  0  0  0
 10 11  1  0  0  0
 10 12  1  0  0  0
M  END
> <minimizedAffinity>
-5.72926

$$$$
2FPZ_270_A_1000


 12 13  0  0  0  0  0  0  0  0999 V2000
   30.9073   22.2592   85.2640 N   0  0  0  0  0  0  0  0  0  0  0  0
   32.0104   21.7439   84.6652 C   0  0  0  0  0  0  0  0  0  0  0  0
   29.8354   21.7398   84.6639 C   0  0  0  0  0  0  0  0  0  0  0  0
   28.4366   21.9233   84.8819 C   0  0  0  0  0  0  0  0  0  0  0  0
   27.5087   21.2013   84.0505 C   0  0  0  0  0  0  0  0  0  0  0  0
   27.9950   20.3169   83.0240 C   0  0  0  0  0  0  0  0  0  0  0  0
   29.4065   20.1437   82.8180 C   0  0  0  0  0  0  0  0  0  0  0  0
   30.3155   20.8670   83.6544 C   0  0  0  0  0  0  0  0  0  0  0  0
   31.6603   20.8913   83.6788 N   0  0  0  0  0  0  0  0  0  0  0  0
   33.2762   22.0451   85.0109 N   0  0  0  0  0  0  0  0  0  0  0  0
   33.2686   22.7370   85.7603 H   0  0  0  0  0  0  0  0  0  0  0  0
   33.7683   22.4251   84.2022 H   0  0  0  0  0  0  0  0  0  0  0  0
  1  2  1  0  0  0
  1  3  2  0  0  0
  2  9  1  0  0  0
  2 10  1  0  0  0
  3  4  1  0  0  0
  3  8  1  0  0  0
  4  5  2  0  0  0
  5  6  1  0  0  0
  6  7  2  0  0  0
  7  8  1  0  0  0
  8  9  2  0  0  0
 10 11  1  0  0  0
 10 12  1  0  0  0
M  END
> <minimizedAffinity>
-5.70608

$$$$
2FPZ_270_A_1000


 12 13  0  0  0  0  0  0  0  0999 V2000
   27.6910   21.7592   84.5835 N   0  0  0  0  0  0  0  0  0  0  0  0
   27.0857   20.9850   83.6481 C   0  0  0  0  0  0  0  0  0  0  0  0
   28.9997   21.5060   84.5399 C   0  0  0  0  0  0  0  0  0  0  0  0
   30.0984   22.0276   85.2874 C   0  0  0  0  0  0  0  0  0  0  0  0
   31.4228   21.5436   84.9953 C   0  0  0  0  0  0  0  0  0  0  0  0
   31.6204   20.5535   83.9690 C   0  0  0  0  0  0  0  0  0  0  0  0
   30.5033   20.0391   83.2261 C   0  0  0  0  0  0  0  0  0  0  0  0
   29.1937   20.5323   83.5272 C   0  0  0  0  0  0  0  0  0  0  0  0
   27.9952   20.2301   82.9961 N   0  0  0  0  0  0  0  0  0  0  0  0
   25.7609   20.9750   83.4081 N   0  0  0  0  0  0  0  0  0  0  0  0
   25.2932   21.6085   84.0563 H   0  0  0  0  0  0  0  0  0  0  0  0
   25.3993   20.0299   83.5358 H   0  0  0  0  0  0  0  0  0  0  0  0
  1  2  1  0  0  0
  1  3  2  0  0  0
  2  9  1  0  0  0
  2 10  1  0  0  0
  3  4  1  0  0  0
  3  8  1  0  0  0
  4  5  2  0  0  0
  5  6  1  0  0  0
  6  7  2  0  0  0
  7  8  1  0  0  0
  8  9  2  0  0  0
 10 11  1  0  0  0
 10 12  1  0  0  0
M  END
> <minimizedAffinity>
-5.64540

$$$$
2FPZ_270_A_1000


 12 13  0  0  0  0  0  0  0  0999 V2000
   28.0051   20.2325   83.0347 N   0  0  0  0  0  0  0  0  0  0  0  0
   27.0838   20.9932   83.6775 C   0  0  0  0  0  0  0  0  0  0  0  0
   29.2035   20.5255   83.5416 C   0  0  0  0  0  0  0  0  0  0  0  0
   30.5108   20.0334   83.2474 C   0  0  0  0  0  0  0  0  0  0  0  0
   31.6283   20.5590   83.9880 C   0  0  0  0  0  0  0  0  0  0  0  0
   31.4174   21.5603   85.0006 C   0  0  0  0  0  0  0  0  0  0  0  0
   30.0947   22.0448   85.2841 C   0  0  0  0  0  0  0  0  0  0  0  0
   28.9945   21.5103   84.5405 C   0  0  0  0  0  0  0  0  0  0  0  0
   27.6777   21.7789   84.6006 N   0  0  0  0  0  0  0  0  0  0  0  0
   25.7616   20.9642   83.4253 N   0  0  0  0  0  0  0  0  0  0  0  0
   25.5751   20.3132   82.6625 H   0  0  0  0  0  0  0  0  0  0  0  0
   25.4454   21.8972   83.1609 H   0  0  0  0  0  0  0  0  0  0  0  0
  1  2  1  0  0  0
  1  3  2  0  0  0
  2  9  1  0  0  0
  2 10  1  0  0  0
  3  4  1  0  0  0
  3  8  1  0  0  0
  4  5  2  0  0  0
  5  6  1  0  0  0
  6  7  2  0  0  0
  7  8  1  0  0  0
  8  9  2  0  0  0
 10 11  1  0  0  0
 10 12  1  0  0  0
M  END
> <minimizedAffinity>
-5.63507

$$$$
2FPZ_270_A_1000


 12 13  0  0  0  0  0  0  0  0999 V2000
   31.8084   23.2112   84.6607 N   0  0  0  0  0  0  0  0  0  0  0  0
   30.9728   24.2366   84.9629 C   0  0  0  0  0  0  0  0  0  0  0  0
   31.0821   22.0940   84.6056 C   0  0  0  0  0  0  0  0  0  0  0  0
   31.4349   20.7385   84.3300 C   0  0  0  0  0  0  0  0  0  0  0  0
   30.3978   19.7396   84.3431 C   0  0  0  0  0  0  0  0  0  0  0  0
   29.0378   20.1138   84.6307 C   0  0  0  0  0  0  0  0  0  0  0  0
   28.6998   21.4829   84.9061 C   0  0  0  0  0  0  0  0  0  0  0  0
   29.7421   22.4638   84.8868 C   0  0  0  0  0  0  0  0  0  0  0  0
   29.7064   23.7910   85.1038 N   0  0  0  0  0  0  0  0  0  0  0  0
   31.3590   25.5188   85.1019 N   0  0  0  0  0  0  0  0  0  0  0  0
   32.3694   25.5849   84.9782 H   0  0  0  0  0  0  0  0  0  0  0  0
   31.1081   25.8505   86.0333 H   0  0  0  0  0  0  0  0  0  0  0  0
  1  2  1  0  0  0
  1  3  2  0  0  0
  2  9  1  0  0  0
  2 10  1  0  0  0
  3  4  1  0  0  0
  3  8  1  0  0  0
  4  5  2  0  0  0
  5  6  1  0  0  0
  6  7  2  0  0  0
  7  8  1  0  0  0
  8  9  2  0  0  0
 10 11  1  0  0  0
 10 12  1  0  0  0
M  END
> <minimizedAffinity>
-5.23205

$$$$
2FPZ_270_A_1000


 12 13  0  0  0  0  0  0  0  0999 V2000
   30.9104   20.5195   83.1552 N   0  0  0  0  0  0  0  0  0  0  0  0
   31.3549   20.6995   84.4244 C   0  0  0  0  0  0  0  0  0  0  0  0
   29.5874   20.3573   83.2040 C   0  0  0  0  0  0  0  0  0  0  0  0
   28.6144   20.1370   82.1830 C   0  0  0  0  0  0  0  0  0  0  0  0
   27.2325   20.0024   82.5649 C   0  0  0  0  0  0  0  0  0  0  0  0
   26.8541   20.0894   83.9511 C   0  0  0  0  0  0  0  0  0  0  0  0
   27.8465   20.3116   84.9663 C   0  0  0  0  0  0  0  0  0  0  0  0
   29.2153   20.4454   84.5697 C   0  0  0  0  0  0  0  0  0  0  0  0
   30.3267   20.6557   85.2980 N   0  0  0  0  0  0  0  0  0  0  0  0
   32.6441   20.8941   84.7601 N   0  0  0  0  0  0  0  0  0  0  0  0
   33.2239   20.8508   83.9220 H   0  0  0  0  0  0  0  0  0  0  0  0
   32.9381   20.1693   85.4147 H   0  0  0  0  0  0  0  0  0  0  0  0
  1  2  1  0  0  0
  1  3  2  0  0  0
  2  9  1  0  0  0
  2 10  1  0  0  0
  3  4  1  0  0  0
  3  8  1  0  0  0
  4  5  2  0  0  0
  5  6  1  0  0  0
  6  7  2  0  0  0
  7  8  1  0  0  0
  8  9  2  0  0  0
 10 11  1  0  0  0
 10 12  1  0  0  0
M  END
> <minimizedAffinity>
-5.01459

$$$$
2FPZ_270_A_1000


 12 13  0  0  0  0  0  0  0  0999 V2000
   29.2017   19.6370   82.5151 N   0  0  0  0  0  0  0  0  0  0  0  0
   30.4324   19.0721   82.4307 C   0  0  0  0  0  0  0  0  0  0  0  0
   29.2327   20.5412   83.4950 C   0  0  0  0  0  0  0  0  0  0  0  0
   28.2360   21.4222   84.0130 C   0  0  0  0  0  0  0  0  0  0  0  0
   28.5888   22.3009   85.0978 C   0  0  0  0  0  0  0  0  0  0  0  0
   29.9223   22.2805   85.6398 C   0  0  0  0  0  0  0  0  0  0  0  0
   30.9136   21.3874   85.1066 C   0  0  0  0  0  0  0  0  0  0  0  0
   30.5473   20.5220   84.0269 C   0  0  0  0  0  0  0  0  0  0  0  0
   31.2635   19.6056   83.3510 N   0  0  0  0  0  0  0  0  0  0  0  0
   30.7718   18.1126   81.5494 N   0  0  0  0  0  0  0  0  0  0  0  0
   29.9571   17.8618   80.9893 H   0  0  0  0  0  0  0  0  0  0  0  0
   31.1043   17.2904   82.0532 H   0  0  0  0  0  0  0  0  0  0  0  0
  1  2  1  0  0  0
  1  3  2  0  0  0
  2  9  1  0  0  0
  2 10  1  0  0  0
  3  4  1  0  0  0
  3  8  1  0  0  0
  4  5  2  0  0  0
  5  6  1  0  0  0
  6  7  2  0  0  0
  7  8  1  0  0  0
  8  9  2  0  0  0
 10 11  1  0  0  0
 10 12  1  0  0  0
M  END
> <minimizedAffinity>
-4.67500

$$$$
2FPZ_270_A_1000


 12 13  0  0  0  0  0  0  0  0999 V2000
   25.9520   20.9153   83.6358 N   0  0  0  0  0  0  0  0  0  0  0  0
   27.1643   20.4259   83.9986 C   0  0  0  0  0  0  0  0  0  0  0  0
   25.8589   20.8351   82.3078 C   0  0  0  0  0  0  0  0  0  0  0  0
   24.8189   21.1987   81.4000 C   0  0  0  0  0  0  0  0  0  0  0  0
   25.0250   20.9795   79.9918 C   0  0  0  0  0  0  0  0  0  0  0  0
   26.2592   20.4060   79.5227 C   0  0  0  0  0  0  0  0  0  0  0  0
   27.2959   20.0457   80.4502 C   0  0  0  0  0  0  0  0  0  0  0  0
   27.0742   20.2679   81.8468 C   0  0  0  0  0  0  0  0  0  0  0  0
   27.8595   20.0272   82.9123 N   0  0  0  0  0  0  0  0  0  0  0  0
   27.6073   20.3510   85.2677 N   0  0  0  0  0  0  0  0  0  0  0  0
   26.9078   20.7466   85.8959 H   0  0  0  0  0  0  0  0  0  0  0  0
   28.4781   20.8748   85.3554 H   0  0  0  0  0  0  0  0  0  0  0  0
  1  2  1  0  0  0
  1  3  2  0  0  0
  2  9  1  0  0  0
  2 10  1  0  0  0
  3  4  1  0  0  0
  3  8  1  0  0  0
  4  5  2  0  0  0
  5  6  1  0  0  0
  6  7  2  0  0  0
  7  8  1  0  0  0
  8  9  2  0  0  0
 10 11  1  0  0  0
 10 12  1  0  0  0
M  END
> <minimizedAffinity>
-4.67443

$$$$
2FPZ_270_A_1000


 12 13  0  0  0  0  0  0  0  0999 V2000
   27.8700   20.0359   82.8682 N   0  0  0  0  0  0  0  0  0  0  0  0
   27.1914   20.4405   83.9713 C   0  0  0  0  0  0  0  0  0  0  0  0
   27.0956   20.2608   81.8059 C   0  0  0  0  0  0  0  0  0  0  0  0
   27.2986   20.0334   80.4113 C   0  0  0  0  0  0  0  0  0  0  0  0
   26.2489   20.3942   79.4939 C   0  0  0  0  0  0  0  0  0  0  0  0
   25.0251   20.9705   79.9864 C   0  0  0  0  0  0  0  0  0  0  0  0
   24.8372   21.1926   81.3936 C   0  0  0  0  0  0  0  0  0  0  0  0
   25.8912   20.8305   82.2918 C   0  0  0  0  0  0  0  0  0  0  0  0
   25.9795   20.9279   83.6307 N   0  0  0  0  0  0  0  0  0  0  0  0
   27.6659   20.3636   85.2289 N   0  0  0  0  0  0  0  0  0  0  0  0
   28.5883   19.9283   85.2182 H   0  0  0  0  0  0  0  0  0  0  0  0
   27.0318   19.8029   85.7979 H   0  0  0  0  0  0  0  0  0  0  0  0
  1  2  1  0  0  0
  1  3  2  0  0  0
  2  9  1  0  0  0
  2 10  1  0  0  0
  3  4  1  0  0  0
  3  8  1  0  0  0
  4  5  2  0  0  0
  5  6  1  0  0  0
  6  7  2  0  0  0
  7  8  1  0  0  0
  8  9  2  0  0  0
 10 11  1  0  0  0
 10 12  1  0  0  0
M  END
> <minimizedAffinity>
-4.66852

$$$$
2FPZ_270_A_1000


 12 13  0  0  0  0  0  0  0  0999 V2000
   29.4393   20.0986   82.6322 N   0  0  0  0  0  0  0  0  0  0  0  0
   29.4402   20.3352   83.9682 C   0  0  0  0  0  0  0  0  0  0  0  0
   28.1873   20.2352   82.1932 C   0  0  0  0  0  0  0  0  0  0  0  0
   27.6120   20.1055   80.8932 C   0  0  0  0  0  0  0  0  0  0  0  0
   26.1968   20.3233   80.7406 C   0  0  0  0  0  0  0  0  0  0  0  0
   25.3905   20.6634   81.8837 C   0  0  0  0  0  0  0  0  0  0  0  0
   25.9858   20.7900   83.1854 C   0  0  0  0  0  0  0  0  0  0  0  0
   27.3942   20.5724   83.3196 C   0  0  0  0  0  0  0  0  0  0  0  0
   28.1945   20.6257   84.3996 N   0  0  0  0  0  0  0  0  0  0  0  0
   30.5350   20.2855   84.7503 N   0  0  0  0  0  0  0  0  0  0  0  0
   31.3417   20.0126   84.1889 H   0  0  0  0  0  0  0  0  0  0  0  0
   30.3911   19.6019   85.4935 H   0  0  0  0  0  0  0  0  0  0  0  0
  1  2  1  0  0  0
  1  3  2  0  0  0
  2  9  1  0  0  0
  2 10  1  0  0  0
  3  4  1  0  0  0
  3  8  1  0  0  0
  4  5  2  0  0  0
  5  6  1  0  0  0
  6  7  2  0  0  0
  7  8  1  0  0  0
  8  9  2  0  0  0
 10 11  1  0  0  0
 10 12  1  0  0  0
M  END
> <minimizedAffinity>
-4.60775

$$$$
