3E92_G6A_A_361


 27 30  0  0  0  0  0  0  0  0999 V2000
   40.7483   30.9221   31.9873 C   0  0  0  0  0  0  0  0  0  0  0  0
   40.6142   30.0422   33.0774 C   0  0  0  0  0  0  0  0  0  0  0  0
   39.4762   29.2198   33.2608 C   0  0  0  0  0  0  0  0  0  0  0  0
   38.4318   29.3326   32.3042 C   0  0  0  0  0  0  0  0  0  0  0  0
   38.5457   30.2110   31.2239 C   0  0  0  0  0  0  0  0  0  0  0  0
   39.7072   31.0084   31.0544 C   0  0  0  0  0  0  0  0  0  0  0  0
   39.8288   31.9866   29.8877 C   0  0  0  0  0  0  0  0  0  0  0  0
   44.3402   33.3181   31.7785 C   0  0  0  0  0  0  0  0  0  0  0  0
   43.2975   33.6794   32.6369 C   0  0  0  0  0  0  0  0  0  0  0  0
   42.1555   32.8838   32.6527 C   0  0  0  0  0  0  0  0  0  0  0  0
   44.1901   32.1682   30.9839 C   0  0  0  0  0  0  0  0  0  0  0  0
   43.0420   31.3554   31.0480 C   0  0  0  0  0  0  0  0  0  0  0  0
   42.9390   30.1074   30.2054 C   0  0  0  0  0  0  0  0  0  0  0  0
   42.0009   31.7400   31.8868 C   0  0  0  0  0  0  0  0  0  0  0  0
   48.9714   34.6345   30.4400 C   0  0  0  0  0  0  0  0  0  0  0  0
   47.5921   34.7014   31.1130 C   0  0  0  0  0  0  0  0  0  0  0  0
   46.6888   33.7549   30.9310 O   0  0  0  0  0  0  0  0  0  0  0  0
   47.0573   35.6233   31.9504 N   0  0  0  0  0  0  0  0  0  0  0  0
   45.8861   35.2648   32.2837 N   0  0  0  0  0  0  0  0  0  0  0  0
   45.5973   34.0815   31.6670 C   0  0  0  0  0  0  0  0  0  0  0  0
   39.4732   28.3340   34.4662 C   0  0  0  0  0  0  0  0  0  0  0  0
   40.3737   28.4782   35.3113 O   0  0  0  0  0  0  0  0  0  0  0  0
   38.4346   27.4340   34.6483 N   0  0  0  0  0  0  0  0  0  0  0  0
   37.7220   27.4078   33.9695 H   0  0  0  0  0  0  0  0  0  0  0  0
   36.8857   26.1624   35.8195 C   0  0  0  0  0  0  0  0  0  0  0  0
   37.4043   27.1855   36.7773 C   0  0  0  0  0  0  0  0  0  0  0  0
   38.3327   26.5294   35.7759 C   0  0  0  0  0  0  0  0  0  0  0  0
 15 16  1  0  0  0
 25 26  1  0  0  0
 25 27  1  0  0  0
 26 27  1  0  0  0
 27 23  1  0  0  0
 16 17  1  0  0  0
 16 18  2  0  0  0
 17 20  1  0  0  0
 18 19  1  0  0  0
 19 20  2  0  0  0
 20  8  1  0  0  0
  8  9  2  0  0  0
  8 11  1  0  0  0
  9 10  1  0  0  0
 10 14  2  0  0  0
 11 12  2  0  0  0
 12 13  1  0  0  0
 12 14  1  0  0  0
 14  1  1  0  0  0
  1  2  2  0  0  0
  1  6  1  0  0  0
  2  3  1  0  0  0
  3 21  1  0  0  0
  3  4  2  0  0  0
 21 22  2  0  0  0
 21 23  1  0  0  0
  4  5  1  0  0  0
  5  6  2  0  0  0
  6  7  1  0  0  0
 23 24  1  0  0  0
M  END
> <minimizedAffinity>
-12.75550

$$$$
3E92_G6A_A_361


 27 30  0  0  0  0  0  0  0  0999 V2000
   42.5956   31.0290   31.4836 C   0  0  0  0  0  0  0  0  0  0  0  0
   43.6195   31.8531   31.9862 C   0  0  0  0  0  0  0  0  0  0  0  0
   44.4926   32.5863   31.1465 C   0  0  0  0  0  0  0  0  0  0  0  0
   44.3210   32.4393   29.7438 C   0  0  0  0  0  0  0  0  0  0  0  0
   43.3168   31.6148   29.2305 C   0  0  0  0  0  0  0  0  0  0  0  0
   42.4431   30.9076   30.0966 C   0  0  0  0  0  0  0  0  0  0  0  0
   41.3573   29.9876   29.5421 C   0  0  0  0  0  0  0  0  0  0  0  0
   40.0106   28.9983   34.2909 C   0  0  0  0  0  0  0  0  0  0  0  0
   39.7014   30.2883   33.8496 C   0  0  0  0  0  0  0  0  0  0  0  0
   40.5763   30.9044   32.9595 C   0  0  0  0  0  0  0  0  0  0  0  0
   41.1796   28.3841   33.8087 C   0  0  0  0  0  0  0  0  0  0  0  0
   42.0278   29.0114   32.8759 C   0  0  0  0  0  0  0  0  0  0  0  0
   43.2525   28.2999   32.3546 C   0  0  0  0  0  0  0  0  0  0  0  0
   41.7228   30.3050   32.4646 C   0  0  0  0  0  0  0  0  0  0  0  0
   36.4652   25.9691   36.0870 C   0  0  0  0  0  0  0  0  0  0  0  0
   37.6570   26.9379   36.0649 C   0  0  0  0  0  0  0  0  0  0  0  0
   38.1486   27.4016   34.9297 O   0  0  0  0  0  0  0  0  0  0  0  0
   38.3789   27.4796   37.0760 N   0  0  0  0  0  0  0  0  0  0  0  0
   39.2665   28.2509   36.5979 N   0  0  0  0  0  0  0  0  0  0  0  0
   39.1673   28.2431   35.2363 C   0  0  0  0  0  0  0  0  0  0  0  0
   45.5336   33.4210   31.8226 C   0  0  0  0  0  0  0  0  0  0  0  0
   45.2689   33.9168   32.9318 O   0  0  0  0  0  0  0  0  0  0  0  0
   46.7832   33.5580   31.2381 N   0  0  0  0  0  0  0  0  0  0  0  0
   46.9475   33.0938   30.3856 H   0  0  0  0  0  0  0  0  0  0  0  0
   48.0461   35.4632   30.8345 C   0  0  0  0  0  0  0  0  0  0  0  0
   48.9961   34.3103   30.7994 C   0  0  0  0  0  0  0  0  0  0  0  0
   47.8626   34.3421   31.8040 C   0  0  0  0  0  0  0  0  0  0  0  0
 15 16  1  0  0  0
 25 26  1  0  0  0
 25 27  1  0  0  0
 26 27  1  0  0  0
 27 23  1  0  0  0
 16 17  1  0  0  0
 16 18  2  0  0  0
 17 20  1  0  0  0
 18 19  1  0  0  0
 19 20  2  0  0  0
 20  8  1  0  0  0
  8  9  2  0  0  0
  8 11  1  0  0  0
  9 10  1  0  0  0
 10 14  2  0  0  0
 11 12  2  0  0  0
 12 13  1  0  0  0
 12 14  1  0  0  0
 14  1  1  0  0  0
  1  2  2  0  0  0
  1  6  1  0  0  0
  2  3  1  0  0  0
  3 21  1  0  0  0
  3  4  2  0  0  0
 21 22  2  0  0  0
 21 23  1  0  0  0
  4  5  1  0  0  0
  5  6  2  0  0  0
  6  7  1  0  0  0
 23 24  1  0  0  0
M  END
> <minimizedAffinity>
-10.17746

$$$$
