5NK4_90E_A_1001


 38 41  0  0  0  0  0  0  0  0999 V2000
  -84.0232  -11.6162    7.4410 C   0  0  0  0  0  0  0  0  0  0  0  0
  -85.3072  -11.6209    6.9085 C   0  0  0  0  0  0  0  0  0  0  0  0
  -82.9079  -11.6149    6.6194 C   0  0  0  0  0  0  0  0  0  0  0  0
  -83.0695  -11.5893    5.2459 C   0  0  0  0  0  0  0  0  0  0  0  0
  -84.3510  -11.5782    4.7163 C   0  0  0  0  0  0  0  0  0  0  0  0
  -85.4885  -11.5752    5.5276 C   0  0  0  0  0  0  0  0  0  0  0  0
  -84.9491  -11.8645    9.4695 N   0  0  0  0  0  0  0  0  0  0  0  0
  -83.7990  -11.6768    8.8028 C   0  0  0  0  0  0  0  0  0  0  0  0
  -82.6576  -11.6352    9.2625 O   0  0  0  0  0  0  0  0  0  0  0  0
  -85.7651  -11.8259    8.9201 H   0  0  0  0  0  0  0  0  0  0  0  0
  -86.0127  -10.0205   11.0469 F   0  0  0  0  0  0  0  0  0  0  0  0
  -86.3887  -11.2711   11.2105 C   0  0  0  0  0  0  0  0  0  0  0  0
  -87.4389  -11.4239   10.3112 F   0  0  0  0  0  0  0  0  0  0  0  0
  -86.8206  -11.5608   12.6167 C   0  0  0  0  0  0  0  0  0  0  0  0
  -87.2648  -12.9596   12.7678 N   0  0  0  0  0  0  0  0  0  0  0  0
  -86.8019  -13.8637   11.6957 C   0  0  0  0  0  0  0  0  0  0  0  0
  -85.3585  -13.5935   11.3041 C   0  0  0  0  0  0  0  0  0  0  0  0
  -85.1666  -12.1190   10.8991 C   0  0  0  0  0  0  0  0  0  0  0  0
  -86.9123  -13.3124   13.6575 H   0  0  0  0  0  0  0  0  0  0  0  0
  -86.7613  -11.5766    5.0773 N   0  0  0  0  0  0  0  0  0  0  0  0
  -86.9147  -11.2746    4.1529 H   0  0  0  0  0  0  0  0  0  0  0  0
  -87.8402  -11.9587    5.7921 C   0  0  0  0  0  0  0  0  0  0  0  0
  -87.9156  -12.8844    7.1502 S   0  0  0  0  0  0  0  0  0  0  0  0
  -89.0988  -11.6151    5.4757 N   0  0  0  0  0  0  0  0  0  0  0  0
  -90.0343  -12.1099    6.3268 C   0  0  0  0  0  0  0  0  0  0  0  0
  -89.5188  -12.8544    7.3242 C   0  0  0  0  0  0  0  0  0  0  0  0
  -90.1330  -13.4914    8.3388 C   0  0  0  0  0  0  0  0  0  0  0  0
  -89.5191  -13.6445    9.3961 O   0  0  0  0  0  0  0  0  0  0  0  0
  -91.4046  -13.9342    8.1591 N   0  0  0  0  0  0  0  0  0  0  0  0
  -91.8606  -13.8193    7.2942 H   0  0  0  0  0  0  0  0  0  0  0  0
  -92.0317  -14.5388    9.2003 C   0  0  0  0  0  0  0  0  0  0  0  0
  -92.6791  -13.7866   10.1825 C   0  0  0  0  0  0  0  0  0  0  0  0
  -92.7319  -12.0629   10.1349 Cl  0  0  0  0  0  0  0  0  0  0  0  0
  -93.3042  -14.4353   11.2431 C   0  0  0  0  0  0  0  0  0  0  0  0
  -93.2882  -15.8236   11.3270 C   0  0  0  0  0  0  0  0  0  0  0  0
  -92.6370  -16.5700   10.3500 C   0  0  0  0  0  0  0  0  0  0  0  0
  -92.0039  -15.9317    9.2877 C   0  0  0  0  0  0  0  0  0  0  0  0
  -91.3571  -16.7037    8.3304 C   0  0  0  0  0  0  0  0  0  0  0  0
 17 16  1  0  0  0
 17 18  1  0  0  0
 15 16  1  0  0  0
 15 14  1  0  0  0
 18 12  1  0  0  0
 18  7  1  0  0  0
 14 12  1  0  0  0
 12 11  1  0  0  0
 12 13  1  0  0  0
  7  8  1  0  0  0
  9  8  2  0  0  0
  8  1  1  0  0  0
  2  1  2  0  0  0
  2  6  1  0  0  0
  1  3  1  0  0  0
 20  6  1  0  0  0
 20 22  1  0  0  0
 24 22  2  0  0  0
 24 25  1  0  0  0
  6  5  2  0  0  0
 22 23  1  0  0  0
 25 26  2  0  0  0
  3  4  2  0  0  0
  5  4  1  0  0  0
 23 26  1  0  0  0
 26 27  1  0  0  0
 33 32  1  0  0  0
 29 27  1  0  0  0
 29 31  1  0  0  0
 27 28  2  0  0  0
 31 32  2  0  0  0
 31 37  1  0  0  0
 32 34  1  0  0  0
 38 37  1  0  0  0
 37 36  2  0  0  0
 34 35  2  0  0  0
 36 35  1  0  0  0
 15 19  1  0  0  0
  7 10  1  0  0  0
 20 21  1  0  0  0
 29 30  1  0  0  0
M  END
> <minimizedAffinity>
-10.71426

$$$$
5NK4_90E_A_1001


 38 41  0  0  0  0  0  0  0  0999 V2000
  -83.7253  -11.7429    7.4286 C   0  0  0  0  0  0  0  0  0  0  0  0
  -85.0240  -11.5251    6.9838 C   0  0  0  0  0  0  0  0  0  0  0  0
  -82.6896  -11.9594    6.5344 C   0  0  0  0  0  0  0  0  0  0  0  0
  -82.9420  -11.9312    5.1747 C   0  0  0  0  0  0  0  0  0  0  0  0
  -84.2353  -11.6982    4.7322 C   0  0  0  0  0  0  0  0  0  0  0  0
  -85.2927  -11.4737    5.6174 C   0  0  0  0  0  0  0  0  0  0  0  0
  -84.5166  -12.0761    9.5014 N   0  0  0  0  0  0  0  0  0  0  0  0
  -83.4186  -11.8170    8.7735 C   0  0  0  0  0  0  0  0  0  0  0  0
  -82.2557  -11.7251    9.1673 O   0  0  0  0  0  0  0  0  0  0  0  0
  -85.3644  -12.0695    9.0010 H   0  0  0  0  0  0  0  0  0  0  0  0
  -85.1149  -10.1733   11.2452 F   0  0  0  0  0  0  0  0  0  0  0  0
  -85.6707  -11.3562   11.4002 C   0  0  0  0  0  0  0  0  0  0  0  0
  -86.8119  -11.2946   10.6070 F   0  0  0  0  0  0  0  0  0  0  0  0
  -86.0092  -11.6478   12.8313 C   0  0  0  0  0  0  0  0  0  0  0  0
  -86.6572  -12.9654   12.9752 N   0  0  0  0  0  0  0  0  0  0  0  0
  -86.4495  -13.8735   11.8292 C   0  0  0  0  0  0  0  0  0  0  0  0
  -85.0249  -13.8131   11.3033 C   0  0  0  0  0  0  0  0  0  0  0  0
  -84.6365  -12.3680   10.9354 C   0  0  0  0  0  0  0  0  0  0  0  0
  -86.2839  -13.4154   13.8110 H   0  0  0  0  0  0  0  0  0  0  0  0
  -86.5741  -11.2531    5.2536 N   0  0  0  0  0  0  0  0  0  0  0  0
  -86.7288  -10.6976    4.4556 H   0  0  0  0  0  0  0  0  0  0  0  0
  -87.6598  -11.7327    5.8956 C   0  0  0  0  0  0  0  0  0  0  0  0
  -87.7496  -12.5632    7.3130 S   0  0  0  0  0  0  0  0  0  0  0  0
  -88.9139  -11.5924    5.4377 N   0  0  0  0  0  0  0  0  0  0  0  0
  -89.8572  -12.1536    6.2375 C   0  0  0  0  0  0  0  0  0  0  0  0
  -89.3517  -12.7472    7.3361 C   0  0  0  0  0  0  0  0  0  0  0  0
  -89.9761  -13.3924    8.3393 C   0  0  0  0  0  0  0  0  0  0  0  0
  -89.3431  -13.6338    9.3685 O   0  0  0  0  0  0  0  0  0  0  0  0
  -91.2779  -13.7458    8.1798 N   0  0  0  0  0  0  0  0  0  0  0  0
  -91.7503  -13.5615    7.3359 H   0  0  0  0  0  0  0  0  0  0  0  0
  -91.9123  -14.3592    9.2115 C   0  0  0  0  0  0  0  0  0  0  0  0
  -91.8531  -15.7455    9.3677 C   0  0  0  0  0  0  0  0  0  0  0  0
  -90.9751  -16.7568    8.2801 Cl  0  0  0  0  0  0  0  0  0  0  0  0
  -92.5225  -16.3458   10.4297 C   0  0  0  0  0  0  0  0  0  0  0  0
  -93.2453  -15.5735   11.3330 C   0  0  0  0  0  0  0  0  0  0  0  0
  -93.3074  -14.1931   11.1710 C   0  0  0  0  0  0  0  0  0  0  0  0
  -92.6463  -13.5825   10.1096 C   0  0  0  0  0  0  0  0  0  0  0  0
  -92.7313  -12.2025    9.9709 C   0  0  0  0  0  0  0  0  0  0  0  0
 17 16  1  0  0  0
 17 18  1  0  0  0
 15 16  1  0  0  0
 15 14  1  0  0  0
 18 12  1  0  0  0
 18  7  1  0  0  0
 14 12  1  0  0  0
 12 11  1  0  0  0
 12 13  1  0  0  0
  7  8  1  0  0  0
  9  8  2  0  0  0
  8  1  1  0  0  0
  2  1  2  0  0  0
  2  6  1  0  0  0
  1  3  1  0  0  0
 20  6  1  0  0  0
 20 22  1  0  0  0
 24 22  2  0  0  0
 24 25  1  0  0  0
  6  5  2  0  0  0
 22 23  1  0  0  0
 25 26  2  0  0  0
  3  4  2  0  0  0
  5  4  1  0  0  0
 23 26  1  0  0  0
 26 27  1  0  0  0
 33 32  1  0  0  0
 29 27  1  0  0  0
 29 31  1  0  0  0
 27 28  2  0  0  0
 31 32  2  0  0  0
 31 37  1  0  0  0
 32 34  1  0  0  0
 38 37  1  0  0  0
 37 36  2  0  0  0
 34 35  2  0  0  0
 36 35  1  0  0  0
 15 19  1  0  0  0
  7 10  1  0  0  0
 20 21  1  0  0  0
 29 30  1  0  0  0
M  END
> <minimizedAffinity>
-10.59837

$$$$
5NK4_90E_A_1001


 38 41  0  0  0  0  0  0  0  0999 V2000
  -83.1412  -11.4766    5.1594 C   0  0  0  0  0  0  0  0  0  0  0  0
  -84.4693  -11.4409    4.7508 C   0  0  0  0  0  0  0  0  0  0  0  0
  -82.8069  -11.5180    6.5031 C   0  0  0  0  0  0  0  0  0  0  0  0
  -83.8081  -11.5530    7.4568 C   0  0  0  0  0  0  0  0  0  0  0  0
  -85.1327  -11.5332    7.0471 C   0  0  0  0  0  0  0  0  0  0  0  0
  -85.4907  -11.4955    5.6971 C   0  0  0  0  0  0  0  0  0  0  0  0
  -81.4191  -10.2591    4.3941 N   0  0  0  0  0  0  0  0  0  0  0  0
  -82.0987  -11.4085    4.2555 C   0  0  0  0  0  0  0  0  0  0  0  0
  -81.8423  -12.3521    3.5073 O   0  0  0  0  0  0  0  0  0  0  0  0
  -81.8122   -9.6109    5.0222 H   0  0  0  0  0  0  0  0  0  0  0  0
  -81.3222   -8.0451    2.9419 F   0  0  0  0  0  0  0  0  0  0  0  0
  -80.3063   -8.3144    3.7341 C   0  0  0  0  0  0  0  0  0  0  0  0
  -80.6795   -7.7609    4.9546 F   0  0  0  0  0  0  0  0  0  0  0  0
  -79.0190   -7.7302    3.2346 C   0  0  0  0  0  0  0  0  0  0  0  0
  -77.9019   -8.0203    4.1538 N   0  0  0  0  0  0  0  0  0  0  0  0
  -78.1564   -9.1364    5.0868 C   0  0  0  0  0  0  0  0  0  0  0  0
  -78.8655  -10.2973    4.4091 C   0  0  0  0  0  0  0  0  0  0  0  0
  -80.1745   -9.8283    3.7449 C   0  0  0  0  0  0  0  0  0  0  0  0
  -77.0805   -8.2519    3.5951 H   0  0  0  0  0  0  0  0  0  0  0  0
  -86.7579  -11.4626    5.2323 N   0  0  0  0  0  0  0  0  0  0  0  0
  -86.9005  -11.0881    4.3330 H   0  0  0  0  0  0  0  0  0  0  0  0
  -87.8447  -11.9015    5.9010 C   0  0  0  0  0  0  0  0  0  0  0  0
  -87.9289  -12.8007    7.2762 S   0  0  0  0  0  0  0  0  0  0  0  0
  -89.1051  -11.6509    5.5129 N   0  0  0  0  0  0  0  0  0  0  0  0
  -90.0487  -12.1896    6.3278 C   0  0  0  0  0  0  0  0  0  0  0  0
  -89.5373  -12.8758    7.3682 C   0  0  0  0  0  0  0  0  0  0  0  0
  -90.1597  -13.5311    8.3660 C   0  0  0  0  0  0  0  0  0  0  0  0
  -89.5293  -13.7698    9.3974 O   0  0  0  0  0  0  0  0  0  0  0  0
  -91.4571  -13.8974    8.1989 N   0  0  0  0  0  0  0  0  0  0  0  0
  -91.9273  -13.7149    7.3535 H   0  0  0  0  0  0  0  0  0  0  0  0
  -92.0900  -14.5211    9.2253 C   0  0  0  0  0  0  0  0  0  0  0  0
  -92.7441  -13.7871   10.2168 C   0  0  0  0  0  0  0  0  0  0  0  0
  -92.7984  -12.0628   10.1997 Cl  0  0  0  0  0  0  0  0  0  0  0  0
  -93.3751  -14.4551   11.2618 C   0  0  0  0  0  0  0  0  0  0  0  0
  -93.3583  -15.8447   11.3210 C   0  0  0  0  0  0  0  0  0  0  0  0
  -92.7004  -16.5729   10.3349 C   0  0  0  0  0  0  0  0  0  0  0  0
  -92.0614  -15.9152    9.2881 C   0  0  0  0  0  0  0  0  0  0  0  0
  -91.4080  -16.6695    8.3211 C   0  0  0  0  0  0  0  0  0  0  0  0
 17 16  1  0  0  0
 17 18  1  0  0  0
 15 16  1  0  0  0
 15 14  1  0  0  0
 18 12  1  0  0  0
 18  7  1  0  0  0
 14 12  1  0  0  0
 12 11  1  0  0  0
 12 13  1  0  0  0
  7  8  1  0  0  0
  9  8  2  0  0  0
  8  1  1  0  0  0
  2  1  2  0  0  0
  2  6  1  0  0  0
  1  3  1  0  0  0
 20  6  1  0  0  0
 20 22  1  0  0  0
 24 22  2  0  0  0
 24 25  1  0  0  0
  6  5  2  0  0  0
 22 23  1  0  0  0
 25 26  2  0  0  0
  3  4  2  0  0  0
  5  4  1  0  0  0
 23 26  1  0  0  0
 26 27  1  0  0  0
 33 32  1  0  0  0
 29 27  1  0  0  0
 29 31  1  0  0  0
 27 28  2  0  0  0
 31 32  2  0  0  0
 31 37  1  0  0  0
 32 34  1  0  0  0
 38 37  1  0  0  0
 37 36  2  0  0  0
 34 35  2  0  0  0
 36 35  1  0  0  0
 15 19  1  0  0  0
  7 10  1  0  0  0
 20 21  1  0  0  0
 29 30  1  0  0  0
M  END
> <minimizedAffinity>
-10.42514

$$$$
5NK4_90E_A_1001


 38 41  0  0  0  0  0  0  0  0999 V2000
  -82.9204  -11.5104    4.9980 C   0  0  0  0  0  0  0  0  0  0  0  0
  -84.2581  -11.2700    4.7069 C   0  0  0  0  0  0  0  0  0  0  0  0
  -82.5198  -11.8739    6.2733 C   0  0  0  0  0  0  0  0  0  0  0  0
  -83.4663  -12.0289    7.2700 C   0  0  0  0  0  0  0  0  0  0  0  0
  -84.8022  -11.8040    6.9742 C   0  0  0  0  0  0  0  0  0  0  0  0
  -85.2271  -11.4407    5.6937 C   0  0  0  0  0  0  0  0  0  0  0  0
  -81.1481  -10.2893    4.3644 N   0  0  0  0  0  0  0  0  0  0  0  0
  -81.9269  -11.3378    4.0538 C   0  0  0  0  0  0  0  0  0  0  0  0
  -81.7905  -12.1299    3.1211 O   0  0  0  0  0  0  0  0  0  0  0  0
  -81.4514   -9.7525    5.1319 H   0  0  0  0  0  0  0  0  0  0  0  0
  -81.1465   -8.2229    2.7062 F   0  0  0  0  0  0  0  0  0  0  0  0
  -80.1517   -8.3356    3.5605 C   0  0  0  0  0  0  0  0  0  0  0  0
  -80.6214   -7.6992    4.7048 F   0  0  0  0  0  0  0  0  0  0  0  0
  -78.8890   -7.7033    3.0571 C   0  0  0  0  0  0  0  0  0  0  0  0
  -77.7978   -7.8167    4.0437 N   0  0  0  0  0  0  0  0  0  0  0  0
  -78.0129   -8.8553    5.0713 C   0  0  0  0  0  0  0  0  0  0  0  0
  -78.6021  -10.1271    4.4838 C   0  0  0  0  0  0  0  0  0  0  0  0
  -79.9096   -9.8267    3.7255 C   0  0  0  0  0  0  0  0  0  0  0  0
  -76.9364   -8.0359    3.5434 H   0  0  0  0  0  0  0  0  0  0  0  0
  -86.5076  -11.1960    5.3426 N   0  0  0  0  0  0  0  0  0  0  0  0
  -86.6606  -10.5865    4.5849 H   0  0  0  0  0  0  0  0  0  0  0  0
  -87.5947  -11.7197    5.9468 C   0  0  0  0  0  0  0  0  0  0  0  0
  -87.7164  -12.4658    7.4081 S   0  0  0  0  0  0  0  0  0  0  0  0
  -88.8224  -11.7078    5.4038 N   0  0  0  0  0  0  0  0  0  0  0  0
  -89.7722  -12.2917    6.1794 C   0  0  0  0  0  0  0  0  0  0  0  0
  -89.2981  -12.7744    7.3443 C   0  0  0  0  0  0  0  0  0  0  0  0
  -89.9379  -13.4040    8.3477 C   0  0  0  0  0  0  0  0  0  0  0  0
  -89.3142  -13.6497    9.3816 O   0  0  0  0  0  0  0  0  0  0  0  0
  -91.2444  -13.7375    8.1833 N   0  0  0  0  0  0  0  0  0  0  0  0
  -91.7093  -13.5504    7.3359 H   0  0  0  0  0  0  0  0  0  0  0  0
  -91.8938  -14.3349    9.2150 C   0  0  0  0  0  0  0  0  0  0  0  0
  -91.8748  -15.7228    9.3672 C   0  0  0  0  0  0  0  0  0  0  0  0
  -91.0298  -16.7563    8.2745 Cl  0  0  0  0  0  0  0  0  0  0  0  0
  -92.5588  -16.3062   10.4293 C   0  0  0  0  0  0  0  0  0  0  0  0
  -93.2563  -15.5157   11.3367 C   0  0  0  0  0  0  0  0  0  0  0  0
  -93.2783  -14.1336   11.1787 C   0  0  0  0  0  0  0  0  0  0  0  0
  -92.6023  -13.5397   10.1171 C   0  0  0  0  0  0  0  0  0  0  0  0
  -92.6472  -12.1574    9.9825 C   0  0  0  0  0  0  0  0  0  0  0  0
 17 16  1  0  0  0
 17 18  1  0  0  0
 15 16  1  0  0  0
 15 14  1  0  0  0
 18 12  1  0  0  0
 18  7  1  0  0  0
 14 12  1  0  0  0
 12 11  1  0  0  0
 12 13  1  0  0  0
  7  8  1  0  0  0
  9  8  2  0  0  0
  8  1  1  0  0  0
  2  1  2  0  0  0
  2  6  1  0  0  0
  1  3  1  0  0  0
 20  6  1  0  0  0
 20 22  1  0  0  0
 24 22  2  0  0  0
 24 25  1  0  0  0
  6  5  2  0  0  0
 22 23  1  0  0  0
 25 26  2  0  0  0
  3  4  2  0  0  0
  5  4  1  0  0  0
 23 26  1  0  0  0
 26 27  1  0  0  0
 33 32  1  0  0  0
 29 27  1  0  0  0
 29 31  1  0  0  0
 27 28  2  0  0  0
 31 32  2  0  0  0
 31 37  1  0  0  0
 32 34  1  0  0  0
 38 37  1  0  0  0
 37 36  2  0  0  0
 34 35  2  0  0  0
 36 35  1  0  0  0
 15 19  1  0  0  0
  7 10  1  0  0  0
 20 21  1  0  0  0
 29 30  1  0  0  0
M  END
> <minimizedAffinity>
-10.19570

$$$$
5NK4_90E_A_1001


 38 41  0  0  0  0  0  0  0  0999 V2000
  -84.5709  -10.7004    9.7712 C   0  0  0  0  0  0  0  0  0  0  0  0
  -85.3776  -11.1729    8.7426 C   0  0  0  0  0  0  0  0  0  0  0  0
  -83.2381  -10.3932    9.5517 C   0  0  0  0  0  0  0  0  0  0  0  0
  -82.7039  -10.5305    8.2832 C   0  0  0  0  0  0  0  0  0  0  0  0
  -83.5140  -10.9871    7.2546 C   0  0  0  0  0  0  0  0  0  0  0  0
  -84.8613  -11.2985    7.4544 C   0  0  0  0  0  0  0  0  0  0  0  0
  -86.2348  -11.1697   11.2012 N   0  0  0  0  0  0  0  0  0  0  0  0
  -85.0383  -10.5762   11.0652 C   0  0  0  0  0  0  0  0  0  0  0  0
  -84.3543  -10.0460   11.9410 O   0  0  0  0  0  0  0  0  0  0  0  0
  -86.6376  -11.5008   10.3661 H   0  0  0  0  0  0  0  0  0  0  0  0
  -88.0997   -9.4491   11.9636 F   0  0  0  0  0  0  0  0  0  0  0  0
  -88.3558  -10.7350   12.0777 C   0  0  0  0  0  0  0  0  0  0  0  0
  -88.8730  -11.0834   10.8342 F   0  0  0  0  0  0  0  0  0  0  0  0
  -89.3268  -11.0307   13.1811 C   0  0  0  0  0  0  0  0  0  0  0  0
  -89.6202  -12.4740   13.2698 N   0  0  0  0  0  0  0  0  0  0  0  0
  -88.6257  -13.3386   12.6030 C   0  0  0  0  0  0  0  0  0  0  0  0
  -87.2022  -12.8657   12.8475 C   0  0  0  0  0  0  0  0  0  0  0  0
  -87.0300  -11.3969   12.4145 C   0  0  0  0  0  0  0  0  0  0  0  0
  -89.6580  -12.7322   14.2558 H   0  0  0  0  0  0  0  0  0  0  0  0
  -85.6999  -11.7578    6.5011 N   0  0  0  0  0  0  0  0  0  0  0  0
  -85.3153  -11.9542    5.6164 H   0  0  0  0  0  0  0  0  0  0  0  0
  -87.0228  -11.9693    6.6634 C   0  0  0  0  0  0  0  0  0  0  0  0
  -87.8017  -12.8787    7.7916 S   0  0  0  0  0  0  0  0  0  0  0  0
  -87.9624  -11.4303    5.8704 N   0  0  0  0  0  0  0  0  0  0  0  0
  -89.2315  -11.7764    6.2083 C   0  0  0  0  0  0  0  0  0  0  0  0
  -89.3030  -12.5980    7.2735 C   0  0  0  0  0  0  0  0  0  0  0  0
  -90.3753  -13.1359    7.8846 C   0  0  0  0  0  0  0  0  0  0  0  0
  -91.4746  -13.0419    7.3362 O   0  0  0  0  0  0  0  0  0  0  0  0
  -90.2022  -13.7647    9.0762 N   0  0  0  0  0  0  0  0  0  0  0  0
  -89.3153  -13.8020    9.5020 H   0  0  0  0  0  0  0  0  0  0  0  0
  -91.2809  -14.3404    9.6659 C   0  0  0  0  0  0  0  0  0  0  0  0
  -91.5717  -15.6914    9.4665 C   0  0  0  0  0  0  0  0  0  0  0  0
  -90.5886  -16.7075    8.4778 Cl  0  0  0  0  0  0  0  0  0  0  0  0
  -92.6906  -16.2501   10.0766 C   0  0  0  0  0  0  0  0  0  0  0  0
  -93.5154  -15.4719   10.8821 C   0  0  0  0  0  0  0  0  0  0  0  0
  -93.2264  -14.1245   11.0739 C   0  0  0  0  0  0  0  0  0  0  0  0
  -92.1131  -13.5539   10.4643 C   0  0  0  0  0  0  0  0  0  0  0  0
  -91.8534  -12.2045   10.6702 C   0  0  0  0  0  0  0  0  0  0  0  0
 17 16  1  0  0  0
 17 18  1  0  0  0
 15 16  1  0  0  0
 15 14  1  0  0  0
 18 12  1  0  0  0
 18  7  1  0  0  0
 14 12  1  0  0  0
 12 11  1  0  0  0
 12 13  1  0  0  0
  7  8  1  0  0  0
  9  8  2  0  0  0
  8  1  1  0  0  0
  2  1  2  0  0  0
  2  6  1  0  0  0
  1  3  1  0  0  0
 20  6  1  0  0  0
 20 22  1  0  0  0
 24 22  2  0  0  0
 24 25  1  0  0  0
  6  5  2  0  0  0
 22 23  1  0  0  0
 25 26  2  0  0  0
  3  4  2  0  0  0
  5  4  1  0  0  0
 23 26  1  0  0  0
 26 27  1  0  0  0
 33 32  1  0  0  0
 29 27  1  0  0  0
 29 31  1  0  0  0
 27 28  2  0  0  0
 31 32  2  0  0  0
 31 37  1  0  0  0
 32 34  1  0  0  0
 38 37  1  0  0  0
 37 36  2  0  0  0
 34 35  2  0  0  0
 36 35  1  0  0  0
 15 19  1  0  0  0
  7 10  1  0  0  0
 20 21  1  0  0  0
 29 30  1  0  0  0
M  END
> <minimizedAffinity>
-9.72151

$$$$
5NK4_90E_A_1001


 38 41  0  0  0  0  0  0  0  0999 V2000
  -82.8845  -11.8524    5.1390 C   0  0  0  0  0  0  0  0  0  0  0  0
  -84.2090  -11.6209    4.7868 C   0  0  0  0  0  0  0  0  0  0  0  0
  -82.5022  -11.9393    6.4676 C   0  0  0  0  0  0  0  0  0  0  0  0
  -83.4553  -11.8227    7.4632 C   0  0  0  0  0  0  0  0  0  0  0  0
  -84.7787  -11.6075    7.1099 C   0  0  0  0  0  0  0  0  0  0  0  0
  -85.1854  -11.5207    5.7760 C   0  0  0  0  0  0  0  0  0  0  0  0
  -80.7581  -11.3535    4.6257 N   0  0  0  0  0  0  0  0  0  0  0  0
  -81.8836  -11.9423    4.1911 C   0  0  0  0  0  0  0  0  0  0  0  0
  -82.0539  -12.5651    3.1428 O   0  0  0  0  0  0  0  0  0  0  0  0
  -80.8392  -10.8690    5.4790 H   0  0  0  0  0  0  0  0  0  0  0  0
  -78.6428  -12.3141    5.8995 F   0  0  0  0  0  0  0  0  0  0  0  0
  -78.7545  -12.5539    4.6102 C   0  0  0  0  0  0  0  0  0  0  0  0
  -79.5215  -13.7130    4.5521 F   0  0  0  0  0  0  0  0  0  0  0  0
  -77.4243  -12.7393    3.9440 C   0  0  0  0  0  0  0  0  0  0  0  0
  -77.5768  -13.0358    2.5068 N   0  0  0  0  0  0  0  0  0  0  0  0
  -78.8929  -12.6682    1.9465 C   0  0  0  0  0  0  0  0  0  0  0  0
  -79.3843  -11.3298    2.4729 C   0  0  0  0  0  0  0  0  0  0  0  0
  -79.4238  -11.3271    4.0134 C   0  0  0  0  0  0  0  0  0  0  0  0
  -76.8579  -12.5226    1.9967 H   0  0  0  0  0  0  0  0  0  0  0  0
  -86.4525  -11.3011    5.3651 N   0  0  0  0  0  0  0  0  0  0  0  0
  -86.5778  -10.7515    4.5580 H   0  0  0  0  0  0  0  0  0  0  0  0
  -87.5613  -11.7744    5.9716 C   0  0  0  0  0  0  0  0  0  0  0  0
  -87.7067  -12.5643    7.4074 S   0  0  0  0  0  0  0  0  0  0  0  0
  -88.7947  -11.6620    5.4538 N   0  0  0  0  0  0  0  0  0  0  0  0
  -89.7675  -12.2106    6.2266 C   0  0  0  0  0  0  0  0  0  0  0  0
  -89.3062  -12.7660    7.3640 C   0  0  0  0  0  0  0  0  0  0  0  0
  -89.9687  -13.3889    8.3568 C   0  0  0  0  0  0  0  0  0  0  0  0
  -89.3737  -13.6127    9.4122 O   0  0  0  0  0  0  0  0  0  0  0  0
  -91.2658  -13.7400    8.1581 N   0  0  0  0  0  0  0  0  0  0  0  0
  -91.7072  -13.5703    7.2946 H   0  0  0  0  0  0  0  0  0  0  0  0
  -91.9391  -14.3305    9.1784 C   0  0  0  0  0  0  0  0  0  0  0  0
  -91.9563  -15.7197    9.3176 C   0  0  0  0  0  0  0  0  0  0  0  0
  -91.1276  -16.7640    8.2225 Cl  0  0  0  0  0  0  0  0  0  0  0  0
  -92.6641  -16.2956   10.3681 C   0  0  0  0  0  0  0  0  0  0  0  0
  -93.3497  -15.4963   11.2768 C   0  0  0  0  0  0  0  0  0  0  0  0
  -93.3357  -14.1126   11.1318 C   0  0  0  0  0  0  0  0  0  0  0  0
  -92.6356  -13.5261   10.0818 C   0  0  0  0  0  0  0  0  0  0  0  0
  -92.6447  -12.1419    9.9599 C   0  0  0  0  0  0  0  0  0  0  0  0
 17 16  1  0  0  0
 17 18  1  0  0  0
 15 16  1  0  0  0
 15 14  1  0  0  0
 18 12  1  0  0  0
 18  7  1  0  0  0
 14 12  1  0  0  0
 12 11  1  0  0  0
 12 13  1  0  0  0
  7  8  1  0  0  0
  9  8  2  0  0  0
  8  1  1  0  0  0
  2  1  2  0  0  0
  2  6  1  0  0  0
  1  3  1  0  0  0
 20  6  1  0  0  0
 20 22  1  0  0  0
 24 22  2  0  0  0
 24 25  1  0  0  0
  6  5  2  0  0  0
 22 23  1  0  0  0
 25 26  2  0  0  0
  3  4  2  0  0  0
  5  4  1  0  0  0
 23 26  1  0  0  0
 26 27  1  0  0  0
 33 32  1  0  0  0
 29 27  1  0  0  0
 29 31  1  0  0  0
 27 28  2  0  0  0
 31 32  2  0  0  0
 31 37  1  0  0  0
 32 34  1  0  0  0
 38 37  1  0  0  0
 37 36  2  0  0  0
 34 35  2  0  0  0
 36 35  1  0  0  0
 15 19  1  0  0  0
  7 10  1  0  0  0
 20 21  1  0  0  0
 29 30  1  0  0  0
M  END
> <minimizedAffinity>
-9.69879

$$$$
5NK4_90E_A_1001


 38 41  0  0  0  0  0  0  0  0999 V2000
  -89.1832  -12.7779    7.5004 C   0  0  0  0  0  0  0  0  0  0  0  0
  -88.2136  -13.2981    8.3497 C   0  0  0  0  0  0  0  0  0  0  0  0
  -88.8425  -11.9272    6.4616 C   0  0  0  0  0  0  0  0  0  0  0  0
  -87.5138  -11.6097    6.2445 C   0  0  0  0  0  0  0  0  0  0  0  0
  -86.5461  -12.1420    7.0829 C   0  0  0  0  0  0  0  0  0  0  0  0
  -86.8685  -13.0048    8.1336 C   0  0  0  0  0  0  0  0  0  0  0  0
  -90.7151  -13.9098    8.6861 N   0  0  0  0  0  0  0  0  0  0  0  0
  -90.5282  -13.0307    7.6888 C   0  0  0  0  0  0  0  0  0  0  0  0
  -91.3856  -12.4302    7.0407 O   0  0  0  0  0  0  0  0  0  0  0  0
  -89.8942  -14.3116    9.0522 H   0  0  0  0  0  0  0  0  0  0  0  0
  -91.5853  -16.3942    8.3859 F   0  0  0  0  0  0  0  0  0  0  0  0
  -91.7027  -15.8328    9.5705 C   0  0  0  0  0  0  0  0  0  0  0  0
  -90.4849  -16.0993   10.1878 F   0  0  0  0  0  0  0  0  0  0  0  0
  -92.8523  -16.3878   10.3568 C   0  0  0  0  0  0  0  0  0  0  0  0
  -92.9451  -15.7644   11.6908 N   0  0  0  0  0  0  0  0  0  0  0  0
  -92.2216  -14.4829   11.8146 C   0  0  0  0  0  0  0  0  0  0  0  0
  -92.3961  -13.6071   10.5848 C   0  0  0  0  0  0  0  0  0  0  0  0
  -91.9659  -14.3590    9.3103 C   0  0  0  0  0  0  0  0  0  0  0  0
  -93.9298  -15.5965   11.8971 H   0  0  0  0  0  0  0  0  0  0  0  0
  -85.9784  -13.5470    8.9917 N   0  0  0  0  0  0  0  0  0  0  0  0
  -85.6422  -14.4489    8.7852 H   0  0  0  0  0  0  0  0  0  0  0  0
  -85.5124  -12.9522   10.1098 C   0  0  0  0  0  0  0  0  0  0  0  0
  -84.0954  -12.1516   10.3507 S   0  0  0  0  0  0  0  0  0  0  0  0
  -86.1852  -12.9263   11.2712 N   0  0  0  0  0  0  0  0  0  0  0  0
  -85.5324  -12.2783   12.2705 C   0  0  0  0  0  0  0  0  0  0  0  0
  -84.3320  -11.7888   11.9043 C   0  0  0  0  0  0  0  0  0  0  0  0
  -83.4219  -11.0984   12.6168 C   0  0  0  0  0  0  0  0  0  0  0  0
  -82.4842  -11.7130   13.1278 O   0  0  0  0  0  0  0  0  0  0  0  0
  -83.5700   -9.7537   12.7391 N   0  0  0  0  0  0  0  0  0  0  0  0
  -84.3437   -9.2936   12.3404 H   0  0  0  0  0  0  0  0  0  0  0  0
  -82.6259   -9.0591   13.4243 C   0  0  0  0  0  0  0  0  0  0  0  0
  -81.4496   -8.6397   12.7997 C   0  0  0  0  0  0  0  0  0  0  0  0
  -81.1254   -8.9640   11.1365 Cl  0  0  0  0  0  0  0  0  0  0  0  0
  -80.4963   -7.9384   13.5315 C   0  0  0  0  0  0  0  0  0  0  0  0
  -80.7106   -7.6533   14.8760 C   0  0  0  0  0  0  0  0  0  0  0  0
  -81.8809   -8.0780   15.4970 C   0  0  0  0  0  0  0  0  0  0  0  0
  -82.8388   -8.7848   14.7762 C   0  0  0  0  0  0  0  0  0  0  0  0
  -83.9951   -9.2004   15.4252 C   0  0  0  0  0  0  0  0  0  0  0  0
 17 16  1  0  0  0
 17 18  1  0  0  0
 15 16  1  0  0  0
 15 14  1  0  0  0
 18 12  1  0  0  0
 18  7  1  0  0  0
 14 12  1  0  0  0
 12 11  1  0  0  0
 12 13  1  0  0  0
  7  8  1  0  0  0
  9  8  2  0  0  0
  8  1  1  0  0  0
  2  1  2  0  0  0
  2  6  1  0  0  0
  1  3  1  0  0  0
 20  6  1  0  0  0
 20 22  1  0  0  0
 24 22  2  0  0  0
 24 25  1  0  0  0
  6  5  2  0  0  0
 22 23  1  0  0  0
 25 26  2  0  0  0
  3  4  2  0  0  0
  5  4  1  0  0  0
 23 26  1  0  0  0
 26 27  1  0  0  0
 33 32  1  0  0  0
 29 27  1  0  0  0
 29 31  1  0  0  0
 27 28  2  0  0  0
 31 32  2  0  0  0
 31 37  1  0  0  0
 32 34  1  0  0  0
 38 37  1  0  0  0
 37 36  2  0  0  0
 34 35  2  0  0  0
 36 35  1  0  0  0
 15 19  1  0  0  0
  7 10  1  0  0  0
 20 21  1  0  0  0
 29 30  1  0  0  0
M  END
> <minimizedAffinity>
-9.37843

$$$$
5NK4_90E_A_1001


 38 41  0  0  0  0  0  0  0  0999 V2000
  -90.7890  -12.4667   13.2149 C   0  0  0  0  0  0  0  0  0  0  0  0
  -89.8315  -11.4661   13.0961 C   0  0  0  0  0  0  0  0  0  0  0  0
  -90.8039  -13.3165   14.3087 C   0  0  0  0  0  0  0  0  0  0  0  0
  -89.8699  -13.1526   15.3157 C   0  0  0  0  0  0  0  0  0  0  0  0
  -88.9251  -12.1439   15.2034 C   0  0  0  0  0  0  0  0  0  0  0  0
  -88.8955  -11.2740   14.1105 C   0  0  0  0  0  0  0  0  0  0  0  0
  -91.3447  -13.7209   11.4394 N   0  0  0  0  0  0  0  0  0  0  0  0
  -91.7244  -12.7010   12.2257 C   0  0  0  0  0  0  0  0  0  0  0  0
  -92.7794  -12.0676   12.1843 O   0  0  0  0  0  0  0  0  0  0  0  0
  -90.4400  -14.0696   11.6102 H   0  0  0  0  0  0  0  0  0  0  0  0
  -90.1088  -14.5939    9.2646 F   0  0  0  0  0  0  0  0  0  0  0  0
  -91.0498  -15.3488    9.7906 C   0  0  0  0  0  0  0  0  0  0  0  0
  -90.3763  -16.1045   10.7448 F   0  0  0  0  0  0  0  0  0  0  0  0
  -91.7226  -16.2196    8.7724 C   0  0  0  0  0  0  0  0  0  0  0  0
  -92.7521  -17.0768    9.3906 N   0  0  0  0  0  0  0  0  0  0  0  0
  -93.2065  -16.6193   10.7193 C   0  0  0  0  0  0  0  0  0  0  0  0
  -93.3817  -15.1106   10.7749 C   0  0  0  0  0  0  0  0  0  0  0  0
  -92.0828  -14.3917   10.3619 C   0  0  0  0  0  0  0  0  0  0  0  0
  -93.5602  -17.1046    8.7688 H   0  0  0  0  0  0  0  0  0  0  0  0
  -87.9975  -10.2813   13.9344 N   0  0  0  0  0  0  0  0  0  0  0  0
  -88.2005   -9.4095   14.3443 H   0  0  0  0  0  0  0  0  0  0  0  0
  -86.8442  -10.3879   13.2420 C   0  0  0  0  0  0  0  0  0  0  0  0
  -86.5980  -10.9138   11.7027 S   0  0  0  0  0  0  0  0  0  0  0  0
  -85.6443  -10.0573   13.7451 N   0  0  0  0  0  0  0  0  0  0  0  0
  -84.6145  -10.2457   12.8799 C   0  0  0  0  0  0  0  0  0  0  0  0
  -84.9956  -10.7322   11.6828 C   0  0  0  0  0  0  0  0  0  0  0  0
  -84.2619  -11.0356   10.5956 C   0  0  0  0  0  0  0  0  0  0  0  0
  -83.5226  -12.0203   10.6397 O   0  0  0  0  0  0  0  0  0  0  0  0
  -84.3698  -10.2491    9.4933 N   0  0  0  0  0  0  0  0  0  0  0  0
  -84.9504   -9.4540    9.4964 H   0  0  0  0  0  0  0  0  0  0  0  0
  -83.6581  -10.5854    8.3871 C   0  0  0  0  0  0  0  0  0  0  0  0
  -82.3338  -10.1706    8.2326 C   0  0  0  0  0  0  0  0  0  0  0  0
  -81.5219   -9.2233    9.4241 Cl  0  0  0  0  0  0  0  0  0  0  0  0
  -81.6340  -10.5228    7.0826 C   0  0  0  0  0  0  0  0  0  0  0  0
  -82.2452  -11.2845    6.0921 C   0  0  0  0  0  0  0  0  0  0  0  0
  -83.5668  -11.6910    6.2463 C   0  0  0  0  0  0  0  0  0  0  0  0
  -84.2781  -11.3400    7.3898 C   0  0  0  0  0  0  0  0  0  0  0  0
  -85.5981  -11.7561    7.5129 C   0  0  0  0  0  0  0  0  0  0  0  0
 17 16  1  0  0  0
 17 18  1  0  0  0
 15 16  1  0  0  0
 15 14  1  0  0  0
 18 12  1  0  0  0
 18  7  1  0  0  0
 14 12  1  0  0  0
 12 11  1  0  0  0
 12 13  1  0  0  0
  7  8  1  0  0  0
  9  8  2  0  0  0
  8  1  1  0  0  0
  2  1  2  0  0  0
  2  6  1  0  0  0
  1  3  1  0  0  0
 20  6  1  0  0  0
 20 22  1  0  0  0
 24 22  2  0  0  0
 24 25  1  0  0  0
  6  5  2  0  0  0
 22 23  1  0  0  0
 25 26  2  0  0  0
  3  4  2  0  0  0
  5  4  1  0  0  0
 23 26  1  0  0  0
 26 27  1  0  0  0
 33 32  1  0  0  0
 29 27  1  0  0  0
 29 31  1  0  0  0
 27 28  2  0  0  0
 31 32  2  0  0  0
 31 37  1  0  0  0
 32 34  1  0  0  0
 38 37  1  0  0  0
 37 36  2  0  0  0
 34 35  2  0  0  0
 36 35  1  0  0  0
 15 19  1  0  0  0
  7 10  1  0  0  0
 20 21  1  0  0  0
 29 30  1  0  0  0
M  END
> <minimizedAffinity>
-9.32652

$$$$
5NK4_90E_A_1001


 38 41  0  0  0  0  0  0  0  0999 V2000
  -82.6493  -11.7954    6.8916 C   0  0  0  0  0  0  0  0  0  0  0  0
  -83.8848  -11.7704    6.2552 C   0  0  0  0  0  0  0  0  0  0  0  0
  -82.5034  -11.3333    8.1893 C   0  0  0  0  0  0  0  0  0  0  0  0
  -83.6080  -10.8643    8.8772 C   0  0  0  0  0  0  0  0  0  0  0  0
  -84.8428  -10.8546    8.2465 C   0  0  0  0  0  0  0  0  0  0  0  0
  -85.0118  -11.3199    6.9399 C   0  0  0  0  0  0  0  0  0  0  0  0
  -81.7387  -12.4144    4.9367 N   0  0  0  0  0  0  0  0  0  0  0  0
  -81.5048  -12.2192    6.2442 C   0  0  0  0  0  0  0  0  0  0  0  0
  -80.4313  -12.3064    6.8408 O   0  0  0  0  0  0  0  0  0  0  0  0
  -82.6803  -12.3335    4.6610 H   0  0  0  0  0  0  0  0  0  0  0  0
  -81.5640  -10.8948    2.7734 F   0  0  0  0  0  0  0  0  0  0  0  0
  -80.4505  -11.3610    3.2977 C   0  0  0  0  0  0  0  0  0  0  0  0
  -80.1130  -10.4143    4.2595 F   0  0  0  0  0  0  0  0  0  0  0  0
  -79.3620  -11.5248    2.2798 C   0  0  0  0  0  0  0  0  0  0  0  0
  -78.1163  -12.0201    2.8962 N   0  0  0  0  0  0  0  0  0  0  0  0
  -78.3011  -12.6484    4.2199 C   0  0  0  0  0  0  0  0  0  0  0  0
  -79.5398  -13.5276    4.2671 C   0  0  0  0  0  0  0  0  0  0  0  0
  -80.7940  -12.7311    3.8582 C   0  0  0  0  0  0  0  0  0  0  0  0
  -77.7026  -12.7106    2.2699 H   0  0  0  0  0  0  0  0  0  0  0  0
  -86.1812  -11.3271    6.2652 N   0  0  0  0  0  0  0  0  0  0  0  0
  -86.1925  -10.9073    5.3748 H   0  0  0  0  0  0  0  0  0  0  0  0
  -87.3357  -11.8633    6.7130 C   0  0  0  0  0  0  0  0  0  0  0  0
  -87.6214  -12.7231    8.0863 S   0  0  0  0  0  0  0  0  0  0  0  0
  -88.5020  -11.7668    6.0554 N   0  0  0  0  0  0  0  0  0  0  0  0
  -89.5387  -12.3816    6.6814 C   0  0  0  0  0  0  0  0  0  0  0  0
  -89.1957  -12.9739    7.8417 C   0  0  0  0  0  0  0  0  0  0  0  0
  -89.9478  -13.6631    8.7202 C   0  0  0  0  0  0  0  0  0  0  0  0
  -89.4524  -13.9715    9.8054 O   0  0  0  0  0  0  0  0  0  0  0  0
  -91.2224  -13.9856    8.3785 N   0  0  0  0  0  0  0  0  0  0  0  0
  -91.5826  -13.7472    7.4938 H   0  0  0  0  0  0  0  0  0  0  0  0
  -91.9878  -14.6444    9.2858 C   0  0  0  0  0  0  0  0  0  0  0  0
  -92.7114  -13.9470   10.2552 C   0  0  0  0  0  0  0  0  0  0  0  0
  -92.6883  -12.2250   10.3582 Cl  0  0  0  0  0  0  0  0  0  0  0  0
  -93.4788  -14.6513   11.1778 C   0  0  0  0  0  0  0  0  0  0  0  0
  -93.5291  -16.0408   11.1370 C   0  0  0  0  0  0  0  0  0  0  0  0
  -92.8020  -16.7330   10.1738 C   0  0  0  0  0  0  0  0  0  0  0  0
  -92.0269  -16.0392    9.2494 C   0  0  0  0  0  0  0  0  0  0  0  0
  -91.3075  -16.7585    8.3027 C   0  0  0  0  0  0  0  0  0  0  0  0
 17 16  1  0  0  0
 17 18  1  0  0  0
 15 16  1  0  0  0
 15 14  1  0  0  0
 18 12  1  0  0  0
 18  7  1  0  0  0
 14 12  1  0  0  0
 12 11  1  0  0  0
 12 13  1  0  0  0
  7  8  1  0  0  0
  9  8  2  0  0  0
  8  1  1  0  0  0
  2  1  2  0  0  0
  2  6  1  0  0  0
  1  3  1  0  0  0
 20  6  1  0  0  0
 20 22  1  0  0  0
 24 22  2  0  0  0
 24 25  1  0  0  0
  6  5  2  0  0  0
 22 23  1  0  0  0
 25 26  2  0  0  0
  3  4  2  0  0  0
  5  4  1  0  0  0
 23 26  1  0  0  0
 26 27  1  0  0  0
 33 32  1  0  0  0
 29 27  1  0  0  0
 29 31  1  0  0  0
 27 28  2  0  0  0
 31 32  2  0  0  0
 31 37  1  0  0  0
 32 34  1  0  0  0
 38 37  1  0  0  0
 37 36  2  0  0  0
 34 35  2  0  0  0
 36 35  1  0  0  0
 15 19  1  0  0  0
  7 10  1  0  0  0
 20 21  1  0  0  0
 29 30  1  0  0  0
M  END
> <minimizedAffinity>
-9.14580

$$$$
5NK4_90E_A_1001


 38 41  0  0  0  0  0  0  0  0999 V2000
  -83.3305  -11.3616    5.8674 C   0  0  0  0  0  0  0  0  0  0  0  0
  -83.7937  -11.3084    7.1769 C   0  0  0  0  0  0  0  0  0  0  0  0
  -84.2070  -11.4979    4.8034 C   0  0  0  0  0  0  0  0  0  0  0  0
  -85.5685  -11.5540    5.0410 C   0  0  0  0  0  0  0  0  0  0  0  0
  -86.0301  -11.4850    6.3467 C   0  0  0  0  0  0  0  0  0  0  0  0
  -85.1630  -11.3436    7.4331 C   0  0  0  0  0  0  0  0  0  0  0  0
  -81.5043  -10.0908    5.5777 N   0  0  0  0  0  0  0  0  0  0  0  0
  -81.9814  -11.3457    5.5706 C   0  0  0  0  0  0  0  0  0  0  0  0
  -81.3524  -12.3919    5.4109 O   0  0  0  0  0  0  0  0  0  0  0  0
  -82.1813   -9.3838    5.6835 H   0  0  0  0  0  0  0  0  0  0  0  0
  -80.2864  -10.0250    3.2257 F   0  0  0  0  0  0  0  0  0  0  0  0
  -80.0942   -9.0204    4.0540 C   0  0  0  0  0  0  0  0  0  0  0  0
  -81.1490   -8.1559    3.7799 F   0  0  0  0  0  0  0  0  0  0  0  0
  -78.7673   -8.3535    3.8486 C   0  0  0  0  0  0  0  0  0  0  0  0
  -78.5879   -7.2134    4.7678 N   0  0  0  0  0  0  0  0  0  0  0  0
  -79.4885   -7.2286    5.9382 C   0  0  0  0  0  0  0  0  0  0  0  0
  -79.6409   -8.6228    6.5237 C   0  0  0  0  0  0  0  0  0  0  0  0
  -80.1195   -9.6195    5.4504 C   0  0  0  0  0  0  0  0  0  0  0  0
  -77.6254   -7.2236    5.1053 H   0  0  0  0  0  0  0  0  0  0  0  0
  -85.5452  -11.2824    8.7266 N   0  0  0  0  0  0  0  0  0  0  0  0
  -85.2613  -10.4956    9.2457 H   0  0  0  0  0  0  0  0  0  0  0  0
  -86.2850  -12.2129    9.3652 C   0  0  0  0  0  0  0  0  0  0  0  0
  -87.9006  -12.5076    9.2656 S   0  0  0  0  0  0  0  0  0  0  0  0
  -85.7736  -13.0960   10.2375 N   0  0  0  0  0  0  0  0  0  0  0  0
  -86.6948  -13.9412   10.7681 C   0  0  0  0  0  0  0  0  0  0  0  0
  -87.9469  -13.7280   10.3189 C   0  0  0  0  0  0  0  0  0  0  0  0
  -89.0959  -14.3634   10.6165 C   0  0  0  0  0  0  0  0  0  0  0  0
  -89.1267  -15.0903   11.6109 O   0  0  0  0  0  0  0  0  0  0  0  0
  -90.1751  -14.1740    9.8136 N   0  0  0  0  0  0  0  0  0  0  0  0
  -90.1130  -13.6067    9.0114 H   0  0  0  0  0  0  0  0  0  0  0  0
  -91.3415  -14.7855   10.1436 C   0  0  0  0  0  0  0  0  0  0  0  0
  -92.2075  -14.2200   11.0817 C   0  0  0  0  0  0  0  0  0  0  0  0
  -91.8622  -12.7233   11.8671 Cl  0  0  0  0  0  0  0  0  0  0  0  0
  -93.3909  -14.8761   11.4064 C   0  0  0  0  0  0  0  0  0  0  0  0
  -93.7137  -16.0863   10.8014 C   0  0  0  0  0  0  0  0  0  0  0  0
  -92.8457  -16.6501    9.8717 C   0  0  0  0  0  0  0  0  0  0  0  0
  -91.6569  -16.0055    9.5433 C   0  0  0  0  0  0  0  0  0  0  0  0
  -90.8077  -16.5959    8.6152 C   0  0  0  0  0  0  0  0  0  0  0  0
 17 16  1  0  0  0
 17 18  1  0  0  0
 15 16  1  0  0  0
 15 14  1  0  0  0
 18 12  1  0  0  0
 18  7  1  0  0  0
 14 12  1  0  0  0
 12 11  1  0  0  0
 12 13  1  0  0  0
  7  8  1  0  0  0
  9  8  2  0  0  0
  8  1  1  0  0  0
  2  1  2  0  0  0
  2  6  1  0  0  0
  1  3  1  0  0  0
 20  6  1  0  0  0
 20 22  1  0  0  0
 24 22  2  0  0  0
 24 25  1  0  0  0
  6  5  2  0  0  0
 22 23  1  0  0  0
 25 26  2  0  0  0
  3  4  2  0  0  0
  5  4  1  0  0  0
 23 26  1  0  0  0
 26 27  1  0  0  0
 33 32  1  0  0  0
 29 27  1  0  0  0
 29 31  1  0  0  0
 27 28  2  0  0  0
 31 32  2  0  0  0
 31 37  1  0  0  0
 32 34  1  0  0  0
 38 37  1  0  0  0
 37 36  2  0  0  0
 34 35  2  0  0  0
 36 35  1  0  0  0
 15 19  1  0  0  0
  7 10  1  0  0  0
 20 21  1  0  0  0
 29 30  1  0  0  0
M  END
> <minimizedAffinity>
-9.09382

$$$$
