6H34_FKK_A_302


 28 30  0  0  0  0  0  0  0  0999 V2000
   -3.5923    5.7344   12.6749 N   0  0  0  0  0  0  0  0  0  0  0  0
   -0.9026    6.3966   11.9536 N   0  0  0  0  0  0  0  0  0  0  0  0
   -5.8055    5.9589   12.4171 O   0  0  0  0  0  0  0  0  0  0  0  0
   -4.8615    5.4517   13.0018 C   0  0  0  0  0  0  0  0  0  0  0  0
   -2.5101    5.6383   13.6533 C   0  0  0  0  0  0  0  0  0  0  0  0
   -1.2115    5.3485   12.9335 C   0  0  0  0  0  0  0  0  0  0  0  0
   -3.3084    6.8323   11.7511 C   0  0  0  0  0  0  0  0  0  0  0  0
   -2.0217    6.5458   11.0171 C   0  0  0  0  0  0  0  0  0  0  0  0
   -5.8328    2.5897   16.0093 C   0  0  0  0  0  0  0  0  0  0  0  0
   -6.4386    3.8340   16.0136 C   0  0  0  0  0  0  0  0  0  0  0  0
   -6.0821    4.7663   15.0622 C   0  0  0  0  0  0  0  0  0  0  0  0
   -4.8653    2.2770   15.0658 C   0  0  0  0  0  0  0  0  0  0  0  0
   -4.5150    3.2221   14.1145 C   0  0  0  0  0  0  0  0  0  0  0  0
   -5.1257    4.4738   14.1004 C   0  0  0  0  0  0  0  0  0  0  0  0
   -6.0974    1.9336   18.4850 O   0  0  0  0  0  0  0  0  0  0  0  0
   -6.3597    1.3924   17.1834 S   0  0  0  0  0  0  0  0  0  0  0  0
   -7.7105    1.0544   16.8462 O   0  0  0  0  0  0  0  0  0  0  0  0
   -5.4736    0.0687   17.0203 N   0  0  0  0  0  0  0  0  0  0  0  0
   -5.6394   -0.3403   16.1007 H   0  0  0  0  0  0  0  0  0  0  0  0
   -5.7308   -0.6038   17.7429 H   0  0  0  0  0  0  0  0  0  0  0  0
    0.3338    6.0803   11.2231 C   0  0  0  0  0  0  0  0  0  0  0  0
    1.5876    6.4413   11.9821 C   0  0  0  0  0  0  0  0  0  0  0  0
    1.7647    7.7198   12.4889 C   0  0  0  0  0  0  0  0  0  0  0  0
    2.8754    8.0400   13.2500 C   0  0  0  0  0  0  0  0  0  0  0  0
    3.7993    7.0598   13.4880 C   0  0  0  0  0  0  0  0  0  0  0  0
    4.8834    7.3595   14.2532 F   0  0  0  0  0  0  0  0  0  0  0  0
    3.6728    5.7871   13.0027 C   0  0  0  0  0  0  0  0  0  0  0  0
    2.5556    5.4842   12.2458 C   0  0  0  0  0  0  0  0  0  0  0  0
  8  7  1  0  0  0
  8  2  1  0  0  0
 21  2  1  0  0  0
 21 22  1  0  0  0
  7  1  1  0  0  0
  2  6  1  0  0  0
 22 23  2  0  0  0
 22 28  1  0  0  0
 23 24  1  0  0  0
  3  4  2  0  0  0
 28 27  2  0  0  0
  1  4  1  0  0  0
  1  5  1  0  0  0
  6  5  1  0  0  0
  4 14  1  0  0  0
 24 25  2  0  0  0
 27 25  1  0  0  0
 25 26  1  0  0  0
 14 13  2  0  0  0
 14 11  1  0  0  0
 13 12  1  0  0  0
 11 10  2  0  0  0
 12  9  2  0  0  0
 10  9  1  0  0  0
  9 16  1  0  0  0
 18 16  1  0  0  0
 16 17  2  0  0  0
 16 15  2  0  0  0
 18 19  1  0  0  0
 18 20  1  0  0  0
M  END
> <minimizedAffinity>
-8.36903

$$$$
6H34_FKK_A_302


 28 30  0  0  0  0  0  0  0  0999 V2000
   -3.1052    3.4286   11.5115 N   0  0  0  0  0  0  0  0  0  0  0  0
   -0.5418    4.5664   10.9392 N   0  0  0  0  0  0  0  0  0  0  0  0
   -5.1288    2.7231   10.8617 O   0  0  0  0  0  0  0  0  0  0  0  0
   -4.3174    2.9097   11.7545 C   0  0  0  0  0  0  0  0  0  0  0  0
   -2.3761    4.1810   12.5313 C   0  0  0  0  0  0  0  0  0  0  0  0
   -0.8905    4.0612   12.2723 C   0  0  0  0  0  0  0  0  0  0  0  0
   -2.8078    3.9918   10.1948 C   0  0  0  0  0  0  0  0  0  0  0  0
   -1.3296    3.8639    9.9205 C   0  0  0  0  0  0  0  0  0  0  0  0
   -5.5718    1.7487   15.6607 C   0  0  0  0  0  0  0  0  0  0  0  0
   -5.9862    2.9575   15.1291 C   0  0  0  0  0  0  0  0  0  0  0  0
   -5.5368    3.3413   13.8833 C   0  0  0  0  0  0  0  0  0  0  0  0
   -4.7022    0.9276   14.9579 C   0  0  0  0  0  0  0  0  0  0  0  0
   -4.2571    1.3240   13.7067 C   0  0  0  0  0  0  0  0  0  0  0  0
   -4.6761    2.5323   13.1551 C   0  0  0  0  0  0  0  0  0  0  0  0
   -7.5888    0.8786   17.0038 O   0  0  0  0  0  0  0  0  0  0  0  0
   -6.2192    1.2463   17.2156 S   0  0  0  0  0  0  0  0  0  0  0  0
   -5.3211    0.2574   17.7334 O   0  0  0  0  0  0  0  0  0  0  0  0
   -6.2008    2.4920   18.2217 N   0  0  0  0  0  0  0  0  0  0  0  0
   -5.2365    2.7772   18.3921 H   0  0  0  0  0  0  0  0  0  0  0  0
   -6.6368    2.2231   19.1037 H   0  0  0  0  0  0  0  0  0  0  0  0
    0.8953    4.3985   10.6766 C   0  0  0  0  0  0  0  0  0  0  0  0
    1.7647    5.3373   11.4772 C   0  0  0  0  0  0  0  0  0  0  0  0
    1.4124    6.6695   11.6318 C   0  0  0  0  0  0  0  0  0  0  0  0
    2.1622    7.5202   12.4252 C   0  0  0  0  0  0  0  0  0  0  0  0
    3.2659    7.0119   13.0533 C   0  0  0  0  0  0  0  0  0  0  0  0
    3.9966    7.8352   13.8525 F   0  0  0  0  0  0  0  0  0  0  0  0
    3.6582    5.7077   12.9247 C   0  0  0  0  0  0  0  0  0  0  0  0
    2.8961    4.8712   12.1296 C   0  0  0  0  0  0  0  0  0  0  0  0
  8  7  1  0  0  0
  8  2  1  0  0  0
 21  2  1  0  0  0
 21 22  1  0  0  0
  7  1  1  0  0  0
  2  6  1  0  0  0
 22 23  2  0  0  0
 22 28  1  0  0  0
 23 24  1  0  0  0
  3  4  2  0  0  0
 28 27  2  0  0  0
  1  4  1  0  0  0
  1  5  1  0  0  0
  6  5  1  0  0  0
  4 14  1  0  0  0
 24 25  2  0  0  0
 27 25  1  0  0  0
 25 26  1  0  0  0
 14 13  2  0  0  0
 14 11  1  0  0  0
 13 12  1  0  0  0
 11 10  2  0  0  0
 12  9  2  0  0  0
 10  9  1  0  0  0
  9 16  1  0  0  0
 18 16  1  0  0  0
 16 17  2  0  0  0
 16 15  2  0  0  0
 18 19  1  0  0  0
 18 20  1  0  0  0
M  END
> <minimizedAffinity>
-8.35053

$$$$
6H34_FKK_A_302


 28 30  0  0  0  0  0  0  0  0999 V2000
   -3.7010    6.2755   13.0977 N   0  0  0  0  0  0  0  0  0  0  0  0
   -1.3719    7.9372   13.1821 N   0  0  0  0  0  0  0  0  0  0  0  0
   -5.5918    5.5950   12.1095 O   0  0  0  0  0  0  0  0  0  0  0  0
   -4.8061    5.5185   13.0406 C   0  0  0  0  0  0  0  0  0  0  0  0
   -3.0876    6.6397   14.3740 C   0  0  0  0  0  0  0  0  0  0  0  0
   -1.6077    6.8747   14.1668 C   0  0  0  0  0  0  0  0  0  0  0  0
   -3.5250    7.3750   12.1493 C   0  0  0  0  0  0  0  0  0  0  0  0
   -2.0514    7.6080   11.9245 C   0  0  0  0  0  0  0  0  0  0  0  0
   -5.7473    2.6199   16.0226 C   0  0  0  0  0  0  0  0  0  0  0  0
   -6.5313    3.7517   15.8828 C   0  0  0  0  0  0  0  0  0  0  0  0
   -6.1896    4.7030   14.9449 C   0  0  0  0  0  0  0  0  0  0  0  0
   -4.6180    2.4399   15.2375 C   0  0  0  0  0  0  0  0  0  0  0  0
   -4.2843    3.4029   14.2982 C   0  0  0  0  0  0  0  0  0  0  0  0
   -5.0717    4.5407   14.1390 C   0  0  0  0  0  0  0  0  0  0  0  0
   -5.9535    1.8857   18.4819 O   0  0  0  0  0  0  0  0  0  0  0  0
   -6.2467    1.3860   17.1704 S   0  0  0  0  0  0  0  0  0  0  0  0
   -7.6053    1.0584   16.8548 O   0  0  0  0  0  0  0  0  0  0  0  0
   -5.3654    0.0683   16.9446 N   0  0  0  0  0  0  0  0  0  0  0  0
   -5.5531   -0.3115   16.0167 H   0  0  0  0  0  0  0  0  0  0  0  0
   -5.6057   -0.6268   17.6514 H   0  0  0  0  0  0  0  0  0  0  0  0
    0.0682    8.1230   12.9492 C   0  0  0  0  0  0  0  0  0  0  0  0
    0.7119    9.0883   13.9146 C   0  0  0  0  0  0  0  0  0  0  0  0
    2.0832    9.2940   13.9010 C   0  0  0  0  0  0  0  0  0  0  0  0
    2.6741   10.2314   14.7302 C   0  0  0  0  0  0  0  0  0  0  0  0
    1.8678   10.9508   15.5689 C   0  0  0  0  0  0  0  0  0  0  0  0
    2.4372   11.8897   16.3720 F   0  0  0  0  0  0  0  0  0  0  0  0
    0.5120   10.7778   15.6244 C   0  0  0  0  0  0  0  0  0  0  0  0
   -0.0618    9.8382   14.7873 C   0  0  0  0  0  0  0  0  0  0  0  0
  8  7  1  0  0  0
  8  2  1  0  0  0
 21  2  1  0  0  0
 21 22  1  0  0  0
  7  1  1  0  0  0
  2  6  1  0  0  0
 22 23  2  0  0  0
 22 28  1  0  0  0
 23 24  1  0  0  0
  3  4  2  0  0  0
 28 27  2  0  0  0
  1  4  1  0  0  0
  1  5  1  0  0  0
  6  5  1  0  0  0
  4 14  1  0  0  0
 24 25  2  0  0  0
 27 25  1  0  0  0
 25 26  1  0  0  0
 14 13  2  0  0  0
 14 11  1  0  0  0
 13 12  1  0  0  0
 11 10  2  0  0  0
 12  9  2  0  0  0
 10  9  1  0  0  0
  9 16  1  0  0  0
 18 16  1  0  0  0
 16 17  2  0  0  0
 16 15  2  0  0  0
 18 19  1  0  0  0
 18 20  1  0  0  0
M  END
> <minimizedAffinity>
-8.08825

$$$$
6H34_FKK_A_302


 28 30  0  0  0  0  0  0  0  0999 V2000
   -3.7096    5.8800   12.9981 N   0  0  0  0  0  0  0  0  0  0  0  0
   -0.9358    6.5542   12.7873 N   0  0  0  0  0  0  0  0  0  0  0  0
   -5.8481    6.1562   12.3936 O   0  0  0  0  0  0  0  0  0  0  0  0
   -5.0162    5.5925   13.0867 C   0  0  0  0  0  0  0  0  0  0  0  0
   -2.8063    5.6945   14.1328 C   0  0  0  0  0  0  0  0  0  0  0  0
   -1.4063    5.4403   13.6191 C   0  0  0  0  0  0  0  0  0  0  0  0
   -3.2730    7.0397   12.2213 C   0  0  0  0  0  0  0  0  0  0  0  0
   -1.8824    6.7900   11.6918 C   0  0  0  0  0  0  0  0  0  0  0  0
   -6.0574    2.6087   15.9490 C   0  0  0  0  0  0  0  0  0  0  0  0
   -5.2781    2.2784   14.8541 C   0  0  0  0  0  0  0  0  0  0  0  0
   -4.9863    3.2425   13.9124 C   0  0  0  0  0  0  0  0  0  0  0  0
   -6.5552    3.8944   16.1012 C   0  0  0  0  0  0  0  0  0  0  0  0
   -6.2556    4.8551   15.1482 C   0  0  0  0  0  0  0  0  0  0  0  0
   -5.4623    4.5389   14.0479 C   0  0  0  0  0  0  0  0  0  0  0  0
   -6.0129    1.9637   18.4413 O   0  0  0  0  0  0  0  0  0  0  0  0
   -6.3506    1.3832   17.1745 S   0  0  0  0  0  0  0  0  0  0  0  0
   -7.6903    0.9164   16.9751 O   0  0  0  0  0  0  0  0  0  0  0  0
   -5.3644    0.1458   16.9291 N   0  0  0  0  0  0  0  0  0  0  0  0
   -5.5812   -0.2891   16.0323 H   0  0  0  0  0  0  0  0  0  0  0  0
   -5.4845   -0.5380   17.6764 H   0  0  0  0  0  0  0  0  0  0  0  0
    0.4046    6.2753   12.2507 C   0  0  0  0  0  0  0  0  0  0  0  0
    0.3818    5.5311   10.9377 C   0  0  0  0  0  0  0  0  0  0  0  0
    0.6724    6.1835    9.7492 C   0  0  0  0  0  0  0  0  0  0  0  0
    0.7277    5.4948    8.5501 C   0  0  0  0  0  0  0  0  0  0  0  0
    0.4844    4.1488    8.5669 C   0  0  0  0  0  0  0  0  0  0  0  0
    0.5578    3.4597    7.3963 F   0  0  0  0  0  0  0  0  0  0  0  0
    0.1853    3.4629    9.7121 C   0  0  0  0  0  0  0  0  0  0  0  0
    0.1364    4.1668   10.9017 C   0  0  0  0  0  0  0  0  0  0  0  0
  8  7  1  0  0  0
  8  2  1  0  0  0
 21  2  1  0  0  0
 21 22  1  0  0  0
  7  1  1  0  0  0
  2  6  1  0  0  0
 22 23  2  0  0  0
 22 28  1  0  0  0
 23 24  1  0  0  0
  3  4  2  0  0  0
 28 27  2  0  0  0
  1  4  1  0  0  0
  1  5  1  0  0  0
  6  5  1  0  0  0
  4 14  1  0  0  0
 24 25  2  0  0  0
 27 25  1  0  0  0
 25 26  1  0  0  0
 14 13  2  0  0  0
 14 11  1  0  0  0
 13 12  1  0  0  0
 11 10  2  0  0  0
 12  9  2  0  0  0
 10  9  1  0  0  0
  9 16  1  0  0  0
 18 16  1  0  0  0
 16 17  2  0  0  0
 16 15  2  0  0  0
 18 19  1  0  0  0
 18 20  1  0  0  0
M  END
> <minimizedAffinity>
-7.62153

$$$$
6H34_FKK_A_302


 28 30  0  0  0  0  0  0  0  0999 V2000
   -3.1745    4.8285   12.3012 N   0  0  0  0  0  0  0  0  0  0  0  0
   -0.7450    6.3380   12.1918 N   0  0  0  0  0  0  0  0  0  0  0  0
   -5.0313    4.0255   11.3408 O   0  0  0  0  0  0  0  0  0  0  0  0
   -4.3237    4.1384   12.3291 C   0  0  0  0  0  0  0  0  0  0  0  0
   -2.6321    5.4613   13.5025 C   0  0  0  0  0  0  0  0  0  0  0  0
   -1.1280    5.5619   13.3772 C   0  0  0  0  0  0  0  0  0  0  0  0
   -2.8511    5.6522   11.1367 C   0  0  0  0  0  0  0  0  0  0  0  0
   -1.3520    5.7469   10.9942 C   0  0  0  0  0  0  0  0  0  0  0  0
   -5.7238    2.1600   15.8370 C   0  0  0  0  0  0  0  0  0  0  0  0
   -6.2062    3.4148   15.5084 C   0  0  0  0  0  0  0  0  0  0  0  0
   -5.7118    4.0627   14.3961 C   0  0  0  0  0  0  0  0  0  0  0  0
   -4.7424    1.5549   15.0657 C   0  0  0  0  0  0  0  0  0  0  0  0
   -4.2530    2.2157   13.9501 C   0  0  0  0  0  0  0  0  0  0  0  0
   -4.7386    3.4737   13.6015 C   0  0  0  0  0  0  0  0  0  0  0  0
   -6.1628    2.1235   18.3738 O   0  0  0  0  0  0  0  0  0  0  0  0
   -6.4249    1.3223   17.2140 S   0  0  0  0  0  0  0  0  0  0  0  0
   -7.7882    1.0431   16.8733 O   0  0  0  0  0  0  0  0  0  0  0  0
   -5.6783   -0.0801   17.4138 N   0  0  0  0  0  0  0  0  0  0  0  0
   -5.8469   -0.6738   16.6018 H   0  0  0  0  0  0  0  0  0  0  0  0
   -6.0363   -0.5396   18.2512 H   0  0  0  0  0  0  0  0  0  0  0  0
    0.7179    6.3867   12.0498 C   0  0  0  0  0  0  0  0  0  0  0  0
    1.2202    5.7255   10.7894 C   0  0  0  0  0  0  0  0  0  0  0  0
    1.4850    6.4758    9.6537 C   0  0  0  0  0  0  0  0  0  0  0  0
    2.0165    5.8908    8.5177 C   0  0  0  0  0  0  0  0  0  0  0  0
    2.2724    4.5473    8.5429 C   0  0  0  0  0  0  0  0  0  0  0  0
    2.8150    3.9676    7.4383 F   0  0  0  0  0  0  0  0  0  0  0  0
    2.0204    3.7642    9.6358 C   0  0  0  0  0  0  0  0  0  0  0  0
    1.4911    4.3658   10.7631 C   0  0  0  0  0  0  0  0  0  0  0  0
  8  7  1  0  0  0
  8  2  1  0  0  0
 21  2  1  0  0  0
 21 22  1  0  0  0
  7  1  1  0  0  0
  2  6  1  0  0  0
 22 23  2  0  0  0
 22 28  1  0  0  0
 23 24  1  0  0  0
  3  4  2  0  0  0
 28 27  2  0  0  0
  1  4  1  0  0  0
  1  5  1  0  0  0
  6  5  1  0  0  0
  4 14  1  0  0  0
 24 25  2  0  0  0
 27 25  1  0  0  0
 25 26  1  0  0  0
 14 13  2  0  0  0
 14 11  1  0  0  0
 13 12  1  0  0  0
 11 10  2  0  0  0
 12  9  2  0  0  0
 10  9  1  0  0  0
  9 16  1  0  0  0
 18 16  1  0  0  0
 16 17  2  0  0  0
 16 15  2  0  0  0
 18 19  1  0  0  0
 18 20  1  0  0  0
M  END
> <minimizedAffinity>
-7.53247

$$$$
6H34_FKK_A_302


 28 30  0  0  0  0  0  0  0  0999 V2000
   -1.8910    5.3905   12.1532 N   0  0  0  0  0  0  0  0  0  0  0  0
   -3.9292    4.1657   13.7463 N   0  0  0  0  0  0  0  0  0  0  0  0
   -0.9806    5.8776   10.1659 O   0  0  0  0  0  0  0  0  0  0  0  0
   -0.9421    5.9439   11.3843 C   0  0  0  0  0  0  0  0  0  0  0  0
   -1.6080    4.9447   13.5166 C   0  0  0  0  0  0  0  0  0  0  0  0
   -2.8789    5.0052   14.3347 C   0  0  0  0  0  0  0  0  0  0  0  0
   -2.8828    4.4991   11.5525 C   0  0  0  0  0  0  0  0  0  0  0  0
   -4.1600    4.5631   12.3533 C   0  0  0  0  0  0  0  0  0  0  0  0
    2.3339    8.1322   13.0150 C   0  0  0  0  0  0  0  0  0  0  0  0
    2.5499    6.9051   12.4125 C   0  0  0  0  0  0  0  0  0  0  0  0
    1.4763    6.1871   11.9296 C   0  0  0  0  0  0  0  0  0  0  0  0
    1.0496    8.6395   13.1467 C   0  0  0  0  0  0  0  0  0  0  0  0
   -0.0218    7.9088   12.6577 C   0  0  0  0  0  0  0  0  0  0  0  0
    0.1830    6.6782   12.0384 C   0  0  0  0  0  0  0  0  0  0  0  0
    3.2249   10.1522   14.3397 O   0  0  0  0  0  0  0  0  0  0  0  0
    3.7246    9.0630   13.5524 S   0  0  0  0  0  0  0  0  0  0  0  0
    4.6257    8.1351   14.1685 O   0  0  0  0  0  0  0  0  0  0  0  0
    4.4668    9.6858   12.2775 N   0  0  0  0  0  0  0  0  0  0  0  0
    4.8342    8.9323   11.6964 H   0  0  0  0  0  0  0  0  0  0  0  0
    5.2347   10.2809   12.5882 H   0  0  0  0  0  0  0  0  0  0  0  0
   -5.1759    4.2710   14.5190 C   0  0  0  0  0  0  0  0  0  0  0  0
   -5.4760    3.0427   15.3433 C   0  0  0  0  0  0  0  0  0  0  0  0
   -4.6447    1.9341   15.2899 C   0  0  0  0  0  0  0  0  0  0  0  0
   -4.8687    0.8325   16.0971 C   0  0  0  0  0  0  0  0  0  0  0  0
   -5.9373    0.8642   16.9505 C   0  0  0  0  0  0  0  0  0  0  0  0
   -6.1527   -0.2052   17.7633 F   0  0  0  0  0  0  0  0  0  0  0  0
   -6.7899    1.9308   17.0329 C   0  0  0  0  0  0  0  0  0  0  0  0
   -6.5498    3.0239   16.2204 C   0  0  0  0  0  0  0  0  0  0  0  0
  8  7  1  0  0  0
  8  2  1  0  0  0
 21  2  1  0  0  0
 21 22  1  0  0  0
  7  1  1  0  0  0
  2  6  1  0  0  0
 22 23  2  0  0  0
 22 28  1  0  0  0
 23 24  1  0  0  0
  3  4  2  0  0  0
 28 27  2  0  0  0
  1  4  1  0  0  0
  1  5  1  0  0  0
  6  5  1  0  0  0
  4 14  1  0  0  0
 24 25  2  0  0  0
 27 25  1  0  0  0
 25 26  1  0  0  0
 14 13  2  0  0  0
 14 11  1  0  0  0
 13 12  1  0  0  0
 11 10  2  0  0  0
 12  9  2  0  0  0
 10  9  1  0  0  0
  9 16  1  0  0  0
 18 16  1  0  0  0
 16 17  2  0  0  0
 16 15  2  0  0  0
 18 19  1  0  0  0
 18 20  1  0  0  0
M  END
> <minimizedAffinity>
-7.45958

$$$$
6H34_FKK_A_302


 28 30  0  0  0  0  0  0  0  0999 V2000
   -0.9603    3.7247   11.2126 N   0  0  0  0  0  0  0  0  0  0  0  0
   -3.3275    2.9044   12.5969 N   0  0  0  0  0  0  0  0  0  0  0  0
    0.4704    3.5523    9.4984 O   0  0  0  0  0  0  0  0  0  0  0  0
    0.1503    4.0809   10.5512 C   0  0  0  0  0  0  0  0  0  0  0  0
   -1.0700    3.8777   12.6625 C   0  0  0  0  0  0  0  0  0  0  0  0
   -2.5253    4.0521   13.0367 C   0  0  0  0  0  0  0  0  0  0  0  0
   -1.7011    2.5338   10.7979 C   0  0  0  0  0  0  0  0  0  0  0  0
   -3.1574    2.7039   11.1537 C   0  0  0  0  0  0  0  0  0  0  0  0
    2.4527    7.1786   12.3632 C   0  0  0  0  0  0  0  0  0  0  0  0
    1.2487    7.4770   11.7494 C   0  0  0  0  0  0  0  0  0  0  0  0
    0.5361    6.4734   11.1279 C   0  0  0  0  0  0  0  0  0  0  0  0
    2.9526    5.8847   12.3491 C   0  0  0  0  0  0  0  0  0  0  0  0
    2.2276    4.8842   11.7212 C   0  0  0  0  0  0  0  0  0  0  0  0
    1.0087    5.1688   11.1103 C   0  0  0  0  0  0  0  0  0  0  0  0
    2.3131    9.2578   13.8754 O   0  0  0  0  0  0  0  0  0  0  0  0
    3.3038    8.4590   13.2150 S   0  0  0  0  0  0  0  0  0  0  0  0
    4.3084    7.8224   14.0140 O   0  0  0  0  0  0  0  0  0  0  0  0
    4.0510    9.3938   12.1511 N   0  0  0  0  0  0  0  0  0  0  0  0
    4.7642    8.8514   11.6636 H   0  0  0  0  0  0  0  0  0  0  0  0
    4.4909   10.1761   12.6357 H   0  0  0  0  0  0  0  0  0  0  0  0
   -4.7481    3.1062   12.9189 C   0  0  0  0  0  0  0  0  0  0  0  0
   -5.1205    2.6406   14.3055 C   0  0  0  0  0  0  0  0  0  0  0  0
   -4.4106    1.6231   14.9249 C   0  0  0  0  0  0  0  0  0  0  0  0
   -4.6957    1.2402   16.2239 C   0  0  0  0  0  0  0  0  0  0  0  0
   -5.7017    1.8917   16.8830 C   0  0  0  0  0  0  0  0  0  0  0  0
   -5.9746    1.5368   18.1676 F   0  0  0  0  0  0  0  0  0  0  0  0
   -6.4353    2.8951   16.3116 C   0  0  0  0  0  0  0  0  0  0  0  0
   -6.1354    3.2662   15.0134 C   0  0  0  0  0  0  0  0  0  0  0  0
  8  7  1  0  0  0
  8  2  1  0  0  0
 21  2  1  0  0  0
 21 22  1  0  0  0
  7  1  1  0  0  0
  2  6  1  0  0  0
 22 23  2  0  0  0
 22 28  1  0  0  0
 23 24  1  0  0  0
  3  4  2  0  0  0
 28 27  2  0  0  0
  1  4  1  0  0  0
  1  5  1  0  0  0
  6  5  1  0  0  0
  4 14  1  0  0  0
 24 25  2  0  0  0
 27 25  1  0  0  0
 25 26  1  0  0  0
 14 13  2  0  0  0
 14 11  1  0  0  0
 13 12  1  0  0  0
 11 10  2  0  0  0
 12  9  2  0  0  0
 10  9  1  0  0  0
  9 16  1  0  0  0
 18 16  1  0  0  0
 16 17  2  0  0  0
 16 15  2  0  0  0
 18 19  1  0  0  0
 18 20  1  0  0  0
M  END
> <minimizedAffinity>
-7.39149

$$$$
6H34_FKK_A_302


 28 30  0  0  0  0  0  0  0  0999 V2000
   -3.6106    5.6404   12.9026 N   0  0  0  0  0  0  0  0  0  0  0  0
   -0.8172    6.1644   12.5634 N   0  0  0  0  0  0  0  0  0  0  0  0
   -5.7561    6.0225   12.3870 O   0  0  0  0  0  0  0  0  0  0  0  0
   -4.9254    5.4235   13.0513 C   0  0  0  0  0  0  0  0  0  0  0  0
   -2.6695    5.4202   13.9997 C   0  0  0  0  0  0  0  0  0  0  0  0
   -1.3086    5.0864   13.4297 C   0  0  0  0  0  0  0  0  0  0  0  0
   -3.1483    6.7665   12.0920 C   0  0  0  0  0  0  0  0  0  0  0  0
   -1.7971    6.4376   11.5066 C   0  0  0  0  0  0  0  0  0  0  0  0
   -6.0030    2.5474   16.0089 C   0  0  0  0  0  0  0  0  0  0  0  0
   -5.2074    2.1778   14.9385 C   0  0  0  0  0  0  0  0  0  0  0  0
   -4.9037    3.1063   13.9654 C   0  0  0  0  0  0  0  0  0  0  0  0
   -6.5051    3.8370   16.1053 C   0  0  0  0  0  0  0  0  0  0  0  0
   -6.1932    4.7616   15.1211 C   0  0  0  0  0  0  0  0  0  0  0  0
   -5.3836    4.4059   14.0450 C   0  0  0  0  0  0  0  0  0  0  0  0
   -7.6313    0.8512   17.0579 O   0  0  0  0  0  0  0  0  0  0  0  0
   -6.3119    1.3685   17.2754 S   0  0  0  0  0  0  0  0  0  0  0  0
   -5.2104    0.4524   17.2601 O   0  0  0  0  0  0  0  0  0  0  0  0
   -6.3081    2.1075   18.6959 N   0  0  0  0  0  0  0  0  0  0  0  0
   -5.3793    2.4873   18.8791 H   0  0  0  0  0  0  0  0  0  0  0  0
   -6.5527    1.4399   19.4272 H   0  0  0  0  0  0  0  0  0  0  0  0
    0.4820    5.8089   11.9734 C   0  0  0  0  0  0  0  0  0  0  0  0
    1.3472    7.0061   11.6629 C   0  0  0  0  0  0  0  0  0  0  0  0
    1.7668    7.2588   10.3656 C   0  0  0  0  0  0  0  0  0  0  0  0
    2.4969    8.3936   10.0583 C   0  0  0  0  0  0  0  0  0  0  0  0
    2.7979    9.2617   11.0716 C   0  0  0  0  0  0  0  0  0  0  0  0
    3.4966   10.3907   10.7751 F   0  0  0  0  0  0  0  0  0  0  0  0
    2.4137    9.0515   12.3676 C   0  0  0  0  0  0  0  0  0  0  0  0
    1.6829    7.9134   12.6563 C   0  0  0  0  0  0  0  0  0  0  0  0
  8  7  1  0  0  0
  8  2  1  0  0  0
 21  2  1  0  0  0
 21 22  1  0  0  0
  7  1  1  0  0  0
  2  6  1  0  0  0
 22 23  2  0  0  0
 22 28  1  0  0  0
 23 24  1  0  0  0
  3  4  2  0  0  0
 28 27  2  0  0  0
  1  4  1  0  0  0
  1  5  1  0  0  0
  6  5  1  0  0  0
  4 14  1  0  0  0
 24 25  2  0  0  0
 27 25  1  0  0  0
 25 26  1  0  0  0
 14 13  2  0  0  0
 14 11  1  0  0  0
 13 12  1  0  0  0
 11 10  2  0  0  0
 12  9  2  0  0  0
 10  9  1  0  0  0
  9 16  1  0  0  0
 18 16  1  0  0  0
 16 17  2  0  0  0
 16 15  2  0  0  0
 18 19  1  0  0  0
 18 20  1  0  0  0
M  END
> <minimizedAffinity>
-7.26838

$$$$
6H34_FKK_A_302


 28 30  0  0  0  0  0  0  0  0999 V2000
   -1.3663    4.6432   11.8798 N   0  0  0  0  0  0  0  0  0  0  0  0
   -3.1569    2.7423   13.0517 N   0  0  0  0  0  0  0  0  0  0  0  0
    0.1820    5.2049   10.3625 O   0  0  0  0  0  0  0  0  0  0  0  0
   -0.5100    5.5103   11.3207 C   0  0  0  0  0  0  0  0  0  0  0  0
   -1.7457    4.7424   13.2883 C   0  0  0  0  0  0  0  0  0  0  0  0
   -3.1234    4.1467   13.4767 C   0  0  0  0  0  0  0  0  0  0  0  0
   -1.3294    3.2339   11.4905 C   0  0  0  0  0  0  0  0  0  0  0  0
   -2.7031    2.6337   11.6610 C   0  0  0  0  0  0  0  0  0  0  0  0
   -0.3517    9.3710   13.1233 C   0  0  0  0  0  0  0  0  0  0  0  0
   -1.5242    8.9255   12.5383 C   0  0  0  0  0  0  0  0  0  0  0  0
   -1.5490    7.6937   11.9192 C   0  0  0  0  0  0  0  0  0  0  0  0
    0.7982    8.5962   13.0827 C   0  0  0  0  0  0  0  0  0  0  0  0
    0.7613    7.3598   12.4575 C   0  0  0  0  0  0  0  0  0  0  0  0
   -0.4154    6.8945   11.8755 C   0  0  0  0  0  0  0  0  0  0  0  0
    0.5070   11.7945   13.2593 O   0  0  0  0  0  0  0  0  0  0  0  0
   -0.3662   10.9094   13.9733 S   0  0  0  0  0  0  0  0  0  0  0  0
   -1.7414   11.2830   14.1214 O   0  0  0  0  0  0  0  0  0  0  0  0
    0.2418   10.7067   15.4407 N   0  0  0  0  0  0  0  0  0  0  0  0
   -0.3599   10.0794   15.9744 H   0  0  0  0  0  0  0  0  0  0  0  0
    0.2970   11.6088   15.9134 H   0  0  0  0  0  0  0  0  0  0  0  0
   -4.5116    2.1871   13.1900 C   0  0  0  0  0  0  0  0  0  0  0  0
   -5.0112    2.1731   14.6142 C   0  0  0  0  0  0  0  0  0  0  0  0
   -6.0457    3.0075   15.0096 C   0  0  0  0  0  0  0  0  0  0  0  0
   -6.5611    2.9492   16.2927 C   0  0  0  0  0  0  0  0  0  0  0  0
   -6.0197    2.0456   17.1654 C   0  0  0  0  0  0  0  0  0  0  0  0
   -6.5344    1.9662   18.4222 F   0  0  0  0  0  0  0  0  0  0  0  0
   -4.9933    1.2080   16.8247 C   0  0  0  0  0  0  0  0  0  0  0  0
   -4.4919    1.2785   15.5377 C   0  0  0  0  0  0  0  0  0  0  0  0
  8  7  1  0  0  0
  8  2  1  0  0  0
 21  2  1  0  0  0
 21 22  1  0  0  0
  7  1  1  0  0  0
  2  6  1  0  0  0
 22 23  2  0  0  0
 22 28  1  0  0  0
 23 24  1  0  0  0
  3  4  2  0  0  0
 28 27  2  0  0  0
  1  4  1  0  0  0
  1  5  1  0  0  0
  6  5  1  0  0  0
  4 14  1  0  0  0
 24 25  2  0  0  0
 27 25  1  0  0  0
 25 26  1  0  0  0
 14 13  2  0  0  0
 14 11  1  0  0  0
 13 12  1  0  0  0
 11 10  2  0  0  0
 12  9  2  0  0  0
 10  9  1  0  0  0
  9 16  1  0  0  0
 18 16  1  0  0  0
 16 17  2  0  0  0
 16 15  2  0  0  0
 18 19  1  0  0  0
 18 20  1  0  0  0
M  END
> <minimizedAffinity>
-7.11766

$$$$
6H34_FKK_A_302


 28 30  0  0  0  0  0  0  0  0999 V2000
   -2.9290    5.9635   13.8353 N   0  0  0  0  0  0  0  0  0  0  0  0
   -0.5502    7.5098   13.4571 N   0  0  0  0  0  0  0  0  0  0  0  0
   -4.9325    5.6443   14.7834 O   0  0  0  0  0  0  0  0  0  0  0  0
   -4.0470    5.2523   14.0403 C   0  0  0  0  0  0  0  0  0  0  0  0
   -1.6692    5.3200   13.4660 C   0  0  0  0  0  0  0  0  0  0  0  0
   -0.8229    6.2958   12.6787 C   0  0  0  0  0  0  0  0  0  0  0  0
   -2.6458    7.1276   14.6742 C   0  0  0  0  0  0  0  0  0  0  0  0
   -1.8138    8.1144   13.8927 C   0  0  0  0  0  0  0  0  0  0  0  0
   -4.2865    1.5526   11.9343 C   0  0  0  0  0  0  0  0  0  0  0  0
   -4.3251    2.7498   11.2411 C   0  0  0  0  0  0  0  0  0  0  0  0
   -4.2924    3.9394   11.9376 C   0  0  0  0  0  0  0  0  0  0  0  0
   -4.2264    1.5390   13.3201 C   0  0  0  0  0  0  0  0  0  0  0  0
   -4.1941    2.7409   14.0095 C   0  0  0  0  0  0  0  0  0  0  0  0
   -4.2202    3.9527   13.3233 C   0  0  0  0  0  0  0  0  0  0  0  0
   -4.0609   -1.0121   11.9638 O   0  0  0  0  0  0  0  0  0  0  0  0
   -4.2511    0.0513   11.0210 S   0  0  0  0  0  0  0  0  0  0  0  0
   -5.4312    0.0377   10.2086 O   0  0  0  0  0  0  0  0  0  0  0  0
   -2.9865    0.0614   10.0388 N   0  0  0  0  0  0  0  0  0  0  0  0
   -3.0936    0.8101    9.3544 H   0  0  0  0  0  0  0  0  0  0  0  0
   -2.9241   -0.8347    9.5556 H   0  0  0  0  0  0  0  0  0  0  0  0
    0.2289    8.4736   12.6655 C   0  0  0  0  0  0  0  0  0  0  0  0
    1.5637    8.8153   13.2817 C   0  0  0  0  0  0  0  0  0  0  0  0
    1.6754    9.8471   14.2014 C   0  0  0  0  0  0  0  0  0  0  0  0
    2.8789   10.1197   14.8280 C   0  0  0  0  0  0  0  0  0  0  0  0
    3.9607    9.3439   14.5134 C   0  0  0  0  0  0  0  0  0  0  0  0
    5.1425    9.5906   15.1404 F   0  0  0  0  0  0  0  0  0  0  0  0
    3.9021    8.3211   13.6069 C   0  0  0  0  0  0  0  0  0  0  0  0
    2.6909    8.0615   12.9918 C   0  0  0  0  0  0  0  0  0  0  0  0
  8  7  1  0  0  0
  8  2  1  0  0  0
 21  2  1  0  0  0
 21 22  1  0  0  0
  7  1  1  0  0  0
  2  6  1  0  0  0
 22 23  2  0  0  0
 22 28  1  0  0  0
 23 24  1  0  0  0
  3  4  2  0  0  0
 28 27  2  0  0  0
  1  4  1  0  0  0
  1  5  1  0  0  0
  6  5  1  0  0  0
  4 14  1  0  0  0
 24 25  2  0  0  0
 27 25  1  0  0  0
 25 26  1  0  0  0
 14 13  2  0  0  0
 14 11  1  0  0  0
 13 12  1  0  0  0
 11 10  2  0  0  0
 12  9  2  0  0  0
 10  9  1  0  0  0
  9 16  1  0  0  0
 18 16  1  0  0  0
 16 17  2  0  0  0
 16 15  2  0  0  0
 18 19  1  0  0  0
 18 20  1  0  0  0
M  END
> <minimizedAffinity>
-6.89429

$$$$
