4RUY_3W6_A_302


 16 16  0  0  0  0  0  0  0  0999 V2000
   -4.2693    1.6383   15.4247 C   0  0  0  0  0  0  0  0  0  0  0  0
   -4.1415    3.0469   14.9318 C   0  0  0  0  0  0  0  0  0  0  0  0
   -4.1318    3.2765   13.6146 C   0  0  0  0  0  0  0  0  0  0  0  0
   -4.2371    2.1216   12.6587 C   0  0  0  0  0  0  0  0  0  0  0  0
   -4.3631    0.8559   13.1079 C   0  0  0  0  0  0  0  0  0  0  0  0
   -4.3747    0.5922   14.5824 C   0  0  0  0  0  0  0  0  0  0  0  0
   -4.2610    2.4603   10.9365 S   0  0  0  0  0  0  0  0  0  0  0  0
   -4.9492    3.7313   10.8278 O   0  0  0  0  0  0  0  0  0  0  0  0
   -2.8849    2.5190   10.4719 O   0  0  0  0  0  0  0  0  0  0  0  0
   -5.1084    1.2967   10.2003 N   0  0  0  0  0  0  0  0  0  0  0  0
   -4.6125    0.4095   10.2850 H   0  0  0  0  0  0  0  0  0  0  0  0
   -5.2211    1.5305    9.2139 H   0  0  0  0  0  0  0  0  0  0  0  0
   -4.2915    1.5215   16.8028 O   0  0  0  0  0  0  0  0  0  0  0  0
   -5.3663    0.8111   17.3640 C   0  0  0  0  0  0  0  0  0  0  0  0
   -7.6785    1.3793   16.7728 C   0  0  0  0  0  0  0  0  0  0  0  0
   -6.4887    1.7828   17.6114 C   0  0  0  0  0  0  0  0  0  0  0  0
 16 14  1  0  0  0
 16 15  1  0  0  0
 14 13  1  0  0  0
 13  1  1  0  0  0
  1  6  2  0  0  0
  1  2  1  0  0  0
  6  5  1  0  0  0
  2  3  2  0  0  0
  5  4  2  0  0  0
  3  4  1  0  0  0
  4  7  1  0  0  0
 10  7  1  0  0  0
  9  7  2  0  0  0
  7  8  2  0  0  0
 10 11  1  0  0  0
 10 12  1  0  0  0
M  END
> <minimizedAffinity>
-6.30144

$$$$
4RUY_3W6_A_302


 16 16  0  0  0  0  0  0  0  0999 V2000
   -4.2612    2.0415   15.4152 C   0  0  0  0  0  0  0  0  0  0  0  0
   -4.3552    0.8522   14.5096 C   0  0  0  0  0  0  0  0  0  0  0  0
   -4.3592    1.0416   13.1859 C   0  0  0  0  0  0  0  0  0  0  0  0
   -4.2812    2.4377   12.6352 C   0  0  0  0  0  0  0  0  0  0  0  0
   -4.1855    3.5046   13.4551 C   0  0  0  0  0  0  0  0  0  0  0  0
   -4.1805    3.2991   14.9388 C   0  0  0  0  0  0  0  0  0  0  0  0
   -4.2488    2.6495   10.8930 S   0  0  0  0  0  0  0  0  0  0  0  0
   -4.9510    3.8974   10.6678 O   0  0  0  0  0  0  0  0  0  0  0  0
   -2.8581    2.6975   10.4728 O   0  0  0  0  0  0  0  0  0  0  0  0
   -5.0529    1.4212   10.2157 N   0  0  0  0  0  0  0  0  0  0  0  0
   -4.5475    0.5510   10.3822 H   0  0  0  0  0  0  0  0  0  0  0  0
   -5.1339    1.5805    9.2115 H   0  0  0  0  0  0  0  0  0  0  0  0
   -4.2421    1.7264   16.7619 O   0  0  0  0  0  0  0  0  0  0  0  0
   -5.2752    0.9006   17.2369 C   0  0  0  0  0  0  0  0  0  0  0  0
   -7.6381    1.3653   16.7685 C   0  0  0  0  0  0  0  0  0  0  0  0
   -6.4443    1.7773   17.5972 C   0  0  0  0  0  0  0  0  0  0  0  0
 16 14  1  0  0  0
 16 15  1  0  0  0
 14 13  1  0  0  0
 13  1  1  0  0  0
  1  6  2  0  0  0
  1  2  1  0  0  0
  6  5  1  0  0  0
  2  3  2  0  0  0
  5  4  2  0  0  0
  3  4  1  0  0  0
  4  7  1  0  0  0
 10  7  1  0  0  0
  9  7  2  0  0  0
  7  8  2  0  0  0
 10 11  1  0  0  0
 10 12  1  0  0  0
M  END
> <minimizedAffinity>
-6.26817

$$$$
4RUY_3W6_A_302


 16 16  0  0  0  0  0  0  0  0999 V2000
   -4.2002    4.7009   14.6480 C   0  0  0  0  0  0  0  0  0  0  0  0
   -5.6385    4.8708   15.0297 C   0  0  0  0  0  0  0  0  0  0  0  0
   -6.2403    3.9115   15.7408 C   0  0  0  0  0  0  0  0  0  0  0  0
   -5.4690    2.6823   16.1316 C   0  0  0  0  0  0  0  0  0  0  0  0
   -4.1707    2.5392   15.7947 C   0  0  0  0  0  0  0  0  0  0  0  0
   -3.4910    3.6103   14.9983 C   0  0  0  0  0  0  0  0  0  0  0  0
   -6.2766    1.4599   17.0984 S   0  0  0  0  0  0  0  0  0  0  0  0
   -6.2041    1.9660   18.4547 O   0  0  0  0  0  0  0  0  0  0  0  0
   -7.6408    1.3330   16.6127 O   0  0  0  0  0  0  0  0  0  0  0  0
   -5.4475    0.0780   16.9684 N   0  0  0  0  0  0  0  0  0  0  0  0
   -5.5076   -0.2657   16.0099 H   0  0  0  0  0  0  0  0  0  0  0  0
   -5.8415   -0.6160   17.6037 H   0  0  0  0  0  0  0  0  0  0  0  0
   -3.6753    5.7633   13.9347 O   0  0  0  0  0  0  0  0  0  0  0  0
   -2.2751    5.8772   13.9008 C   0  0  0  0  0  0  0  0  0  0  0  0
   -2.1975    8.0630   15.0120 C   0  0  0  0  0  0  0  0  0  0  0  0
   -1.9300    7.3308   13.7182 C   0  0  0  0  0  0  0  0  0  0  0  0
 16 14  1  0  0  0
 16 15  1  0  0  0
 14 13  1  0  0  0
 13  1  1  0  0  0
  1  6  2  0  0  0
  1  2  1  0  0  0
  6  5  1  0  0  0
  2  3  2  0  0  0
  5  4  2  0  0  0
  3  4  1  0  0  0
  4  7  1  0  0  0
 10  7  1  0  0  0
  9  7  2  0  0  0
  7  8  2  0  0  0
 10 11  1  0  0  0
 10 12  1  0  0  0
M  END
> <minimizedAffinity>
-6.15721

$$$$
4RUY_3W6_A_302


 16 16  0  0  0  0  0  0  0  0999 V2000
   -4.4056    4.5768   14.4524 C   0  0  0  0  0  0  0  0  0  0  0  0
   -3.5763    3.4562   14.9999 C   0  0  0  0  0  0  0  0  0  0  0  0
   -4.1529    2.5487   15.7948 C   0  0  0  0  0  0  0  0  0  0  0  0
   -5.6120    2.6765   16.1313 C   0  0  0  0  0  0  0  0  0  0  0  0
   -6.3570    3.6814   15.6267 C   0  0  0  0  0  0  0  0  0  0  0  0
   -5.7169    4.7011   14.7355 C   0  0  0  0  0  0  0  0  0  0  0  0
   -6.3477    1.4470   17.1454 S   0  0  0  0  0  0  0  0  0  0  0  0
   -6.2743    1.9932   18.4860 O   0  0  0  0  0  0  0  0  0  0  0  0
   -7.7131    1.2469   16.6886 O   0  0  0  0  0  0  0  0  0  0  0  0
   -5.4604    0.0998   17.0373 N   0  0  0  0  0  0  0  0  0  0  0  0
   -5.5217   -0.2726   16.0897 H   0  0  0  0  0  0  0  0  0  0  0  0
   -5.8121   -0.5929   17.6983 H   0  0  0  0  0  0  0  0  0  0  0  0
   -3.7120    5.4414   13.6250 O   0  0  0  0  0  0  0  0  0  0  0  0
   -4.0582    5.4337   12.2630 C   0  0  0  0  0  0  0  0  0  0  0  0
   -4.0992    3.3718   10.9344 C   0  0  0  0  0  0  0  0  0  0  0  0
   -3.2024    4.4077   11.5703 C   0  0  0  0  0  0  0  0  0  0  0  0
 16 14  1  0  0  0
 16 15  1  0  0  0
 14 13  1  0  0  0
 13  1  1  0  0  0
  1  6  2  0  0  0
  1  2  1  0  0  0
  6  5  1  0  0  0
  2  3  2  0  0  0
  5  4  2  0  0  0
  3  4  1  0  0  0
  4  7  1  0  0  0
 10  7  1  0  0  0
  9  7  2  0  0  0
  7  8  2  0  0  0
 10 11  1  0  0  0
 10 12  1  0  0  0
M  END
> <minimizedAffinity>
-5.83467

$$$$
4RUY_3W6_A_302


 16 16  0  0  0  0  0  0  0  0999 V2000
   -4.3816    4.0396   14.1250 C   0  0  0  0  0  0  0  0  0  0  0  0
   -3.5053    3.1180   14.9163 C   0  0  0  0  0  0  0  0  0  0  0  0
   -4.0535    2.3609   15.8725 C   0  0  0  0  0  0  0  0  0  0  0  0
   -5.5290    2.4571   16.1411 C   0  0  0  0  0  0  0  0  0  0  0  0
   -6.3156    3.2806   15.4182 C   0  0  0  0  0  0  0  0  0  0  0  0
   -5.7075    4.1312   14.3456 C   0  0  0  0  0  0  0  0  0  0  0  0
   -6.2240    1.4212   17.3762 S   0  0  0  0  0  0  0  0  0  0  0  0
   -7.5519    1.1128   16.8837 O   0  0  0  0  0  0  0  0  0  0  0  0
   -5.3789    0.2453   17.5027 O   0  0  0  0  0  0  0  0  0  0  0  0
   -6.3160    2.2624   18.7538 N   0  0  0  0  0  0  0  0  0  0  0  0
   -5.3753    2.4718   19.0878 H   0  0  0  0  0  0  0  0  0  0  0  0
   -6.8114    1.7124   19.4556 H   0  0  0  0  0  0  0  0  0  0  0  0
   -3.7130    4.7560   13.1489 O   0  0  0  0  0  0  0  0  0  0  0  0
   -2.5835    4.1481   12.5748 C   0  0  0  0  0  0  0  0  0  0  0  0
   -2.7141    1.9823   11.4299 C   0  0  0  0  0  0  0  0  0  0  0  0
   -3.0181    3.4571   11.3104 C   0  0  0  0  0  0  0  0  0  0  0  0
 16 14  1  0  0  0
 16 15  1  0  0  0
 14 13  1  0  0  0
 13  1  1  0  0  0
  1  6  2  0  0  0
  1  2  1  0  0  0
  6  5  1  0  0  0
  2  3  2  0  0  0
  5  4  2  0  0  0
  3  4  1  0  0  0
  4  7  1  0  0  0
 10  7  1  0  0  0
  9  7  2  0  0  0
  7  8  2  0  0  0
 10 11  1  0  0  0
 10 12  1  0  0  0
M  END
> <minimizedAffinity>
-5.75652

$$$$
4RUY_3W6_A_302


 16 16  0  0  0  0  0  0  0  0999 V2000
   -4.4053    2.9687   14.6980 C   0  0  0  0  0  0  0  0  0  0  0  0
   -4.6404    1.5826   14.1814 C   0  0  0  0  0  0  0  0  0  0  0  0
   -4.0686    1.2117   13.0310 C   0  0  0  0  0  0  0  0  0  0  0  0
   -3.2146    2.1915   12.2764 C   0  0  0  0  0  0  0  0  0  0  0  0
   -2.9971    3.4350   12.7516 C   0  0  0  0  0  0  0  0  0  0  0  0
   -3.6348    3.8565   14.0398 C   0  0  0  0  0  0  0  0  0  0  0  0
   -2.4465    1.6607   10.7899 S   0  0  0  0  0  0  0  0  0  0  0  0
   -1.1959    1.0683   11.2211 O   0  0  0  0  0  0  0  0  0  0  0  0
   -3.3326    0.7070   10.1431 O   0  0  0  0  0  0  0  0  0  0  0  0
   -2.1660    2.9601    9.8696 N   0  0  0  0  0  0  0  0  0  0  0  0
   -3.0540    3.3656    9.5742 H   0  0  0  0  0  0  0  0  0  0  0  0
   -1.6277    2.6850    9.0480 H   0  0  0  0  0  0  0  0  0  0  0  0
   -5.0257    3.2348   15.9052 O   0  0  0  0  0  0  0  0  0  0  0  0
   -6.4309    3.2464   15.9096 C   0  0  0  0  0  0  0  0  0  0  0  0
   -7.2078    1.1607   16.9416 C   0  0  0  0  0  0  0  0  0  0  0  0
   -6.8982    2.6174   17.1945 C   0  0  0  0  0  0  0  0  0  0  0  0
 16 14  1  0  0  0
 16 15  1  0  0  0
 14 13  1  0  0  0
 13  1  1  0  0  0
  1  6  2  0  0  0
  1  2  1  0  0  0
  6  5  1  0  0  0
  2  3  2  0  0  0
  5  4  2  0  0  0
  3  4  1  0  0  0
  4  7  1  0  0  0
 10  7  1  0  0  0
  9  7  2  0  0  0
  7  8  2  0  0  0
 10 11  1  0  0  0
 10 12  1  0  0  0
M  END
> <minimizedAffinity>
-5.61729

$$$$
4RUY_3W6_A_302


 16 16  0  0  0  0  0  0  0  0999 V2000
   -5.0877    2.9214   15.1466 C   0  0  0  0  0  0  0  0  0  0  0  0
   -5.3570    4.3263   14.7028 C   0  0  0  0  0  0  0  0  0  0  0  0
   -5.0433    4.6850   13.4534 C   0  0  0  0  0  0  0  0  0  0  0  0
   -4.4190    3.6798   12.5268 C   0  0  0  0  0  0  0  0  0  0  0  0
   -4.1887    2.4128   12.9281 C   0  0  0  0  0  0  0  0  0  0  0  0
   -4.5381    2.0048   14.3264 C   0  0  0  0  0  0  0  0  0  0  0  0
   -4.0554    4.1714   10.8814 S   0  0  0  0  0  0  0  0  0  0  0  0
   -2.6903    4.6549   10.9422 O   0  0  0  0  0  0  0  0  0  0  0  0
   -4.2075    3.0088   10.0221 O   0  0  0  0  0  0  0  0  0  0  0  0
   -5.0597    5.3713   10.4746 N   0  0  0  0  0  0  0  0  0  0  0  0
   -6.0152    5.0164   10.4358 H   0  0  0  0  0  0  0  0  0  0  0  0
   -4.7965    5.7398    9.5606 H   0  0  0  0  0  0  0  0  0  0  0  0
   -5.4728    2.6562   16.4484 O   0  0  0  0  0  0  0  0  0  0  0  0
   -6.8532    2.6208   16.7090 C   0  0  0  0  0  0  0  0  0  0  0  0
   -5.9820    0.4331   17.3969 C   0  0  0  0  0  0  0  0  0  0  0  0
   -7.2307    1.1997   17.0299 C   0  0  0  0  0  0  0  0  0  0  0  0
 16 14  1  0  0  0
 16 15  1  0  0  0
 14 13  1  0  0  0
 13  1  1  0  0  0
  1  6  2  0  0  0
  1  2  1  0  0  0
  6  5  1  0  0  0
  2  3  2  0  0  0
  5  4  2  0  0  0
  3  4  1  0  0  0
  4  7  1  0  0  0
 10  7  1  0  0  0
  9  7  2  0  0  0
  7  8  2  0  0  0
 10 11  1  0  0  0
 10 12  1  0  0  0
M  END
> <minimizedAffinity>
-5.46264

$$$$
4RUY_3W6_A_302


 16 16  0  0  0  0  0  0  0  0999 V2000
   -4.1083    3.0617   11.4000 C   0  0  0  0  0  0  0  0  0  0  0  0
   -4.2612    1.5770   11.5251 C   0  0  0  0  0  0  0  0  0  0  0  0
   -4.3439    1.0322   12.7434 C   0  0  0  0  0  0  0  0  0  0  0  0
   -4.2708    1.9144   13.9579 C   0  0  0  0  0  0  0  0  0  0  0  0
   -4.1442    3.2521   13.8395 C   0  0  0  0  0  0  0  0  0  0  0  0
   -4.0511    3.8685   12.4775 C   0  0  0  0  0  0  0  0  0  0  0  0
   -4.4220    1.1724   15.5415 S   0  0  0  0  0  0  0  0  0  0  0  0
   -4.6557   -0.2305   15.2622 O   0  0  0  0  0  0  0  0  0  0  0  0
   -3.1845    1.4077   16.2669 O   0  0  0  0  0  0  0  0  0  0  0  0
   -5.7030    1.8188   16.2866 N   0  0  0  0  0  0  0  0  0  0  0  0
   -5.5240    2.8049   16.4765 H   0  0  0  0  0  0  0  0  0  0  0  0
   -5.8687    1.3281   17.1653 H   0  0  0  0  0  0  0  0  0  0  0  0
   -4.0563    3.5167   10.0948 O   0  0  0  0  0  0  0  0  0  0  0  0
   -3.2445    4.6357    9.8429 C   0  0  0  0  0  0  0  0  0  0  0  0
   -4.9364    6.4048   10.0056 C   0  0  0  0  0  0  0  0  0  0  0  0
   -4.0537    5.6307    9.0552 C   0  0  0  0  0  0  0  0  0  0  0  0
 16 14  1  0  0  0
 16 15  1  0  0  0
 14 13  1  0  0  0
 13  1  1  0  0  0
  1  6  2  0  0  0
  1  2  1  0  0  0
  6  5  1  0  0  0
  2  3  2  0  0  0
  5  4  2  0  0  0
  3  4  1  0  0  0
  4  7  1  0  0  0
 10  7  1  0  0  0
  9  7  2  0  0  0
  7  8  2  0  0  0
 10 11  1  0  0  0
 10 12  1  0  0  0
M  END
> <minimizedAffinity>
-5.34755

$$$$
4RUY_3W6_A_302


 16 16  0  0  0  0  0  0  0  0999 V2000
   -5.5710    3.5256   14.6750 C   0  0  0  0  0  0  0  0  0  0  0  0
   -5.1269    4.9493   14.8139 C   0  0  0  0  0  0  0  0  0  0  0  0
   -4.0098    5.3453   14.1947 C   0  0  0  0  0  0  0  0  0  0  0  0
   -3.2193    4.3565   13.3849 C   0  0  0  0  0  0  0  0  0  0  0  0
   -3.6296    3.0782   13.2540 C   0  0  0  0  0  0  0  0  0  0  0  0
   -4.8801    2.6285   13.9451 C   0  0  0  0  0  0  0  0  0  0  0  0
   -1.7793    4.9176   12.5526 S   0  0  0  0  0  0  0  0  0  0  0  0
   -2.2378    5.2427   11.2165 O   0  0  0  0  0  0  0  0  0  0  0  0
   -1.2662    6.0716   13.2725 O   0  0  0  0  0  0  0  0  0  0  0  0
   -0.7142    3.7023   12.5018 N   0  0  0  0  0  0  0  0  0  0  0  0
   -0.4009    3.4851   13.4478 H   0  0  0  0  0  0  0  0  0  0  0  0
    0.0869    3.9758   11.9327 H   0  0  0  0  0  0  0  0  0  0  0  0
   -6.7496    3.2340   15.3376 O   0  0  0  0  0  0  0  0  0  0  0  0
   -6.6470    2.8863   16.6954 C   0  0  0  0  0  0  0  0  0  0  0  0
   -6.0051    0.5965   17.2980 C   0  0  0  0  0  0  0  0  0  0  0  0
   -7.1498    1.4767   16.8548 C   0  0  0  0  0  0  0  0  0  0  0  0
 16 14  1  0  0  0
 16 15  1  0  0  0
 14 13  1  0  0  0
 13  1  1  0  0  0
  1  6  2  0  0  0
  1  2  1  0  0  0
  6  5  1  0  0  0
  2  3  2  0  0  0
  5  4  2  0  0  0
  3  4  1  0  0  0
  4  7  1  0  0  0
 10  7  1  0  0  0
  9  7  2  0  0  0
  7  8  2  0  0  0
 10 11  1  0  0  0
 10 12  1  0  0  0
M  END
> <minimizedAffinity>
-5.26290

$$$$
4RUY_3W6_A_302


 16 16  0  0  0  0  0  0  0  0999 V2000
   -3.4320    5.4625   14.0533 C   0  0  0  0  0  0  0  0  0  0  0  0
   -3.5755    5.5861   12.5675 C   0  0  0  0  0  0  0  0  0  0  0  0
   -3.8312    4.4900   11.8456 C   0  0  0  0  0  0  0  0  0  0  0  0
   -3.9577    3.1601   12.5340 C   0  0  0  0  0  0  0  0  0  0  0  0
   -3.8385    3.0560   13.8736 C   0  0  0  0  0  0  0  0  0  0  0  0
   -3.5522    4.2802   14.6879 C   0  0  0  0  0  0  0  0  0  0  0  0
   -4.3327    1.7471   11.5623 S   0  0  0  0  0  0  0  0  0  0  0  0
   -3.3494    1.7697   10.4976 O   0  0  0  0  0  0  0  0  0  0  0  0
   -4.2196    0.5745   12.4139 O   0  0  0  0  0  0  0  0  0  0  0  0
   -5.8214    1.9255   10.9574 N   0  0  0  0  0  0  0  0  0  0  0  0
   -6.5015    1.9076   11.7173 H   0  0  0  0  0  0  0  0  0  0  0  0
   -6.0177    1.1643   10.3074 H   0  0  0  0  0  0  0  0  0  0  0  0
   -3.1919    6.6615   14.6997 O   0  0  0  0  0  0  0  0  0  0  0  0
   -2.1333    7.4466   14.2120 C   0  0  0  0  0  0  0  0  0  0  0  0
   -1.3229    9.7411   14.5233 C   0  0  0  0  0  0  0  0  0  0  0  0
   -1.8316    8.5092   15.2342 C   0  0  0  0  0  0  0  0  0  0  0  0
 16 14  1  0  0  0
 16 15  1  0  0  0
 14 13  1  0  0  0
 13  1  1  0  0  0
  1  6  2  0  0  0
  1  2  1  0  0  0
  6  5  1  0  0  0
  2  3  2  0  0  0
  5  4  2  0  0  0
  3  4  1  0  0  0
  4  7  1  0  0  0
 10  7  1  0  0  0
  9  7  2  0  0  0
  7  8  2  0  0  0
 10 11  1  0  0  0
 10 12  1  0  0  0
M  END
> <minimizedAffinity>
-5.22617

$$$$
