5HRV_64C_A_801


 17 19  0  0  0  0  0  0  0  0999 V2000
   21.4956   30.1004   10.7530 C   0  0  0  0  0  0  0  0  0  0  0  0
   20.8452   28.8856   10.5918 C   0  0  0  0  0  0  0  0  0  0  0  0
   21.2280   27.6703   11.2781 C   0  0  0  0  0  0  0  0  0  0  0  0
   20.5317   26.4622   11.0955 C   0  0  0  0  0  0  0  0  0  0  0  0
   19.4237   26.4236   10.2301 C   0  0  0  0  0  0  0  0  0  0  0  0
   19.0175   27.5723    9.5575 C   0  0  0  0  0  0  0  0  0  0  0  0
   19.6967   28.8073    9.7599 C   0  0  0  0  0  0  0  0  0  0  0  0
   19.2967   30.0007    9.0688 C   0  0  0  0  0  0  0  0  0  0  0  0
   18.3185   30.0545    8.3416 O   0  0  0  0  0  0  0  0  0  0  0  0
   19.9626   31.1689    9.2240 O   0  0  0  0  0  0  0  0  0  0  0  0
   21.0200   31.2103   10.0516 C   0  0  0  0  0  0  0  0  0  0  0  0
   21.7686   32.2518   10.2742 N   0  0  0  0  0  0  0  0  0  0  0  0
   22.7840   31.8834   11.1712 N   0  0  0  0  0  0  0  0  0  0  0  0
   22.6176   30.5797   11.4192 C   0  0  0  0  0  0  0  0  0  0  0  0
   21.6439   33.1455    9.8806 H   0  0  0  0  0  0  0  0  0  0  0  0
   23.5644   29.8530   12.4055 C   0  0  0  0  0  0  0  0  0  0  0  0
   24.2771   30.9003   13.2464 C   0  0  0  0  0  0  0  0  0  0  0  0
  9  8  2  0  0  0
  8 10  1  0  0  0
  8  7  1  0  0  0
 10 11  1  0  0  0
  6  7  2  0  0  0
  6  5  1  0  0  0
  7  2  1  0  0  0
 11 12  1  0  0  0
 11  1  2  0  0  0
 12 13  1  0  0  0
  5  4  2  0  0  0
  2  1  1  0  0  0
  2  3  2  0  0  0
  1 14  1  0  0  0
 13 14  2  0  0  0
  4  3  1  0  0  0
 14 16  1  0  0  0
 16 17  1  0  0  0
 12 15  1  0  0  0
M  END
> <minimizedAffinity>
-8.30226

$$$$
5HRV_64C_A_801


 17 19  0  0  0  0  0  0  0  0999 V2000
   21.7685   29.6884   11.0133 C   0  0  0  0  0  0  0  0  0  0  0  0
   20.6411   29.3443   10.2817 C   0  0  0  0  0  0  0  0  0  0  0  0
   19.9762   30.2393    9.3590 C   0  0  0  0  0  0  0  0  0  0  0  0
   18.8424   29.8445    8.6265 C   0  0  0  0  0  0  0  0  0  0  0  0
   18.3361   28.5413    8.7800 C   0  0  0  0  0  0  0  0  0  0  0  0
   18.9512   27.6468    9.6509 C   0  0  0  0  0  0  0  0  0  0  0  0
   20.1179   28.0270   10.3731 C   0  0  0  0  0  0  0  0  0  0  0  0
   20.7615   27.1203   11.2817 C   0  0  0  0  0  0  0  0  0  0  0  0
   20.4085   25.9618   11.4301 O   0  0  0  0  0  0  0  0  0  0  0  0
   21.8464   27.4876   12.0030 O   0  0  0  0  0  0  0  0  0  0  0  0
   22.3344   28.7306   11.8574 C   0  0  0  0  0  0  0  0  0  0  0  0
   23.3485   29.2279   12.5046 N   0  0  0  0  0  0  0  0  0  0  0  0
   23.5243   30.5597   12.0960 N   0  0  0  0  0  0  0  0  0  0  0  0
   22.5446   30.8223   11.2241 C   0  0  0  0  0  0  0  0  0  0  0  0
   23.8985   28.7514   13.1676 H   0  0  0  0  0  0  0  0  0  0  0  0
   22.4619   32.2135   10.5496 C   0  0  0  0  0  0  0  0  0  0  0  0
   23.4417   33.1439   11.2468 C   0  0  0  0  0  0  0  0  0  0  0  0
  9  8  2  0  0  0
  8 10  1  0  0  0
  8  7  1  0  0  0
 10 11  1  0  0  0
  6  7  2  0  0  0
  6  5  1  0  0  0
  7  2  1  0  0  0
 11 12  1  0  0  0
 11  1  2  0  0  0
 12 13  1  0  0  0
  5  4  2  0  0  0
  2  1  1  0  0  0
  2  3  2  0  0  0
  1 14  1  0  0  0
 13 14  2  0  0  0
  4  3  1  0  0  0
 14 16  1  0  0  0
 16 17  1  0  0  0
 12 15  1  0  0  0
M  END
> <minimizedAffinity>
-8.15242

$$$$
5HRV_64C_A_801


 17 19  0  0  0  0  0  0  0  0999 V2000
   21.2547   29.5879   10.3866 C   0  0  0  0  0  0  0  0  0  0  0  0
   22.3474   29.7548   11.2250 C   0  0  0  0  0  0  0  0  0  0  0  0
   22.9271   28.6887   12.0136 C   0  0  0  0  0  0  0  0  0  0  0  0
   24.0447   28.8989   12.8410 C   0  0  0  0  0  0  0  0  0  0  0  0
   24.6304   30.1759   12.9052 C   0  0  0  0  0  0  0  0  0  0  0  0
   24.1087   31.2264   12.1562 C   0  0  0  0  0  0  0  0  0  0  0  0
   22.9970   31.0161   11.2917 C   0  0  0  0  0  0  0  0  0  0  0  0
   22.4406   32.0895   10.5172 C   0  0  0  0  0  0  0  0  0  0  0  0
   22.9237   33.2094   10.4852 O   0  0  0  0  0  0  0  0  0  0  0  0
   21.3584   31.9075    9.7247 O   0  0  0  0  0  0  0  0  0  0  0  0
   20.7976   30.6886    9.6588 C   0  0  0  0  0  0  0  0  0  0  0  0
   19.7413   30.3762    8.9652 N   0  0  0  0  0  0  0  0  0  0  0  0
   19.4535   29.0194    9.1838 N   0  0  0  0  0  0  0  0  0  0  0  0
   20.3570   28.5764   10.0649 C   0  0  0  0  0  0  0  0  0  0  0  0
   19.2310   30.9872    8.3860 H   0  0  0  0  0  0  0  0  0  0  0  0
   20.3426   27.0929   10.5078 C   0  0  0  0  0  0  0  0  0  0  0  0
   19.2727   26.3642    9.7101 C   0  0  0  0  0  0  0  0  0  0  0  0
  9  8  2  0  0  0
  8 10  1  0  0  0
  8  7  1  0  0  0
 10 11  1  0  0  0
  6  7  2  0  0  0
  6  5  1  0  0  0
  7  2  1  0  0  0
 11 12  1  0  0  0
 11  1  2  0  0  0
 12 13  1  0  0  0
  5  4  2  0  0  0
  2  1  1  0  0  0
  2  3  2  0  0  0
  1 14  1  0  0  0
 13 14  2  0  0  0
  4  3  1  0  0  0
 14 16  1  0  0  0
 16 17  1  0  0  0
 12 15  1  0  0  0
M  END
> <minimizedAffinity>
-7.84413

$$$$
5HRV_64C_A_801


 17 19  0  0  0  0  0  0  0  0999 V2000
   21.1795   29.1793   10.6938 C   0  0  0  0  0  0  0  0  0  0  0  0
   21.9878   30.2748   10.9608 C   0  0  0  0  0  0  0  0  0  0  0  0
   21.7493   31.5997   10.4296 C   0  0  0  0  0  0  0  0  0  0  0  0
   22.5873   32.6863   10.7373 C   0  0  0  0  0  0  0  0  0  0  0  0
   23.6874   32.4941   11.5922 C   0  0  0  0  0  0  0  0  0  0  0  0
   23.9471   31.2375   12.1310 C   0  0  0  0  0  0  0  0  0  0  0  0
   23.0864   30.1384   11.8507 C   0  0  0  0  0  0  0  0  0  0  0  0
   23.3428   28.8331   12.3913 C   0  0  0  0  0  0  0  0  0  0  0  0
   24.2477   28.6021   13.1764 O   0  0  0  0  0  0  0  0  0  0  0  0
   22.5532   27.7740   12.0964 O   0  0  0  0  0  0  0  0  0  0  0  0
   21.5001   27.9540   11.2821 C   0  0  0  0  0  0  0  0  0  0  0  0
   20.6765   27.0251   10.8906 N   0  0  0  0  0  0  0  0  0  0  0  0
   19.7351   27.6044   10.0247 N   0  0  0  0  0  0  0  0  0  0  0  0
   20.0769   28.8912    9.8976 C   0  0  0  0  0  0  0  0  0  0  0  0
   20.7082   26.0777   11.1563 H   0  0  0  0  0  0  0  0  0  0  0  0
   19.2180   29.8369    9.0229 C   0  0  0  0  0  0  0  0  0  0  0  0
   17.9142   29.1295    8.6890 C   0  0  0  0  0  0  0  0  0  0  0  0
  9  8  2  0  0  0
  8 10  1  0  0  0
  8  7  1  0  0  0
 10 11  1  0  0  0
  6  7  2  0  0  0
  6  5  1  0  0  0
  7  2  1  0  0  0
 11 12  1  0  0  0
 11  1  2  0  0  0
 12 13  1  0  0  0
  5  4  2  0  0  0
  2  1  1  0  0  0
  2  3  2  0  0  0
  1 14  1  0  0  0
 13 14  2  0  0  0
  4  3  1  0  0  0
 14 16  1  0  0  0
 16 17  1  0  0  0
 12 15  1  0  0  0
M  END
> <minimizedAffinity>
-7.55287

$$$$
5HRV_64C_A_801


 17 19  0  0  0  0  0  0  0  0999 V2000
   21.6868   29.0564   11.1522 C   0  0  0  0  0  0  0  0  0  0  0  0
   20.6060   29.3194   10.3230 C   0  0  0  0  0  0  0  0  0  0  0  0
   20.3394   30.6144    9.7344 C   0  0  0  0  0  0  0  0  0  0  0  0
   19.2384   30.8339    8.8874 C   0  0  0  0  0  0  0  0  0  0  0  0
   18.3691   29.7693    8.5891 C   0  0  0  0  0  0  0  0  0  0  0  0
   18.5948   28.5061    9.1278 C   0  0  0  0  0  0  0  0  0  0  0  0
   19.7243   28.2664    9.9610 C   0  0  0  0  0  0  0  0  0  0  0  0
   19.9690   26.9718   10.5319 C   0  0  0  0  0  0  0  0  0  0  0  0
   19.2872   25.9918   10.2800 O   0  0  0  0  0  0  0  0  0  0  0  0
   21.0171   26.7459   11.3581 O   0  0  0  0  0  0  0  0  0  0  0  0
   21.8510   27.7596   11.6436 C   0  0  0  0  0  0  0  0  0  0  0  0
   22.8776   27.6955   12.4415 N   0  0  0  0  0  0  0  0  0  0  0  0
   23.4717   28.9663   12.5013 N   0  0  0  0  0  0  0  0  0  0  0  0
   22.7204   29.7733   11.7441 C   0  0  0  0  0  0  0  0  0  0  0  0
   23.1851   26.8927   12.9212 H   0  0  0  0  0  0  0  0  0  0  0  0
   23.1178   31.2592   11.5671 C   0  0  0  0  0  0  0  0  0  0  0  0
   24.2542   31.5698   12.5282 C   0  0  0  0  0  0  0  0  0  0  0  0
  9  8  2  0  0  0
  8 10  1  0  0  0
  8  7  1  0  0  0
 10 11  1  0  0  0
  6  7  2  0  0  0
  6  5  1  0  0  0
  7  2  1  0  0  0
 11 12  1  0  0  0
 11  1  2  0  0  0
 12 13  1  0  0  0
  5  4  2  0  0  0
  2  1  1  0  0  0
  2  3  2  0  0  0
  1 14  1  0  0  0
 13 14  2  0  0  0
  4  3  1  0  0  0
 14 16  1  0  0  0
 16 17  1  0  0  0
 12 15  1  0  0  0
M  END
> <minimizedAffinity>
-7.52230

$$$$
5HRV_64C_A_801


 17 19  0  0  0  0  0  0  0  0999 V2000
   22.5908   30.7944   11.2783 C   0  0  0  0  0  0  0  0  0  0  0  0
   21.6817   29.8530   10.8178 C   0  0  0  0  0  0  0  0  0  0  0  0
   21.7138   28.4544   11.1883 C   0  0  0  0  0  0  0  0  0  0  0  0
   20.7633   27.5358   10.7083 C   0  0  0  0  0  0  0  0  0  0  0  0
   19.7415   27.9792    9.8496 C   0  0  0  0  0  0  0  0  0  0  0  0
   19.6699   29.3178    9.4756 C   0  0  0  0  0  0  0  0  0  0  0  0
   20.6089   30.2613    9.9813 C   0  0  0  0  0  0  0  0  0  0  0  0
   20.5553   31.6447    9.6005 C   0  0  0  0  0  0  0  0  0  0  0  0
   19.6717   32.1101    8.8996 O   0  0  0  0  0  0  0  0  0  0  0  0
   21.4687   32.5398   10.0439 O   0  0  0  0  0  0  0  0  0  0  0  0
   22.4448   32.1207   10.8662 C   0  0  0  0  0  0  0  0  0  0  0  0
   23.4032   32.8602   11.3447 N   0  0  0  0  0  0  0  0  0  0  0  0
   24.2358   32.0501   12.1333 N   0  0  0  0  0  0  0  0  0  0  0  0
   23.7455   30.8084   12.0522 C   0  0  0  0  0  0  0  0  0  0  0  0
   23.5238   33.8236   11.1813 H   0  0  0  0  0  0  0  0  0  0  0  0
   24.4196   29.6578   12.8389 C   0  0  0  0  0  0  0  0  0  0  0  0
   25.6173   30.2239   13.5851 C   0  0  0  0  0  0  0  0  0  0  0  0
  9  8  2  0  0  0
  8 10  1  0  0  0
  8  7  1  0  0  0
 10 11  1  0  0  0
  6  7  2  0  0  0
  6  5  1  0  0  0
  7  2  1  0  0  0
 11 12  1  0  0  0
 11  1  2  0  0  0
 12 13  1  0  0  0
  5  4  2  0  0  0
  2  1  1  0  0  0
  2  3  2  0  0  0
  1 14  1  0  0  0
 13 14  2  0  0  0
  4  3  1  0  0  0
 14 16  1  0  0  0
 16 17  1  0  0  0
 12 15  1  0  0  0
M  END
> <minimizedAffinity>
-7.44332

$$$$
5HRV_64C_A_801


 17 19  0  0  0  0  0  0  0  0999 V2000
   22.0127   29.8379   11.0414 C   0  0  0  0  0  0  0  0  0  0  0  0
   22.8142   30.9406   11.2992 C   0  0  0  0  0  0  0  0  0  0  0  0
   22.5717   32.2578   10.7512 C   0  0  0  0  0  0  0  0  0  0  0  0
   23.4028   33.3522   11.0499 C   0  0  0  0  0  0  0  0  0  0  0  0
   24.4995   33.1757   11.9125 C   0  0  0  0  0  0  0  0  0  0  0  0
   24.7628   31.9270   12.4675 C   0  0  0  0  0  0  0  0  0  0  0  0
   23.9090   30.8203   12.1960 C   0  0  0  0  0  0  0  0  0  0  0  0
   24.1692   29.5228   12.7535 C   0  0  0  0  0  0  0  0  0  0  0  0
   25.0713   29.3057   13.5457 O   0  0  0  0  0  0  0  0  0  0  0  0
   23.3863   28.4563   12.4673 O   0  0  0  0  0  0  0  0  0  0  0  0
   22.3364   28.6214   11.6458 C   0  0  0  0  0  0  0  0  0  0  0  0
   21.5194   27.6837   11.2614 N   0  0  0  0  0  0  0  0  0  0  0  0
   20.5794   28.2480   10.3841 N   0  0  0  0  0  0  0  0  0  0  0  0
   20.9155   29.5349   10.2433 C   0  0  0  0  0  0  0  0  0  0  0  0
   21.5545   26.7397   11.5385 H   0  0  0  0  0  0  0  0  0  0  0  0
   20.0562   30.4657    9.3531 C   0  0  0  0  0  0  0  0  0  0  0  0
   18.9001   29.6560    8.7876 C   0  0  0  0  0  0  0  0  0  0  0  0
  9  8  2  0  0  0
  8 10  1  0  0  0
  8  7  1  0  0  0
 10 11  1  0  0  0
  6  7  2  0  0  0
  6  5  1  0  0  0
  7  2  1  0  0  0
 11 12  1  0  0  0
 11  1  2  0  0  0
 12 13  1  0  0  0
  5  4  2  0  0  0
  2  1  1  0  0  0
  2  3  2  0  0  0
  1 14  1  0  0  0
 13 14  2  0  0  0
  4  3  1  0  0  0
 14 16  1  0  0  0
 16 17  1  0  0  0
 12 15  1  0  0  0
M  END
> <minimizedAffinity>
-7.35212

$$$$
5HRV_64C_A_801


 17 19  0  0  0  0  0  0  0  0999 V2000
   19.9617   28.9594    9.6081 C   0  0  0  0  0  0  0  0  0  0  0  0
   21.0374   29.3055   10.4130 C   0  0  0  0  0  0  0  0  0  0  0  0
   21.8656   28.3431   11.1074 C   0  0  0  0  0  0  0  0  0  0  0  0
   22.9560   28.7373   11.9033 C   0  0  0  0  0  0  0  0  0  0  0  0
   23.2659   30.1034   12.0284 C   0  0  0  0  0  0  0  0  0  0  0  0
   22.4996   31.0607   11.3702 C   0  0  0  0  0  0  0  0  0  0  0  0
   21.4132   30.6696   10.5371 C   0  0  0  0  0  0  0  0  0  0  0  0
   20.6068   31.6433    9.8563 C   0  0  0  0  0  0  0  0  0  0  0  0
   20.8443   32.8398    9.8792 O   0  0  0  0  0  0  0  0  0  0  0  0
   19.5470   31.2820    9.0958 O   0  0  0  0  0  0  0  0  0  0  0  0
   19.2492   29.9780    8.9719 C   0  0  0  0  0  0  0  0  0  0  0  0
   18.2467   29.4894    8.3004 N   0  0  0  0  0  0  0  0  0  0  0  0
   18.2589   28.0924    8.4407 N   0  0  0  0  0  0  0  0  0  0  0  0
   19.2786   27.8010    9.2556 C   0  0  0  0  0  0  0  0  0  0  0  0
   17.5916   30.0106    7.7824 H   0  0  0  0  0  0  0  0  0  0  0  0
   19.5957   26.3254    9.6008 C   0  0  0  0  0  0  0  0  0  0  0  0
   19.5436   26.1640   11.1118 C   0  0  0  0  0  0  0  0  0  0  0  0
  9  8  2  0  0  0
  8 10  1  0  0  0
  8  7  1  0  0  0
 10 11  1  0  0  0
  6  7  2  0  0  0
  6  5  1  0  0  0
  7  2  1  0  0  0
 11 12  1  0  0  0
 11  1  2  0  0  0
 12 13  1  0  0  0
  5  4  2  0  0  0
  2  1  1  0  0  0
  2  3  2  0  0  0
  1 14  1  0  0  0
 13 14  2  0  0  0
  4  3  1  0  0  0
 14 16  1  0  0  0
 16 17  1  0  0  0
 12 15  1  0  0  0
M  END
> <minimizedAffinity>
-7.11640

$$$$
5HRV_64C_A_801


 17 19  0  0  0  0  0  0  0  0999 V2000
   19.8805   29.1554    9.9260 C   0  0  0  0  0  0  0  0  0  0  0  0
   20.9833   29.0085   10.7550 C   0  0  0  0  0  0  0  0  0  0  0  0
   21.8932   30.0852   11.0825 C   0  0  0  0  0  0  0  0  0  0  0  0
   22.9923   29.8954   11.9391 C   0  0  0  0  0  0  0  0  0  0  0  0
   23.2189   28.6290   12.5073 C   0  0  0  0  0  0  0  0  0  0  0  0
   22.3626   27.5689   12.2247 C   0  0  0  0  0  0  0  0  0  0  0  0
   21.2294   27.7590   11.3838 C   0  0  0  0  0  0  0  0  0  0  0  0
   20.3393   26.6753   11.0750 C   0  0  0  0  0  0  0  0  0  0  0  0
   20.4448   25.5642   11.5677 O   0  0  0  0  0  0  0  0  0  0  0  0
   19.2836   26.8376   10.2435 O   0  0  0  0  0  0  0  0  0  0  0  0
   19.0624   28.0463    9.7007 C   0  0  0  0  0  0  0  0  0  0  0  0
   18.1081   28.3395    8.8653 N   0  0  0  0  0  0  0  0  0  0  0  0
   18.2338   29.6911    8.5064 N   0  0  0  0  0  0  0  0  0  0  0  0
   19.3234   30.1507    9.1313 C   0  0  0  0  0  0  0  0  0  0  0  0
   17.4161   27.7192    8.5405 H   0  0  0  0  0  0  0  0  0  0  0  0
   19.7380   31.6340    8.9729 C   0  0  0  0  0  0  0  0  0  0  0  0
   21.1783   31.6806    8.4879 C   0  0  0  0  0  0  0  0  0  0  0  0
  9  8  2  0  0  0
  8 10  1  0  0  0
  8  7  1  0  0  0
 10 11  1  0  0  0
  6  7  2  0  0  0
  6  5  1  0  0  0
  7  2  1  0  0  0
 11 12  1  0  0  0
 11  1  2  0  0  0
 12 13  1  0  0  0
  5  4  2  0  0  0
  2  1  1  0  0  0
  2  3  2  0  0  0
  1 14  1  0  0  0
 13 14  2  0  0  0
  4  3  1  0  0  0
 14 16  1  0  0  0
 16 17  1  0  0  0
 12 15  1  0  0  0
M  END
> <minimizedAffinity>
-6.59799

$$$$
5HRV_64C_A_801


 17 19  0  0  0  0  0  0  0  0999 V2000
   22.4134   30.4669   11.2532 C   0  0  0  0  0  0  0  0  0  0  0  0
   23.5317   30.6842   12.0449 C   0  0  0  0  0  0  0  0  0  0  0  0
   24.1446   29.6650   12.8696 C   0  0  0  0  0  0  0  0  0  0  0  0
   25.2871   29.9252   13.6472 C   0  0  0  0  0  0  0  0  0  0  0  0
   25.8653   31.2070   13.6241 C   0  0  0  0  0  0  0  0  0  0  0  0
   25.3119   32.2132   12.8378 C   0  0  0  0  0  0  0  0  0  0  0  0
   24.1740   31.9508   12.0229 C   0  0  0  0  0  0  0  0  0  0  0  0
   23.5848   32.9783   11.2112 C   0  0  0  0  0  0  0  0  0  0  0  0
   24.0585   34.0975   11.1038 O   0  0  0  0  0  0  0  0  0  0  0  0
   22.4786   32.7483   10.4658 O   0  0  0  0  0  0  0  0  0  0  0  0
   21.9248   31.5246   10.4834 C   0  0  0  0  0  0  0  0  0  0  0  0
   20.8486   31.1698    9.8427 N   0  0  0  0  0  0  0  0  0  0  0  0
   20.5780   29.8251   10.1426 N   0  0  0  0  0  0  0  0  0  0  0  0
   21.5130   29.4347   11.0157 C   0  0  0  0  0  0  0  0  0  0  0  0
   20.3152   31.7462    9.2489 H   0  0  0  0  0  0  0  0  0  0  0  0
   21.5238   27.9769   11.5371 C   0  0  0  0  0  0  0  0  0  0  0  0
   20.5021   27.1763   10.7452 C   0  0  0  0  0  0  0  0  0  0  0  0
  9  8  2  0  0  0
  8 10  1  0  0  0
  8  7  1  0  0  0
 10 11  1  0  0  0
  6  7  2  0  0  0
  6  5  1  0  0  0
  7  2  1  0  0  0
 11 12  1  0  0  0
 11  1  2  0  0  0
 12 13  1  0  0  0
  5  4  2  0  0  0
  2  1  1  0  0  0
  2  3  2  0  0  0
  1 14  1  0  0  0
 13 14  2  0  0  0
  4  3  1  0  0  0
 14 16  1  0  0  0
 16 17  1  0  0  0
 12 15  1  0  0  0
M  END
> <minimizedAffinity>
-6.51677

$$$$
