1C4U_IH1_2_370


 40 43  0  0  0  0  0  0  0  0999 V2000
   13.1986  -16.9361   19.0628 C   0  0  0  0  0  0  0  0  0  0  0  0
   11.8037  -17.1451   19.0507 C   0  0  0  0  0  0  0  0  0  0  0  0
   10.9706  -17.7189   19.9099 C   0  0  0  0  0  0  0  0  0  0  0  0
   11.6221  -18.3414   21.1245 C   0  0  0  0  0  0  0  0  0  0  0  0
   13.7425  -18.9275   22.0221 C   0  0  0  0  0  0  0  0  0  0  0  0
   14.9186  -17.9078   20.4867 C   0  0  0  0  0  0  0  0  0  0  0  0
   12.9628  -18.2051   21.1251 N   0  0  0  0  0  0  0  0  0  0  0  0
   13.7134  -17.8461   20.0649 N   0  0  0  0  0  0  0  0  0  0  0  0
   15.8420  -17.4543   19.9951 O   0  0  0  0  0  0  0  0  0  0  0  0
   13.2034  -19.5463   22.9200 O   0  0  0  0  0  0  0  0  0  0  0  0
   14.9306  -18.6002   21.6927 N   0  0  0  0  0  0  0  0  0  0  0  0
   13.6021  -15.2958   19.1334 C   0  0  0  0  0  0  0  0  0  0  0  0
   14.5309  -14.7939   18.3993 O   0  0  0  0  0  0  0  0  0  0  0  0
   13.3677  -14.3472   20.1505 N   0  0  0  0  0  0  0  0  0  0  0  0
   12.8326  -14.7434   20.8758 H   0  0  0  0  0  0  0  0  0  0  0  0
   13.6103  -13.2712   20.3805 C   0  0  0  0  0  0  0  0  0  0  0  0
   13.2730  -12.6564   21.6126 C   0  0  0  0  0  0  0  0  0  0  0  0
   11.8812  -12.7063   22.2089 C   0  0  0  0  0  0  0  0  0  0  0  0
   11.7499  -11.8763   23.3579 C   0  0  0  0  0  0  0  0  0  0  0  0
   11.9732  -10.3309   22.9638 C   0  0  0  0  0  0  0  0  0  0  0  0
   13.4664  -10.4087   22.5258 C   0  0  0  0  0  0  0  0  0  0  0  0
   13.9460  -11.2562   21.5816 C   0  0  0  0  0  0  0  0  0  0  0  0
   12.0295   -9.6763   24.1954 C   0  0  0  0  0  0  0  0  0  0  0  0
   11.1491   -9.8414   25.1048 N   0  0  0  0  0  0  0  0  0  0  0  0
   13.1267   -8.9980   24.4322 N   0  0  0  0  0  0  0  0  0  0  0  0
   10.3308  -10.3533   24.9107 H   0  0  0  0  0  0  0  0  0  0  0  0
   11.2883   -9.4569   26.0004 H   0  0  0  0  0  0  0  0  0  0  0  0
   13.7958   -8.8798   23.7197 H   0  0  0  0  0  0  0  0  0  0  0  0
   16.0667  -18.8171   22.4372 C   0  0  0  0  0  0  0  0  0  0  0  0
   16.4992  -17.6788   23.4755 C   0  0  0  0  0  0  0  0  0  0  0  0
   17.4782  -16.3827   22.8483 S   0  0  0  0  0  0  0  0  0  0  0  0
   18.3990  -16.8729   21.8320 O   0  0  0  0  0  0  0  0  0  0  0  0
   16.6751  -15.2230   22.4098 O   0  0  0  0  0  0  0  0  0  0  0  0
   20.1337  -14.6665   25.8283 C   0  0  0  0  0  0  0  0  0  0  0  0
   19.3667  -15.6238   26.3112 C   0  0  0  0  0  0  0  0  0  0  0  0
   18.5641  -16.1889   25.3808 C   0  0  0  0  0  0  0  0  0  0  0  0
   18.5350  -15.7515   24.0641 C   0  0  0  0  0  0  0  0  0  0  0  0
   19.2572  -14.7389   23.6362 C   0  0  0  0  0  0  0  0  0  0  0  0
   20.0829  -14.1577   24.5257 C   0  0  0  0  0  0  0  0  0  0  0  0
   21.1914  -13.8579   26.9932 Br  0  0  0  0  0  0  0  0  0  0  0  0
 34 35  2  0  0  0
 34 39  1  0  0  0
 34 40  1  0  0  0
 35 36  1  0  0  0
 36 37  2  0  0  0
 37 38  1  0  0  0
 37 31  1  0  0  0
 38 39  2  0  0  0
 31 32  2  0  0  0
 31 33  2  0  0  0
 31 30  1  0  0  0
 30 29  1  0  0  0
 29 11  1  0  0  0
  1  2  1  0  0  0
  1  8  1  0  0  0
  1 12  1  0  0  0
  2  3  2  0  0  0
  3  4  1  0  0  0
  4  7  1  0  0  0
  5  7  1  0  0  0
  5 10  2  0  0  0
  5 11  1  0  0  0
  6  8  1  0  0  0
  6  9  2  0  0  0
  6 11  1  0  0  0
  7  8  1  0  0  0
 12 13  2  0  0  0
 12 14  1  0  0  0
 16 17  1  0  0  0
 16 14  1  0  0  0
 17 18  1  0  0  0
 17 22  1  0  0  0
 18 19  1  0  0  0
 19 20  1  0  0  0
 20 21  1  0  0  0
 20 23  1  0  0  0
 21 22  1  0  0  0
 23 24  1  0  0  0
 23 25  2  0  0  0
 14 15  1  0  0  0
 24 26  1  0  0  0
 24 27  1  0  0  0
 25 28  1  0  0  0
M  END
> <minimizedAffinity>
-9.46463

$$$$
1C4U_IH1_2_370


 40 43  0  0  0  0  0  0  0  0999 V2000
   19.7688  -14.9323   21.7551 C   0  0  0  0  0  0  0  0  0  0  0  0
   20.5078  -14.2270   20.7825 C   0  0  0  0  0  0  0  0  0  0  0  0
   20.2335  -13.1628   20.0383 C   0  0  0  0  0  0  0  0  0  0  0  0
   18.8339  -12.6105   20.1910 C   0  0  0  0  0  0  0  0  0  0  0  0
   16.7173  -13.1040   21.1512 C   0  0  0  0  0  0  0  0  0  0  0  0
   17.3963  -14.8385   22.2961 C   0  0  0  0  0  0  0  0  0  0  0  0
   18.0908  -13.3082   21.0726 N   0  0  0  0  0  0  0  0  0  0  0  0
   18.3920  -14.5296   21.5562 N   0  0  0  0  0  0  0  0  0  0  0  0
   17.3533  -15.6669   23.0783 O   0  0  0  0  0  0  0  0  0  0  0  0
   16.2154  -12.1732   20.5499 O   0  0  0  0  0  0  0  0  0  0  0  0
   16.3526  -13.9613   22.0227 N   0  0  0  0  0  0  0  0  0  0  0  0
   20.4609  -14.8213   23.2935 C   0  0  0  0  0  0  0  0  0  0  0  0
   21.6758  -14.4357   23.4642 O   0  0  0  0  0  0  0  0  0  0  0  0
   20.0857  -15.4413   24.5036 N   0  0  0  0  0  0  0  0  0  0  0  0
   19.2545  -15.9553   24.3852 H   0  0  0  0  0  0  0  0  0  0  0  0
   20.4538  -15.5237   25.5653 C   0  0  0  0  0  0  0  0  0  0  0  0
   20.0866  -16.5914   26.4227 C   0  0  0  0  0  0  0  0  0  0  0  0
   20.3366  -18.0471   26.0855 C   0  0  0  0  0  0  0  0  0  0  0  0
   19.7292  -18.9351   27.0178 C   0  0  0  0  0  0  0  0  0  0  0  0
   18.1271  -18.7747   26.9853 C   0  0  0  0  0  0  0  0  0  0  0  0
   18.0229  -17.3066   27.4965 C   0  0  0  0  0  0  0  0  0  0  0  0
   18.6584  -16.2502   26.9308 C   0  0  0  0  0  0  0  0  0  0  0  0
   17.6931  -19.5301   28.0760 C   0  0  0  0  0  0  0  0  0  0  0  0
   16.9971  -20.5922   27.9459 N   0  0  0  0  0  0  0  0  0  0  0  0
   18.1743  -19.1763   29.2436 N   0  0  0  0  0  0  0  0  0  0  0  0
   16.6433  -20.8437   27.0623 H   0  0  0  0  0  0  0  0  0  0  0  0
   16.8142  -21.1599   28.7291 H   0  0  0  0  0  0  0  0  0  0  0  0
   18.7092  -18.3540   29.3269 H   0  0  0  0  0  0  0  0  0  0  0  0
   15.1399  -13.9917   22.6712 C   0  0  0  0  0  0  0  0  0  0  0  0
   13.9021  -14.6443   21.8949 C   0  0  0  0  0  0  0  0  0  0  0  0
   12.6885  -13.5466   21.3001 S   0  0  0  0  0  0  0  0  0  0  0  0
   13.1385  -12.8854   20.0830 O   0  0  0  0  0  0  0  0  0  0  0  0
   11.3602  -14.1804   21.1731 O   0  0  0  0  0  0  0  0  0  0  0  0
   12.1246  -10.1453   23.9441 C   0  0  0  0  0  0  0  0  0  0  0  0
   11.3062  -11.1446   24.2077 C   0  0  0  0  0  0  0  0  0  0  0  0
   11.5014  -12.2217   23.4132 C   0  0  0  0  0  0  0  0  0  0  0  0
   12.4445  -12.2296   22.3953 C   0  0  0  0  0  0  0  0  0  0  0  0
   13.1892  -11.1838   22.1091 C   0  0  0  0  0  0  0  0  0  0  0  0
   13.0391  -10.0955   22.8860 C   0  0  0  0  0  0  0  0  0  0  0  0
   11.9100   -8.6878   24.9234 Br  0  0  0  0  0  0  0  0  0  0  0  0
 34 35  2  0  0  0
 34 39  1  0  0  0
 34 40  1  0  0  0
 35 36  1  0  0  0
 36 37  2  0  0  0
 37 38  1  0  0  0
 37 31  1  0  0  0
 38 39  2  0  0  0
 31 32  2  0  0  0
 31 33  2  0  0  0
 31 30  1  0  0  0
 30 29  1  0  0  0
 29 11  1  0  0  0
  1  2  1  0  0  0
  1  8  1  0  0  0
  1 12  1  0  0  0
  2  3  2  0  0  0
  3  4  1  0  0  0
  4  7  1  0  0  0
  5  7  1  0  0  0
  5 10  2  0  0  0
  5 11  1  0  0  0
  6  8  1  0  0  0
  6  9  2  0  0  0
  6 11  1  0  0  0
  7  8  1  0  0  0
 12 13  2  0  0  0
 12 14  1  0  0  0
 16 17  1  0  0  0
 16 14  1  0  0  0
 17 18  1  0  0  0
 17 22  1  0  0  0
 18 19  1  0  0  0
 19 20  1  0  0  0
 20 21  1  0  0  0
 20 23  1  0  0  0
 21 22  1  0  0  0
 23 24  1  0  0  0
 23 25  2  0  0  0
 14 15  1  0  0  0
 24 26  1  0  0  0
 24 27  1  0  0  0
 25 28  1  0  0  0
M  END
> <minimizedAffinity>
-9.29613

$$$$
1C4U_IH1_2_370


 40 43  0  0  0  0  0  0  0  0999 V2000
   18.1564  -12.9304   21.3192 C   0  0  0  0  0  0  0  0  0  0  0  0
   19.3237  -12.7122   20.5580 C   0  0  0  0  0  0  0  0  0  0  0  0
   20.3465  -13.4927   20.2321 C   0  0  0  0  0  0  0  0  0  0  0  0
   20.3190  -14.8796   20.8348 C   0  0  0  0  0  0  0  0  0  0  0  0
   19.1785  -16.2022   22.4458 C   0  0  0  0  0  0  0  0  0  0  0  0
   17.5846  -14.7549   22.8272 C   0  0  0  0  0  0  0  0  0  0  0  0
   19.2405  -15.0881   21.6156 N   0  0  0  0  0  0  0  0  0  0  0  0
   18.4189  -14.1296   22.0873 N   0  0  0  0  0  0  0  0  0  0  0  0
   16.5861  -14.3657   23.2163 O   0  0  0  0  0  0  0  0  0  0  0  0
   20.0164  -17.0773   22.3364 O   0  0  0  0  0  0  0  0  0  0  0  0
   18.0746  -16.0348   23.0630 N   0  0  0  0  0  0  0  0  0  0  0  0
   16.7510  -12.8233   20.3856 C   0  0  0  0  0  0  0  0  0  0  0  0
   16.7945  -12.6481   19.1124 O   0  0  0  0  0  0  0  0  0  0  0  0
   15.4305  -12.5074   20.7675 N   0  0  0  0  0  0  0  0  0  0  0  0
   15.3691  -12.4028   21.7445 H   0  0  0  0  0  0  0  0  0  0  0  0
   14.4250  -12.3389   20.2878 C   0  0  0  0  0  0  0  0  0  0  0  0
   13.2848  -11.9276   21.0230 C   0  0  0  0  0  0  0  0  0  0  0  0
   12.8749  -10.4767   21.1717 C   0  0  0  0  0  0  0  0  0  0  0  0
   11.8019  -10.3045   22.0912 C   0  0  0  0  0  0  0  0  0  0  0  0
   12.2500  -10.7587   23.5698 C   0  0  0  0  0  0  0  0  0  0  0  0
   12.4826  -12.2746   23.2945 C   0  0  0  0  0  0  0  0  0  0  0  0
   13.3060  -12.7624   22.3334 C   0  0  0  0  0  0  0  0  0  0  0  0
   11.0607  -10.7400   24.3004 C   0  0  0  0  0  0  0  0  0  0  0  0
   10.6389   -9.6974   24.9041 N   0  0  0  0  0  0  0  0  0  0  0  0
   10.3136  -11.8134   24.2032 N   0  0  0  0  0  0  0  0  0  0  0  0
   11.2124   -8.8997   24.9682 H   0  0  0  0  0  0  0  0  0  0  0  0
    9.7400   -9.6909   25.3057 H   0  0  0  0  0  0  0  0  0  0  0  0
   10.6539  -12.6093   23.7342 H   0  0  0  0  0  0  0  0  0  0  0  0
   17.4044  -16.9858   23.7968 C   0  0  0  0  0  0  0  0  0  0  0  0
   17.2293  -16.7217   25.3653 C   0  0  0  0  0  0  0  0  0  0  0  0
   18.5666  -17.1714   26.3857 S   0  0  0  0  0  0  0  0  0  0  0  0
   18.3694  -16.6846   27.7441 O   0  0  0  0  0  0  0  0  0  0  0  0
   18.8787  -18.6134   26.3131 O   0  0  0  0  0  0  0  0  0  0  0  0
   22.1852  -15.0645   25.2266 C   0  0  0  0  0  0  0  0  0  0  0  0
   22.3372  -16.3738   25.2545 C   0  0  0  0  0  0  0  0  0  0  0  0
   21.2046  -17.0385   25.5777 C   0  0  0  0  0  0  0  0  0  0  0  0
   20.0242  -16.3804   25.8927 C   0  0  0  0  0  0  0  0  0  0  0  0
   19.9312  -15.0690   25.9326 C   0  0  0  0  0  0  0  0  0  0  0  0
   21.0309  -14.3678   25.6015 C   0  0  0  0  0  0  0  0  0  0  0  0
   23.6325  -14.1235   24.8404 Br  0  0  0  0  0  0  0  0  0  0  0  0
 34 35  2  0  0  0
 34 39  1  0  0  0
 34 40  1  0  0  0
 35 36  1  0  0  0
 36 37  2  0  0  0
 37 38  1  0  0  0
 37 31  1  0  0  0
 38 39  2  0  0  0
 31 32  2  0  0  0
 31 33  2  0  0  0
 31 30  1  0  0  0
 30 29  1  0  0  0
 29 11  1  0  0  0
  1  2  1  0  0  0
  1  8  1  0  0  0
  1 12  1  0  0  0
  2  3  2  0  0  0
  3  4  1  0  0  0
  4  7  1  0  0  0
  5  7  1  0  0  0
  5 10  2  0  0  0
  5 11  1  0  0  0
  6  8  1  0  0  0
  6  9  2  0  0  0
  6 11  1  0  0  0
  7  8  1  0  0  0
 12 13  2  0  0  0
 12 14  1  0  0  0
 16 17  1  0  0  0
 16 14  1  0  0  0
 17 18  1  0  0  0
 17 22  1  0  0  0
 18 19  1  0  0  0
 19 20  1  0  0  0
 20 21  1  0  0  0
 20 23  1  0  0  0
 21 22  1  0  0  0
 23 24  1  0  0  0
 23 25  2  0  0  0
 14 15  1  0  0  0
 24 26  1  0  0  0
 24 27  1  0  0  0
 25 28  1  0  0  0
M  END
> <minimizedAffinity>
-9.22403

$$$$
1C4U_IH1_2_370


 40 43  0  0  0  0  0  0  0  0999 V2000
   13.4136  -16.9716   19.2492 C   0  0  0  0  0  0  0  0  0  0  0  0
   12.0491  -17.3273   19.2138 C   0  0  0  0  0  0  0  0  0  0  0  0
   11.2555  -17.9445   20.0801 C   0  0  0  0  0  0  0  0  0  0  0  0
   11.9324  -18.4364   21.3400 C   0  0  0  0  0  0  0  0  0  0  0  0
   14.0751  -18.7518   22.3171 C   0  0  0  0  0  0  0  0  0  0  0  0
   15.1830  -17.6874   20.7615 C   0  0  0  0  0  0  0  0  0  0  0  0
   13.2510  -18.1592   21.3663 N   0  0  0  0  0  0  0  0  0  0  0  0
   13.9908  -17.7736   20.3079 N   0  0  0  0  0  0  0  0  0  0  0  0
   16.0680  -17.1627   20.2703 O   0  0  0  0  0  0  0  0  0  0  0  0
   13.5774  -19.3809   23.2316 O   0  0  0  0  0  0  0  0  0  0  0  0
   15.2318  -18.3167   22.0006 N   0  0  0  0  0  0  0  0  0  0  0  0
   13.6413  -15.2964   19.2471 C   0  0  0  0  0  0  0  0  0  0  0  0
   14.4115  -14.7180   18.3951 O   0  0  0  0  0  0  0  0  0  0  0  0
   13.4330  -14.3516   20.2734 N   0  0  0  0  0  0  0  0  0  0  0  0
   13.0386  -14.7831   21.0654 H   0  0  0  0  0  0  0  0  0  0  0  0
   13.5835  -13.2501   20.4569 C   0  0  0  0  0  0  0  0  0  0  0  0
   13.2428  -12.6242   21.6826 C   0  0  0  0  0  0  0  0  0  0  0  0
   11.8440  -12.6493   22.2639 C   0  0  0  0  0  0  0  0  0  0  0  0
   11.7137  -11.8119   23.4078 C   0  0  0  0  0  0  0  0  0  0  0  0
   11.9658  -10.2721   23.0092 C   0  0  0  0  0  0  0  0  0  0  0  0
   13.4623  -10.3757   22.5878 C   0  0  0  0  0  0  0  0  0  0  0  0
   13.9383  -11.2351   21.6526 C   0  0  0  0  0  0  0  0  0  0  0  0
   12.0193   -9.6128   24.2384 C   0  0  0  0  0  0  0  0  0  0  0  0
   11.1609   -9.8072   25.1630 N   0  0  0  0  0  0  0  0  0  0  0  0
   13.0951   -8.8948   24.4551 N   0  0  0  0  0  0  0  0  0  0  0  0
   10.3585  -10.3488   24.9838 H   0  0  0  0  0  0  0  0  0  0  0  0
   11.3014   -9.4157   26.0553 H   0  0  0  0  0  0  0  0  0  0  0  0
   13.7474   -8.7544   23.7312 H   0  0  0  0  0  0  0  0  0  0  0  0
   16.3619  -18.3768   22.7824 C   0  0  0  0  0  0  0  0  0  0  0  0
   16.3260  -17.6229   24.1935 C   0  0  0  0  0  0  0  0  0  0  0  0
   17.7848  -16.8050   24.6778 S   0  0  0  0  0  0  0  0  0  0  0  0
   17.5346  -15.9250   25.8109 O   0  0  0  0  0  0  0  0  0  0  0  0
   18.9153  -17.7325   24.8868 O   0  0  0  0  0  0  0  0  0  0  0  0
   19.2672  -14.1665   21.5605 C   0  0  0  0  0  0  0  0  0  0  0  0
   17.9664  -14.0631   21.7481 C   0  0  0  0  0  0  0  0  0  0  0  0
   17.5035  -14.8538   22.7429 C   0  0  0  0  0  0  0  0  0  0  0  0
   18.3303  -15.7167   23.4483 C   0  0  0  0  0  0  0  0  0  0  0  0
   19.6106  -15.8520   23.1791 C   0  0  0  0  0  0  0  0  0  0  0  0
   20.1167  -15.0713   22.2069 C   0  0  0  0  0  0  0  0  0  0  0  0
   19.9432  -13.1835   20.2542 Br  0  0  0  0  0  0  0  0  0  0  0  0
 34 35  2  0  0  0
 34 39  1  0  0  0
 34 40  1  0  0  0
 35 36  1  0  0  0
 36 37  2  0  0  0
 37 38  1  0  0  0
 37 31  1  0  0  0
 38 39  2  0  0  0
 31 32  2  0  0  0
 31 33  2  0  0  0
 31 30  1  0  0  0
 30 29  1  0  0  0
 29 11  1  0  0  0
  1  2  1  0  0  0
  1  8  1  0  0  0
  1 12  1  0  0  0
  2  3  2  0  0  0
  3  4  1  0  0  0
  4  7  1  0  0  0
  5  7  1  0  0  0
  5 10  2  0  0  0
  5 11  1  0  0  0
  6  8  1  0  0  0
  6  9  2  0  0  0
  6 11  1  0  0  0
  7  8  1  0  0  0
 12 13  2  0  0  0
 12 14  1  0  0  0
 16 17  1  0  0  0
 16 14  1  0  0  0
 17 18  1  0  0  0
 17 22  1  0  0  0
 18 19  1  0  0  0
 19 20  1  0  0  0
 20 21  1  0  0  0
 20 23  1  0  0  0
 21 22  1  0  0  0
 23 24  1  0  0  0
 23 25  2  0  0  0
 14 15  1  0  0  0
 24 26  1  0  0  0
 24 27  1  0  0  0
 25 28  1  0  0  0
M  END
> <minimizedAffinity>
-9.17964

$$$$
1C4U_IH1_2_370


 40 43  0  0  0  0  0  0  0  0999 V2000
   13.8439  -16.7906   20.4760 C   0  0  0  0  0  0  0  0  0  0  0  0
   13.0799  -17.8392   21.0293 C   0  0  0  0  0  0  0  0  0  0  0  0
   13.2893  -18.6694   22.0434 C   0  0  0  0  0  0  0  0  0  0  0  0
   14.6344  -18.5349   22.7218 C   0  0  0  0  0  0  0  0  0  0  0  0
   16.7540  -17.4860   22.4926 C   0  0  0  0  0  0  0  0  0  0  0  0
   16.1835  -16.2060   20.8144 C   0  0  0  0  0  0  0  0  0  0  0  0
   15.4046  -17.5774   22.1684 N   0  0  0  0  0  0  0  0  0  0  0  0
   15.1889  -16.9933   20.9732 N   0  0  0  0  0  0  0  0  0  0  0  0
   16.2700  -15.3518   20.0641 O   0  0  0  0  0  0  0  0  0  0  0  0
   17.1967  -18.1568   23.4058 O   0  0  0  0  0  0  0  0  0  0  0  0
   17.1605  -16.5331   21.7484 N   0  0  0  0  0  0  0  0  0  0  0  0
   13.0989  -15.2846   20.6630 C   0  0  0  0  0  0  0  0  0  0  0  0
   11.8545  -15.1055   20.3928 O   0  0  0  0  0  0  0  0  0  0  0  0
   13.6646  -13.9938   20.7202 N   0  0  0  0  0  0  0  0  0  0  0  0
   14.6476  -14.0464   20.7042 H   0  0  0  0  0  0  0  0  0  0  0  0
   13.3270  -12.9204   20.7787 C   0  0  0  0  0  0  0  0  0  0  0  0
   13.0490  -12.2708   22.0078 C   0  0  0  0  0  0  0  0  0  0  0  0
   11.6963  -12.3293   22.6876 C   0  0  0  0  0  0  0  0  0  0  0  0
   11.6142  -11.4632   23.8144 C   0  0  0  0  0  0  0  0  0  0  0  0
   11.7783   -9.9279   23.3567 C   0  0  0  0  0  0  0  0  0  0  0  0
   13.2445   -9.9894   22.8330 C   0  0  0  0  0  0  0  0  0  0  0  0
   13.6867  -10.8587   21.8903 C   0  0  0  0  0  0  0  0  0  0  0  0
   11.8922   -9.2303   24.5603 C   0  0  0  0  0  0  0  0  0  0  0  0
   10.9108   -9.0723   25.3612 N   0  0  0  0  0  0  0  0  0  0  0  0
   13.1079   -8.8779   24.9035 N   0  0  0  0  0  0  0  0  0  0  0  0
   10.0042   -9.3421   25.0881 H   0  0  0  0  0  0  0  0  0  0  0  0
   11.0604   -8.6805   26.2519 H   0  0  0  0  0  0  0  0  0  0  0  0
   13.8539   -9.0065   24.2740 H   0  0  0  0  0  0  0  0  0  0  0  0
   18.3515  -15.8568   21.8762 C   0  0  0  0  0  0  0  0  0  0  0  0
   18.5081  -14.8634   23.1209 C   0  0  0  0  0  0  0  0  0  0  0  0
   19.8858  -15.1196   24.1543 S   0  0  0  0  0  0  0  0  0  0  0  0
   20.9896  -15.7108   23.4105 O   0  0  0  0  0  0  0  0  0  0  0  0
   20.2634  -13.9083   24.9109 O   0  0  0  0  0  0  0  0  0  0  0  0
   18.8947  -18.0546   27.2006 C   0  0  0  0  0  0  0  0  0  0  0  0
   19.8841  -18.4376   26.4180 C   0  0  0  0  0  0  0  0  0  0  0  0
   20.2235  -17.5131   25.4911 C   0  0  0  0  0  0  0  0  0  0  0  0
   19.5477  -16.3075   25.3658 C   0  0  0  0  0  0  0  0  0  0  0  0
   18.5120  -15.9931   26.1132 C   0  0  0  0  0  0  0  0  0  0  0  0
   18.1504  -16.8780   27.0602 C   0  0  0  0  0  0  0  0  0  0  0  0
   18.3732  -19.2246   28.4207 Br  0  0  0  0  0  0  0  0  0  0  0  0
 34 35  2  0  0  0
 34 39  1  0  0  0
 34 40  1  0  0  0
 35 36  1  0  0  0
 36 37  2  0  0  0
 37 38  1  0  0  0
 37 31  1  0  0  0
 38 39  2  0  0  0
 31 32  2  0  0  0
 31 33  2  0  0  0
 31 30  1  0  0  0
 30 29  1  0  0  0
 29 11  1  0  0  0
  1  2  1  0  0  0
  1  8  1  0  0  0
  1 12  1  0  0  0
  2  3  2  0  0  0
  3  4  1  0  0  0
  4  7  1  0  0  0
  5  7  1  0  0  0
  5 10  2  0  0  0
  5 11  1  0  0  0
  6  8  1  0  0  0
  6  9  2  0  0  0
  6 11  1  0  0  0
  7  8  1  0  0  0
 12 13  2  0  0  0
 12 14  1  0  0  0
 16 17  1  0  0  0
 16 14  1  0  0  0
 17 18  1  0  0  0
 17 22  1  0  0  0
 18 19  1  0  0  0
 19 20  1  0  0  0
 20 21  1  0  0  0
 20 23  1  0  0  0
 21 22  1  0  0  0
 23 24  1  0  0  0
 23 25  2  0  0  0
 14 15  1  0  0  0
 24 26  1  0  0  0
 24 27  1  0  0  0
 25 28  1  0  0  0
M  END
> <minimizedAffinity>
-9.15482

$$$$
1C4U_IH1_2_370


 40 43  0  0  0  0  0  0  0  0999 V2000
   15.3801  -18.5744   21.8022 C   0  0  0  0  0  0  0  0  0  0  0  0
   16.3057  -19.1681   20.9189 C   0  0  0  0  0  0  0  0  0  0  0  0
   16.5304  -19.0255   19.6187 C   0  0  0  0  0  0  0  0  0  0  0  0
   15.5791  -18.0977   18.8963 C   0  0  0  0  0  0  0  0  0  0  0  0
   13.5482  -16.8985   19.1841 C   0  0  0  0  0  0  0  0  0  0  0  0
   13.3811  -17.2652   21.3330 C   0  0  0  0  0  0  0  0  0  0  0  0
   14.6480  -17.5660   19.7127 N   0  0  0  0  0  0  0  0  0  0  0  0
   14.3557  -18.0008   20.9544 N   0  0  0  0  0  0  0  0  0  0  0  0
   12.9941  -17.1329   22.3973 O   0  0  0  0  0  0  0  0  0  0  0  0
   13.5184  -16.6425   17.9952 O   0  0  0  0  0  0  0  0  0  0  0  0
   12.8712  -16.6002   20.2233 N   0  0  0  0  0  0  0  0  0  0  0  0
   16.1332  -17.6154   22.9732 C   0  0  0  0  0  0  0  0  0  0  0  0
   16.0210  -17.8660   24.2295 O   0  0  0  0  0  0  0  0  0  0  0  0
   16.6081  -16.2898   22.8914 N   0  0  0  0  0  0  0  0  0  0  0  0
   16.5140  -15.9451   21.9740 H   0  0  0  0  0  0  0  0  0  0  0  0
   17.0632  -15.5078   23.5629 C   0  0  0  0  0  0  0  0  0  0  0  0
   18.3851  -15.6052   24.0658 C   0  0  0  0  0  0  0  0  0  0  0  0
   18.7284  -15.4288   25.5309 C   0  0  0  0  0  0  0  0  0  0  0  0
   20.1327  -15.4023   25.7627 C   0  0  0  0  0  0  0  0  0  0  0  0
   20.8000  -14.1338   25.0284 C   0  0  0  0  0  0  0  0  0  0  0  0
   20.5076  -14.5313   23.5505 C   0  0  0  0  0  0  0  0  0  0  0  0
   19.2752  -14.8200   23.0631 C   0  0  0  0  0  0  0  0  0  0  0  0
   22.1720  -14.3552   25.1590 C   0  0  0  0  0  0  0  0  0  0  0  0
   22.9986  -14.1391   24.2106 N   0  0  0  0  0  0  0  0  0  0  0  0
   22.5908  -14.6494   26.3665 N   0  0  0  0  0  0  0  0  0  0  0  0
   22.6677  -13.9193   23.3097 H   0  0  0  0  0  0  0  0  0  0  0  0
   23.9670  -14.1921   24.3799 H   0  0  0  0  0  0  0  0  0  0  0  0
   21.9401  -14.8132   27.0869 H   0  0  0  0  0  0  0  0  0  0  0  0
   11.8346  -15.6980   20.2835 C   0  0  0  0  0  0  0  0  0  0  0  0
   11.8437  -14.6400   21.4840 C   0  0  0  0  0  0  0  0  0  0  0  0
   13.1053  -13.4403   21.4564 S   0  0  0  0  0  0  0  0  0  0  0  0
   14.3341  -13.9659   22.0349 O   0  0  0  0  0  0  0  0  0  0  0  0
   13.2902  -12.8388   20.1199 O   0  0  0  0  0  0  0  0  0  0  0  0
   12.2046   -9.9978   23.9494 C   0  0  0  0  0  0  0  0  0  0  0  0
   11.3851  -11.0102   24.1526 C   0  0  0  0  0  0  0  0  0  0  0  0
   11.6824  -12.0990   23.4074 C   0  0  0  0  0  0  0  0  0  0  0  0
   12.7238  -12.1064   22.4901 C   0  0  0  0  0  0  0  0  0  0  0  0
   13.4713  -11.0498   22.2560 C   0  0  0  0  0  0  0  0  0  0  0  0
   13.2203   -9.9490   22.9880 C   0  0  0  0  0  0  0  0  0  0  0  0
   11.8611   -8.5252   24.8675 Br  0  0  0  0  0  0  0  0  0  0  0  0
 34 35  2  0  0  0
 34 39  1  0  0  0
 34 40  1  0  0  0
 35 36  1  0  0  0
 36 37  2  0  0  0
 37 38  1  0  0  0
 37 31  1  0  0  0
 38 39  2  0  0  0
 31 32  2  0  0  0
 31 33  2  0  0  0
 31 30  1  0  0  0
 30 29  1  0  0  0
 29 11  1  0  0  0
  1  2  1  0  0  0
  1  8  1  0  0  0
  1 12  1  0  0  0
  2  3  2  0  0  0
  3  4  1  0  0  0
  4  7  1  0  0  0
  5  7  1  0  0  0
  5 10  2  0  0  0
  5 11  1  0  0  0
  6  8  1  0  0  0
  6  9  2  0  0  0
  6 11  1  0  0  0
  7  8  1  0  0  0
 12 13  2  0  0  0
 12 14  1  0  0  0
 16 17  1  0  0  0
 16 14  1  0  0  0
 17 18  1  0  0  0
 17 22  1  0  0  0
 18 19  1  0  0  0
 19 20  1  0  0  0
 20 21  1  0  0  0
 20 23  1  0  0  0
 21 22  1  0  0  0
 23 24  1  0  0  0
 23 25  2  0  0  0
 14 15  1  0  0  0
 24 26  1  0  0  0
 24 27  1  0  0  0
 25 28  1  0  0  0
M  END
> <minimizedAffinity>
-9.11613

$$$$
1C4U_IH1_2_370


 40 43  0  0  0  0  0  0  0  0999 V2000
   18.2036  -13.0104   21.3873 C   0  0  0  0  0  0  0  0  0  0  0  0
   19.3878  -12.9113   20.6274 C   0  0  0  0  0  0  0  0  0  0  0  0
   20.3690  -13.7675   20.3712 C   0  0  0  0  0  0  0  0  0  0  0  0
   20.2601  -15.1037   21.0713 C   0  0  0  0  0  0  0  0  0  0  0  0
   19.0346  -16.2428   22.7583 C   0  0  0  0  0  0  0  0  0  0  0  0
   17.5194  -14.6877   23.0148 C   0  0  0  0  0  0  0  0  0  0  0  0
   19.1650  -15.1966   21.8512 N   0  0  0  0  0  0  0  0  0  0  0  0
   18.3931  -14.1635   22.2427 N   0  0  0  0  0  0  0  0  0  0  0  0
   16.5404  -14.2179   23.3623 O   0  0  0  0  0  0  0  0  0  0  0  0
   19.8242  -17.1676   22.7225 O   0  0  0  0  0  0  0  0  0  0  0  0
   17.9363  -15.9718   23.3478 N   0  0  0  0  0  0  0  0  0  0  0  0
   16.8145  -12.8952   20.4308 C   0  0  0  0  0  0  0  0  0  0  0  0
   16.8795  -12.6937   19.1624 O   0  0  0  0  0  0  0  0  0  0  0  0
   15.4848  -12.5972   20.7949 N   0  0  0  0  0  0  0  0  0  0  0  0
   15.4049  -12.5130   21.7726 H   0  0  0  0  0  0  0  0  0  0  0  0
   14.4868  -12.4267   20.3005 C   0  0  0  0  0  0  0  0  0  0  0  0
   13.3367  -12.0131   21.0189 C   0  0  0  0  0  0  0  0  0  0  0  0
   12.9232  -10.5619   21.1546 C   0  0  0  0  0  0  0  0  0  0  0  0
   11.8383  -10.3862   22.0595 C   0  0  0  0  0  0  0  0  0  0  0  0
   12.2681  -10.8321   23.5461 C   0  0  0  0  0  0  0  0  0  0  0  0
   12.5061  -12.3491   23.2818 C   0  0  0  0  0  0  0  0  0  0  0  0
   13.3423  -12.8408   22.3339 C   0  0  0  0  0  0  0  0  0  0  0  0
   11.0695  -10.8110   24.2613 C   0  0  0  0  0  0  0  0  0  0  0  0
   10.6394   -9.7662   24.8552 N   0  0  0  0  0  0  0  0  0  0  0  0
   10.3243  -11.8853   24.1591 N   0  0  0  0  0  0  0  0  0  0  0  0
   11.2115   -8.9679   24.9233 H   0  0  0  0  0  0  0  0  0  0  0  0
    9.7354   -9.7586   25.2452 H   0  0  0  0  0  0  0  0  0  0  0  0
   10.6711  -12.6830   23.6978 H   0  0  0  0  0  0  0  0  0  0  0  0
   17.2085  -16.8296   24.1393 C   0  0  0  0  0  0  0  0  0  0  0  0
   16.9316  -18.3013   23.5752 C   0  0  0  0  0  0  0  0  0  0  0  0
   15.3688  -18.5809   22.8603 S   0  0  0  0  0  0  0  0  0  0  0  0
   15.2912  -19.9183   22.2891 O   0  0  0  0  0  0  0  0  0  0  0  0
   14.2569  -18.2645   23.7800 O   0  0  0  0  0  0  0  0  0  0  0  0
   14.8158  -16.0920   19.3423 C   0  0  0  0  0  0  0  0  0  0  0  0
   13.7932  -16.0452   20.1730 C   0  0  0  0  0  0  0  0  0  0  0  0
   13.9740  -16.7879   21.2888 C   0  0  0  0  0  0  0  0  0  0  0  0
   15.1133  -17.5539   21.4916 C   0  0  0  0  0  0  0  0  0  0  0  0
   16.0791  -17.6392   20.6029 C   0  0  0  0  0  0  0  0  0  0  0  0
   15.9475  -16.9027   19.4844 C   0  0  0  0  0  0  0  0  0  0  0  0
   14.6409  -15.1683   17.8438 Br  0  0  0  0  0  0  0  0  0  0  0  0
 34 35  2  0  0  0
 34 39  1  0  0  0
 34 40  1  0  0  0
 35 36  1  0  0  0
 36 37  2  0  0  0
 37 38  1  0  0  0
 37 31  1  0  0  0
 38 39  2  0  0  0
 31 32  2  0  0  0
 31 33  2  0  0  0
 31 30  1  0  0  0
 30 29  1  0  0  0
 29 11  1  0  0  0
  1  2  1  0  0  0
  1  8  1  0  0  0
  1 12  1  0  0  0
  2  3  2  0  0  0
  3  4  1  0  0  0
  4  7  1  0  0  0
  5  7  1  0  0  0
  5 10  2  0  0  0
  5 11  1  0  0  0
  6  8  1  0  0  0
  6  9  2  0  0  0
  6 11  1  0  0  0
  7  8  1  0  0  0
 12 13  2  0  0  0
 12 14  1  0  0  0
 16 17  1  0  0  0
 16 14  1  0  0  0
 17 18  1  0  0  0
 17 22  1  0  0  0
 18 19  1  0  0  0
 19 20  1  0  0  0
 20 21  1  0  0  0
 20 23  1  0  0  0
 21 22  1  0  0  0
 23 24  1  0  0  0
 23 25  2  0  0  0
 14 15  1  0  0  0
 24 26  1  0  0  0
 24 27  1  0  0  0
 25 28  1  0  0  0
M  END
> <minimizedAffinity>
-8.99944

$$$$
1C4U_IH1_2_370


 40 43  0  0  0  0  0  0  0  0999 V2000
   15.0583  -18.6319   21.6572 C   0  0  0  0  0  0  0  0  0  0  0  0
   15.9860  -19.0027   20.6614 C   0  0  0  0  0  0  0  0  0  0  0  0
   16.4002  -18.4089   19.5490 C   0  0  0  0  0  0  0  0  0  0  0  0
   15.7127  -17.1028   19.2190 C   0  0  0  0  0  0  0  0  0  0  0  0
   13.8788  -15.7345   19.8593 C   0  0  0  0  0  0  0  0  0  0  0  0
   13.3731  -16.8741   21.6554 C   0  0  0  0  0  0  0  0  0  0  0  0
   14.7786  -16.7604   20.1281 N   0  0  0  0  0  0  0  0  0  0  0  0
   14.2594  -17.5801   21.0635 N   0  0  0  0  0  0  0  0  0  0  0  0
   12.8750  -17.0959   22.6567 O   0  0  0  0  0  0  0  0  0  0  0  0
   14.0473  -15.0320   18.8806 O   0  0  0  0  0  0  0  0  0  0  0  0
   13.1267  -15.7397   20.8897 N   0  0  0  0  0  0  0  0  0  0  0  0
   15.7933  -18.3805   23.1588 C   0  0  0  0  0  0  0  0  0  0  0  0
   15.2222  -18.7225   24.2589 O   0  0  0  0  0  0  0  0  0  0  0  0
   16.8233  -17.4898   23.5265 N   0  0  0  0  0  0  0  0  0  0  0  0
   17.1663  -17.0132   22.7363 H   0  0  0  0  0  0  0  0  0  0  0  0
   17.3705  -17.1612   24.4550 C   0  0  0  0  0  0  0  0  0  0  0  0
   18.4226  -16.2113   24.4283 C   0  0  0  0  0  0  0  0  0  0  0  0
   19.7275  -16.4418   23.6939 C   0  0  0  0  0  0  0  0  0  0  0  0
   20.6873  -15.4232   23.9543 C   0  0  0  0  0  0  0  0  0  0  0  0
   21.0891  -15.4146   25.5138 C   0  0  0  0  0  0  0  0  0  0  0  0
   19.7078  -15.0166   26.1149 C   0  0  0  0  0  0  0  0  0  0  0  0
   18.5497  -15.6840   25.8844 C   0  0  0  0  0  0  0  0  0  0  0  0
   21.8519  -14.2544   25.6564 C   0  0  0  0  0  0  0  0  0  0  0  0
   23.0925  -14.2041   25.3596 N   0  0  0  0  0  0  0  0  0  0  0  0
   21.1862  -13.1673   25.9646 N   0  0  0  0  0  0  0  0  0  0  0  0
   23.5776  -15.0295   25.1305 H   0  0  0  0  0  0  0  0  0  0  0  0
   23.5640  -13.3399   25.3598 H   0  0  0  0  0  0  0  0  0  0  0  0
   20.2298  -13.2233   26.1911 H   0  0  0  0  0  0  0  0  0  0  0  0
   12.2484  -14.7468   21.2567 C   0  0  0  0  0  0  0  0  0  0  0  0
   12.7798  -13.6254   22.2670 C   0  0  0  0  0  0  0  0  0  0  0  0
   13.7228  -12.3359   21.5745 S   0  0  0  0  0  0  0  0  0  0  0  0
   13.3066  -12.0662   20.2052 O   0  0  0  0  0  0  0  0  0  0  0  0
   13.7578  -11.1326   22.4306 O   0  0  0  0  0  0  0  0  0  0  0  0
   17.9072  -13.3767   21.0407 C   0  0  0  0  0  0  0  0  0  0  0  0
   17.4145  -13.7944   22.1899 C   0  0  0  0  0  0  0  0  0  0  0  0
   16.1022  -13.5072   22.3470 C   0  0  0  0  0  0  0  0  0  0  0  0
   15.3807  -12.7978   21.3972 C   0  0  0  0  0  0  0  0  0  0  0  0
   15.9264  -12.3266   20.2971 C   0  0  0  0  0  0  0  0  0  0  0  0
   17.2272  -12.6038   20.0928 C   0  0  0  0  0  0  0  0  0  0  0  0
   19.6279  -13.6895   20.7749 Br  0  0  0  0  0  0  0  0  0  0  0  0
 34 35  2  0  0  0
 34 39  1  0  0  0
 34 40  1  0  0  0
 35 36  1  0  0  0
 36 37  2  0  0  0
 37 38  1  0  0  0
 37 31  1  0  0  0
 38 39  2  0  0  0
 31 32  2  0  0  0
 31 33  2  0  0  0
 31 30  1  0  0  0
 30 29  1  0  0  0
 29 11  1  0  0  0
  1  2  1  0  0  0
  1  8  1  0  0  0
  1 12  1  0  0  0
  2  3  2  0  0  0
  3  4  1  0  0  0
  4  7  1  0  0  0
  5  7  1  0  0  0
  5 10  2  0  0  0
  5 11  1  0  0  0
  6  8  1  0  0  0
  6  9  2  0  0  0
  6 11  1  0  0  0
  7  8  1  0  0  0
 12 13  2  0  0  0
 12 14  1  0  0  0
 16 17  1  0  0  0
 16 14  1  0  0  0
 17 18  1  0  0  0
 17 22  1  0  0  0
 18 19  1  0  0  0
 19 20  1  0  0  0
 20 21  1  0  0  0
 20 23  1  0  0  0
 21 22  1  0  0  0
 23 24  1  0  0  0
 23 25  2  0  0  0
 14 15  1  0  0  0
 24 26  1  0  0  0
 24 27  1  0  0  0
 25 28  1  0  0  0
M  END
> <minimizedAffinity>
-8.97481

$$$$
1C4U_IH1_2_370


 40 43  0  0  0  0  0  0  0  0999 V2000
   15.3415  -16.2997   20.4812 C   0  0  0  0  0  0  0  0  0  0  0  0
   15.2766  -17.1960   19.3941 C   0  0  0  0  0  0  0  0  0  0  0  0
   15.4665  -18.5057   19.2928 C   0  0  0  0  0  0  0  0  0  0  0  0
   15.9055  -19.1955   20.5652 C   0  0  0  0  0  0  0  0  0  0  0  0
   16.6641  -18.7528   22.7729 C   0  0  0  0  0  0  0  0  0  0  0  0
   16.2700  -16.6031   22.7119 C   0  0  0  0  0  0  0  0  0  0  0  0
   16.0321  -18.3451   21.6029 N   0  0  0  0  0  0  0  0  0  0  0  0
   16.0775  -17.0012   21.5124 N   0  0  0  0  0  0  0  0  0  0  0  0
   16.1274  -15.5464   23.1156 O   0  0  0  0  0  0  0  0  0  0  0  0
   16.9444  -19.9269   22.9235 O   0  0  0  0  0  0  0  0  0  0  0  0
   16.6552  -17.6937   23.4839 N   0  0  0  0  0  0  0  0  0  0  0  0
   13.8376  -15.6167   20.8418 C   0  0  0  0  0  0  0  0  0  0  0  0
   12.7429  -16.1009   20.3720 O   0  0  0  0  0  0  0  0  0  0  0  0
   13.5155  -14.3207   21.2958 N   0  0  0  0  0  0  0  0  0  0  0  0
   14.3341  -13.8014   21.4675 H   0  0  0  0  0  0  0  0  0  0  0  0
   12.6007  -13.7025   21.5204 C   0  0  0  0  0  0  0  0  0  0  0  0
   12.5547  -12.7585   22.5771 C   0  0  0  0  0  0  0  0  0  0  0  0
   11.3025  -12.4783   23.3827 C   0  0  0  0  0  0  0  0  0  0  0  0
   11.4594  -11.3751   24.2687 C   0  0  0  0  0  0  0  0  0  0  0  0
   11.7262  -10.0210   23.4389 C   0  0  0  0  0  0  0  0  0  0  0  0
   13.0976  -10.3967   22.8018 C   0  0  0  0  0  0  0  0  0  0  0  0
   13.3191  -11.5092   22.0582 C   0  0  0  0  0  0  0  0  0  0  0  0
   12.0684   -9.0891   24.4203 C   0  0  0  0  0  0  0  0  0  0  0  0
   11.2186   -8.6136   25.2457 N   0  0  0  0  0  0  0  0  0  0  0  0
   13.3498   -8.8438   24.5532 N   0  0  0  0  0  0  0  0  0  0  0  0
   10.2601   -8.8074   25.1318 H   0  0  0  0  0  0  0  0  0  0  0  0
   11.5217   -8.0532   25.9963 H   0  0  0  0  0  0  0  0  0  0  0  0
   13.9922   -9.2181   23.9079 H   0  0  0  0  0  0  0  0  0  0  0  0
   16.9083  -17.6221   24.8340 C   0  0  0  0  0  0  0  0  0  0  0  0
   18.3311  -18.1431   25.3484 C   0  0  0  0  0  0  0  0  0  0  0  0
   19.6167  -16.9702   25.4057 S   0  0  0  0  0  0  0  0  0  0  0  0
   19.3600  -15.9685   26.4313 O   0  0  0  0  0  0  0  0  0  0  0  0
   20.9522  -17.5933   25.5079 O   0  0  0  0  0  0  0  0  0  0  0  0
   19.8076  -14.5043   21.8336 C   0  0  0  0  0  0  0  0  0  0  0  0
   20.0614  -15.7761   21.5965 C   0  0  0  0  0  0  0  0  0  0  0  0
   19.9666  -16.5563   22.6972 C   0  0  0  0  0  0  0  0  0  0  0  0
   19.6774  -16.0359   23.9507 C   0  0  0  0  0  0  0  0  0  0  0  0
   19.5089  -14.7490   24.1638 C   0  0  0  0  0  0  0  0  0  0  0  0
   19.5783  -13.9378   23.0924 C   0  0  0  0  0  0  0  0  0  0  0  0
   19.9413  -13.4148   20.4463 Br  0  0  0  0  0  0  0  0  0  0  0  0
 34 35  2  0  0  0
 34 39  1  0  0  0
 34 40  1  0  0  0
 35 36  1  0  0  0
 36 37  2  0  0  0
 37 38  1  0  0  0
 37 31  1  0  0  0
 38 39  2  0  0  0
 31 32  2  0  0  0
 31 33  2  0  0  0
 31 30  1  0  0  0
 30 29  1  0  0  0
 29 11  1  0  0  0
  1  2  1  0  0  0
  1  8  1  0  0  0
  1 12  1  0  0  0
  2  3  2  0  0  0
  3  4  1  0  0  0
  4  7  1  0  0  0
  5  7  1  0  0  0
  5 10  2  0  0  0
  5 11  1  0  0  0
  6  8  1  0  0  0
  6  9  2  0  0  0
  6 11  1  0  0  0
  7  8  1  0  0  0
 12 13  2  0  0  0
 12 14  1  0  0  0
 16 17  1  0  0  0
 16 14  1  0  0  0
 17 18  1  0  0  0
 17 22  1  0  0  0
 18 19  1  0  0  0
 19 20  1  0  0  0
 20 21  1  0  0  0
 20 23  1  0  0  0
 21 22  1  0  0  0
 23 24  1  0  0  0
 23 25  2  0  0  0
 14 15  1  0  0  0
 24 26  1  0  0  0
 24 27  1  0  0  0
 25 28  1  0  0  0
M  END
> <minimizedAffinity>
-8.59993

$$$$
1C4U_IH1_2_370


 40 43  0  0  0  0  0  0  0  0999 V2000
   14.4939  -18.3497   23.1654 C   0  0  0  0  0  0  0  0  0  0  0  0
   14.0024  -19.6624   23.0077 C   0  0  0  0  0  0  0  0  0  0  0  0
   13.8392  -20.4427   21.9466 C   0  0  0  0  0  0  0  0  0  0  0  0
   14.1762  -19.8048   20.6173 C   0  0  0  0  0  0  0  0  0  0  0  0
   14.6993  -17.7127   19.6198 C   0  0  0  0  0  0  0  0  0  0  0  0
   14.9150  -16.6216   21.5022 C   0  0  0  0  0  0  0  0  0  0  0  0
   14.5910  -18.5286   20.7410 N   0  0  0  0  0  0  0  0  0  0  0  0
   14.4516  -17.7636   21.8418 N   0  0  0  0  0  0  0  0  0  0  0  0
   15.2098  -15.7664   22.1963 O   0  0  0  0  0  0  0  0  0  0  0  0
   14.5892  -18.2015   18.5114 O   0  0  0  0  0  0  0  0  0  0  0  0
   15.0455  -16.5905   20.1181 N   0  0  0  0  0  0  0  0  0  0  0  0
   15.9294  -18.3036   24.0573 C   0  0  0  0  0  0  0  0  0  0  0  0
   16.5602  -19.3760   24.3826 O   0  0  0  0  0  0  0  0  0  0  0  0
   16.4462  -17.2910   24.8921 N   0  0  0  0  0  0  0  0  0  0  0  0
   15.8708  -16.4927   24.8638 H   0  0  0  0  0  0  0  0  0  0  0  0
   17.3213  -17.1234   25.5817 C   0  0  0  0  0  0  0  0  0  0  0  0
   18.1886  -16.0083   25.4616 C   0  0  0  0  0  0  0  0  0  0  0  0
   18.8693  -15.6252   24.1635 C   0  0  0  0  0  0  0  0  0  0  0  0
   19.8187  -14.5781   24.3338 C   0  0  0  0  0  0  0  0  0  0  0  0
   21.0151  -15.0555   25.3002 C   0  0  0  0  0  0  0  0  0  0  0  0
   20.1980  -15.2573   26.6114 C   0  0  0  0  0  0  0  0  0  0  0  0
   19.1017  -16.0489   26.7182 C   0  0  0  0  0  0  0  0  0  0  0  0
   21.7359  -13.8851   25.5435 C   0  0  0  0  0  0  0  0  0  0  0  0
   22.8861  -13.6655   25.0350 N   0  0  0  0  0  0  0  0  0  0  0  0
   21.0971  -12.9469   26.2003 N   0  0  0  0  0  0  0  0  0  0  0  0
   23.3523  -14.3808   24.5449 H   0  0  0  0  0  0  0  0  0  0  0  0
   23.3068  -12.7809   25.1331 H   0  0  0  0  0  0  0  0  0  0  0  0
   20.2107  -13.1326   26.5863 H   0  0  0  0  0  0  0  0  0  0  0  0
   15.5511  -15.5168   19.4227 C   0  0  0  0  0  0  0  0  0  0  0  0
   14.5081  -14.4379   18.8671 C   0  0  0  0  0  0  0  0  0  0  0  0
   14.7784  -12.7815   19.3305 S   0  0  0  0  0  0  0  0  0  0  0  0
   16.1359  -12.5957   19.8241 O   0  0  0  0  0  0  0  0  0  0  0  0
   14.3972  -11.8244   18.2718 O   0  0  0  0  0  0  0  0  0  0  0  0
   12.3088  -11.8297   22.7761 C   0  0  0  0  0  0  0  0  0  0  0  0
   13.1932  -10.8917   22.5006 C   0  0  0  0  0  0  0  0  0  0  0  0
   13.9403  -11.1635   21.4065 C   0  0  0  0  0  0  0  0  0  0  0  0
   13.8027  -12.3444   20.6907 C   0  0  0  0  0  0  0  0  0  0  0  0
   12.9639  -13.2944   21.0428 C   0  0  0  0  0  0  0  0  0  0  0  0
   12.1885  -13.0583   22.1169 C   0  0  0  0  0  0  0  0  0  0  0  0
   11.3131  -11.5593   24.2131 Br  0  0  0  0  0  0  0  0  0  0  0  0
 34 35  2  0  0  0
 34 39  1  0  0  0
 34 40  1  0  0  0
 35 36  1  0  0  0
 36 37  2  0  0  0
 37 38  1  0  0  0
 37 31  1  0  0  0
 38 39  2  0  0  0
 31 32  2  0  0  0
 31 33  2  0  0  0
 31 30  1  0  0  0
 30 29  1  0  0  0
 29 11  1  0  0  0
  1  2  1  0  0  0
  1  8  1  0  0  0
  1 12  1  0  0  0
  2  3  2  0  0  0
  3  4  1  0  0  0
  4  7  1  0  0  0
  5  7  1  0  0  0
  5 10  2  0  0  0
  5 11  1  0  0  0
  6  8  1  0  0  0
  6  9  2  0  0  0
  6 11  1  0  0  0
  7  8  1  0  0  0
 12 13  2  0  0  0
 12 14  1  0  0  0
 16 17  1  0  0  0
 16 14  1  0  0  0
 17 18  1  0  0  0
 17 22  1  0  0  0
 18 19  1  0  0  0
 19 20  1  0  0  0
 20 21  1  0  0  0
 20 23  1  0  0  0
 21 22  1  0  0  0
 23 24  1  0  0  0
 23 25  2  0  0  0
 14 15  1  0  0  0
 24 26  1  0  0  0
 24 27  1  0  0  0
 25 28  1  0  0  0
M  END
> <minimizedAffinity>
-8.56544

$$$$
