2YGF_GDM_A_1215


 44 45  0  0  0  0  0  0  0  0999 V2000
   25.6486  -33.1269    0.1006 O   0  0  0  0  0  0  0  0  0  0  0  0
   22.2483  -36.3678   -9.5363 O   0  0  0  0  0  0  0  0  0  0  0  0
   24.2692  -30.9665   -6.5201 O   0  0  0  0  0  0  0  0  0  0  0  0
   26.5996  -34.7687   -3.4586 O   0  0  0  0  0  0  0  0  0  0  0  0
   25.6769  -32.4024   -2.0684 N   0  0  0  0  0  0  0  0  0  0  0  0
   25.3728  -33.3839   -1.0374 C   0  0  0  0  0  0  0  0  0  0  0  0
   24.6811  -34.6974   -1.4114 C   0  0  0  0  0  0  0  0  0  0  0  0
   23.5319  -34.5721   -2.3173 C   0  0  0  0  0  0  0  0  0  0  0  0
   22.2201  -35.3055   -2.0382 C   0  0  0  0  0  0  0  0  0  0  0  0
   21.1252  -35.1152   -2.9991 C   0  0  0  0  0  0  0  0  0  0  0  0
   20.7108  -33.6740   -3.3039 C   0  0  0  0  0  0  0  0  0  0  0  0
   19.6976  -33.6587   -4.4588 C   0  0  0  0  0  0  0  0  0  0  0  0
   20.4465  -33.6151   -5.7959 C   0  0  0  0  0  0  0  0  0  0  0  0
   20.3843  -34.8156   -6.6320 C   0  0  0  0  0  0  0  0  0  0  0  0
   21.0603  -34.9063   -8.0090 C   0  0  0  0  0  0  0  0  0  0  0  0
   21.5164  -36.3560   -8.3042 C   0  0  0  0  0  0  0  0  0  0  0  0
   22.4674  -36.8673   -7.2083 C   0  0  0  0  0  0  0  0  0  0  0  0
   23.7679  -36.0605   -7.3234 C   0  0  0  0  0  0  0  0  0  0  0  0
   24.4729  -36.0234   -5.9535 C   0  0  0  0  0  0  0  0  0  0  0  0
   25.9291  -35.5785   -6.1506 C   0  0  0  0  0  0  0  0  0  0  0  0
   25.9454  -34.1292   -5.6455 C   0  0  0  0  0  0  0  0  0  0  0  0
   25.3059  -33.0930   -6.4584 C   0  0  0  0  0  0  0  0  0  0  0  0
   24.7861  -31.7971   -5.8312 C   0  0  0  0  0  0  0  0  0  0  0  0
   24.9118  -31.5946   -4.3192 C   0  0  0  0  0  0  0  0  0  0  0  0
   25.5452  -32.6346   -3.5044 C   0  0  0  0  0  0  0  0  0  0  0  0
   26.0834  -33.9172   -4.1385 C   0  0  0  0  0  0  0  0  0  0  0  0
   24.7791  -35.8739   -0.4345 C   0  0  0  0  0  0  0  0  0  0  0  0
   21.2018  -32.3399   -6.2219 C   0  0  0  0  0  0  0  0  0  0  0  0
   20.0007  -34.4921   -9.0499 C   0  0  0  0  0  0  0  0  0  0  0  0
   24.4434  -37.3743   -5.2315 C   0  0  0  0  0  0  0  0  0  0  0  0
   21.6784  -36.0502  -10.2540 H   0  0  0  0  0  0  0  0  0  0  0  0
   25.9946  -31.5174   -1.7765 H   0  0  0  0  0  0  0  0  0  0  0  0
   20.0783  -33.1615   -2.1298 O   0  0  0  0  0  0  0  0  0  0  0  0
   18.9526  -33.9803   -1.7865 C   0  0  0  0  0  0  0  0  0  0  0  0
   22.8060  -38.2467   -7.4514 O   0  0  0  0  0  0  0  0  0  0  0  0
   21.7707  -39.1280   -7.0112 C   0  0  0  0  0  0  0  0  0  0  0  0
   25.1895  -33.2607   -7.8584 O   0  0  0  0  0  0  0  0  0  0  0  0
   26.4323  -32.8181   -8.4163 C   0  0  0  0  0  0  0  0  0  0  0  0
   18.9053  -32.4789   -4.3007 O   0  0  0  0  0  0  0  0  0  0  0  0
   17.1328  -31.5118   -5.4066 O   0  0  0  0  0  0  0  0  0  0  0  0
   16.9856  -33.8037   -5.0878 N   0  0  0  0  0  0  0  0  0  0  0  0
   17.6425  -32.5007   -4.9619 C   0  0  0  0  0  0  0  0  0  0  0  0
   17.4147  -34.6090   -4.7183 H   0  0  0  0  0  0  0  0  0  0  0  0
   16.1150  -33.8742   -5.5420 H   0  0  0  0  0  0  0  0  0  0  0  0
  1  6  2  0  0  0
 33 11  1  0  0  0
 33 34  1  0  0  0
 39 12  1  0  0  0
 39 42  1  0  0  0
 40 42  2  0  0  0
  2 16  1  0  0  0
 35 17  1  0  0  0
 35 36  1  0  0  0
 37 22  1  0  0  0
 37 38  1  0  0  0
  3 23  2  0  0  0
  4 26  2  0  0  0
  5  6  1  0  0  0
  5 25  1  0  0  0
 41 42  1  0  0  0
  6  7  1  0  0  0
  7  8  2  0  0  0
  7 27  1  0  0  0
  8  9  1  0  0  0
  9 10  2  0  0  0
 10 11  1  0  0  0
 11 12  1  0  0  0
 12 13  1  0  0  0
 13 14  2  0  0  0
 13 28  1  0  0  0
 14 15  1  0  0  0
 15 16  1  0  0  0
 15 29  1  0  0  0
 16 17  1  0  0  0
 17 18  1  0  0  0
 18 19  1  0  0  0
 19 20  1  0  0  0
 19 30  1  0  0  0
 20 21  1  0  0  0
 21 22  2  0  0  0
 21 26  1  0  0  0
 22 23  1  0  0  0
 23 24  1  0  0  0
 24 25  2  0  0  0
 25 26  1  0  0  0
  2 31  1  0  0  0
  5 32  1  0  0  0
 41 43  1  0  0  0
 41 44  1  0  0  0
M  END
> <minimizedAffinity>
-10.39104

$$$$
