4OMJ_2TX_A_310


 31 31  0  0  0  0  0  0  0  0999 V2000
   93.7023    3.8974    9.4771 C   0  0  0  0  0  0  0  0  0  0  0  0
   93.5697    6.3447    8.7440 C   0  0  0  0  0  0  0  0  0  0  0  0
   94.2500    5.9236    7.4550 C   0  0  0  0  0  0  0  0  0  0  0  0
   93.2514    5.3237    9.7885 C   0  0  0  0  0  0  0  0  0  0  0  0
   93.1953    7.7878    8.9653 C   0  0  0  0  0  0  0  0  0  0  0  0
   91.6890    7.9136    8.8183 C   0  0  0  0  0  0  0  0  0  0  0  0
   90.9533    9.7057    7.1573 C   0  0  0  0  0  0  0  0  0  0  0  0
   90.7922    8.5673    6.1556 C   0  0  0  0  0  0  0  0  0  0  0  0
   91.3876    9.3799    8.5697 C   0  0  0  0  0  0  0  0  0  0  0  0
   90.5131   11.1379    6.8430 C   0  0  0  0  0  0  0  0  0  0  0  0
   89.5403   11.2972    5.7062 C   0  0  0  0  0  0  0  0  0  0  0  0
   87.5464   14.4619    4.5962 C   0  0  0  0  0  0  0  0  0  0  0  0
   87.9465   12.9978    4.7973 C   0  0  0  0  0  0  0  0  0  0  0  0
   88.3450   12.2833    3.5229 C   0  0  0  0  0  0  0  0  0  0  0  0
   87.2165   12.3215    5.8571 O   0  0  0  0  0  0  0  0  0  0  0  0
   88.6756   12.5299    5.9914 C   0  0  0  0  0  0  0  0  0  0  0  0
   92.8451    3.0679   10.3976 C   0  0  0  0  0  0  0  0  0  0  0  0
   91.4873    2.6938    9.8099 C   0  0  0  0  0  0  0  0  0  0  0  0
   91.2899    1.1954    9.6978 C   0  0  0  0  0  0  0  0  0  0  0  0
   92.3878    0.2213   10.1333 C   0  0  0  0  0  0  0  0  0  0  0  0
   90.0611    0.6524    9.0233 C   0  0  0  0  0  0  0  0  0  0  0  0
   88.8833    1.3662    9.6927 C   0  0  0  0  0  0  0  0  0  0  0  0
   87.5772    0.6628    9.3831 C   0  0  0  0  0  0  0  0  0  0  0  0
   86.8340    1.0868    8.1227 C   0  0  0  0  0  0  0  0  0  0  0  0
   87.3529    2.1981    7.2229 C   0  0  0  0  0  0  0  0  0  0  0  0
   85.4828    0.4577    7.8135 C   0  0  0  0  0  0  0  0  0  0  0  0
   84.6938    1.5136    7.0197 C   0  0  0  0  0  0  0  0  0  0  0  0
   83.6640    0.8147    6.1263 C   0  0  0  0  0  0  0  0  0  0  0  0
   83.7709    1.0596    4.6205 C   0  0  0  0  0  0  0  0  0  0  0  0
   84.8796    1.9424    4.0411 C   0  0  0  0  0  0  0  0  0  0  0  0
   82.7674    0.3947    3.6801 C   0  0  0  0  0  0  0  0  0  0  0  0
  3  2  1  0  0  0
  5  2  1  0  0  0
  5  6  1  0  0  0
  2  4  2  0  0  0
  6  9  1  0  0  0
  4  1  1  0  0  0
  1 17  1  0  0  0
 17 18  1  0  0  0
  9  7  2  0  0  0
  8  7  1  0  0  0
 18 19  2  0  0  0
 20 19  1  0  0  0
  7 10  1  0  0  0
 19 21  1  0  0  0
 21 22  1  0  0  0
 10 11  1  0  0  0
 11 16  1  0  0  0
 22 23  1  0  0  0
 23 24  2  0  0  0
 16 15  1  0  0  0
 16 13  1  0  0  0
 24 25  1  0  0  0
 24 26  1  0  0  0
 15 13  1  0  0  0
 14 13  1  0  0  0
 13 12  1  0  0  0
 26 27  1  0  0  0
 27 28  1  0  0  0
 28 29  2  0  0  0
 29 30  1  0  0  0
 29 31  1  0  0  0
M  END
> <minimizedAffinity>
-11.08227

$$$$
4OMJ_2TX_A_310


 31 31  0  0  0  0  0  0  0  0999 V2000
   91.4751    8.6693    8.7221 C   0  0  0  0  0  0  0  0  0  0  0  0
   90.8652    9.8857    6.5558 C   0  0  0  0  0  0  0  0  0  0  0  0
   90.7496    8.5210    5.9032 C   0  0  0  0  0  0  0  0  0  0  0  0
   91.2093    9.9930    8.0067 C   0  0  0  0  0  0  0  0  0  0  0  0
   90.6137   11.1337    5.7490 C   0  0  0  0  0  0  0  0  0  0  0  0
   89.1580   11.5276    5.9284 C   0  0  0  0  0  0  0  0  0  0  0  0
   87.7848   12.9508    4.3159 C   0  0  0  0  0  0  0  0  0  0  0  0
   87.7249   13.9824    5.4373 C   0  0  0  0  0  0  0  0  0  0  0  0
   88.5623   11.6723    4.5404 C   0  0  0  0  0  0  0  0  0  0  0  0
   87.2490   13.2401    2.9113 C   0  0  0  0  0  0  0  0  0  0  0  0
   85.7523   13.2252    2.7575 C   0  0  0  0  0  0  0  0  0  0  0  0
   84.0930   10.4566    4.9495 C   0  0  0  0  0  0  0  0  0  0  0  0
   84.2725   11.7108    4.0899 C   0  0  0  0  0  0  0  0  0  0  0  0
   84.0884   13.0110    4.8441 C   0  0  0  0  0  0  0  0  0  0  0  0
   83.8326   11.5565    2.7128 O   0  0  0  0  0  0  0  0  0  0  0  0
   85.2648   11.7929    3.0013 C   0  0  0  0  0  0  0  0  0  0  0  0
   92.9796    8.5868    8.7232 C   0  0  0  0  0  0  0  0  0  0  0  0
   93.5344    7.4037    9.5114 C   0  0  0  0  0  0  0  0  0  0  0  0
   93.9405    6.2456    8.6221 C   0  0  0  0  0  0  0  0  0  0  0  0
   93.7680    6.3209    7.1028 C   0  0  0  0  0  0  0  0  0  0  0  0
   94.3890    4.9508    9.2402 C   0  0  0  0  0  0  0  0  0  0  0  0
   93.4091    4.6894   10.3875 C   0  0  0  0  0  0  0  0  0  0  0  0
   93.0646    3.2166   10.4802 C   0  0  0  0  0  0  0  0  0  0  0  0
   91.7183    2.7747    9.9206 C   0  0  0  0  0  0  0  0  0  0  0  0
   90.7336    3.7693    9.3247 C   0  0  0  0  0  0  0  0  0  0  0  0
   91.3017    1.3172   10.0593 C   0  0  0  0  0  0  0  0  0  0  0  0
   90.3737    1.0250    8.8673 C   0  0  0  0  0  0  0  0  0  0  0  0
   89.0500    0.4500    9.3814 C   0  0  0  0  0  0  0  0  0  0  0  0
   87.7641    1.0448    8.8055 C   0  0  0  0  0  0  0  0  0  0  0  0
   87.8106    2.1449    7.7417 C   0  0  0  0  0  0  0  0  0  0  0  0
   86.4136    0.5161    9.2851 C   0  0  0  0  0  0  0  0  0  0  0  0
  3  2  1  0  0  0
  5  2  1  0  0  0
  5  6  1  0  0  0
  2  4  2  0  0  0
  6  9  1  0  0  0
  4  1  1  0  0  0
  1 17  1  0  0  0
 17 18  1  0  0  0
  9  7  2  0  0  0
  8  7  1  0  0  0
 18 19  2  0  0  0
 20 19  1  0  0  0
  7 10  1  0  0  0
 19 21  1  0  0  0
 21 22  1  0  0  0
 10 11  1  0  0  0
 11 16  1  0  0  0
 22 23  1  0  0  0
 23 24  2  0  0  0
 16 15  1  0  0  0
 16 13  1  0  0  0
 24 25  1  0  0  0
 24 26  1  0  0  0
 15 13  1  0  0  0
 14 13  1  0  0  0
 13 12  1  0  0  0
 26 27  1  0  0  0
 27 28  1  0  0  0
 28 29  2  0  0  0
 29 30  1  0  0  0
 29 31  1  0  0  0
M  END
> <minimizedAffinity>
-11.05275

$$$$
4OMJ_2TX_A_310


 31 31  0  0  0  0  0  0  0  0999 V2000
   92.9573    7.9395    9.1914 C   0  0  0  0  0  0  0  0  0  0  0  0
   93.5484    5.4739    9.5309 C   0  0  0  0  0  0  0  0  0  0  0  0
   94.2447    5.5266    8.1841 C   0  0  0  0  0  0  0  0  0  0  0  0
   92.9023    6.7023   10.0862 C   0  0  0  0  0  0  0  0  0  0  0  0
   93.5241    4.1900   10.3201 C   0  0  0  0  0  0  0  0  0  0  0  0
   92.9896    3.0908    9.4188 C   0  0  0  0  0  0  0  0  0  0  0  0
   90.9749    1.6140    9.9404 C   0  0  0  0  0  0  0  0  0  0  0  0
   91.9700    0.4617   10.0266 C   0  0  0  0  0  0  0  0  0  0  0  0
   91.4936    3.0073    9.6587 C   0  0  0  0  0  0  0  0  0  0  0  0
   89.4993    1.4478   10.3126 C   0  0  0  0  0  0  0  0  0  0  0  0
   88.6471    0.7000    9.3235 C   0  0  0  0  0  0  0  0  0  0  0  0
   86.9771    1.8077    5.9758 C   0  0  0  0  0  0  0  0  0  0  0  0
   87.2518    1.6415    7.4728 C   0  0  0  0  0  0  0  0  0  0  0  0
   86.2174    0.8122    8.2046 C   0  0  0  0  0  0  0  0  0  0  0  0
   87.8872    2.7927    8.0928 O   0  0  0  0  0  0  0  0  0  0  0  0
   88.6149    1.5061    8.0205 C   0  0  0  0  0  0  0  0  0  0  0  0
   91.5048    8.3147    9.0510 C   0  0  0  0  0  0  0  0  0  0  0  0
   91.2783    9.7425    8.5622 C   0  0  0  0  0  0  0  0  0  0  0  0
   90.9396    9.8101    7.0866 C   0  0  0  0  0  0  0  0  0  0  0  0
   90.8660    8.5392    6.2362 C   0  0  0  0  0  0  0  0  0  0  0  0
   90.8095   11.1465    6.4106 C   0  0  0  0  0  0  0  0  0  0  0  0
   89.4841   11.0859    5.6460 C   0  0  0  0  0  0  0  0  0  0  0  0
   88.6290   12.3000    5.9479 C   0  0  0  0  0  0  0  0  0  0  0  0
   88.0772   13.0815    4.7623 C   0  0  0  0  0  0  0  0  0  0  0  0
   88.3967   12.6907    3.3273 C   0  0  0  0  0  0  0  0  0  0  0  0
   87.2749   14.3491    5.0205 C   0  0  0  0  0  0  0  0  0  0  0  0
   86.0792   14.2998    4.0534 C   0  0  0  0  0  0  0  0  0  0  0  0
   84.9186   13.5508    4.7162 C   0  0  0  0  0  0  0  0  0  0  0  0
   84.2817   12.4116    3.9190 C   0  0  0  0  0  0  0  0  0  0  0  0
   84.8082   12.0270    2.5337 C   0  0  0  0  0  0  0  0  0  0  0  0
   83.1161   11.6328    4.5257 C   0  0  0  0  0  0  0  0  0  0  0  0
  3  2  1  0  0  0
  5  2  1  0  0  0
  5  6  1  0  0  0
  2  4  2  0  0  0
  6  9  1  0  0  0
  4  1  1  0  0  0
  1 17  1  0  0  0
 17 18  1  0  0  0
  9  7  2  0  0  0
  8  7  1  0  0  0
 18 19  2  0  0  0
 20 19  1  0  0  0
  7 10  1  0  0  0
 19 21  1  0  0  0
 21 22  1  0  0  0
 10 11  1  0  0  0
 11 16  1  0  0  0
 22 23  1  0  0  0
 23 24  2  0  0  0
 16 15  1  0  0  0
 16 13  1  0  0  0
 24 25  1  0  0  0
 24 26  1  0  0  0
 15 13  1  0  0  0
 14 13  1  0  0  0
 13 12  1  0  0  0
 26 27  1  0  0  0
 27 28  1  0  0  0
 28 29  2  0  0  0
 29 30  1  0  0  0
 29 31  1  0  0  0
M  END
> <minimizedAffinity>
-10.93983

$$$$
4OMJ_2TX_A_310


 31 31  0  0  0  0  0  0  0  0999 V2000
   94.6605    5.0976    8.9723 C   0  0  0  0  0  0  0  0  0  0  0  0
   93.3784    7.0357    7.9027 C   0  0  0  0  0  0  0  0  0  0  0  0
   93.9763    7.9306    8.9720 C   0  0  0  0  0  0  0  0  0  0  0  0
   93.7317    5.5838    7.8608 C   0  0  0  0  0  0  0  0  0  0  0  0
   92.4442    7.6119    6.8697 C   0  0  0  0  0  0  0  0  0  0  0  0
   91.4380    8.4976    7.5835 C   0  0  0  0  0  0  0  0  0  0  0  0
   90.4156   10.7821    7.0859 C   0  0  0  0  0  0  0  0  0  0  0  0
   90.6401   11.0911    8.5622 C   0  0  0  0  0  0  0  0  0  0  0  0
   90.8605    9.4410    6.5447 C   0  0  0  0  0  0  0  0  0  0  0  0
   89.9313   11.8431    6.0943 C   0  0  0  0  0  0  0  0  0  0  0  0
   88.6262   11.5563    5.4027 C   0  0  0  0  0  0  0  0  0  0  0  0
   85.6042   13.7904    4.3541 C   0  0  0  0  0  0  0  0  0  0  0  0
   86.4142   12.6146    4.9068 C   0  0  0  0  0  0  0  0  0  0  0  0
   86.3037   11.3459    4.0873 C   0  0  0  0  0  0  0  0  0  0  0  0
   86.5033   12.5829    6.3575 O   0  0  0  0  0  0  0  0  0  0  0  0
   87.7286   12.7893    5.5535 C   0  0  0  0  0  0  0  0  0  0  0  0
   93.7040    4.7876   10.0946 C   0  0  0  0  0  0  0  0  0  0  0  0
   93.4360    3.2974   10.2859 C   0  0  0  0  0  0  0  0  0  0  0  0
   92.0219    2.9032    9.9091 C   0  0  0  0  0  0  0  0  0  0  0  0
   91.0190    3.9474    9.4117 C   0  0  0  0  0  0  0  0  0  0  0  0
   91.5477    1.4981   10.1551 C   0  0  0  0  0  0  0  0  0  0  0  0
   90.7167    1.1299    8.9227 C   0  0  0  0  0  0  0  0  0  0  0  0
   89.4175    0.4621    9.3257 C   0  0  0  0  0  0  0  0  0  0  0  0
   88.1326    1.2599    9.1426 C   0  0  0  0  0  0  0  0  0  0  0  0
   88.1443    2.6860    8.6133 C   0  0  0  0  0  0  0  0  0  0  0  0
   86.8139    0.6547    9.6027 C   0  0  0  0  0  0  0  0  0  0  0  0
   86.4397   -0.4011    8.5479 C   0  0  0  0  0  0  0  0  0  0  0  0
   85.0567   -0.0786    7.9728 C   0  0  0  0  0  0  0  0  0  0  0  0
   85.0163    0.6594    6.6339 C   0  0  0  0  0  0  0  0  0  0  0  0
   86.3064    1.0280    5.8964 C   0  0  0  0  0  0  0  0  0  0  0  0
   83.6658    1.0139    6.0143 C   0  0  0  0  0  0  0  0  0  0  0  0
  3  2  1  0  0  0
  5  2  1  0  0  0
  5  6  1  0  0  0
  2  4  2  0  0  0
  6  9  1  0  0  0
  4  1  1  0  0  0
  1 17  1  0  0  0
 17 18  1  0  0  0
  9  7  2  0  0  0
  8  7  1  0  0  0
 18 19  2  0  0  0
 20 19  1  0  0  0
  7 10  1  0  0  0
 19 21  1  0  0  0
 21 22  1  0  0  0
 10 11  1  0  0  0
 11 16  1  0  0  0
 22 23  1  0  0  0
 23 24  2  0  0  0
 16 15  1  0  0  0
 16 13  1  0  0  0
 24 25  1  0  0  0
 24 26  1  0  0  0
 15 13  1  0  0  0
 14 13  1  0  0  0
 13 12  1  0  0  0
 26 27  1  0  0  0
 27 28  1  0  0  0
 28 29  2  0  0  0
 29 30  1  0  0  0
 29 31  1  0  0  0
M  END
> <minimizedAffinity>
-10.73986

$$$$
4OMJ_2TX_A_310


 31 31  0  0  0  0  0  0  0  0999 V2000
   88.8070   11.5957    5.9662 C   0  0  0  0  0  0  0  0  0  0  0  0
   87.9321   13.5164    4.5207 C   0  0  0  0  0  0  0  0  0  0  0  0
   87.3501   14.1136    5.7881 C   0  0  0  0  0  0  0  0  0  0  0  0
   88.7075   12.2399    4.5843 C   0  0  0  0  0  0  0  0  0  0  0  0
   87.7476   14.2184    3.1997 C   0  0  0  0  0  0  0  0  0  0  0  0
   86.2884   14.0938    2.7977 C   0  0  0  0  0  0  0  0  0  0  0  0
   85.0215   11.9459    3.3392 C   0  0  0  0  0  0  0  0  0  0  0  0
   84.2978   12.7616    4.4051 C   0  0  0  0  0  0  0  0  0  0  0  0
   86.0431   12.6347    2.4609 C   0  0  0  0  0  0  0  0  0  0  0  0
   84.6203   10.5081    2.9994 C   0  0  0  0  0  0  0  0  0  0  0  0
   85.6086    9.7203    2.1830 C   0  0  0  0  0  0  0  0  0  0  0  0
   87.8702    6.6296    2.9287 C   0  0  0  0  0  0  0  0  0  0  0  0
   87.4127    8.0061    2.4386 C   0  0  0  0  0  0  0  0  0  0  0  0
   87.3769    8.1472    0.9313 C   0  0  0  0  0  0  0  0  0  0  0  0
   87.8101    9.1072    3.3008 O   0  0  0  0  0  0  0  0  0  0  0  0
   86.3741    8.7916    3.1318 C   0  0  0  0  0  0  0  0  0  0  0  0
   90.2943   11.4577    6.1638 C   0  0  0  0  0  0  0  0  0  0  0  0
   90.6992   11.1036    7.5920 C   0  0  0  0  0  0  0  0  0  0  0  0
   91.1332    9.6588    7.7370 C   0  0  0  0  0  0  0  0  0  0  0  0
   91.1250    8.7094    6.5360 C   0  0  0  0  0  0  0  0  0  0  0  0
   91.4443    9.1056    9.0997 C   0  0  0  0  0  0  0  0  0  0  0  0
   92.6307    8.1602    8.8914 C   0  0  0  0  0  0  0  0  0  0  0  0
   92.5924    7.0164    9.8847 C   0  0  0  0  0  0  0  0  0  0  0  0
   93.3615    5.7509    9.5271 C   0  0  0  0  0  0  0  0  0  0  0  0
   94.1106    5.6145    8.2102 C   0  0  0  0  0  0  0  0  0  0  0  0
   93.2894    4.5520   10.4623 C   0  0  0  0  0  0  0  0  0  0  0  0
   93.0157    3.3306    9.5674 C   0  0  0  0  0  0  0  0  0  0  0  0
   91.5246    2.9832    9.6219 C   0  0  0  0  0  0  0  0  0  0  0  0
   91.1562    1.4989    9.6053 C   0  0  0  0  0  0  0  0  0  0  0  0
   92.2391    0.4173    9.5655 C   0  0  0  0  0  0  0  0  0  0  0  0
   89.6847    1.0916    9.6509 C   0  0  0  0  0  0  0  0  0  0  0  0
  3  2  1  0  0  0
  5  2  1  0  0  0
  5  6  1  0  0  0
  2  4  2  0  0  0
  6  9  1  0  0  0
  4  1  1  0  0  0
  1 17  1  0  0  0
 17 18  1  0  0  0
  9  7  2  0  0  0
  8  7  1  0  0  0
 18 19  2  0  0  0
 20 19  1  0  0  0
  7 10  1  0  0  0
 19 21  1  0  0  0
 21 22  1  0  0  0
 10 11  1  0  0  0
 11 16  1  0  0  0
 22 23  1  0  0  0
 23 24  2  0  0  0
 16 15  1  0  0  0
 16 13  1  0  0  0
 24 25  1  0  0  0
 24 26  1  0  0  0
 15 13  1  0  0  0
 14 13  1  0  0  0
 13 12  1  0  0  0
 26 27  1  0  0  0
 27 28  1  0  0  0
 28 29  2  0  0  0
 29 30  1  0  0  0
 29 31  1  0  0  0
M  END
> <minimizedAffinity>
-10.65446

$$$$
4OMJ_2TX_A_310


 31 31  0  0  0  0  0  0  0  0999 V2000
   89.2631   12.3667    6.0490 C   0  0  0  0  0  0  0  0  0  0  0  0
   87.1107   13.5413    5.3200 C   0  0  0  0  0  0  0  0  0  0  0  0
   87.9795   14.6946    4.8543 C   0  0  0  0  0  0  0  0  0  0  0  0
   87.7420   12.3224    5.9120 C   0  0  0  0  0  0  0  0  0  0  0  0
   85.6129   13.6133    5.1681 C   0  0  0  0  0  0  0  0  0  0  0  0
   85.2771   13.4307    3.6983 C   0  0  0  0  0  0  0  0  0  0  0  0
   85.9181   11.1481    2.7545 C   0  0  0  0  0  0  0  0  0  0  0  0
   87.2266   11.8049    2.3281 C   0  0  0  0  0  0  0  0  0  0  0  0
   84.8975   11.9740    3.5067 C   0  0  0  0  0  0  0  0  0  0  0  0
   85.6778    9.6425    2.6171 C   0  0  0  0  0  0  0  0  0  0  0  0
   86.8658    8.7560    2.8757 C   0  0  0  0  0  0  0  0  0  0  0  0
   89.3290    6.7044    0.6516 C   0  0  0  0  0  0  0  0  0  0  0  0
   88.1765    7.0506    1.5981 C   0  0  0  0  0  0  0  0  0  0  0  0
   88.3595    6.5383    3.0113 C   0  0  0  0  0  0  0  0  0  0  0  0
   86.8709    7.0829    0.9593 O   0  0  0  0  0  0  0  0  0  0  0  0
   87.4413    8.3274    1.5216 C   0  0  0  0  0  0  0  0  0  0  0  0
   89.7249   11.4621    4.9360 C   0  0  0  0  0  0  0  0  0  0  0  0
   89.6784    9.9772    5.2852 C   0  0  0  0  0  0  0  0  0  0  0  0
   90.9734    9.4773    5.8933 C   0  0  0  0  0  0  0  0  0  0  0  0
   92.1653   10.4174    6.0913 C   0  0  0  0  0  0  0  0  0  0  0  0
   91.1469    8.0119    6.1802 C   0  0  0  0  0  0  0  0  0  0  0  0
   92.0259    7.9460    7.4323 C   0  0  0  0  0  0  0  0  0  0  0  0
   92.6547    6.5753    7.5809 C   0  0  0  0  0  0  0  0  0  0  0  0
   92.9457    6.0866    8.9942 C   0  0  0  0  0  0  0  0  0  0  0  0
   92.6565    6.9476   10.2144 C   0  0  0  0  0  0  0  0  0  0  0  0
   93.6435    4.7473    9.1851 C   0  0  0  0  0  0  0  0  0  0  0  0
   92.9897    4.0991   10.4178 C   0  0  0  0  0  0  0  0  0  0  0  0
   92.8688    2.5881   10.1948 C   0  0  0  0  0  0  0  0  0  0  0  0
   91.5504    2.0751    9.6137 C   0  0  0  0  0  0  0  0  0  0  0  0
   90.4202    3.0410    9.2478 C   0  0  0  0  0  0  0  0  0  0  0  0
   91.3691    0.5772    9.3755 C   0  0  0  0  0  0  0  0  0  0  0  0
  3  2  1  0  0  0
  5  2  1  0  0  0
  5  6  1  0  0  0
  2  4  2  0  0  0
  6  9  1  0  0  0
  4  1  1  0  0  0
  1 17  1  0  0  0
 17 18  1  0  0  0
  9  7  2  0  0  0
  8  7  1  0  0  0
 18 19  2  0  0  0
 20 19  1  0  0  0
  7 10  1  0  0  0
 19 21  1  0  0  0
 21 22  1  0  0  0
 10 11  1  0  0  0
 11 16  1  0  0  0
 22 23  1  0  0  0
 23 24  2  0  0  0
 16 15  1  0  0  0
 16 13  1  0  0  0
 24 25  1  0  0  0
 24 26  1  0  0  0
 15 13  1  0  0  0
 14 13  1  0  0  0
 13 12  1  0  0  0
 26 27  1  0  0  0
 27 28  1  0  0  0
 28 29  2  0  0  0
 29 30  1  0  0  0
 29 31  1  0  0  0
M  END
> <minimizedAffinity>
-10.48888

$$$$
4OMJ_2TX_A_310


 31 31  0  0  0  0  0  0  0  0999 V2000
   90.5568    1.0764    8.8572 C   0  0  0  0  0  0  0  0  0  0  0  0
   88.0253    1.3188    9.1341 C   0  0  0  0  0  0  0  0  0  0  0  0
   88.1654    2.7153    8.5581 C   0  0  0  0  0  0  0  0  0  0  0  0
   89.2297    0.4446    9.2747 C   0  0  0  0  0  0  0  0  0  0  0  0
   86.6703    0.8031    9.5463 C   0  0  0  0  0  0  0  0  0  0  0  0
   86.2357   -0.2445    8.5364 C   0  0  0  0  0  0  0  0  0  0  0  0
   84.9291    0.8625    6.6446 C   0  0  0  0  0  0  0  0  0  0  0  0
   86.2686    0.9819    5.9257 C   0  0  0  0  0  0  0  0  0  0  0  0
   84.8846    0.1895    7.9991 C   0  0  0  0  0  0  0  0  0  0  0  0
   83.6047    1.2269    5.9688 C   0  0  0  0  0  0  0  0  0  0  0  0
   83.2261    0.4043    4.7672 C   0  0  0  0  0  0  0  0  0  0  0  0
   81.9896    2.5210    1.7317 C   0  0  0  0  0  0  0  0  0  0  0  0
   82.4935    1.3401    2.5657 C   0  0  0  0  0  0  0  0  0  0  0  0
   83.8992    0.8936    2.2224 C   0  0  0  0  0  0  0  0  0  0  0  0
   81.4584    0.3894    2.9377 O   0  0  0  0  0  0  0  0  0  0  0  0
   82.1488    1.1684    3.9898 C   0  0  0  0  0  0  0  0  0  0  0  0
   91.1969    1.4124   10.1792 C   0  0  0  0  0  0  0  0  0  0  0  0
   92.6087    1.9791   10.0575 C   0  0  0  0  0  0  0  0  0  0  0  0
   92.6201    3.4573    9.7236 C   0  0  0  0  0  0  0  0  0  0  0  0
   91.3136    4.2309    9.5279 C   0  0  0  0  0  0  0  0  0  0  0  0
   93.9246    4.1493    9.4423 C   0  0  0  0  0  0  0  0  0  0  0  0
   93.6413    5.6415    9.6368 C   0  0  0  0  0  0  0  0  0  0  0  0
   93.5420    6.3522    8.3020 C   0  0  0  0  0  0  0  0  0  0  0  0
   92.7919    7.6777    8.2673 C   0  0  0  0  0  0  0  0  0  0  0  0
   92.1312    8.2564    9.5093 C   0  0  0  0  0  0  0  0  0  0  0  0
   92.6057    8.3878    6.9339 C   0  0  0  0  0  0  0  0  0  0  0  0
   91.1458    8.1359    6.5182 C   0  0  0  0  0  0  0  0  0  0  0  0
   90.7216    9.1859    5.4863 C   0  0  0  0  0  0  0  0  0  0  0  0
   90.3175   10.5609    6.0204 C   0  0  0  0  0  0  0  0  0  0  0  0
   90.3668   10.8714    7.5188 C   0  0  0  0  0  0  0  0  0  0  0  0
   89.8788   11.6464    5.0393 C   0  0  0  0  0  0  0  0  0  0  0  0
  3  2  1  0  0  0
  5  2  1  0  0  0
  5  6  1  0  0  0
  2  4  2  0  0  0
  6  9  1  0  0  0
  4  1  1  0  0  0
  1 17  1  0  0  0
 17 18  1  0  0  0
  9  7  2  0  0  0
  8  7  1  0  0  0
 18 19  2  0  0  0
 20 19  1  0  0  0
  7 10  1  0  0  0
 19 21  1  0  0  0
 21 22  1  0  0  0
 10 11  1  0  0  0
 11 16  1  0  0  0
 22 23  1  0  0  0
 23 24  2  0  0  0
 16 15  1  0  0  0
 16 13  1  0  0  0
 24 25  1  0  0  0
 24 26  1  0  0  0
 15 13  1  0  0  0
 14 13  1  0  0  0
 13 12  1  0  0  0
 26 27  1  0  0  0
 27 28  1  0  0  0
 28 29  2  0  0  0
 29 30  1  0  0  0
 29 31  1  0  0  0
M  END
> <minimizedAffinity>
-10.44214

$$$$
4OMJ_2TX_A_310


 31 31  0  0  0  0  0  0  0  0999 V2000
   90.4153   11.1949    5.6398 C   0  0  0  0  0  0  0  0  0  0  0  0
   91.2963    9.0797    6.7771 C   0  0  0  0  0  0  0  0  0  0  0  0
   91.1888    9.8259    8.0936 C   0  0  0  0  0  0  0  0  0  0  0  0
   90.8816    9.7462    5.5049 C   0  0  0  0  0  0  0  0  0  0  0  0
   91.8016    7.6599    6.7515 C   0  0  0  0  0  0  0  0  0  0  0  0
   93.0776    7.5971    7.5727 C   0  0  0  0  0  0  0  0  0  0  0  0
   93.4890    5.5793    9.0797 C   0  0  0  0  0  0  0  0  0  0  0  0
   93.0594    6.4805   10.2324 C   0  0  0  0  0  0  0  0  0  0  0  0
   93.4705    6.1348    7.6724 C   0  0  0  0  0  0  0  0  0  0  0  0
   93.7568    4.0840    9.2688 C   0  0  0  0  0  0  0  0  0  0  0  0
   92.8034    3.3495   10.1718 C   0  0  0  0  0  0  0  0  0  0  0  0
   90.6334    0.7127    8.2847 C   0  0  0  0  0  0  0  0  0  0  0  0
   91.3144    1.4864    9.4168 C   0  0  0  0  0  0  0  0  0  0  0  0
   92.3888    0.7046   10.1433 C   0  0  0  0  0  0  0  0  0  0  0  0
   90.4386    2.4133   10.1151 O   0  0  0  0  0  0  0  0  0  0  0  0
   91.5859    2.9343    9.3388 C   0  0  0  0  0  0  0  0  0  0  0  0
   89.0258   11.1537    5.0584 C   0  0  0  0  0  0  0  0  0  0  0  0
   88.1950   12.4001    5.3505 C   0  0  0  0  0  0  0  0  0  0  0  0
   87.9537   13.2462    4.1165 C   0  0  0  0  0  0  0  0  0  0  0  0
   88.5279   12.8384    2.7571 C   0  0  0  0  0  0  0  0  0  0  0  0
   87.2619   14.5745    4.2452 C   0  0  0  0  0  0  0  0  0  0  0  0
   85.7932   14.2406    4.5219 C   0  0  0  0  0  0  0  0  0  0  0  0
   85.2857   13.1897    3.5554 C   0  0  0  0  0  0  0  0  0  0  0  0
   84.6445   11.9419    4.1493 C   0  0  0  0  0  0  0  0  0  0  0  0
   84.5466   11.7303    5.6526 C   0  0  0  0  0  0  0  0  0  0  0  0
   84.1878   10.8290    3.2165 C   0  0  0  0  0  0  0  0  0  0  0  0
   85.4225   10.4365    2.3866 C   0  0  0  0  0  0  0  0  0  0  0  0
   86.3776    9.6103    3.2540 C   0  0  0  0  0  0  0  0  0  0  0  0
   87.3171    8.6462    2.5280 C   0  0  0  0  0  0  0  0  0  0  0  0
   87.3144    8.5416    1.0005 C   0  0  0  0  0  0  0  0  0  0  0  0
   88.2873    7.7910    3.3408 C   0  0  0  0  0  0  0  0  0  0  0  0
  3  2  1  0  0  0
  5  2  1  0  0  0
  5  6  1  0  0  0
  2  4  2  0  0  0
  6  9  1  0  0  0
  4  1  1  0  0  0
  1 17  1  0  0  0
 17 18  1  0  0  0
  9  7  2  0  0  0
  8  7  1  0  0  0
 18 19  2  0  0  0
 20 19  1  0  0  0
  7 10  1  0  0  0
 19 21  1  0  0  0
 21 22  1  0  0  0
 10 11  1  0  0  0
 11 16  1  0  0  0
 22 23  1  0  0  0
 23 24  2  0  0  0
 16 15  1  0  0  0
 16 13  1  0  0  0
 24 25  1  0  0  0
 24 26  1  0  0  0
 15 13  1  0  0  0
 14 13  1  0  0  0
 13 12  1  0  0  0
 26 27  1  0  0  0
 27 28  1  0  0  0
 28 29  2  0  0  0
 29 30  1  0  0  0
 29 31  1  0  0  0
M  END
> <minimizedAffinity>
-10.42533

$$$$
4OMJ_2TX_A_310


 31 31  0  0  0  0  0  0  0  0999 V2000
   88.2545   13.3290    5.5195 C   0  0  0  0  0  0  0  0  0  0  0  0
   85.9393   13.9482    4.6248 C   0  0  0  0  0  0  0  0  0  0  0  0
   86.6458   14.7564    3.5527 C   0  0  0  0  0  0  0  0  0  0  0  0
   86.7376   13.1836    5.6312 C   0  0  0  0  0  0  0  0  0  0  0  0
   84.4335   13.8982    4.6651 C   0  0  0  0  0  0  0  0  0  0  0  0
   84.0034   12.4525    4.4877 C   0  0  0  0  0  0  0  0  0  0  0  0
   85.1026   10.4006    3.4421 C   0  0  0  0  0  0  0  0  0  0  0  0
   84.5088    9.6150    4.6064 C   0  0  0  0  0  0  0  0  0  0  0  0
   84.8190   11.8835    3.3416 C   0  0  0  0  0  0  0  0  0  0  0  0
   85.8153    9.7148    2.2737 C   0  0  0  0  0  0  0  0  0  0  0  0
   86.8803    8.7175    2.6412 C   0  0  0  0  0  0  0  0  0  0  0  0
   89.4109    6.5030    0.6624 C   0  0  0  0  0  0  0  0  0  0  0  0
   88.2431    6.9190    1.5609 C   0  0  0  0  0  0  0  0  0  0  0  0
   88.4287    6.5667    3.0219 C   0  0  0  0  0  0  0  0  0  0  0  0
   86.9418    6.8485    0.9164 O   0  0  0  0  0  0  0  0  0  0  0  0
   87.4765    8.1606    1.3438 C   0  0  0  0  0  0  0  0  0  0  0  0
   88.7071   11.9151    5.2620 C   0  0  0  0  0  0  0  0  0  0  0  0
   89.4405   11.2757    6.4377 C   0  0  0  0  0  0  0  0  0  0  0  0
   90.9039   11.0138    6.1432 C   0  0  0  0  0  0  0  0  0  0  0  0
   91.5087   11.3656    4.7815 C   0  0  0  0  0  0  0  0  0  0  0  0
   91.7462   10.2732    7.1441 C   0  0  0  0  0  0  0  0  0  0  0  0
   91.2820    8.8161    7.0642 C   0  0  0  0  0  0  0  0  0  0  0  0
   92.4560    7.8663    7.1905 C   0  0  0  0  0  0  0  0  0  0  0  0
   92.9943    7.5989    8.5904 C   0  0  0  0  0  0  0  0  0  0  0  0
   92.4095    8.2824    9.8171 C   0  0  0  0  0  0  0  0  0  0  0  0
   94.2182    6.7089    8.7550 C   0  0  0  0  0  0  0  0  0  0  0  0
   93.9291    5.4340    7.9437 C   0  0  0  0  0  0  0  0  0  0  0  0
   94.0224    4.2126    8.8639 C   0  0  0  0  0  0  0  0  0  0  0  0
   92.7416    3.7843    9.5815 C   0  0  0  0  0  0  0  0  0  0  0  0
   91.4244    4.5327    9.3596 C   0  0  0  0  0  0  0  0  0  0  0  0
   92.7748    2.5774   10.5173 C   0  0  0  0  0  0  0  0  0  0  0  0
  3  2  1  0  0  0
  5  2  1  0  0  0
  5  6  1  0  0  0
  2  4  2  0  0  0
  6  9  1  0  0  0
  4  1  1  0  0  0
  1 17  1  0  0  0
 17 18  1  0  0  0
  9  7  2  0  0  0
  8  7  1  0  0  0
 18 19  2  0  0  0
 20 19  1  0  0  0
  7 10  1  0  0  0
 19 21  1  0  0  0
 21 22  1  0  0  0
 10 11  1  0  0  0
 11 16  1  0  0  0
 22 23  1  0  0  0
 23 24  2  0  0  0
 16 15  1  0  0  0
 16 13  1  0  0  0
 24 25  1  0  0  0
 24 26  1  0  0  0
 15 13  1  0  0  0
 14 13  1  0  0  0
 13 12  1  0  0  0
 26 27  1  0  0  0
 27 28  1  0  0  0
 28 29  2  0  0  0
 29 30  1  0  0  0
 29 31  1  0  0  0
M  END
> <minimizedAffinity>
-10.15382

$$$$
4OMJ_2TX_A_310


 31 31  0  0  0  0  0  0  0  0999 V2000
   93.5359    8.4173    8.0660 C   0  0  0  0  0  0  0  0  0  0  0  0
   91.7587   10.0077    8.9913 C   0  0  0  0  0  0  0  0  0  0  0  0
   92.2175    9.6023   10.3794 C   0  0  0  0  0  0  0  0  0  0  0  0
   92.4336    9.4374    7.7854 C   0  0  0  0  0  0  0  0  0  0  0  0
   90.6367   11.0003    8.8253 C   0  0  0  0  0  0  0  0  0  0  0  0
   90.7390   11.6017    7.4346 C   0  0  0  0  0  0  0  0  0  0  0  0
   89.5024   11.3295    5.2191 C   0  0  0  0  0  0  0  0  0  0  0  0
   90.8570   11.5453    4.5529 C   0  0  0  0  0  0  0  0  0  0  0  0
   89.4250   11.3190    6.7302 C   0  0  0  0  0  0  0  0  0  0  0  0
   88.2547   10.9373    4.4235 C   0  0  0  0  0  0  0  0  0  0  0  0
   86.9845   11.6579    4.7859 C   0  0  0  0  0  0  0  0  0  0  0  0
   86.9495   15.1661    3.0787 C   0  0  0  0  0  0  0  0  0  0  0  0
   86.4703   13.8764    3.7504 C   0  0  0  0  0  0  0  0  0  0  0  0
   85.6855   12.9569    2.8383 C   0  0  0  0  0  0  0  0  0  0  0  0
   86.1350   14.0270    5.1570 O   0  0  0  0  0  0  0  0  0  0  0  0
   87.2707   13.1634    4.7639 C   0  0  0  0  0  0  0  0  0  0  0  0
   92.8484    7.1024    7.8037 C   0  0  0  0  0  0  0  0  0  0  0  0
   92.3655    6.3934    9.0658 C   0  0  0  0  0  0  0  0  0  0  0  0
   93.3532    5.3619    9.5730 C   0  0  0  0  0  0  0  0  0  0  0  0
   94.6694    5.1020    8.8354 C   0  0  0  0  0  0  0  0  0  0  0  0
   92.9832    4.4808   10.7334 C   0  0  0  0  0  0  0  0  0  0  0  0
   93.0914    3.0480   10.2041 C   0  0  0  0  0  0  0  0  0  0  0  0
   91.8742    2.6824    9.3787 C   0  0  0  0  0  0  0  0  0  0  0  0
   91.4973    1.2084    9.2998 C   0  0  0  0  0  0  0  0  0  0  0  0
   92.3250    0.1326    9.9865 C   0  0  0  0  0  0  0  0  0  0  0  0
   90.3258    0.7902    8.4225 C   0  0  0  0  0  0  0  0  0  0  0  0
   89.1992    1.7981    8.7087 C   0  0  0  0  0  0  0  0  0  0  0  0
   87.9834    1.0563    9.2732 C   0  0  0  0  0  0  0  0  0  0  0  0
   86.7052    1.0778    8.4337 C   0  0  0  0  0  0  0  0  0  0  0  0
   86.6634    1.7874    7.0776 C   0  0  0  0  0  0  0  0  0  0  0  0
   85.4584    0.3609    8.9485 C   0  0  0  0  0  0  0  0  0  0  0  0
  3  2  1  0  0  0
  5  2  1  0  0  0
  5  6  1  0  0  0
  2  4  2  0  0  0
  6  9  1  0  0  0
  4  1  1  0  0  0
  1 17  1  0  0  0
 17 18  1  0  0  0
  9  7  2  0  0  0
  8  7  1  0  0  0
 18 19  2  0  0  0
 20 19  1  0  0  0
  7 10  1  0  0  0
 19 21  1  0  0  0
 21 22  1  0  0  0
 10 11  1  0  0  0
 11 16  1  0  0  0
 22 23  1  0  0  0
 23 24  2  0  0  0
 16 15  1  0  0  0
 16 13  1  0  0  0
 24 25  1  0  0  0
 24 26  1  0  0  0
 15 13  1  0  0  0
 14 13  1  0  0  0
 13 12  1  0  0  0
 26 27  1  0  0  0
 27 28  1  0  0  0
 28 29  2  0  0  0
 29 30  1  0  0  0
 29 31  1  0  0  0
M  END
> <minimizedAffinity>
-10.11809

$$$$
