3P17_99P_H_1001


 29 31  0  0  0  0  0  0  0  0999 V2000
   17.5427  -13.1261   22.4255 C   0  0  0  0  0  0  0  0  0  0  0  0
   16.5259  -12.5070   22.7786 O   0  0  0  0  0  0  0  0  0  0  0  0
   18.4406  -12.6586   21.4949 N   0  0  0  0  0  0  0  0  0  0  0  0
   18.2154  -11.3385   20.8798 C   0  0  0  0  0  0  0  0  0  0  0  0
   19.2903  -11.2433   19.7750 C   0  0  0  0  0  0  0  0  0  0  0  0
   20.3895  -12.1033   20.3457 C   0  0  0  0  0  0  0  0  0  0  0  0
   19.6758  -13.3012   20.9873 C   0  0  0  0  0  0  0  0  0  0  0  0
   16.6126  -15.3123   22.9891 N   0  0  0  0  0  0  0  0  0  0  0  0
   17.8621  -14.4838   23.0729 C   0  0  0  0  0  0  0  0  0  0  0  0
   16.3348  -15.4106   22.0126 H   0  0  0  0  0  0  0  0  0  0  0  0
   15.8653  -14.8543   23.5107 H   0  0  0  0  0  0  0  0  0  0  0  0
   18.2908  -14.3289   24.5431 C   0  0  0  0  0  0  0  0  0  0  0  0
   19.6993  -13.7566   24.6319 C   0  0  0  0  0  0  0  0  0  0  0  0
   20.7996  -14.3931   24.0457 C   0  0  0  0  0  0  0  0  0  0  0  0
   19.9011  -12.5509   25.3237 C   0  0  0  0  0  0  0  0  0  0  0  0
   22.0619  -13.8316   24.1546 C   0  0  0  0  0  0  0  0  0  0  0  0
   21.1604  -11.9895   25.4335 C   0  0  0  0  0  0  0  0  0  0  0  0
   22.2480  -12.6316   24.8451 C   0  0  0  0  0  0  0  0  0  0  0  0
   16.7987  -11.3788   20.2402 C   0  0  0  0  0  0  0  0  0  0  0  0
   16.5600  -12.1260   19.2612 O   0  0  0  0  0  0  0  0  0  0  0  0
   15.8895  -10.4600   20.6753 N   0  0  0  0  0  0  0  0  0  0  0  0
   16.1329   -9.8640   21.4201 H   0  0  0  0  0  0  0  0  0  0  0  0
   14.5715  -10.3330   20.0731 C   0  0  0  0  0  0  0  0  0  0  0  0
   13.5151  -10.4410   21.1223 C   0  0  0  0  0  0  0  0  0  0  0  0
   12.8599  -11.6305   21.3768 C   0  0  0  0  0  0  0  0  0  0  0  0
   11.8931  -11.7794   22.3197 N   0  0  0  0  0  0  0  0  0  0  0  0
   11.5601  -10.6908   23.0493 C   0  0  0  0  0  0  0  0  0  0  0  0
   12.1643   -9.4679   22.8595 C   0  0  0  0  0  0  0  0  0  0  0  0
   13.1456   -9.3527   21.8875 C   0  0  0  0  0  0  0  0  0  0  0  0
 20 19  2  0  0  0
  5  6  1  0  0  0
  5  4  1  0  0  0
 23 21  1  0  0  0
 23 24  1  0  0  0
  6  7  1  0  0  0
 19 21  1  0  0  0
 19  4  1  0  0  0
  7  3  1  0  0  0
  4  3  1  0  0  0
 24 29  2  0  0  0
 24 25  1  0  0  0
 29 28  1  0  0  0
  3  1  1  0  0  0
 25 26  2  0  0  0
 28 27  2  0  0  0
  1  2  2  0  0  0
  1  9  1  0  0  0
 26 27  1  0  0  0
  8  9  1  0  0  0
  9 12  1  0  0  0
 14 16  2  0  0  0
 14 13  1  0  0  0
 16 18  1  0  0  0
 12 13  1  0  0  0
 13 15  2  0  0  0
 18 17  2  0  0  0
 15 17  1  0  0  0
  8 10  1  0  0  0
  8 11  1  0  0  0
 21 22  1  0  0  0
M  END
> <minimizedAffinity>
-9.29152

$$$$
3P17_99P_H_1001


 29 31  0  0  0  0  0  0  0  0999 V2000
   17.4709  -13.0246   22.4014 C   0  0  0  0  0  0  0  0  0  0  0  0
   16.4571  -12.3932   22.7410 O   0  0  0  0  0  0  0  0  0  0  0  0
   18.3919  -12.5637   21.4903 N   0  0  0  0  0  0  0  0  0  0  0  0
   18.1971  -11.2361   20.8812 C   0  0  0  0  0  0  0  0  0  0  0  0
   19.2927  -11.1488   19.7963 C   0  0  0  0  0  0  0  0  0  0  0  0
   20.3688  -12.0290   20.3799 C   0  0  0  0  0  0  0  0  0  0  0  0
   19.6264  -13.2208   20.9998 C   0  0  0  0  0  0  0  0  0  0  0  0
   16.5631  -15.2599   22.7778 N   0  0  0  0  0  0  0  0  0  0  0  0
   17.7588  -14.3916   23.0442 C   0  0  0  0  0  0  0  0  0  0  0  0
   16.4146  -15.3346   21.7714 H   0  0  0  0  0  0  0  0  0  0  0  0
   15.7387  -14.8463   23.2133 H   0  0  0  0  0  0  0  0  0  0  0  0
   17.9924  -14.2717   24.5608 C   0  0  0  0  0  0  0  0  0  0  0  0
   18.9633  -15.3433   25.0386 C   0  0  0  0  0  0  0  0  0  0  0  0
   20.3504  -15.1977   24.9187 C   0  0  0  0  0  0  0  0  0  0  0  0
   18.4510  -16.5153   25.6190 C   0  0  0  0  0  0  0  0  0  0  0  0
   21.1925  -16.2020   25.3690 C   0  0  0  0  0  0  0  0  0  0  0  0
   19.2902  -17.5187   26.0686 C   0  0  0  0  0  0  0  0  0  0  0  0
   20.6691  -17.3622   25.9448 C   0  0  0  0  0  0  0  0  0  0  0  0
   16.7915  -11.2508   20.2164 C   0  0  0  0  0  0  0  0  0  0  0  0
   16.5852  -11.9138   19.1716 O   0  0  0  0  0  0  0  0  0  0  0  0
   15.8546  -10.3941   20.7148 N   0  0  0  0  0  0  0  0  0  0  0  0
   16.0728   -9.8610   21.5132 H   0  0  0  0  0  0  0  0  0  0  0  0
   14.5433  -10.2434   20.1037 C   0  0  0  0  0  0  0  0  0  0  0  0
   13.4769  -10.3539   21.1425 C   0  0  0  0  0  0  0  0  0  0  0  0
   12.8017  -11.5377   21.3704 C   0  0  0  0  0  0  0  0  0  0  0  0
   11.8253  -11.6886   22.3029 N   0  0  0  0  0  0  0  0  0  0  0  0
   11.5029  -10.6082   23.0493 C   0  0  0  0  0  0  0  0  0  0  0  0
   12.1270   -9.3915   22.8862 C   0  0  0  0  0  0  0  0  0  0  0  0
   13.1177   -9.2740   21.9242 C   0  0  0  0  0  0  0  0  0  0  0  0
 20 19  2  0  0  0
  5  6  1  0  0  0
  5  4  1  0  0  0
 23 21  1  0  0  0
 23 24  1  0  0  0
  6  7  1  0  0  0
 19 21  1  0  0  0
 19  4  1  0  0  0
  7  3  1  0  0  0
  4  3  1  0  0  0
 24 29  2  0  0  0
 24 25  1  0  0  0
 29 28  1  0  0  0
  3  1  1  0  0  0
 25 26  2  0  0  0
 28 27  2  0  0  0
  1  2  2  0  0  0
  1  9  1  0  0  0
 26 27  1  0  0  0
  8  9  1  0  0  0
  9 12  1  0  0  0
 14 16  2  0  0  0
 14 13  1  0  0  0
 16 18  1  0  0  0
 12 13  1  0  0  0
 13 15  2  0  0  0
 18 17  2  0  0  0
 15 17  1  0  0  0
  8 10  1  0  0  0
  8 11  1  0  0  0
 21 22  1  0  0  0
M  END
> <minimizedAffinity>
-7.92497

$$$$
3P17_99P_H_1001


 29 31  0  0  0  0  0  0  0  0999 V2000
   14.8186  -13.3897   21.5467 C   0  0  0  0  0  0  0  0  0  0  0  0
   15.0050  -14.6150   21.4713 O   0  0  0  0  0  0  0  0  0  0  0  0
   15.6691  -12.4503   21.0127 N   0  0  0  0  0  0  0  0  0  0  0  0
   16.8699  -12.8994   20.2862 C   0  0  0  0  0  0  0  0  0  0  0  0
   17.6583  -11.6004   20.0110 C   0  0  0  0  0  0  0  0  0  0  0  0
   16.5488  -10.5822   19.9342 C   0  0  0  0  0  0  0  0  0  0  0  0
   15.5623  -10.9725   21.0435 C   0  0  0  0  0  0  0  0  0  0  0  0
   12.6278  -14.0299   22.4145 N   0  0  0  0  0  0  0  0  0  0  0  0
   13.5541  -12.8605   22.2436 C   0  0  0  0  0  0  0  0  0  0  0  0
   13.0919  -14.7538   22.9631 H   0  0  0  0  0  0  0  0  0  0  0  0
   12.3799  -14.4040   21.4985 H   0  0  0  0  0  0  0  0  0  0  0  0
   12.8636  -11.7612   21.4165 C   0  0  0  0  0  0  0  0  0  0  0  0
   12.3714  -10.6403   22.3222 C   0  0  0  0  0  0  0  0  0  0  0  0
   11.4099  -10.8549   23.3168 C   0  0  0  0  0  0  0  0  0  0  0  0
   12.8992   -9.3494   22.1550 C   0  0  0  0  0  0  0  0  0  0  0  0
   10.9946   -9.8015   24.1158 C   0  0  0  0  0  0  0  0  0  0  0  0
   12.4854   -8.2969   22.9514 C   0  0  0  0  0  0  0  0  0  0  0  0
   11.5286   -8.5228   23.9388 C   0  0  0  0  0  0  0  0  0  0  0  0
   17.6690  -13.8090   21.2619 C   0  0  0  0  0  0  0  0  0  0  0  0
   18.0325  -14.9576   20.9125 O   0  0  0  0  0  0  0  0  0  0  0  0
   17.8091  -13.3763   22.5477 N   0  0  0  0  0  0  0  0  0  0  0  0
   17.4720  -12.4835   22.7897 H   0  0  0  0  0  0  0  0  0  0  0  0
   18.4409  -14.1925   23.5725 C   0  0  0  0  0  0  0  0  0  0  0  0
   19.7679  -13.6171   23.9416 C   0  0  0  0  0  0  0  0  0  0  0  0
   20.9306  -13.9956   23.2980 C   0  0  0  0  0  0  0  0  0  0  0  0
   22.1603  -13.5013   23.5968 N   0  0  0  0  0  0  0  0  0  0  0  0
   22.2402  -12.5823   24.5853 C   0  0  0  0  0  0  0  0  0  0  0  0
   21.1302  -12.1504   25.2766 C   0  0  0  0  0  0  0  0  0  0  0  0
   19.8919  -12.6776   24.9457 C   0  0  0  0  0  0  0  0  0  0  0  0
 20 19  2  0  0  0
  5  6  1  0  0  0
  5  4  1  0  0  0
 23 21  1  0  0  0
 23 24  1  0  0  0
  6  7  1  0  0  0
 19 21  1  0  0  0
 19  4  1  0  0  0
  7  3  1  0  0  0
  4  3  1  0  0  0
 24 29  2  0  0  0
 24 25  1  0  0  0
 29 28  1  0  0  0
  3  1  1  0  0  0
 25 26  2  0  0  0
 28 27  2  0  0  0
  1  2  2  0  0  0
  1  9  1  0  0  0
 26 27  1  0  0  0
  8  9  1  0  0  0
  9 12  1  0  0  0
 14 16  2  0  0  0
 14 13  1  0  0  0
 16 18  1  0  0  0
 12 13  1  0  0  0
 13 15  2  0  0  0
 18 17  2  0  0  0
 15 17  1  0  0  0
  8 10  1  0  0  0
  8 11  1  0  0  0
 21 22  1  0  0  0
M  END
> <minimizedAffinity>
-7.27975

$$$$
3P17_99P_H_1001


 29 31  0  0  0  0  0  0  0  0999 V2000
   18.2188  -16.0217   22.3532 C   0  0  0  0  0  0  0  0  0  0  0  0
   18.5543  -15.5950   21.2365 O   0  0  0  0  0  0  0  0  0  0  0  0
   16.9258  -16.3411   22.6954 N   0  0  0  0  0  0  0  0  0  0  0  0
   15.8598  -16.1954   21.6885 C   0  0  0  0  0  0  0  0  0  0  0  0
   14.5549  -16.4521   22.4735 C   0  0  0  0  0  0  0  0  0  0  0  0
   15.0308  -17.3874   23.5562 C   0  0  0  0  0  0  0  0  0  0  0  0
   16.4014  -16.8466   23.9860 C   0  0  0  0  0  0  0  0  0  0  0  0
   19.2603  -17.7080   23.7794 N   0  0  0  0  0  0  0  0  0  0  0  0
   19.2945  -16.2484   23.4285 C   0  0  0  0  0  0  0  0  0  0  0  0
   19.4345  -18.2632   22.9417 H   0  0  0  0  0  0  0  0  0  0  0  0
   18.3440  -17.9448   24.1599 H   0  0  0  0  0  0  0  0  0  0  0  0
   19.0326  -15.4004   24.6861 C   0  0  0  0  0  0  0  0  0  0  0  0
   20.0368  -14.2594   24.7803 C   0  0  0  0  0  0  0  0  0  0  0  0
   19.7444  -13.0637   25.4469 C   0  0  0  0  0  0  0  0  0  0  0  0
   21.2973  -14.4115   24.1795 C   0  0  0  0  0  0  0  0  0  0  0  0
   20.6927  -12.0547   25.5048 C   0  0  0  0  0  0  0  0  0  0  0  0
   22.2446  -13.4052   24.2361 C   0  0  0  0  0  0  0  0  0  0  0  0
   21.9426  -12.2198   24.9033 C   0  0  0  0  0  0  0  0  0  0  0  0
   15.9042  -14.7197   21.2002 C   0  0  0  0  0  0  0  0  0  0  0  0
   15.7448  -14.4425   19.9872 O   0  0  0  0  0  0  0  0  0  0  0  0
   16.2838  -13.7725   22.1050 N   0  0  0  0  0  0  0  0  0  0  0  0
   16.4392  -14.0408   23.0394 H   0  0  0  0  0  0  0  0  0  0  0  0
   16.4663  -12.3783   21.7327 C   0  0  0  0  0  0  0  0  0  0  0  0
   17.8213  -12.1785   21.1390 C   0  0  0  0  0  0  0  0  0  0  0  0
   17.9904  -11.6923   19.8567 C   0  0  0  0  0  0  0  0  0  0  0  0
   19.2008  -11.4929   19.2727 N   0  0  0  0  0  0  0  0  0  0  0  0
   20.3012  -11.7906   19.9999 C   0  0  0  0  0  0  0  0  0  0  0  0
   20.2208  -12.2793   21.2850 C   0  0  0  0  0  0  0  0  0  0  0  0
   18.9691  -12.4714   21.8482 C   0  0  0  0  0  0  0  0  0  0  0  0
 20 19  2  0  0  0
  5  6  1  0  0  0
  5  4  1  0  0  0
 23 21  1  0  0  0
 23 24  1  0  0  0
  6  7  1  0  0  0
 19 21  1  0  0  0
 19  4  1  0  0  0
  7  3  1  0  0  0
  4  3  1  0  0  0
 24 29  2  0  0  0
 24 25  1  0  0  0
 29 28  1  0  0  0
  3  1  1  0  0  0
 25 26  2  0  0  0
 28 27  2  0  0  0
  1  2  2  0  0  0
  1  9  1  0  0  0
 26 27  1  0  0  0
  8  9  1  0  0  0
  9 12  1  0  0  0
 14 16  2  0  0  0
 14 13  1  0  0  0
 16 18  1  0  0  0
 12 13  1  0  0  0
 13 15  2  0  0  0
 18 17  2  0  0  0
 15 17  1  0  0  0
  8 10  1  0  0  0
  8 11  1  0  0  0
 21 22  1  0  0  0
M  END
> <minimizedAffinity>
-6.94207

$$$$
3P17_99P_H_1001


 29 31  0  0  0  0  0  0  0  0999 V2000
   15.7497  -12.0938   20.9149 C   0  0  0  0  0  0  0  0  0  0  0  0
   15.7783  -11.7504   22.1078 O   0  0  0  0  0  0  0  0  0  0  0  0
   15.9429  -13.3852   20.4838 N   0  0  0  0  0  0  0  0  0  0  0  0
   16.1806  -14.4462   21.4784 C   0  0  0  0  0  0  0  0  0  0  0  0
   16.5377  -15.6888   20.6339 C   0  0  0  0  0  0  0  0  0  0  0  0
   15.7771  -15.4191   19.3601 C   0  0  0  0  0  0  0  0  0  0  0  0
   15.9416  -13.9154   19.0999 C   0  0  0  0  0  0  0  0  0  0  0  0
   15.9554   -9.7265   20.3530 N   0  0  0  0  0  0  0  0  0  0  0  0
   15.4502  -11.0418   19.8341 C   0  0  0  0  0  0  0  0  0  0  0  0
   16.9537   -9.7992   20.5491 H   0  0  0  0  0  0  0  0  0  0  0  0
   15.4573   -9.4850   21.2098 H   0  0  0  0  0  0  0  0  0  0  0  0
   13.9436  -10.9435   19.5345 C   0  0  0  0  0  0  0  0  0  0  0  0
   13.1655  -10.6256   20.8045 C   0  0  0  0  0  0  0  0  0  0  0  0
   13.2030   -9.3609   21.4034 C   0  0  0  0  0  0  0  0  0  0  0  0
   12.3846  -11.6335   21.3939 C   0  0  0  0  0  0  0  0  0  0  0  0
   12.4767   -9.1215   22.5592 C   0  0  0  0  0  0  0  0  0  0  0  0
   11.6595  -11.3961   22.5476 C   0  0  0  0  0  0  0  0  0  0  0  0
   11.7037  -10.1330   23.1342 C   0  0  0  0  0  0  0  0  0  0  0  0
   17.4117  -14.0038   22.3190 C   0  0  0  0  0  0  0  0  0  0  0  0
   18.5395  -13.8788   21.7843 O   0  0  0  0  0  0  0  0  0  0  0  0
   17.2495  -13.9219   23.6707 N   0  0  0  0  0  0  0  0  0  0  0  0
   16.3543  -14.0682   24.0533 H   0  0  0  0  0  0  0  0  0  0  0  0
   18.3579  -13.6252   24.5647 C   0  0  0  0  0  0  0  0  0  0  0  0
   19.0113  -14.8912   25.0103 C   0  0  0  0  0  0  0  0  0  0  0  0
   20.3855  -15.0143   25.0863 C   0  0  0  0  0  0  0  0  0  0  0  0
   21.0267  -16.1436   25.4856 N   0  0  0  0  0  0  0  0  0  0  0  0
   20.2641  -17.2061   25.8286 C   0  0  0  0  0  0  0  0  0  0  0  0
   18.8883  -17.1671   25.7813 C   0  0  0  0  0  0  0  0  0  0  0  0
   18.2683  -15.9986   25.3678 C   0  0  0  0  0  0  0  0  0  0  0  0
 20 19  2  0  0  0
  5  6  1  0  0  0
  5  4  1  0  0  0
 23 21  1  0  0  0
 23 24  1  0  0  0
  6  7  1  0  0  0
 19 21  1  0  0  0
 19  4  1  0  0  0
  7  3  1  0  0  0
  4  3  1  0  0  0
 24 29  2  0  0  0
 24 25  1  0  0  0
 29 28  1  0  0  0
  3  1  1  0  0  0
 25 26  2  0  0  0
 28 27  2  0  0  0
  1  2  2  0  0  0
  1  9  1  0  0  0
 26 27  1  0  0  0
  8  9  1  0  0  0
  9 12  1  0  0  0
 14 16  2  0  0  0
 14 13  1  0  0  0
 16 18  1  0  0  0
 12 13  1  0  0  0
 13 15  2  0  0  0
 18 17  2  0  0  0
 15 17  1  0  0  0
  8 10  1  0  0  0
  8 11  1  0  0  0
 21 22  1  0  0  0
M  END
> <minimizedAffinity>
-6.90990

$$$$
3P17_99P_H_1001


 29 31  0  0  0  0  0  0  0  0999 V2000
   16.0503  -12.6971   20.0570 C   0  0  0  0  0  0  0  0  0  0  0  0
   15.5449  -13.8251   20.1746 O   0  0  0  0  0  0  0  0  0  0  0  0
   17.3707  -12.4172   20.3194 N   0  0  0  0  0  0  0  0  0  0  0  0
   18.2643  -13.5075   20.7487 C   0  0  0  0  0  0  0  0  0  0  0  0
   19.5812  -12.7956   21.1278 C   0  0  0  0  0  0  0  0  0  0  0  0
   19.5465  -11.5904   20.2223 C   0  0  0  0  0  0  0  0  0  0  0  0
   18.0849  -11.1219   20.2261 C   0  0  0  0  0  0  0  0  0  0  0  0
   15.7698  -11.0744   18.2541 N   0  0  0  0  0  0  0  0  0  0  0  0
   15.1821  -11.5298   19.5586 C   0  0  0  0  0  0  0  0  0  0  0  0
   15.7784  -11.8527   17.5949 H   0  0  0  0  0  0  0  0  0  0  0  0
   16.7239  -10.7475   18.4067 H   0  0  0  0  0  0  0  0  0  0  0  0
   15.1642  -10.3624   20.5616 C   0  0  0  0  0  0  0  0  0  0  0  0
   13.8811  -10.3817   21.3817 C   0  0  0  0  0  0  0  0  0  0  0  0
   13.3599   -9.2261   21.9756 C   0  0  0  0  0  0  0  0  0  0  0  0
   13.1980  -11.5978   21.5472 C   0  0  0  0  0  0  0  0  0  0  0  0
   12.1883   -9.2958   22.7126 C   0  0  0  0  0  0  0  0  0  0  0  0
   12.0288  -11.6690   22.2828 C   0  0  0  0  0  0  0  0  0  0  0  0
   11.5190  -10.5121   22.8686 C   0  0  0  0  0  0  0  0  0  0  0  0
   17.6203  -14.1418   22.0140 C   0  0  0  0  0  0  0  0  0  0  0  0
   17.5727  -13.5060   23.0943 O   0  0  0  0  0  0  0  0  0  0  0  0
   17.2673  -15.4572   21.9438 N   0  0  0  0  0  0  0  0  0  0  0  0
   17.3596  -15.9306   21.0855 H   0  0  0  0  0  0  0  0  0  0  0  0
   16.7586  -16.1828   23.0973 C   0  0  0  0  0  0  0  0  0  0  0  0
   15.5220  -16.9329   22.7277 C   0  0  0  0  0  0  0  0  0  0  0  0
   14.4091  -16.2951   22.2141 C   0  0  0  0  0  0  0  0  0  0  0  0
   13.2619  -16.9327   21.8628 N   0  0  0  0  0  0  0  0  0  0  0  0
   13.2174  -18.2738   22.0287 C   0  0  0  0  0  0  0  0  0  0  0  0
   14.2824  -18.9860   22.5340 C   0  0  0  0  0  0  0  0  0  0  0  0
   15.4362  -18.3021   22.8831 C   0  0  0  0  0  0  0  0  0  0  0  0
 20 19  2  0  0  0
  5  6  1  0  0  0
  5  4  1  0  0  0
 23 21  1  0  0  0
 23 24  1  0  0  0
  6  7  1  0  0  0
 19 21  1  0  0  0
 19  4  1  0  0  0
  7  3  1  0  0  0
  4  3  1  0  0  0
 24 29  2  0  0  0
 24 25  1  0  0  0
 29 28  1  0  0  0
  3  1  1  0  0  0
 25 26  2  0  0  0
 28 27  2  0  0  0
  1  2  2  0  0  0
  1  9  1  0  0  0
 26 27  1  0  0  0
  8  9  1  0  0  0
  9 12  1  0  0  0
 14 16  2  0  0  0
 14 13  1  0  0  0
 16 18  1  0  0  0
 12 13  1  0  0  0
 13 15  2  0  0  0
 18 17  2  0  0  0
 15 17  1  0  0  0
  8 10  1  0  0  0
  8 11  1  0  0  0
 21 22  1  0  0  0
M  END
> <minimizedAffinity>
-6.89857

$$$$
3P17_99P_H_1001


 29 31  0  0  0  0  0  0  0  0999 V2000
   18.5955  -13.1855   21.0122 C   0  0  0  0  0  0  0  0  0  0  0  0
   18.5452  -12.7525   19.8496 O   0  0  0  0  0  0  0  0  0  0  0  0
   17.6793  -14.0620   21.5444 N   0  0  0  0  0  0  0  0  0  0  0  0
   16.5737  -14.5461   20.6990 C   0  0  0  0  0  0  0  0  0  0  0  0
   15.6669  -15.3338   21.6696 C   0  0  0  0  0  0  0  0  0  0  0  0
   16.6639  -15.8162   22.6927 C   0  0  0  0  0  0  0  0  0  0  0  0
   17.6259  -14.6398   22.9081 C   0  0  0  0  0  0  0  0  0  0  0  0
   20.7632  -12.0624   21.0569 N   0  0  0  0  0  0  0  0  0  0  0  0
   19.7574  -12.7610   21.9257 C   0  0  0  0  0  0  0  0  0  0  0  0
   20.3227  -11.2626   20.6024 H   0  0  0  0  0  0  0  0  0  0  0  0
   21.1074  -12.7095   20.3475 H   0  0  0  0  0  0  0  0  0  0  0  0
   20.4118  -13.9705   22.6170 C   0  0  0  0  0  0  0  0  0  0  0  0
   20.8122  -13.6190   24.0437 C   0  0  0  0  0  0  0  0  0  0  0  0
   21.5509  -14.4958   24.8469 C   0  0  0  0  0  0  0  0  0  0  0  0
   20.4285  -12.3748   24.5707 C   0  0  0  0  0  0  0  0  0  0  0  0
   21.8907  -14.1291   26.1395 C   0  0  0  0  0  0  0  0  0  0  0  0
   20.7667  -12.0076   25.8607 C   0  0  0  0  0  0  0  0  0  0  0  0
   21.5030  -12.8882   26.6506 C   0  0  0  0  0  0  0  0  0  0  0  0
   15.8253  -13.2870   20.1769 C   0  0  0  0  0  0  0  0  0  0  0  0
   15.5508  -13.1655   18.9589 O   0  0  0  0  0  0  0  0  0  0  0  0
   15.6331  -12.2635   21.0575 N   0  0  0  0  0  0  0  0  0  0  0  0
   15.9013  -12.3858   21.9968 H   0  0  0  0  0  0  0  0  0  0  0  0
   15.0442  -10.9967   20.6523 C   0  0  0  0  0  0  0  0  0  0  0  0
   13.8580  -10.6861   21.5038 C   0  0  0  0  0  0  0  0  0  0  0  0
   13.0507  -11.6818   22.0195 C   0  0  0  0  0  0  0  0  0  0  0  0
   11.9620  -11.4505   22.7987 N   0  0  0  0  0  0  0  0  0  0  0  0
   11.6594  -10.1635   23.0818 C   0  0  0  0  0  0  0  0  0  0  0  0
   12.4118   -9.1118   22.6080 C   0  0  0  0  0  0  0  0  0  0  0  0
   13.5148   -9.3854   21.8147 C   0  0  0  0  0  0  0  0  0  0  0  0
 20 19  2  0  0  0
  5  6  1  0  0  0
  5  4  1  0  0  0
 23 21  1  0  0  0
 23 24  1  0  0  0
  6  7  1  0  0  0
 19 21  1  0  0  0
 19  4  1  0  0  0
  7  3  1  0  0  0
  4  3  1  0  0  0
 24 29  2  0  0  0
 24 25  1  0  0  0
 29 28  1  0  0  0
  3  1  1  0  0  0
 25 26  2  0  0  0
 28 27  2  0  0  0
  1  2  2  0  0  0
  1  9  1  0  0  0
 26 27  1  0  0  0
  8  9  1  0  0  0
  9 12  1  0  0  0
 14 16  2  0  0  0
 14 13  1  0  0  0
 16 18  1  0  0  0
 12 13  1  0  0  0
 13 15  2  0  0  0
 18 17  2  0  0  0
 15 17  1  0  0  0
  8 10  1  0  0  0
  8 11  1  0  0  0
 21 22  1  0  0  0
M  END
> <minimizedAffinity>
-6.73546

$$$$
3P17_99P_H_1001


 29 31  0  0  0  0  0  0  0  0999 V2000
   16.7860  -13.1521   20.7085 C   0  0  0  0  0  0  0  0  0  0  0  0
   16.5348  -14.1885   21.3445 O   0  0  0  0  0  0  0  0  0  0  0  0
   18.0551  -12.6584   20.5171 N   0  0  0  0  0  0  0  0  0  0  0  0
   19.2036  -13.3953   21.0734 C   0  0  0  0  0  0  0  0  0  0  0  0
   20.4097  -12.4614   20.8328 C   0  0  0  0  0  0  0  0  0  0  0  0
   19.9765  -11.7189   19.5940 C   0  0  0  0  0  0  0  0  0  0  0  0
   18.4805  -11.4383   19.7914 C   0  0  0  0  0  0  0  0  0  0  0  0
   15.9435  -12.2788   18.5896 N   0  0  0  0  0  0  0  0  0  0  0  0
   15.6342  -12.3695   20.0561 C   0  0  0  0  0  0  0  0  0  0  0  0
   16.0345  -13.2181   18.2026 H   0  0  0  0  0  0  0  0  0  0  0  0
   16.8178  -11.7704   18.4573 H   0  0  0  0  0  0  0  0  0  0  0  0
   15.4947  -10.9567   20.6509 C   0  0  0  0  0  0  0  0  0  0  0  0
   14.1489  -10.7999   21.3464 C   0  0  0  0  0  0  0  0  0  0  0  0
   13.3655  -11.9020   21.7086 C   0  0  0  0  0  0  0  0  0  0  0  0
   13.6787   -9.5080   21.6344 C   0  0  0  0  0  0  0  0  0  0  0  0
   12.1474  -11.7066   22.3402 C   0  0  0  0  0  0  0  0  0  0  0  0
   12.4630   -9.3115   22.2643 C   0  0  0  0  0  0  0  0  0  0  0  0
   11.6923  -10.4161   22.6210 C   0  0  0  0  0  0  0  0  0  0  0  0
   18.9432  -13.5439   22.5992 C   0  0  0  0  0  0  0  0  0  0  0  0
   19.0035  -12.5470   23.3583 O   0  0  0  0  0  0  0  0  0  0  0  0
   18.8143  -14.8092   23.0916 N   0  0  0  0  0  0  0  0  0  0  0  0
   18.8136  -15.5675   22.4636 H   0  0  0  0  0  0  0  0  0  0  0  0
   18.6779  -15.0735   24.5154 C   0  0  0  0  0  0  0  0  0  0  0  0
   19.9323  -15.6836   25.0470 C   0  0  0  0  0  0  0  0  0  0  0  0
   20.0189  -17.0305   25.3430 C   0  0  0  0  0  0  0  0  0  0  0  0
   21.1364  -17.6321   25.8277 N   0  0  0  0  0  0  0  0  0  0  0  0
   22.2257  -16.8565   26.0280 C   0  0  0  0  0  0  0  0  0  0  0  0
   22.2239  -15.5059   25.7587 C   0  0  0  0  0  0  0  0  0  0  0  0
   21.0654  -14.9258   25.2664 C   0  0  0  0  0  0  0  0  0  0  0  0
 20 19  2  0  0  0
  5  6  1  0  0  0
  5  4  1  0  0  0
 23 21  1  0  0  0
 23 24  1  0  0  0
  6  7  1  0  0  0
 19 21  1  0  0  0
 19  4  1  0  0  0
  7  3  1  0  0  0
  4  3  1  0  0  0
 24 29  2  0  0  0
 24 25  1  0  0  0
 29 28  1  0  0  0
  3  1  1  0  0  0
 25 26  2  0  0  0
 28 27  2  0  0  0
  1  2  2  0  0  0
  1  9  1  0  0  0
 26 27  1  0  0  0
  8  9  1  0  0  0
  9 12  1  0  0  0
 14 16  2  0  0  0
 14 13  1  0  0  0
 16 18  1  0  0  0
 12 13  1  0  0  0
 13 15  2  0  0  0
 18 17  2  0  0  0
 15 17  1  0  0  0
  8 10  1  0  0  0
  8 11  1  0  0  0
 21 22  1  0  0  0
M  END
> <minimizedAffinity>
-6.66265

$$$$
3P17_99P_H_1001


 29 31  0  0  0  0  0  0  0  0999 V2000
   18.3684  -13.2690   22.5706 C   0  0  0  0  0  0  0  0  0  0  0  0
   18.9406  -12.2942   22.0566 O   0  0  0  0  0  0  0  0  0  0  0  0
   17.5725  -14.1467   21.8727 N   0  0  0  0  0  0  0  0  0  0  0  0
   17.3875  -13.9516   20.4238 C   0  0  0  0  0  0  0  0  0  0  0  0
   16.3063  -14.9833   20.0343 C   0  0  0  0  0  0  0  0  0  0  0  0
   16.5399  -16.0682   21.0550 C   0  0  0  0  0  0  0  0  0  0  0  0
   16.8347  -15.3322   22.3693 C   0  0  0  0  0  0  0  0  0  0  0  0
   17.2853  -13.1941   24.7577 N   0  0  0  0  0  0  0  0  0  0  0  0
   18.5683  -13.5578   24.0677 C   0  0  0  0  0  0  0  0  0  0  0  0
   16.5199  -13.7400   24.3622 H   0  0  0  0  0  0  0  0  0  0  0  0
   17.0979  -12.2002   24.6253 H   0  0  0  0  0  0  0  0  0  0  0  0
   19.7310  -12.7392   24.6571 C   0  0  0  0  0  0  0  0  0  0  0  0
   21.0460  -13.4924   24.5054 C   0  0  0  0  0  0  0  0  0  0  0  0
   22.2199  -12.8615   24.0770 C   0  0  0  0  0  0  0  0  0  0  0  0
   21.0826  -14.8641   24.8055 C   0  0  0  0  0  0  0  0  0  0  0  0
   23.3919  -13.5911   23.9551 C   0  0  0  0  0  0  0  0  0  0  0  0
   22.2514  -15.5936   24.6839 C   0  0  0  0  0  0  0  0  0  0  0  0
   23.4139  -14.9547   24.2575 C   0  0  0  0  0  0  0  0  0  0  0  0
   16.8385  -12.5094   20.2331 C   0  0  0  0  0  0  0  0  0  0  0  0
   17.4285  -11.6945   19.4838 O   0  0  0  0  0  0  0  0  0  0  0  0
   15.8020  -12.1238   21.0312 N   0  0  0  0  0  0  0  0  0  0  0  0
   15.3941  -12.7852   21.6357 H   0  0  0  0  0  0  0  0  0  0  0  0
   15.2803  -10.7661   21.0172 C   0  0  0  0  0  0  0  0  0  0  0  0
   13.9200  -10.7323   21.6311 C   0  0  0  0  0  0  0  0  0  0  0  0
   13.1895  -11.8850   21.8475 C   0  0  0  0  0  0  0  0  0  0  0  0
   11.9496  -11.9064   22.4024 N   0  0  0  0  0  0  0  0  0  0  0  0
   11.4066  -10.7216   22.7626 C   0  0  0  0  0  0  0  0  0  0  0  0
   12.0673   -9.5269   22.5818 C   0  0  0  0  0  0  0  0  0  0  0  0
   13.3303   -9.5432   22.0113 C   0  0  0  0  0  0  0  0  0  0  0  0
 20 19  2  0  0  0
  5  6  1  0  0  0
  5  4  1  0  0  0
 23 21  1  0  0  0
 23 24  1  0  0  0
  6  7  1  0  0  0
 19 21  1  0  0  0
 19  4  1  0  0  0
  7  3  1  0  0  0
  4  3  1  0  0  0
 24 29  2  0  0  0
 24 25  1  0  0  0
 29 28  1  0  0  0
  3  1  1  0  0  0
 25 26  2  0  0  0
 28 27  2  0  0  0
  1  2  2  0  0  0
  1  9  1  0  0  0
 26 27  1  0  0  0
  8  9  1  0  0  0
  9 12  1  0  0  0
 14 16  2  0  0  0
 14 13  1  0  0  0
 16 18  1  0  0  0
 12 13  1  0  0  0
 13 15  2  0  0  0
 18 17  2  0  0  0
 15 17  1  0  0  0
  8 10  1  0  0  0
  8 11  1  0  0  0
 21 22  1  0  0  0
M  END
> <minimizedAffinity>
-6.63689

$$$$
3P17_99P_H_1001


 29 31  0  0  0  0  0  0  0  0999 V2000
   20.3260  -15.4968   24.3350 C   0  0  0  0  0  0  0  0  0  0  0  0
   19.4180  -15.5984   23.4941 O   0  0  0  0  0  0  0  0  0  0  0  0
   20.6827  -14.3143   24.9393 N   0  0  0  0  0  0  0  0  0  0  0  0
   19.9461  -13.0839   24.6003 C   0  0  0  0  0  0  0  0  0  0  0  0
   20.7346  -11.9594   25.3065 C   0  0  0  0  0  0  0  0  0  0  0  0
   21.3190  -12.6934   26.4869 C   0  0  0  0  0  0  0  0  0  0  0  0
   21.7446  -14.0639   25.9424 C   0  0  0  0  0  0  0  0  0  0  0  0
   21.6979  -17.3506   23.5327 N   0  0  0  0  0  0  0  0  0  0  0  0
   21.0938  -16.7555   24.7718 C   0  0  0  0  0  0  0  0  0  0  0  0
   22.3092  -16.6648   23.0894 H   0  0  0  0  0  0  0  0  0  0  0  0
   20.9552  -17.6132   22.8847 H   0  0  0  0  0  0  0  0  0  0  0  0
   20.1688  -17.7824   25.4494 C   0  0  0  0  0  0  0  0  0  0  0  0
   20.5989  -18.0201   26.8909 C   0  0  0  0  0  0  0  0  0  0  0  0
   19.7165  -18.5139   27.8590 C   0  0  0  0  0  0  0  0  0  0  0  0
   21.9236  -17.7354   27.2611 C   0  0  0  0  0  0  0  0  0  0  0  0
   20.1566  -18.7132   29.1580 C   0  0  0  0  0  0  0  0  0  0  0  0
   22.3641  -17.9335   28.5572 C   0  0  0  0  0  0  0  0  0  0  0  0
   21.4771  -18.4263   29.5121 C   0  0  0  0  0  0  0  0  0  0  0  0
   20.0451  -12.9138   23.0578 C   0  0  0  0  0  0  0  0  0  0  0  0
   21.1615  -12.7987   22.4975 O   0  0  0  0  0  0  0  0  0  0  0  0
   18.8803  -12.7304   22.3726 N   0  0  0  0  0  0  0  0  0  0  0  0
   18.0265  -12.7880   22.8594 H   0  0  0  0  0  0  0  0  0  0  0  0
   18.8599  -12.4523   20.9450 C   0  0  0  0  0  0  0  0  0  0  0  0
   17.5426  -11.8688   20.5542 C   0  0  0  0  0  0  0  0  0  0  0  0
   17.2928  -11.4300   19.2680 C   0  0  0  0  0  0  0  0  0  0  0  0
   16.1122  -10.8928   18.8638 N   0  0  0  0  0  0  0  0  0  0  0  0
   15.1273  -10.7867   19.7841 C   0  0  0  0  0  0  0  0  0  0  0  0
   15.2936  -11.2000   21.0872 C   0  0  0  0  0  0  0  0  0  0  0  0
   16.5122  -11.7421   21.4644 C   0  0  0  0  0  0  0  0  0  0  0  0
 20 19  2  0  0  0
  5  6  1  0  0  0
  5  4  1  0  0  0
 23 21  1  0  0  0
 23 24  1  0  0  0
  6  7  1  0  0  0
 19 21  1  0  0  0
 19  4  1  0  0  0
  7  3  1  0  0  0
  4  3  1  0  0  0
 24 29  2  0  0  0
 24 25  1  0  0  0
 29 28  1  0  0  0
  3  1  1  0  0  0
 25 26  2  0  0  0
 28 27  2  0  0  0
  1  2  2  0  0  0
  1  9  1  0  0  0
 26 27  1  0  0  0
  8  9  1  0  0  0
  9 12  1  0  0  0
 14 16  2  0  0  0
 14 13  1  0  0  0
 16 18  1  0  0  0
 12 13  1  0  0  0
 13 15  2  0  0  0
 18 17  2  0  0  0
 15 17  1  0  0  0
  8 10  1  0  0  0
  8 11  1  0  0  0
 21 22  1  0  0  0
M  END
> <minimizedAffinity>
-6.59365

$$$$
