2HXM_302_A_401


 28 29  0  0  0  0  0  0  0  0999 V2000
    7.6196   -0.2713    1.8030 C   0  0  0  0  0  0  0  0  0  0  0  0
    8.1831   -0.0267    3.0974 O   0  0  0  0  0  0  0  0  0  0  0  0
    8.7225    2.2365    3.1786 C   0  0  0  0  0  0  0  0  0  0  0  0
    8.9801    1.0546    3.2472 N   0  0  0  0  0  0  0  0  0  0  0  0
    9.2264    6.2685    2.8520 C   0  0  0  0  0  0  0  0  0  0  0  0
    9.5503    5.3874    1.8284 C   0  0  0  0  0  0  0  0  0  0  0  0
    9.3578    4.0270    2.0114 C   0  0  0  0  0  0  0  0  0  0  0  0
    8.7021    5.7811    4.0583 C   0  0  0  0  0  0  0  0  0  0  0  0
    8.5009    4.4021    4.2349 C   0  0  0  0  0  0  0  0  0  0  0  0
    8.8359    3.5239    3.1991 C   0  0  0  0  0  0  0  0  0  0  0  0
   10.0853    8.1068    1.6076 O   0  0  0  0  0  0  0  0  0  0  0  0
    9.4637    7.7318    2.6178 C   0  0  0  0  0  0  0  0  0  0  0  0
    9.0233    8.5542    3.4589 O   0  0  0  0  0  0  0  0  0  0  0  0
   10.4050    7.4758    0.9932 H   0  0  0  0  0  0  0  0  0  0  0  0
    6.7944   -1.5574    1.8508 C   0  0  0  0  0  0  0  0  0  0  0  0
    5.8305   -1.6235    0.7934 O   0  0  0  0  0  0  0  0  0  0  0  0
    6.0277   -0.8835   -0.3218 N   0  0  0  0  0  0  0  0  0  0  0  0
    5.8034   -1.4012   -1.4466 C   0  0  0  0  0  0  0  0  0  0  0  0
    6.0465   -0.5961   -2.6553 C   0  0  0  0  0  0  0  0  0  0  0  0
    6.8856    1.3715   -3.6226 C   0  0  0  0  0  0  0  0  0  0  0  0
    5.9585   -0.2829   -5.0150 C   0  0  0  0  0  0  0  0  0  0  0  0
    5.7026   -1.0854   -3.9116 C   0  0  0  0  0  0  0  0  0  0  0  0
    6.6370    0.6167   -2.5319 N   0  0  0  0  0  0  0  0  0  0  0  0
    6.5458    0.9146   -4.8416 N   0  0  0  0  0  0  0  0  0  0  0  0
    5.6762   -0.6522   -6.1743 O   0  0  0  0  0  0  0  0  0  0  0  0
    7.4319    2.4888   -3.5253 O   0  0  0  0  0  0  0  0  0  0  0  0
    6.8867    0.9501   -1.6399 H   0  0  0  0  0  0  0  0  0  0  0  0
    6.7326    1.4736   -5.6302 H   0  0  0  0  0  0  0  0  0  0  0  0
 19 22  2  0  0  0
 19 23  1  0  0  0
 19 18  1  0  0  0
 20 24  1  0  0  0
 20 26  2  0  0  0
 20 23  1  0  0  0
 21 25  2  0  0  0
 21 24  1  0  0  0
 21 22  1  0  0  0
 11 12  1  0  0  0
 12 13  2  0  0  0
 12  5  1  0  0  0
  5  6  1  0  0  0
  5  8  2  0  0  0
  6  7  2  0  0  0
  7 10  1  0  0  0
  8  9  1  0  0  0
  9 10  2  0  0  0
 10  3  1  0  0  0
  3  4  2  0  0  0
  4  2  1  0  0  0
  2  1  1  0  0  0
  1 15  1  0  0  0
 15 16  1  0  0  0
 16 17  1  0  0  0
 17 18  2  0  0  0
 23 27  1  0  0  0
 24 28  1  0  0  0
 11 14  1  0  0  0
M  END
> <minimizedAffinity>
-8.19233

$$$$
2HXM_302_A_401


 28 29  0  0  0  0  0  0  0  0999 V2000
    7.3703   -0.1781    1.7390 C   0  0  0  0  0  0  0  0  0  0  0  0
    8.2463   -0.1406    2.8722 O   0  0  0  0  0  0  0  0  0  0  0  0
    8.7890    2.1213    2.9633 C   0  0  0  0  0  0  0  0  0  0  0  0
    9.0465    0.9388    3.0188 N   0  0  0  0  0  0  0  0  0  0  0  0
    9.2858    6.1560    2.6594 C   0  0  0  0  0  0  0  0  0  0  0  0
    9.5787    5.2843    1.6185 C   0  0  0  0  0  0  0  0  0  0  0  0
    9.3907    3.9224    1.7945 C   0  0  0  0  0  0  0  0  0  0  0  0
    8.7971    5.6577    3.8761 C   0  0  0  0  0  0  0  0  0  0  0  0
    8.6002    4.2771    4.0458 C   0  0  0  0  0  0  0  0  0  0  0  0
    8.9038    3.4085    2.9924 C   0  0  0  0  0  0  0  0  0  0  0  0
    9.2459    8.4400    3.3283 O   0  0  0  0  0  0  0  0  0  0  0  0
    9.5171    7.6213    2.4318 C   0  0  0  0  0  0  0  0  0  0  0  0
    9.9853    7.9913    1.3266 O   0  0  0  0  0  0  0  0  0  0  0  0
    8.8975    8.1417    4.1454 H   0  0  0  0  0  0  0  0  0  0  0  0
    6.8157   -1.5940    1.5812 C   0  0  0  0  0  0  0  0  0  0  0  0
    5.7320   -1.6514    0.6464 O   0  0  0  0  0  0  0  0  0  0  0  0
    5.7914   -0.8965   -0.4747 N   0  0  0  0  0  0  0  0  0  0  0  0
    6.2438   -1.4070   -1.5323 C   0  0  0  0  0  0  0  0  0  0  0  0
    6.3290   -0.5691   -2.7401 C   0  0  0  0  0  0  0  0  0  0  0  0
    6.0584   -0.3602   -5.0627 C   0  0  0  0  0  0  0  0  0  0  0  0
    6.7688    1.5076   -3.8209 C   0  0  0  0  0  0  0  0  0  0  0  0
    6.7094    0.7662   -2.6488 C   0  0  0  0  0  0  0  0  0  0  0  0
    6.0037   -1.1070   -3.9400 N   0  0  0  0  0  0  0  0  0  0  0  0
    6.4372    0.9287   -4.9888 N   0  0  0  0  0  0  0  0  0  0  0  0
    7.1036    2.7108   -3.8196 O   0  0  0  0  0  0  0  0  0  0  0  0
    5.7584   -0.8404   -6.1743 O   0  0  0  0  0  0  0  0  0  0  0  0
    5.7252   -2.0498   -3.9935 H   0  0  0  0  0  0  0  0  0  0  0  0
    6.4728    1.4640   -5.8142 H   0  0  0  0  0  0  0  0  0  0  0  0
 19 22  2  0  0  0
 19 23  1  0  0  0
 19 18  1  0  0  0
 20 24  1  0  0  0
 20 26  2  0  0  0
 20 23  1  0  0  0
 21 25  2  0  0  0
 21 24  1  0  0  0
 21 22  1  0  0  0
 11 12  1  0  0  0
 12 13  2  0  0  0
 12  5  1  0  0  0
  5  6  1  0  0  0
  5  8  2  0  0  0
  6  7  2  0  0  0
  7 10  1  0  0  0
  8  9  1  0  0  0
  9 10  2  0  0  0
 10  3  1  0  0  0
  3  4  2  0  0  0
  4  2  1  0  0  0
  2  1  1  0  0  0
  1 15  1  0  0  0
 15 16  1  0  0  0
 16 17  1  0  0  0
 17 18  2  0  0  0
 23 27  1  0  0  0
 24 28  1  0  0  0
 11 14  1  0  0  0
M  END
> <minimizedAffinity>
-7.96878

$$$$
2HXM_302_A_401


 28 29  0  0  0  0  0  0  0  0999 V2000
    8.7248   -0.3151    2.2594 C   0  0  0  0  0  0  0  0  0  0  0  0
    7.4450   -0.8648    2.5955 O   0  0  0  0  0  0  0  0  0  0  0  0
    6.6245   -0.7838    0.4184 C   0  0  0  0  0  0  0  0  0  0  0  0
    6.5287   -0.9854    1.6092 N   0  0  0  0  0  0  0  0  0  0  0  0
    6.0305   -0.1928   -3.5710 C   0  0  0  0  0  0  0  0  0  0  0  0
    6.9232    0.5666   -2.8256 C   0  0  0  0  0  0  0  0  0  0  0  0
    7.0699    0.3137   -1.4708 C   0  0  0  0  0  0  0  0  0  0  0  0
    5.2899   -1.2119   -2.9542 C   0  0  0  0  0  0  0  0  0  0  0  0
    5.4492   -1.4695   -1.5824 C   0  0  0  0  0  0  0  0  0  0  0  0
    6.3470   -0.6947   -0.8409 C   0  0  0  0  0  0  0  0  0  0  0  0
    6.3618   -0.6527   -5.8828 O   0  0  0  0  0  0  0  0  0  0  0  0
    5.8916    0.1232   -5.0316 C   0  0  0  0  0  0  0  0  0  0  0  0
    5.2961    1.1778   -5.3644 O   0  0  0  0  0  0  0  0  0  0  0  0
    6.8023   -1.4341   -5.6120 H   0  0  0  0  0  0  0  0  0  0  0  0
    8.7947    1.1299    2.7535 C   0  0  0  0  0  0  0  0  0  0  0  0
    8.7864    2.0731    1.6756 O   0  0  0  0  0  0  0  0  0  0  0  0
    9.0119    3.3795    1.9447 N   0  0  0  0  0  0  0  0  0  0  0  0
    8.6487    3.8465    3.0554 C   0  0  0  0  0  0  0  0  0  0  0  0
    8.8748    5.2758    3.3282 C   0  0  0  0  0  0  0  0  0  0  0  0
    8.8453    7.0581    4.8558 C   0  0  0  0  0  0  0  0  0  0  0  0
    9.5544    7.4551    2.6478 C   0  0  0  0  0  0  0  0  0  0  0  0
    9.3579    6.1178    2.3314 C   0  0  0  0  0  0  0  0  0  0  0  0
    8.6341    5.7559    4.5717 N   0  0  0  0  0  0  0  0  0  0  0  0
    9.3000    7.8849    3.8967 N   0  0  0  0  0  0  0  0  0  0  0  0
    9.9833    8.2721    1.8062 O   0  0  0  0  0  0  0  0  0  0  0  0
    8.6316    7.5141    5.9971 O   0  0  0  0  0  0  0  0  0  0  0  0
    8.3026    5.1503    5.2736 H   0  0  0  0  0  0  0  0  0  0  0  0
    9.4510    8.8328    4.1156 H   0  0  0  0  0  0  0  0  0  0  0  0
 19 22  2  0  0  0
 19 23  1  0  0  0
 19 18  1  0  0  0
 20 24  1  0  0  0
 20 26  2  0  0  0
 20 23  1  0  0  0
 21 25  2  0  0  0
 21 24  1  0  0  0
 21 22  1  0  0  0
 11 12  1  0  0  0
 12 13  2  0  0  0
 12  5  1  0  0  0
  5  6  1  0  0  0
  5  8  2  0  0  0
  6  7  2  0  0  0
  7 10  1  0  0  0
  8  9  1  0  0  0
  9 10  2  0  0  0
 10  3  1  0  0  0
  3  4  2  0  0  0
  4  2  1  0  0  0
  2  1  1  0  0  0
  1 15  1  0  0  0
 15 16  1  0  0  0
 16 17  1  0  0  0
 17 18  2  0  0  0
 23 27  1  0  0  0
 24 28  1  0  0  0
 11 14  1  0  0  0
M  END
> <minimizedAffinity>
-7.77865

$$$$
2HXM_302_A_401


 28 29  0  0  0  0  0  0  0  0999 V2000
    9.4966    0.1866    3.2349 C   0  0  0  0  0  0  0  0  0  0  0  0
    8.7393    0.7942    2.1811 O   0  0  0  0  0  0  0  0  0  0  0  0
    7.6351    0.0981    0.2536 C   0  0  0  0  0  0  0  0  0  0  0  0
    7.9656   -0.0061    1.4145 N   0  0  0  0  0  0  0  0  0  0  0  0
    6.1409   -0.2951   -3.5187 C   0  0  0  0  0  0  0  0  0  0  0  0
    6.9181    0.7882   -3.1296 C   0  0  0  0  0  0  0  0  0  0  0  0
    7.3881    0.8593   -1.8276 C   0  0  0  0  0  0  0  0  0  0  0  0
    5.8418   -1.3111   -2.5990 C   0  0  0  0  0  0  0  0  0  0  0  0
    6.3282   -1.2381   -1.2831 C   0  0  0  0  0  0  0  0  0  0  0  0
    7.1054   -0.1397   -0.9012 C   0  0  0  0  0  0  0  0  0  0  0  0
    5.3949    0.7380   -5.5291 O   0  0  0  0  0  0  0  0  0  0  0  0
    5.6406   -0.3260   -4.9334 C   0  0  0  0  0  0  0  0  0  0  0  0
    5.4794   -1.4406   -5.4896 O   0  0  0  0  0  0  0  0  0  0  0  0
    5.5224    1.5584   -5.0947 H   0  0  0  0  0  0  0  0  0  0  0  0
    9.7548    1.2234    4.3282 C   0  0  0  0  0  0  0  0  0  0  0  0
    8.5765    1.9668    4.6606 O   0  0  0  0  0  0  0  0  0  0  0  0
    8.6503    3.3155    4.7345 N   0  0  0  0  0  0  0  0  0  0  0  0
    8.8205    3.9774    3.6778 C   0  0  0  0  0  0  0  0  0  0  0  0
    8.9260    5.4431    3.7723 C   0  0  0  0  0  0  0  0  0  0  0  0
    9.4520    7.4889    2.7481 C   0  0  0  0  0  0  0  0  0  0  0  0
    8.6766    7.4873    4.9694 C   0  0  0  0  0  0  0  0  0  0  0  0
    8.5586    6.1045    4.9400 C   0  0  0  0  0  0  0  0  0  0  0  0
    9.3582    6.1437    2.6965 N   0  0  0  0  0  0  0  0  0  0  0  0
    9.1119    8.1387    3.8761 N   0  0  0  0  0  0  0  0  0  0  0  0
    8.3686    8.1505    5.9818 O   0  0  0  0  0  0  0  0  0  0  0  0
    9.8449    8.1481    1.7646 O   0  0  0  0  0  0  0  0  0  0  0  0
    9.6058    5.6680    1.8709 H   0  0  0  0  0  0  0  0  0  0  0  0
    9.1837    9.1202    3.9019 H   0  0  0  0  0  0  0  0  0  0  0  0
 19 22  2  0  0  0
 19 23  1  0  0  0
 19 18  1  0  0  0
 20 24  1  0  0  0
 20 26  2  0  0  0
 20 23  1  0  0  0
 21 25  2  0  0  0
 21 24  1  0  0  0
 21 22  1  0  0  0
 11 12  1  0  0  0
 12 13  2  0  0  0
 12  5  1  0  0  0
  5  6  1  0  0  0
  5  8  2  0  0  0
  6  7  2  0  0  0
  7 10  1  0  0  0
  8  9  1  0  0  0
  9 10  2  0  0  0
 10  3  1  0  0  0
  3  4  2  0  0  0
  4  2  1  0  0  0
  2  1  1  0  0  0
  1 15  1  0  0  0
 15 16  1  0  0  0
 16 17  1  0  0  0
 17 18  2  0  0  0
 23 27  1  0  0  0
 24 28  1  0  0  0
 11 14  1  0  0  0
M  END
> <minimizedAffinity>
-7.49418

$$$$
2HXM_302_A_401


 28 29  0  0  0  0  0  0  0  0999 V2000
    9.6650   -2.2437    2.4038 C   0  0  0  0  0  0  0  0  0  0  0  0
    8.8042   -3.3881    2.4525 O   0  0  0  0  0  0  0  0  0  0  0  0
    7.6427   -2.8315    0.5133 C   0  0  0  0  0  0  0  0  0  0  0  0
    7.8898   -3.5352    1.4681 N   0  0  0  0  0  0  0  0  0  0  0  0
    6.2739   -1.6220   -3.1310 C   0  0  0  0  0  0  0  0  0  0  0  0
    7.3516   -2.4857   -2.9841 C   0  0  0  0  0  0  0  0  0  0  0  0
    7.7667   -2.8503   -1.7129 C   0  0  0  0  0  0  0  0  0  0  0  0
    5.6089   -1.1301   -1.9982 C   0  0  0  0  0  0  0  0  0  0  0  0
    6.0284   -1.5100   -0.7125 C   0  0  0  0  0  0  0  0  0  0  0  0
    7.1184   -2.3759   -0.5768 C   0  0  0  0  0  0  0  0  0  0  0  0
    5.3372   -0.1360   -4.7372 O   0  0  0  0  0  0  0  0  0  0  0  0
    5.8661   -1.2416   -4.5244 C   0  0  0  0  0  0  0  0  0  0  0  0
    6.0713   -2.0596   -5.4551 O   0  0  0  0  0  0  0  0  0  0  0  0
    5.1935    0.4590   -4.0277 H   0  0  0  0  0  0  0  0  0  0  0  0
   11.0594   -2.6843    1.9583 C   0  0  0  0  0  0  0  0  0  0  0  0
   11.4937   -1.9994    0.7777 O   0  0  0  0  0  0  0  0  0  0  0  0
   10.8241   -0.8949    0.3758 N   0  0  0  0  0  0  0  0  0  0  0  0
   10.4908   -0.7879   -0.8330 C   0  0  0  0  0  0  0  0  0  0  0  0
    9.7857    0.4302   -1.2656 C   0  0  0  0  0  0  0  0  0  0  0  0
    8.4477    1.5175   -2.8590 C   0  0  0  0  0  0  0  0  0  0  0  0
    9.0975    2.6847   -0.9222 C   0  0  0  0  0  0  0  0  0  0  0  0
    9.7817    1.5673   -0.4637 C   0  0  0  0  0  0  0  0  0  0  0  0
    9.1150    0.4211   -2.4425 N   0  0  0  0  0  0  0  0  0  0  0  0
    8.4473    2.6273   -2.0983 N   0  0  0  0  0  0  0  0  0  0  0  0
    9.0505    3.7425   -0.2600 O   0  0  0  0  0  0  0  0  0  0  0  0
    7.8226    1.5232   -3.9386 O   0  0  0  0  0  0  0  0  0  0  0  0
    9.1145   -0.3916   -2.9982 H   0  0  0  0  0  0  0  0  0  0  0  0
    7.9565    3.4210   -2.4118 H   0  0  0  0  0  0  0  0  0  0  0  0
 19 22  2  0  0  0
 19 23  1  0  0  0
 19 18  1  0  0  0
 20 24  1  0  0  0
 20 26  2  0  0  0
 20 23  1  0  0  0
 21 25  2  0  0  0
 21 24  1  0  0  0
 21 22  1  0  0  0
 11 12  1  0  0  0
 12 13  2  0  0  0
 12  5  1  0  0  0
  5  6  1  0  0  0
  5  8  2  0  0  0
  6  7  2  0  0  0
  7 10  1  0  0  0
  8  9  1  0  0  0
  9 10  2  0  0  0
 10  3  1  0  0  0
  3  4  2  0  0  0
  4  2  1  0  0  0
  2  1  1  0  0  0
  1 15  1  0  0  0
 15 16  1  0  0  0
 16 17  1  0  0  0
 17 18  2  0  0  0
 23 27  1  0  0  0
 24 28  1  0  0  0
 11 14  1  0  0  0
M  END
> <minimizedAffinity>
-7.23920

$$$$
2HXM_302_A_401


 28 29  0  0  0  0  0  0  0  0999 V2000
    5.4777   -3.4621    3.2557 C   0  0  0  0  0  0  0  0  0  0  0  0
    5.8484   -3.7032    1.8928 O   0  0  0  0  0  0  0  0  0  0  0  0
    5.9438   -2.1605    0.1520 C   0  0  0  0  0  0  0  0  0  0  0  0
    5.3644   -2.8672    0.9474 N   0  0  0  0  0  0  0  0  0  0  0  0
    6.4566    0.2266   -3.1125 C   0  0  0  0  0  0  0  0  0  0  0  0
    5.6713   -0.9188   -3.1374 C   0  0  0  0  0  0  0  0  0  0  0  0
    5.5465   -1.6867   -1.9904 C   0  0  0  0  0  0  0  0  0  0  0  0
    7.1115    0.6033   -1.9306 C   0  0  0  0  0  0  0  0  0  0  0  0
    6.9743   -0.1742   -0.7686 C   0  0  0  0  0  0  0  0  0  0  0  0
    6.1853   -1.3284   -0.8073 C   0  0  0  0  0  0  0  0  0  0  0  0
    7.6629    1.5441   -4.6856 O   0  0  0  0  0  0  0  0  0  0  0  0
    6.5762    1.0215   -4.3799 C   0  0  0  0  0  0  0  0  0  0  0  0
    5.5624    1.1421   -5.1116 O   0  0  0  0  0  0  0  0  0  0  0  0
    8.4064    1.4412   -4.1248 H   0  0  0  0  0  0  0  0  0  0  0  0
    6.5148   -2.5434    3.9019 C   0  0  0  0  0  0  0  0  0  0  0  0
    7.8560   -2.9845    3.6605 O   0  0  0  0  0  0  0  0  0  0  0  0
    8.5343   -2.4767    2.6060 N   0  0  0  0  0  0  0  0  0  0  0  0
    9.3407   -3.2161    1.9843 C   0  0  0  0  0  0  0  0  0  0  0  0
   10.0937   -2.6461    0.8545 C   0  0  0  0  0  0  0  0  0  0  0  0
   11.9319   -1.4022    0.0895 C   0  0  0  0  0  0  0  0  0  0  0  0
   10.4313   -2.3092   -1.4793 C   0  0  0  0  0  0  0  0  0  0  0  0
    9.6800   -2.8691   -0.4551 C   0  0  0  0  0  0  0  0  0  0  0  0
   11.2130   -1.9252    1.1047 N   0  0  0  0  0  0  0  0  0  0  0  0
   11.5345   -1.6001   -1.1806 N   0  0  0  0  0  0  0  0  0  0  0  0
   10.1220   -2.4633   -2.6795 O   0  0  0  0  0  0  0  0  0  0  0  0
   12.9666   -0.7392    0.3040 O   0  0  0  0  0  0  0  0  0  0  0  0
   11.5041   -1.7818    2.0342 H   0  0  0  0  0  0  0  0  0  0  0  0
   12.0672   -1.2144   -1.9132 H   0  0  0  0  0  0  0  0  0  0  0  0
 19 22  2  0  0  0
 19 23  1  0  0  0
 19 18  1  0  0  0
 20 24  1  0  0  0
 20 26  2  0  0  0
 20 23  1  0  0  0
 21 25  2  0  0  0
 21 24  1  0  0  0
 21 22  1  0  0  0
 11 12  1  0  0  0
 12 13  2  0  0  0
 12  5  1  0  0  0
  5  6  1  0  0  0
  5  8  2  0  0  0
  6  7  2  0  0  0
  7 10  1  0  0  0
  8  9  1  0  0  0
  9 10  2  0  0  0
 10  3  1  0  0  0
  3  4  2  0  0  0
  4  2  1  0  0  0
  2  1  1  0  0  0
  1 15  1  0  0  0
 15 16  1  0  0  0
 16 17  1  0  0  0
 17 18  2  0  0  0
 23 27  1  0  0  0
 24 28  1  0  0  0
 11 14  1  0  0  0
M  END
> <minimizedAffinity>
-7.00227

$$$$
2HXM_302_A_401


 28 29  0  0  0  0  0  0  0  0999 V2000
    7.0458   -3.1255    3.5959 C   0  0  0  0  0  0  0  0  0  0  0  0
    6.2619   -2.1598    2.8847 O   0  0  0  0  0  0  0  0  0  0  0  0
    6.3730   -1.3779    0.6949 C   0  0  0  0  0  0  0  0  0  0  0  0
    6.2310   -2.2384    1.5358 N   0  0  0  0  0  0  0  0  0  0  0  0
    6.4525    0.2285   -3.0509 C   0  0  0  0  0  0  0  0  0  0  0  0
    5.7313   -0.9176   -2.7421 C   0  0  0  0  0  0  0  0  0  0  0  0
    5.7547   -1.4114   -1.4472 C   0  0  0  0  0  0  0  0  0  0  0  0
    7.1924    0.8822   -2.0546 C   0  0  0  0  0  0  0  0  0  0  0  0
    7.2053    0.3823   -0.7418 C   0  0  0  0  0  0  0  0  0  0  0  0
    6.4797   -0.7758   -0.4439 C   0  0  0  0  0  0  0  0  0  0  0  0
    7.3978    1.3048   -4.9519 O   0  0  0  0  0  0  0  0  0  0  0  0
    6.4115    0.7212   -4.4680 C   0  0  0  0  0  0  0  0  0  0  0  0
    5.3682    0.5302   -5.1407 O   0  0  0  0  0  0  0  0  0  0  0  0
    8.1660    1.4365   -4.4318 H   0  0  0  0  0  0  0  0  0  0  0  0
    8.2435   -2.4244    4.2370 C   0  0  0  0  0  0  0  0  0  0  0  0
    9.4417   -2.5856    3.4691 O   0  0  0  0  0  0  0  0  0  0  0  0
    9.7795   -1.6314    2.5716 N   0  0  0  0  0  0  0  0  0  0  0  0
    9.4041   -0.4465    2.7684 C   0  0  0  0  0  0  0  0  0  0  0  0
    9.7543    0.5797    1.7721 C   0  0  0  0  0  0  0  0  0  0  0  0
   10.8876    1.1598   -0.2002 C   0  0  0  0  0  0  0  0  0  0  0  0
    9.6038    2.7929    0.9044 C   0  0  0  0  0  0  0  0  0  0  0  0
    9.2411    1.8689    1.8747 C   0  0  0  0  0  0  0  0  0  0  0  0
   10.5604    0.2449    0.7362 N   0  0  0  0  0  0  0  0  0  0  0  0
   10.4079    2.4132   -0.1047 N   0  0  0  0  0  0  0  0  0  0  0  0
    9.1856    3.9695    0.9301 O   0  0  0  0  0  0  0  0  0  0  0  0
   11.6259    0.8656   -1.1618 O   0  0  0  0  0  0  0  0  0  0  0  0
   10.9101   -0.6727    0.6660 H   0  0  0  0  0  0  0  0  0  0  0  0
   10.6528    3.0720   -0.7941 H   0  0  0  0  0  0  0  0  0  0  0  0
 19 22  2  0  0  0
 19 23  1  0  0  0
 19 18  1  0  0  0
 20 24  1  0  0  0
 20 26  2  0  0  0
 20 23  1  0  0  0
 21 25  2  0  0  0
 21 24  1  0  0  0
 21 22  1  0  0  0
 11 12  1  0  0  0
 12 13  2  0  0  0
 12  5  1  0  0  0
  5  6  1  0  0  0
  5  8  2  0  0  0
  6  7  2  0  0  0
  7 10  1  0  0  0
  8  9  1  0  0  0
  9 10  2  0  0  0
 10  3  1  0  0  0
  3  4  2  0  0  0
  4  2  1  0  0  0
  2  1  1  0  0  0
  1 15  1  0  0  0
 15 16  1  0  0  0
 16 17  1  0  0  0
 17 18  2  0  0  0
 23 27  1  0  0  0
 24 28  1  0  0  0
 11 14  1  0  0  0
M  END
> <minimizedAffinity>
-6.98017

$$$$
2HXM_302_A_401


 28 29  0  0  0  0  0  0  0  0999 V2000
    7.8182   -3.0924    3.4655 C   0  0  0  0  0  0  0  0  0  0  0  0
    7.0321   -2.2305    2.6335 O   0  0  0  0  0  0  0  0  0  0  0  0
    6.7469   -2.2417    0.3231 C   0  0  0  0  0  0  0  0  0  0  0  0
    6.6246   -2.7057    1.4356 N   0  0  0  0  0  0  0  0  0  0  0  0
    6.2303   -1.5313   -3.6576 C   0  0  0  0  0  0  0  0  0  0  0  0
    5.3576   -1.0489   -2.6908 C   0  0  0  0  0  0  0  0  0  0  0  0
    5.5923   -1.3346   -1.3550 C   0  0  0  0  0  0  0  0  0  0  0  0
    7.3438   -2.2960   -3.2797 C   0  0  0  0  0  0  0  0  0  0  0  0
    7.5815   -2.5750   -1.9235 C   0  0  0  0  0  0  0  0  0  0  0  0
    6.6927   -2.0886   -0.9592 C   0  0  0  0  0  0  0  0  0  0  0  0
    5.9184   -0.0274   -5.4761 O   0  0  0  0  0  0  0  0  0  0  0  0
    5.9316   -1.2109   -5.0931 C   0  0  0  0  0  0  0  0  0  0  0  0
    5.6989   -2.1582   -5.8844 O   0  0  0  0  0  0  0  0  0  0  0  0
    6.0950    0.6636   -4.8684 H   0  0  0  0  0  0  0  0  0  0  0  0
    8.9708   -3.6683    2.6427 C   0  0  0  0  0  0  0  0  0  0  0  0
   10.2261   -3.0594    2.9666 O   0  0  0  0  0  0  0  0  0  0  0  0
   10.6717   -2.0310    2.2090 N   0  0  0  0  0  0  0  0  0  0  0  0
   10.0737   -1.7580    1.1359 C   0  0  0  0  0  0  0  0  0  0  0  0
   10.5828   -0.6538    0.3054 C   0  0  0  0  0  0  0  0  0  0  0  0
   12.2565    0.9384   -0.1126 C   0  0  0  0  0  0  0  0  0  0  0  0
   10.4134    0.8064   -1.5690 C   0  0  0  0  0  0  0  0  0  0  0  0
    9.8832   -0.2373   -0.8229 C   0  0  0  0  0  0  0  0  0  0  0  0
   11.7575   -0.0665    0.6372 N   0  0  0  0  0  0  0  0  0  0  0  0
   11.5827    1.3585   -1.1988 N   0  0  0  0  0  0  0  0  0  0  0  0
    9.8425    1.2369   -2.5930 O   0  0  0  0  0  0  0  0  0  0  0  0
   13.3387    1.4866    0.1781 O   0  0  0  0  0  0  0  0  0  0  0  0
   12.2509   -0.3751    1.4313 H   0  0  0  0  0  0  0  0  0  0  0  0
   11.9567    2.0919   -1.7387 H   0  0  0  0  0  0  0  0  0  0  0  0
 19 22  2  0  0  0
 19 23  1  0  0  0
 19 18  1  0  0  0
 20 24  1  0  0  0
 20 26  2  0  0  0
 20 23  1  0  0  0
 21 25  2  0  0  0
 21 24  1  0  0  0
 21 22  1  0  0  0
 11 12  1  0  0  0
 12 13  2  0  0  0
 12  5  1  0  0  0
  5  6  1  0  0  0
  5  8  2  0  0  0
  6  7  2  0  0  0
  7 10  1  0  0  0
  8  9  1  0  0  0
  9 10  2  0  0  0
 10  3  1  0  0  0
  3  4  2  0  0  0
  4  2  1  0  0  0
  2  1  1  0  0  0
  1 15  1  0  0  0
 15 16  1  0  0  0
 16 17  1  0  0  0
 17 18  2  0  0  0
 23 27  1  0  0  0
 24 28  1  0  0  0
 11 14  1  0  0  0
M  END
> <minimizedAffinity>
-6.69588

$$$$
2HXM_302_A_401


 28 29  0  0  0  0  0  0  0  0999 V2000
    7.3057   -2.8024    3.4693 C   0  0  0  0  0  0  0  0  0  0  0  0
    8.3270   -3.0847    2.5049 O   0  0  0  0  0  0  0  0  0  0  0  0
    7.4617   -2.6702    0.3838 C   0  0  0  0  0  0  0  0  0  0  0  0
    7.9428   -3.3768    1.2424 N   0  0  0  0  0  0  0  0  0  0  0  0
    6.2382   -1.5645   -3.3442 C   0  0  0  0  0  0  0  0  0  0  0  0
    7.3866   -2.3140   -3.1238 C   0  0  0  0  0  0  0  0  0  0  0  0
    7.7455   -2.6491   -1.8277 C   0  0  0  0  0  0  0  0  0  0  0  0
    5.4466   -1.1576   -2.2601 C   0  0  0  0  0  0  0  0  0  0  0  0
    5.8105   -1.5077   -0.9491 C   0  0  0  0  0  0  0  0  0  0  0  0
    6.9720   -2.2580   -0.7391 C   0  0  0  0  0  0  0  0  0  0  0  0
    6.1496   -2.0094   -5.6808 O   0  0  0  0  0  0  0  0  0  0  0  0
    5.8935   -1.2113   -4.7616 C   0  0  0  0  0  0  0  0  0  0  0  0
    5.3475   -0.1033   -4.9891 O   0  0  0  0  0  0  0  0  0  0  0  0
    6.5574   -2.8307   -5.4882 H   0  0  0  0  0  0  0  0  0  0  0  0
    7.4362   -1.3494    3.9264 C   0  0  0  0  0  0  0  0  0  0  0  0
    8.5630   -0.6931    3.3337 O   0  0  0  0  0  0  0  0  0  0  0  0
    8.7038    0.6427    3.4944 N   0  0  0  0  0  0  0  0  0  0  0  0
    8.6484    1.3894    2.4829 C   0  0  0  0  0  0  0  0  0  0  0  0
    8.8295    2.8393    2.6652 C   0  0  0  0  0  0  0  0  0  0  0  0
    9.4124    4.9212    1.7503 C   0  0  0  0  0  0  0  0  0  0  0  0
    8.7301    4.8103    3.9992 C   0  0  0  0  0  0  0  0  0  0  0  0
    8.5433    3.4393    3.8875 C   0  0  0  0  0  0  0  0  0  0  0  0
    9.2508    3.5880    1.6179 N   0  0  0  0  0  0  0  0  0  0  0  0
    9.1513    5.5109    2.9310 N   0  0  0  0  0  0  0  0  0  0  0  0
    8.4968    5.4195    5.0642 O   0  0  0  0  0  0  0  0  0  0  0  0
    9.7963    5.6244    0.7940 O   0  0  0  0  0  0  0  0  0  0  0  0
    9.4405    3.1563    0.7537 H   0  0  0  0  0  0  0  0  0  0  0  0
    9.2721    6.4842    3.0158 H   0  0  0  0  0  0  0  0  0  0  0  0
 19 22  2  0  0  0
 19 23  1  0  0  0
 19 18  1  0  0  0
 20 24  1  0  0  0
 20 26  2  0  0  0
 20 23  1  0  0  0
 21 25  2  0  0  0
 21 24  1  0  0  0
 21 22  1  0  0  0
 11 12  1  0  0  0
 12 13  2  0  0  0
 12  5  1  0  0  0
  5  6  1  0  0  0
  5  8  2  0  0  0
  6  7  2  0  0  0
  7 10  1  0  0  0
  8  9  1  0  0  0
  9 10  2  0  0  0
 10  3  1  0  0  0
  3  4  2  0  0  0
  4  2  1  0  0  0
  2  1  1  0  0  0
  1 15  1  0  0  0
 15 16  1  0  0  0
 16 17  1  0  0  0
 17 18  2  0  0  0
 23 27  1  0  0  0
 24 28  1  0  0  0
 11 14  1  0  0  0
M  END
> <minimizedAffinity>
-6.62453

$$$$
2HXM_302_A_401


 28 29  0  0  0  0  0  0  0  0999 V2000
    7.5516   -3.5616    3.0911 C   0  0  0  0  0  0  0  0  0  0  0  0
    6.6967   -2.4762    2.7114 O   0  0  0  0  0  0  0  0  0  0  0  0
    6.4366   -1.8573    0.4824 C   0  0  0  0  0  0  0  0  0  0  0  0
    6.1578   -2.4981    1.4721 N   0  0  0  0  0  0  0  0  0  0  0  0
    6.4153   -0.0421   -3.1676 C   0  0  0  0  0  0  0  0  0  0  0  0
    6.2758    0.6629   -1.9791 C   0  0  0  0  0  0  0  0  0  0  0  0
    6.2865   -0.0210   -0.7737 C   0  0  0  0  0  0  0  0  0  0  0  0
    6.5724   -1.4358   -3.1429 C   0  0  0  0  0  0  0  0  0  0  0  0
    6.5912   -2.1228   -1.9177 C   0  0  0  0  0  0  0  0  0  0  0  0
    6.4444   -1.4028   -0.7276 C   0  0  0  0  0  0  0  0  0  0  0  0
    6.2421    0.1409   -5.5345 O   0  0  0  0  0  0  0  0  0  0  0  0
    6.3841    0.7353   -4.4510 C   0  0  0  0  0  0  0  0  0  0  0  0
    6.5038    1.9846   -4.3999 O   0  0  0  0  0  0  0  0  0  0  0  0
    6.1546   -0.7919   -5.5492 H   0  0  0  0  0  0  0  0  0  0  0  0
    7.7736   -4.4708    1.8824 C   0  0  0  0  0  0  0  0  0  0  0  0
    9.0612   -4.2763    1.2860 O   0  0  0  0  0  0  0  0  0  0  0  0
    9.4150   -3.0361    0.8777 N   0  0  0  0  0  0  0  0  0  0  0  0
   10.3541   -2.9096    0.0496 C   0  0  0  0  0  0  0  0  0  0  0  0
   10.7490   -1.5540   -0.3681 C   0  0  0  0  0  0  0  0  0  0  0  0
   10.3289    0.3445   -1.6835 C   0  0  0  0  0  0  0  0  0  0  0  0
   12.1811    0.3447   -0.2327 C   0  0  0  0  0  0  0  0  0  0  0  0
   11.8589   -0.9349    0.1983 C   0  0  0  0  0  0  0  0  0  0  0  0
   10.0002   -0.9041   -1.2911 N   0  0  0  0  0  0  0  0  0  0  0  0
   11.4074    0.9486   -1.1524 N   0  0  0  0  0  0  0  0  0  0  0  0
   13.1633    0.9639    0.2272 O   0  0  0  0  0  0  0  0  0  0  0  0
    9.6471    0.9571   -2.5298 O   0  0  0  0  0  0  0  0  0  0  0  0
    9.2104   -1.3460   -1.6785 H   0  0  0  0  0  0  0  0  0  0  0  0
   11.6372    1.8598   -1.4458 H   0  0  0  0  0  0  0  0  0  0  0  0
 19 22  2  0  0  0
 19 23  1  0  0  0
 19 18  1  0  0  0
 20 24  1  0  0  0
 20 26  2  0  0  0
 20 23  1  0  0  0
 21 25  2  0  0  0
 21 24  1  0  0  0
 21 22  1  0  0  0
 11 12  1  0  0  0
 12 13  2  0  0  0
 12  5  1  0  0  0
  5  6  1  0  0  0
  5  8  2  0  0  0
  6  7  2  0  0  0
  7 10  1  0  0  0
  8  9  1  0  0  0
  9 10  2  0  0  0
 10  3  1  0  0  0
  3  4  2  0  0  0
  4  2  1  0  0  0
  2  1  1  0  0  0
  1 15  1  0  0  0
 15 16  1  0  0  0
 16 17  1  0  0  0
 17 18  2  0  0  0
 23 27  1  0  0  0
 24 28  1  0  0  0
 11 14  1  0  0  0
M  END
> <minimizedAffinity>
-6.55107

$$$$
