3DJV_C3P_A_125


 27 28  0  0  0  0  0  0  0  0999 V2000
   29.5601   42.7585    5.2871 C   0  0  0  0  0  0  0  0  0  0  0  0
   30.1927   42.0313    6.3470 O   0  0  0  0  0  0  0  0  0  0  0  0
   29.5012   41.7990    4.0941 C   0  0  0  0  0  0  0  0  0  0  0  0
   30.3127   40.5826    4.4993 C   0  0  0  0  0  0  0  0  0  0  0  0
   29.7498   39.4337    3.8810 O   0  0  0  0  0  0  0  0  0  0  0  0
   30.0186   40.6597    5.9829 C   0  0  0  0  0  0  0  0  0  0  0  0
   28.7988   39.3986    4.0688 H   0  0  0  0  0  0  0  0  0  0  0  0
   30.5252   39.7154    6.9833 N   0  0  0  0  0  0  0  0  0  0  0  0
   30.3101   38.3080    7.0844 C   0  0  0  0  0  0  0  0  0  0  0  0
   30.8670   37.6635    8.1357 N   0  0  0  0  0  0  0  0  0  0  0  0
   31.5981   38.3128    9.0793 C   0  0  0  0  0  0  0  0  0  0  0  0
   31.7969   39.6783    8.9933 C   0  0  0  0  0  0  0  0  0  0  0  0
   31.2396   40.3469    7.9251 C   0  0  0  0  0  0  0  0  0  0  0  0
   29.6438   37.6405    6.2561 O   0  0  0  0  0  0  0  0  0  0  0  0
   32.1471   37.6505   10.1217 N   0  0  0  0  0  0  0  0  0  0  0  0
   32.0216   36.6778   10.2080 H   0  0  0  0  0  0  0  0  0  0  0  0
   32.6725   38.1407   10.7947 H   0  0  0  0  0  0  0  0  0  0  0  0
   27.3507   43.5857    4.5884 O   0  0  0  0  0  0  0  0  0  0  0  0
   28.1805   43.2643    5.7157 C   0  0  0  0  0  0  0  0  0  0  0  0
   26.4884   43.9013    4.9012 H   0  0  0  0  0  0  0  0  0  0  0  0
   30.1078   42.3758    2.9590 O   0  0  0  0  0  0  0  0  0  0  0  0
   29.3882   42.5354    1.5291 P   0  0  0  0  0  0  0  0  0  0  0  0
   28.1951   43.4527    1.7184 O   0  0  0  0  0  0  0  0  0  0  0  0
   29.0435   41.1078    1.1760 O   0  0  0  0  0  0  0  0  0  0  0  0
   30.4909   43.1333    0.6883 O   0  0  0  0  0  0  0  0  0  0  0  0
   28.5969   41.0864    0.3152 H   0  0  0  0  0  0  0  0  0  0  0  0
   30.1671   43.2773   -0.2147 H   0  0  0  0  0  0  0  0  0  0  0  0
 22 23  2  0  0  0
 22 24  1  0  0  0
 22 25  1  0  0  0
 22 21  1  0  0  0
 18 19  1  0  0  0
 19  1  1  0  0  0
  1  2  1  0  0  0
  1  3  1  0  0  0
  2  6  1  0  0  0
  3 21  1  0  0  0
  3  4  1  0  0  0
  4  5  1  0  0  0
  4  6  1  0  0  0
  6  8  1  0  0  0
  8  9  1  0  0  0
  8 13  1  0  0  0
  9 10  1  0  0  0
  9 14  2  0  0  0
 10 11  2  0  0  0
 11 12  1  0  0  0
 11 15  1  0  0  0
 12 13  2  0  0  0
 24 26  1  0  0  0
 25 27  1  0  0  0
 18 20  1  0  0  0
  5  7  1  0  0  0
 15 16  1  0  0  0
 15 17  1  0  0  0
M  END
> <minimizedAffinity>
-7.21711

$$$$
3DJV_C3P_A_125


 27 28  0  0  0  0  0  0  0  0999 V2000
   30.8119   40.1157   10.2048 C   0  0  0  0  0  0  0  0  0  0  0  0
   30.1057   40.1807    8.9600 O   0  0  0  0  0  0  0  0  0  0  0  0
   31.6662   38.8457   10.1390 C   0  0  0  0  0  0  0  0  0  0  0  0
   31.2363   38.1210    8.8771 C   0  0  0  0  0  0  0  0  0  0  0  0
   32.3574   37.4278    8.3462 O   0  0  0  0  0  0  0  0  0  0  0  0
   30.8724   39.3558    8.0793 C   0  0  0  0  0  0  0  0  0  0  0  0
   33.1041   38.0405    8.2575 H   0  0  0  0  0  0  0  0  0  0  0  0
   30.3720   39.3403    6.7014 N   0  0  0  0  0  0  0  0  0  0  0  0
   29.8267   38.2542    5.9527 C   0  0  0  0  0  0  0  0  0  0  0  0
   29.4669   38.4956    4.6709 N   0  0  0  0  0  0  0  0  0  0  0  0
   29.6204   39.7157    4.0925 C   0  0  0  0  0  0  0  0  0  0  0  0
   30.1615   40.7667    4.8094 C   0  0  0  0  0  0  0  0  0  0  0  0
   30.5280   40.5365    6.1176 C   0  0  0  0  0  0  0  0  0  0  0  0
   29.6587   37.0996    6.4156 O   0  0  0  0  0  0  0  0  0  0  0  0
   29.2537   39.9368    2.8107 N   0  0  0  0  0  0  0  0  0  0  0  0
   28.8657   39.2064    2.2767 H   0  0  0  0  0  0  0  0  0  0  0  0
   29.3746   40.8283    2.4109 H   0  0  0  0  0  0  0  0  0  0  0  0
   32.8379   41.1154   11.1796 O   0  0  0  0  0  0  0  0  0  0  0  0
   31.6408   41.3822   10.4322 C   0  0  0  0  0  0  0  0  0  0  0  0
   33.3333   41.9403   11.3020 H   0  0  0  0  0  0  0  0  0  0  0  0
   31.4003   38.0073   11.2415 O   0  0  0  0  0  0  0  0  0  0  0  0
   32.5329   37.2681   12.1125 P   0  0  0  0  0  0  0  0  0  0  0  0
   31.8278   36.4464   13.1749 O   0  0  0  0  0  0  0  0  0  0  0  0
   33.3467   38.4262   12.6398 O   0  0  0  0  0  0  0  0  0  0  0  0
   33.2398   36.4380   11.0678 O   0  0  0  0  0  0  0  0  0  0  0  0
   34.0714   38.0885   13.1892 H   0  0  0  0  0  0  0  0  0  0  0  0
   33.9585   35.9373   11.4846 H   0  0  0  0  0  0  0  0  0  0  0  0
 22 23  2  0  0  0
 22 24  1  0  0  0
 22 25  1  0  0  0
 22 21  1  0  0  0
 18 19  1  0  0  0
 19  1  1  0  0  0
  1  2  1  0  0  0
  1  3  1  0  0  0
  2  6  1  0  0  0
  3 21  1  0  0  0
  3  4  1  0  0  0
  4  5  1  0  0  0
  4  6  1  0  0  0
  6  8  1  0  0  0
  8  9  1  0  0  0
  8 13  1  0  0  0
  9 10  1  0  0  0
  9 14  2  0  0  0
 10 11  2  0  0  0
 11 12  1  0  0  0
 11 15  1  0  0  0
 12 13  2  0  0  0
 24 26  1  0  0  0
 25 27  1  0  0  0
 18 20  1  0  0  0
  5  7  1  0  0  0
 15 16  1  0  0  0
 15 17  1  0  0  0
M  END
> <minimizedAffinity>
-6.94924

$$$$
3DJV_C3P_A_125


 27 28  0  0  0  0  0  0  0  0999 V2000
   31.0344   39.6637   10.9727 C   0  0  0  0  0  0  0  0  0  0  0  0
   30.3690   39.8704    9.7209 O   0  0  0  0  0  0  0  0  0  0  0  0
   32.0219   38.5156   10.7407 C   0  0  0  0  0  0  0  0  0  0  0  0
   31.7166   37.9790    9.3546 C   0  0  0  0  0  0  0  0  0  0  0  0
   32.9234   37.5027    8.7751 O   0  0  0  0  0  0  0  0  0  0  0  0
   31.2501   39.2897    8.7562 C   0  0  0  0  0  0  0  0  0  0  0  0
   33.6026   38.1931    8.8293 H   0  0  0  0  0  0  0  0  0  0  0  0
   30.8026   39.4610    7.3708 N   0  0  0  0  0  0  0  0  0  0  0  0
   30.9237   40.5997    6.5187 C   0  0  0  0  0  0  0  0  0  0  0  0
   30.3890   40.5135    5.2788 N   0  0  0  0  0  0  0  0  0  0  0  0
   29.7455   39.3989    4.8427 C   0  0  0  0  0  0  0  0  0  0  0  0
   29.6131   38.2989    5.6697 C   0  0  0  0  0  0  0  0  0  0  0  0
   30.1571   38.3708    6.9337 C   0  0  0  0  0  0  0  0  0  0  0  0
   31.4989   41.6647    6.8512 O   0  0  0  0  0  0  0  0  0  0  0  0
   29.2190   39.3324    3.5998 N   0  0  0  0  0  0  0  0  0  0  0  0
   29.2986   40.1009    2.9897 H   0  0  0  0  0  0  0  0  0  0  0  0
   28.7559   38.5153    3.3045 H   0  0  0  0  0  0  0  0  0  0  0  0
   33.0523   40.7097   11.9150 O   0  0  0  0  0  0  0  0  0  0  0  0
   31.7139   40.9488   11.4517 C   0  0  0  0  0  0  0  0  0  0  0  0
   33.4469   41.5457   12.2088 H   0  0  0  0  0  0  0  0  0  0  0  0
   31.8093   37.4781   11.6721 O   0  0  0  0  0  0  0  0  0  0  0  0
   32.9604   36.8401   12.5972 P   0  0  0  0  0  0  0  0  0  0  0  0
   32.2765   36.0683   13.7095 O   0  0  0  0  0  0  0  0  0  0  0  0
   33.7296   38.0593   13.0484 O   0  0  0  0  0  0  0  0  0  0  0  0
   33.7035   35.9663   11.6151 O   0  0  0  0  0  0  0  0  0  0  0  0
   34.4614   37.7854   13.6232 H   0  0  0  0  0  0  0  0  0  0  0  0
   34.4361   35.5207   12.0686 H   0  0  0  0  0  0  0  0  0  0  0  0
 22 23  2  0  0  0
 22 24  1  0  0  0
 22 25  1  0  0  0
 22 21  1  0  0  0
 18 19  1  0  0  0
 19  1  1  0  0  0
  1  2  1  0  0  0
  1  3  1  0  0  0
  2  6  1  0  0  0
  3 21  1  0  0  0
  3  4  1  0  0  0
  4  5  1  0  0  0
  4  6  1  0  0  0
  6  8  1  0  0  0
  8  9  1  0  0  0
  8 13  1  0  0  0
  9 10  1  0  0  0
  9 14  2  0  0  0
 10 11  2  0  0  0
 11 12  1  0  0  0
 11 15  1  0  0  0
 12 13  2  0  0  0
 24 26  1  0  0  0
 25 27  1  0  0  0
 18 20  1  0  0  0
  5  7  1  0  0  0
 15 16  1  0  0  0
 15 17  1  0  0  0
M  END
> <minimizedAffinity>
-6.82620

$$$$
3DJV_C3P_A_125


 27 28  0  0  0  0  0  0  0  0999 V2000
   31.7551   39.3153    9.0990 C   0  0  0  0  0  0  0  0  0  0  0  0
   31.6989   39.6087    7.6979 O   0  0  0  0  0  0  0  0  0  0  0  0
   30.4284   39.8072    9.6864 C   0  0  0  0  0  0  0  0  0  0  0  0
   29.7335   40.5615    8.5681 C   0  0  0  0  0  0  0  0  0  0  0  0
   28.3292   40.4038    8.7170 O   0  0  0  0  0  0  0  0  0  0  0  0
   30.3023   39.7467    7.4251 C   0  0  0  0  0  0  0  0  0  0  0  0
   28.1164   39.4608    8.7971 H   0  0  0  0  0  0  0  0  0  0  0  0
   29.9978   39.9717    6.0088 N   0  0  0  0  0  0  0  0  0  0  0  0
   29.6262   39.0268    5.0057 C   0  0  0  0  0  0  0  0  0  0  0  0
   29.4322   39.4908    3.7496 N   0  0  0  0  0  0  0  0  0  0  0  0
   29.5909   40.8017    3.4286 C   0  0  0  0  0  0  0  0  0  0  0  0
   29.9649   41.7181    4.3939 C   0  0  0  0  0  0  0  0  0  0  0  0
   30.1611   41.2603    5.6787 C   0  0  0  0  0  0  0  0  0  0  0  0
   29.4651   37.8012    5.2239 O   0  0  0  0  0  0  0  0  0  0  0  0
   29.3913   41.2456    2.1678 N   0  0  0  0  0  0  0  0  0  0  0  0
   29.1245   40.6150    1.4604 H   0  0  0  0  0  0  0  0  0  0  0  0
   29.5128   42.1995    1.9567 H   0  0  0  0  0  0  0  0  0  0  0  0
   33.1582   37.3473    8.6383 O   0  0  0  0  0  0  0  0  0  0  0  0
   31.9975   37.8230    9.3378 C   0  0  0  0  0  0  0  0  0  0  0  0
   33.2768   36.4009    8.8149 H   0  0  0  0  0  0  0  0  0  0  0  0
   30.6555   40.7055   10.7497 O   0  0  0  0  0  0  0  0  0  0  0  0
   29.8680   40.6684   12.1519 P   0  0  0  0  0  0  0  0  0  0  0  0
   30.6364   39.7498   13.0828 O   0  0  0  0  0  0  0  0  0  0  0  0
   28.5026   40.1657   11.7462 O   0  0  0  0  0  0  0  0  0  0  0  0
   29.8966   42.1203   12.5660 O   0  0  0  0  0  0  0  0  0  0  0  0
   27.9347   40.1039   12.5302 H   0  0  0  0  0  0  0  0  0  0  0  0
   29.4413   42.2230   13.4164 H   0  0  0  0  0  0  0  0  0  0  0  0
 22 23  2  0  0  0
 22 24  1  0  0  0
 22 25  1  0  0  0
 22 21  1  0  0  0
 18 19  1  0  0  0
 19  1  1  0  0  0
  1  2  1  0  0  0
  1  3  1  0  0  0
  2  6  1  0  0  0
  3 21  1  0  0  0
  3  4  1  0  0  0
  4  5  1  0  0  0
  4  6  1  0  0  0
  6  8  1  0  0  0
  8  9  1  0  0  0
  8 13  1  0  0  0
  9 10  1  0  0  0
  9 14  2  0  0  0
 10 11  2  0  0  0
 11 12  1  0  0  0
 11 15  1  0  0  0
 12 13  2  0  0  0
 24 26  1  0  0  0
 25 27  1  0  0  0
 18 20  1  0  0  0
  5  7  1  0  0  0
 15 16  1  0  0  0
 15 17  1  0  0  0
M  END
> <minimizedAffinity>
-6.23931

$$$$
3DJV_C3P_A_125


 27 28  0  0  0  0  0  0  0  0999 V2000
   29.4496   39.3328    6.6108 C   0  0  0  0  0  0  0  0  0  0  0  0
   29.7077   38.8184    7.9228 O   0  0  0  0  0  0  0  0  0  0  0  0
   30.4682   40.4557    6.3903 C   0  0  0  0  0  0  0  0  0  0  0  0
   31.1608   40.6560    7.7255 C   0  0  0  0  0  0  0  0  0  0  0  0
   32.5018   41.0606    7.4862 O   0  0  0  0  0  0  0  0  0  0  0  0
   31.0514   39.2215    8.1986 C   0  0  0  0  0  0  0  0  0  0  0  0
   32.9225   40.4386    6.8722 H   0  0  0  0  0  0  0  0  0  0  0  0
   31.5649   38.7246    9.4787 N   0  0  0  0  0  0  0  0  0  0  0  0
   32.5110   37.6853    9.7279 C   0  0  0  0  0  0  0  0  0  0  0  0
   32.7927   37.3913   11.0182 N   0  0  0  0  0  0  0  0  0  0  0  0
   32.2005   38.0397   12.0553 C   0  0  0  0  0  0  0  0  0  0  0  0
   31.2727   39.0371   11.8187 C   0  0  0  0  0  0  0  0  0  0  0  0
   30.9797   39.3504   10.5093 C   0  0  0  0  0  0  0  0  0  0  0  0
   33.0952   37.0392    8.8241 O   0  0  0  0  0  0  0  0  0  0  0  0
   32.4964   37.7318   13.3375 N   0  0  0  0  0  0  0  0  0  0  0  0
   33.1534   37.0258   13.5352 H   0  0  0  0  0  0  0  0  0  0  0  0
   32.0549   38.2135   14.0739 H   0  0  0  0  0  0  0  0  0  0  0  0
   28.7071   38.4893    4.4219 O   0  0  0  0  0  0  0  0  0  0  0  0
   29.5443   38.2251    5.5587 C   0  0  0  0  0  0  0  0  0  0  0  0
   28.7952   37.7669    3.7807 H   0  0  0  0  0  0  0  0  0  0  0  0
   29.8183   41.6589    6.0457 O   0  0  0  0  0  0  0  0  0  0  0  0
   29.6406   42.1941    4.5390 P   0  0  0  0  0  0  0  0  0  0  0  0
   28.4643   41.4564    3.9284 O   0  0  0  0  0  0  0  0  0  0  0  0
   30.9813   41.8771    3.9198 O   0  0  0  0  0  0  0  0  0  0  0  0
   29.3909   43.6673    4.7571 O   0  0  0  0  0  0  0  0  0  0  0  0
   30.9852   42.1633    2.9930 H   0  0  0  0  0  0  0  0  0  0  0  0
   29.2662   44.1044    3.9002 H   0  0  0  0  0  0  0  0  0  0  0  0
 22 23  2  0  0  0
 22 24  1  0  0  0
 22 25  1  0  0  0
 22 21  1  0  0  0
 18 19  1  0  0  0
 19  1  1  0  0  0
  1  2  1  0  0  0
  1  3  1  0  0  0
  2  6  1  0  0  0
  3 21  1  0  0  0
  3  4  1  0  0  0
  4  5  1  0  0  0
  4  6  1  0  0  0
  6  8  1  0  0  0
  8  9  1  0  0  0
  8 13  1  0  0  0
  9 10  1  0  0  0
  9 14  2  0  0  0
 10 11  2  0  0  0
 11 12  1  0  0  0
 11 15  1  0  0  0
 12 13  2  0  0  0
 24 26  1  0  0  0
 25 27  1  0  0  0
 18 20  1  0  0  0
  5  7  1  0  0  0
 15 16  1  0  0  0
 15 17  1  0  0  0
M  END
> <minimizedAffinity>
-6.22143

$$$$
3DJV_C3P_A_125


 27 28  0  0  0  0  0  0  0  0999 V2000
   29.2292   39.0611    5.9948 C   0  0  0  0  0  0  0  0  0  0  0  0
   29.3142   40.0167    7.0589 O   0  0  0  0  0  0  0  0  0  0  0  0
   29.7159   39.7869    4.7365 C   0  0  0  0  0  0  0  0  0  0  0  0
   29.8805   41.2420    5.1340 C   0  0  0  0  0  0  0  0  0  0  0  0
   30.9478   41.8015    4.3809 O   0  0  0  0  0  0  0  0  0  0  0  0
   30.2467   40.9897    6.5817 C   0  0  0  0  0  0  0  0  0  0  0  0
   31.7340   41.2400    4.4680 H   0  0  0  0  0  0  0  0  0  0  0  0
   30.5558   42.0385    7.5582 N   0  0  0  0  0  0  0  0  0  0  0  0
   31.1219   43.3310    7.3438 C   0  0  0  0  0  0  0  0  0  0  0  0
   31.3432   44.1058    8.4308 N   0  0  0  0  0  0  0  0  0  0  0  0
   31.0561   43.6858    9.6909 C   0  0  0  0  0  0  0  0  0  0  0  0
   30.5211   42.4290    9.9045 C   0  0  0  0  0  0  0  0  0  0  0  0
   30.2859   41.6309    8.8061 C   0  0  0  0  0  0  0  0  0  0  0  0
   31.4176   43.7868    6.2122 O   0  0  0  0  0  0  0  0  0  0  0  0
   31.2837   44.4754   10.7638 N   0  0  0  0  0  0  0  0  0  0  0  0
   31.6640   45.3752   10.6410 H   0  0  0  0  0  0  0  0  0  0  0  0
   31.0692   44.1509   11.6682 H   0  0  0  0  0  0  0  0  0  0  0  0
   29.6700   37.2262    7.5738 O   0  0  0  0  0  0  0  0  0  0  0  0
   30.0474   37.8080    6.3160 C   0  0  0  0  0  0  0  0  0  0  0  0
   30.2095   36.4375    7.7400 H   0  0  0  0  0  0  0  0  0  0  0  0
   28.7480   39.7160    3.7132 O   0  0  0  0  0  0  0  0  0  0  0  0
   28.9414   40.3282    2.2382 P   0  0  0  0  0  0  0  0  0  0  0  0
   28.6740   41.8189    2.3241 O   0  0  0  0  0  0  0  0  0  0  0  0
   27.9354   39.5471    1.4261 O   0  0  0  0  0  0  0  0  0  0  0  0
   30.3810   39.9822    1.9414 O   0  0  0  0  0  0  0  0  0  0  0  0
   27.9674   39.8411    0.5023 H   0  0  0  0  0  0  0  0  0  0  0  0
   30.6166   40.3084    1.0587 H   0  0  0  0  0  0  0  0  0  0  0  0
 22 23  2  0  0  0
 22 24  1  0  0  0
 22 25  1  0  0  0
 22 21  1  0  0  0
 18 19  1  0  0  0
 19  1  1  0  0  0
  1  2  1  0  0  0
  1  3  1  0  0  0
  2  6  1  0  0  0
  3 21  1  0  0  0
  3  4  1  0  0  0
  4  5  1  0  0  0
  4  6  1  0  0  0
  6  8  1  0  0  0
  8  9  1  0  0  0
  8 13  1  0  0  0
  9 10  1  0  0  0
  9 14  2  0  0  0
 10 11  2  0  0  0
 11 12  1  0  0  0
 11 15  1  0  0  0
 12 13  2  0  0  0
 24 26  1  0  0  0
 25 27  1  0  0  0
 18 20  1  0  0  0
  5  7  1  0  0  0
 15 16  1  0  0  0
 15 17  1  0  0  0
M  END
> <minimizedAffinity>
-6.12463

$$$$
3DJV_C3P_A_125


 27 28  0  0  0  0  0  0  0  0999 V2000
   30.6824   39.1522    6.2962 C   0  0  0  0  0  0  0  0  0  0  0  0
   30.5295   39.9061    5.0876 O   0  0  0  0  0  0  0  0  0  0  0  0
   30.3159   40.1063    7.4375 C   0  0  0  0  0  0  0  0  0  0  0  0
   30.1486   41.4726    6.7989 C   0  0  0  0  0  0  0  0  0  0  0  0
   29.1585   42.1934    7.5195 O   0  0  0  0  0  0  0  0  0  0  0  0
   29.6594   40.9801    5.4529 C   0  0  0  0  0  0  0  0  0  0  0  0
   28.3566   41.6530    7.5959 H   0  0  0  0  0  0  0  0  0  0  0  0
   29.2922   41.8490    4.3307 N   0  0  0  0  0  0  0  0  0  0  0  0
   28.3793   42.9458    4.3012 C   0  0  0  0  0  0  0  0  0  0  0  0
   28.1883   43.5698    3.1159 N   0  0  0  0  0  0  0  0  0  0  0  0
   28.8220   43.1772    1.9797 C   0  0  0  0  0  0  0  0  0  0  0  0
   29.6960   42.1061    2.0006 C   0  0  0  0  0  0  0  0  0  0  0  0
   29.9039   41.4643    3.2020 C   0  0  0  0  0  0  0  0  0  0  0  0
   27.7542   43.3634    5.3065 O   0  0  0  0  0  0  0  0  0  0  0  0
   28.6184   43.8144    0.8055 N   0  0  0  0  0  0  0  0  0  0  0  0
   28.0013   44.5803    0.7616 H   0  0  0  0  0  0  0  0  0  0  0  0
   29.0871   43.5128   -0.0061 H   0  0  0  0  0  0  0  0  0  0  0  0
   29.5844   37.3688    7.5876 O   0  0  0  0  0  0  0  0  0  0  0  0
   29.8154   37.8912    6.2698 C   0  0  0  0  0  0  0  0  0  0  0  0
   29.0331   36.5729    7.5279 H   0  0  0  0  0  0  0  0  0  0  0  0
   31.3632   40.1845    8.3788 O   0  0  0  0  0  0  0  0  0  0  0  0
   31.2868   39.5901    9.8717 P   0  0  0  0  0  0  0  0  0  0  0  0
   32.3547   40.2849   10.6948 O   0  0  0  0  0  0  0  0  0  0  0  0
   31.5163   38.1141    9.6474 O   0  0  0  0  0  0  0  0  0  0  0  0
   29.8761   39.9437   10.2781 O   0  0  0  0  0  0  0  0  0  0  0  0
   31.4902   37.6498   10.4986 H   0  0  0  0  0  0  0  0  0  0  0  0
   29.7110   39.6285   11.1805 H   0  0  0  0  0  0  0  0  0  0  0  0
 22 23  2  0  0  0
 22 24  1  0  0  0
 22 25  1  0  0  0
 22 21  1  0  0  0
 18 19  1  0  0  0
 19  1  1  0  0  0
  1  2  1  0  0  0
  1  3  1  0  0  0
  2  6  1  0  0  0
  3 21  1  0  0  0
  3  4  1  0  0  0
  4  5  1  0  0  0
  4  6  1  0  0  0
  6  8  1  0  0  0
  8  9  1  0  0  0
  8 13  1  0  0  0
  9 10  1  0  0  0
  9 14  2  0  0  0
 10 11  2  0  0  0
 11 12  1  0  0  0
 11 15  1  0  0  0
 12 13  2  0  0  0
 24 26  1  0  0  0
 25 27  1  0  0  0
 18 20  1  0  0  0
  5  7  1  0  0  0
 15 16  1  0  0  0
 15 17  1  0  0  0
M  END
> <minimizedAffinity>
-6.11255

$$$$
3DJV_C3P_A_125


 27 28  0  0  0  0  0  0  0  0999 V2000
   30.7082   41.5512    5.9183 C   0  0  0  0  0  0  0  0  0  0  0  0
   31.3989   41.0597    7.0732 O   0  0  0  0  0  0  0  0  0  0  0  0
   29.8548   40.3850    5.4094 C   0  0  0  0  0  0  0  0  0  0  0  0
   30.2700   39.1778    6.2297 C   0  0  0  0  0  0  0  0  0  0  0  0
   29.1434   38.3266    6.3889 O   0  0  0  0  0  0  0  0  0  0  0  0
   30.6225   39.9350    7.4930 C   0  0  0  0  0  0  0  0  0  0  0  0
   28.3948   38.8413    6.7291 H   0  0  0  0  0  0  0  0  0  0  0  0
   31.1058   39.3137    8.7297 N   0  0  0  0  0  0  0  0  0  0  0  0
   31.7713   38.0640    8.9101 C   0  0  0  0  0  0  0  0  0  0  0  0
   32.0849   37.6984   10.1745 N   0  0  0  0  0  0  0  0  0  0  0  0
   31.7771   38.4703   11.2497 C   0  0  0  0  0  0  0  0  0  0  0  0
   31.1196   39.6748   11.0809 C   0  0  0  0  0  0  0  0  0  0  0  0
   30.7984   40.0621    9.7982 C   0  0  0  0  0  0  0  0  0  0  0  0
   32.0843   37.2953    7.9684 O   0  0  0  0  0  0  0  0  0  0  0  0
   32.0999   38.0877   12.5050 N   0  0  0  0  0  0  0  0  0  0  0  0
   32.5684   37.2348   12.6545 H   0  0  0  0  0  0  0  0  0  0  0  0
   31.8666   38.6619   13.2700 H   0  0  0  0  0  0  0  0  0  0  0  0
   28.5096   42.6540    5.8557 O   0  0  0  0  0  0  0  0  0  0  0  0
   29.8806   42.7923    6.2607 C   0  0  0  0  0  0  0  0  0  0  0  0
   28.0206   43.4584    6.0895 H   0  0  0  0  0  0  0  0  0  0  0  0
   30.1355   40.1149    4.0539 O   0  0  0  0  0  0  0  0  0  0  0  0
   29.1019   40.3648    2.8468 P   0  0  0  0  0  0  0  0  0  0  0  0
   27.8602   39.5413    3.1312 O   0  0  0  0  0  0  0  0  0  0  0  0
   29.8961   39.9225    1.6404 O   0  0  0  0  0  0  0  0  0  0  0  0
   28.8779   41.8558    2.9293 O   0  0  0  0  0  0  0  0  0  0  0  0
   29.3579   40.0326    0.8409 H   0  0  0  0  0  0  0  0  0  0  0  0
   28.2581   42.1286    2.2349 H   0  0  0  0  0  0  0  0  0  0  0  0
 22 23  2  0  0  0
 22 24  1  0  0  0
 22 25  1  0  0  0
 22 21  1  0  0  0
 18 19  1  0  0  0
 19  1  1  0  0  0
  1  2  1  0  0  0
  1  3  1  0  0  0
  2  6  1  0  0  0
  3 21  1  0  0  0
  3  4  1  0  0  0
  4  5  1  0  0  0
  4  6  1  0  0  0
  6  8  1  0  0  0
  8  9  1  0  0  0
  8 13  1  0  0  0
  9 10  1  0  0  0
  9 14  2  0  0  0
 10 11  2  0  0  0
 11 12  1  0  0  0
 11 15  1  0  0  0
 12 13  2  0  0  0
 24 26  1  0  0  0
 25 27  1  0  0  0
 18 20  1  0  0  0
  5  7  1  0  0  0
 15 16  1  0  0  0
 15 17  1  0  0  0
M  END
> <minimizedAffinity>
-6.03266

$$$$
3DJV_C3P_A_125


 27 28  0  0  0  0  0  0  0  0999 V2000
   29.5393   39.2512    6.8996 C   0  0  0  0  0  0  0  0  0  0  0  0
   29.8256   39.3763    8.2977 O   0  0  0  0  0  0  0  0  0  0  0  0
   30.3288   40.3660    6.2061 C   0  0  0  0  0  0  0  0  0  0  0  0
   30.8999   41.2245    7.3193 C   0  0  0  0  0  0  0  0  0  0  0  0
   32.1464   41.7552    6.8907 O   0  0  0  0  0  0  0  0  0  0  0  0
   31.0488   40.1153    8.3397 C   0  0  0  0  0  0  0  0  0  0  0  0
   32.7113   41.0349    6.5698 H   0  0  0  0  0  0  0  0  0  0  0  0
   31.5835   40.2938    9.6929 N   0  0  0  0  0  0  0  0  0  0  0  0
   32.3460   41.3766   10.2251 C   0  0  0  0  0  0  0  0  0  0  0  0
   32.7544   41.2821   11.5115 N   0  0  0  0  0  0  0  0  0  0  0  0
   32.4713   40.2007   12.2843 C   0  0  0  0  0  0  0  0  0  0  0  0
   31.7454   39.1431   11.7686 C   0  0  0  0  0  0  0  0  0  0  0  0
   31.3187   39.2280   10.4611 C   0  0  0  0  0  0  0  0  0  0  0  0
   32.6507   42.4051    9.5731 O   0  0  0  0  0  0  0  0  0  0  0  0
   32.8876   40.1259   13.5679 N   0  0  0  0  0  0  0  0  0  0  0  0
   33.4063   40.8645   13.9610 H   0  0  0  0  0  0  0  0  0  0  0  0
   32.6722   39.3326   14.1097 H   0  0  0  0  0  0  0  0  0  0  0  0
   29.5213   37.6687    5.0156 O   0  0  0  0  0  0  0  0  0  0  0  0
   29.9019   37.8550    6.3879 C   0  0  0  0  0  0  0  0  0  0  0  0
   29.7674   36.7748    4.7303 H   0  0  0  0  0  0  0  0  0  0  0  0
   29.4748   41.1700    5.4230 O   0  0  0  0  0  0  0  0  0  0  0  0
   29.5212   41.2453    3.8167 P   0  0  0  0  0  0  0  0  0  0  0  0
   29.2783   39.8448    3.2871 O   0  0  0  0  0  0  0  0  0  0  0  0
   30.9043   41.7934    3.5555 O   0  0  0  0  0  0  0  0  0  0  0  0
   28.4029   42.2144    3.5159 O   0  0  0  0  0  0  0  0  0  0  0  0
   31.0420   41.8811    2.5993 H   0  0  0  0  0  0  0  0  0  0  0  0
   28.3341   42.3411    2.5566 H   0  0  0  0  0  0  0  0  0  0  0  0
 22 23  2  0  0  0
 22 24  1  0  0  0
 22 25  1  0  0  0
 22 21  1  0  0  0
 18 19  1  0  0  0
 19  1  1  0  0  0
  1  2  1  0  0  0
  1  3  1  0  0  0
  2  6  1  0  0  0
  3 21  1  0  0  0
  3  4  1  0  0  0
  4  5  1  0  0  0
  4  6  1  0  0  0
  6  8  1  0  0  0
  8  9  1  0  0  0
  8 13  1  0  0  0
  9 10  1  0  0  0
  9 14  2  0  0  0
 10 11  2  0  0  0
 11 12  1  0  0  0
 11 15  1  0  0  0
 12 13  2  0  0  0
 24 26  1  0  0  0
 25 27  1  0  0  0
 18 20  1  0  0  0
  5  7  1  0  0  0
 15 16  1  0  0  0
 15 17  1  0  0  0
M  END
> <minimizedAffinity>
-5.80097

$$$$
3DJV_C3P_A_125


 27 28  0  0  0  0  0  0  0  0999 V2000
   29.5857   41.5628    9.1234 C   0  0  0  0  0  0  0  0  0  0  0  0
   29.0849   40.9723    7.9180 O   0  0  0  0  0  0  0  0  0  0  0  0
   31.1129   41.5250    9.0085 C   0  0  0  0  0  0  0  0  0  0  0  0
   31.4158   40.7042    7.7687 C   0  0  0  0  0  0  0  0  0  0  0  0
   32.6099   41.1974    7.1771 O   0  0  0  0  0  0  0  0  0  0  0  0
   30.1710   41.0860    6.9952 C   0  0  0  0  0  0  0  0  0  0  0  0
   32.5361   42.1563    7.0509 H   0  0  0  0  0  0  0  0  0  0  0  0
   29.8501   40.6116    5.6458 N   0  0  0  0  0  0  0  0  0  0  0  0
   29.5569   39.2871    5.2020 C   0  0  0  0  0  0  0  0  0  0  0  0
   29.3266   39.1059    3.8810 N   0  0  0  0  0  0  0  0  0  0  0  0
   29.3787   40.1298    2.9891 C   0  0  0  0  0  0  0  0  0  0  0  0
   29.6766   41.4119    3.4123 C   0  0  0  0  0  0  0  0  0  0  0  0
   29.9086   41.6119    4.7557 C   0  0  0  0  0  0  0  0  0  0  0  0
   29.4955   38.2912    5.9636 O   0  0  0  0  0  0  0  0  0  0  0  0
   29.1445   39.9283    1.6734 N   0  0  0  0  0  0  0  0  0  0  0  0
   28.9300   39.0256    1.3442 H   0  0  0  0  0  0  0  0  0  0  0  0
   29.1883   40.6842    1.0442 H   0  0  0  0  0  0  0  0  0  0  0  0
   30.0797   43.9647    9.3257 O   0  0  0  0  0  0  0  0  0  0  0  0
   29.0354   42.9787    9.3106 C   0  0  0  0  0  0  0  0  0  0  0  0
   29.6913   44.8453    9.4459 H   0  0  0  0  0  0  0  0  0  0  0  0
   31.6814   40.8703   10.1208 O   0  0  0  0  0  0  0  0  0  0  0  0
   32.0842   41.6022   11.4955 P   0  0  0  0  0  0  0  0  0  0  0  0
   30.9278   41.4275   12.4614 O   0  0  0  0  0  0  0  0  0  0  0  0
   32.3304   43.0239   11.0483 O   0  0  0  0  0  0  0  0  0  0  0  0
   33.3326   40.8528   11.8956 O   0  0  0  0  0  0  0  0  0  0  0  0
   32.5846   43.5639   11.8129 H   0  0  0  0  0  0  0  0  0  0  0  0
   33.6735   41.2141   12.7288 H   0  0  0  0  0  0  0  0  0  0  0  0
 22 23  2  0  0  0
 22 24  1  0  0  0
 22 25  1  0  0  0
 22 21  1  0  0  0
 18 19  1  0  0  0
 19  1  1  0  0  0
  1  2  1  0  0  0
  1  3  1  0  0  0
  2  6  1  0  0  0
  3 21  1  0  0  0
  3  4  1  0  0  0
  4  5  1  0  0  0
  4  6  1  0  0  0
  6  8  1  0  0  0
  8  9  1  0  0  0
  8 13  1  0  0  0
  9 10  1  0  0  0
  9 14  2  0  0  0
 10 11  2  0  0  0
 11 12  1  0  0  0
 11 15  1  0  0  0
 12 13  2  0  0  0
 24 26  1  0  0  0
 25 27  1  0  0  0
 18 20  1  0  0  0
  5  7  1  0  0  0
 15 16  1  0  0  0
 15 17  1  0  0  0
M  END
> <minimizedAffinity>
-5.76120

$$$$
