3BGZ_VX3_A_314


 26 29  0  0  0  0  0  0  0  0999 V2000
  -19.3221   37.6436   -0.9307 C   0  0  0  0  0  0  0  0  0  0  0  0
  -17.7127   36.4739    2.1363 C   0  0  0  0  0  0  0  0  0  0  0  0
  -18.1647   36.6533    0.8049 C   0  0  0  0  0  0  0  0  0  0  0  0
  -17.9371   35.9731   -0.3669 N   0  0  0  0  0  0  0  0  0  0  0  0
  -18.6088   36.5614   -1.4094 C   0  0  0  0  0  0  0  0  0  0  0  0
  -19.0269   37.7222    0.5112 C   0  0  0  0  0  0  0  0  0  0  0  0
  -19.4320   38.5895    1.5320 C   0  0  0  0  0  0  0  0  0  0  0  0
  -18.9985   38.4147    2.8277 C   0  0  0  0  0  0  0  0  0  0  0  0
  -18.1238   37.3729    3.1330 C   0  0  0  0  0  0  0  0  0  0  0  0
  -17.3695   35.1728   -0.4479 H   0  0  0  0  0  0  0  0  0  0  0  0
  -22.1105   39.9592   -2.0895 C   0  0  0  0  0  0  0  0  0  0  0  0
  -20.1302   38.6444   -1.6839 C   0  0  0  0  0  0  0  0  0  0  0  0
  -21.4570   38.9672   -1.3652 C   0  0  0  0  0  0  0  0  0  0  0  0
  -21.4588   40.6499   -3.1118 C   0  0  0  0  0  0  0  0  0  0  0  0
  -20.1358   40.3610   -3.4205 C   0  0  0  0  0  0  0  0  0  0  0  0
  -19.4761   39.3794   -2.7041 C   0  0  0  0  0  0  0  0  0  0  0  0
  -18.5782   36.0502   -2.8040 C   0  0  0  0  0  0  0  0  0  0  0  0
  -19.7751   35.6807   -3.4552 C   0  0  0  0  0  0  0  0  0  0  0  0
  -19.7294   35.1957   -4.7542 C   0  0  0  0  0  0  0  0  0  0  0  0
  -18.5072   35.0667   -5.4068 C   0  0  0  0  0  0  0  0  0  0  0  0
  -17.3216   35.4075   -4.7590 C   0  0  0  0  0  0  0  0  0  0  0  0
  -17.3478   35.8914   -3.4680 C   0  0  0  0  0  0  0  0  0  0  0  0
  -15.8972   35.0162    1.4861 O   0  0  0  0  0  0  0  0  0  0  0  0
  -16.7573   35.3958    2.4425 C   0  0  0  0  0  0  0  0  0  0  0  0
  -16.6970   34.8904    3.5603 O   0  0  0  0  0  0  0  0  0  0  0  0
  -17.2985   35.1563    4.2278 H   0  0  0  0  0  0  0  0  0  0  0  0
 23 24  2  0  0  0
 12  1  1  0  0  0
  5  1  2  0  0  0
  1  6  1  0  0  0
 14 11  2  0  0  0
 11 13  1  0  0  0
  2 24  1  0  0  0
 24 25  1  0  0  0
  3  2  1  0  0  0
  2  9  2  0  0  0
  4  3  1  0  0  0
  6  3  2  0  0  0
  5  4  1  0  0  0
 17  5  1  0  0  0
 18 17  2  0  0  0
 22 17  1  0  0  0
 19 18  1  0  0  0
 20 19  2  0  0  0
 20 21  1  0  0  0
 21 22  2  0  0  0
 16 12  1  0  0  0
 12 13  2  0  0  0
 15 14  1  0  0  0
 15 16  2  0  0  0
  6  7  1  0  0  0
  7  8  2  0  0  0
  8  9  1  0  0  0
 25 26  1  0  0  0
  4 10  1  0  0  0
M  END
> <minimizedAffinity>
-10.94397

$$$$
3BGZ_VX3_A_314


 26 29  0  0  0  0  0  0  0  0999 V2000
  -19.1472   37.4954   -1.1540 C   0  0  0  0  0  0  0  0  0  0  0  0
  -17.7659   36.4119    2.0526 C   0  0  0  0  0  0  0  0  0  0  0  0
  -18.1196   36.5543    0.6875 C   0  0  0  0  0  0  0  0  0  0  0  0
  -17.8078   35.8429   -0.4457 N   0  0  0  0  0  0  0  0  0  0  0  0
  -18.4016   36.4016   -1.5499 C   0  0  0  0  0  0  0  0  0  0  0  0
  -18.9576   37.6137    0.3029 C   0  0  0  0  0  0  0  0  0  0  0  0
  -19.4354   38.5079    1.2675 C   0  0  0  0  0  0  0  0  0  0  0  0
  -19.0974   38.3690    2.5956 C   0  0  0  0  0  0  0  0  0  0  0  0
  -18.2479   37.3371    2.9920 C   0  0  0  0  0  0  0  0  0  0  0  0
  -17.2363   35.0414   -0.4633 H   0  0  0  0  0  0  0  0  0  0  0  0
  -20.1181   40.0388   -3.8126 C   0  0  0  0  0  0  0  0  0  0  0  0
  -19.8978   38.4743   -1.9910 C   0  0  0  0  0  0  0  0  0  0  0  0
  -19.3215   39.1914   -3.0492 C   0  0  0  0  0  0  0  0  0  0  0  0
  -21.4832   40.1684   -3.5539 C   0  0  0  0  0  0  0  0  0  0  0  0
  -22.0740   39.4433   -2.5271 C   0  0  0  0  0  0  0  0  0  0  0  0
  -21.2917   38.5954   -1.7649 C   0  0  0  0  0  0  0  0  0  0  0  0
  -18.2699   35.8528   -2.9241 C   0  0  0  0  0  0  0  0  0  0  0  0
  -16.9959   35.7012   -3.5133 C   0  0  0  0  0  0  0  0  0  0  0  0
  -16.8898   35.1964   -4.8011 C   0  0  0  0  0  0  0  0  0  0  0  0
  -18.0360   34.8503   -5.5101 C   0  0  0  0  0  0  0  0  0  0  0  0
  -19.2964   35.0209   -4.9412 C   0  0  0  0  0  0  0  0  0  0  0  0
  -19.4211   35.5211   -3.6622 C   0  0  0  0  0  0  0  0  0  0  0  0
  -17.0545   34.7158    3.6213 O   0  0  0  0  0  0  0  0  0  0  0  0
  -16.8359   35.3439    2.4568 C   0  0  0  0  0  0  0  0  0  0  0  0
  -15.9151   34.9850    1.7273 O   0  0  0  0  0  0  0  0  0  0  0  0
  -15.7633   35.4245    0.9138 H   0  0  0  0  0  0  0  0  0  0  0  0
 23 24  2  0  0  0
 12  1  1  0  0  0
  5  1  2  0  0  0
  1  6  1  0  0  0
 14 11  2  0  0  0
 11 13  1  0  0  0
  2 24  1  0  0  0
 24 25  1  0  0  0
  3  2  1  0  0  0
  2  9  2  0  0  0
  4  3  1  0  0  0
  6  3  2  0  0  0
  5  4  1  0  0  0
 17  5  1  0  0  0
 18 17  2  0  0  0
 22 17  1  0  0  0
 19 18  1  0  0  0
 20 19  2  0  0  0
 20 21  1  0  0  0
 21 22  2  0  0  0
 16 12  1  0  0  0
 12 13  2  0  0  0
 15 14  1  0  0  0
 15 16  2  0  0  0
  6  7  1  0  0  0
  7  8  2  0  0  0
  8  9  1  0  0  0
 25 26  1  0  0  0
  4 10  1  0  0  0
M  END
> <minimizedAffinity>
-10.47350

$$$$
3BGZ_VX3_A_314


 26 29  0  0  0  0  0  0  0  0999 V2000
  -18.3085   36.7829   -1.2745 C   0  0  0  0  0  0  0  0  0  0  0  0
  -16.3674   36.1824   -4.3135 C   0  0  0  0  0  0  0  0  0  0  0  0
  -17.2857   36.6506   -3.3406 C   0  0  0  0  0  0  0  0  0  0  0  0
  -18.2889   37.5888   -3.3666 N   0  0  0  0  0  0  0  0  0  0  0  0
  -18.8953   37.6870   -2.1391 C   0  0  0  0  0  0  0  0  0  0  0  0
  -17.2457   36.1119   -2.0442 C   0  0  0  0  0  0  0  0  0  0  0  0
  -16.3087   35.1206   -1.7316 C   0  0  0  0  0  0  0  0  0  0  0  0
  -15.4184   34.6601   -2.6765 C   0  0  0  0  0  0  0  0  0  0  0  0
  -15.4283   35.1999   -3.9617 C   0  0  0  0  0  0  0  0  0  0  0  0
  -18.5389   38.1186   -4.1579 H   0  0  0  0  0  0  0  0  0  0  0  0
  -19.0577   35.2294    2.1174 C   0  0  0  0  0  0  0  0  0  0  0  0
  -18.5578   36.5759    0.1805 C   0  0  0  0  0  0  0  0  0  0  0  0
  -18.9039   35.3371    0.7389 C   0  0  0  0  0  0  0  0  0  0  0  0
  -18.8523   36.3290    2.9515 C   0  0  0  0  0  0  0  0  0  0  0  0
  -18.4817   37.5557    2.4159 C   0  0  0  0  0  0  0  0  0  0  0  0
  -18.3225   37.6724    1.0473 C   0  0  0  0  0  0  0  0  0  0  0  0
  -20.0289   38.6025   -1.8497 C   0  0  0  0  0  0  0  0  0  0  0  0
  -21.0860   38.1869   -1.0111 C   0  0  0  0  0  0  0  0  0  0  0  0
  -22.1425   39.0496   -0.7581 C   0  0  0  0  0  0  0  0  0  0  0  0
  -22.1623   40.3150   -1.3368 C   0  0  0  0  0  0  0  0  0  0  0  0
  -21.1331   40.7199   -2.1841 C   0  0  0  0  0  0  0  0  0  0  0  0
  -20.0747   39.8758   -2.4468 C   0  0  0  0  0  0  0  0  0  0  0  0
  -17.4950   36.7777   -6.3673 O   0  0  0  0  0  0  0  0  0  0  0  0
  -16.3577   36.7864   -5.6566 C   0  0  0  0  0  0  0  0  0  0  0  0
  -15.3573   37.3422   -6.1029 O   0  0  0  0  0  0  0  0  0  0  0  0
  -14.5632   37.3477   -5.6055 H   0  0  0  0  0  0  0  0  0  0  0  0
 23 24  2  0  0  0
 12  1  1  0  0  0
  5  1  2  0  0  0
  1  6  1  0  0  0
 14 11  2  0  0  0
 11 13  1  0  0  0
  2 24  1  0  0  0
 24 25  1  0  0  0
  3  2  1  0  0  0
  2  9  2  0  0  0
  4  3  1  0  0  0
  6  3  2  0  0  0
  5  4  1  0  0  0
 17  5  1  0  0  0
 18 17  2  0  0  0
 22 17  1  0  0  0
 19 18  1  0  0  0
 20 19  2  0  0  0
 20 21  1  0  0  0
 21 22  2  0  0  0
 16 12  1  0  0  0
 12 13  2  0  0  0
 15 14  1  0  0  0
 15 16  2  0  0  0
  6  7  1  0  0  0
  7  8  2  0  0  0
  8  9  1  0  0  0
 25 26  1  0  0  0
  4 10  1  0  0  0
M  END
> <minimizedAffinity>
-10.09926

$$$$
3BGZ_VX3_A_314


 26 29  0  0  0  0  0  0  0  0999 V2000
  -18.5419   36.9257   -2.4956 C   0  0  0  0  0  0  0  0  0  0  0  0
  -16.9536   35.1005    0.2449 C   0  0  0  0  0  0  0  0  0  0  0  0
  -17.7487   35.9603   -0.5536 C   0  0  0  0  0  0  0  0  0  0  0  0
  -18.7154   36.8915   -0.2606 N   0  0  0  0  0  0  0  0  0  0  0  0
  -19.2052   37.4623   -1.4088 C   0  0  0  0  0  0  0  0  0  0  0  0
  -17.5996   35.9325   -1.9498 C   0  0  0  0  0  0  0  0  0  0  0  0
  -16.6689   35.0650   -2.5326 C   0  0  0  0  0  0  0  0  0  0  0  0
  -15.8912   34.2320   -1.7588 C   0  0  0  0  0  0  0  0  0  0  0  0
  -16.0423   34.2296   -0.3730 C   0  0  0  0  0  0  0  0  0  0  0  0
  -19.0159   37.1185    0.6491 H   0  0  0  0  0  0  0  0  0  0  0  0
  -18.1836   38.0104   -6.1253 C   0  0  0  0  0  0  0  0  0  0  0  0
  -18.7772   37.1582   -3.9491 C   0  0  0  0  0  0  0  0  0  0  0  0
  -17.9107   37.8988   -4.7656 C   0  0  0  0  0  0  0  0  0  0  0  0
  -19.2931   37.3799   -6.6897 C   0  0  0  0  0  0  0  0  0  0  0  0
  -20.1451   36.6197   -5.8989 C   0  0  0  0  0  0  0  0  0  0  0  0
  -19.8805   36.4993   -4.5470 C   0  0  0  0  0  0  0  0  0  0  0  0
  -20.2500   38.5183   -1.4245 C   0  0  0  0  0  0  0  0  0  0  0  0
  -21.4356   38.3608   -0.6742 C   0  0  0  0  0  0  0  0  0  0  0  0
  -22.4064   39.3513   -0.7068 C   0  0  0  0  0  0  0  0  0  0  0  0
  -22.2139   40.4898   -1.4834 C   0  0  0  0  0  0  0  0  0  0  0  0
  -21.0560   40.6380   -2.2440 C   0  0  0  0  0  0  0  0  0  0  0  0
  -20.0802   39.6638   -2.2238 C   0  0  0  0  0  0  0  0  0  0  0  0
  -16.0796   35.2634    2.4929 O   0  0  0  0  0  0  0  0  0  0  0  0
  -17.1480   35.0750    1.7045 C   0  0  0  0  0  0  0  0  0  0  0  0
  -18.2642   34.9468    2.2009 O   0  0  0  0  0  0  0  0  0  0  0  0
  -19.0100   34.8152    1.6491 H   0  0  0  0  0  0  0  0  0  0  0  0
 23 24  2  0  0  0
 12  1  1  0  0  0
  5  1  2  0  0  0
  1  6  1  0  0  0
 14 11  2  0  0  0
 11 13  1  0  0  0
  2 24  1  0  0  0
 24 25  1  0  0  0
  3  2  1  0  0  0
  2  9  2  0  0  0
  4  3  1  0  0  0
  6  3  2  0  0  0
  5  4  1  0  0  0
 17  5  1  0  0  0
 18 17  2  0  0  0
 22 17  1  0  0  0
 19 18  1  0  0  0
 20 19  2  0  0  0
 20 21  1  0  0  0
 21 22  2  0  0  0
 16 12  1  0  0  0
 12 13  2  0  0  0
 15 14  1  0  0  0
 15 16  2  0  0  0
  6  7  1  0  0  0
  7  8  2  0  0  0
  8  9  1  0  0  0
 25 26  1  0  0  0
  4 10  1  0  0  0
M  END
> <minimizedAffinity>
-9.64341

$$$$
3BGZ_VX3_A_314


 26 29  0  0  0  0  0  0  0  0999 V2000
  -19.4017   37.6440   -1.1577 C   0  0  0  0  0  0  0  0  0  0  0  0
  -21.5774   39.3019   -3.5831 C   0  0  0  0  0  0  0  0  0  0  0  0
  -20.5747   38.5383   -2.9344 C   0  0  0  0  0  0  0  0  0  0  0  0
  -19.5416   37.7570   -3.3925 N   0  0  0  0  0  0  0  0  0  0  0  0
  -18.8453   37.2078   -2.3448 C   0  0  0  0  0  0  0  0  0  0  0  0
  -20.5413   38.5009   -1.5309 C   0  0  0  0  0  0  0  0  0  0  0  0
  -21.4898   39.2184   -0.7934 C   0  0  0  0  0  0  0  0  0  0  0  0
  -22.4622   39.9654   -1.4210 C   0  0  0  0  0  0  0  0  0  0  0  0
  -22.5246   39.9953   -2.8133 C   0  0  0  0  0  0  0  0  0  0  0  0
  -19.3296   37.6110   -4.3427 H   0  0  0  0  0  0  0  0  0  0  0  0
  -18.2087   37.6926    2.4553 C   0  0  0  0  0  0  0  0  0  0  0  0
  -19.0563   37.2581    0.2401 C   0  0  0  0  0  0  0  0  0  0  0  0
  -18.4370   38.1241    1.1526 C   0  0  0  0  0  0  0  0  0  0  0  0
  -18.6055   36.4211    2.8711 C   0  0  0  0  0  0  0  0  0  0  0  0
  -19.2453   35.5622    1.9868 C   0  0  0  0  0  0  0  0  0  0  0  0
  -19.4803   35.9830    0.6907 C   0  0  0  0  0  0  0  0  0  0  0  0
  -17.6605   36.3275   -2.5128 C   0  0  0  0  0  0  0  0  0  0  0  0
  -17.3632   35.3391   -1.5494 C   0  0  0  0  0  0  0  0  0  0  0  0
  -16.2476   34.5312   -1.7151 C   0  0  0  0  0  0  0  0  0  0  0  0
  -15.4221   34.7023   -2.8222 C   0  0  0  0  0  0  0  0  0  0  0  0
  -15.6986   35.6925   -3.7626 C   0  0  0  0  0  0  0  0  0  0  0  0
  -16.8031   36.5047   -3.6143 C   0  0  0  0  0  0  0  0  0  0  0  0
  -21.7764   40.4703   -5.6899 O   0  0  0  0  0  0  0  0  0  0  0  0
  -21.6611   39.2956   -5.0534 C   0  0  0  0  0  0  0  0  0  0  0  0
  -21.5671   38.2535   -5.6968 O   0  0  0  0  0  0  0  0  0  0  0  0
  -21.4865   37.4333   -5.2511 H   0  0  0  0  0  0  0  0  0  0  0  0
 23 24  2  0  0  0
 12  1  1  0  0  0
  5  1  2  0  0  0
  1  6  1  0  0  0
 14 11  2  0  0  0
 11 13  1  0  0  0
  2 24  1  0  0  0
 24 25  1  0  0  0
  3  2  1  0  0  0
  2  9  2  0  0  0
  4  3  1  0  0  0
  6  3  2  0  0  0
  5  4  1  0  0  0
 17  5  1  0  0  0
 18 17  2  0  0  0
 22 17  1  0  0  0
 19 18  1  0  0  0
 20 19  2  0  0  0
 20 21  1  0  0  0
 21 22  2  0  0  0
 16 12  1  0  0  0
 12 13  2  0  0  0
 15 14  1  0  0  0
 15 16  2  0  0  0
  6  7  1  0  0  0
  7  8  2  0  0  0
  8  9  1  0  0  0
 25 26  1  0  0  0
  4 10  1  0  0  0
M  END
> <minimizedAffinity>
-9.60697

$$$$
3BGZ_VX3_A_314


 26 29  0  0  0  0  0  0  0  0999 V2000
  -18.6431   36.8025   -1.9081 C   0  0  0  0  0  0  0  0  0  0  0  0
  -18.1336   36.8619    1.7115 C   0  0  0  0  0  0  0  0  0  0  0  0
  -18.5084   37.1379    0.3726 C   0  0  0  0  0  0  0  0  0  0  0  0
  -19.2269   38.1509   -0.2147 N   0  0  0  0  0  0  0  0  0  0  0  0
  -19.3262   37.9548   -1.5696 C   0  0  0  0  0  0  0  0  0  0  0  0
  -18.1184   36.2525   -0.6454 C   0  0  0  0  0  0  0  0  0  0  0  0
  -17.3636   35.1175   -0.3284 C   0  0  0  0  0  0  0  0  0  0  0  0
  -16.9936   34.8494    0.9710 C   0  0  0  0  0  0  0  0  0  0  0  0
  -17.3917   35.7049    1.9973 C   0  0  0  0  0  0  0  0  0  0  0  0
  -19.6173   38.9137    0.2701 H   0  0  0  0  0  0  0  0  0  0  0  0
  -19.4261   34.9221   -5.1222 C   0  0  0  0  0  0  0  0  0  0  0  0
  -18.5363   36.1278   -3.2331 C   0  0  0  0  0  0  0  0  0  0  0  0
  -19.6067   35.4708   -3.8566 C   0  0  0  0  0  0  0  0  0  0  0  0
  -18.2042   35.0345   -5.7866 C   0  0  0  0  0  0  0  0  0  0  0  0
  -17.1432   35.7068   -5.1938 C   0  0  0  0  0  0  0  0  0  0  0  0
  -17.3136   36.2591   -3.9376 C   0  0  0  0  0  0  0  0  0  0  0  0
  -20.0284   38.8870   -2.4890 C   0  0  0  0  0  0  0  0  0  0  0  0
  -19.3111   39.5784   -3.4893 C   0  0  0  0  0  0  0  0  0  0  0  0
  -19.9791   40.4530   -4.3339 C   0  0  0  0  0  0  0  0  0  0  0  0
  -21.3484   40.6529   -4.1878 C   0  0  0  0  0  0  0  0  0  0  0  0
  -22.0556   39.9908   -3.1864 C   0  0  0  0  0  0  0  0  0  0  0  0
  -21.4082   39.1176   -2.3378 C   0  0  0  0  0  0  0  0  0  0  0  0
  -17.8400   37.8457    3.9000 O   0  0  0  0  0  0  0  0  0  0  0  0
  -18.5924   37.7486    2.7942 C   0  0  0  0  0  0  0  0  0  0  0  0
  -19.6044   38.4346    2.6761 O   0  0  0  0  0  0  0  0  0  0  0  0
  -20.1294   38.3660    1.9030 H   0  0  0  0  0  0  0  0  0  0  0  0
 23 24  2  0  0  0
 12  1  1  0  0  0
  5  1  2  0  0  0
  1  6  1  0  0  0
 14 11  2  0  0  0
 11 13  1  0  0  0
  2 24  1  0  0  0
 24 25  1  0  0  0
  3  2  1  0  0  0
  2  9  2  0  0  0
  4  3  1  0  0  0
  6  3  2  0  0  0
  5  4  1  0  0  0
 17  5  1  0  0  0
 18 17  2  0  0  0
 22 17  1  0  0  0
 19 18  1  0  0  0
 20 19  2  0  0  0
 20 21  1  0  0  0
 21 22  2  0  0  0
 16 12  1  0  0  0
 12 13  2  0  0  0
 15 14  1  0  0  0
 15 16  2  0  0  0
  6  7  1  0  0  0
  7  8  2  0  0  0
  8  9  1  0  0  0
 25 26  1  0  0  0
  4 10  1  0  0  0
M  END
> <minimizedAffinity>
-9.55775

$$$$
3BGZ_VX3_A_314


 26 29  0  0  0  0  0  0  0  0999 V2000
  -19.0455   37.4872   -0.6001 C   0  0  0  0  0  0  0  0  0  0  0  0
  -21.2239   39.9041   -2.2667 C   0  0  0  0  0  0  0  0  0  0  0  0
  -20.2552   38.9197   -1.9481 C   0  0  0  0  0  0  0  0  0  0  0  0
  -19.3411   38.2201   -2.6982 N   0  0  0  0  0  0  0  0  0  0  0  0
  -18.6254   37.3541   -1.9096 C   0  0  0  0  0  0  0  0  0  0  0  0
  -20.1204   38.4956   -0.6161 C   0  0  0  0  0  0  0  0  0  0  0  0
  -20.9357   39.0510    0.3764 C   0  0  0  0  0  0  0  0  0  0  0  0
  -21.8745   40.0115    0.0706 C   0  0  0  0  0  0  0  0  0  0  0  0
  -22.0380   40.4275   -1.2498 C   0  0  0  0  0  0  0  0  0  0  0  0
  -19.2165   38.3255   -3.6691 H   0  0  0  0  0  0  0  0  0  0  0  0
  -17.2978   36.3126    2.5694 C   0  0  0  0  0  0  0  0  0  0  0  0
  -18.6357   36.7075    0.6025 C   0  0  0  0  0  0  0  0  0  0  0  0
  -17.5669   37.0707    1.4343 C   0  0  0  0  0  0  0  0  0  0  0  0
  -18.0876   35.2114    2.9019 C   0  0  0  0  0  0  0  0  0  0  0  0
  -19.1669   34.8560    2.1033 C   0  0  0  0  0  0  0  0  0  0  0  0
  -19.4451   35.6053    0.9749 C   0  0  0  0  0  0  0  0  0  0  0  0
  -17.5487   36.4686   -2.4230 C   0  0  0  0  0  0  0  0  0  0  0  0
  -17.0006   36.6816   -3.7066 C   0  0  0  0  0  0  0  0  0  0  0  0
  -16.0025   35.8402   -4.1761 C   0  0  0  0  0  0  0  0  0  0  0  0
  -15.5518   34.7864   -3.3871 C   0  0  0  0  0  0  0  0  0  0  0  0
  -16.1069   34.5583   -2.1297 C   0  0  0  0  0  0  0  0  0  0  0  0
  -17.0997   35.3844   -1.6465 C   0  0  0  0  0  0  0  0  0  0  0  0
  -22.6642   40.5697   -4.0905 O   0  0  0  0  0  0  0  0  0  0  0  0
  -21.4180   40.3084   -3.6695 C   0  0  0  0  0  0  0  0  0  0  0  0
  -20.4659   40.4659   -4.4293 O   0  0  0  0  0  0  0  0  0  0  0  0
  -19.5956   40.2831   -4.1341 H   0  0  0  0  0  0  0  0  0  0  0  0
 23 24  2  0  0  0
 12  1  1  0  0  0
  5  1  2  0  0  0
  1  6  1  0  0  0
 14 11  2  0  0  0
 11 13  1  0  0  0
  2 24  1  0  0  0
 24 25  1  0  0  0
  3  2  1  0  0  0
  2  9  2  0  0  0
  4  3  1  0  0  0
  6  3  2  0  0  0
  5  4  1  0  0  0
 17  5  1  0  0  0
 18 17  2  0  0  0
 22 17  1  0  0  0
 19 18  1  0  0  0
 20 19  2  0  0  0
 20 21  1  0  0  0
 21 22  2  0  0  0
 16 12  1  0  0  0
 12 13  2  0  0  0
 15 14  1  0  0  0
 15 16  2  0  0  0
  6  7  1  0  0  0
  7  8  2  0  0  0
  8  9  1  0  0  0
 25 26  1  0  0  0
  4 10  1  0  0  0
M  END
> <minimizedAffinity>
-9.46184

$$$$
3BGZ_VX3_A_314


 26 29  0  0  0  0  0  0  0  0999 V2000
  -19.1431   37.4033   -1.4968 C   0  0  0  0  0  0  0  0  0  0  0  0
  -21.0130   38.5079   -4.4375 C   0  0  0  0  0  0  0  0  0  0  0  0
  -20.0916   37.9131   -3.5396 C   0  0  0  0  0  0  0  0  0  0  0  0
  -18.9991   37.0984   -3.7134 N   0  0  0  0  0  0  0  0  0  0  0  0
  -18.4349   36.7765   -2.5042 C   0  0  0  0  0  0  0  0  0  0  0  0
  -20.2365   38.1355   -2.1605 C   0  0  0  0  0  0  0  0  0  0  0  0
  -21.2799   38.9420   -1.6921 C   0  0  0  0  0  0  0  0  0  0  0  0
  -22.1738   39.5255   -2.5626 C   0  0  0  0  0  0  0  0  0  0  0  0
  -22.0590   39.2967   -3.9330 C   0  0  0  0  0  0  0  0  0  0  0  0
  -18.6662   36.7878   -4.5863 H   0  0  0  0  0  0  0  0  0  0  0  0
  -18.5409   38.1860    2.1780 C   0  0  0  0  0  0  0  0  0  0  0  0
  -18.9735   37.2935   -0.0199 C   0  0  0  0  0  0  0  0  0  0  0  0
  -18.6161   38.3723    0.8013 C   0  0  0  0  0  0  0  0  0  0  0  0
  -18.8358   36.9493    2.7529 C   0  0  0  0  0  0  0  0  0  0  0  0
  -19.2186   35.8787    1.9551 C   0  0  0  0  0  0  0  0  0  0  0  0
  -19.3002   36.0546    0.5860 C   0  0  0  0  0  0  0  0  0  0  0  0
  -17.2275   35.9233   -2.3580 C   0  0  0  0  0  0  0  0  0  0  0  0
  -16.2344   35.9138   -3.3614 C   0  0  0  0  0  0  0  0  0  0  0  0
  -15.1173   35.1043   -3.2153 C   0  0  0  0  0  0  0  0  0  0  0  0
  -14.9830   34.2996   -2.0880 C   0  0  0  0  0  0  0  0  0  0  0  0
  -15.9724   34.2880   -1.1071 C   0  0  0  0  0  0  0  0  0  0  0  0
  -17.0896   35.0862   -1.2354 C   0  0  0  0  0  0  0  0  0  0  0  0
  -20.9138   39.2644   -6.7313 O   0  0  0  0  0  0  0  0  0  0  0  0
  -20.9090   38.2285   -5.8797 C   0  0  0  0  0  0  0  0  0  0  0  0
  -20.7593   37.0849   -6.3024 O   0  0  0  0  0  0  0  0  0  0  0  0
  -20.7561   36.3618   -5.7065 H   0  0  0  0  0  0  0  0  0  0  0  0
 23 24  2  0  0  0
 12  1  1  0  0  0
  5  1  2  0  0  0
  1  6  1  0  0  0
 14 11  2  0  0  0
 11 13  1  0  0  0
  2 24  1  0  0  0
 24 25  1  0  0  0
  3  2  1  0  0  0
  2  9  2  0  0  0
  4  3  1  0  0  0
  6  3  2  0  0  0
  5  4  1  0  0  0
 17  5  1  0  0  0
 18 17  2  0  0  0
 22 17  1  0  0  0
 19 18  1  0  0  0
 20 19  2  0  0  0
 20 21  1  0  0  0
 21 22  2  0  0  0
 16 12  1  0  0  0
 12 13  2  0  0  0
 15 14  1  0  0  0
 15 16  2  0  0  0
  6  7  1  0  0  0
  7  8  2  0  0  0
  8  9  1  0  0  0
 25 26  1  0  0  0
  4 10  1  0  0  0
M  END
> <minimizedAffinity>
-9.36203

$$$$
3BGZ_VX3_A_314


 26 29  0  0  0  0  0  0  0  0999 V2000
  -18.9122   37.3170   -2.3602 C   0  0  0  0  0  0  0  0  0  0  0  0
  -17.6801   36.2658    0.9172 C   0  0  0  0  0  0  0  0  0  0  0  0
  -17.9445   36.4153   -0.4673 C   0  0  0  0  0  0  0  0  0  0  0  0
  -17.4911   35.7639   -1.5887 N   0  0  0  0  0  0  0  0  0  0  0  0
  -18.0487   36.3009   -2.7222 C   0  0  0  0  0  0  0  0  0  0  0  0
  -18.8400   37.4107   -0.8911 C   0  0  0  0  0  0  0  0  0  0  0  0
  -19.4617   38.2348    0.0537 C   0  0  0  0  0  0  0  0  0  0  0  0
  -19.2106   38.0884    1.4002 C   0  0  0  0  0  0  0  0  0  0  0  0
  -18.3068   37.1211    1.8371 C   0  0  0  0  0  0  0  0  0  0  0  0
  -16.8532   35.0141   -1.5805 H   0  0  0  0  0  0  0  0  0  0  0  0
  -21.7036   39.1090   -4.2247 C   0  0  0  0  0  0  0  0  0  0  0  0
  -19.6810   38.2519   -3.2303 C   0  0  0  0  0  0  0  0  0  0  0  0
  -21.0634   38.1526   -3.4431 C   0  0  0  0  0  0  0  0  0  0  0  0
  -20.9947   40.1745   -4.7807 C   0  0  0  0  0  0  0  0  0  0  0  0
  -19.6300   40.3021   -4.5556 C   0  0  0  0  0  0  0  0  0  0  0  0
  -18.9850   39.3588   -3.7771 C   0  0  0  0  0  0  0  0  0  0  0  0
  -17.7707   35.8029   -4.0941 C   0  0  0  0  0  0  0  0  0  0  0  0
  -18.8312   35.4125   -4.9403 C   0  0  0  0  0  0  0  0  0  0  0  0
  -18.5551   34.9401   -6.2151 C   0  0  0  0  0  0  0  0  0  0  0  0
  -17.2375   34.8442   -6.6521 C   0  0  0  0  0  0  0  0  0  0  0  0
  -16.1869   35.2058   -5.8114 C   0  0  0  0  0  0  0  0  0  0  0  0
  -16.4424   35.6776   -4.5411 C   0  0  0  0  0  0  0  0  0  0  0  0
  -16.3147   34.3139    0.5053 O   0  0  0  0  0  0  0  0  0  0  0  0
  -16.6938   35.2689    1.3671 C   0  0  0  0  0  0  0  0  0  0  0  0
  -16.1772   35.3344    2.4796 O   0  0  0  0  0  0  0  0  0  0  0  0
  -16.4429   36.0021    3.0809 H   0  0  0  0  0  0  0  0  0  0  0  0
 23 24  2  0  0  0
 12  1  1  0  0  0
  5  1  2  0  0  0
  1  6  1  0  0  0
 14 11  2  0  0  0
 11 13  1  0  0  0
  2 24  1  0  0  0
 24 25  1  0  0  0
  3  2  1  0  0  0
  2  9  2  0  0  0
  4  3  1  0  0  0
  6  3  2  0  0  0
  5  4  1  0  0  0
 17  5  1  0  0  0
 18 17  2  0  0  0
 22 17  1  0  0  0
 19 18  1  0  0  0
 20 19  2  0  0  0
 20 21  1  0  0  0
 21 22  2  0  0  0
 16 12  1  0  0  0
 12 13  2  0  0  0
 15 14  1  0  0  0
 15 16  2  0  0  0
  6  7  1  0  0  0
  7  8  2  0  0  0
  8  9  1  0  0  0
 25 26  1  0  0  0
  4 10  1  0  0  0
M  END
> <minimizedAffinity>
-9.28176

$$$$
3BGZ_VX3_A_314


 26 29  0  0  0  0  0  0  0  0999 V2000
  -19.1484   37.2883   -2.3133 C   0  0  0  0  0  0  0  0  0  0  0  0
  -21.9306   39.3725   -3.4446 C   0  0  0  0  0  0  0  0  0  0  0  0
  -20.9770   38.6484   -2.6861 C   0  0  0  0  0  0  0  0  0  0  0  0
  -20.7863   38.4681   -1.3376 N   0  0  0  0  0  0  0  0  0  0  0  0
  -19.6926   37.6725   -1.1029 C   0  0  0  0  0  0  0  0  0  0  0  0
  -19.9698   37.9327   -3.3537 C   0  0  0  0  0  0  0  0  0  0  0  0
  -19.9233   37.9382   -4.7523 C   0  0  0  0  0  0  0  0  0  0  0  0
  -20.8517   38.6369   -5.4922 C   0  0  0  0  0  0  0  0  0  0  0  0
  -21.8444   39.3718   -4.8458 C   0  0  0  0  0  0  0  0  0  0  0  0
  -21.3564   38.8566   -0.6352 H   0  0  0  0  0  0  0  0  0  0  0  0
  -16.4799   34.5757   -2.3389 C   0  0  0  0  0  0  0  0  0  0  0  0
  -17.9106   36.5017   -2.5802 C   0  0  0  0  0  0  0  0  0  0  0  0
  -17.6345   35.2645   -1.9808 C   0  0  0  0  0  0  0  0  0  0  0  0
  -15.6063   35.0877   -3.2989 C   0  0  0  0  0  0  0  0  0  0  0  0
  -15.8805   36.2984   -3.9218 C   0  0  0  0  0  0  0  0  0  0  0  0
  -17.0274   36.9890   -3.5758 C   0  0  0  0  0  0  0  0  0  0  0  0
  -19.2351   37.2783    0.2545 C   0  0  0  0  0  0  0  0  0  0  0  0
  -19.3672   35.9427    0.6925 C   0  0  0  0  0  0  0  0  0  0  0  0
  -18.9443   35.5921    1.9664 C   0  0  0  0  0  0  0  0  0  0  0  0
  -18.4011   36.5563    2.8099 C   0  0  0  0  0  0  0  0  0  0  0  0
  -18.2912   37.8803    2.3902 C   0  0  0  0  0  0  0  0  0  0  0  0
  -18.7062   38.2471    1.1273 C   0  0  0  0  0  0  0  0  0  0  0  0
  -22.6824   40.6224   -1.5168 O   0  0  0  0  0  0  0  0  0  0  0  0
  -22.9511   40.1788   -2.7535 C   0  0  0  0  0  0  0  0  0  0  0  0
  -24.0007   40.4964   -3.3069 O   0  0  0  0  0  0  0  0  0  0  0  0
  -24.1874   40.1858   -4.1710 H   0  0  0  0  0  0  0  0  0  0  0  0
 23 24  2  0  0  0
 12  1  1  0  0  0
  5  1  2  0  0  0
  1  6  1  0  0  0
 14 11  2  0  0  0
 11 13  1  0  0  0
  2 24  1  0  0  0
 24 25  1  0  0  0
  3  2  1  0  0  0
  2  9  2  0  0  0
  4  3  1  0  0  0
  6  3  2  0  0  0
  5  4  1  0  0  0
 17  5  1  0  0  0
 18 17  2  0  0  0
 22 17  1  0  0  0
 19 18  1  0  0  0
 20 19  2  0  0  0
 20 21  1  0  0  0
 21 22  2  0  0  0
 16 12  1  0  0  0
 12 13  2  0  0  0
 15 14  1  0  0  0
 15 16  2  0  0  0
  6  7  1  0  0  0
  7  8  2  0  0  0
  8  9  1  0  0  0
 25 26  1  0  0  0
  4 10  1  0  0  0
M  END
> <minimizedAffinity>
-9.17244

$$$$
