3K8O_229_E_9006


 25 26  0  0  0  0  0  0  0  0999 V2000
  -45.4901    0.0384   -3.1745 C   0  0  0  0  0  0  0  0  0  0  0  0
  -44.9353    1.3367   -2.6651 C   0  0  0  0  0  0  0  0  0  0  0  0
  -43.5895    1.8590   -2.8862 C   0  0  0  0  0  0  0  0  0  0  0  0
  -42.5457    1.3301   -3.5603 N   0  0  0  0  0  0  0  0  0  0  0  0
  -41.3991    2.0198   -3.6136 C   0  0  0  0  0  0  0  0  0  0  0  0
  -41.2531    3.2313   -3.0131 N   0  0  0  0  0  0  0  0  0  0  0  0
  -45.5730    2.2970   -1.9003 C   0  0  0  0  0  0  0  0  0  0  0  0
  -44.7341    3.3363   -1.6407 N   0  0  0  0  0  0  0  0  0  0  0  0
  -43.5294    3.1329   -2.1962 C   0  0  0  0  0  0  0  0  0  0  0  0
  -42.2214    3.8351   -2.2995 C   0  0  0  0  0  0  0  0  0  0  0  0
  -42.0201    4.9483   -1.7625 O   0  0  0  0  0  0  0  0  0  0  0  0
  -40.3889    3.6936   -3.1059 H   0  0  0  0  0  0  0  0  0  0  0  0
  -44.9785    4.1320   -1.1151 H   0  0  0  0  0  0  0  0  0  0  0  0
  -44.8148   -0.2779   -4.4079 N   0  0  0  0  0  0  0  0  0  0  0  0
  -45.3142    0.2151   -5.1482 H   0  0  0  0  0  0  0  0  0  0  0  0
  -44.6793   -1.6459   -4.8429 C   0  0  0  0  0  0  0  0  0  0  0  0
  -44.8377   -1.6786   -6.3627 C   0  0  0  0  0  0  0  0  0  0  0  0
  -44.5476   -0.3795   -6.9033 O   0  0  0  0  0  0  0  0  0  0  0  0
  -45.1833    0.2650   -6.5548 H   0  0  0  0  0  0  0  0  0  0  0  0
  -47.1745   -1.8987   -5.7691 O   0  0  0  0  0  0  0  0  0  0  0  0
  -46.2276   -2.1500   -6.8095 C   0  0  0  0  0  0  0  0  0  0  0  0
  -48.0529   -2.1971   -6.0523 H   0  0  0  0  0  0  0  0  0  0  0  0
  -43.2908   -2.1734   -4.5043 C   0  0  0  0  0  0  0  0  0  0  0  0
  -43.2701   -3.6060   -4.3913 O   0  0  0  0  0  0  0  0  0  0  0  0
  -43.8636   -3.8825   -3.6757 H   0  0  0  0  0  0  0  0  0  0  0  0
 20 21  1  0  0  0
 21 17  1  0  0  0
 17 16  1  0  0  0
 17 18  1  0  0  0
 16 23  1  0  0  0
 16 14  1  0  0  0
 23 24  1  0  0  0
 14  1  1  0  0  0
  1  2  1  0  0  0
  2  3  1  0  0  0
  2  7  2  0  0  0
  3  4  1  0  0  0
  3  9  2  0  0  0
  4  5  2  0  0  0
  5  6  1  0  0  0
  6 10  1  0  0  0
  7  8  1  0  0  0
  8  9  1  0  0  0
  9 10  1  0  0  0
 10 11  2  0  0  0
 20 22  1  0  0  0
 18 19  1  0  0  0
 24 25  1  0  0  0
 14 15  1  0  0  0
  6 12  1  0  0  0
  8 13  1  0  0  0
M  END
> <minimizedAffinity>
-8.92602

$$$$
3K8O_229_E_9006


 25 26  0  0  0  0  0  0  0  0999 V2000
  -45.3982    0.2239   -3.3342 C   0  0  0  0  0  0  0  0  0  0  0  0
  -44.8644    1.4804   -2.7104 C   0  0  0  0  0  0  0  0  0  0  0  0
  -43.5291    2.0448   -2.8865 C   0  0  0  0  0  0  0  0  0  0  0  0
  -42.4788    1.5982   -3.6085 N   0  0  0  0  0  0  0  0  0  0  0  0
  -41.3449    2.3105   -3.6018 C   0  0  0  0  0  0  0  0  0  0  0  0
  -41.2180    3.4650   -2.8942 N   0  0  0  0  0  0  0  0  0  0  0  0
  -45.5160    2.3556   -1.8600 C   0  0  0  0  0  0  0  0  0  0  0  0
  -44.6946    3.3820   -1.5092 N   0  0  0  0  0  0  0  0  0  0  0  0
  -43.4888    3.2517   -2.0838 C   0  0  0  0  0  0  0  0  0  0  0  0
  -42.1939    3.9839   -2.1262 C   0  0  0  0  0  0  0  0  0  0  0  0
  -42.0102    5.0472   -1.4908 O   0  0  0  0  0  0  0  0  0  0  0  0
  -40.3625    3.9493   -2.9468 H   0  0  0  0  0  0  0  0  0  0  0  0
  -44.9509    4.1223   -0.9128 H   0  0  0  0  0  0  0  0  0  0  0  0
  -44.3280   -0.7409   -3.3716 N   0  0  0  0  0  0  0  0  0  0  0  0
  -43.9548   -0.7253   -4.3207 H   0  0  0  0  0  0  0  0  0  0  0  0
  -44.5728   -2.1245   -3.0480 C   0  0  0  0  0  0  0  0  0  0  0  0
  -44.4072   -2.9471   -4.3253 C   0  0  0  0  0  0  0  0  0  0  0  0
  -44.3914   -4.3456   -3.9967 O   0  0  0  0  0  0  0  0  0  0  0  0
  -43.6315   -4.5347   -3.4242 H   0  0  0  0  0  0  0  0  0  0  0  0
  -43.5131   -1.6775   -6.1827 O   0  0  0  0  0  0  0  0  0  0  0  0
  -43.1535   -2.5671   -5.1237 C   0  0  0  0  0  0  0  0  0  0  0  0
  -42.7200   -1.4377   -6.6870 H   0  0  0  0  0  0  0  0  0  0  0  0
  -43.5486   -2.6197   -2.0347 C   0  0  0  0  0  0  0  0  0  0  0  0
  -43.5512   -1.8297   -0.8341 O   0  0  0  0  0  0  0  0  0  0  0  0
  -43.3198   -0.9127   -1.0500 H   0  0  0  0  0  0  0  0  0  0  0  0
 20 21  1  0  0  0
 21 17  1  0  0  0
 17 16  1  0  0  0
 17 18  1  0  0  0
 16 23  1  0  0  0
 16 14  1  0  0  0
 23 24  1  0  0  0
 14  1  1  0  0  0
  1  2  1  0  0  0
  2  3  1  0  0  0
  2  7  2  0  0  0
  3  4  1  0  0  0
  3  9  2  0  0  0
  4  5  2  0  0  0
  5  6  1  0  0  0
  6 10  1  0  0  0
  7  8  1  0  0  0
  8  9  1  0  0  0
  9 10  1  0  0  0
 10 11  2  0  0  0
 20 22  1  0  0  0
 18 19  1  0  0  0
 24 25  1  0  0  0
 14 15  1  0  0  0
  6 12  1  0  0  0
  8 13  1  0  0  0
M  END
> <minimizedAffinity>
-8.60895

$$$$
3K8O_229_E_9006


 25 26  0  0  0  0  0  0  0  0999 V2000
  -45.1960    0.0373   -3.3311 C   0  0  0  0  0  0  0  0  0  0  0  0
  -44.7613    1.3485   -2.7440 C   0  0  0  0  0  0  0  0  0  0  0  0
  -43.4510    1.9779   -2.8848 C   0  0  0  0  0  0  0  0  0  0  0  0
  -42.3444    1.5583   -3.5353 N   0  0  0  0  0  0  0  0  0  0  0  0
  -41.2519    2.3322   -3.5102 C   0  0  0  0  0  0  0  0  0  0  0  0
  -41.2216    3.5228   -2.8533 N   0  0  0  0  0  0  0  0  0  0  0  0
  -45.4995    2.2236   -1.9674 C   0  0  0  0  0  0  0  0  0  0  0  0
  -44.7523    3.3090   -1.6284 N   0  0  0  0  0  0  0  0  0  0  0  0
  -43.5146    3.2202   -2.1397 C   0  0  0  0  0  0  0  0  0  0  0  0
  -42.2602    4.0207   -2.1571 C   0  0  0  0  0  0  0  0  0  0  0  0
  -42.1649    5.1202   -1.5654 O   0  0  0  0  0  0  0  0  0  0  0  0
  -40.3917    4.0511   -2.8893 H   0  0  0  0  0  0  0  0  0  0  0  0
  -45.0766    4.0600   -1.0806 H   0  0  0  0  0  0  0  0  0  0  0  0
  -44.0485   -0.8342   -3.3660 N   0  0  0  0  0  0  0  0  0  0  0  0
  -43.2555   -0.2851   -3.0344 H   0  0  0  0  0  0  0  0  0  0  0  0
  -43.6329   -1.4549   -4.5993 C   0  0  0  0  0  0  0  0  0  0  0  0
  -43.9165   -2.9531   -4.4957 C   0  0  0  0  0  0  0  0  0  0  0  0
  -45.0916   -3.2727   -5.2579 O   0  0  0  0  0  0  0  0  0  0  0  0
  -45.8549   -2.8024   -4.8879 H   0  0  0  0  0  0  0  0  0  0  0  0
  -44.6672   -4.7317   -3.0348 O   0  0  0  0  0  0  0  0  0  0  0  0
  -44.0664   -3.4350   -3.0469 C   0  0  0  0  0  0  0  0  0  0  0  0
  -44.7616   -5.0357   -2.1185 H   0  0  0  0  0  0  0  0  0  0  0  0
  -44.4411   -0.9038   -5.7672 C   0  0  0  0  0  0  0  0  0  0  0  0
  -43.8565   -1.2423   -7.0358 O   0  0  0  0  0  0  0  0  0  0  0  0
  -42.9682   -0.8573   -7.0956 H   0  0  0  0  0  0  0  0  0  0  0  0
 20 21  1  0  0  0
 21 17  1  0  0  0
 17 16  1  0  0  0
 17 18  1  0  0  0
 16 23  1  0  0  0
 16 14  1  0  0  0
 23 24  1  0  0  0
 14  1  1  0  0  0
  1  2  1  0  0  0
  2  3  1  0  0  0
  2  7  2  0  0  0
  3  4  1  0  0  0
  3  9  2  0  0  0
  4  5  2  0  0  0
  5  6  1  0  0  0
  6 10  1  0  0  0
  7  8  1  0  0  0
  8  9  1  0  0  0
  9 10  1  0  0  0
 10 11  2  0  0  0
 20 22  1  0  0  0
 18 19  1  0  0  0
 24 25  1  0  0  0
 14 15  1  0  0  0
  6 12  1  0  0  0
  8 13  1  0  0  0
M  END
> <minimizedAffinity>
-8.60444

$$$$
3K8O_229_E_9006


 25 26  0  0  0  0  0  0  0  0999 V2000
  -42.8852   -0.1093   -2.4615 C   0  0  0  0  0  0  0  0  0  0  0  0
  -44.1531   -0.6900   -3.0165 C   0  0  0  0  0  0  0  0  0  0  0  0
  -44.4644   -0.9247   -4.4239 C   0  0  0  0  0  0  0  0  0  0  0  0
  -43.7349   -0.6803   -5.5337 N   0  0  0  0  0  0  0  0  0  0  0  0
  -44.2571   -0.9900   -6.7272 C   0  0  0  0  0  0  0  0  0  0  0  0
  -45.4938   -1.5411   -6.8566 N   0  0  0  0  0  0  0  0  0  0  0  0
  -45.2689   -1.1243   -2.3236 C   0  0  0  0  0  0  0  0  0  0  0  0
  -46.2152   -1.5887   -3.1839 N   0  0  0  0  0  0  0  0  0  0  0  0
  -45.7992   -1.4903   -4.4561 C   0  0  0  0  0  0  0  0  0  0  0  0
  -46.3093   -1.8032   -5.8186 C   0  0  0  0  0  0  0  0  0  0  0  0
  -47.4420   -2.3032   -6.0059 O   0  0  0  0  0  0  0  0  0  0  0  0
  -45.8108   -1.7610   -7.7624 H   0  0  0  0  0  0  0  0  0  0  0  0
  -47.0893   -1.9490   -2.9095 H   0  0  0  0  0  0  0  0  0  0  0  0
  -42.7315    1.2173   -3.0037 N   0  0  0  0  0  0  0  0  0  0  0  0
  -41.7346    1.4309   -2.9729 H   0  0  0  0  0  0  0  0  0  0  0  0
  -43.4118    2.3398   -2.4068 C   0  0  0  0  0  0  0  0  0  0  0  0
  -42.6816    3.6151   -2.8263 C   0  0  0  0  0  0  0  0  0  0  0  0
  -41.5013    3.2698   -3.5691 O   0  0  0  0  0  0  0  0  0  0  0  0
  -40.9010    2.7595   -3.0033 H   0  0  0  0  0  0  0  0  0  0  0  0
  -43.3887    4.4937   -0.6841 O   0  0  0  0  0  0  0  0  0  0  0  0
  -42.3258    4.5192   -1.6390 C   0  0  0  0  0  0  0  0  0  0  0  0
  -43.1630    5.0656    0.0662 H   0  0  0  0  0  0  0  0  0  0  0  0
  -44.8424    2.4265   -2.9231 C   0  0  0  0  0  0  0  0  0  0  0  0
  -45.7059    3.1202   -2.0072 O   0  0  0  0  0  0  0  0  0  0  0  0
  -45.7346    2.6413   -1.1642 H   0  0  0  0  0  0  0  0  0  0  0  0
 20 21  1  0  0  0
 21 17  1  0  0  0
 17 16  1  0  0  0
 17 18  1  0  0  0
 16 23  1  0  0  0
 16 14  1  0  0  0
 23 24  1  0  0  0
 14  1  1  0  0  0
  1  2  1  0  0  0
  2  3  1  0  0  0
  2  7  2  0  0  0
  3  4  1  0  0  0
  3  9  2  0  0  0
  4  5  2  0  0  0
  5  6  1  0  0  0
  6 10  1  0  0  0
  7  8  1  0  0  0
  8  9  1  0  0  0
  9 10  1  0  0  0
 10 11  2  0  0  0
 20 22  1  0  0  0
 18 19  1  0  0  0
 24 25  1  0  0  0
 14 15  1  0  0  0
  6 12  1  0  0  0
  8 13  1  0  0  0
M  END
> <minimizedAffinity>
-8.29320

$$$$
3K8O_229_E_9006


 25 26  0  0  0  0  0  0  0  0999 V2000
  -42.7573   -0.0126   -2.8633 C   0  0  0  0  0  0  0  0  0  0  0  0
  -44.0532   -0.6203   -3.3152 C   0  0  0  0  0  0  0  0  0  0  0  0
  -44.4655   -0.8759   -4.6927 C   0  0  0  0  0  0  0  0  0  0  0  0
  -43.8259   -0.6320   -5.8568 N   0  0  0  0  0  0  0  0  0  0  0  0
  -44.4311   -0.9636   -7.0044 C   0  0  0  0  0  0  0  0  0  0  0  0
  -45.6643   -1.5364   -7.0346 N   0  0  0  0  0  0  0  0  0  0  0  0
  -45.1060   -1.0652   -2.5358 C   0  0  0  0  0  0  0  0  0  0  0  0
  -46.1062   -1.5547   -3.3176 N   0  0  0  0  0  0  0  0  0  0  0  0
  -45.7889   -1.4638   -4.6185 C   0  0  0  0  0  0  0  0  0  0  0  0
  -46.3947   -1.8003   -5.9355 C   0  0  0  0  0  0  0  0  0  0  0  0
  -47.5295   -2.3210   -6.0317 O   0  0  0  0  0  0  0  0  0  0  0  0
  -46.0448   -1.7717   -7.9116 H   0  0  0  0  0  0  0  0  0  0  0  0
  -46.9509   -1.9263   -2.9745 H   0  0  0  0  0  0  0  0  0  0  0  0
  -43.0651    1.1789   -2.1130 N   0  0  0  0  0  0  0  0  0  0  0  0
  -43.9886    1.0354   -1.7043 H   0  0  0  0  0  0  0  0  0  0  0  0
  -43.0961    2.4678   -2.7585 C   0  0  0  0  0  0  0  0  0  0  0  0
  -44.2091    3.2942   -2.1150 C   0  0  0  0  0  0  0  0  0  0  0  0
  -43.6588    4.1040   -1.0637 O   0  0  0  0  0  0  0  0  0  0  0  0
  -43.2831    3.5310   -0.3771 H   0  0  0  0  0  0  0  0  0  0  0  0
  -46.3244    2.2315   -2.6223 O   0  0  0  0  0  0  0  0  0  0  0  0
  -45.3631    2.4337   -1.5844 C   0  0  0  0  0  0  0  0  0  0  0  0
  -47.0537    1.6874   -2.2861 H   0  0  0  0  0  0  0  0  0  0  0  0
  -41.7793    3.2015   -2.5380 C   0  0  0  0  0  0  0  0  0  0  0  0
  -41.0500    3.3821   -3.7632 O   0  0  0  0  0  0  0  0  0  0  0  0
  -40.8347    2.5154   -4.1420 H   0  0  0  0  0  0  0  0  0  0  0  0
 20 21  1  0  0  0
 21 17  1  0  0  0
 17 16  1  0  0  0
 17 18  1  0  0  0
 16 23  1  0  0  0
 16 14  1  0  0  0
 23 24  1  0  0  0
 14  1  1  0  0  0
  1  2  1  0  0  0
  2  3  1  0  0  0
  2  7  2  0  0  0
  3  4  1  0  0  0
  3  9  2  0  0  0
  4  5  2  0  0  0
  5  6  1  0  0  0
  6 10  1  0  0  0
  7  8  1  0  0  0
  8  9  1  0  0  0
  9 10  1  0  0  0
 10 11  2  0  0  0
 20 22  1  0  0  0
 18 19  1  0  0  0
 24 25  1  0  0  0
 14 15  1  0  0  0
  6 12  1  0  0  0
  8 13  1  0  0  0
M  END
> <minimizedAffinity>
-8.18947

$$$$
3K8O_229_E_9006


 25 26  0  0  0  0  0  0  0  0999 V2000
  -42.9533   -0.3218   -4.2641 C   0  0  0  0  0  0  0  0  0  0  0  0
  -42.6785    1.0291   -3.6705 C   0  0  0  0  0  0  0  0  0  0  0  0
  -43.4684    1.7125   -2.6498 C   0  0  0  0  0  0  0  0  0  0  0  0
  -44.5993    1.3311   -2.0180 N   0  0  0  0  0  0  0  0  0  0  0  0
  -45.1366    2.1544   -1.1088 C   0  0  0  0  0  0  0  0  0  0  0  0
  -44.5813    3.3576   -0.8024 N   0  0  0  0  0  0  0  0  0  0  0  0
  -41.6343    1.8908   -3.9546 C   0  0  0  0  0  0  0  0  0  0  0  0
  -41.7310    3.0226   -3.2056 N   0  0  0  0  0  0  0  0  0  0  0  0
  -42.8106    2.9821   -2.4092 C   0  0  0  0  0  0  0  0  0  0  0  0
  -43.4705    3.8410   -1.3887 C   0  0  0  0  0  0  0  0  0  0  0  0
  -43.0146    4.9624   -1.0681 O   0  0  0  0  0  0  0  0  0  0  0  0
  -45.0174    3.9070   -0.1115 H   0  0  0  0  0  0  0  0  0  0  0  0
  -41.0935    3.7719   -3.2428 H   0  0  0  0  0  0  0  0  0  0  0  0
  -44.3077   -0.3215   -4.7571 N   0  0  0  0  0  0  0  0  0  0  0  0
  -44.8629    0.2056   -4.0831 H   0  0  0  0  0  0  0  0  0  0  0  0
  -45.0074   -1.5610   -4.9875 C   0  0  0  0  0  0  0  0  0  0  0  0
  -45.0403   -1.8145   -6.4943 C   0  0  0  0  0  0  0  0  0  0  0  0
  -44.6006   -0.6361   -7.1887 O   0  0  0  0  0  0  0  0  0  0  0  0
  -45.2083    0.0960   -7.0000 H   0  0  0  0  0  0  0  0  0  0  0  0
  -47.3574   -2.2143   -5.9180 O   0  0  0  0  0  0  0  0  0  0  0  0
  -46.4218   -2.2525   -6.9975 C   0  0  0  0  0  0  0  0  0  0  0  0
  -48.2306   -2.4914   -6.2369 H   0  0  0  0  0  0  0  0  0  0  0  0
  -44.2631   -2.7180   -4.3330 C   0  0  0  0  0  0  0  0  0  0  0  0
  -44.9560   -3.9667   -4.4955 O   0  0  0  0  0  0  0  0  0  0  0  0
  -45.8269   -3.9106   -4.0720 H   0  0  0  0  0  0  0  0  0  0  0  0
 20 21  1  0  0  0
 21 17  1  0  0  0
 17 16  1  0  0  0
 17 18  1  0  0  0
 16 23  1  0  0  0
 16 14  1  0  0  0
 23 24  1  0  0  0
 14  1  1  0  0  0
  1  2  1  0  0  0
  2  3  1  0  0  0
  2  7  2  0  0  0
  3  4  1  0  0  0
  3  9  2  0  0  0
  4  5  2  0  0  0
  5  6  1  0  0  0
  6 10  1  0  0  0
  7  8  1  0  0  0
  8  9  1  0  0  0
  9 10  1  0  0  0
 10 11  2  0  0  0
 20 22  1  0  0  0
 18 19  1  0  0  0
 24 25  1  0  0  0
 14 15  1  0  0  0
  6 12  1  0  0  0
  8 13  1  0  0  0
M  END
> <minimizedAffinity>
-7.90016

$$$$
3K8O_229_E_9006


 25 26  0  0  0  0  0  0  0  0999 V2000
  -42.3413    1.2195   -3.0394 C   0  0  0  0  0  0  0  0  0  0  0  0
  -42.8204   -0.1987   -2.9296 C   0  0  0  0  0  0  0  0  0  0  0  0
  -43.4458   -0.9941   -3.9827 C   0  0  0  0  0  0  0  0  0  0  0  0
  -43.7511   -0.6718   -5.2580 N   0  0  0  0  0  0  0  0  0  0  0  0
  -44.3334   -1.5958   -6.0328 C   0  0  0  0  0  0  0  0  0  0  0  0
  -44.6256   -2.8438   -5.5779 N   0  0  0  0  0  0  0  0  0  0  0  0
  -42.7638   -1.0370   -1.8306 C   0  0  0  0  0  0  0  0  0  0  0  0
  -43.3007   -2.2515   -2.1275 N   0  0  0  0  0  0  0  0  0  0  0  0
  -43.7339   -2.2891   -3.3972 C   0  0  0  0  0  0  0  0  0  0  0  0
  -44.3841   -3.2583   -4.3204 C   0  0  0  0  0  0  0  0  0  0  0  0
  -44.6863   -4.4191   -3.9607 O   0  0  0  0  0  0  0  0  0  0  0  0
  -45.0378   -3.4811   -6.2050 H   0  0  0  0  0  0  0  0  0  0  0  0
  -43.3630   -3.0031   -1.4947 H   0  0  0  0  0  0  0  0  0  0  0  0
  -42.9249    1.9691   -1.9555 N   0  0  0  0  0  0  0  0  0  0  0  0
  -43.5738    1.3401   -1.4825 H   0  0  0  0  0  0  0  0  0  0  0  0
  -43.6474    3.1906   -2.2105 C   0  0  0  0  0  0  0  0  0  0  0  0
  -45.0760    3.0129   -1.6972 C   0  0  0  0  0  0  0  0  0  0  0  0
  -45.0627    2.9207   -0.2636 O   0  0  0  0  0  0  0  0  0  0  0  0
  -44.5540    2.1399    0.0055 H   0  0  0  0  0  0  0  0  0  0  0  0
  -45.4806    1.7187   -3.7029 O   0  0  0  0  0  0  0  0  0  0  0  0
  -45.7848    1.7975   -2.3087 C   0  0  0  0  0  0  0  0  0  0  0  0
  -45.9291    0.9500   -4.0887 H   0  0  0  0  0  0  0  0  0  0  0  0
  -43.0152    4.3480   -1.4479 C   0  0  0  0  0  0  0  0  0  0  0  0
  -41.8048    4.8082   -2.0712 O   0  0  0  0  0  0  0  0  0  0  0  0
  -41.1554    4.0878   -2.0877 H   0  0  0  0  0  0  0  0  0  0  0  0
 20 21  1  0  0  0
 21 17  1  0  0  0
 17 16  1  0  0  0
 17 18  1  0  0  0
 16 23  1  0  0  0
 16 14  1  0  0  0
 23 24  1  0  0  0
 14  1  1  0  0  0
  1  2  1  0  0  0
  2  3  1  0  0  0
  2  7  2  0  0  0
  3  4  1  0  0  0
  3  9  2  0  0  0
  4  5  2  0  0  0
  5  6  1  0  0  0
  6 10  1  0  0  0
  7  8  1  0  0  0
  8  9  1  0  0  0
  9 10  1  0  0  0
 10 11  2  0  0  0
 20 22  1  0  0  0
 18 19  1  0  0  0
 24 25  1  0  0  0
 14 15  1  0  0  0
  6 12  1  0  0  0
  8 13  1  0  0  0
M  END
> <minimizedAffinity>
-7.19586

$$$$
3K8O_229_E_9006


 25 26  0  0  0  0  0  0  0  0999 V2000
  -45.4975    1.7362   -2.9797 C   0  0  0  0  0  0  0  0  0  0  0  0
  -45.1692    0.2735   -2.9044 C   0  0  0  0  0  0  0  0  0  0  0  0
  -44.6996   -0.5744   -3.9968 C   0  0  0  0  0  0  0  0  0  0  0  0
  -44.4640   -0.2800   -5.2935 N   0  0  0  0  0  0  0  0  0  0  0  0
  -44.0329   -1.2535   -6.1056 C   0  0  0  0  0  0  0  0  0  0  0  0
  -43.8253   -2.5243   -5.6675 N   0  0  0  0  0  0  0  0  0  0  0  0
  -45.2336   -0.5609   -1.8029 C   0  0  0  0  0  0  0  0  0  0  0  0
  -44.8534   -1.8239   -2.1370 N   0  0  0  0  0  0  0  0  0  0  0  0
  -44.5283   -1.9009   -3.4369 C   0  0  0  0  0  0  0  0  0  0  0  0
  -44.0507   -2.9269   -4.4032 C   0  0  0  0  0  0  0  0  0  0  0  0
  -43.8485   -4.1156   -4.0652 O   0  0  0  0  0  0  0  0  0  0  0  0
  -43.4907   -3.1882   -6.3128 H   0  0  0  0  0  0  0  0  0  0  0  0
  -44.8211   -2.5810   -1.5085 H   0  0  0  0  0  0  0  0  0  0  0  0
  -44.2654    2.4566   -3.1805 N   0  0  0  0  0  0  0  0  0  0  0  0
  -43.7443    1.9490   -3.8955 H   0  0  0  0  0  0  0  0  0  0  0  0
  -43.3542    2.6763   -2.0848 C   0  0  0  0  0  0  0  0  0  0  0  0
  -42.0479    3.2258   -2.6568 C   0  0  0  0  0  0  0  0  0  0  0  0
  -42.3020    4.4754   -3.3185 O   0  0  0  0  0  0  0  0  0  0  0  0
  -42.9102    4.3307   -4.0601 H   0  0  0  0  0  0  0  0  0  0  0  0
  -40.2919    2.9145   -4.2941 O   0  0  0  0  0  0  0  0  0  0  0  0
  -41.3513    2.2442   -3.6081 C   0  0  0  0  0  0  0  0  0  0  0  0
  -39.8520    2.2933   -4.8953 H   0  0  0  0  0  0  0  0  0  0  0  0
  -43.9209    3.7158   -1.1261 C   0  0  0  0  0  0  0  0  0  0  0  0
  -42.9124    4.6280   -0.6610 O   0  0  0  0  0  0  0  0  0  0  0  0
  -42.2293    4.1363   -0.1787 H   0  0  0  0  0  0  0  0  0  0  0  0
 20 21  1  0  0  0
 21 17  1  0  0  0
 17 16  1  0  0  0
 17 18  1  0  0  0
 16 23  1  0  0  0
 16 14  1  0  0  0
 23 24  1  0  0  0
 14  1  1  0  0  0
  1  2  1  0  0  0
  2  3  1  0  0  0
  2  7  2  0  0  0
  3  4  1  0  0  0
  3  9  2  0  0  0
  4  5  2  0  0  0
  5  6  1  0  0  0
  6 10  1  0  0  0
  7  8  1  0  0  0
  8  9  1  0  0  0
  9 10  1  0  0  0
 10 11  2  0  0  0
 20 22  1  0  0  0
 18 19  1  0  0  0
 24 25  1  0  0  0
 14 15  1  0  0  0
  6 12  1  0  0  0
  8 13  1  0  0  0
M  END
> <minimizedAffinity>
-7.14925

$$$$
3K8O_229_E_9006


 25 26  0  0  0  0  0  0  0  0999 V2000
  -42.7871   -0.5749   -2.6523 C   0  0  0  0  0  0  0  0  0  0  0  0
  -43.6528   -1.6192   -3.2949 C   0  0  0  0  0  0  0  0  0  0  0  0
  -44.2089   -1.5840   -4.6449 C   0  0  0  0  0  0  0  0  0  0  0  0
  -44.1043   -0.6450   -5.6098 N   0  0  0  0  0  0  0  0  0  0  0  0
  -44.7212   -0.8542   -6.7798 C   0  0  0  0  0  0  0  0  0  0  0  0
  -45.4467   -1.9780   -7.0262 N   0  0  0  0  0  0  0  0  0  0  0  0
  -44.0908   -2.8157   -2.7562 C   0  0  0  0  0  0  0  0  0  0  0  0
  -44.8583   -3.4917   -3.6536 N   0  0  0  0  0  0  0  0  0  0  0  0
  -44.9741   -2.8057   -4.8013 C   0  0  0  0  0  0  0  0  0  0  0  0
  -45.6320   -2.9620   -6.1269 C   0  0  0  0  0  0  0  0  0  0  0  0
  -46.3202   -3.9684   -6.4131 O   0  0  0  0  0  0  0  0  0  0  0  0
  -45.8603   -2.0774   -7.9140 H   0  0  0  0  0  0  0  0  0  0  0  0
  -45.2736   -4.3680   -3.4835 H   0  0  0  0  0  0  0  0  0  0  0  0
  -43.6358    0.2739   -1.8545 N   0  0  0  0  0  0  0  0  0  0  0  0
  -44.3026   -0.3391   -1.3853 H   0  0  0  0  0  0  0  0  0  0  0  0
  -44.4056    1.3287   -2.4658 C   0  0  0  0  0  0  0  0  0  0  0  0
  -44.6289    2.4206   -1.4201 C   0  0  0  0  0  0  0  0  0  0  0  0
  -46.0130    2.8056   -1.4163 O   0  0  0  0  0  0  0  0  0  0  0  0
  -46.2483    3.1745   -2.2820 H   0  0  0  0  0  0  0  0  0  0  0  0
  -43.4108    4.2285   -0.3670 O   0  0  0  0  0  0  0  0  0  0  0  0
  -43.7296    3.6454   -1.6322 C   0  0  0  0  0  0  0  0  0  0  0  0
  -42.8422    5.0028   -0.5020 H   0  0  0  0  0  0  0  0  0  0  0  0
  -43.6336    1.9419   -3.6272 C   0  0  0  0  0  0  0  0  0  0  0  0
  -44.4616    2.1299   -4.7868 O   0  0  0  0  0  0  0  0  0  0  0  0
  -44.7965    1.2707   -5.0877 H   0  0  0  0  0  0  0  0  0  0  0  0
 20 21  1  0  0  0
 21 17  1  0  0  0
 17 16  1  0  0  0
 17 18  1  0  0  0
 16 23  1  0  0  0
 16 14  1  0  0  0
 23 24  1  0  0  0
 14  1  1  0  0  0
  1  2  1  0  0  0
  2  3  1  0  0  0
  2  7  2  0  0  0
  3  4  1  0  0  0
  3  9  2  0  0  0
  4  5  2  0  0  0
  5  6  1  0  0  0
  6 10  1  0  0  0
  7  8  1  0  0  0
  8  9  1  0  0  0
  9 10  1  0  0  0
 10 11  2  0  0  0
 20 22  1  0  0  0
 18 19  1  0  0  0
 24 25  1  0  0  0
 14 15  1  0  0  0
  6 12  1  0  0  0
  8 13  1  0  0  0
M  END
> <minimizedAffinity>
-7.12793

$$$$
3K8O_229_E_9006


 25 26  0  0  0  0  0  0  0  0999 V2000
  -44.1223    1.1070   -1.7538 C   0  0  0  0  0  0  0  0  0  0  0  0
  -44.0357   -0.3762   -1.9669 C   0  0  0  0  0  0  0  0  0  0  0  0
  -44.5358   -1.1248   -3.1168 C   0  0  0  0  0  0  0  0  0  0  0  0
  -45.1838   -0.6997   -4.2227 N   0  0  0  0  0  0  0  0  0  0  0  0
  -45.5434   -1.6026   -5.1439 C   0  0  0  0  0  0  0  0  0  0  0  0
  -45.2773   -2.9288   -5.0019 N   0  0  0  0  0  0  0  0  0  0  0  0
  -43.4672   -1.3267   -1.1380 C   0  0  0  0  0  0  0  0  0  0  0  0
  -43.5867   -2.5682   -1.6817 N   0  0  0  0  0  0  0  0  0  0  0  0
  -44.2231   -2.5176   -2.8623 C   0  0  0  0  0  0  0  0  0  0  0  0
  -44.6584   -3.4580   -3.9304 C   0  0  0  0  0  0  0  0  0  0  0  0
  -44.4513   -4.6908   -3.8558 O   0  0  0  0  0  0  0  0  0  0  0  0
  -45.5535   -3.5371   -5.7251 H   0  0  0  0  0  0  0  0  0  0  0  0
  -43.2509   -3.3943   -1.2644 H   0  0  0  0  0  0  0  0  0  0  0  0
  -43.8250    1.7525   -3.0077 N   0  0  0  0  0  0  0  0  0  0  0  0
  -43.4730    1.0272   -3.6325 H   0  0  0  0  0  0  0  0  0  0  0  0
  -42.8826    2.8421   -3.0694 C   0  0  0  0  0  0  0  0  0  0  0  0
  -43.0400    3.6781   -1.7997 C   0  0  0  0  0  0  0  0  0  0  0  0
  -44.4274    3.9950   -1.6028 O   0  0  0  0  0  0  0  0  0  0  0  0
  -44.7461    4.5283   -2.3477 H   0  0  0  0  0  0  0  0  0  0  0  0
  -41.7100    5.2268   -0.4982 O   0  0  0  0  0  0  0  0  0  0  0  0
  -42.1924    4.9567   -1.8161 C   0  0  0  0  0  0  0  0  0  0  0  0
  -41.1742    6.0353   -0.5094 H   0  0  0  0  0  0  0  0  0  0  0  0
  -41.4568    2.3068   -3.1052 C   0  0  0  0  0  0  0  0  0  0  0  0
  -40.6320    3.0290   -4.0345 O   0  0  0  0  0  0  0  0  0  0  0  0
  -40.9951    2.9359   -4.9291 H   0  0  0  0  0  0  0  0  0  0  0  0
 20 21  1  0  0  0
 21 17  1  0  0  0
 17 16  1  0  0  0
 17 18  1  0  0  0
 16 23  1  0  0  0
 16 14  1  0  0  0
 23 24  1  0  0  0
 14  1  1  0  0  0
  1  2  1  0  0  0
  2  3  1  0  0  0
  2  7  2  0  0  0
  3  4  1  0  0  0
  3  9  2  0  0  0
  4  5  2  0  0  0
  5  6  1  0  0  0
  6 10  1  0  0  0
  7  8  1  0  0  0
  8  9  1  0  0  0
  9 10  1  0  0  0
 10 11  2  0  0  0
 20 22  1  0  0  0
 18 19  1  0  0  0
 24 25  1  0  0  0
 14 15  1  0  0  0
  6 12  1  0  0  0
  8 13  1  0  0  0
M  END
> <minimizedAffinity>
-7.07179

$$$$
