5GMH_RX8_A_901


 26 28  0  0  0  0  0  0  0  0999 V2000
  -15.5816  -28.0760  -11.5614 N   0  0  0  0  0  0  0  0  0  0  0  0
  -15.5354  -27.0637  -10.6897 C   0  0  0  0  0  0  0  0  0  0  0  0
  -14.4034  -26.4044  -10.8297 N   0  0  0  0  0  0  0  0  0  0  0  0
  -13.6451  -27.0593  -11.7507 C   0  0  0  0  0  0  0  0  0  0  0  0
  -12.3286  -26.7848  -12.2347 C   0  0  0  0  0  0  0  0  0  0  0  0
  -11.6760  -25.6959  -11.6449 N   0  0  0  0  0  0  0  0  0  0  0  0
  -14.3783  -28.1219  -12.2519 C   0  0  0  0  0  0  0  0  0  0  0  0
  -13.7625  -28.9303  -13.2988 C   0  0  0  0  0  0  0  0  0  0  0  0
  -14.4311  -30.0509  -13.8472 C   0  0  0  0  0  0  0  0  0  0  0  0
  -13.8296  -30.7938  -14.8574 C   0  0  0  0  0  0  0  0  0  0  0  0
  -12.5551  -30.4764  -15.2881 C   0  0  0  0  0  0  0  0  0  0  0  0
  -11.8613  -29.3692  -14.7566 C   0  0  0  0  0  0  0  0  0  0  0  0
  -12.4964  -28.5908  -13.7487 C   0  0  0  0  0  0  0  0  0  0  0  0
  -11.7837  -27.4870  -13.2287 N   0  0  0  0  0  0  0  0  0  0  0  0
  -10.7664  -25.4524  -11.9324 H   0  0  0  0  0  0  0  0  0  0  0  0
  -12.1266  -25.1735  -10.9425 H   0  0  0  0  0  0  0  0  0  0  0  0
  -16.7031  -29.0177  -11.5417 C   0  0  0  0  0  0  0  0  0  0  0  0
  -15.0821  -30.6131  -10.5708 O   0  0  0  0  0  0  0  0  0  0  0  0
  -16.4215  -30.2406  -10.5880 C   0  0  0  0  0  0  0  0  0  0  0  0
  -16.6295  -30.1258   -9.1021 C   0  0  0  0  0  0  0  0  0  0  0  0
  -17.2249  -31.4603  -11.0468 C   0  0  0  0  0  0  0  0  0  0  0  0
  -14.7687  -30.7352  -11.4807 H   0  0  0  0  0  0  0  0  0  0  0  0
  -16.6284  -26.6057   -9.7912 C   0  0  0  0  0  0  0  0  0  0  0  0
  -17.6063  -25.8214  -10.4672 O   0  0  0  0  0  0  0  0  0  0  0  0
  -17.5933  -25.4403  -11.8183 C   0  0  0  0  0  0  0  0  0  0  0  0
  -18.7847  -25.7561  -12.6851 C   0  0  0  0  0  0  0  0  0  0  0  0
  6  5  1  0  0  0
  5 14  2  0  0  0
  5  4  1  0  0  0
 14 13  1  0  0  0
  4  3  1  0  0  0
  4  7  2  0  0  0
  3  2  2  0  0  0
 13 12  2  0  0  0
 13  8  1  0  0  0
 12 11  1  0  0  0
 25 26  1  0  0  0
 25 24  1  0  0  0
  7  8  1  0  0  0
  7  1  1  0  0  0
  2 23  1  0  0  0
  2  1  1  0  0  0
  8  9  2  0  0  0
 23 24  1  0  0  0
 11 10  2  0  0  0
  1 17  1  0  0  0
  9 10  1  0  0  0
 17 19  1  0  0  0
 18 19  1  0  0  0
 19 21  1  0  0  0
 19 20  1  0  0  0
 18 22  1  0  0  0
  6 15  1  0  0  0
  6 16  1  0  0  0
M  END
> <minimizedAffinity>
-9.64547

$$$$
5GMH_RX8_A_901


 26 28  0  0  0  0  0  0  0  0999 V2000
  -15.2220  -28.6907  -12.1176 N   0  0  0  0  0  0  0  0  0  0  0  0
  -15.3410  -27.8574  -11.0792 C   0  0  0  0  0  0  0  0  0  0  0  0
  -14.2806  -27.0790  -11.0068 N   0  0  0  0  0  0  0  0  0  0  0  0
  -13.3991  -27.4770  -11.9642 C   0  0  0  0  0  0  0  0  0  0  0  0
  -12.0921  -26.9939  -12.2823 C   0  0  0  0  0  0  0  0  0  0  0  0
  -11.6000  -25.9758  -11.4571 N   0  0  0  0  0  0  0  0  0  0  0  0
  -13.9796  -28.4934  -12.7044 C   0  0  0  0  0  0  0  0  0  0  0  0
  -13.2149  -29.0319  -13.8241 C   0  0  0  0  0  0  0  0  0  0  0  0
  -13.7221  -30.0901  -14.6157 C   0  0  0  0  0  0  0  0  0  0  0  0
  -12.9809  -30.5727  -15.6890 C   0  0  0  0  0  0  0  0  0  0  0  0
  -11.7236  -30.0614  -15.9507 C   0  0  0  0  0  0  0  0  0  0  0  0
  -11.1890  -29.0107  -15.1761 C   0  0  0  0  0  0  0  0  0  0  0  0
  -11.9671  -28.4963  -14.1014 C   0  0  0  0  0  0  0  0  0  0  0  0
  -11.4125  -27.4450  -13.3372 N   0  0  0  0  0  0  0  0  0  0  0  0
  -10.7058  -25.5980  -11.6214 H   0  0  0  0  0  0  0  0  0  0  0  0
  -12.1480  -25.6376  -10.7125 H   0  0  0  0  0  0  0  0  0  0  0  0
  -16.2339  -29.7221  -12.3573 C   0  0  0  0  0  0  0  0  0  0  0  0
  -15.5328  -32.0421  -12.8488 O   0  0  0  0  0  0  0  0  0  0  0  0
  -15.7683  -31.1308  -11.8255 C   0  0  0  0  0  0  0  0  0  0  0  0
  -14.4618  -31.2883  -11.0956 C   0  0  0  0  0  0  0  0  0  0  0  0
  -16.8470  -31.7337  -10.9217 C   0  0  0  0  0  0  0  0  0  0  0  0
  -16.3022  -32.0717  -13.4388 H   0  0  0  0  0  0  0  0  0  0  0  0
  -16.5318  -27.6795  -10.2063 C   0  0  0  0  0  0  0  0  0  0  0  0
  -16.3274  -28.1739   -8.8864 O   0  0  0  0  0  0  0  0  0  0  0  0
  -15.8001  -29.4245   -8.5277 C   0  0  0  0  0  0  0  0  0  0  0  0
  -16.6830  -30.4227   -7.8242 C   0  0  0  0  0  0  0  0  0  0  0  0
  6  5  1  0  0  0
  5 14  2  0  0  0
  5  4  1  0  0  0
 14 13  1  0  0  0
  4  3  1  0  0  0
  4  7  2  0  0  0
  3  2  2  0  0  0
 13 12  2  0  0  0
 13  8  1  0  0  0
 12 11  1  0  0  0
 25 26  1  0  0  0
 25 24  1  0  0  0
  7  8  1  0  0  0
  7  1  1  0  0  0
  2 23  1  0  0  0
  2  1  1  0  0  0
  8  9  2  0  0  0
 23 24  1  0  0  0
 11 10  2  0  0  0
  1 17  1  0  0  0
  9 10  1  0  0  0
 17 19  1  0  0  0
 18 19  1  0  0  0
 19 21  1  0  0  0
 19 20  1  0  0  0
 18 22  1  0  0  0
  6 15  1  0  0  0
  6 16  1  0  0  0
M  END
> <minimizedAffinity>
-8.24997

$$$$
5GMH_RX8_A_901


 26 28  0  0  0  0  0  0  0  0999 V2000
  -14.6688  -31.4371  -11.7334 N   0  0  0  0  0  0  0  0  0  0  0  0
  -13.9027  -32.2765  -11.0296 C   0  0  0  0  0  0  0  0  0  0  0  0
  -13.8257  -31.8696   -9.7789 N   0  0  0  0  0  0  0  0  0  0  0  0
  -14.4788  -30.6797   -9.6816 C   0  0  0  0  0  0  0  0  0  0  0  0
  -14.6570  -29.8063   -8.5643 C   0  0  0  0  0  0  0  0  0  0  0  0
  -14.0257  -30.1968   -7.3774 N   0  0  0  0  0  0  0  0  0  0  0  0
  -15.0459  -30.3849  -10.9102 C   0  0  0  0  0  0  0  0  0  0  0  0
  -15.8413  -29.1659  -11.0094 C   0  0  0  0  0  0  0  0  0  0  0  0
  -16.4337  -28.7757  -12.2344 C   0  0  0  0  0  0  0  0  0  0  0  0
  -17.2028  -27.6187  -12.2976 C   0  0  0  0  0  0  0  0  0  0  0  0
  -17.3431  -26.8162  -11.1809 C   0  0  0  0  0  0  0  0  0  0  0  0
  -16.7600  -27.1756   -9.9477 C   0  0  0  0  0  0  0  0  0  0  0  0
  -16.0042  -28.3795   -9.8800 C   0  0  0  0  0  0  0  0  0  0  0  0
  -15.4275  -28.7203   -8.6358 N   0  0  0  0  0  0  0  0  0  0  0  0
  -14.1082  -29.6399   -6.5698 H   0  0  0  0  0  0  0  0  0  0  0  0
  -13.4993  -31.0283   -7.3504 H   0  0  0  0  0  0  0  0  0  0  0  0
  -14.8351  -31.6221  -13.1767 C   0  0  0  0  0  0  0  0  0  0  0  0
  -14.1852  -30.5034  -15.2843 O   0  0  0  0  0  0  0  0  0  0  0  0
  -13.7608  -30.8110  -13.9964 C   0  0  0  0  0  0  0  0  0  0  0  0
  -13.3479  -29.4274  -13.5725 C   0  0  0  0  0  0  0  0  0  0  0  0
  -12.4729  -31.6284  -14.1272 C   0  0  0  0  0  0  0  0  0  0  0  0
  -14.4975  -31.3102  -15.7231 H   0  0  0  0  0  0  0  0  0  0  0  0
  -13.3341  -33.5705  -11.4920 C   0  0  0  0  0  0  0  0  0  0  0  0
  -11.9626  -33.7273  -11.1417 O   0  0  0  0  0  0  0  0  0  0  0  0
  -10.9515  -34.2976  -11.9313 C   0  0  0  0  0  0  0  0  0  0  0  0
  -11.3294  -35.0672  -13.1705 C   0  0  0  0  0  0  0  0  0  0  0  0
  6  5  1  0  0  0
  5 14  2  0  0  0
  5  4  1  0  0  0
 14 13  1  0  0  0
  4  3  1  0  0  0
  4  7  2  0  0  0
  3  2  2  0  0  0
 13 12  2  0  0  0
 13  8  1  0  0  0
 12 11  1  0  0  0
 25 26  1  0  0  0
 25 24  1  0  0  0
  7  8  1  0  0  0
  7  1  1  0  0  0
  2 23  1  0  0  0
  2  1  1  0  0  0
  8  9  2  0  0  0
 23 24  1  0  0  0
 11 10  2  0  0  0
  1 17  1  0  0  0
  9 10  1  0  0  0
 17 19  1  0  0  0
 18 19  1  0  0  0
 19 21  1  0  0  0
 19 20  1  0  0  0
 18 22  1  0  0  0
  6 15  1  0  0  0
  6 16  1  0  0  0
M  END
> <minimizedAffinity>
-8.02818

$$$$
5GMH_RX8_A_901


 26 28  0  0  0  0  0  0  0  0999 V2000
  -13.3020  -29.4325  -13.5869 N   0  0  0  0  0  0  0  0  0  0  0  0
  -12.0598  -29.2104  -14.0278 C   0  0  0  0  0  0  0  0  0  0  0  0
  -11.5904  -28.0980  -13.5006 N   0  0  0  0  0  0  0  0  0  0  0  0
  -12.5857  -27.5245  -12.7709 C   0  0  0  0  0  0  0  0  0  0  0  0
  -12.6107  -26.2994  -12.0351 C   0  0  0  0  0  0  0  0  0  0  0  0
  -11.4467  -25.5244  -12.1002 N   0  0  0  0  0  0  0  0  0  0  0  0
  -13.6875  -28.3633  -12.7901 C   0  0  0  0  0  0  0  0  0  0  0  0
  -14.8572  -27.9559  -12.0191 C   0  0  0  0  0  0  0  0  0  0  0  0
  -16.0352  -28.7407  -12.0058 C   0  0  0  0  0  0  0  0  0  0  0  0
  -17.1297  -28.3393  -11.2475 C   0  0  0  0  0  0  0  0  0  0  0  0
  -17.0925  -27.1453  -10.5520 C   0  0  0  0  0  0  0  0  0  0  0  0
  -15.9351  -26.3389  -10.5507 C   0  0  0  0  0  0  0  0  0  0  0  0
  -14.8052  -26.7728  -11.2992 C   0  0  0  0  0  0  0  0  0  0  0  0
  -13.6567  -25.9497  -11.2857 N   0  0  0  0  0  0  0  0  0  0  0  0
  -11.3975  -24.6685  -11.6162 H   0  0  0  0  0  0  0  0  0  0  0  0
  -10.6773  -25.8353  -12.6300 H   0  0  0  0  0  0  0  0  0  0  0  0
  -14.0776  -30.5634  -14.1012 C   0  0  0  0  0  0  0  0  0  0  0  0
  -13.3647  -32.8241  -13.3964 O   0  0  0  0  0  0  0  0  0  0  0  0
  -14.1618  -31.7378  -13.0534 C   0  0  0  0  0  0  0  0  0  0  0  0
  -13.6722  -31.5516  -11.6428 C   0  0  0  0  0  0  0  0  0  0  0  0
  -15.6018  -32.2475  -12.9504 C   0  0  0  0  0  0  0  0  0  0  0  0
  -13.5548  -33.0890  -14.3100 H   0  0  0  0  0  0  0  0  0  0  0  0
  -11.2270  -30.1237  -14.8549 C   0  0  0  0  0  0  0  0  0  0  0  0
  -10.8456  -31.3057  -14.1581 O   0  0  0  0  0  0  0  0  0  0  0  0
  -10.0216  -32.3367  -14.6366 C   0  0  0  0  0  0  0  0  0  0  0  0
   -9.5199  -32.2809  -16.0564 C   0  0  0  0  0  0  0  0  0  0  0  0
  6  5  1  0  0  0
  5 14  2  0  0  0
  5  4  1  0  0  0
 14 13  1  0  0  0
  4  3  1  0  0  0
  4  7  2  0  0  0
  3  2  2  0  0  0
 13 12  2  0  0  0
 13  8  1  0  0  0
 12 11  1  0  0  0
 25 26  1  0  0  0
 25 24  1  0  0  0
  7  8  1  0  0  0
  7  1  1  0  0  0
  2 23  1  0  0  0
  2  1  1  0  0  0
  8  9  2  0  0  0
 23 24  1  0  0  0
 11 10  2  0  0  0
  1 17  1  0  0  0
  9 10  1  0  0  0
 17 19  1  0  0  0
 18 19  1  0  0  0
 19 21  1  0  0  0
 19 20  1  0  0  0
 18 22  1  0  0  0
  6 15  1  0  0  0
  6 16  1  0  0  0
M  END
> <minimizedAffinity>
-7.76323

$$$$
5GMH_RX8_A_901


 26 28  0  0  0  0  0  0  0  0999 V2000
  -15.7812  -30.5037  -11.6866 N   0  0  0  0  0  0  0  0  0  0  0  0
  -15.8486  -29.2799  -12.2201 C   0  0  0  0  0  0  0  0  0  0  0  0
  -14.9395  -29.1534  -13.1652 N   0  0  0  0  0  0  0  0  0  0  0  0
  -14.1921  -30.2904  -13.1863 C   0  0  0  0  0  0  0  0  0  0  0  0
  -13.0651  -30.6467  -13.9900 C   0  0  0  0  0  0  0  0  0  0  0  0
  -12.6105  -29.6618  -14.8747 N   0  0  0  0  0  0  0  0  0  0  0  0
  -14.7173  -31.1817  -12.2656 C   0  0  0  0  0  0  0  0  0  0  0  0
  -14.0887  -32.4946  -12.1654 C   0  0  0  0  0  0  0  0  0  0  0  0
  -14.5452  -33.4556  -11.2318 C   0  0  0  0  0  0  0  0  0  0  0  0
  -13.9405  -34.7065  -11.1694 C   0  0  0  0  0  0  0  0  0  0  0  0
  -12.8562  -34.9948  -11.9768 C   0  0  0  0  0  0  0  0  0  0  0  0
  -12.3750  -34.0556  -12.9128 C   0  0  0  0  0  0  0  0  0  0  0  0
  -13.0207  -32.7903  -12.9975 C   0  0  0  0  0  0  0  0  0  0  0  0
  -12.5221  -31.8636  -13.9406 N   0  0  0  0  0  0  0  0  0  0  0  0
  -11.8378  -29.8423  -15.4575 H   0  0  0  0  0  0  0  0  0  0  0  0
  -13.0634  -28.7885  -14.9142 H   0  0  0  0  0  0  0  0  0  0  0  0
  -16.6309  -30.8617  -10.5487 C   0  0  0  0  0  0  0  0  0  0  0  0
  -15.0439  -31.5149   -8.7681 O   0  0  0  0  0  0  0  0  0  0  0  0
  -15.9358  -30.5285   -9.1739 C   0  0  0  0  0  0  0  0  0  0  0  0
  -15.0183  -29.3434   -9.0389 C   0  0  0  0  0  0  0  0  0  0  0  0
  -16.9900  -30.3903   -8.0724 C   0  0  0  0  0  0  0  0  0  0  0  0
  -15.4835  -32.3791   -8.7948 H   0  0  0  0  0  0  0  0  0  0  0  0
  -16.8739  -28.2385  -11.9442 C   0  0  0  0  0  0  0  0  0  0  0  0
  -16.3076  -27.0128  -11.4912 O   0  0  0  0  0  0  0  0  0  0  0  0
  -16.9063  -25.7436  -11.5289 C   0  0  0  0  0  0  0  0  0  0  0  0
  -18.3100  -25.6059  -12.0594 C   0  0  0  0  0  0  0  0  0  0  0  0
  6  5  1  0  0  0
  5 14  2  0  0  0
  5  4  1  0  0  0
 14 13  1  0  0  0
  4  3  1  0  0  0
  4  7  2  0  0  0
  3  2  2  0  0  0
 13 12  2  0  0  0
 13  8  1  0  0  0
 12 11  1  0  0  0
 25 26  1  0  0  0
 25 24  1  0  0  0
  7  8  1  0  0  0
  7  1  1  0  0  0
  2 23  1  0  0  0
  2  1  1  0  0  0
  8  9  2  0  0  0
 23 24  1  0  0  0
 11 10  2  0  0  0
  1 17  1  0  0  0
  9 10  1  0  0  0
 17 19  1  0  0  0
 18 19  1  0  0  0
 19 21  1  0  0  0
 19 20  1  0  0  0
 18 22  1  0  0  0
  6 15  1  0  0  0
  6 16  1  0  0  0
M  END
> <minimizedAffinity>
-7.37597

$$$$
5GMH_RX8_A_901


 26 28  0  0  0  0  0  0  0  0999 V2000
  -13.1580  -33.6419  -11.7255 N   0  0  0  0  0  0  0  0  0  0  0  0
  -12.4666  -34.5601  -11.0430 C   0  0  0  0  0  0  0  0  0  0  0  0
  -11.2161  -34.5773  -11.4571 N   0  0  0  0  0  0  0  0  0  0  0  0
  -11.1070  -33.7160  -12.5051 C   0  0  0  0  0  0  0  0  0  0  0  0
   -9.9852  -33.3940  -13.3302 C   0  0  0  0  0  0  0  0  0  0  0  0
   -8.8079  -34.1030  -13.0637 N   0  0  0  0  0  0  0  0  0  0  0  0
  -12.3271  -33.0874  -12.6894 C   0  0  0  0  0  0  0  0  0  0  0  0
  -12.4125  -32.0782  -13.7396 C   0  0  0  0  0  0  0  0  0  0  0  0
  -13.6285  -31.4070  -14.0130 C   0  0  0  0  0  0  0  0  0  0  0  0
  -13.6783  -30.4356  -15.0071 C   0  0  0  0  0  0  0  0  0  0  0  0
  -12.5578  -30.1640  -15.7695 C   0  0  0  0  0  0  0  0  0  0  0  0
  -11.3335  -30.8204  -15.5246 C   0  0  0  0  0  0  0  0  0  0  0  0
  -11.2790  -31.7875  -14.4820 C   0  0  0  0  0  0  0  0  0  0  0  0
  -10.0436  -32.4344  -14.2542 N   0  0  0  0  0  0  0  0  0  0  0  0
   -7.9978  -33.9296  -13.5955 H   0  0  0  0  0  0  0  0  0  0  0  0
   -8.7901  -34.7750  -12.3444 H   0  0  0  0  0  0  0  0  0  0  0  0
  -14.5994  -33.4932  -11.5129 C   0  0  0  0  0  0  0  0  0  0  0  0
  -14.7771  -32.5663   -9.2271 O   0  0  0  0  0  0  0  0  0  0  0  0
  -14.9277  -32.2684  -10.5768 C   0  0  0  0  0  0  0  0  0  0  0  0
  -14.0882  -31.0201  -10.6141 C   0  0  0  0  0  0  0  0  0  0  0  0
  -16.3780  -31.8236  -10.7832 C   0  0  0  0  0  0  0  0  0  0  0  0
  -15.2716  -33.3739   -9.0171 H   0  0  0  0  0  0  0  0  0  0  0  0
  -12.9399  -35.3527   -9.8770 C   0  0  0  0  0  0  0  0  0  0  0  0
  -12.8637  -34.6311   -8.6516 O   0  0  0  0  0  0  0  0  0  0  0  0
  -11.7078  -34.1010   -8.0568 C   0  0  0  0  0  0  0  0  0  0  0  0
  -11.4775  -32.6123   -8.0906 C   0  0  0  0  0  0  0  0  0  0  0  0
  6  5  1  0  0  0
  5 14  2  0  0  0
  5  4  1  0  0  0
 14 13  1  0  0  0
  4  3  1  0  0  0
  4  7  2  0  0  0
  3  2  2  0  0  0
 13 12  2  0  0  0
 13  8  1  0  0  0
 12 11  1  0  0  0
 25 26  1  0  0  0
 25 24  1  0  0  0
  7  8  1  0  0  0
  7  1  1  0  0  0
  2 23  1  0  0  0
  2  1  1  0  0  0
  8  9  2  0  0  0
 23 24  1  0  0  0
 11 10  2  0  0  0
  1 17  1  0  0  0
  9 10  1  0  0  0
 17 19  1  0  0  0
 18 19  1  0  0  0
 19 21  1  0  0  0
 19 20  1  0  0  0
 18 22  1  0  0  0
  6 15  1  0  0  0
  6 16  1  0  0  0
M  END
> <minimizedAffinity>
-7.35594

$$$$
5GMH_RX8_A_901


 26 28  0  0  0  0  0  0  0  0999 V2000
  -14.6124  -30.9086  -12.8885 N   0  0  0  0  0  0  0  0  0  0  0  0
  -14.8761  -29.6130  -13.0851 C   0  0  0  0  0  0  0  0  0  0  0  0
  -13.8937  -29.0544  -13.7621 N   0  0  0  0  0  0  0  0  0  0  0  0
  -12.9150  -29.9849  -13.9303 C   0  0  0  0  0  0  0  0  0  0  0  0
  -11.6343  -29.8835  -14.5567 C   0  0  0  0  0  0  0  0  0  0  0  0
  -11.2911  -28.6164  -15.0428 N   0  0  0  0  0  0  0  0  0  0  0  0
  -13.3522  -31.1871  -13.3998 C   0  0  0  0  0  0  0  0  0  0  0  0
  -12.4659  -32.3394  -13.5233 C   0  0  0  0  0  0  0  0  0  0  0  0
  -12.8231  -33.5990  -12.9850 C   0  0  0  0  0  0  0  0  0  0  0  0
  -11.9684  -34.6861  -13.1328 C   0  0  0  0  0  0  0  0  0  0  0  0
  -10.7435  -34.5272  -13.7535 C   0  0  0  0  0  0  0  0  0  0  0  0
  -10.3572  -33.2832  -14.2947 C   0  0  0  0  0  0  0  0  0  0  0  0
  -11.2516  -32.1830  -14.1724 C   0  0  0  0  0  0  0  0  0  0  0  0
  -10.8447  -30.9456  -14.7201 N   0  0  0  0  0  0  0  0  0  0  0  0
  -10.4228  -28.4776  -15.4856 H   0  0  0  0  0  0  0  0  0  0  0  0
  -11.9181  -27.8641  -14.9420 H   0  0  0  0  0  0  0  0  0  0  0  0
  -15.5130  -31.7316  -12.0782 C   0  0  0  0  0  0  0  0  0  0  0  0
  -14.7744  -32.8703  -10.0110 O   0  0  0  0  0  0  0  0  0  0  0  0
  -15.1603  -31.6457  -10.5445 C   0  0  0  0  0  0  0  0  0  0  0  0
  -13.9924  -30.8271  -10.0646 C   0  0  0  0  0  0  0  0  0  0  0  0
  -16.3802  -31.1703   -9.7509 C   0  0  0  0  0  0  0  0  0  0  0  0
  -15.4378  -33.5426  -10.2317 H   0  0  0  0  0  0  0  0  0  0  0  0
  -16.1375  -28.8966  -12.7571 C   0  0  0  0  0  0  0  0  0  0  0  0
  -15.9691  -27.9249  -11.7296 O   0  0  0  0  0  0  0  0  0  0  0  0
  -16.9794  -27.1790  -11.1021 C   0  0  0  0  0  0  0  0  0  0  0  0
  -17.9632  -26.4123  -11.9475 C   0  0  0  0  0  0  0  0  0  0  0  0
  6  5  1  0  0  0
  5 14  2  0  0  0
  5  4  1  0  0  0
 14 13  1  0  0  0
  4  3  1  0  0  0
  4  7  2  0  0  0
  3  2  2  0  0  0
 13 12  2  0  0  0
 13  8  1  0  0  0
 12 11  1  0  0  0
 25 26  1  0  0  0
 25 24  1  0  0  0
  7  8  1  0  0  0
  7  1  1  0  0  0
  2 23  1  0  0  0
  2  1  1  0  0  0
  8  9  2  0  0  0
 23 24  1  0  0  0
 11 10  2  0  0  0
  1 17  1  0  0  0
  9 10  1  0  0  0
 17 19  1  0  0  0
 18 19  1  0  0  0
 19 21  1  0  0  0
 19 20  1  0  0  0
 18 22  1  0  0  0
  6 15  1  0  0  0
  6 16  1  0  0  0
M  END
> <minimizedAffinity>
-6.91314

$$$$
5GMH_RX8_A_901


 26 28  0  0  0  0  0  0  0  0999 V2000
  -14.8924  -30.9945  -12.3554 N   0  0  0  0  0  0  0  0  0  0  0  0
  -15.6157  -30.4715  -11.3604 C   0  0  0  0  0  0  0  0  0  0  0  0
  -15.2927  -29.2057  -11.1902 N   0  0  0  0  0  0  0  0  0  0  0  0
  -14.2621  -28.9168  -12.0306 C   0  0  0  0  0  0  0  0  0  0  0  0
  -13.5225  -27.7073  -12.2124 C   0  0  0  0  0  0  0  0  0  0  0  0
  -13.8675  -26.6476  -11.3653 N   0  0  0  0  0  0  0  0  0  0  0  0
  -13.9953  -30.0347  -12.8034 C   0  0  0  0  0  0  0  0  0  0  0  0
  -12.9496  -29.9202  -13.8144 C   0  0  0  0  0  0  0  0  0  0  0  0
  -12.5946  -31.0222  -14.6288 C   0  0  0  0  0  0  0  0  0  0  0  0
  -11.6071  -30.8812  -15.5979 C   0  0  0  0  0  0  0  0  0  0  0  0
  -10.9295  -29.6837  -15.7299 C   0  0  0  0  0  0  0  0  0  0  0  0
  -11.2568  -28.5695  -14.9291 C   0  0  0  0  0  0  0  0  0  0  0  0
  -12.2930  -28.7089  -13.9637 C   0  0  0  0  0  0  0  0  0  0  0  0
  -12.6042  -27.5813  -13.1710 N   0  0  0  0  0  0  0  0  0  0  0  0
  -13.3968  -25.7860  -11.4379 H   0  0  0  0  0  0  0  0  0  0  0  0
  -14.5809  -26.7640  -10.6969 H   0  0  0  0  0  0  0  0  0  0  0  0
  -15.0018  -32.4186  -12.6793 C   0  0  0  0  0  0  0  0  0  0  0  0
  -12.8637  -33.6579  -12.7719 O   0  0  0  0  0  0  0  0  0  0  0  0
  -13.9052  -33.2720  -11.9354 C   0  0  0  0  0  0  0  0  0  0  0  0
  -13.0790  -32.6737  -10.8292 C   0  0  0  0  0  0  0  0  0  0  0  0
  -14.5290  -34.5506  -11.3697 C   0  0  0  0  0  0  0  0  0  0  0  0
  -13.2265  -34.0787  -13.5669 H   0  0  0  0  0  0  0  0  0  0  0  0
  -16.7383  -31.1211  -10.6327 C   0  0  0  0  0  0  0  0  0  0  0  0
  -16.4294  -31.3905   -9.2688 O   0  0  0  0  0  0  0  0  0  0  0  0
  -16.3793  -30.4619   -8.2172 C   0  0  0  0  0  0  0  0  0  0  0  0
  -17.4836  -30.4483   -7.1920 C   0  0  0  0  0  0  0  0  0  0  0  0
  6  5  1  0  0  0
  5 14  2  0  0  0
  5  4  1  0  0  0
 14 13  1  0  0  0
  4  3  1  0  0  0
  4  7  2  0  0  0
  3  2  2  0  0  0
 13 12  2  0  0  0
 13  8  1  0  0  0
 12 11  1  0  0  0
 25 26  1  0  0  0
 25 24  1  0  0  0
  7  8  1  0  0  0
  7  1  1  0  0  0
  2 23  1  0  0  0
  2  1  1  0  0  0
  8  9  2  0  0  0
 23 24  1  0  0  0
 11 10  2  0  0  0
  1 17  1  0  0  0
  9 10  1  0  0  0
 17 19  1  0  0  0
 18 19  1  0  0  0
 19 21  1  0  0  0
 19 20  1  0  0  0
 18 22  1  0  0  0
  6 15  1  0  0  0
  6 16  1  0  0  0
M  END
> <minimizedAffinity>
-6.72405

$$$$
