2ZC9_22U_H_1501


 30 32  0  0  0  0  0  0  0  0999 V2000
   17.4583  -13.6544   22.7035 C   0  0  0  0  0  0  0  0  0  0  0  0
   16.4363  -13.0923   23.1147 O   0  0  0  0  0  0  0  0  0  0  0  0
   18.1140  -13.1691   21.6329 N   0  0  0  0  0  0  0  0  0  0  0  0
   17.7312  -11.8777   21.0802 C   0  0  0  0  0  0  0  0  0  0  0  0
   18.7158  -11.7488   19.8874 C   0  0  0  0  0  0  0  0  0  0  0  0
   19.9247  -12.6206   20.3303 C   0  0  0  0  0  0  0  0  0  0  0  0
   19.2379  -13.8510   20.9636 C   0  0  0  0  0  0  0  0  0  0  0  0
   16.4599  -15.8336   23.2027 N   0  0  0  0  0  0  0  0  0  0  0  0
   17.7284  -15.0435   23.2713 C   0  0  0  0  0  0  0  0  0  0  0  0
   16.6206  -16.7680   23.5789 H   0  0  0  0  0  0  0  0  0  0  0  0
   16.1564  -15.9056   22.2316 H   0  0  0  0  0  0  0  0  0  0  0  0
   18.2430  -14.9490   24.7217 C   0  0  0  0  0  0  0  0  0  0  0  0
   19.6048  -14.2402   24.8106 C   0  0  0  0  0  0  0  0  0  0  0  0
   20.7141  -14.6490   24.0536 C   0  0  0  0  0  0  0  0  0  0  0  0
   19.7392  -13.1367   25.6618 C   0  0  0  0  0  0  0  0  0  0  0  0
   21.9323  -13.9668   24.1897 C   0  0  0  0  0  0  0  0  0  0  0  0
   20.9593  -12.4857   25.8449 C   0  0  0  0  0  0  0  0  0  0  0  0
   22.0422  -12.8624   25.0225 C   0  0  0  0  0  0  0  0  0  0  0  0
   16.2953  -11.8803   20.5981 C   0  0  0  0  0  0  0  0  0  0  0  0
   15.9240  -12.6718   19.7394 O   0  0  0  0  0  0  0  0  0  0  0  0
   15.4508  -10.9777   21.1657 N   0  0  0  0  0  0  0  0  0  0  0  0
   15.7426  -10.4089   21.9143 H   0  0  0  0  0  0  0  0  0  0  0  0
   14.0793  -10.8796   20.6205 C   0  0  0  0  0  0  0  0  0  0  0  0
   13.0897  -10.5895   21.7665 C   0  0  0  0  0  0  0  0  0  0  0  0
   12.1602  -11.5598   22.0985 C   0  0  0  0  0  0  0  0  0  0  0  0
   11.2604  -11.3590   23.1366 C   0  0  0  0  0  0  0  0  0  0  0  0
   11.2523  -10.1481   23.8278 C   0  0  0  0  0  0  0  0  0  0  0  0
   12.1827   -9.1578   23.5010 C   0  0  0  0  0  0  0  0  0  0  0  0
   13.1032   -9.3707   22.4691 C   0  0  0  0  0  0  0  0  0  0  0  0
   12.1716   -7.6558   24.4082 Cl  0  0  0  0  0  0  0  0  0  0  0  0
 12  9  1  0  0  0
 12 13  1  0  0  0
  8  9  1  0  0  0
  9  1  1  0  0  0
  1  2  2  0  0  0
  1  3  1  0  0  0
  3  7  1  0  0  0
  3  4  1  0  0  0
  7  6  1  0  0  0
  6  5  1  0  0  0
  5  4  1  0  0  0
  4 19  1  0  0  0
 19 21  1  0  0  0
 19 20  2  0  0  0
 21 23  1  0  0  0
 23 24  1  0  0  0
 24 29  2  0  0  0
 24 25  1  0  0  0
 29 28  1  0  0  0
 28 27  2  0  0  0
 28 30  1  0  0  0
 27 26  1  0  0  0
 26 25  2  0  0  0
 13 14  2  0  0  0
 13 15  1  0  0  0
 14 16  1  0  0  0
 16 18  2  0  0  0
 18 17  1  0  0  0
 17 15  2  0  0  0
  8 10  1  0  0  0
  8 11  1  0  0  0
 21 22  1  0  0  0
M  END
> <minimizedAffinity>
-9.97772

$$$$
2ZC9_22U_H_1501


 30 32  0  0  0  0  0  0  0  0999 V2000
   17.3686  -13.5481   22.6964 C   0  0  0  0  0  0  0  0  0  0  0  0
   16.3711  -12.9251   23.0788 O   0  0  0  0  0  0  0  0  0  0  0  0
   18.0548  -13.1306   21.6163 N   0  0  0  0  0  0  0  0  0  0  0  0
   17.7377  -11.8422   21.0171 C   0  0  0  0  0  0  0  0  0  0  0  0
   18.7366  -11.8001   19.8300 C   0  0  0  0  0  0  0  0  0  0  0  0
   19.8995  -12.7121   20.3132 C   0  0  0  0  0  0  0  0  0  0  0  0
   19.1505  -13.8867   20.9809 C   0  0  0  0  0  0  0  0  0  0  0  0
   16.3929  -15.7793   22.9501 N   0  0  0  0  0  0  0  0  0  0  0  0
   17.5684  -14.9282   23.3130 C   0  0  0  0  0  0  0  0  0  0  0  0
   16.5083  -16.7086   23.3543 H   0  0  0  0  0  0  0  0  0  0  0  0
   16.3288  -15.8556   21.9350 H   0  0  0  0  0  0  0  0  0  0  0  0
   17.7242  -14.8242   24.8434 C   0  0  0  0  0  0  0  0  0  0  0  0
   18.6678  -15.9001   25.4064 C   0  0  0  0  0  0  0  0  0  0  0  0
   20.0638  -15.7515   25.3998 C   0  0  0  0  0  0  0  0  0  0  0  0
   18.1160  -17.0605   25.9626 C   0  0  0  0  0  0  0  0  0  0  0  0
   20.8698  -16.7759   25.9185 C   0  0  0  0  0  0  0  0  0  0  0  0
   18.9094  -18.1078   26.4312 C   0  0  0  0  0  0  0  0  0  0  0  0
   20.3054  -17.9101   26.4844 C   0  0  0  0  0  0  0  0  0  0  0  0
   16.3071  -11.7938   20.5218 C   0  0  0  0  0  0  0  0  0  0  0  0
   15.9307  -12.5337   19.6203 O   0  0  0  0  0  0  0  0  0  0  0  0
   15.4730  -10.9060   21.1267 N   0  0  0  0  0  0  0  0  0  0  0  0
   15.7671  -10.3814   21.9062 H   0  0  0  0  0  0  0  0  0  0  0  0
   14.1092  -10.7550   20.5742 C   0  0  0  0  0  0  0  0  0  0  0  0
   13.1109  -10.5200   21.7252 C   0  0  0  0  0  0  0  0  0  0  0  0
   12.1981  -11.5171   22.0223 C   0  0  0  0  0  0  0  0  0  0  0  0
   11.2916  -11.3661   23.0630 C   0  0  0  0  0  0  0  0  0  0  0  0
   11.2594  -10.1785   23.7929 C   0  0  0  0  0  0  0  0  0  0  0  0
   12.1727   -9.1616   23.5016 C   0  0  0  0  0  0  0  0  0  0  0  0
   13.1001   -9.3245   22.4668 C   0  0  0  0  0  0  0  0  0  0  0  0
   12.1316   -7.6901   24.4568 Cl  0  0  0  0  0  0  0  0  0  0  0  0
 12  9  1  0  0  0
 12 13  1  0  0  0
  8  9  1  0  0  0
  9  1  1  0  0  0
  1  2  2  0  0  0
  1  3  1  0  0  0
  3  7  1  0  0  0
  3  4  1  0  0  0
  7  6  1  0  0  0
  6  5  1  0  0  0
  5  4  1  0  0  0
  4 19  1  0  0  0
 19 21  1  0  0  0
 19 20  2  0  0  0
 21 23  1  0  0  0
 23 24  1  0  0  0
 24 29  2  0  0  0
 24 25  1  0  0  0
 29 28  1  0  0  0
 28 27  2  0  0  0
 28 30  1  0  0  0
 27 26  1  0  0  0
 26 25  2  0  0  0
 13 14  2  0  0  0
 13 15  1  0  0  0
 14 16  1  0  0  0
 16 18  2  0  0  0
 18 17  1  0  0  0
 17 15  2  0  0  0
  8 10  1  0  0  0
  8 11  1  0  0  0
 21 22  1  0  0  0
M  END
> <minimizedAffinity>
-8.63454

$$$$
2ZC9_22U_H_1501


 30 32  0  0  0  0  0  0  0  0999 V2000
   16.9472  -14.5922   22.1061 C   0  0  0  0  0  0  0  0  0  0  0  0
   16.3907  -13.5199   21.8419 O   0  0  0  0  0  0  0  0  0  0  0  0
   16.5944  -15.7166   21.4558 N   0  0  0  0  0  0  0  0  0  0  0  0
   15.6982  -15.6338   20.3113 C   0  0  0  0  0  0  0  0  0  0  0  0
   15.5653  -17.1286   19.9152 C   0  0  0  0  0  0  0  0  0  0  0  0
   16.8926  -17.7515   20.4328 C   0  0  0  0  0  0  0  0  0  0  0  0
   17.0718  -17.0676   21.8064 C   0  0  0  0  0  0  0  0  0  0  0  0
   17.0143  -13.9443   24.4663 N   0  0  0  0  0  0  0  0  0  0  0  0
   17.7925  -14.6087   23.3750 C   0  0  0  0  0  0  0  0  0  0  0  0
   17.5643  -13.9454   25.3253 H   0  0  0  0  0  0  0  0  0  0  0  0
   16.1429  -14.4517   24.6199 H   0  0  0  0  0  0  0  0  0  0  0  0
   19.1389  -13.8943   23.1425 C   0  0  0  0  0  0  0  0  0  0  0  0
   20.0103  -13.8687   24.4094 C   0  0  0  0  0  0  0  0  0  0  0  0
   20.6310  -15.0213   24.9162 C   0  0  0  0  0  0  0  0  0  0  0  0
   20.2075  -12.6505   25.0707 C   0  0  0  0  0  0  0  0  0  0  0  0
   21.4041  -14.9327   26.0836 C   0  0  0  0  0  0  0  0  0  0  0  0
   20.9291  -12.5615   26.2612 C   0  0  0  0  0  0  0  0  0  0  0  0
   21.6059  -13.7136   26.7145 C   0  0  0  0  0  0  0  0  0  0  0  0
   14.3526  -15.0551   20.6967 C   0  0  0  0  0  0  0  0  0  0  0  0
   13.6270  -15.6344   21.4965 O   0  0  0  0  0  0  0  0  0  0  0  0
   14.0012  -13.8726   20.1238 N   0  0  0  0  0  0  0  0  0  0  0  0
   14.6309  -13.3775   19.5514 H   0  0  0  0  0  0  0  0  0  0  0  0
   12.6412  -13.3552   20.3897 C   0  0  0  0  0  0  0  0  0  0  0  0
   12.7395  -11.9805   21.0805 C   0  0  0  0  0  0  0  0  0  0  0  0
   13.5560  -11.0149   20.5177 C   0  0  0  0  0  0  0  0  0  0  0  0
   13.6637   -9.7531   21.0868 C   0  0  0  0  0  0  0  0  0  0  0  0
   12.9831   -9.4604   22.2680 C   0  0  0  0  0  0  0  0  0  0  0  0
   12.1580  -10.4270   22.8494 C   0  0  0  0  0  0  0  0  0  0  0  0
   12.0334  -11.6908   22.2624 C   0  0  0  0  0  0  0  0  0  0  0  0
   11.2875  -10.0217   24.3183 Cl  0  0  0  0  0  0  0  0  0  0  0  0
 12  9  1  0  0  0
 12 13  1  0  0  0
  8  9  1  0  0  0
  9  1  1  0  0  0
  1  2  2  0  0  0
  1  3  1  0  0  0
  3  7  1  0  0  0
  3  4  1  0  0  0
  7  6  1  0  0  0
  6  5  1  0  0  0
  5  4  1  0  0  0
  4 19  1  0  0  0
 19 21  1  0  0  0
 19 20  2  0  0  0
 21 23  1  0  0  0
 23 24  1  0  0  0
 24 29  2  0  0  0
 24 25  1  0  0  0
 29 28  1  0  0  0
 28 27  2  0  0  0
 28 30  1  0  0  0
 27 26  1  0  0  0
 26 25  2  0  0  0
 13 14  2  0  0  0
 13 15  1  0  0  0
 14 16  1  0  0  0
 16 18  2  0  0  0
 18 17  1  0  0  0
 17 15  2  0  0  0
  8 10  1  0  0  0
  8 11  1  0  0  0
 21 22  1  0  0  0
M  END
> <minimizedAffinity>
-8.18797

$$$$
2ZC9_22U_H_1501


 30 32  0  0  0  0  0  0  0  0999 V2000
   14.9751  -12.7254   20.7866 C   0  0  0  0  0  0  0  0  0  0  0  0
   15.7326  -12.7136   21.7640 O   0  0  0  0  0  0  0  0  0  0  0  0
   14.3444  -13.8604   20.4321 N   0  0  0  0  0  0  0  0  0  0  0  0
   14.4035  -15.0199   21.3106 C   0  0  0  0  0  0  0  0  0  0  0  0
   13.5784  -16.0590   20.5054 C   0  0  0  0  0  0  0  0  0  0  0  0
   12.6274  -15.1722   19.6529 C   0  0  0  0  0  0  0  0  0  0  0  0
   13.5565  -14.0255   19.1960 C   0  0  0  0  0  0  0  0  0  0  0  0
   16.0335  -10.5427   20.4540 N   0  0  0  0  0  0  0  0  0  0  0  0
   15.0494  -11.5075   19.8721 C   0  0  0  0  0  0  0  0  0  0  0  0
   16.0974   -9.7195   19.8551 H   0  0  0  0  0  0  0  0  0  0  0  0
   16.9488  -10.9881   20.5185 H   0  0  0  0  0  0  0  0  0  0  0  0
   13.6606  -10.8555   19.7186 C   0  0  0  0  0  0  0  0  0  0  0  0
   12.9982  -10.5712   21.0771 C   0  0  0  0  0  0  0  0  0  0  0  0
   13.2693   -9.4081   21.8150 C   0  0  0  0  0  0  0  0  0  0  0  0
   12.0782  -11.4947   21.5879 C   0  0  0  0  0  0  0  0  0  0  0  0
   12.6402   -9.2139   23.0538 C   0  0  0  0  0  0  0  0  0  0  0  0
   11.4887  -11.3375   22.8425 C   0  0  0  0  0  0  0  0  0  0  0  0
   11.7155  -10.1295   23.5354 C   0  0  0  0  0  0  0  0  0  0  0  0
   15.8270  -15.4973   21.5100 C   0  0  0  0  0  0  0  0  0  0  0  0
   16.4976  -15.8829   20.5595 O   0  0  0  0  0  0  0  0  0  0  0  0
   16.3171  -15.4679   22.7784 N   0  0  0  0  0  0  0  0  0  0  0  0
   15.7968  -15.0747   23.5159 H   0  0  0  0  0  0  0  0  0  0  0  0
   17.6581  -16.0465   23.0126 C   0  0  0  0  0  0  0  0  0  0  0  0
   18.6723  -14.9117   23.2585 C   0  0  0  0  0  0  0  0  0  0  0  0
   19.2974  -14.3358   22.1661 C   0  0  0  0  0  0  0  0  0  0  0  0
   20.2025  -13.2957   22.3296 C   0  0  0  0  0  0  0  0  0  0  0  0
   20.5298  -12.8510   23.6099 C   0  0  0  0  0  0  0  0  0  0  0  0
   19.9091  -13.4257   24.7224 C   0  0  0  0  0  0  0  0  0  0  0  0
   18.9808  -14.4589   24.5543 C   0  0  0  0  0  0  0  0  0  0  0  0
   20.3154  -12.8253   26.3205 Cl  0  0  0  0  0  0  0  0  0  0  0  0
 12  9  1  0  0  0
 12 13  1  0  0  0
  8  9  1  0  0  0
  9  1  1  0  0  0
  1  2  2  0  0  0
  1  3  1  0  0  0
  3  7  1  0  0  0
  3  4  1  0  0  0
  7  6  1  0  0  0
  6  5  1  0  0  0
  5  4  1  0  0  0
  4 19  1  0  0  0
 19 21  1  0  0  0
 19 20  2  0  0  0
 21 23  1  0  0  0
 23 24  1  0  0  0
 24 29  2  0  0  0
 24 25  1  0  0  0
 29 28  1  0  0  0
 28 27  2  0  0  0
 28 30  1  0  0  0
 27 26  1  0  0  0
 26 25  2  0  0  0
 13 14  2  0  0  0
 13 15  1  0  0  0
 14 16  1  0  0  0
 16 18  2  0  0  0
 18 17  1  0  0  0
 17 15  2  0  0  0
  8 10  1  0  0  0
  8 11  1  0  0  0
 21 22  1  0  0  0
M  END
> <minimizedAffinity>
-8.18350

$$$$
2ZC9_22U_H_1501


 30 32  0  0  0  0  0  0  0  0999 V2000
   17.4300  -13.3654   22.4641 C   0  0  0  0  0  0  0  0  0  0  0  0
   16.3443  -12.8110   22.6722 O   0  0  0  0  0  0  0  0  0  0  0  0
   18.2330  -12.9322   21.4746 N   0  0  0  0  0  0  0  0  0  0  0  0
   17.9120  -11.6946   20.7782 C   0  0  0  0  0  0  0  0  0  0  0  0
   19.0668  -11.6142   19.7443 C   0  0  0  0  0  0  0  0  0  0  0  0
   20.2114  -12.4134   20.4290 C   0  0  0  0  0  0  0  0  0  0  0  0
   19.4621  -13.6202   21.0364 C   0  0  0  0  0  0  0  0  0  0  0  0
   16.3538  -15.4662   23.1148 N   0  0  0  0  0  0  0  0  0  0  0  0
   17.6395  -14.7031   23.1652 C   0  0  0  0  0  0  0  0  0  0  0  0
   16.4740  -16.3661   23.5798 H   0  0  0  0  0  0  0  0  0  0  0  0
   16.0870  -15.6190   22.1422 H   0  0  0  0  0  0  0  0  0  0  0  0
   18.0987  -14.4894   24.6215 C   0  0  0  0  0  0  0  0  0  0  0  0
   19.5598  -14.0173   24.7073 C   0  0  0  0  0  0  0  0  0  0  0  0
   19.9193  -12.7928   25.2923 C   0  0  0  0  0  0  0  0  0  0  0  0
   20.5694  -14.8451   24.2017 C   0  0  0  0  0  0  0  0  0  0  0  0
   21.2699  -12.4150   25.3286 C   0  0  0  0  0  0  0  0  0  0  0  0
   21.9086  -14.4551   24.1841 C   0  0  0  0  0  0  0  0  0  0  0  0
   22.2593  -13.2569   24.8414 C   0  0  0  0  0  0  0  0  0  0  0  0
   16.5689  -11.7775   20.0830 C   0  0  0  0  0  0  0  0  0  0  0  0
   15.8163  -10.8107   20.0564 O   0  0  0  0  0  0  0  0  0  0  0  0
   16.2506  -12.9602   19.4916 N   0  0  0  0  0  0  0  0  0  0  0  0
   16.9010  -13.6979   19.4469 H   0  0  0  0  0  0  0  0  0  0  0  0
   14.8946  -13.1010   18.9178 C   0  0  0  0  0  0  0  0  0  0  0  0
   14.3632  -14.5213   19.1957 C   0  0  0  0  0  0  0  0  0  0  0  0
   15.2526  -15.4848   19.6387 C   0  0  0  0  0  0  0  0  0  0  0  0
   14.8227  -16.7735   19.9249 C   0  0  0  0  0  0  0  0  0  0  0  0
   13.4891  -17.1253   19.7202 C   0  0  0  0  0  0  0  0  0  0  0  0
   12.5805  -16.1637   19.2698 C   0  0  0  0  0  0  0  0  0  0  0  0
   13.0113  -14.8596   19.0029 C   0  0  0  0  0  0  0  0  0  0  0  0
   10.9015  -16.6248   19.0513 Cl  0  0  0  0  0  0  0  0  0  0  0  0
 12  9  1  0  0  0
 12 13  1  0  0  0
  8  9  1  0  0  0
  9  1  1  0  0  0
  1  2  2  0  0  0
  1  3  1  0  0  0
  3  7  1  0  0  0
  3  4  1  0  0  0
  7  6  1  0  0  0
  6  5  1  0  0  0
  5  4  1  0  0  0
  4 19  1  0  0  0
 19 21  1  0  0  0
 19 20  2  0  0  0
 21 23  1  0  0  0
 23 24  1  0  0  0
 24 29  2  0  0  0
 24 25  1  0  0  0
 29 28  1  0  0  0
 28 27  2  0  0  0
 28 30  1  0  0  0
 27 26  1  0  0  0
 26 25  2  0  0  0
 13 14  2  0  0  0
 13 15  1  0  0  0
 14 16  1  0  0  0
 16 18  2  0  0  0
 18 17  1  0  0  0
 17 15  2  0  0  0
  8 10  1  0  0  0
  8 11  1  0  0  0
 21 22  1  0  0  0
M  END
> <minimizedAffinity>
-8.07232

$$$$
2ZC9_22U_H_1501


 30 32  0  0  0  0  0  0  0  0999 V2000
   17.5179  -13.6880   22.5878 C   0  0  0  0  0  0  0  0  0  0  0  0
   16.4773  -13.1655   23.0043 O   0  0  0  0  0  0  0  0  0  0  0  0
   18.2084  -13.1157   21.5841 N   0  0  0  0  0  0  0  0  0  0  0  0
   17.8359  -11.7863   21.1220 C   0  0  0  0  0  0  0  0  0  0  0  0
   18.8623  -11.5580   19.9804 C   0  0  0  0  0  0  0  0  0  0  0  0
   20.0610  -12.4564   20.3970 C   0  0  0  0  0  0  0  0  0  0  0  0
   19.3611  -13.7367   20.9047 C   0  0  0  0  0  0  0  0  0  0  0  0
   19.1165  -15.1571   23.7196 N   0  0  0  0  0  0  0  0  0  0  0  0
   17.7779  -15.1166   23.0530 C   0  0  0  0  0  0  0  0  0  0  0  0
   19.3089  -16.1066   24.0385 H   0  0  0  0  0  0  0  0  0  0  0  0
   19.1176  -14.5232   24.5188 H   0  0  0  0  0  0  0  0  0  0  0  0
   17.7230  -16.0959   21.8633 C   0  0  0  0  0  0  0  0  0  0  0  0
   16.2894  -16.3040   21.3470 C   0  0  0  0  0  0  0  0  0  0  0  0
   15.9111  -15.9831   20.0337 C   0  0  0  0  0  0  0  0  0  0  0  0
   15.3318  -16.8502   22.2101 C   0  0  0  0  0  0  0  0  0  0  0  0
   14.5836  -16.1864   19.6283 C   0  0  0  0  0  0  0  0  0  0  0  0
   13.9975  -17.0056   21.8340 C   0  0  0  0  0  0  0  0  0  0  0  0
   13.6525  -16.7477   20.4904 C   0  0  0  0  0  0  0  0  0  0  0  0
   16.4187  -11.7573   20.5885 C   0  0  0  0  0  0  0  0  0  0  0  0
   16.0826  -12.4864   19.6626 O   0  0  0  0  0  0  0  0  0  0  0  0
   15.5499  -10.8992   21.1875 N   0  0  0  0  0  0  0  0  0  0  0  0
   15.8115  -10.3846   21.9849 H   0  0  0  0  0  0  0  0  0  0  0  0
   14.1987  -10.7652   20.6006 C   0  0  0  0  0  0  0  0  0  0  0  0
   13.1715  -10.5224   21.7243 C   0  0  0  0  0  0  0  0  0  0  0  0
   12.2385  -11.5093   21.9914 C   0  0  0  0  0  0  0  0  0  0  0  0
   11.3051  -11.3512   23.0070 C   0  0  0  0  0  0  0  0  0  0  0  0
   11.2671  -10.1663   23.7409 C   0  0  0  0  0  0  0  0  0  0  0  0
   12.2007   -9.1597   23.4797 C   0  0  0  0  0  0  0  0  0  0  0  0
   13.1547   -9.3299   22.4705 C   0  0  0  0  0  0  0  0  0  0  0  0
   12.1509   -7.6916   24.4398 Cl  0  0  0  0  0  0  0  0  0  0  0  0
 12  9  1  0  0  0
 12 13  1  0  0  0
  8  9  1  0  0  0
  9  1  1  0  0  0
  1  2  2  0  0  0
  1  3  1  0  0  0
  3  7  1  0  0  0
  3  4  1  0  0  0
  7  6  1  0  0  0
  6  5  1  0  0  0
  5  4  1  0  0  0
  4 19  1  0  0  0
 19 21  1  0  0  0
 19 20  2  0  0  0
 21 23  1  0  0  0
 23 24  1  0  0  0
 24 29  2  0  0  0
 24 25  1  0  0  0
 29 28  1  0  0  0
 28 27  2  0  0  0
 28 30  1  0  0  0
 27 26  1  0  0  0
 26 25  2  0  0  0
 13 14  2  0  0  0
 13 15  1  0  0  0
 14 16  1  0  0  0
 16 18  2  0  0  0
 18 17  1  0  0  0
 17 15  2  0  0  0
  8 10  1  0  0  0
  8 11  1  0  0  0
 21 22  1  0  0  0
M  END
> <minimizedAffinity>
-7.89937

$$$$
2ZC9_22U_H_1501


 30 32  0  0  0  0  0  0  0  0999 V2000
   17.2924  -13.2844   22.3934 C   0  0  0  0  0  0  0  0  0  0  0  0
   16.2431  -12.6363   22.4846 O   0  0  0  0  0  0  0  0  0  0  0  0
   18.2524  -12.9011   21.5314 N   0  0  0  0  0  0  0  0  0  0  0  0
   18.1365  -11.6197   20.8499 C   0  0  0  0  0  0  0  0  0  0  0  0
   19.4180  -11.6194   19.9742 C   0  0  0  0  0  0  0  0  0  0  0  0
   20.3880  -12.5416   20.7657 C   0  0  0  0  0  0  0  0  0  0  0  0
   19.4612  -13.6891   21.2249 C   0  0  0  0  0  0  0  0  0  0  0  0
   16.0254  -15.3598   22.6799 N   0  0  0  0  0  0  0  0  0  0  0  0
   17.2886  -14.6550   23.0615 C   0  0  0  0  0  0  0  0  0  0  0  0
   16.0042  -16.2807   23.1181 H   0  0  0  0  0  0  0  0  0  0  0  0
   15.9876  -15.4647   21.6660 H   0  0  0  0  0  0  0  0  0  0  0  0
   17.4028  -14.5154   24.5928 C   0  0  0  0  0  0  0  0  0  0  0  0
   18.8640  -14.5388   25.0716 C   0  0  0  0  0  0  0  0  0  0  0  0
   19.5783  -15.7352   25.2426 C   0  0  0  0  0  0  0  0  0  0  0  0
   19.5117  -13.3244   25.3281 C   0  0  0  0  0  0  0  0  0  0  0  0
   20.9058  -15.6885   25.6936 C   0  0  0  0  0  0  0  0  0  0  0  0
   20.8128  -13.2691   25.8282 C   0  0  0  0  0  0  0  0  0  0  0  0
   21.5387  -14.4753   25.9233 C   0  0  0  0  0  0  0  0  0  0  0  0
   16.8928  -11.5564   19.9878 C   0  0  0  0  0  0  0  0  0  0  0  0
   16.1784  -10.5606   19.9906 O   0  0  0  0  0  0  0  0  0  0  0  0
   16.6195  -12.6423   19.2159 N   0  0  0  0  0  0  0  0  0  0  0  0
   17.2485  -13.3976   19.1593 H   0  0  0  0  0  0  0  0  0  0  0  0
   15.3455  -12.6506   18.4643 C   0  0  0  0  0  0  0  0  0  0  0  0
   14.2272  -13.2298   19.3536 C   0  0  0  0  0  0  0  0  0  0  0  0
   13.9443  -14.5816   19.2631 C   0  0  0  0  0  0  0  0  0  0  0  0
   12.9623  -15.1587   20.0570 C   0  0  0  0  0  0  0  0  0  0  0  0
   12.2121  -14.3660   20.9247 C   0  0  0  0  0  0  0  0  0  0  0  0
   12.4843  -12.9988   21.0239 C   0  0  0  0  0  0  0  0  0  0  0  0
   13.4893  -12.4231   20.2390 C   0  0  0  0  0  0  0  0  0  0  0  0
   11.5469  -12.0300   22.1473 Cl  0  0  0  0  0  0  0  0  0  0  0  0
 12  9  1  0  0  0
 12 13  1  0  0  0
  8  9  1  0  0  0
  9  1  1  0  0  0
  1  2  2  0  0  0
  1  3  1  0  0  0
  3  7  1  0  0  0
  3  4  1  0  0  0
  7  6  1  0  0  0
  6  5  1  0  0  0
  5  4  1  0  0  0
  4 19  1  0  0  0
 19 21  1  0  0  0
 19 20  2  0  0  0
 21 23  1  0  0  0
 23 24  1  0  0  0
 24 29  2  0  0  0
 24 25  1  0  0  0
 29 28  1  0  0  0
 28 27  2  0  0  0
 28 30  1  0  0  0
 27 26  1  0  0  0
 26 25  2  0  0  0
 13 14  2  0  0  0
 13 15  1  0  0  0
 14 16  1  0  0  0
 16 18  2  0  0  0
 18 17  1  0  0  0
 17 15  2  0  0  0
  8 10  1  0  0  0
  8 11  1  0  0  0
 21 22  1  0  0  0
M  END
> <minimizedAffinity>
-7.86422

$$$$
2ZC9_22U_H_1501


 30 32  0  0  0  0  0  0  0  0999 V2000
   15.5594  -12.4906   21.5772 C   0  0  0  0  0  0  0  0  0  0  0  0
   15.4590  -13.7140   21.7279 O   0  0  0  0  0  0  0  0  0  0  0  0
   14.4582  -11.7167   21.5684 N   0  0  0  0  0  0  0  0  0  0  0  0
   13.1710  -12.2941   21.9282 C   0  0  0  0  0  0  0  0  0  0  0  0
   12.2277  -11.0731   21.7598 C   0  0  0  0  0  0  0  0  0  0  0  0
   13.1730   -9.8606   21.9919 C   0  0  0  0  0  0  0  0  0  0  0  0
   14.4510  -10.2804   21.2322 C   0  0  0  0  0  0  0  0  0  0  0  0
   16.7407  -11.3016   19.7924 N   0  0  0  0  0  0  0  0  0  0  0  0
   16.9206  -11.9869   21.1099 C   0  0  0  0  0  0  0  0  0  0  0  0
   17.6422  -10.9569   19.4625 H   0  0  0  0  0  0  0  0  0  0  0  0
   16.0965  -10.5183   19.9018 H   0  0  0  0  0  0  0  0  0  0  0  0
   17.9230  -13.1528   20.9942 C   0  0  0  0  0  0  0  0  0  0  0  0
   18.8203  -13.2739   22.2372 C   0  0  0  0  0  0  0  0  0  0  0  0
   18.3017  -13.5451   23.5132 C   0  0  0  0  0  0  0  0  0  0  0  0
   20.2048  -13.1275   22.0893 C   0  0  0  0  0  0  0  0  0  0  0  0
   19.1735  -13.6316   24.6089 C   0  0  0  0  0  0  0  0  0  0  0  0
   21.0743  -13.1579   23.1798 C   0  0  0  0  0  0  0  0  0  0  0  0
   20.5449  -13.5043   24.4409 C   0  0  0  0  0  0  0  0  0  0  0  0
   12.7788  -13.4140   20.9868 C   0  0  0  0  0  0  0  0  0  0  0  0
   12.5982  -13.1961   19.7945 O   0  0  0  0  0  0  0  0  0  0  0  0
   12.6483  -14.6565   21.5245 N   0  0  0  0  0  0  0  0  0  0  0  0
   12.8811  -14.8308   22.4650 H   0  0  0  0  0  0  0  0  0  0  0  0
   12.1447  -15.7369   20.6488 C   0  0  0  0  0  0  0  0  0  0  0  0
   12.7651  -17.0806   21.0808 C   0  0  0  0  0  0  0  0  0  0  0  0
   12.0463  -18.2423   20.8583 C   0  0  0  0  0  0  0  0  0  0  0  0
   12.5677  -19.4806   21.2079 C   0  0  0  0  0  0  0  0  0  0  0  0
   13.8097  -19.5621   21.8365 C   0  0  0  0  0  0  0  0  0  0  0  0
   14.5450  -18.3969   22.0707 C   0  0  0  0  0  0  0  0  0  0  0  0
   14.0275  -17.1517   21.6977 C   0  0  0  0  0  0  0  0  0  0  0  0
   16.1193  -18.5308   22.8342 Cl  0  0  0  0  0  0  0  0  0  0  0  0
 12  9  1  0  0  0
 12 13  1  0  0  0
  8  9  1  0  0  0
  9  1  1  0  0  0
  1  2  2  0  0  0
  1  3  1  0  0  0
  3  7  1  0  0  0
  3  4  1  0  0  0
  7  6  1  0  0  0
  6  5  1  0  0  0
  5  4  1  0  0  0
  4 19  1  0  0  0
 19 21  1  0  0  0
 19 20  2  0  0  0
 21 23  1  0  0  0
 23 24  1  0  0  0
 24 29  2  0  0  0
 24 25  1  0  0  0
 29 28  1  0  0  0
 28 27  2  0  0  0
 28 30  1  0  0  0
 27 26  1  0  0  0
 26 25  2  0  0  0
 13 14  2  0  0  0
 13 15  1  0  0  0
 14 16  1  0  0  0
 16 18  2  0  0  0
 18 17  1  0  0  0
 17 15  2  0  0  0
  8 10  1  0  0  0
  8 11  1  0  0  0
 21 22  1  0  0  0
M  END
> <minimizedAffinity>
-7.56820

$$$$
2ZC9_22U_H_1501


 30 32  0  0  0  0  0  0  0  0999 V2000
   16.8334  -15.7370   22.4800 C   0  0  0  0  0  0  0  0  0  0  0  0
   16.7520  -15.4121   21.2895 O   0  0  0  0  0  0  0  0  0  0  0  0
   16.1201  -16.7780   22.9482 N   0  0  0  0  0  0  0  0  0  0  0  0
   15.4049  -17.6369   22.0152 C   0  0  0  0  0  0  0  0  0  0  0  0
   14.7340  -18.6499   22.9810 C   0  0  0  0  0  0  0  0  0  0  0  0
   15.6808  -18.6434   24.2144 C   0  0  0  0  0  0  0  0  0  0  0  0
   16.0155  -17.1437   24.3734 C   0  0  0  0  0  0  0  0  0  0  0  0
   16.6718  -13.5005   23.4630 N   0  0  0  0  0  0  0  0  0  0  0  0
   17.5189  -14.7319   23.3991 C   0  0  0  0  0  0  0  0  0  0  0  0
   17.1146  -12.8146   24.0745 H   0  0  0  0  0  0  0  0  0  0  0  0
   15.7511  -13.7399   23.8311 H   0  0  0  0  0  0  0  0  0  0  0  0
   18.9353  -14.4024   22.8868 C   0  0  0  0  0  0  0  0  0  0  0  0
   19.8300  -13.8122   23.9897 C   0  0  0  0  0  0  0  0  0  0  0  0
   19.3878  -13.6608   25.3134 C   0  0  0  0  0  0  0  0  0  0  0  0
   21.1378  -13.4297   23.6678 C   0  0  0  0  0  0  0  0  0  0  0  0
   20.2499  -13.1044   26.2701 C   0  0  0  0  0  0  0  0  0  0  0  0
   21.9840  -12.8260   24.5982 C   0  0  0  0  0  0  0  0  0  0  0  0
   21.5497  -12.7498   25.9384 C   0  0  0  0  0  0  0  0  0  0  0  0
   14.3630  -16.8651   21.2322 C   0  0  0  0  0  0  0  0  0  0  0  0
   13.3659  -16.4182   21.7872 O   0  0  0  0  0  0  0  0  0  0  0  0
   14.5928  -16.6895   19.9032 N   0  0  0  0  0  0  0  0  0  0  0  0
   15.4386  -16.9787   19.4907 H   0  0  0  0  0  0  0  0  0  0  0  0
   13.5295  -16.0494   19.0986 C   0  0  0  0  0  0  0  0  0  0  0  0
   13.9438  -14.6049   18.7543 C   0  0  0  0  0  0  0  0  0  0  0  0
   14.7480  -14.3939   17.6478 C   0  0  0  0  0  0  0  0  0  0  0  0
   15.1321  -13.1113   17.2803 C   0  0  0  0  0  0  0  0  0  0  0  0
   14.7487  -12.0190   18.0575 C   0  0  0  0  0  0  0  0  0  0  0  0
   13.9398  -12.2175   19.1797 C   0  0  0  0  0  0  0  0  0  0  0  0
   13.5354  -13.5086   19.5359 C   0  0  0  0  0  0  0  0  0  0  0  0
   13.4451  -10.8221   20.1219 Cl  0  0  0  0  0  0  0  0  0  0  0  0
 12  9  1  0  0  0
 12 13  1  0  0  0
  8  9  1  0  0  0
  9  1  1  0  0  0
  1  2  2  0  0  0
  1  3  1  0  0  0
  3  7  1  0  0  0
  3  4  1  0  0  0
  7  6  1  0  0  0
  6  5  1  0  0  0
  5  4  1  0  0  0
  4 19  1  0  0  0
 19 21  1  0  0  0
 19 20  2  0  0  0
 21 23  1  0  0  0
 23 24  1  0  0  0
 24 29  2  0  0  0
 24 25  1  0  0  0
 29 28  1  0  0  0
 28 27  2  0  0  0
 28 30  1  0  0  0
 27 26  1  0  0  0
 26 25  2  0  0  0
 13 14  2  0  0  0
 13 15  1  0  0  0
 14 16  1  0  0  0
 16 18  2  0  0  0
 18 17  1  0  0  0
 17 15  2  0  0  0
  8 10  1  0  0  0
  8 11  1  0  0  0
 21 22  1  0  0  0
M  END
> <minimizedAffinity>
-7.44838

$$$$
2ZC9_22U_H_1501


 30 32  0  0  0  0  0  0  0  0999 V2000
   14.0436  -12.2510   20.0440 C   0  0  0  0  0  0  0  0  0  0  0  0
   13.5526  -12.9838   20.9108 O   0  0  0  0  0  0  0  0  0  0  0  0
   14.5595  -12.7829   18.9203 N   0  0  0  0  0  0  0  0  0  0  0  0
   14.3657  -14.1984   18.6404 C   0  0  0  0  0  0  0  0  0  0  0  0
   15.1274  -14.3541   17.2971 C   0  0  0  0  0  0  0  0  0  0  0  0
   15.0565  -12.9276   16.6824 C   0  0  0  0  0  0  0  0  0  0  0  0
   15.3130  -12.0209   17.9066 C   0  0  0  0  0  0  0  0  0  0  0  0
   14.9524  -10.8105   21.8029 N   0  0  0  0  0  0  0  0  0  0  0  0
   14.2955  -10.8056   20.4589 C   0  0  0  0  0  0  0  0  0  0  0  0
   15.1295   -9.8505   22.0983 H   0  0  0  0  0  0  0  0  0  0  0  0
   15.8357  -11.3177   21.7477 H   0  0  0  0  0  0  0  0  0  0  0  0
   12.9753  -10.0098   20.4918 C   0  0  0  0  0  0  0  0  0  0  0  0
   12.4362   -9.8364   21.9216 C   0  0  0  0  0  0  0  0  0  0  0  0
   12.7514   -8.7198   22.7119 C   0  0  0  0  0  0  0  0  0  0  0  0
   11.5860  -10.8165   22.4478 C   0  0  0  0  0  0  0  0  0  0  0  0
   12.2361   -8.6273   24.0134 C   0  0  0  0  0  0  0  0  0  0  0  0
   11.1124  -10.7609   23.7588 C   0  0  0  0  0  0  0  0  0  0  0  0
   11.3785   -9.5976   24.5116 C   0  0  0  0  0  0  0  0  0  0  0  0
   14.9818  -15.0696   19.7153 C   0  0  0  0  0  0  0  0  0  0  0  0
   14.4268  -16.0986   20.0826 O   0  0  0  0  0  0  0  0  0  0  0  0
   16.1694  -14.6607   20.2372 N   0  0  0  0  0  0  0  0  0  0  0  0
   16.6442  -13.8799   19.8710 H   0  0  0  0  0  0  0  0  0  0  0  0
   16.7238  -15.4286   21.3734 C   0  0  0  0  0  0  0  0  0  0  0  0
   17.9144  -14.6607   21.9812 C   0  0  0  0  0  0  0  0  0  0  0  0
   18.8558  -14.1158   21.1253 C   0  0  0  0  0  0  0  0  0  0  0  0
   19.9355  -13.3960   21.6188 C   0  0  0  0  0  0  0  0  0  0  0  0
   20.1097  -13.2560   22.9951 C   0  0  0  0  0  0  0  0  0  0  0  0
   19.1690  -13.8041   23.8715 C   0  0  0  0  0  0  0  0  0  0  0  0
   18.0697  -14.5103   23.3714 C   0  0  0  0  0  0  0  0  0  0  0  0
   19.3952  -13.5856   25.5979 Cl  0  0  0  0  0  0  0  0  0  0  0  0
 12  9  1  0  0  0
 12 13  1  0  0  0
  8  9  1  0  0  0
  9  1  1  0  0  0
  1  2  2  0  0  0
  1  3  1  0  0  0
  3  7  1  0  0  0
  3  4  1  0  0  0
  7  6  1  0  0  0
  6  5  1  0  0  0
  5  4  1  0  0  0
  4 19  1  0  0  0
 19 21  1  0  0  0
 19 20  2  0  0  0
 21 23  1  0  0  0
 23 24  1  0  0  0
 24 29  2  0  0  0
 24 25  1  0  0  0
 29 28  1  0  0  0
 28 27  2  0  0  0
 28 30  1  0  0  0
 27 26  1  0  0  0
 26 25  2  0  0  0
 13 14  2  0  0  0
 13 15  1  0  0  0
 14 16  1  0  0  0
 16 18  2  0  0  0
 18 17  1  0  0  0
 17 15  2  0  0  0
  8 10  1  0  0  0
  8 11  1  0  0  0
 21 22  1  0  0  0
M  END
> <minimizedAffinity>
-7.39410

$$$$
