5NDF_LU2_A_608


 25 27  0  0  0  0  0  0  0  0999 V2000
   22.0337  -43.4433  -34.8368 C   0  0  0  0  0  0  0  0  0  0  0  0
   22.0524  -44.8558  -32.8378 O   0  0  0  0  0  0  0  0  0  0  0  0
   21.4422  -44.2916  -33.8709 C   0  0  0  0  0  0  0  0  0  0  0  0
   18.1738  -44.4526  -35.0265 O   0  0  0  0  0  0  0  0  0  0  0  0
   20.1481  -44.6280  -33.9222 C   0  0  0  0  0  0  0  0  0  0  0  0
   18.1882  -43.2891  -37.1393 O   0  0  0  0  0  0  0  0  0  0  0  0
   19.4711  -44.1049  -34.9636 C   0  0  0  0  0  0  0  0  0  0  0  0
   21.8318  -41.9985  -36.9527 O   0  0  0  0  0  0  0  0  0  0  0  0
   20.0312  -43.2489  -35.9384 C   0  0  0  0  0  0  0  0  0  0  0  0
   21.3515  -42.8819  -35.9283 C   0  0  0  0  0  0  0  0  0  0  0  0
   19.2686  -42.8161  -36.9794 C   0  0  0  0  0  0  0  0  0  0  0  0
   19.7222  -42.1749  -38.0736 C   0  0  0  0  0  0  0  0  0  0  0  0
   20.9823  -41.6811  -38.0315 C   0  0  0  0  0  0  0  0  0  0  0  0
   22.9642  -44.6991  -32.6895 H   0  0  0  0  0  0  0  0  0  0  0  0
   17.8089  -45.0206  -34.3767 H   0  0  0  0  0  0  0  0  0  0  0  0
   23.7885  -40.7385  -41.7514 O   0  0  0  0  0  0  0  0  0  0  0  0
   22.2614  -38.7745  -42.5655 O   0  0  0  0  0  0  0  0  0  0  0  0
   21.3235  -40.9794  -39.1960 C   0  0  0  0  0  0  0  0  0  0  0  0
   22.4740  -41.2461  -39.9086 C   0  0  0  0  0  0  0  0  0  0  0  0
   22.7189  -40.4913  -41.0287 C   0  0  0  0  0  0  0  0  0  0  0  0
   21.9042  -39.4604  -41.4512 C   0  0  0  0  0  0  0  0  0  0  0  0
   20.7587  -39.1491  -40.7550 C   0  0  0  0  0  0  0  0  0  0  0  0
   20.4785  -39.9062  -39.6292 C   0  0  0  0  0  0  0  0  0  0  0  0
   24.3718  -41.4288  -41.5040 H   0  0  0  0  0  0  0  0  0  0  0  0
   23.0455  -39.0027  -43.0248 H   0  0  0  0  0  0  0  0  0  0  0  0
  1  3  2  0  0  0
  1 10  1  0  0  0
  2  3  1  0  0  0
  3  5  1  0  0  0
  7  4  1  0  0  0
  5  7  2  0  0  0
 11  6  2  0  0  0
  9  7  1  0  0  0
  8 10  1  0  0  0
  8 13  1  0  0  0
 10  9  2  0  0  0
  9 11  1  0  0  0
 20 16  1  0  0  0
 17 21  1  0  0  0
 12 11  1  0  0  0
 13 12  2  0  0  0
 18 13  1  0  0  0
 23 18  2  0  0  0
 18 19  1  0  0  0
 20 19  2  0  0  0
 21 20  1  0  0  0
 22 21  2  0  0  0
 22 23  1  0  0  0
  2 14  1  0  0  0
  4 15  1  0  0  0
 16 24  1  0  0  0
 17 25  1  0  0  0
M  END
> <minimizedAffinity>
-7.16253

$$$$
5NDF_LU2_A_608


 25 27  0  0  0  0  0  0  0  0999 V2000
   18.2941  -44.6855  -36.6276 C   0  0  0  0  0  0  0  0  0  0  0  0
   17.1088  -46.2209  -35.1347 O   0  0  0  0  0  0  0  0  0  0  0  0
   18.1038  -45.3909  -35.4158 C   0  0  0  0  0  0  0  0  0  0  0  0
   20.8181  -44.2838  -33.5582 O   0  0  0  0  0  0  0  0  0  0  0  0
   18.9490  -45.2686  -34.3856 C   0  0  0  0  0  0  0  0  0  0  0  0
   21.8532  -42.5702  -34.9036 O   0  0  0  0  0  0  0  0  0  0  0  0
   19.9748  -44.4203  -34.5965 C   0  0  0  0  0  0  0  0  0  0  0  0
   19.6647  -43.0491  -38.0591 O   0  0  0  0  0  0  0  0  0  0  0  0
   20.1962  -43.7089  -35.7971 C   0  0  0  0  0  0  0  0  0  0  0  0
   19.3551  -43.7995  -36.8753 C   0  0  0  0  0  0  0  0  0  0  0  0
   21.2379  -42.8375  -35.8868 C   0  0  0  0  0  0  0  0  0  0  0  0
   21.4410  -41.9541  -36.8830 C   0  0  0  0  0  0  0  0  0  0  0  0
   20.7156  -42.1111  -38.0154 C   0  0  0  0  0  0  0  0  0  0  0  0
   16.4470  -46.3930  -35.7753 H   0  0  0  0  0  0  0  0  0  0  0  0
   20.6653  -44.7586  -32.7649 H   0  0  0  0  0  0  0  0  0  0  0  0
   23.7064  -40.1327  -41.1366 O   0  0  0  0  0  0  0  0  0  0  0  0
   21.9610  -38.3164  -41.8483 O   0  0  0  0  0  0  0  0  0  0  0  0
   21.0556  -41.1782  -39.0049 C   0  0  0  0  0  0  0  0  0  0  0  0
   22.3059  -41.1408  -39.5862 C   0  0  0  0  0  0  0  0  0  0  0  0
   22.5376  -40.1784  -40.5372 C   0  0  0  0  0  0  0  0  0  0  0  0
   21.6080  -39.2279  -40.9080 C   0  0  0  0  0  0  0  0  0  0  0  0
   20.3567  -39.2184  -40.3353 C   0  0  0  0  0  0  0  0  0  0  0  0
   20.0902  -40.1893  -39.3838 C   0  0  0  0  0  0  0  0  0  0  0  0
   24.3697  -40.7574  -40.9180 H   0  0  0  0  0  0  0  0  0  0  0  0
   22.8183  -38.3406  -42.2257 H   0  0  0  0  0  0  0  0  0  0  0  0
  1  3  2  0  0  0
  1 10  1  0  0  0
  2  3  1  0  0  0
  3  5  1  0  0  0
  7  4  1  0  0  0
  5  7  2  0  0  0
 11  6  2  0  0  0
  9  7  1  0  0  0
  8 10  1  0  0  0
  8 13  1  0  0  0
 10  9  2  0  0  0
  9 11  1  0  0  0
 20 16  1  0  0  0
 17 21  1  0  0  0
 12 11  1  0  0  0
 13 12  2  0  0  0
 18 13  1  0  0  0
 23 18  2  0  0  0
 18 19  1  0  0  0
 20 19  2  0  0  0
 21 20  1  0  0  0
 22 21  2  0  0  0
 22 23  1  0  0  0
  2 14  1  0  0  0
  4 15  1  0  0  0
 16 24  1  0  0  0
 17 25  1  0  0  0
M  END
> <minimizedAffinity>
-6.81453

$$$$
5NDF_LU2_A_608


 25 27  0  0  0  0  0  0  0  0999 V2000
   19.3771  -38.7744  -40.6470 C   0  0  0  0  0  0  0  0  0  0  0  0
   19.3492  -37.1487  -42.4768 O   0  0  0  0  0  0  0  0  0  0  0  0
   19.9505  -38.0623  -41.7270 C   0  0  0  0  0  0  0  0  0  0  0  0
   23.1442  -39.4178  -41.8083 O   0  0  0  0  0  0  0  0  0  0  0  0
   21.2142  -38.2656  -42.1174 C   0  0  0  0  0  0  0  0  0  0  0  0
   23.1165  -41.2084  -40.1926 O   0  0  0  0  0  0  0  0  0  0  0  0
   21.8786  -39.2005  -41.4096 C   0  0  0  0  0  0  0  0  0  0  0  0
   19.5846  -40.5174  -38.7697 O   0  0  0  0  0  0  0  0  0  0  0  0
   21.3368  -39.9214  -40.3219 C   0  0  0  0  0  0  0  0  0  0  0  0
   20.0472  -39.7497  -39.8909 C   0  0  0  0  0  0  0  0  0  0  0  0
   22.0802  -40.8814  -39.7069 C   0  0  0  0  0  0  0  0  0  0  0  0
   21.6239  -41.7733  -38.8066 C   0  0  0  0  0  0  0  0  0  0  0  0
   20.4048  -41.5455  -38.2633 C   0  0  0  0  0  0  0  0  0  0  0  0
   18.4583  -36.9146  -42.3055 H   0  0  0  0  0  0  0  0  0  0  0  0
   23.4971  -38.9362  -42.5305 H   0  0  0  0  0  0  0  0  0  0  0  0
   21.2474  -44.1239  -34.3592 O   0  0  0  0  0  0  0  0  0  0  0  0
   18.9670  -45.3942  -34.5537 O   0  0  0  0  0  0  0  0  0  0  0  0
   20.0617  -42.4988  -37.2946 C   0  0  0  0  0  0  0  0  0  0  0  0
   20.9099  -42.8410  -36.2621 C   0  0  0  0  0  0  0  0  0  0  0  0
   20.4801  -43.7958  -35.3745 C   0  0  0  0  0  0  0  0  0  0  0  0
   19.2733  -44.4564  -35.4845 C   0  0  0  0  0  0  0  0  0  0  0  0
   18.4088  -44.1590  -36.5130 C   0  0  0  0  0  0  0  0  0  0  0  0
   18.8104  -43.1869  -37.4145 C   0  0  0  0  0  0  0  0  0  0  0  0
   22.0762  -43.7025  -34.2429 H   0  0  0  0  0  0  0  0  0  0  0  0
   19.5699  -45.5816  -33.8613 H   0  0  0  0  0  0  0  0  0  0  0  0
  1  3  2  0  0  0
  1 10  1  0  0  0
  2  3  1  0  0  0
  3  5  1  0  0  0
  7  4  1  0  0  0
  5  7  2  0  0  0
 11  6  2  0  0  0
  9  7  1  0  0  0
  8 10  1  0  0  0
  8 13  1  0  0  0
 10  9  2  0  0  0
  9 11  1  0  0  0
 20 16  1  0  0  0
 17 21  1  0  0  0
 12 11  1  0  0  0
 13 12  2  0  0  0
 18 13  1  0  0  0
 23 18  2  0  0  0
 18 19  1  0  0  0
 20 19  2  0  0  0
 21 20  1  0  0  0
 22 21  2  0  0  0
 22 23  1  0  0  0
  2 14  1  0  0  0
  4 15  1  0  0  0
 16 24  1  0  0  0
 17 25  1  0  0  0
M  END
> <minimizedAffinity>
-6.77368

$$$$
5NDF_LU2_A_608


 25 27  0  0  0  0  0  0  0  0999 V2000
   18.7507  -44.2634  -36.9449 C   0  0  0  0  0  0  0  0  0  0  0  0
   17.7867  -45.9149  -35.4169 O   0  0  0  0  0  0  0  0  0  0  0  0
   18.3412  -44.7388  -35.6765 C   0  0  0  0  0  0  0  0  0  0  0  0
   19.1311  -42.0310  -33.6546 O   0  0  0  0  0  0  0  0  0  0  0  0
   18.4726  -44.0009  -34.5680 C   0  0  0  0  0  0  0  0  0  0  0  0
   19.8345  -40.2904  -35.1689 O   0  0  0  0  0  0  0  0  0  0  0  0
   19.0109  -42.7809  -34.7642 C   0  0  0  0  0  0  0  0  0  0  0  0
   19.7882  -42.4174  -38.4015 O   0  0  0  0  0  0  0  0  0  0  0  0
   19.4370  -42.2818  -36.0155 C   0  0  0  0  0  0  0  0  0  0  0  0
   19.3175  -42.9996  -37.1767 C   0  0  0  0  0  0  0  0  0  0  0  0
   19.9220  -41.0135  -36.1102 C   0  0  0  0  0  0  0  0  0  0  0  0
   20.1667  -40.3483  -37.2555 C   0  0  0  0  0  0  0  0  0  0  0  0
   20.1905  -41.0668  -38.4030 C   0  0  0  0  0  0  0  0  0  0  0  0
   17.6394  -46.5268  -36.1110 H   0  0  0  0  0  0  0  0  0  0  0  0
   18.8465  -42.3683  -32.8281 H   0  0  0  0  0  0  0  0  0  0  0  0
   19.1223  -38.1682  -42.0165 O   0  0  0  0  0  0  0  0  0  0  0  0
   21.6025  -38.0879  -42.8497 O   0  0  0  0  0  0  0  0  0  0  0  0
   20.5179  -40.2851  -39.5195 C   0  0  0  0  0  0  0  0  0  0  0  0
   19.5675  -39.5928  -40.2407 C   0  0  0  0  0  0  0  0  0  0  0  0
   19.9944  -38.8670  -41.3247 C   0  0  0  0  0  0  0  0  0  0  0  0
   21.3060  -38.8284  -41.7528 C   0  0  0  0  0  0  0  0  0  0  0  0
   22.2802  -39.5231  -41.0729 C   0  0  0  0  0  0  0  0  0  0  0  0
   21.8796  -40.2513  -39.9646 C   0  0  0  0  0  0  0  0  0  0  0  0
   18.2199  -38.1634  -41.7642 H   0  0  0  0  0  0  0  0  0  0  0  0
   20.9240  -37.6224  -43.2981 H   0  0  0  0  0  0  0  0  0  0  0  0
  1  3  2  0  0  0
  1 10  1  0  0  0
  2  3  1  0  0  0
  3  5  1  0  0  0
  7  4  1  0  0  0
  5  7  2  0  0  0
 11  6  2  0  0  0
  9  7  1  0  0  0
  8 10  1  0  0  0
  8 13  1  0  0  0
 10  9  2  0  0  0
  9 11  1  0  0  0
 20 16  1  0  0  0
 17 21  1  0  0  0
 12 11  1  0  0  0
 13 12  2  0  0  0
 18 13  1  0  0  0
 23 18  2  0  0  0
 18 19  1  0  0  0
 20 19  2  0  0  0
 21 20  1  0  0  0
 22 21  2  0  0  0
 22 23  1  0  0  0
  2 14  1  0  0  0
  4 15  1  0  0  0
 16 24  1  0  0  0
 17 25  1  0  0  0
M  END
> <minimizedAffinity>
-6.48148

$$$$
5NDF_LU2_A_608


 25 27  0  0  0  0  0  0  0  0999 V2000
   22.2398  -40.7166  -39.9980 C   0  0  0  0  0  0  0  0  0  0  0  0
   23.4065  -39.1327  -41.4545 O   0  0  0  0  0  0  0  0  0  0  0  0
   22.3411  -39.5409  -40.7789 C   0  0  0  0  0  0  0  0  0  0  0  0
   19.1881  -38.1615  -40.3325 O   0  0  0  0  0  0  0  0  0  0  0  0
   21.3211  -38.6838  -40.9031 C   0  0  0  0  0  0  0  0  0  0  0  0
   18.1085  -39.5604  -38.6908 O   0  0  0  0  0  0  0  0  0  0  0  0
   20.2103  -39.0279  -40.2217 C   0  0  0  0  0  0  0  0  0  0  0  0
   20.8647  -42.2687  -38.4796 O   0  0  0  0  0  0  0  0  0  0  0  0
   20.0759  -40.1981  -39.4413 C   0  0  0  0  0  0  0  0  0  0  0  0
   21.0945  -41.1008  -39.2818 C   0  0  0  0  0  0  0  0  0  0  0  0
   18.9244  -40.4248  -38.7520 C   0  0  0  0  0  0  0  0  0  0  0  0
   18.7404  -41.3798  -37.8201 C   0  0  0  0  0  0  0  0  0  0  0  0
   19.6688  -42.3621  -37.7398 C   0  0  0  0  0  0  0  0  0  0  0  0
   24.1901  -39.6463  -41.4486 H   0  0  0  0  0  0  0  0  0  0  0  0
   19.2842  -37.3874  -40.8517 H   0  0  0  0  0  0  0  0  0  0  0  0
   20.4141  -44.7692  -33.7085 O   0  0  0  0  0  0  0  0  0  0  0  0
   18.3172  -46.2910  -34.0821 O   0  0  0  0  0  0  0  0  0  0  0  0
   19.3421  -43.3331  -36.7830 C   0  0  0  0  0  0  0  0  0  0  0  0
   20.1204  -43.5617  -35.6673 C   0  0  0  0  0  0  0  0  0  0  0  0
   19.7159  -44.5451  -34.7992 C   0  0  0  0  0  0  0  0  0  0  0  0
   18.6055  -45.3390  -35.0042 C   0  0  0  0  0  0  0  0  0  0  0  0
   17.8158  -45.1566  -36.1163 C   0  0  0  0  0  0  0  0  0  0  0  0
   18.1919  -44.1593  -37.0012 C   0  0  0  0  0  0  0  0  0  0  0  0
   21.1763  -44.2555  -33.5263 H   0  0  0  0  0  0  0  0  0  0  0  0
   18.8682  -46.3986  -33.3318 H   0  0  0  0  0  0  0  0  0  0  0  0
  1  3  2  0  0  0
  1 10  1  0  0  0
  2  3  1  0  0  0
  3  5  1  0  0  0
  7  4  1  0  0  0
  5  7  2  0  0  0
 11  6  2  0  0  0
  9  7  1  0  0  0
  8 10  1  0  0  0
  8 13  1  0  0  0
 10  9  2  0  0  0
  9 11  1  0  0  0
 20 16  1  0  0  0
 17 21  1  0  0  0
 12 11  1  0  0  0
 13 12  2  0  0  0
 18 13  1  0  0  0
 23 18  2  0  0  0
 18 19  1  0  0  0
 20 19  2  0  0  0
 21 20  1  0  0  0
 22 21  2  0  0  0
 22 23  1  0  0  0
  2 14  1  0  0  0
  4 15  1  0  0  0
 16 24  1  0  0  0
 17 25  1  0  0  0
M  END
> <minimizedAffinity>
-6.47472

$$$$
5NDF_LU2_A_608


 25 27  0  0  0  0  0  0  0  0999 V2000
   15.7056  -39.4429  -40.0090 C   0  0  0  0  0  0  0  0  0  0  0  0
   14.4144  -38.2464  -41.7098 O   0  0  0  0  0  0  0  0  0  0  0  0
   15.5572  -38.6233  -41.1529 C   0  0  0  0  0  0  0  0  0  0  0  0
   18.8720  -38.0295  -41.9913 O   0  0  0  0  0  0  0  0  0  0  0  0
   16.6123  -38.1388  -41.8180 C   0  0  0  0  0  0  0  0  0  0  0  0
   20.1639  -39.4112  -40.4948 O   0  0  0  0  0  0  0  0  0  0  0  0
   17.8094  -38.5027  -41.3169 C   0  0  0  0  0  0  0  0  0  0  0  0
   17.2165  -40.6361  -38.3064 O   0  0  0  0  0  0  0  0  0  0  0  0
   17.9898  -39.3118  -40.1727 C   0  0  0  0  0  0  0  0  0  0  0  0
   16.9394  -39.8335  -39.4638 C   0  0  0  0  0  0  0  0  0  0  0  0
   19.2454  -39.6613  -39.7803 C   0  0  0  0  0  0  0  0  0  0  0  0
   19.5498  -40.5820  -38.8456 C   0  0  0  0  0  0  0  0  0  0  0  0
   18.5491  -41.0095  -38.0398 C   0  0  0  0  0  0  0  0  0  0  0  0
   13.5992  -38.5205  -41.3379 H   0  0  0  0  0  0  0  0  0  0  0  0
   18.7451  -37.4935  -42.7493 H   0  0  0  0  0  0  0  0  0  0  0  0
   19.5167  -45.3766  -36.4297 O   0  0  0  0  0  0  0  0  0  0  0  0
   20.2404  -44.4850  -34.0773 O   0  0  0  0  0  0  0  0  0  0  0  0
   18.9931  -41.9147  -37.0660 C   0  0  0  0  0  0  0  0  0  0  0  0
   19.0114  -43.2775  -37.2780 C   0  0  0  0  0  0  0  0  0  0  0  0
   19.4541  -44.0757  -36.2528 C   0  0  0  0  0  0  0  0  0  0  0  0
   19.8374  -43.5942  -35.0174 C   0  0  0  0  0  0  0  0  0  0  0  0
   19.8125  -42.2427  -34.7594 C   0  0  0  0  0  0  0  0  0  0  0  0
   19.3853  -41.4122  -35.7826 C   0  0  0  0  0  0  0  0  0  0  0  0
   19.2666  -45.7502  -37.2518 H   0  0  0  0  0  0  0  0  0  0  0  0
   20.2498  -45.4012  -34.2736 H   0  0  0  0  0  0  0  0  0  0  0  0
  1  3  2  0  0  0
  1 10  1  0  0  0
  2  3  1  0  0  0
  3  5  1  0  0  0
  7  4  1  0  0  0
  5  7  2  0  0  0
 11  6  2  0  0  0
  9  7  1  0  0  0
  8 10  1  0  0  0
  8 13  1  0  0  0
 10  9  2  0  0  0
  9 11  1  0  0  0
 20 16  1  0  0  0
 17 21  1  0  0  0
 12 11  1  0  0  0
 13 12  2  0  0  0
 18 13  1  0  0  0
 23 18  2  0  0  0
 18 19  1  0  0  0
 20 19  2  0  0  0
 21 20  1  0  0  0
 22 21  2  0  0  0
 22 23  1  0  0  0
  2 14  1  0  0  0
  4 15  1  0  0  0
 16 24  1  0  0  0
 17 25  1  0  0  0
M  END
> <minimizedAffinity>
-6.32611

$$$$
5NDF_LU2_A_608


 25 27  0  0  0  0  0  0  0  0999 V2000
   19.5074  -38.5418  -40.9522 C   0  0  0  0  0  0  0  0  0  0  0  0
   19.0838  -36.6769  -42.4800 O   0  0  0  0  0  0  0  0  0  0  0  0
   18.6887  -37.5865  -41.5998 C   0  0  0  0  0  0  0  0  0  0  0  0
   15.5917  -38.2955  -40.2034 O   0  0  0  0  0  0  0  0  0  0  0  0
   17.3747  -37.5025  -41.3611 C   0  0  0  0  0  0  0  0  0  0  0  0
   16.0252  -39.9477  -38.5004 O   0  0  0  0  0  0  0  0  0  0  0  0
   16.9091  -38.3866  -40.4566 C   0  0  0  0  0  0  0  0  0  0  0  0
   19.7696  -40.4993  -39.3076 O   0  0  0  0  0  0  0  0  0  0  0  0
   17.6991  -39.3570  -39.8003 C   0  0  0  0  0  0  0  0  0  0  0  0
   19.0481  -39.4762  -40.0098 C   0  0  0  0  0  0  0  0  0  0  0  0
   17.1363  -40.1698  -38.8648 C   0  0  0  0  0  0  0  0  0  0  0  0
   17.8046  -40.9855  -38.0269 C   0  0  0  0  0  0  0  0  0  0  0  0
   19.1091  -41.2273  -38.2976 C   0  0  0  0  0  0  0  0  0  0  0  0
   19.9846  -36.6306  -42.7335 H   0  0  0  0  0  0  0  0  0  0  0  0
   15.0739  -37.6496  -40.6423 H   0  0  0  0  0  0  0  0  0  0  0  0
   19.2399  -45.3494  -35.9330 O   0  0  0  0  0  0  0  0  0  0  0  0
   21.4350  -44.6967  -34.6652 O   0  0  0  0  0  0  0  0  0  0  0  0
   19.6841  -42.1380  -37.4005 C   0  0  0  0  0  0  0  0  0  0  0  0
   19.1045  -43.3558  -37.1113 C   0  0  0  0  0  0  0  0  0  0  0  0
   19.7450  -44.1678  -36.2088 C   0  0  0  0  0  0  0  0  0  0  0  0
   20.9049  -43.8150  -35.5490 C   0  0  0  0  0  0  0  0  0  0  0  0
   21.5020  -42.5995  -35.7938 C   0  0  0  0  0  0  0  0  0  0  0  0
   20.8853  -41.7666  -36.7131 C   0  0  0  0  0  0  0  0  0  0  0  0
   18.4534  -45.6330  -36.3561 H   0  0  0  0  0  0  0  0  0  0  0  0
   21.0124  -45.5190  -34.5132 H   0  0  0  0  0  0  0  0  0  0  0  0
  1  3  2  0  0  0
  1 10  1  0  0  0
  2  3  1  0  0  0
  3  5  1  0  0  0
  7  4  1  0  0  0
  5  7  2  0  0  0
 11  6  2  0  0  0
  9  7  1  0  0  0
  8 10  1  0  0  0
  8 13  1  0  0  0
 10  9  2  0  0  0
  9 11  1  0  0  0
 20 16  1  0  0  0
 17 21  1  0  0  0
 12 11  1  0  0  0
 13 12  2  0  0  0
 18 13  1  0  0  0
 23 18  2  0  0  0
 18 19  1  0  0  0
 20 19  2  0  0  0
 21 20  1  0  0  0
 22 21  2  0  0  0
 22 23  1  0  0  0
  2 14  1  0  0  0
  4 15  1  0  0  0
 16 24  1  0  0  0
 17 25  1  0  0  0
M  END
> <minimizedAffinity>
-5.90515

$$$$
5NDF_LU2_A_608


 25 27  0  0  0  0  0  0  0  0999 V2000
   17.6042  -37.8930  -36.3337 C   0  0  0  0  0  0  0  0  0  0  0  0
   15.9653  -37.5368  -34.5508 O   0  0  0  0  0  0  0  0  0  0  0  0
   16.2961  -37.8515  -35.7957 C   0  0  0  0  0  0  0  0  0  0  0  0
   14.4074  -38.8231  -38.5403 O   0  0  0  0  0  0  0  0  0  0  0  0
   15.2190  -38.1535  -36.5300 C   0  0  0  0  0  0  0  0  0  0  0  0
   16.0132  -39.4375  -40.2320 O   0  0  0  0  0  0  0  0  0  0  0  0
   15.4862  -38.5050  -37.8034 C   0  0  0  0  0  0  0  0  0  0  0  0
   19.1824  -38.3097  -38.3189 O   0  0  0  0  0  0  0  0  0  0  0  0
   16.7793  -38.5475  -38.3714 C   0  0  0  0  0  0  0  0  0  0  0  0
   17.9103  -38.2514  -37.6565 C   0  0  0  0  0  0  0  0  0  0  0  0
   16.9420  -38.9656  -39.6565 C   0  0  0  0  0  0  0  0  0  0  0  0
   18.1183  -39.2478  -40.2489 C   0  0  0  0  0  0  0  0  0  0  0  0
   19.2474  -38.8389  -39.6234 C   0  0  0  0  0  0  0  0  0  0  0  0
   16.6310  -37.3049  -33.9335 H   0  0  0  0  0  0  0  0  0  0  0  0
   13.5529  -38.7928  -38.1571 H   0  0  0  0  0  0  0  0  0  0  0  0
   22.0191  -38.5205  -43.4726 O   0  0  0  0  0  0  0  0  0  0  0  0
   23.8201  -40.1299  -42.4634 O   0  0  0  0  0  0  0  0  0  0  0  0
   20.4044  -39.1279  -40.3602 C   0  0  0  0  0  0  0  0  0  0  0  0
   20.6104  -38.6393  -41.6335 C   0  0  0  0  0  0  0  0  0  0  0  0
   21.7731  -38.9935  -42.2713 C   0  0  0  0  0  0  0  0  0  0  0  0
   22.7182  -39.8398  -41.7276 C   0  0  0  0  0  0  0  0  0  0  0  0
   22.5389  -40.3654  -40.4685 C   0  0  0  0  0  0  0  0  0  0  0  0
   21.3812  -40.0112  -39.7952 C   0  0  0  0  0  0  0  0  0  0  0  0
   21.4067  -37.9421  -43.8829 H   0  0  0  0  0  0  0  0  0  0  0  0
   23.9227  -39.7613  -43.3187 H   0  0  0  0  0  0  0  0  0  0  0  0
  1  3  2  0  0  0
  1 10  1  0  0  0
  2  3  1  0  0  0
  3  5  1  0  0  0
  7  4  1  0  0  0
  5  7  2  0  0  0
 11  6  2  0  0  0
  9  7  1  0  0  0
  8 10  1  0  0  0
  8 13  1  0  0  0
 10  9  2  0  0  0
  9 11  1  0  0  0
 20 16  1  0  0  0
 17 21  1  0  0  0
 12 11  1  0  0  0
 13 12  2  0  0  0
 18 13  1  0  0  0
 23 18  2  0  0  0
 18 19  1  0  0  0
 20 19  2  0  0  0
 21 20  1  0  0  0
 22 21  2  0  0  0
 22 23  1  0  0  0
  2 14  1  0  0  0
  4 15  1  0  0  0
 16 24  1  0  0  0
 17 25  1  0  0  0
M  END
> <minimizedAffinity>
-5.83846

$$$$
5NDF_LU2_A_608


 25 27  0  0  0  0  0  0  0  0999 V2000
   19.1358  -42.9864  -35.4082 C   0  0  0  0  0  0  0  0  0  0  0  0
   19.3491  -44.9769  -36.8168 O   0  0  0  0  0  0  0  0  0  0  0  0
   19.6503  -44.2618  -35.7416 C   0  0  0  0  0  0  0  0  0  0  0  0
   21.7246  -44.8818  -33.0293 O   0  0  0  0  0  0  0  0  0  0  0  0
   20.5241  -44.9001  -34.9545 C   0  0  0  0  0  0  0  0  0  0  0  0
   21.3310  -43.0601  -31.4981 O   0  0  0  0  0  0  0  0  0  0  0  0
   20.8578  -44.2369  -33.8297 C   0  0  0  0  0  0  0  0  0  0  0  0
   19.0347  -40.9747  -33.8120 O   0  0  0  0  0  0  0  0  0  0  0  0
   20.3682  -42.9602  -33.4738 C   0  0  0  0  0  0  0  0  0  0  0  0
   19.4691  -42.2721  -34.2460 C   0  0  0  0  0  0  0  0  0  0  0  0
   20.7321  -42.4008  -32.2876 C   0  0  0  0  0  0  0  0  0  0  0  0
   20.1866  -41.2992  -31.7370 C   0  0  0  0  0  0  0  0  0  0  0  0
   19.4034  -40.5276  -32.5273 C   0  0  0  0  0  0  0  0  0  0  0  0
   18.7457  -44.6401  -37.4496 H   0  0  0  0  0  0  0  0  0  0  0  0
   22.0453  -45.7282  -33.2715 H   0  0  0  0  0  0  0  0  0  0  0  0
   16.9928  -36.4356  -32.3162 O   0  0  0  0  0  0  0  0  0  0  0  0
   17.7332  -35.9816  -29.8468 O   0  0  0  0  0  0  0  0  0  0  0  0
   18.9448  -39.3775  -31.8703 C   0  0  0  0  0  0  0  0  0  0  0  0
   18.1560  -38.4345  -32.4958 C   0  0  0  0  0  0  0  0  0  0  0  0
   17.7716  -37.3388  -31.7639 C   0  0  0  0  0  0  0  0  0  0  0  0
   18.1647  -37.1116  -30.4604 C   0  0  0  0  0  0  0  0  0  0  0  0
   18.9693  -38.0179  -29.8086 C   0  0  0  0  0  0  0  0  0  0  0  0
   19.3590  -39.1417  -30.5189 C   0  0  0  0  0  0  0  0  0  0  0  0
   16.7000  -36.5464  -33.1994 H   0  0  0  0  0  0  0  0  0  0  0  0
   17.1858  -35.3774  -30.3088 H   0  0  0  0  0  0  0  0  0  0  0  0
  1  3  2  0  0  0
  1 10  1  0  0  0
  2  3  1  0  0  0
  3  5  1  0  0  0
  7  4  1  0  0  0
  5  7  2  0  0  0
 11  6  2  0  0  0
  9  7  1  0  0  0
  8 10  1  0  0  0
  8 13  1  0  0  0
 10  9  2  0  0  0
  9 11  1  0  0  0
 20 16  1  0  0  0
 17 21  1  0  0  0
 12 11  1  0  0  0
 13 12  2  0  0  0
 18 13  1  0  0  0
 23 18  2  0  0  0
 18 19  1  0  0  0
 20 19  2  0  0  0
 21 20  1  0  0  0
 22 21  2  0  0  0
 22 23  1  0  0  0
  2 14  1  0  0  0
  4 15  1  0  0  0
 16 24  1  0  0  0
 17 25  1  0  0  0
M  END
> <minimizedAffinity>
-5.78916

$$$$
5NDF_LU2_A_608


 25 27  0  0  0  0  0  0  0  0999 V2000
   15.7789  -36.8452  -35.5577 C   0  0  0  0  0  0  0  0  0  0  0  0
   14.5969  -35.2970  -37.0402 O   0  0  0  0  0  0  0  0  0  0  0  0
   15.2220  -35.5925  -35.9088 C   0  0  0  0  0  0  0  0  0  0  0  0
   16.0169  -33.6944  -33.1143 O   0  0  0  0  0  0  0  0  0  0  0  0
   15.2900  -34.5342  -35.0929 C   0  0  0  0  0  0  0  0  0  0  0  0
   17.4115  -35.1172  -31.7548 O   0  0  0  0  0  0  0  0  0  0  0  0
   15.9340  -34.7597  -33.9306 C   0  0  0  0  0  0  0  0  0  0  0  0
   17.0343  -38.3307  -33.8777 O   0  0  0  0  0  0  0  0  0  0  0  0
   16.4924  -36.0000  -33.5482 C   0  0  0  0  0  0  0  0  0  0  0  0
   16.4508  -37.1084  -34.3530 C   0  0  0  0  0  0  0  0  0  0  0  0
   17.1669  -36.1058  -32.3707 C   0  0  0  0  0  0  0  0  0  0  0  0
   17.9150  -37.1572  -31.9844 C   0  0  0  0  0  0  0  0  0  0  0  0
   17.7842  -38.3086  -32.6847 C   0  0  0  0  0  0  0  0  0  0  0  0
   14.4831  -35.9545  -37.6981 H   0  0  0  0  0  0  0  0  0  0  0  0
   15.6443  -32.8749  -33.3743 H   0  0  0  0  0  0  0  0  0  0  0  0
   20.3660  -42.2843  -33.0432 O   0  0  0  0  0  0  0  0  0  0  0  0
   20.7501  -42.4176  -30.4574 O   0  0  0  0  0  0  0  0  0  0  0  0
   18.5586  -39.3502  -32.1553 C   0  0  0  0  0  0  0  0  0  0  0  0
   19.0863  -40.3521  -32.9430 C   0  0  0  0  0  0  0  0  0  0  0  0
   19.8201  -41.3314  -32.3212 C   0  0  0  0  0  0  0  0  0  0  0  0
   20.0198  -41.3895  -30.9567 C   0  0  0  0  0  0  0  0  0  0  0  0
   19.4914  -40.4206  -30.1346 C   0  0  0  0  0  0  0  0  0  0  0  0
   18.7597  -39.4108  -30.7378 C   0  0  0  0  0  0  0  0  0  0  0  0
   20.2580  -42.2871  -33.9740 H   0  0  0  0  0  0  0  0  0  0  0  0
   21.1009  -43.0668  -31.0347 H   0  0  0  0  0  0  0  0  0  0  0  0
  1  3  2  0  0  0
  1 10  1  0  0  0
  2  3  1  0  0  0
  3  5  1  0  0  0
  7  4  1  0  0  0
  5  7  2  0  0  0
 11  6  2  0  0  0
  9  7  1  0  0  0
  8 10  1  0  0  0
  8 13  1  0  0  0
 10  9  2  0  0  0
  9 11  1  0  0  0
 20 16  1  0  0  0
 17 21  1  0  0  0
 12 11  1  0  0  0
 13 12  2  0  0  0
 18 13  1  0  0  0
 23 18  2  0  0  0
 18 19  1  0  0  0
 20 19  2  0  0  0
 21 20  1  0  0  0
 22 21  2  0  0  0
 22 23  1  0  0  0
  2 14  1  0  0  0
  4 15  1  0  0  0
 16 24  1  0  0  0
 17 25  1  0  0  0
M  END
> <minimizedAffinity>
-5.78370

$$$$
