4RJ8_3QS_A_1102


 30 34  0  0  0  0  0  0  0  0999 V2000
  -54.7093    1.9447  -23.5146 N   0  0  0  0  0  0  0  0  0  0  0  0
  -55.1105    2.8368  -23.6258 H   0  0  0  0  0  0  0  0  0  0  0  0
  -54.0635    1.7014  -22.2942 C   0  0  0  0  0  0  0  0  0  0  0  0
  -53.0977    0.7026  -22.1295 C   0  0  0  0  0  0  0  0  0  0  0  0
  -52.4957    0.5238  -20.8730 C   0  0  0  0  0  0  0  0  0  0  0  0
  -52.8693    1.4108  -19.8240 C   0  0  0  0  0  0  0  0  0  0  0  0
  -52.0907    1.0197  -18.6472 C   0  0  0  0  0  0  0  0  0  0  0  0
  -51.3500   -0.0301  -19.0177 C   0  0  0  0  0  0  0  0  0  0  0  0
  -51.5669   -0.3466  -20.3495 N   0  0  0  0  0  0  0  0  0  0  0  0
  -53.8082    2.4100  -20.0872 C   0  0  0  0  0  0  0  0  0  0  0  0
  -54.3759    2.5102  -21.2801 N   0  0  0  0  0  0  0  0  0  0  0  0
  -50.9010   -1.4333  -21.1058 C   0  0  0  0  0  0  0  0  0  0  0  0
  -49.9282   -0.8478  -22.1439 C   0  0  0  0  0  0  0  0  0  0  0  0
  -48.6603   -0.5239  -21.3233 C   0  0  0  0  0  0  0  0  0  0  0  0
  -48.5468   -1.7418  -20.3721 C   0  0  0  0  0  0  0  0  0  0  0  0
  -49.9798   -2.3145  -20.2389 C   0  0  0  0  0  0  0  0  0  0  0  0
  -56.0950    0.2261  -26.4566 C   0  0  0  0  0  0  0  0  0  0  0  0
  -53.9672   -0.5962  -25.9564 C   0  0  0  0  0  0  0  0  0  0  0  0
  -56.0071    1.0945  -25.3724 C   0  0  0  0  0  0  0  0  0  0  0  0
  -54.8469    1.0711  -24.5828 C   0  0  0  0  0  0  0  0  0  0  0  0
  -55.0764   -0.5882  -26.7084 N   0  0  0  0  0  0  0  0  0  0  0  0
  -53.8714    0.2325  -24.9152 N   0  0  0  0  0  0  0  0  0  0  0  0
  -51.2231   -2.2519  -27.9578 C   0  0  0  0  0  0  0  0  0  0  0  0
  -52.5059   -1.4577  -27.6702 C   0  0  0  0  0  0  0  0  0  0  0  0
  -51.8343   -1.3520  -25.1935 C   0  0  0  0  0  0  0  0  0  0  0  0
  -50.4446   -1.8982  -25.5656 C   0  0  0  0  0  0  0  0  0  0  0  0
  -50.1303   -1.6656  -27.0513 C   0  0  0  0  0  0  0  0  0  0  0  0
  -52.9099   -1.4744  -26.2284 N   0  0  0  0  0  0  0  0  0  0  0  0
  -48.3344   -3.3601  -27.3977 C   0  0  0  0  0  0  0  0  0  0  0  0
  -48.7834   -1.9908  -27.4242 O   0  0  0  0  0  0  0  0  0  0  0  0
 19 17  2  0  0  0
 19 20  1  0  0  0
 17 21  1  0  0  0
  1 20  1  0  0  0
  1  3  1  0  0  0
 11  3  2  0  0  0
 11 10  1  0  0  0
 20 22  2  0  0  0
  3  4  1  0  0  0
 10  6  2  0  0  0
 21 18  2  0  0  0
 22 18  1  0  0  0
  4  5  2  0  0  0
  6  5  1  0  0  0
  6  7  1  0  0  0
 18 28  1  0  0  0
  5  9  1  0  0  0
  7  8  2  0  0  0
 24 28  1  0  0  0
 24 23  1  0  0  0
 28 25  1  0  0  0
 23 27  1  0  0  0
  9  8  1  0  0  0
  9 12  1  0  0  0
 26 25  1  0  0  0
 26 27  1  0  0  0
 12 16  1  0  0  0
 12 13  1  0  0  0
 27 30  1  0  0  0
 16 15  1  0  0  0
 30 29  1  0  0  0
 13 14  1  0  0  0
 15 14  1  0  0  0
  1  2  1  0  0  0
M  END
> <minimizedAffinity>
-8.87730

$$$$
4RJ8_3QS_A_1102


 30 34  0  0  0  0  0  0  0  0999 V2000
  -52.9571    1.0997  -23.6075 N   0  0  0  0  0  0  0  0  0  0  0  0
  -53.2409    2.0187  -23.8173 H   0  0  0  0  0  0  0  0  0  0  0  0
  -52.8684    0.2140  -24.6907 C   0  0  0  0  0  0  0  0  0  0  0  0
  -51.6649   -0.3698  -25.1005 C   0  0  0  0  0  0  0  0  0  0  0  0
  -51.6610   -1.2493  -26.1957 C   0  0  0  0  0  0  0  0  0  0  0  0
  -52.9078   -1.5446  -26.8163 C   0  0  0  0  0  0  0  0  0  0  0  0
  -52.6234   -2.4859  -27.9012 C   0  0  0  0  0  0  0  0  0  0  0  0
  -51.3006   -2.6813  -27.8932 C   0  0  0  0  0  0  0  0  0  0  0  0
  -50.6972   -1.9575  -26.8768 N   0  0  0  0  0  0  0  0  0  0  0  0
  -54.0685   -0.9532  -26.3141 C   0  0  0  0  0  0  0  0  0  0  0  0
  -54.0118   -0.0988  -25.3031 N   0  0  0  0  0  0  0  0  0  0  0  0
  -49.2510   -1.9504  -26.5532 C   0  0  0  0  0  0  0  0  0  0  0  0
  -49.0155   -2.4912  -25.1323 C   0  0  0  0  0  0  0  0  0  0  0  0
  -49.0577   -4.0253  -25.3071 C   0  0  0  0  0  0  0  0  0  0  0  0
  -48.2894   -4.2405  -26.6354 C   0  0  0  0  0  0  0  0  0  0  0  0
  -48.4186   -2.9132  -27.4232 C   0  0  0  0  0  0  0  0  0  0  0  0
  -52.9895    1.2984  -19.9348 C   0  0  0  0  0  0  0  0  0  0  0  0
  -51.6981   -0.5134  -20.6440 C   0  0  0  0  0  0  0  0  0  0  0  0
  -53.2527    1.6223  -21.2626 C   0  0  0  0  0  0  0  0  0  0  0  0
  -52.6904    0.8279  -22.2740 C   0  0  0  0  0  0  0  0  0  0  0  0
  -52.2217    0.2469  -19.6727 N   0  0  0  0  0  0  0  0  0  0  0  0
  -51.9443   -0.2131  -21.9205 N   0  0  0  0  0  0  0  0  0  0  0  0
  -50.7149   -3.8467  -19.1610 C   0  0  0  0  0  0  0  0  0  0  0  0
  -51.4969   -2.5384  -19.3505 C   0  0  0  0  0  0  0  0  0  0  0  0
  -50.3015   -2.1992  -21.5981 C   0  0  0  0  0  0  0  0  0  0  0  0
  -49.7542   -3.6343  -21.5032 C   0  0  0  0  0  0  0  0  0  0  0  0
  -50.5976   -4.4938  -20.5493 C   0  0  0  0  0  0  0  0  0  0  0  0
  -50.8768   -1.6092  -20.3476 N   0  0  0  0  0  0  0  0  0  0  0  0
  -49.8134   -6.5232  -21.7673 C   0  0  0  0  0  0  0  0  0  0  0  0
  -50.2492   -5.8858  -20.5503 O   0  0  0  0  0  0  0  0  0  0  0  0
 19 17  2  0  0  0
 19 20  1  0  0  0
 17 21  1  0  0  0
  1 20  1  0  0  0
  1  3  1  0  0  0
 11  3  2  0  0  0
 11 10  1  0  0  0
 20 22  2  0  0  0
  3  4  1  0  0  0
 10  6  2  0  0  0
 21 18  2  0  0  0
 22 18  1  0  0  0
  4  5  2  0  0  0
  6  5  1  0  0  0
  6  7  1  0  0  0
 18 28  1  0  0  0
  5  9  1  0  0  0
  7  8  2  0  0  0
 24 28  1  0  0  0
 24 23  1  0  0  0
 28 25  1  0  0  0
 23 27  1  0  0  0
  9  8  1  0  0  0
  9 12  1  0  0  0
 26 25  1  0  0  0
 26 27  1  0  0  0
 12 16  1  0  0  0
 12 13  1  0  0  0
 27 30  1  0  0  0
 16 15  1  0  0  0
 30 29  1  0  0  0
 13 14  1  0  0  0
 15 14  1  0  0  0
  1  2  1  0  0  0
M  END
> <minimizedAffinity>
-8.44287

$$$$
4RJ8_3QS_A_1102


 30 34  0  0  0  0  0  0  0  0999 V2000
  -53.0039    1.1708  -23.4869 N   0  0  0  0  0  0  0  0  0  0  0  0
  -53.4024    2.0516  -23.6733 H   0  0  0  0  0  0  0  0  0  0  0  0
  -52.9287    0.2813  -24.5679 C   0  0  0  0  0  0  0  0  0  0  0  0
  -51.7300   -0.3022  -24.9921 C   0  0  0  0  0  0  0  0  0  0  0  0
  -51.7398   -1.1856  -26.0841 C   0  0  0  0  0  0  0  0  0  0  0  0
  -52.9946   -1.4851  -26.6864 C   0  0  0  0  0  0  0  0  0  0  0  0
  -52.7237   -2.4300  -27.7716 C   0  0  0  0  0  0  0  0  0  0  0  0
  -51.4006   -2.6233  -27.7812 C   0  0  0  0  0  0  0  0  0  0  0  0
  -50.7844   -1.8948  -26.7758 N   0  0  0  0  0  0  0  0  0  0  0  0
  -54.1492   -0.8937  -26.1704 C   0  0  0  0  0  0  0  0  0  0  0  0
  -54.0799   -0.0355  -25.1634 N   0  0  0  0  0  0  0  0  0  0  0  0
  -49.3339   -1.8844  -26.4722 C   0  0  0  0  0  0  0  0  0  0  0  0
  -49.0757   -2.4447  -25.0629 C   0  0  0  0  0  0  0  0  0  0  0  0
  -49.1119   -3.9763  -25.2597 C   0  0  0  0  0  0  0  0  0  0  0  0
  -48.3610   -4.1675  -26.6015 C   0  0  0  0  0  0  0  0  0  0  0  0
  -48.5084   -2.8295  -27.3678 C   0  0  0  0  0  0  0  0  0  0  0  0
  -52.9948    0.9393  -19.8160 C   0  0  0  0  0  0  0  0  0  0  0  0
  -50.9578    0.2005  -20.6867 C   0  0  0  0  0  0  0  0  0  0  0  0
  -53.4431    1.2043  -21.1067 C   0  0  0  0  0  0  0  0  0  0  0  0
  -52.5806    0.9507  -22.1847 C   0  0  0  0  0  0  0  0  0  0  0  0
  -51.7708    0.4507  -19.6513 N   0  0  0  0  0  0  0  0  0  0  0  0
  -51.3770    0.4496  -21.9285 N   0  0  0  0  0  0  0  0  0  0  0  0
  -48.2580   -2.1064  -19.3957 C   0  0  0  0  0  0  0  0  0  0  0  0
  -49.6210   -1.4034  -19.4804 C   0  0  0  0  0  0  0  0  0  0  0  0
  -48.9717   -0.5169  -21.8017 C   0  0  0  0  0  0  0  0  0  0  0  0
  -47.7495   -1.4520  -21.7972 C   0  0  0  0  0  0  0  0  0  0  0  0
  -47.9364   -2.6138  -20.8095 C   0  0  0  0  0  0  0  0  0  0  0  0
  -49.6636   -0.2997  -20.4914 N   0  0  0  0  0  0  0  0  0  0  0  0
  -45.7358   -3.3946  -21.6839 C   0  0  0  0  0  0  0  0  0  0  0  0
  -46.9136   -3.6175  -20.8837 O   0  0  0  0  0  0  0  0  0  0  0  0
 19 17  2  0  0  0
 19 20  1  0  0  0
 17 21  1  0  0  0
  1 20  1  0  0  0
  1  3  1  0  0  0
 11  3  2  0  0  0
 11 10  1  0  0  0
 20 22  2  0  0  0
  3  4  1  0  0  0
 10  6  2  0  0  0
 21 18  2  0  0  0
 22 18  1  0  0  0
  4  5  2  0  0  0
  6  5  1  0  0  0
  6  7  1  0  0  0
 18 28  1  0  0  0
  5  9  1  0  0  0
  7  8  2  0  0  0
 24 28  1  0  0  0
 24 23  1  0  0  0
 28 25  1  0  0  0
 23 27  1  0  0  0
  9  8  1  0  0  0
  9 12  1  0  0  0
 26 25  1  0  0  0
 26 27  1  0  0  0
 12 16  1  0  0  0
 12 13  1  0  0  0
 27 30  1  0  0  0
 16 15  1  0  0  0
 30 29  1  0  0  0
 13 14  1  0  0  0
 15 14  1  0  0  0
  1  2  1  0  0  0
M  END
> <minimizedAffinity>
-8.41513

$$$$
4RJ8_3QS_A_1102


 30 34  0  0  0  0  0  0  0  0999 V2000
  -53.8226   -1.4333  -26.8898 N   0  0  0  0  0  0  0  0  0  0  0  0
  -54.3805   -1.8235  -27.6009 H   0  0  0  0  0  0  0  0  0  0  0  0
  -52.5304   -1.9602  -26.7541 C   0  0  0  0  0  0  0  0  0  0  0  0
  -52.1659   -2.8256  -25.7170 C   0  0  0  0  0  0  0  0  0  0  0  0
  -50.8495   -3.3113  -25.6527 C   0  0  0  0  0  0  0  0  0  0  0  0
  -49.9486   -2.9307  -26.6873 C   0  0  0  0  0  0  0  0  0  0  0  0
  -48.6707   -3.5809  -26.3904 C   0  0  0  0  0  0  0  0  0  0  0  0
  -48.8492   -4.2602  -25.2525 C   0  0  0  0  0  0  0  0  0  0  0  0
  -50.1484   -4.1226  -24.7898 N   0  0  0  0  0  0  0  0  0  0  0  0
  -50.4083   -2.0997  -27.7107 C   0  0  0  0  0  0  0  0  0  0  0  0
  -51.6496   -1.6367  -27.7026 N   0  0  0  0  0  0  0  0  0  0  0  0
  -50.7107   -4.7546  -23.5730 C   0  0  0  0  0  0  0  0  0  0  0  0
  -49.6849   -4.7214  -22.4270 C   0  0  0  0  0  0  0  0  0  0  0  0
  -49.8166   -3.2939  -21.8519 C   0  0  0  0  0  0  0  0  0  0  0  0
  -51.3473   -3.0542  -21.8762 C   0  0  0  0  0  0  0  0  0  0  0  0
  -51.9084   -3.9888  -22.9765 C   0  0  0  0  0  0  0  0  0  0  0  0
  -56.2417    1.0539  -25.6689 C   0  0  0  0  0  0  0  0  0  0  0  0
  -54.3507    1.0121  -24.2993 C   0  0  0  0  0  0  0  0  0  0  0  0
  -55.6763    0.0651  -26.4688 C   0  0  0  0  0  0  0  0  0  0  0  0
  -54.4038   -0.4248  -26.1359 C   0  0  0  0  0  0  0  0  0  0  0  0
  -55.5603    1.4933  -24.6170 N   0  0  0  0  0  0  0  0  0  0  0  0
  -53.7992    0.0634  -25.0583 N   0  0  0  0  0  0  0  0  0  0  0  0
  -53.7935    2.3011  -20.7914 C   0  0  0  0  0  0  0  0  0  0  0  0
  -54.5407    1.9542  -22.0878 C   0  0  0  0  0  0  0  0  0  0  0  0
  -52.5006    0.5923  -22.8489 C   0  0  0  0  0  0  0  0  0  0  0  0
  -51.9046    0.7297  -21.4369 C   0  0  0  0  0  0  0  0  0  0  0  0
  -52.9906    1.0517  -20.3990 C   0  0  0  0  0  0  0  0  0  0  0  0
  -53.6402    1.5003  -23.1948 N   0  0  0  0  0  0  0  0  0  0  0  0
  -51.2473    0.4474  -18.7219 C   0  0  0  0  0  0  0  0  0  0  0  0
  -52.5317    1.0187  -19.0398 O   0  0  0  0  0  0  0  0  0  0  0  0
 19 17  2  0  0  0
 19 20  1  0  0  0
 17 21  1  0  0  0
  1 20  1  0  0  0
  1  3  1  0  0  0
 11  3  2  0  0  0
 11 10  1  0  0  0
 20 22  2  0  0  0
  3  4  1  0  0  0
 10  6  2  0  0  0
 21 18  2  0  0  0
 22 18  1  0  0  0
  4  5  2  0  0  0
  6  5  1  0  0  0
  6  7  1  0  0  0
 18 28  1  0  0  0
  5  9  1  0  0  0
  7  8  2  0  0  0
 24 28  1  0  0  0
 24 23  1  0  0  0
 28 25  1  0  0  0
 23 27  1  0  0  0
  9  8  1  0  0  0
  9 12  1  0  0  0
 26 25  1  0  0  0
 26 27  1  0  0  0
 12 16  1  0  0  0
 12 13  1  0  0  0
 27 30  1  0  0  0
 16 15  1  0  0  0
 30 29  1  0  0  0
 13 14  1  0  0  0
 15 14  1  0  0  0
  1  2  1  0  0  0
M  END
> <minimizedAffinity>
-8.15114

$$$$
4RJ8_3QS_A_1102


 30 34  0  0  0  0  0  0  0  0999 V2000
  -52.7257   -1.8279  -26.1275 N   0  0  0  0  0  0  0  0  0  0  0  0
  -52.6876   -1.8350  -27.1112 H   0  0  0  0  0  0  0  0  0  0  0  0
  -52.0978   -2.8974  -25.4734 C   0  0  0  0  0  0  0  0  0  0  0  0
  -50.8156   -2.8053  -24.9214 C   0  0  0  0  0  0  0  0  0  0  0  0
  -50.2572   -3.9235  -24.2803 C   0  0  0  0  0  0  0  0  0  0  0  0
  -51.0531   -5.0998  -24.1811 C   0  0  0  0  0  0  0  0  0  0  0  0
  -50.2490   -6.0905  -23.4627 C   0  0  0  0  0  0  0  0  0  0  0  0
  -49.0758   -5.5048  -23.2008 C   0  0  0  0  0  0  0  0  0  0  0  0
  -49.0537   -4.2021  -23.6735 N   0  0  0  0  0  0  0  0  0  0  0  0
  -52.3411   -5.0907  -24.7198 C   0  0  0  0  0  0  0  0  0  0  0  0
  -52.8053   -4.0218  -25.3500 N   0  0  0  0  0  0  0  0  0  0  0  0
  -47.9291   -3.2464  -23.5398 C   0  0  0  0  0  0  0  0  0  0  0  0
  -48.4250   -1.9104  -22.9602 C   0  0  0  0  0  0  0  0  0  0  0  0
  -48.4992   -2.1702  -21.4393 C   0  0  0  0  0  0  0  0  0  0  0  0
  -47.2198   -3.0021  -21.1706 C   0  0  0  0  0  0  0  0  0  0  0  0
  -46.8643   -3.6848  -22.5147 C   0  0  0  0  0  0  0  0  0  0  0  0
  -55.2457    0.7719  -25.4799 C   0  0  0  0  0  0  0  0  0  0  0  0
  -53.5989    0.7993  -23.8244 C   0  0  0  0  0  0  0  0  0  0  0  0
  -54.5848   -0.2780  -26.1108 C   0  0  0  0  0  0  0  0  0  0  0  0
  -53.3943   -0.7613  -25.5457 C   0  0  0  0  0  0  0  0  0  0  0  0
  -54.7300    1.2741  -24.3637 N   0  0  0  0  0  0  0  0  0  0  0  0
  -52.9573   -0.2076  -24.4198 N   0  0  0  0  0  0  0  0  0  0  0  0
  -53.5518    2.1474  -20.2948 C   0  0  0  0  0  0  0  0  0  0  0  0
  -54.1164    1.7299  -21.6608 C   0  0  0  0  0  0  0  0  0  0  0  0
  -51.8922    0.5520  -22.1724 C   0  0  0  0  0  0  0  0  0  0  0  0
  -51.4717    0.7477  -20.7051 C   0  0  0  0  0  0  0  0  0  0  0  0
  -52.6907    0.9760  -19.7984 C   0  0  0  0  0  0  0  0  0  0  0  0
  -53.0617    1.3535  -22.6549 N   0  0  0  0  0  0  0  0  0  0  0  0
  -53.0503    1.9192  -17.5185 C   0  0  0  0  0  0  0  0  0  0  0  0
  -52.3851    0.9897  -18.3965 O   0  0  0  0  0  0  0  0  0  0  0  0
 19 17  2  0  0  0
 19 20  1  0  0  0
 17 21  1  0  0  0
  1 20  1  0  0  0
  1  3  1  0  0  0
 11  3  2  0  0  0
 11 10  1  0  0  0
 20 22  2  0  0  0
  3  4  1  0  0  0
 10  6  2  0  0  0
 21 18  2  0  0  0
 22 18  1  0  0  0
  4  5  2  0  0  0
  6  5  1  0  0  0
  6  7  1  0  0  0
 18 28  1  0  0  0
  5  9  1  0  0  0
  7  8  2  0  0  0
 24 28  1  0  0  0
 24 23  1  0  0  0
 28 25  1  0  0  0
 23 27  1  0  0  0
  9  8  1  0  0  0
  9 12  1  0  0  0
 26 25  1  0  0  0
 26 27  1  0  0  0
 12 16  1  0  0  0
 12 13  1  0  0  0
 27 30  1  0  0  0
 16 15  1  0  0  0
 30 29  1  0  0  0
 13 14  1  0  0  0
 15 14  1  0  0  0
  1  2  1  0  0  0
M  END
> <minimizedAffinity>
-7.83666

$$$$
4RJ8_3QS_A_1102


 30 34  0  0  0  0  0  0  0  0999 V2000
  -50.2885   -1.3827  -27.1705 N   0  0  0  0  0  0  0  0  0  0  0  0
  -49.9884   -0.7785  -27.8876 H   0  0  0  0  0  0  0  0  0  0  0  0
  -49.5005   -2.5204  -26.9459 C   0  0  0  0  0  0  0  0  0  0  0  0
  -49.1629   -2.9722  -25.6656 C   0  0  0  0  0  0  0  0  0  0  0  0
  -48.3697   -4.1230  -25.5257 C   0  0  0  0  0  0  0  0  0  0  0  0
  -47.9803   -4.8107  -26.7099 C   0  0  0  0  0  0  0  0  0  0  0  0
  -47.1881   -5.9656  -26.2826 C   0  0  0  0  0  0  0  0  0  0  0  0
  -47.1265   -5.9070  -24.9481 C   0  0  0  0  0  0  0  0  0  0  0  0
  -47.8316   -4.8159  -24.4652 N   0  0  0  0  0  0  0  0  0  0  0  0
  -48.3998   -4.3163  -27.9464 C   0  0  0  0  0  0  0  0  0  0  0  0
  -49.1141   -3.2033  -28.0250 N   0  0  0  0  0  0  0  0  0  0  0  0
  -48.0015   -4.4510  -23.0389 C   0  0  0  0  0  0  0  0  0  0  0  0
  -47.0827   -5.3085  -22.1516 C   0  0  0  0  0  0  0  0  0  0  0  0
  -45.7086   -4.6109  -22.2564 C   0  0  0  0  0  0  0  0  0  0  0  0
  -46.0824   -3.1079  -22.2088 C   0  0  0  0  0  0  0  0  0  0  0  0
  -47.5452   -3.0157  -22.7099 C   0  0  0  0  0  0  0  0  0  0  0  0
  -53.8362   -1.0309  -26.2653 C   0  0  0  0  0  0  0  0  0  0  0  0
  -52.4793    0.0049  -24.6717 C   0  0  0  0  0  0  0  0  0  0  0  0
  -52.7020   -1.3926  -26.9865 C   0  0  0  0  0  0  0  0  0  0  0  0
  -51.4427   -1.0119  -26.4971 C   0  0  0  0  0  0  0  0  0  0  0  0
  -53.6859   -0.3447  -25.1381 N   0  0  0  0  0  0  0  0  0  0  0  0
  -51.3850   -0.3371  -25.3540 N   0  0  0  0  0  0  0  0  0  0  0  0
  -53.5591    1.8516  -21.5570 C   0  0  0  0  0  0  0  0  0  0  0  0
  -53.6573    1.2189  -22.9531 C   0  0  0  0  0  0  0  0  0  0  0  0
  -51.3991    0.0662  -22.5428 C   0  0  0  0  0  0  0  0  0  0  0  0
  -51.4722    0.4889  -21.0650 C   0  0  0  0  0  0  0  0  0  0  0  0
  -52.9161    0.7990  -20.6415 C   0  0  0  0  0  0  0  0  0  0  0  0
  -52.3423    0.7433  -23.4888 N   0  0  0  0  0  0  0  0  0  0  0  0
  -51.9622    0.8589  -18.3385 C   0  0  0  0  0  0  0  0  0  0  0  0
  -53.0787    1.0277  -19.2343 O   0  0  0  0  0  0  0  0  0  0  0  0
 19 17  2  0  0  0
 19 20  1  0  0  0
 17 21  1  0  0  0
  1 20  1  0  0  0
  1  3  1  0  0  0
 11  3  2  0  0  0
 11 10  1  0  0  0
 20 22  2  0  0  0
  3  4  1  0  0  0
 10  6  2  0  0  0
 21 18  2  0  0  0
 22 18  1  0  0  0
  4  5  2  0  0  0
  6  5  1  0  0  0
  6  7  1  0  0  0
 18 28  1  0  0  0
  5  9  1  0  0  0
  7  8  2  0  0  0
 24 28  1  0  0  0
 24 23  1  0  0  0
 28 25  1  0  0  0
 23 27  1  0  0  0
  9  8  1  0  0  0
  9 12  1  0  0  0
 26 25  1  0  0  0
 26 27  1  0  0  0
 12 16  1  0  0  0
 12 13  1  0  0  0
 27 30  1  0  0  0
 16 15  1  0  0  0
 30 29  1  0  0  0
 13 14  1  0  0  0
 15 14  1  0  0  0
  1  2  1  0  0  0
M  END
> <minimizedAffinity>
-7.80704

$$$$
4RJ8_3QS_A_1102


 30 34  0  0  0  0  0  0  0  0999 V2000
  -53.3309    1.2192  -23.7476 N   0  0  0  0  0  0  0  0  0  0  0  0
  -53.7161    2.0298  -24.1523 H   0  0  0  0  0  0  0  0  0  0  0  0
  -53.1364    1.2497  -22.3595 C   0  0  0  0  0  0  0  0  0  0  0  0
  -52.1600    0.4865  -21.7104 C   0  0  0  0  0  0  0  0  0  0  0  0
  -52.0281    0.5753  -20.3147 C   0  0  0  0  0  0  0  0  0  0  0  0
  -52.8761    1.4858  -19.6229 C   0  0  0  0  0  0  0  0  0  0  0  0
  -52.5221    1.3936  -18.2051 C   0  0  0  0  0  0  0  0  0  0  0  0
  -51.5545    0.4748  -18.1176 C   0  0  0  0  0  0  0  0  0  0  0  0
  -51.2326   -0.0290  -19.3680 N   0  0  0  0  0  0  0  0  0  0  0  0
  -53.7927    2.2434  -20.3545 C   0  0  0  0  0  0  0  0  0  0  0  0
  -53.9042    2.0921  -21.6660 N   0  0  0  0  0  0  0  0  0  0  0  0
  -50.1907   -1.0426  -19.6564 C   0  0  0  0  0  0  0  0  0  0  0  0
  -49.9206   -1.9051  -18.4114 C   0  0  0  0  0  0  0  0  0  0  0  0
  -51.0613   -2.9466  -18.4265 C   0  0  0  0  0  0  0  0  0  0  0  0
  -51.1760   -3.3077  -19.9290 C   0  0  0  0  0  0  0  0  0  0  0  0
  -50.6195   -2.0882  -20.7050 C   0  0  0  0  0  0  0  0  0  0  0  0
  -53.6997   -1.3571  -26.3467 C   0  0  0  0  0  0  0  0  0  0  0  0
  -51.5057   -1.3098  -25.5481 C   0  0  0  0  0  0  0  0  0  0  0  0
  -54.0356   -0.3333  -25.4658 C   0  0  0  0  0  0  0  0  0  0  0  0
  -53.0422    0.1766  -24.6152 C   0  0  0  0  0  0  0  0  0  0  0  0
  -52.4511   -1.8100  -26.3553 N   0  0  0  0  0  0  0  0  0  0  0  0
  -51.8159   -0.3276  -24.7001 N   0  0  0  0  0  0  0  0  0  0  0  0
  -48.6220   -3.5774  -24.6428 C   0  0  0  0  0  0  0  0  0  0  0  0
  -49.9778   -2.8663  -24.5197 C   0  0  0  0  0  0  0  0  0  0  0  0
  -49.7491   -2.0993  -26.9601 C   0  0  0  0  0  0  0  0  0  0  0  0
  -48.5462   -3.0448  -27.1256 C   0  0  0  0  0  0  0  0  0  0  0  0
  -48.5563   -4.1556  -26.0644 C   0  0  0  0  0  0  0  0  0  0  0  0
  -50.1978   -1.8123  -25.5604 N   0  0  0  0  0  0  0  0  0  0  0  0
  -47.0567   -5.9252  -25.1497 C   0  0  0  0  0  0  0  0  0  0  0  0
  -47.5637   -5.1715  -26.2687 O   0  0  0  0  0  0  0  0  0  0  0  0
 19 17  2  0  0  0
 19 20  1  0  0  0
 17 21  1  0  0  0
  1 20  1  0  0  0
  1  3  1  0  0  0
 11  3  2  0  0  0
 11 10  1  0  0  0
 20 22  2  0  0  0
  3  4  1  0  0  0
 10  6  2  0  0  0
 21 18  2  0  0  0
 22 18  1  0  0  0
  4  5  2  0  0  0
  6  5  1  0  0  0
  6  7  1  0  0  0
 18 28  1  0  0  0
  5  9  1  0  0  0
  7  8  2  0  0  0
 24 28  1  0  0  0
 24 23  1  0  0  0
 28 25  1  0  0  0
 23 27  1  0  0  0
  9  8  1  0  0  0
  9 12  1  0  0  0
 26 25  1  0  0  0
 26 27  1  0  0  0
 12 16  1  0  0  0
 12 13  1  0  0  0
 27 30  1  0  0  0
 16 15  1  0  0  0
 30 29  1  0  0  0
 13 14  1  0  0  0
 15 14  1  0  0  0
  1  2  1  0  0  0
M  END
> <minimizedAffinity>
-7.78313

$$$$
4RJ8_3QS_A_1102


 30 34  0  0  0  0  0  0  0  0999 V2000
  -52.3335    0.0447  -24.5960 N   0  0  0  0  0  0  0  0  0  0  0  0
  -52.0515    0.7407  -25.2327 H   0  0  0  0  0  0  0  0  0  0  0  0
  -52.5662    0.4648  -23.2788 C   0  0  0  0  0  0  0  0  0  0  0  0
  -51.7108    0.1512  -22.2171 C   0  0  0  0  0  0  0  0  0  0  0  0
  -52.0144    0.6122  -20.9255 C   0  0  0  0  0  0  0  0  0  0  0  0
  -53.1705    1.4275  -20.7648 C   0  0  0  0  0  0  0  0  0  0  0  0
  -53.2412    1.7792  -19.3452 C   0  0  0  0  0  0  0  0  0  0  0  0
  -52.2017    1.1787  -18.7562 C   0  0  0  0  0  0  0  0  0  0  0  0
  -51.4440    0.4766  -19.6803 N   0  0  0  0  0  0  0  0  0  0  0  0
  -53.9442    1.7302  -21.8868 C   0  0  0  0  0  0  0  0  0  0  0  0
  -53.6358    1.2363  -23.0768 N   0  0  0  0  0  0  0  0  0  0  0  0
  -50.2076   -0.2876  -19.3916 C   0  0  0  0  0  0  0  0  0  0  0  0
  -50.1054   -0.5968  -17.8881 C   0  0  0  0  0  0  0  0  0  0  0  0
  -51.0156   -1.8306  -17.7000 C   0  0  0  0  0  0  0  0  0  0  0  0
  -50.7003   -2.6838  -18.9544 C   0  0  0  0  0  0  0  0  0  0  0  0
  -50.1866   -1.6919  -20.0274 C   0  0  0  0  0  0  0  0  0  0  0  0
  -52.9860   -2.7450  -26.9027 C   0  0  0  0  0  0  0  0  0  0  0  0
  -52.1803   -3.5435  -24.8614 C   0  0  0  0  0  0  0  0  0  0  0  0
  -52.9086   -1.4431  -26.4166 C   0  0  0  0  0  0  0  0  0  0  0  0
  -52.4555   -1.2400  -25.1037 C   0  0  0  0  0  0  0  0  0  0  0  0
  -52.6228   -3.7468  -26.1098 N   0  0  0  0  0  0  0  0  0  0  0  0
  -52.1010   -2.2998  -24.3850 N   0  0  0  0  0  0  0  0  0  0  0  0
  -50.0891   -6.4154  -23.5744 C   0  0  0  0  0  0  0  0  0  0  0  0
  -50.6340   -5.3686  -24.5575 C   0  0  0  0  0  0  0  0  0  0  0  0
  -51.8089   -4.1997  -22.5955 C   0  0  0  0  0  0  0  0  0  0  0  0
  -51.0259   -5.0934  -21.6176 C   0  0  0  0  0  0  0  0  0  0  0  0
  -49.7607   -5.6675  -22.2733 C   0  0  0  0  0  0  0  0  0  0  0  0
  -51.8174   -4.6148  -24.0345 N   0  0  0  0  0  0  0  0  0  0  0  0
  -49.3597   -6.7232  -20.0503 C   0  0  0  0  0  0  0  0  0  0  0  0
  -48.8943   -6.3646  -21.3664 O   0  0  0  0  0  0  0  0  0  0  0  0
 19 17  2  0  0  0
 19 20  1  0  0  0
 17 21  1  0  0  0
  1 20  1  0  0  0
  1  3  1  0  0  0
 11  3  2  0  0  0
 11 10  1  0  0  0
 20 22  2  0  0  0
  3  4  1  0  0  0
 10  6  2  0  0  0
 21 18  2  0  0  0
 22 18  1  0  0  0
  4  5  2  0  0  0
  6  5  1  0  0  0
  6  7  1  0  0  0
 18 28  1  0  0  0
  5  9  1  0  0  0
  7  8  2  0  0  0
 24 28  1  0  0  0
 24 23  1  0  0  0
 28 25  1  0  0  0
 23 27  1  0  0  0
  9  8  1  0  0  0
  9 12  1  0  0  0
 26 25  1  0  0  0
 26 27  1  0  0  0
 12 16  1  0  0  0
 12 13  1  0  0  0
 27 30  1  0  0  0
 16 15  1  0  0  0
 30 29  1  0  0  0
 13 14  1  0  0  0
 15 14  1  0  0  0
  1  2  1  0  0  0
M  END
> <minimizedAffinity>
-7.66333

$$$$
4RJ8_3QS_A_1102


 30 34  0  0  0  0  0  0  0  0999 V2000
  -51.3046    0.7537  -18.9637 N   0  0  0  0  0  0  0  0  0  0  0  0
  -50.8719    1.5521  -18.5835 H   0  0  0  0  0  0  0  0  0  0  0  0
  -52.0847    0.9563  -20.1109 C   0  0  0  0  0  0  0  0  0  0  0  0
  -51.7670    0.4020  -21.3555 C   0  0  0  0  0  0  0  0  0  0  0  0
  -52.6022    0.6519  -22.4569 C   0  0  0  0  0  0  0  0  0  0  0  0
  -53.7742    1.4306  -22.2400 C   0  0  0  0  0  0  0  0  0  0  0  0
  -54.4620    1.5207  -23.5294 C   0  0  0  0  0  0  0  0  0  0  0  0
  -53.7065    0.8518  -24.4069 C   0  0  0  0  0  0  0  0  0  0  0  0
  -52.5874    0.3140  -23.7910 N   0  0  0  0  0  0  0  0  0  0  0  0
  -54.0396    1.9071  -20.9548 C   0  0  0  0  0  0  0  0  0  0  0  0
  -53.1976    1.6761  -19.9583 N   0  0  0  0  0  0  0  0  0  0  0  0
  -51.5435   -0.5084  -24.4469 C   0  0  0  0  0  0  0  0  0  0  0  0
  -51.4702   -1.9014  -23.7982 C   0  0  0  0  0  0  0  0  0  0  0  0
  -52.6256   -2.6819  -24.4628 C   0  0  0  0  0  0  0  0  0  0  0  0
  -52.5428   -2.2245  -25.9409 C   0  0  0  0  0  0  0  0  0  0  0  0
  -51.8524   -0.8381  -25.9209 C   0  0  0  0  0  0  0  0  0  0  0  0
  -50.7013   -1.6879  -16.2797 C   0  0  0  0  0  0  0  0  0  0  0  0
  -50.8743   -2.7675  -18.3432 C   0  0  0  0  0  0  0  0  0  0  0  0
  -50.8975   -0.4632  -16.9113 C   0  0  0  0  0  0  0  0  0  0  0  0
  -51.0735   -0.4439  -18.3037 C   0  0  0  0  0  0  0  0  0  0  0  0
  -50.6939   -2.7935  -17.0157 N   0  0  0  0  0  0  0  0  0  0  0  0
  -51.0642   -1.5995  -18.9594 N   0  0  0  0  0  0  0  0  0  0  0  0
  -51.0999   -4.9462  -21.4222 C   0  0  0  0  0  0  0  0  0  0  0  0
  -51.3119   -3.7277  -20.5115 C   0  0  0  0  0  0  0  0  0  0  0  0
  -49.5642   -4.6871  -18.8925 C   0  0  0  0  0  0  0  0  0  0  0  0
  -49.1833   -5.7350  -19.9531 C   0  0  0  0  0  0  0  0  0  0  0  0
  -49.6030   -5.2857  -21.3610 C   0  0  0  0  0  0  0  0  0  0  0  0
  -50.8467   -3.9435  -19.1046 N   0  0  0  0  0  0  0  0  0  0  0  0
  -50.0477   -6.7328  -23.3422 C   0  0  0  0  0  0  0  0  0  0  0  0
  -49.1220   -6.1322  -22.4150 O   0  0  0  0  0  0  0  0  0  0  0  0
 19 17  2  0  0  0
 19 20  1  0  0  0
 17 21  1  0  0  0
  1 20  1  0  0  0
  1  3  1  0  0  0
 11  3  2  0  0  0
 11 10  1  0  0  0
 20 22  2  0  0  0
  3  4  1  0  0  0
 10  6  2  0  0  0
 21 18  2  0  0  0
 22 18  1  0  0  0
  4  5  2  0  0  0
  6  5  1  0  0  0
  6  7  1  0  0  0
 18 28  1  0  0  0
  5  9  1  0  0  0
  7  8  2  0  0  0
 24 28  1  0  0  0
 24 23  1  0  0  0
 28 25  1  0  0  0
 23 27  1  0  0  0
  9  8  1  0  0  0
  9 12  1  0  0  0
 26 25  1  0  0  0
 26 27  1  0  0  0
 12 16  1  0  0  0
 12 13  1  0  0  0
 27 30  1  0  0  0
 16 15  1  0  0  0
 30 29  1  0  0  0
 13 14  1  0  0  0
 15 14  1  0  0  0
  1  2  1  0  0  0
M  END
> <minimizedAffinity>
-7.60948

$$$$
4RJ8_3QS_A_1102


 30 34  0  0  0  0  0  0  0  0999 V2000
  -53.0975    1.7880  -21.2268 N   0  0  0  0  0  0  0  0  0  0  0  0
  -53.5000    2.6603  -21.0114 H   0  0  0  0  0  0  0  0  0  0  0  0
  -53.4144    1.2502  -22.4822 C   0  0  0  0  0  0  0  0  0  0  0  0
  -52.6811    0.2167  -23.0750 C   0  0  0  0  0  0  0  0  0  0  0  0
  -53.0652   -0.2679  -24.3362 C   0  0  0  0  0  0  0  0  0  0  0  0
  -54.2269    0.2926  -24.9388 C   0  0  0  0  0  0  0  0  0  0  0  0
  -54.4084   -0.3951  -26.2187 C   0  0  0  0  0  0  0  0  0  0  0  0
  -53.3987   -1.2652  -26.3252 C   0  0  0  0  0  0  0  0  0  0  0  0
  -52.5801   -1.2162  -25.2078 N   0  0  0  0  0  0  0  0  0  0  0  0
  -54.9269    1.2895  -24.2566 C   0  0  0  0  0  0  0  0  0  0  0  0
  -54.4989    1.7393  -23.0863 N   0  0  0  0  0  0  0  0  0  0  0  0
  -51.3820   -2.0550  -24.9689 C   0  0  0  0  0  0  0  0  0  0  0  0
  -51.4043   -2.6302  -23.5422 C   0  0  0  0  0  0  0  0  0  0  0  0
  -52.3449   -3.8508  -23.6486 C   0  0  0  0  0  0  0  0  0  0  0  0
  -51.9436   -4.4755  -25.0087 C   0  0  0  0  0  0  0  0  0  0  0  0
  -51.3315   -3.3235  -25.8436 C   0  0  0  0  0  0  0  0  0  0  0  0
  -51.8018    0.7271  -17.9520 C   0  0  0  0  0  0  0  0  0  0  0  0
  -50.4028   -0.0205  -19.6658 C   0  0  0  0  0  0  0  0  0  0  0  0
  -52.6278    1.3282  -18.8972 C   0  0  0  0  0  0  0  0  0  0  0  0
  -52.2815    1.2305  -20.2539 C   0  0  0  0  0  0  0  0  0  0  0  0
  -50.7201    0.0780  -18.3677 N   0  0  0  0  0  0  0  0  0  0  0  0
  -51.1877    0.5509  -20.5810 N   0  0  0  0  0  0  0  0  0  0  0  0
  -48.1094   -2.9513  -20.3206 C   0  0  0  0  0  0  0  0  0  0  0  0
  -49.2599   -2.1435  -19.7016 C   0  0  0  0  0  0  0  0  0  0  0  0
  -48.9054   -0.3426  -21.4980 C   0  0  0  0  0  0  0  0  0  0  0  0
  -47.9591   -1.2992  -22.2447 C   0  0  0  0  0  0  0  0  0  0  0  0
  -48.2072   -2.7608  -21.8418 C   0  0  0  0  0  0  0  0  0  0  0  0
  -49.2483   -0.6957  -20.0836 N   0  0  0  0  0  0  0  0  0  0  0  0
  -48.0394   -4.2130  -23.8616 C   0  0  0  0  0  0  0  0  0  0  0  0
  -47.4824   -3.7175  -22.6281 O   0  0  0  0  0  0  0  0  0  0  0  0
 19 17  2  0  0  0
 19 20  1  0  0  0
 17 21  1  0  0  0
  1 20  1  0  0  0
  1  3  1  0  0  0
 11  3  2  0  0  0
 11 10  1  0  0  0
 20 22  2  0  0  0
  3  4  1  0  0  0
 10  6  2  0  0  0
 21 18  2  0  0  0
 22 18  1  0  0  0
  4  5  2  0  0  0
  6  5  1  0  0  0
  6  7  1  0  0  0
 18 28  1  0  0  0
  5  9  1  0  0  0
  7  8  2  0  0  0
 24 28  1  0  0  0
 24 23  1  0  0  0
 28 25  1  0  0  0
 23 27  1  0  0  0
  9  8  1  0  0  0
  9 12  1  0  0  0
 26 25  1  0  0  0
 26 27  1  0  0  0
 12 16  1  0  0  0
 12 13  1  0  0  0
 27 30  1  0  0  0
 16 15  1  0  0  0
 30 29  1  0  0  0
 13 14  1  0  0  0
 15 14  1  0  0  0
  1  2  1  0  0  0
M  END
> <minimizedAffinity>
-7.49356

$$$$
