5NWE_G39_A_503


 24 24  0  0  0  0  0  0  0  0999 V2000
   13.9522   -0.6619   45.6576 C   0  0  0  0  0  0  0  0  0  0  0  0
   12.6338   -1.0862   45.0281 C   0  0  0  0  0  0  0  0  0  0  0  0
   11.3767   -0.5570   45.7339 C   0  0  0  0  0  0  0  0  0  0  0  0
   11.5181    0.9561   45.9077 C   0  0  0  0  0  0  0  0  0  0  0  0
   12.8044    1.3491   46.6654 C   0  0  0  0  0  0  0  0  0  0  0  0
   14.0167    0.4652   46.3888 C   0  0  0  0  0  0  0  0  0  0  0  0
   10.1949   -0.9025   44.9232 N   0  0  0  0  0  0  0  0  0  0  0  0
   10.2868   -0.4896   43.9950 H   0  0  0  0  0  0  0  0  0  0  0  0
    9.3551   -0.5405   45.3748 H   0  0  0  0  0  0  0  0  0  0  0  0
   10.3632    1.5264   46.6013 N   0  0  0  0  0  0  0  0  0  0  0  0
    9.3602    2.1885   45.9880 C   0  0  0  0  0  0  0  0  0  0  0  0
    9.2320    2.2825   44.7958 O   0  0  0  0  0  0  0  0  0  0  0  0
    8.3446    2.8694   46.8806 C   0  0  0  0  0  0  0  0  0  0  0  0
   10.3147    1.4202   47.5789 H   0  0  0  0  0  0  0  0  0  0  0  0
   15.1498   -1.4964   45.4562 C   0  0  0  0  0  0  0  0  0  0  0  0
   16.2760   -0.9520   45.4061 O   0  0  0  0  0  0  0  0  0  0  0  0
   15.0256   -2.7486   45.3297 O   0  0  0  0  0  0  0  0  0  0  0  0
   14.1759   -3.1415   45.3695 H   0  0  0  0  0  0  0  0  0  0  0  0
   13.1617    2.7223   46.4041 O   0  0  0  0  0  0  0  0  0  0  0  0
   13.2179    3.4897   47.6346 C   0  0  0  0  0  0  0  0  0  0  0  0
   14.6895    3.7440   48.0464 C   0  0  0  0  0  0  0  0  0  0  0  0
   15.1031    3.0419   49.3323 C   0  0  0  0  0  0  0  0  0  0  0  0
   12.4190    4.7892   47.5339 C   0  0  0  0  0  0  0  0  0  0  0  0
   11.1763    4.8020   48.4386 C   0  0  0  0  0  0  0  0  0  0  0  0
 15 16  2  0  0  0
 15 17  1  0  0  0
 15  1  1  0  0  0
  1  2  1  0  0  0
  1  6  2  0  0  0
  2  3  1  0  0  0
  3  4  1  0  0  0
  3  7  1  0  0  0
  4 10  1  0  0  0
  4  5  1  0  0  0
 10 11  1  0  0  0
 11 12  2  0  0  0
 11 13  1  0  0  0
  5  6  1  0  0  0
  5 19  1  0  0  0
 19 20  1  0  0  0
 20 21  1  0  0  0
 20 23  1  0  0  0
 21 22  1  0  0  0
 23 24  1  0  0  0
 17 18  1  0  0  0
 10 14  1  0  0  0
  7  8  1  0  0  0
  7  9  1  0  0  0
M  END
> <minimizedAffinity>
-6.90759

$$$$
5NWE_G39_A_503


 24 24  0  0  0  0  0  0  0  0999 V2000
   14.4714   -0.3983   45.7059 C   0  0  0  0  0  0  0  0  0  0  0  0
   13.0958   -0.8477   45.2368 C   0  0  0  0  0  0  0  0  0  0  0  0
   11.9169   -0.2722   46.0353 C   0  0  0  0  0  0  0  0  0  0  0  0
   12.0767    1.2472   46.1102 C   0  0  0  0  0  0  0  0  0  0  0  0
   13.4333    1.6726   46.7116 C   0  0  0  0  0  0  0  0  0  0  0  0
   14.6106    0.7668   46.3636 C   0  0  0  0  0  0  0  0  0  0  0  0
   10.6589   -0.6538   45.3681 N   0  0  0  0  0  0  0  0  0  0  0  0
   10.6571   -0.2930   44.4140 H   0  0  0  0  0  0  0  0  0  0  0  0
    9.8694   -0.2620   45.8813 H   0  0  0  0  0  0  0  0  0  0  0  0
   10.9983    1.8623   46.8840 N   0  0  0  0  0  0  0  0  0  0  0  0
    9.8892    2.4060   46.3412 C   0  0  0  0  0  0  0  0  0  0  0  0
    9.5965    2.3420   45.1763 O   0  0  0  0  0  0  0  0  0  0  0  0
    8.9698    3.1611   47.2774 C   0  0  0  0  0  0  0  0  0  0  0  0
   11.0877    1.8808   47.8642 H   0  0  0  0  0  0  0  0  0  0  0  0
   15.6417   -1.2504   45.4314 C   0  0  0  0  0  0  0  0  0  0  0  0
   16.6656   -0.7415   44.9219 O   0  0  0  0  0  0  0  0  0  0  0  0
   15.5955   -2.4840   45.7066 O   0  0  0  0  0  0  0  0  0  0  0  0
   14.8219   -2.8503   46.0878 H   0  0  0  0  0  0  0  0  0  0  0  0
   13.7640    3.0270   46.3401 O   0  0  0  0  0  0  0  0  0  0  0  0
   13.8667    3.8785   47.5109 C   0  0  0  0  0  0  0  0  0  0  0  0
   12.6792    4.8718   47.5628 C   0  0  0  0  0  0  0  0  0  0  0  0
   11.9473    4.8932   48.8974 C   0  0  0  0  0  0  0  0  0  0  0  0
   13.9894    3.0651   48.7994 C   0  0  0  0  0  0  0  0  0  0  0  0
   15.3797    3.1707   49.4465 C   0  0  0  0  0  0  0  0  0  0  0  0
 15 16  2  0  0  0
 15 17  1  0  0  0
 15  1  1  0  0  0
  1  2  1  0  0  0
  1  6  2  0  0  0
  2  3  1  0  0  0
  3  4  1  0  0  0
  3  7  1  0  0  0
  4 10  1  0  0  0
  4  5  1  0  0  0
 10 11  1  0  0  0
 11 12  2  0  0  0
 11 13  1  0  0  0
  5  6  1  0  0  0
  5 19  1  0  0  0
 19 20  1  0  0  0
 20 21  1  0  0  0
 20 23  1  0  0  0
 21 22  1  0  0  0
 23 24  1  0  0  0
 17 18  1  0  0  0
 10 14  1  0  0  0
  7  8  1  0  0  0
  7  9  1  0  0  0
M  END
> <minimizedAffinity>
-6.77644

$$$$
5NWE_G39_A_503


 24 24  0  0  0  0  0  0  0  0999 V2000
   10.1457    1.2156   46.2749 C   0  0  0  0  0  0  0  0  0  0  0  0
   10.2321    2.6469   46.7830 C   0  0  0  0  0  0  0  0  0  0  0  0
   11.2167    2.8672   47.9408 C   0  0  0  0  0  0  0  0  0  0  0  0
   12.5690    2.2696   47.5484 C   0  0  0  0  0  0  0  0  0  0  0  0
   12.4695    0.7785   47.1615 C   0  0  0  0  0  0  0  0  0  0  0  0
   11.1859    0.3790   46.4403 C   0  0  0  0  0  0  0  0  0  0  0  0
   11.3192    4.3130   48.2096 N   0  0  0  0  0  0  0  0  0  0  0  0
   11.6398    4.7933   47.3688 H   0  0  0  0  0  0  0  0  0  0  0  0
   11.9842    4.4718   48.9664 H   0  0  0  0  0  0  0  0  0  0  0  0
   13.5527    2.4193   48.6208 N   0  0  0  0  0  0  0  0  0  0  0  0
   14.7246    3.0750   48.4898 C   0  0  0  0  0  0  0  0  0  0  0  0
   15.0452    3.7152   47.5234 O   0  0  0  0  0  0  0  0  0  0  0  0
   15.6988    2.9707   49.6439 C   0  0  0  0  0  0  0  0  0  0  0  0
   13.3463    2.0154   49.4946 H   0  0  0  0  0  0  0  0  0  0  0  0
    8.9156    0.7611   45.6029 C   0  0  0  0  0  0  0  0  0  0  0  0
    8.2917   -0.2216   46.0633 O   0  0  0  0  0  0  0  0  0  0  0  0
    8.5094    1.3634   44.5677 O   0  0  0  0  0  0  0  0  0  0  0  0
    8.9872    2.0976   44.2350 H   0  0  0  0  0  0  0  0  0  0  0  0
   13.5981    0.3740   46.3590 O   0  0  0  0  0  0  0  0  0  0  0  0
   14.1757   -0.8611   46.8563 C   0  0  0  0  0  0  0  0  0  0  0  0
   14.1837   -1.9401   45.7449 C   0  0  0  0  0  0  0  0  0  0  0  0
   13.0872   -2.9862   45.8892 C   0  0  0  0  0  0  0  0  0  0  0  0
   15.5668   -0.6418   47.4512 C   0  0  0  0  0  0  0  0  0  0  0  0
   16.6245   -1.5959   46.8735 C   0  0  0  0  0  0  0  0  0  0  0  0
 15 16  2  0  0  0
 15 17  1  0  0  0
 15  1  1  0  0  0
  1  2  1  0  0  0
  1  6  2  0  0  0
  2  3  1  0  0  0
  3  4  1  0  0  0
  3  7  1  0  0  0
  4 10  1  0  0  0
  4  5  1  0  0  0
 10 11  1  0  0  0
 11 12  2  0  0  0
 11 13  1  0  0  0
  5  6  1  0  0  0
  5 19  1  0  0  0
 19 20  1  0  0  0
 20 21  1  0  0  0
 20 23  1  0  0  0
 21 22  1  0  0  0
 23 24  1  0  0  0
 17 18  1  0  0  0
 10 14  1  0  0  0
  7  8  1  0  0  0
  7  9  1  0  0  0
M  END
> <minimizedAffinity>
-6.62906

$$$$
5NWE_G39_A_503


 24 24  0  0  0  0  0  0  0  0999 V2000
   10.3344    1.1500   45.6903 C   0  0  0  0  0  0  0  0  0  0  0  0
   10.5793   -0.3486   45.5981 C   0  0  0  0  0  0  0  0  0  0  0  0
   12.0565   -0.7626   45.5282 C   0  0  0  0  0  0  0  0  0  0  0  0
   12.8055   -0.0851   46.6770 C   0  0  0  0  0  0  0  0  0  0  0  0
   12.6434    1.4501   46.6680 C   0  0  0  0  0  0  0  0  0  0  0  0
   11.2827    1.9566   46.1995 C   0  0  0  0  0  0  0  0  0  0  0  0
   12.1435   -2.2317   45.6146 N   0  0  0  0  0  0  0  0  0  0  0  0
   11.7231   -2.5463   46.4890 H   0  0  0  0  0  0  0  0  0  0  0  0
   13.1225   -2.5166   45.5861 H   0  0  0  0  0  0  0  0  0  0  0  0
   14.2308   -0.4141   46.6557 N   0  0  0  0  0  0  0  0  0  0  0  0
   14.8230   -1.2788   47.5054 C   0  0  0  0  0  0  0  0  0  0  0  0
   14.2365   -1.9705   48.2955 O   0  0  0  0  0  0  0  0  0  0  0  0
   16.3341   -1.3564   47.4583 C   0  0  0  0  0  0  0  0  0  0  0  0
   14.7942    0.0237   45.9775 H   0  0  0  0  0  0  0  0  0  0  0  0
    9.0525    1.7023   45.2182 C   0  0  0  0  0  0  0  0  0  0  0  0
    8.2499    0.9582   44.6107 O   0  0  0  0  0  0  0  0  0  0  0  0
    8.7819    2.9202   45.4258 O   0  0  0  0  0  0  0  0  0  0  0  0
    9.3929    3.4647   45.8821 H   0  0  0  0  0  0  0  0  0  0  0  0
   12.9246    2.0094   47.9678 O   0  0  0  0  0  0  0  0  0  0  0  0
   14.2053    2.6920   47.9758 C   0  0  0  0  0  0  0  0  0  0  0  0
   13.9996    4.2273   47.9684 C   0  0  0  0  0  0  0  0  0  0  0  0
   12.6075    4.6679   48.3989 C   0  0  0  0  0  0  0  0  0  0  0  0
   15.0869    2.2381   49.1394 C   0  0  0  0  0  0  0  0  0  0  0  0
   15.7890    3.4052   49.8520 C   0  0  0  0  0  0  0  0  0  0  0  0
 15 16  2  0  0  0
 15 17  1  0  0  0
 15  1  1  0  0  0
  1  2  1  0  0  0
  1  6  2  0  0  0
  2  3  1  0  0  0
  3  4  1  0  0  0
  3  7  1  0  0  0
  4 10  1  0  0  0
  4  5  1  0  0  0
 10 11  1  0  0  0
 11 12  2  0  0  0
 11 13  1  0  0  0
  5  6  1  0  0  0
  5 19  1  0  0  0
 19 20  1  0  0  0
 20 21  1  0  0  0
 20 23  1  0  0  0
 21 22  1  0  0  0
 23 24  1  0  0  0
 17 18  1  0  0  0
 10 14  1  0  0  0
  7  8  1  0  0  0
  7  9  1  0  0  0
M  END
> <minimizedAffinity>
-6.60503

$$$$
5NWE_G39_A_503


 24 24  0  0  0  0  0  0  0  0999 V2000
   11.3513    4.3477   47.8439 C   0  0  0  0  0  0  0  0  0  0  0  0
   12.8150    4.7615   47.8163 C   0  0  0  0  0  0  0  0  0  0  0  0
   13.8195    3.6022   47.8902 C   0  0  0  0  0  0  0  0  0  0  0  0
   13.4501    2.5708   46.8226 C   0  0  0  0  0  0  0  0  0  0  0  0
   11.9951    2.0728   46.9565 C   0  0  0  0  0  0  0  0  0  0  0  0
   10.9913    3.1197   47.4297 C   0  0  0  0  0  0  0  0  0  0  0  0
   15.1780    4.1358   47.6829 N   0  0  0  0  0  0  0  0  0  0  0  0
   15.2272    4.5967   46.7743 H   0  0  0  0  0  0  0  0  0  0  0  0
   15.8520    3.3709   47.7132 H   0  0  0  0  0  0  0  0  0  0  0  0
   14.3527    1.4200   46.8539 N   0  0  0  0  0  0  0  0  0  0  0  0
   15.2191    1.1077   45.8679 C   0  0  0  0  0  0  0  0  0  0  0  0
   15.4408    1.7987   44.9087 O   0  0  0  0  0  0  0  0  0  0  0  0
   15.9399   -0.2183   45.9861 C   0  0  0  0  0  0  0  0  0  0  0  0
   14.3262    0.8355   47.6457 H   0  0  0  0  0  0  0  0  0  0  0  0
   10.3398    5.3042   48.3267 C   0  0  0  0  0  0  0  0  0  0  0  0
   10.0437    5.3231   49.5429 O   0  0  0  0  0  0  0  0  0  0  0  0
    9.7790    6.0881   47.5077 O   0  0  0  0  0  0  0  0  0  0  0  0
   10.0113    6.0621   46.6003 H   0  0  0  0  0  0  0  0  0  0  0  0
   11.5244    1.5056   45.7161 O   0  0  0  0  0  0  0  0  0  0  0  0
   11.1328    0.1193   45.8921 C   0  0  0  0  0  0  0  0  0  0  0  0
    9.6343   -0.0672   45.5461 C   0  0  0  0  0  0  0  0  0  0  0  0
    8.6834    0.3992   46.6395 C   0  0  0  0  0  0  0  0  0  0  0  0
   12.0267   -0.8319   45.0964 C   0  0  0  0  0  0  0  0  0  0  0  0
   12.7270   -1.8776   45.9790 C   0  0  0  0  0  0  0  0  0  0  0  0
 15 16  2  0  0  0
 15 17  1  0  0  0
 15  1  1  0  0  0
  1  2  1  0  0  0
  1  6  2  0  0  0
  2  3  1  0  0  0
  3  4  1  0  0  0
  3  7  1  0  0  0
  4 10  1  0  0  0
  4  5  1  0  0  0
 10 11  1  0  0  0
 11 12  2  0  0  0
 11 13  1  0  0  0
  5  6  1  0  0  0
  5 19  1  0  0  0
 19 20  1  0  0  0
 20 21  1  0  0  0
 20 23  1  0  0  0
 21 22  1  0  0  0
 23 24  1  0  0  0
 17 18  1  0  0  0
 10 14  1  0  0  0
  7  8  1  0  0  0
  7  9  1  0  0  0
M  END
> <minimizedAffinity>
-6.55240

$$$$
5NWE_G39_A_503


 24 24  0  0  0  0  0  0  0  0999 V2000
   13.5390   -1.9836   45.9470 C   0  0  0  0  0  0  0  0  0  0  0  0
   14.2536   -1.7150   47.2629 C   0  0  0  0  0  0  0  0  0  0  0  0
   14.8758   -0.3168   47.3909 C   0  0  0  0  0  0  0  0  0  0  0  0
   13.8085    0.7231   47.0456 C   0  0  0  0  0  0  0  0  0  0  0  0
   13.1923    0.4999   45.6479 C   0  0  0  0  0  0  0  0  0  0  0  0
   13.0433   -0.9596   45.2293 C   0  0  0  0  0  0  0  0  0  0  0  0
   15.3780   -0.1437   48.7660 N   0  0  0  0  0  0  0  0  0  0  0  0
   14.6083   -0.2564   49.4258 H   0  0  0  0  0  0  0  0  0  0  0  0
   15.7785    0.7889   48.8668 H   0  0  0  0  0  0  0  0  0  0  0  0
   14.3414    2.0834   47.1200 N   0  0  0  0  0  0  0  0  0  0  0  0
   14.2258    2.8860   48.1984 C   0  0  0  0  0  0  0  0  0  0  0  0
   13.7838    2.5414   49.2626 O   0  0  0  0  0  0  0  0  0  0  0  0
   14.6727    4.3228   48.0319 C   0  0  0  0  0  0  0  0  0  0  0  0
   14.8150    2.4361   46.3322 H   0  0  0  0  0  0  0  0  0  0  0  0
   13.3975   -3.3714   45.4726 C   0  0  0  0  0  0  0  0  0  0  0  0
   12.5501   -4.1203   46.0094 O   0  0  0  0  0  0  0  0  0  0  0  0
   14.1365   -3.7906   44.5358 O   0  0  0  0  0  0  0  0  0  0  0  0
   14.7662   -3.2181   44.1439 H   0  0  0  0  0  0  0  0  0  0  0  0
   11.9081    1.1480   45.5372 O   0  0  0  0  0  0  0  0  0  0  0  0
   10.9520    0.5729   46.4654 C   0  0  0  0  0  0  0  0  0  0  0  0
   10.5886    1.5961   47.5703 C   0  0  0  0  0  0  0  0  0  0  0  0
   10.7624    3.0490   47.1505 C   0  0  0  0  0  0  0  0  0  0  0  0
    9.7114    0.0389   45.7493 C   0  0  0  0  0  0  0  0  0  0  0  0
    8.4209    0.2257   46.5632 C   0  0  0  0  0  0  0  0  0  0  0  0
 15 16  2  0  0  0
 15 17  1  0  0  0
 15  1  1  0  0  0
  1  2  1  0  0  0
  1  6  2  0  0  0
  2  3  1  0  0  0
  3  4  1  0  0  0
  3  7  1  0  0  0
  4 10  1  0  0  0
  4  5  1  0  0  0
 10 11  1  0  0  0
 11 12  2  0  0  0
 11 13  1  0  0  0
  5  6  1  0  0  0
  5 19  1  0  0  0
 19 20  1  0  0  0
 20 21  1  0  0  0
 20 23  1  0  0  0
 21 22  1  0  0  0
 23 24  1  0  0  0
 17 18  1  0  0  0
 10 14  1  0  0  0
  7  8  1  0  0  0
  7  9  1  0  0  0
M  END
> <minimizedAffinity>
-6.00834

$$$$
5NWE_G39_A_503


 24 24  0  0  0  0  0  0  0  0999 V2000
   13.0206    2.8908   46.7473 C   0  0  0  0  0  0  0  0  0  0  0  0
   14.2757    2.1079   46.3923 C   0  0  0  0  0  0  0  0  0  0  0  0
   14.2283    0.6124   46.7381 C   0  0  0  0  0  0  0  0  0  0  0  0
   12.9455    0.0192   46.1529 C   0  0  0  0  0  0  0  0  0  0  0  0
   11.6772    0.7555   46.6347 C   0  0  0  0  0  0  0  0  0  0  0  0
   11.8363    2.2593   46.8362 C   0  0  0  0  0  0  0  0  0  0  0  0
   15.4295   -0.0415   46.1879 N   0  0  0  0  0  0  0  0  0  0  0  0
   15.4569    0.0930   45.1771 H   0  0  0  0  0  0  0  0  0  0  0  0
   15.3996   -1.0393   46.3974 H   0  0  0  0  0  0  0  0  0  0  0  0
   12.8199   -1.4036   46.4690 N   0  0  0  0  0  0  0  0  0  0  0  0
   13.2377   -2.4005   45.6614 C   0  0  0  0  0  0  0  0  0  0  0  0
   13.8692   -2.2415   44.6502 O   0  0  0  0  0  0  0  0  0  0  0  0
   12.8599   -3.8100   46.0641 C   0  0  0  0  0  0  0  0  0  0  0  0
   12.4035   -1.6497   47.3265 H   0  0  0  0  0  0  0  0  0  0  0  0
   13.1189    4.3408   46.9901 C   0  0  0  0  0  0  0  0  0  0  0  0
   12.1088    5.0611   46.8229 O   0  0  0  0  0  0  0  0  0  0  0  0
   14.2213    4.8403   47.3570 O   0  0  0  0  0  0  0  0  0  0  0  0
   14.9687    4.2882   47.4779 H   0  0  0  0  0  0  0  0  0  0  0  0
   10.5697    0.5215   45.7400 O   0  0  0  0  0  0  0  0  0  0  0  0
    9.3127    0.9076   46.3541 C   0  0  0  0  0  0  0  0  0  0  0  0
    8.6724    2.0866   45.5797 C   0  0  0  0  0  0  0  0  0  0  0  0
    8.1887    3.2227   46.4701 C   0  0  0  0  0  0  0  0  0  0  0  0
    8.3553   -0.2767   46.4879 C   0  0  0  0  0  0  0  0  0  0  0  0
    7.3010   -0.0755   47.5884 C   0  0  0  0  0  0  0  0  0  0  0  0
 15 16  2  0  0  0
 15 17  1  0  0  0
 15  1  1  0  0  0
  1  2  1  0  0  0
  1  6  2  0  0  0
  2  3  1  0  0  0
  3  4  1  0  0  0
  3  7  1  0  0  0
  4 10  1  0  0  0
  4  5  1  0  0  0
 10 11  1  0  0  0
 11 12  2  0  0  0
 11 13  1  0  0  0
  5  6  1  0  0  0
  5 19  1  0  0  0
 19 20  1  0  0  0
 20 21  1  0  0  0
 20 23  1  0  0  0
 21 22  1  0  0  0
 23 24  1  0  0  0
 17 18  1  0  0  0
 10 14  1  0  0  0
  7  8  1  0  0  0
  7  9  1  0  0  0
M  END
> <minimizedAffinity>
-5.95893

$$$$
5NWE_G39_A_503


 24 24  0  0  0  0  0  0  0  0999 V2000
   10.3007    1.1619   45.7501 C   0  0  0  0  0  0  0  0  0  0  0  0
   10.5312   -0.3408   45.6936 C   0  0  0  0  0  0  0  0  0  0  0  0
   11.9960   -0.7673   45.5178 C   0  0  0  0  0  0  0  0  0  0  0  0
   12.8399   -0.0535   46.5752 C   0  0  0  0  0  0  0  0  0  0  0  0
   12.6836    1.4814   46.5227 C   0  0  0  0  0  0  0  0  0  0  0  0
   11.2909    1.9800   46.1493 C   0  0  0  0  0  0  0  0  0  0  0  0
   12.0841   -2.2328   45.6510 N   0  0  0  0  0  0  0  0  0  0  0  0
   11.7360   -2.5123   46.5681 H   0  0  0  0  0  0  0  0  0  0  0  0
   13.0563   -2.5253   45.5527 H   0  0  0  0  0  0  0  0  0  0  0  0
   14.2573   -0.3929   46.4489 N   0  0  0  0  0  0  0  0  0  0  0  0
   14.9651   -1.0574   47.3858 C   0  0  0  0  0  0  0  0  0  0  0  0
   14.4930   -1.5548   48.3739 O   0  0  0  0  0  0  0  0  0  0  0  0
   16.4600   -1.1580   47.1692 C   0  0  0  0  0  0  0  0  0  0  0  0
   14.7249   -0.1187   45.6270 H   0  0  0  0  0  0  0  0  0  0  0  0
    8.9864    1.7055   45.3650 C   0  0  0  0  0  0  0  0  0  0  0  0
    8.7989    2.9426   45.4022 O   0  0  0  0  0  0  0  0  0  0  0  0
    8.0635    0.9174   45.0089 O   0  0  0  0  0  0  0  0  0  0  0  0
    8.2191   -0.0063   44.9861 H   0  0  0  0  0  0  0  0  0  0  0  0
   13.0733    2.0859   47.7734 O   0  0  0  0  0  0  0  0  0  0  0  0
   11.9249    2.6453   48.4624 C   0  0  0  0  0  0  0  0  0  0  0  0
   11.6087    1.8264   49.7388 C   0  0  0  0  0  0  0  0  0  0  0  0
   12.1959    2.4153   51.0139 C   0  0  0  0  0  0  0  0  0  0  0  0
   12.1103    4.1318   48.7672 C   0  0  0  0  0  0  0  0  0  0  0  0
   10.8481    4.9640   48.4896 C   0  0  0  0  0  0  0  0  0  0  0  0
 15 16  2  0  0  0
 15 17  1  0  0  0
 15  1  1  0  0  0
  1  2  1  0  0  0
  1  6  2  0  0  0
  2  3  1  0  0  0
  3  4  1  0  0  0
  3  7  1  0  0  0
  4 10  1  0  0  0
  4  5  1  0  0  0
 10 11  1  0  0  0
 11 12  2  0  0  0
 11 13  1  0  0  0
  5  6  1  0  0  0
  5 19  1  0  0  0
 19 20  1  0  0  0
 20 21  1  0  0  0
 20 23  1  0  0  0
 21 22  1  0  0  0
 23 24  1  0  0  0
 17 18  1  0  0  0
 10 14  1  0  0  0
  7  8  1  0  0  0
  7  9  1  0  0  0
M  END
> <minimizedAffinity>
-5.84762

$$$$
5NWE_G39_A_503


 24 24  0  0  0  0  0  0  0  0999 V2000
   13.8452   -0.2433   46.9242 C   0  0  0  0  0  0  0  0  0  0  0  0
   13.1104   -0.7515   45.6929 C   0  0  0  0  0  0  0  0  0  0  0  0
   11.5783   -0.7287   45.7950 C   0  0  0  0  0  0  0  0  0  0  0  0
   11.1421    0.6682   46.2403 C   0  0  0  0  0  0  0  0  0  0  0  0
   11.8073    1.1043   47.5633 C   0  0  0  0  0  0  0  0  0  0  0  0
   13.2406    0.6199   47.7600 C   0  0  0  0  0  0  0  0  0  0  0  0
   11.0087   -1.0828   44.4822 N   0  0  0  0  0  0  0  0  0  0  0  0
   11.3321   -0.4169   43.7805 H   0  0  0  0  0  0  0  0  0  0  0  0
    9.9905   -1.0541   44.5344 H   0  0  0  0  0  0  0  0  0  0  0  0
    9.6890    0.7551   46.3861 N   0  0  0  0  0  0  0  0  0  0  0  0
    8.9133    1.6489   45.7382 C   0  0  0  0  0  0  0  0  0  0  0  0
    9.3018    2.3940   44.8777 O   0  0  0  0  0  0  0  0  0  0  0  0
    7.4581    1.7160   46.1502 C   0  0  0  0  0  0  0  0  0  0  0  0
    9.2487    0.1203   46.9964 H   0  0  0  0  0  0  0  0  0  0  0  0
   15.2194   -0.7056   47.1868 C   0  0  0  0  0  0  0  0  0  0  0  0
   15.6203   -0.7992   48.3691 O   0  0  0  0  0  0  0  0  0  0  0  0
   15.9780   -0.9950   46.2172 O   0  0  0  0  0  0  0  0  0  0  0  0
   15.6636   -0.9199   45.3377 H   0  0  0  0  0  0  0  0  0  0  0  0
   11.7778    2.5392   47.7108 O   0  0  0  0  0  0  0  0  0  0  0  0
   11.3070    2.9182   49.0303 C   0  0  0  0  0  0  0  0  0  0  0  0
   12.1996    4.0377   49.6217 C   0  0  0  0  0  0  0  0  0  0  0  0
   13.3791    3.5244   50.4359 C   0  0  0  0  0  0  0  0  0  0  0  0
    9.8295    3.3104   49.0184 C   0  0  0  0  0  0  0  0  0  0  0  0
    8.9215    2.2506   49.6627 C   0  0  0  0  0  0  0  0  0  0  0  0
 15 16  2  0  0  0
 15 17  1  0  0  0
 15  1  1  0  0  0
  1  2  1  0  0  0
  1  6  2  0  0  0
  2  3  1  0  0  0
  3  4  1  0  0  0
  3  7  1  0  0  0
  4 10  1  0  0  0
  4  5  1  0  0  0
 10 11  1  0  0  0
 11 12  2  0  0  0
 11 13  1  0  0  0
  5  6  1  0  0  0
  5 19  1  0  0  0
 19 20  1  0  0  0
 20 21  1  0  0  0
 20 23  1  0  0  0
 21 22  1  0  0  0
 23 24  1  0  0  0
 17 18  1  0  0  0
 10 14  1  0  0  0
  7  8  1  0  0  0
  7  9  1  0  0  0
M  END
> <minimizedAffinity>
-5.80014

$$$$
5NWE_G39_A_503


 24 24  0  0  0  0  0  0  0  0999 V2000
   13.1314    1.8600   46.3431 C   0  0  0  0  0  0  0  0  0  0  0  0
   12.7202    0.5735   45.6432 C   0  0  0  0  0  0  0  0  0  0  0  0
   11.4916   -0.1276   46.2412 C   0  0  0  0  0  0  0  0  0  0  0  0
   10.3611    0.8954   46.3647 C   0  0  0  0  0  0  0  0  0  0  0  0
   10.7686    2.1337   47.1916 C   0  0  0  0  0  0  0  0  0  0  0  0
   12.2213    2.5714   47.0324 C   0  0  0  0  0  0  0  0  0  0  0  0
   11.1131   -1.2524   45.3666 N   0  0  0  0  0  0  0  0  0  0  0  0
   10.9069   -0.9014   44.4314 H   0  0  0  0  0  0  0  0  0  0  0  0
   10.2870   -1.7150   45.7460 H   0  0  0  0  0  0  0  0  0  0  0  0
    9.1622    0.3009   46.9559 N   0  0  0  0  0  0  0  0  0  0  0  0
    7.9464    0.3029   46.3709 C   0  0  0  0  0  0  0  0  0  0  0  0
    7.7281    0.6802   45.2499 O   0  0  0  0  0  0  0  0  0  0  0  0
    6.7851   -0.1916   47.2066 C   0  0  0  0  0  0  0  0  0  0  0  0
    9.2482   -0.1285   47.8377 H   0  0  0  0  0  0  0  0  0  0  0  0
   14.5305    2.3138   46.2559 C   0  0  0  0  0  0  0  0  0  0  0  0
   15.0070    3.0152   47.1769 O   0  0  0  0  0  0  0  0  0  0  0  0
   15.2296    1.9960   45.2511 O   0  0  0  0  0  0  0  0  0  0  0  0
   14.8589    1.4704   44.5697 H   0  0  0  0  0  0  0  0  0  0  0  0
    9.9108    3.2568   46.9014 O   0  0  0  0  0  0  0  0  0  0  0  0
    9.4069    3.8574   48.1228 C   0  0  0  0  0  0  0  0  0  0  0  0
    7.9587    4.3674   47.9170 C   0  0  0  0  0  0  0  0  0  0  0  0
    7.3339    3.9415   46.5957 C   0  0  0  0  0  0  0  0  0  0  0  0
    9.5146    2.9051   49.3139 C   0  0  0  0  0  0  0  0  0  0  0  0
    8.1515    2.5698   49.9402 C   0  0  0  0  0  0  0  0  0  0  0  0
 15 16  2  0  0  0
 15 17  1  0  0  0
 15  1  1  0  0  0
  1  2  1  0  0  0
  1  6  2  0  0  0
  2  3  1  0  0  0
  3  4  1  0  0  0
  3  7  1  0  0  0
  4 10  1  0  0  0
  4  5  1  0  0  0
 10 11  1  0  0  0
 11 12  2  0  0  0
 11 13  1  0  0  0
  5  6  1  0  0  0
  5 19  1  0  0  0
 19 20  1  0  0  0
 20 21  1  0  0  0
 20 23  1  0  0  0
 21 22  1  0  0  0
 23 24  1  0  0  0
 17 18  1  0  0  0
 10 14  1  0  0  0
  7  8  1  0  0  0
  7  9  1  0  0  0
M  END
> <minimizedAffinity>
-5.78972

$$$$
