1LGT_BP3_A_300


 17 18  0  0  0  0  0  0  0  0999 V2000
   22.7030   21.6969   16.6329 C   0  0  0  0  0  0  0  0  0  0  0  0
   21.3261   21.8953   16.4102 C   0  0  0  0  0  0  0  0  0  0  0  0
   20.7791   23.1567   16.3622 O   0  0  0  0  0  0  0  0  0  0  0  0
   20.4408   20.8028   16.2273 C   0  0  0  0  0  0  0  0  0  0  0  0
   19.0959   21.0541   16.0142 O   0  0  0  0  0  0  0  0  0  0  0  0
   20.9310   19.4798   16.2625 C   0  0  0  0  0  0  0  0  0  0  0  0
   22.3142   19.2645   16.4822 C   0  0  0  0  0  0  0  0  0  0  0  0
   23.1923   20.3708   16.6671 C   0  0  0  0  0  0  0  0  0  0  0  0
   21.3255   23.9090   16.4777 H   0  0  0  0  0  0  0  0  0  0  0  0
   18.7819   21.9367   15.9929 H   0  0  0  0  0  0  0  0  0  0  0  0
   23.6186   22.8733   16.8299 C   0  0  0  0  0  0  0  0  0  0  0  0
   23.5930   23.6568   18.0244 C   0  0  0  0  0  0  0  0  0  0  0  0
   24.4641   24.7690   18.1883 C   0  0  0  0  0  0  0  0  0  0  0  0
   25.3774   25.1132   17.1600 C   0  0  0  0  0  0  0  0  0  0  0  0
   25.4121   24.3409   15.9732 C   0  0  0  0  0  0  0  0  0  0  0  0
   24.5362   23.2336   15.8175 C   0  0  0  0  0  0  0  0  0  0  0  0
   22.5250   23.3467   19.3777 Cl  0  0  0  0  0  0  0  0  0  0  0  0
  1  2  2  0  0  0
  1  8  1  0  0  0
  1 11  1  0  0  0
  2  3  1  0  0  0
  2  4  1  0  0  0
  4  5  1  0  0  0
  4  6  2  0  0  0
  6  7  1  0  0  0
  7  8  2  0  0  0
 11 12  2  0  0  0
 11 16  1  0  0  0
 12 13  1  0  0  0
 12 17  1  0  0  0
 13 14  2  0  0  0
 14 15  1  0  0  0
 15 16  2  0  0  0
  3  9  1  0  0  0
  5 10  1  0  0  0
M  END
> <minimizedAffinity>
-7.80165

$$$$
1LGT_BP3_A_300


 17 18  0  0  0  0  0  0  0  0999 V2000
   22.1377   22.1460   16.8338 C   0  0  0  0  0  0  0  0  0  0  0  0
   22.8180   20.9417   16.5666 C   0  0  0  0  0  0  0  0  0  0  0  0
   24.1913   20.8676   16.6016 O   0  0  0  0  0  0  0  0  0  0  0  0
   22.1175   19.7509   16.2472 C   0  0  0  0  0  0  0  0  0  0  0  0
   22.8357   18.5951   15.9908 O   0  0  0  0  0  0  0  0  0  0  0  0
   20.7072   19.7509   16.1940 C   0  0  0  0  0  0  0  0  0  0  0  0
   20.0087   20.9539   16.4637 C   0  0  0  0  0  0  0  0  0  0  0  0
   20.7248   22.1439   16.7806 C   0  0  0  0  0  0  0  0  0  0  0  0
   24.6965   21.6293   16.8081 H   0  0  0  0  0  0  0  0  0  0  0  0
   23.7719   18.6071   16.0291 H   0  0  0  0  0  0  0  0  0  0  0  0
   22.9056   23.3961   17.1639 C   0  0  0  0  0  0  0  0  0  0  0  0
   22.9946   23.8957   18.4994 C   0  0  0  0  0  0  0  0  0  0  0  0
   23.7218   25.0831   18.7891 C   0  0  0  0  0  0  0  0  0  0  0  0
   24.3745   25.7881   17.7466 C   0  0  0  0  0  0  0  0  0  0  0  0
   24.2942   25.2993   16.4197 C   0  0  0  0  0  0  0  0  0  0  0  0
   23.5631   24.1141   16.1398 C   0  0  0  0  0  0  0  0  0  0  0  0
   22.2467   23.1285   19.8852 Cl  0  0  0  0  0  0  0  0  0  0  0  0
  1  2  2  0  0  0
  1  8  1  0  0  0
  1 11  1  0  0  0
  2  3  1  0  0  0
  2  4  1  0  0  0
  4  5  1  0  0  0
  4  6  2  0  0  0
  6  7  1  0  0  0
  7  8  2  0  0  0
 11 12  2  0  0  0
 11 16  1  0  0  0
 12 13  1  0  0  0
 12 17  1  0  0  0
 13 14  2  0  0  0
 14 15  1  0  0  0
 15 16  2  0  0  0
  3  9  1  0  0  0
  5 10  1  0  0  0
M  END
> <minimizedAffinity>
-6.78550

$$$$
1LGT_BP3_A_300


 17 18  0  0  0  0  0  0  0  0999 V2000
   24.1518   24.8820   16.8307 C   0  0  0  0  0  0  0  0  0  0  0  0
   23.7057   23.5817   16.5229 C   0  0  0  0  0  0  0  0  0  0  0  0
   24.0666   22.9551   15.3524 O   0  0  0  0  0  0  0  0  0  0  0  0
   22.8623   22.8600   17.4053 C   0  0  0  0  0  0  0  0  0  0  0  0
   22.4511   21.5858   17.0525 O   0  0  0  0  0  0  0  0  0  0  0  0
   22.4522   23.4387   18.6255 C   0  0  0  0  0  0  0  0  0  0  0  0
   22.8955   24.7448   18.9505 C   0  0  0  0  0  0  0  0  0  0  0  0
   23.7404   25.4598   18.0538 C   0  0  0  0  0  0  0  0  0  0  0  0
   24.6227   23.3932   14.7386 H   0  0  0  0  0  0  0  0  0  0  0  0
   22.7297   21.2118   16.2398 H   0  0  0  0  0  0  0  0  0  0  0  0
   25.0407   25.6274   15.8739 C   0  0  0  0  0  0  0  0  0  0  0  0
   26.4537   25.7121   16.0677 C   0  0  0  0  0  0  0  0  0  0  0  0
   27.2757   26.4269   15.1534 C   0  0  0  0  0  0  0  0  0  0  0  0
   26.6968   27.0660   14.0281 C   0  0  0  0  0  0  0  0  0  0  0  0
   25.2972   26.9856   13.8260 C   0  0  0  0  0  0  0  0  0  0  0  0
   24.4840   26.2718   14.7463 C   0  0  0  0  0  0  0  0  0  0  0  0
   27.3061   24.9692   17.4055 Cl  0  0  0  0  0  0  0  0  0  0  0  0
  1  2  2  0  0  0
  1  8  1  0  0  0
  1 11  1  0  0  0
  2  3  1  0  0  0
  2  4  1  0  0  0
  4  5  1  0  0  0
  4  6  2  0  0  0
  6  7  1  0  0  0
  7  8  2  0  0  0
 11 12  2  0  0  0
 11 16  1  0  0  0
 12 13  1  0  0  0
 12 17  1  0  0  0
 13 14  2  0  0  0
 14 15  1  0  0  0
 15 16  2  0  0  0
  3  9  1  0  0  0
  5 10  1  0  0  0
M  END
> <minimizedAffinity>
-6.45949

$$$$
1LGT_BP3_A_300


 17 18  0  0  0  0  0  0  0  0999 V2000
   24.4950   24.6877   16.0589 C   0  0  0  0  0  0  0  0  0  0  0  0
   23.5004   23.8213   16.5538 C   0  0  0  0  0  0  0  0  0  0  0  0
   23.0116   22.7804   15.7986 O   0  0  0  0  0  0  0  0  0  0  0  0
   22.9562   23.9844   17.8530 C   0  0  0  0  0  0  0  0  0  0  0  0
   21.9787   23.1059   18.2890 O   0  0  0  0  0  0  0  0  0  0  0  0
   23.4102   25.0299   18.6854 C   0  0  0  0  0  0  0  0  0  0  0  0
   24.4126   25.9074   18.2027 C   0  0  0  0  0  0  0  0  0  0  0  0
   24.9489   25.7339   16.8945 C   0  0  0  0  0  0  0  0  0  0  0  0
   23.3414   22.6337   14.9339 H   0  0  0  0  0  0  0  0  0  0  0  0
   21.6851   22.4156   17.7276 H   0  0  0  0  0  0  0  0  0  0  0  0
   25.0504   24.4958   14.6747 C   0  0  0  0  0  0  0  0  0  0  0  0
   25.0822   25.5591   13.7210 C   0  0  0  0  0  0  0  0  0  0  0  0
   25.6070   25.3547   12.4151 C   0  0  0  0  0  0  0  0  0  0  0  0
   26.1116   24.0830   12.0436 C   0  0  0  0  0  0  0  0  0  0  0  0
   26.0867   23.0232   12.9830 C   0  0  0  0  0  0  0  0  0  0  0  0
   25.5579   23.2362   14.2840 C   0  0  0  0  0  0  0  0  0  0  0  0
   24.5012   27.1804   14.0405 Cl  0  0  0  0  0  0  0  0  0  0  0  0
  1  2  2  0  0  0
  1  8  1  0  0  0
  1 11  1  0  0  0
  2  3  1  0  0  0
  2  4  1  0  0  0
  4  5  1  0  0  0
  4  6  2  0  0  0
  6  7  1  0  0  0
  7  8  2  0  0  0
 11 12  2  0  0  0
 11 16  1  0  0  0
 12 13  1  0  0  0
 12 17  1  0  0  0
 13 14  2  0  0  0
 14 15  1  0  0  0
 15 16  2  0  0  0
  3  9  1  0  0  0
  5 10  1  0  0  0
M  END
> <minimizedAffinity>
-6.31184

$$$$
1LGT_BP3_A_300


 17 18  0  0  0  0  0  0  0  0999 V2000
   25.0187   24.8237   15.4145 C   0  0  0  0  0  0  0  0  0  0  0  0
   26.3339   24.3622   15.2096 C   0  0  0  0  0  0  0  0  0  0  0  0
   26.9011   23.4161   16.0318 O   0  0  0  0  0  0  0  0  0  0  0  0
   27.1338   24.8537   14.1469 C   0  0  0  0  0  0  0  0  0  0  0  0
   28.4211   24.3676   13.9924 O   0  0  0  0  0  0  0  0  0  0  0  0
   26.6180   25.8248   13.2621 C   0  0  0  0  0  0  0  0  0  0  0  0
   25.2955   26.2962   13.4535 C   0  0  0  0  0  0  0  0  0  0  0  0
   24.5035   25.7960   14.5267 C   0  0  0  0  0  0  0  0  0  0  0  0
   26.4103   23.0624   16.7473 H   0  0  0  0  0  0  0  0  0  0  0  0
   28.7529   23.7230   14.5859 H   0  0  0  0  0  0  0  0  0  0  0  0
   24.1943   24.2899   16.5532 C   0  0  0  0  0  0  0  0  0  0  0  0
   24.1430   24.9483   17.8202 C   0  0  0  0  0  0  0  0  0  0  0  0
   23.3610   24.4235   18.8859 C   0  0  0  0  0  0  0  0  0  0  0  0
   22.6150   23.2324   18.6995 C   0  0  0  0  0  0  0  0  0  0  0  0
   22.6575   22.5739   17.4463 C   0  0  0  0  0  0  0  0  0  0  0  0
   23.4437   23.1041   16.3888 C   0  0  0  0  0  0  0  0  0  0  0  0
   25.0050   26.4271   18.1924 Cl  0  0  0  0  0  0  0  0  0  0  0  0
  1  2  2  0  0  0
  1  8  1  0  0  0
  1 11  1  0  0  0
  2  3  1  0  0  0
  2  4  1  0  0  0
  4  5  1  0  0  0
  4  6  2  0  0  0
  6  7  1  0  0  0
  7  8  2  0  0  0
 11 12  2  0  0  0
 11 16  1  0  0  0
 12 13  1  0  0  0
 12 17  1  0  0  0
 13 14  2  0  0  0
 14 15  1  0  0  0
 15 16  2  0  0  0
  3  9  1  0  0  0
  5 10  1  0  0  0
M  END
> <minimizedAffinity>
-6.28957

$$$$
1LGT_BP3_A_300


 17 18  0  0  0  0  0  0  0  0999 V2000
   24.5402   25.0137   16.1932 C   0  0  0  0  0  0  0  0  0  0  0  0
   23.9364   23.7416   16.2365 C   0  0  0  0  0  0  0  0  0  0  0  0
   24.0012   22.8772   15.1681 O   0  0  0  0  0  0  0  0  0  0  0  0
   23.2325   23.2949   17.3836 C   0  0  0  0  0  0  0  0  0  0  0  0
   22.6558   22.0361   17.3721 O   0  0  0  0  0  0  0  0  0  0  0  0
   23.1258   24.1272   18.5184 C   0  0  0  0  0  0  0  0  0  0  0  0
   23.7308   25.4083   18.4909 C   0  0  0  0  0  0  0  0  0  0  0  0
   24.4327   25.8458   17.3312 C   0  0  0  0  0  0  0  0  0  0  0  0
   24.4558   23.1292   14.3885 H   0  0  0  0  0  0  0  0  0  0  0  0
   22.7332   21.4922   16.6130 H   0  0  0  0  0  0  0  0  0  0  0  0
   25.2755   25.4648   14.9615 C   0  0  0  0  0  0  0  0  0  0  0  0
   26.5886   24.9943   14.6527 C   0  0  0  0  0  0  0  0  0  0  0  0
   27.2687   25.4379   13.4851 C   0  0  0  0  0  0  0  0  0  0  0  0
   26.6437   26.3577   12.6057 C   0  0  0  0  0  0  0  0  0  0  0  0
   25.3410   26.8280   12.9020 C   0  0  0  0  0  0  0  0  0  0  0  0
   24.6709   26.3814   14.0720 C   0  0  0  0  0  0  0  0  0  0  0  0
   27.4795   23.8549   15.6408 Cl  0  0  0  0  0  0  0  0  0  0  0  0
  1  2  2  0  0  0
  1  8  1  0  0  0
  1 11  1  0  0  0
  2  3  1  0  0  0
  2  4  1  0  0  0
  4  5  1  0  0  0
  4  6  2  0  0  0
  6  7  1  0  0  0
  7  8  2  0  0  0
 11 12  2  0  0  0
 11 16  1  0  0  0
 12 13  1  0  0  0
 12 17  1  0  0  0
 13 14  2  0  0  0
 14 15  1  0  0  0
 15 16  2  0  0  0
  3  9  1  0  0  0
  5 10  1  0  0  0
M  END
> <minimizedAffinity>
-6.28501

$$$$
1LGT_BP3_A_300


 17 18  0  0  0  0  0  0  0  0999 V2000
   24.4904   23.6129   15.9063 C   0  0  0  0  0  0  0  0  0  0  0  0
   24.2427   24.7536   16.6951 C   0  0  0  0  0  0  0  0  0  0  0  0
   24.8476   25.9598   16.4264 O   0  0  0  0  0  0  0  0  0  0  0  0
   23.3596   24.7097   17.8036 C   0  0  0  0  0  0  0  0  0  0  0  0
   23.1538   25.8597   18.5468 O   0  0  0  0  0  0  0  0  0  0  0  0
   22.7020   23.5067   18.1385 C   0  0  0  0  0  0  0  0  0  0  0  0
   22.9385   22.3517   17.3524 C   0  0  0  0  0  0  0  0  0  0  0  0
   23.8302   22.4089   16.2431 C   0  0  0  0  0  0  0  0  0  0  0  0
   25.4391   26.0366   15.7038 H   0  0  0  0  0  0  0  0  0  0  0  0
   23.5959   26.6527   18.3151 H   0  0  0  0  0  0  0  0  0  0  0  0
   25.4367   23.6858   14.7399 C   0  0  0  0  0  0  0  0  0  0  0  0
   26.8472   23.8232   14.9209 C   0  0  0  0  0  0  0  0  0  0  0  0
   27.7242   23.8957   13.8036 C   0  0  0  0  0  0  0  0  0  0  0  0
   27.2035   23.8288   12.4867 C   0  0  0  0  0  0  0  0  0  0  0  0
   25.8068   23.6901   12.2971 C   0  0  0  0  0  0  0  0  0  0  0  0
   24.9385   23.6214   13.4191 C   0  0  0  0  0  0  0  0  0  0  0  0
   27.6310   23.9122   16.4848 Cl  0  0  0  0  0  0  0  0  0  0  0  0
  1  2  2  0  0  0
  1  8  1  0  0  0
  1 11  1  0  0  0
  2  3  1  0  0  0
  2  4  1  0  0  0
  4  5  1  0  0  0
  4  6  2  0  0  0
  6  7  1  0  0  0
  7  8  2  0  0  0
 11 12  2  0  0  0
 11 16  1  0  0  0
 12 13  1  0  0  0
 12 17  1  0  0  0
 13 14  2  0  0  0
 14 15  1  0  0  0
 15 16  2  0  0  0
  3  9  1  0  0  0
  5 10  1  0  0  0
M  END
> <minimizedAffinity>
-6.22483

$$$$
1LGT_BP3_A_300


 17 18  0  0  0  0  0  0  0  0999 V2000
   24.3236   24.4470   16.2054 C   0  0  0  0  0  0  0  0  0  0  0  0
   23.5228   24.5647   17.3584 C   0  0  0  0  0  0  0  0  0  0  0  0
   23.3645   25.7687   18.0051 O   0  0  0  0  0  0  0  0  0  0  0  0
   22.8447   23.4463   17.9062 C   0  0  0  0  0  0  0  0  0  0  0  0
   22.0725   23.6172   19.0427 O   0  0  0  0  0  0  0  0  0  0  0  0
   22.9594   22.1791   17.2955 C   0  0  0  0  0  0  0  0  0  0  0  0
   23.7587   22.0457   16.1331 C   0  0  0  0  0  0  0  0  0  0  0  0
   24.4367   23.1769   15.5946 C   0  0  0  0  0  0  0  0  0  0  0  0
   23.7935   26.5354   17.6794 H   0  0  0  0  0  0  0  0  0  0  0  0
   22.0037   24.4632   19.4396 H   0  0  0  0  0  0  0  0  0  0  0  0
   25.0368   25.6483   15.6490 C   0  0  0  0  0  0  0  0  0  0  0  0
   26.1677   26.2244   16.3050 C   0  0  0  0  0  0  0  0  0  0  0  0
   26.8245   27.3642   15.7645 C   0  0  0  0  0  0  0  0  0  0  0  0
   26.3616   27.9440   14.5564 C   0  0  0  0  0  0  0  0  0  0  0  0
   25.2428   27.3784   13.8973 C   0  0  0  0  0  0  0  0  0  0  0  0
   24.5916   26.2417   14.4464 C   0  0  0  0  0  0  0  0  0  0  0  0
   26.8526   25.6129   17.7968 Cl  0  0  0  0  0  0  0  0  0  0  0  0
  1  2  2  0  0  0
  1  8  1  0  0  0
  1 11  1  0  0  0
  2  3  1  0  0  0
  2  4  1  0  0  0
  4  5  1  0  0  0
  4  6  2  0  0  0
  6  7  1  0  0  0
  7  8  2  0  0  0
 11 12  2  0  0  0
 11 16  1  0  0  0
 12 13  1  0  0  0
 12 17  1  0  0  0
 13 14  2  0  0  0
 14 15  1  0  0  0
 15 16  2  0  0  0
  3  9  1  0  0  0
  5 10  1  0  0  0
M  END
> <minimizedAffinity>
-6.21554

$$$$
1LGT_BP3_A_300


 17 18  0  0  0  0  0  0  0  0999 V2000
   24.9752   24.9524   15.5835 C   0  0  0  0  0  0  0  0  0  0  0  0
   26.2634   24.4051   15.4232 C   0  0  0  0  0  0  0  0  0  0  0  0
   26.8101   23.5633   16.3641 O   0  0  0  0  0  0  0  0  0  0  0  0
   27.0561   24.6989   14.2848 C   0  0  0  0  0  0  0  0  0  0  0  0
   28.3167   24.1359   14.1784 O   0  0  0  0  0  0  0  0  0  0  0  0
   26.5602   25.5539   13.2773 C   0  0  0  0  0  0  0  0  0  0  0  0
   25.2648   26.1094   13.4229 C   0  0  0  0  0  0  0  0  0  0  0  0
   24.4799   25.8081   14.5728 C   0  0  0  0  0  0  0  0  0  0  0  0
   26.3230   23.3407   17.1330 H   0  0  0  0  0  0  0  0  0  0  0  0
   28.6354   23.5697   14.8535 H   0  0  0  0  0  0  0  0  0  0  0  0
   24.1581   24.6291   16.8038 C   0  0  0  0  0  0  0  0  0  0  0  0
   23.5655   23.3433   16.9954 C   0  0  0  0  0  0  0  0  0  0  0  0
   22.7917   23.0600   18.1545 C   0  0  0  0  0  0  0  0  0  0  0  0
   22.6012   24.0587   19.1426 C   0  0  0  0  0  0  0  0  0  0  0  0
   23.1868   25.3358   18.9629 C   0  0  0  0  0  0  0  0  0  0  0  0
   23.9556   25.6101   17.8004 C   0  0  0  0  0  0  0  0  0  0  0  0
   23.7207   22.0139   15.8653 Cl  0  0  0  0  0  0  0  0  0  0  0  0
  1  2  2  0  0  0
  1  8  1  0  0  0
  1 11  1  0  0  0
  2  3  1  0  0  0
  2  4  1  0  0  0
  4  5  1  0  0  0
  4  6  2  0  0  0
  6  7  1  0  0  0
  7  8  2  0  0  0
 11 12  2  0  0  0
 11 16  1  0  0  0
 12 13  1  0  0  0
 12 17  1  0  0  0
 13 14  2  0  0  0
 14 15  1  0  0  0
 15 16  2  0  0  0
  3  9  1  0  0  0
  5 10  1  0  0  0
M  END
> <minimizedAffinity>
-6.17873

$$$$
1LGT_BP3_A_300


 17 18  0  0  0  0  0  0  0  0999 V2000
   25.4358   25.0207   17.0518 C   0  0  0  0  0  0  0  0  0  0  0  0
   25.4091   26.0490   16.0892 C   0  0  0  0  0  0  0  0  0  0  0  0
   24.4193   26.1175   15.1362 O   0  0  0  0  0  0  0  0  0  0  0  0
   26.4032   27.0598   16.0580 C   0  0  0  0  0  0  0  0  0  0  0  0
   26.3307   28.0460   15.0888 O   0  0  0  0  0  0  0  0  0  0  0  0
   27.4491   27.0547   17.0056 C   0  0  0  0  0  0  0  0  0  0  0  0
   27.4874   26.0286   17.9821 C   0  0  0  0  0  0  0  0  0  0  0  0
   26.4840   25.0177   18.0007 C   0  0  0  0  0  0  0  0  0  0  0  0
   23.7410   25.4712   15.1179 H   0  0  0  0  0  0  0  0  0  0  0  0
   25.6317   28.0392   14.4648 H   0  0  0  0  0  0  0  0  0  0  0  0
   24.3723   23.9576   17.0584 C   0  0  0  0  0  0  0  0  0  0  0  0
   23.2111   24.0580   17.8846 C   0  0  0  0  0  0  0  0  0  0  0  0
   22.2196   23.0384   17.8796 C   0  0  0  0  0  0  0  0  0  0  0  0
   22.3731   21.9028   17.0448 C   0  0  0  0  0  0  0  0  0  0  0  0
   23.5197   21.7954   16.2203 C   0  0  0  0  0  0  0  0  0  0  0  0
   24.5059   22.8176   16.2342 C   0  0  0  0  0  0  0  0  0  0  0  0
   22.8854   25.4026   18.9590 Cl  0  0  0  0  0  0  0  0  0  0  0  0
  1  2  2  0  0  0
  1  8  1  0  0  0
  1 11  1  0  0  0
  2  3  1  0  0  0
  2  4  1  0  0  0
  4  5  1  0  0  0
  4  6  2  0  0  0
  6  7  1  0  0  0
  7  8  2  0  0  0
 11 12  2  0  0  0
 11 16  1  0  0  0
 12 13  1  0  0  0
 12 17  1  0  0  0
 13 14  2  0  0  0
 14 15  1  0  0  0
 15 16  2  0  0  0
  3  9  1  0  0  0
  5 10  1  0  0  0
M  END
> <minimizedAffinity>
-6.09323

$$$$
