3GGU_017_B_201


 42 45  0  0  0  0  0  0  0  0999 V2000
   -8.2124   14.8885   26.6250 C   0  0  0  0  0  0  0  0  0  0  0  0
   -7.8374   13.5148   26.5070 O   0  0  0  0  0  0  0  0  0  0  0  0
   -8.5203   12.9573   26.9117 H   0  0  0  0  0  0  0  0  0  0  0  0
   -8.2941   15.2972   28.1025 C   0  0  0  0  0  0  0  0  0  0  0  0
   -8.2397   16.7716   28.2463 N   0  0  0  0  0  0  0  0  0  0  0  0
   -9.2883   17.3206   29.3801 S   0  0  0  0  0  0  0  0  0  0  0  0
  -10.4419   17.8571   28.7266 O   0  0  0  0  0  0  0  0  0  0  0  0
   -8.5901   18.3630   30.0494 O   0  0  0  0  0  0  0  0  0  0  0  0
  -10.8803   13.4422   33.2431 N   0  0  0  0  0  0  0  0  0  0  0  0
  -10.5295   14.3481   32.3195 C   0  0  0  0  0  0  0  0  0  0  0  0
   -9.4273   15.1560   32.5722 C   0  0  0  0  0  0  0  0  0  0  0  0
   -9.0401   16.1025   31.6370 C   0  0  0  0  0  0  0  0  0  0  0  0
   -9.7593   16.2277   30.4449 C   0  0  0  0  0  0  0  0  0  0  0  0
  -10.8610   15.4026   30.1976 C   0  0  0  0  0  0  0  0  0  0  0  0
  -11.2566   14.4584   31.1408 C   0  0  0  0  0  0  0  0  0  0  0  0
  -10.3642   13.3652   34.0780 H   0  0  0  0  0  0  0  0  0  0  0  0
  -11.6540   12.8539   33.0866 H   0  0  0  0  0  0  0  0  0  0  0  0
   -6.8527   17.2421   28.4789 C   0  0  0  0  0  0  0  0  0  0  0  0
   -6.2122   17.6536   27.1425 C   0  0  0  0  0  0  0  0  0  0  0  0
   -6.9423   18.8255   26.4911 C   0  0  0  0  0  0  0  0  0  0  0  0
   -4.7324   17.9660   27.3197 C   0  0  0  0  0  0  0  0  0  0  0  0
   -9.5184   15.1289   25.8634 C   0  0  0  0  0  0  0  0  0  0  0  0
   -9.1107   15.4004   24.4955 N   0  0  0  0  0  0  0  0  0  0  0  0
   -9.2305   16.5918   23.9084 C   0  0  0  0  0  0  0  0  0  0  0  0
   -9.6899   17.6175   24.4205 O   0  0  0  0  0  0  0  0  0  0  0  0
   -8.7236   14.6622   23.9717 H   0  0  0  0  0  0  0  0  0  0  0  0
   -8.7531   16.6267   22.5504 O   0  0  0  0  0  0  0  0  0  0  0  0
   -9.0101   15.4995   21.7292 C   0  0  0  0  0  0  0  0  0  0  0  0
  -10.4471   15.7258   21.3089 C   0  0  0  0  0  0  0  0  0  0  0  0
  -10.3499   16.7272   20.2940 O   0  0  0  0  0  0  0  0  0  0  0  0
   -9.1278   16.5292   19.5699 C   0  0  0  0  0  0  0  0  0  0  0  0
   -8.4918   17.7901   19.3993 O   0  0  0  0  0  0  0  0  0  0  0  0
   -7.1864   17.7988   19.9990 C   0  0  0  0  0  0  0  0  0  0  0  0
   -6.9277   16.4081   20.5662 C   0  0  0  0  0  0  0  0  0  0  0  0
   -8.2370   15.6517   20.4317 C   0  0  0  0  0  0  0  0  0  0  0  0
  -10.4300   13.8983   25.7894 C   0  0  0  0  0  0  0  0  0  0  0  0
  -12.1658   13.1098   27.3915 C   0  0  0  0  0  0  0  0  0  0  0  0
  -13.2883   13.3557   28.1553 C   0  0  0  0  0  0  0  0  0  0  0  0
  -13.8710   14.6120   28.1848 C   0  0  0  0  0  0  0  0  0  0  0  0
  -13.3339   15.6445   27.4279 C   0  0  0  0  0  0  0  0  0  0  0  0
  -12.2068   15.4170   26.6504 C   0  0  0  0  0  0  0  0  0  0  0  0
  -11.6228   14.1493   26.6400 C   0  0  0  0  0  0  0  0  0  0  0  0
  9 10  1  0  0  0
 10 11  2  0  0  0
 10 15  1  0  0  0
 11 12  1  0  0  0
 12 13  2  0  0  0
 13 14  1  0  0  0
 13  6  1  0  0  0
 14 15  2  0  0  0
  6  7  2  0  0  0
  6  8  2  0  0  0
  6  5  1  0  0  0
  5 18  1  0  0  0
  5  4  1  0  0  0
 18 19  1  0  0  0
 19 20  1  0  0  0
 19 21  1  0  0  0
  4  1  1  0  0  0
  1  2  1  0  0  0
  1 22  1  0  0  0
 22 23  1  0  0  0
 22 36  1  0  0  0
 23 24  1  0  0  0
 24 25  2  0  0  0
 24 27  1  0  0  0
 27 28  1  0  0  0
 28 29  1  0  0  0
 28 35  1  0  0  0
 29 30  1  0  0  0
 30 31  1  0  0  0
 31 32  1  0  0  0
 31 35  1  0  0  0
 32 33  1  0  0  0
 33 34  1  0  0  0
 34 35  1  0  0  0
 36 42  1  0  0  0
 37 38  2  0  0  0
 37 42  1  0  0  0
 38 39  1  0  0  0
 39 40  2  0  0  0
 40 41  1  0  0  0
 41 42  2  0  0  0
  9 16  1  0  0  0
  9 17  1  0  0  0
  2  3  1  0  0  0
 23 26  1  0  0  0
M  END
> <minimizedAffinity>
-9.77405

$$$$
3GGU_017_B_201


 42 45  0  0  0  0  0  0  0  0999 V2000
  -10.2878   17.4693   27.1277 C   0  0  0  0  0  0  0  0  0  0  0  0
  -11.1961   18.5439   27.3765 O   0  0  0  0  0  0  0  0  0  0  0  0
  -12.0504   18.3480   26.9609 H   0  0  0  0  0  0  0  0  0  0  0  0
  -10.0219   17.3294   25.6223 C   0  0  0  0  0  0  0  0  0  0  0  0
   -8.8005   16.5267   25.3742 N   0  0  0  0  0  0  0  0  0  0  0  0
   -9.1081   15.1998   24.4627 S   0  0  0  0  0  0  0  0  0  0  0  0
  -10.4403   14.7515   24.7275 O   0  0  0  0  0  0  0  0  0  0  0  0
   -8.1772   14.2235   24.9125 O   0  0  0  0  0  0  0  0  0  0  0  0
   -8.3990   15.9066   18.8504 N   0  0  0  0  0  0  0  0  0  0  0  0
   -8.5917   15.7525   20.1680 C   0  0  0  0  0  0  0  0  0  0  0  0
   -7.6466   15.0381   20.8945 C   0  0  0  0  0  0  0  0  0  0  0  0
   -7.8180   14.8611   22.2581 C   0  0  0  0  0  0  0  0  0  0  0  0
   -8.9375   15.4113   22.8891 C   0  0  0  0  0  0  0  0  0  0  0  0
   -9.8769   16.1363   22.1491 C   0  0  0  0  0  0  0  0  0  0  0  0
   -9.7105   16.3063   20.7777 C   0  0  0  0  0  0  0  0  0  0  0  0
   -7.6057   15.5136   18.4197 H   0  0  0  0  0  0  0  0  0  0  0  0
   -9.0507   16.4128   18.3135 H   0  0  0  0  0  0  0  0  0  0  0  0
   -7.7090   17.3605   24.8150 C   0  0  0  0  0  0  0  0  0  0  0  0
   -6.6542   17.6329   25.9007 C   0  0  0  0  0  0  0  0  0  0  0  0
   -6.7929   19.0300   26.5002 C   0  0  0  0  0  0  0  0  0  0  0  0
   -6.7023   16.5677   26.9878 C   0  0  0  0  0  0  0  0  0  0  0  0
  -10.8287   16.1857   27.7628 C   0  0  0  0  0  0  0  0  0  0  0  0
  -10.8354   16.4479   29.1920 N   0  0  0  0  0  0  0  0  0  0  0  0
   -9.8586   16.0739   30.0192 C   0  0  0  0  0  0  0  0  0  0  0  0
   -8.8282   15.4679   29.7088 O   0  0  0  0  0  0  0  0  0  0  0  0
  -11.6056   16.9295   29.5715 H   0  0  0  0  0  0  0  0  0  0  0  0
  -10.0776   16.4486   31.3921 O   0  0  0  0  0  0  0  0  0  0  0  0
   -9.3512   15.7531   32.3920 C   0  0  0  0  0  0  0  0  0  0  0  0
   -9.2022   16.8026   33.4732 C   0  0  0  0  0  0  0  0  0  0  0  0
  -10.4855   16.8267   34.1017 O   0  0  0  0  0  0  0  0  0  0  0  0
  -11.0317   15.5007   34.0800 C   0  0  0  0  0  0  0  0  0  0  0  0
  -12.3941   15.5774   33.6783 O   0  0  0  0  0  0  0  0  0  0  0  0
  -12.6261   14.8183   32.4809 C   0  0  0  0  0  0  0  0  0  0  0  0
  -11.3130   14.1474   32.0958 C   0  0  0  0  0  0  0  0  0  0  0  0
  -10.2618   14.7193   33.0298 C   0  0  0  0  0  0  0  0  0  0  0  0
  -12.2829   15.8733   27.3904 C   0  0  0  0  0  0  0  0  0  0  0  0
  -11.9520   13.4074   27.4950 C   0  0  0  0  0  0  0  0  0  0  0  0
  -12.3055   12.1736   28.0020 C   0  0  0  0  0  0  0  0  0  0  0  0
  -13.3128   12.0508   28.9447 C   0  0  0  0  0  0  0  0  0  0  0  0
  -13.9937   13.1781   29.3843 C   0  0  0  0  0  0  0  0  0  0  0  0
  -13.6555   14.4280   28.8844 C   0  0  0  0  0  0  0  0  0  0  0  0
  -12.6299   14.5383   27.9441 C   0  0  0  0  0  0  0  0  0  0  0  0
  9 10  1  0  0  0
 10 11  2  0  0  0
 10 15  1  0  0  0
 11 12  1  0  0  0
 12 13  2  0  0  0
 13 14  1  0  0  0
 13  6  1  0  0  0
 14 15  2  0  0  0
  6  7  2  0  0  0
  6  8  2  0  0  0
  6  5  1  0  0  0
  5 18  1  0  0  0
  5  4  1  0  0  0
 18 19  1  0  0  0
 19 20  1  0  0  0
 19 21  1  0  0  0
  4  1  1  0  0  0
  1  2  1  0  0  0
  1 22  1  0  0  0
 22 23  1  0  0  0
 22 36  1  0  0  0
 23 24  1  0  0  0
 24 25  2  0  0  0
 24 27  1  0  0  0
 27 28  1  0  0  0
 28 29  1  0  0  0
 28 35  1  0  0  0
 29 30  1  0  0  0
 30 31  1  0  0  0
 31 32  1  0  0  0
 31 35  1  0  0  0
 32 33  1  0  0  0
 33 34  1  0  0  0
 34 35  1  0  0  0
 36 42  1  0  0  0
 37 38  2  0  0  0
 37 42  1  0  0  0
 38 39  1  0  0  0
 39 40  2  0  0  0
 40 41  1  0  0  0
 41 42  2  0  0  0
  9 16  1  0  0  0
  9 17  1  0  0  0
  2  3  1  0  0  0
 23 26  1  0  0  0
M  END
> <minimizedAffinity>
-9.54333

$$$$
3GGU_017_B_201


 42 45  0  0  0  0  0  0  0  0999 V2000
   -7.6178   18.1228   26.3628 C   0  0  0  0  0  0  0  0  0  0  0  0
   -7.4668   19.4050   26.9752 O   0  0  0  0  0  0  0  0  0  0  0  0
   -6.5947   19.4616   27.3961 H   0  0  0  0  0  0  0  0  0  0  0  0
   -7.5689   17.0132   27.4226 C   0  0  0  0  0  0  0  0  0  0  0  0
   -8.9354   16.5602   27.7762 N   0  0  0  0  0  0  0  0  0  0  0  0
   -9.4734   17.2457   29.1643 S   0  0  0  0  0  0  0  0  0  0  0  0
  -10.6110   18.0613   28.8705 O   0  0  0  0  0  0  0  0  0  0  0  0
   -8.3992   18.0656   29.6072 O   0  0  0  0  0  0  0  0  0  0  0  0
  -10.9465   13.5163   33.2166 N   0  0  0  0  0  0  0  0  0  0  0  0
  -10.5786   14.4024   32.2804 C   0  0  0  0  0  0  0  0  0  0  0  0
  -11.2169   14.3628   31.0466 C   0  0  0  0  0  0  0  0  0  0  0  0
  -10.8584   15.2653   30.0580 C   0  0  0  0  0  0  0  0  0  0  0  0
   -9.8629   16.2118   30.3173 C   0  0  0  0  0  0  0  0  0  0  0  0
   -9.2344   16.2481   31.5660 C   0  0  0  0  0  0  0  0  0  0  0  0
   -9.5870   15.3356   32.5562 C   0  0  0  0  0  0  0  0  0  0  0  0
  -11.6493   12.8556   33.0199 H   0  0  0  0  0  0  0  0  0  0  0  0
  -10.5139   13.5263   34.1009 H   0  0  0  0  0  0  0  0  0  0  0  0
   -9.8775   16.7484   26.6464 C   0  0  0  0  0  0  0  0  0  0  0  0
  -10.6137   15.4293   26.3580 C   0  0  0  0  0  0  0  0  0  0  0  0
  -11.1483   15.3690   24.9292 C   0  0  0  0  0  0  0  0  0  0  0  0
   -9.7232   14.2306   26.6561 C   0  0  0  0  0  0  0  0  0  0  0  0
   -6.5623   17.9523   25.2672 C   0  0  0  0  0  0  0  0  0  0  0  0
   -7.3190   17.8293   24.0329 N   0  0  0  0  0  0  0  0  0  0  0  0
   -7.7922   16.6736   23.5650 C   0  0  0  0  0  0  0  0  0  0  0  0
   -7.6667   15.5639   24.0923 O   0  0  0  0  0  0  0  0  0  0  0  0
   -7.4925   18.6464   23.5118 H   0  0  0  0  0  0  0  0  0  0  0  0
   -8.5185   16.7956   22.3277 O   0  0  0  0  0  0  0  0  0  0  0  0
   -8.8397   15.6043   21.6284 C   0  0  0  0  0  0  0  0  0  0  0  0
  -10.2998   15.8132   21.2862 C   0  0  0  0  0  0  0  0  0  0  0  0
  -10.2631   16.7202   20.1824 O   0  0  0  0  0  0  0  0  0  0  0  0
   -9.0943   16.4421   19.3990 C   0  0  0  0  0  0  0  0  0  0  0  0
   -8.4609   17.6740   19.0755 O   0  0  0  0  0  0  0  0  0  0  0  0
   -7.1180   17.7168   19.5840 C   0  0  0  0  0  0  0  0  0  0  0  0
   -6.8331   16.3778   20.2537 C   0  0  0  0  0  0  0  0  0  0  0  0
   -8.1546   15.6311   20.2740 C   0  0  0  0  0  0  0  0  0  0  0  0
   -5.6576   19.1760   25.0803 C   0  0  0  0  0  0  0  0  0  0  0  0
   -3.8094   17.6996   24.3018 C   0  0  0  0  0  0  0  0  0  0  0  0
   -2.8155   17.4070   23.3904 C   0  0  0  0  0  0  0  0  0  0  0  0
   -2.6012   18.2124   22.2840 C   0  0  0  0  0  0  0  0  0  0  0  0
   -3.3838   19.3419   22.0854 C   0  0  0  0  0  0  0  0  0  0  0  0
   -4.3867   19.6555   22.9922 C   0  0  0  0  0  0  0  0  0  0  0  0
   -4.5996   18.8280   24.0959 C   0  0  0  0  0  0  0  0  0  0  0  0
  9 10  1  0  0  0
 10 11  2  0  0  0
 10 15  1  0  0  0
 11 12  1  0  0  0
 12 13  2  0  0  0
 13 14  1  0  0  0
 13  6  1  0  0  0
 14 15  2  0  0  0
  6  7  2  0  0  0
  6  8  2  0  0  0
  6  5  1  0  0  0
  5 18  1  0  0  0
  5  4  1  0  0  0
 18 19  1  0  0  0
 19 20  1  0  0  0
 19 21  1  0  0  0
  4  1  1  0  0  0
  1  2  1  0  0  0
  1 22  1  0  0  0
 22 23  1  0  0  0
 22 36  1  0  0  0
 23 24  1  0  0  0
 24 25  2  0  0  0
 24 27  1  0  0  0
 27 28  1  0  0  0
 28 29  1  0  0  0
 28 35  1  0  0  0
 29 30  1  0  0  0
 30 31  1  0  0  0
 31 32  1  0  0  0
 31 35  1  0  0  0
 32 33  1  0  0  0
 33 34  1  0  0  0
 34 35  1  0  0  0
 36 42  1  0  0  0
 37 38  2  0  0  0
 37 42  1  0  0  0
 38 39  1  0  0  0
 39 40  2  0  0  0
 40 41  1  0  0  0
 41 42  2  0  0  0
  9 16  1  0  0  0
  9 17  1  0  0  0
  2  3  1  0  0  0
 23 26  1  0  0  0
M  END
> <minimizedAffinity>
-9.47021

$$$$
3GGU_017_B_201


 42 45  0  0  0  0  0  0  0  0999 V2000
  -10.2243   16.2794   28.6124 C   0  0  0  0  0  0  0  0  0  0  0  0
  -11.0863   17.2953   29.1286 O   0  0  0  0  0  0  0  0  0  0  0  0
  -11.2555   17.1286   30.0691 H   0  0  0  0  0  0  0  0  0  0  0  0
  -10.9028   14.9051   28.6995 C   0  0  0  0  0  0  0  0  0  0  0  0
  -12.1053   14.8540   27.8340 N   0  0  0  0  0  0  0  0  0  0  0  0
  -11.8620   13.9451   26.4920 S   0  0  0  0  0  0  0  0  0  0  0  0
  -13.1301   13.5878   25.9353 O   0  0  0  0  0  0  0  0  0  0  0  0
  -11.1980   12.7769   26.9572 O   0  0  0  0  0  0  0  0  0  0  0  0
   -8.8016   16.4654   22.3953 N   0  0  0  0  0  0  0  0  0  0  0  0
   -9.4968   15.8656   23.3720 C   0  0  0  0  0  0  0  0  0  0  0  0
  -10.8812   15.9874   23.3677 C   0  0  0  0  0  0  0  0  0  0  0  0
  -11.6277   15.3794   24.3643 C   0  0  0  0  0  0  0  0  0  0  0  0
  -10.9786   14.6426   25.3591 C   0  0  0  0  0  0  0  0  0  0  0  0
   -9.5856   14.5192   25.3477 C   0  0  0  0  0  0  0  0  0  0  0  0
   -8.8343   15.1378   24.3525 C   0  0  0  0  0  0  0  0  0  0  0  0
   -9.2723   16.9808   21.7011 H   0  0  0  0  0  0  0  0  0  0  0  0
   -7.8202   16.3904   22.3723 H   0  0  0  0  0  0  0  0  0  0  0  0
  -13.3044   14.4316   28.5975 C   0  0  0  0  0  0  0  0  0  0  0  0
  -12.8777   13.5898   29.8119 C   0  0  0  0  0  0  0  0  0  0  0  0
  -13.2050   14.2796   31.1339 C   0  0  0  0  0  0  0  0  0  0  0  0
  -13.4960   12.1994   29.7567 C   0  0  0  0  0  0  0  0  0  0  0  0
   -8.8793   16.3313   29.3416 C   0  0  0  0  0  0  0  0  0  0  0  0
   -7.9848   17.0249   28.4305 N   0  0  0  0  0  0  0  0  0  0  0  0
   -7.1702   16.4053   27.5757 C   0  0  0  0  0  0  0  0  0  0  0  0
   -7.0546   15.1845   27.4286 O   0  0  0  0  0  0  0  0  0  0  0  0
   -7.9799   18.0093   28.4452 H   0  0  0  0  0  0  0  0  0  0  0  0
   -6.3811   17.2974   26.7666 O   0  0  0  0  0  0  0  0  0  0  0  0
   -7.0600   18.1129   25.8257 C   0  0  0  0  0  0  0  0  0  0  0  0
   -6.8106   19.5058   26.3647 C   0  0  0  0  0  0  0  0  0  0  0  0
   -5.4641   19.7842   25.9750 O   0  0  0  0  0  0  0  0  0  0  0  0
   -5.2126   19.1535   24.7116 C   0  0  0  0  0  0  0  0  0  0  0  0
   -3.9486   18.5040   24.7721 O   0  0  0  0  0  0  0  0  0  0  0  0
   -4.0774   17.0933   24.5329 C   0  0  0  0  0  0  0  0  0  0  0  0
   -5.5453   16.8049   24.2416 C   0  0  0  0  0  0  0  0  0  0  0  0
   -6.2885   18.0993   24.5184 C   0  0  0  0  0  0  0  0  0  0  0  0
   -8.9001   17.1712   30.6242 C   0  0  0  0  0  0  0  0  0  0  0  0
   -9.0961   14.8826   31.5862 C   0  0  0  0  0  0  0  0  0  0  0  0
   -9.3545   14.0544   32.6592 C   0  0  0  0  0  0  0  0  0  0  0  0
   -9.6577   14.5748   33.9065 C   0  0  0  0  0  0  0  0  0  0  0  0
   -9.7186   15.9498   34.0890 C   0  0  0  0  0  0  0  0  0  0  0  0
   -9.4649   16.8002   33.0217 C   0  0  0  0  0  0  0  0  0  0  0  0
   -9.1484   16.2619   31.7734 C   0  0  0  0  0  0  0  0  0  0  0  0
  9 10  1  0  0  0
 10 11  2  0  0  0
 10 15  1  0  0  0
 11 12  1  0  0  0
 12 13  2  0  0  0
 13 14  1  0  0  0
 13  6  1  0  0  0
 14 15  2  0  0  0
  6  7  2  0  0  0
  6  8  2  0  0  0
  6  5  1  0  0  0
  5 18  1  0  0  0
  5  4  1  0  0  0
 18 19  1  0  0  0
 19 20  1  0  0  0
 19 21  1  0  0  0
  4  1  1  0  0  0
  1  2  1  0  0  0
  1 22  1  0  0  0
 22 23  1  0  0  0
 22 36  1  0  0  0
 23 24  1  0  0  0
 24 25  2  0  0  0
 24 27  1  0  0  0
 27 28  1  0  0  0
 28 29  1  0  0  0
 28 35  1  0  0  0
 29 30  1  0  0  0
 30 31  1  0  0  0
 31 32  1  0  0  0
 31 35  1  0  0  0
 32 33  1  0  0  0
 33 34  1  0  0  0
 34 35  1  0  0  0
 36 42  1  0  0  0
 37 38  2  0  0  0
 37 42  1  0  0  0
 38 39  1  0  0  0
 39 40  2  0  0  0
 40 41  1  0  0  0
 41 42  2  0  0  0
  9 16  1  0  0  0
  9 17  1  0  0  0
  2  3  1  0  0  0
 23 26  1  0  0  0
M  END
> <minimizedAffinity>
-9.40532

$$$$
3GGU_017_B_201


 42 45  0  0  0  0  0  0  0  0999 V2000
   -9.5499   17.7368   26.2061 C   0  0  0  0  0  0  0  0  0  0  0  0
  -10.3019   18.9456   26.3282 O   0  0  0  0  0  0  0  0  0  0  0  0
  -10.3712   19.3724   25.4599 H   0  0  0  0  0  0  0  0  0  0  0  0
   -8.1158   18.0410   25.7506 C   0  0  0  0  0  0  0  0  0  0  0  0
   -7.2327   18.2869   26.9157 N   0  0  0  0  0  0  0  0  0  0  0  0
   -6.8611   16.9032   27.7118 S   0  0  0  0  0  0  0  0  0  0  0  0
   -5.6256   17.0846   28.4092 O   0  0  0  0  0  0  0  0  0  0  0  0
   -6.6947   15.9275   26.6907 O   0  0  0  0  0  0  0  0  0  0  0  0
  -10.8142   15.2222   31.4597 N   0  0  0  0  0  0  0  0  0  0  0  0
   -9.8872   15.5923   30.5650 C   0  0  0  0  0  0  0  0  0  0  0  0
   -9.4178   16.8998   30.6027 C   0  0  0  0  0  0  0  0  0  0  0  0
   -8.4598   17.3127   29.6905 C   0  0  0  0  0  0  0  0  0  0  0  0
   -7.9703   16.4050   28.7469 C   0  0  0  0  0  0  0  0  0  0  0  0
   -8.4433   15.0891   28.7248 C   0  0  0  0  0  0  0  0  0  0  0  0
   -9.4127   14.6762   29.6344 C   0  0  0  0  0  0  0  0  0  0  0  0
  -11.1496   15.8724   32.1186 H   0  0  0  0  0  0  0  0  0  0  0  0
  -11.1597   14.3004   31.4580 H   0  0  0  0  0  0  0  0  0  0  0  0
   -6.0287   19.0613   26.5286 C   0  0  0  0  0  0  0  0  0  0  0  0
   -5.6364   18.7233   25.0804 C   0  0  0  0  0  0  0  0  0  0  0  0
   -5.3117   19.9727   24.2654 C   0  0  0  0  0  0  0  0  0  0  0  0
   -4.4783   17.7352   25.0451 C   0  0  0  0  0  0  0  0  0  0  0  0
  -10.2833   16.7708   25.2721 C   0  0  0  0  0  0  0  0  0  0  0  0
   -9.7339   17.0342   23.9530 N   0  0  0  0  0  0  0  0  0  0  0  0
  -10.1907   16.4719   22.8334 C   0  0  0  0  0  0  0  0  0  0  0  0
  -11.1235   15.6672   22.7461 O   0  0  0  0  0  0  0  0  0  0  0  0
   -8.9808   17.6642   23.8816 H   0  0  0  0  0  0  0  0  0  0  0  0
   -9.4965   16.8885   21.6427 O   0  0  0  0  0  0  0  0  0  0  0  0
   -8.9456   15.8807   20.8108 C   0  0  0  0  0  0  0  0  0  0  0  0
   -9.5053   16.2414   19.4510 C   0  0  0  0  0  0  0  0  0  0  0  0
   -8.6984   17.3448   19.0339 O   0  0  0  0  0  0  0  0  0  0  0  0
   -7.3686   17.1564   19.5371 C   0  0  0  0  0  0  0  0  0  0  0  0
   -6.9121   18.3871   20.0851 O   0  0  0  0  0  0  0  0  0  0  0  0
   -6.5870   18.2469   21.4774 C   0  0  0  0  0  0  0  0  0  0  0  0
   -6.8021   16.7871   21.8588 C   0  0  0  0  0  0  0  0  0  0  0  0
   -7.4567   16.1329   20.6555 C   0  0  0  0  0  0  0  0  0  0  0  0
   -9.9936   15.2921   25.5557 C   0  0  0  0  0  0  0  0  0  0  0  0
  -11.9697   15.5580   27.0477 C   0  0  0  0  0  0  0  0  0  0  0  0
  -13.0268   15.0063   27.7422 C   0  0  0  0  0  0  0  0  0  0  0  0
  -13.2837   13.6463   27.6901 C   0  0  0  0  0  0  0  0  0  0  0  0
  -12.4637   12.8129   26.9412 C   0  0  0  0  0  0  0  0  0  0  0  0
  -11.3933   13.3477   26.2377 C   0  0  0  0  0  0  0  0  0  0  0  0
  -11.1537   14.7218   26.2894 C   0  0  0  0  0  0  0  0  0  0  0  0
  9 10  1  0  0  0
 10 11  2  0  0  0
 10 15  1  0  0  0
 11 12  1  0  0  0
 12 13  2  0  0  0
 13 14  1  0  0  0
 13  6  1  0  0  0
 14 15  2  0  0  0
  6  7  2  0  0  0
  6  8  2  0  0  0
  6  5  1  0  0  0
  5 18  1  0  0  0
  5  4  1  0  0  0
 18 19  1  0  0  0
 19 20  1  0  0  0
 19 21  1  0  0  0
  4  1  1  0  0  0
  1  2  1  0  0  0
  1 22  1  0  0  0
 22 23  1  0  0  0
 22 36  1  0  0  0
 23 24  1  0  0  0
 24 25  2  0  0  0
 24 27  1  0  0  0
 27 28  1  0  0  0
 28 29  1  0  0  0
 28 35  1  0  0  0
 29 30  1  0  0  0
 30 31  1  0  0  0
 31 32  1  0  0  0
 31 35  1  0  0  0
 32 33  1  0  0  0
 33 34  1  0  0  0
 34 35  1  0  0  0
 36 42  1  0  0  0
 37 38  2  0  0  0
 37 42  1  0  0  0
 38 39  1  0  0  0
 39 40  2  0  0  0
 40 41  1  0  0  0
 41 42  2  0  0  0
  9 16  1  0  0  0
  9 17  1  0  0  0
  2  3  1  0  0  0
 23 26  1  0  0  0
M  END
> <minimizedAffinity>
-9.29470

$$$$
3GGU_017_B_201


 42 45  0  0  0  0  0  0  0  0999 V2000
   -9.2579   17.2852   25.2389 C   0  0  0  0  0  0  0  0  0  0  0  0
  -10.0313   18.3941   24.7763 O   0  0  0  0  0  0  0  0  0  0  0  0
   -9.9331   18.4780   23.8149 H   0  0  0  0  0  0  0  0  0  0  0  0
   -7.7654   17.5224   24.9690 C   0  0  0  0  0  0  0  0  0  0  0  0
   -7.0844   18.0347   26.1821 N   0  0  0  0  0  0  0  0  0  0  0  0
   -6.6562   16.8284   27.2057 S   0  0  0  0  0  0  0  0  0  0  0  0
   -5.3397   17.0845   27.7025 O   0  0  0  0  0  0  0  0  0  0  0  0
   -6.6440   15.6548   26.4027 O   0  0  0  0  0  0  0  0  0  0  0  0
  -10.2005   15.9645   31.5865 N   0  0  0  0  0  0  0  0  0  0  0  0
   -9.3614   16.1939   30.5666 C   0  0  0  0  0  0  0  0  0  0  0  0
   -9.0722   15.1458   29.7009 C   0  0  0  0  0  0  0  0  0  0  0  0
   -8.2080   15.3514   28.6374 C   0  0  0  0  0  0  0  0  0  0  0  0
   -7.6429   16.6151   28.4430 C   0  0  0  0  0  0  0  0  0  0  0  0
   -7.9489   17.6646   29.3152 C   0  0  0  0  0  0  0  0  0  0  0  0
   -8.8092   17.4564   30.3895 C   0  0  0  0  0  0  0  0  0  0  0  0
  -10.5911   15.0694   31.7108 H   0  0  0  0  0  0  0  0  0  0  0  0
  -10.4261   16.6911   32.2113 H   0  0  0  0  0  0  0  0  0  0  0  0
   -5.9436   18.9150   25.8315 C   0  0  0  0  0  0  0  0  0  0  0  0
   -5.4225   18.5574   24.4294 C   0  0  0  0  0  0  0  0  0  0  0  0
   -5.1844   19.7968   23.5704 C   0  0  0  0  0  0  0  0  0  0  0  0
   -4.1631   17.7059   24.5158 C   0  0  0  0  0  0  0  0  0  0  0  0
   -9.7841   15.9951   24.6048 C   0  0  0  0  0  0  0  0  0  0  0  0
  -10.8013   15.5129   25.5236 N   0  0  0  0  0  0  0  0  0  0  0  0
  -10.6904   14.3859   26.2278 C   0  0  0  0  0  0  0  0  0  0  0  0
   -9.7356   13.6028   26.2106 O   0  0  0  0  0  0  0  0  0  0  0  0
  -11.6196   16.0493   25.6326 H   0  0  0  0  0  0  0  0  0  0  0  0
  -11.8193   14.1131   27.0789 O   0  0  0  0  0  0  0  0  0  0  0  0
  -12.2077   15.1148   28.0046 C   0  0  0  0  0  0  0  0  0  0  0  0
  -13.4972   15.6307   27.4016 C   0  0  0  0  0  0  0  0  0  0  0  0
  -14.4558   14.6263   27.7402 O   0  0  0  0  0  0  0  0  0  0  0  0
  -14.1132   14.0786   29.0207 C   0  0  0  0  0  0  0  0  0  0  0  0
  -14.2155   12.6616   28.9505 O   0  0  0  0  0  0  0  0  0  0  0  0
  -12.9585   12.0345   29.2514 C   0  0  0  0  0  0  0  0  0  0  0  0
  -11.9625   13.1350   29.5968 C   0  0  0  0  0  0  0  0  0  0  0  0
  -12.6640   14.4454   29.2885 C   0  0  0  0  0  0  0  0  0  0  0  0
  -10.5004   16.2082   23.2659 C   0  0  0  0  0  0  0  0  0  0  0  0
   -9.7095   16.5405   20.9281 C   0  0  0  0  0  0  0  0  0  0  0  0
   -8.8154   16.2564   19.9162 C   0  0  0  0  0  0  0  0  0  0  0  0
   -7.7544   15.3903   20.1228 C   0  0  0  0  0  0  0  0  0  0  0  0
   -7.5851   14.7822   21.3594 C   0  0  0  0  0  0  0  0  0  0  0  0
   -8.4754   15.0522   22.3895 C   0  0  0  0  0  0  0  0  0  0  0  0
   -9.5328   15.9367   22.1708 C   0  0  0  0  0  0  0  0  0  0  0  0
  9 10  1  0  0  0
 10 11  2  0  0  0
 10 15  1  0  0  0
 11 12  1  0  0  0
 12 13  2  0  0  0
 13 14  1  0  0  0
 13  6  1  0  0  0
 14 15  2  0  0  0
  6  7  2  0  0  0
  6  8  2  0  0  0
  6  5  1  0  0  0
  5 18  1  0  0  0
  5  4  1  0  0  0
 18 19  1  0  0  0
 19 20  1  0  0  0
 19 21  1  0  0  0
  4  1  1  0  0  0
  1  2  1  0  0  0
  1 22  1  0  0  0
 22 23  1  0  0  0
 22 36  1  0  0  0
 23 24  1  0  0  0
 24 25  2  0  0  0
 24 27  1  0  0  0
 27 28  1  0  0  0
 28 29  1  0  0  0
 28 35  1  0  0  0
 29 30  1  0  0  0
 30 31  1  0  0  0
 31 32  1  0  0  0
 31 35  1  0  0  0
 32 33  1  0  0  0
 33 34  1  0  0  0
 34 35  1  0  0  0
 36 42  1  0  0  0
 37 38  2  0  0  0
 37 42  1  0  0  0
 38 39  1  0  0  0
 39 40  2  0  0  0
 40 41  1  0  0  0
 41 42  2  0  0  0
  9 16  1  0  0  0
  9 17  1  0  0  0
  2  3  1  0  0  0
 23 26  1  0  0  0
M  END
> <minimizedAffinity>
-9.26569

$$$$
3GGU_017_B_201


 42 45  0  0  0  0  0  0  0  0999 V2000
  -10.1139   17.5509   25.9527 C   0  0  0  0  0  0  0  0  0  0  0  0
  -10.3245   18.8946   26.3906 O   0  0  0  0  0  0  0  0  0  0  0  0
   -9.8714   19.0337   27.2370 H   0  0  0  0  0  0  0  0  0  0  0  0
  -10.7307   16.5592   26.9490 C   0  0  0  0  0  0  0  0  0  0  0  0
   -9.6788   15.9096   27.7671 N   0  0  0  0  0  0  0  0  0  0  0  0
   -9.4910   16.6382   29.2231 S   0  0  0  0  0  0  0  0  0  0  0  0
  -10.3488   17.7810   29.2862 O   0  0  0  0  0  0  0  0  0  0  0  0
   -8.1327   17.0583   29.2491 O   0  0  0  0  0  0  0  0  0  0  0  0
  -10.6266   13.3548   33.7430 N   0  0  0  0  0  0  0  0  0  0  0  0
  -10.3351   14.1124   32.6763 C   0  0  0  0  0  0  0  0  0  0  0  0
  -11.2927   15.0122   32.2238 C   0  0  0  0  0  0  0  0  0  0  0  0
  -11.0213   15.8089   31.1230 C   0  0  0  0  0  0  0  0  0  0  0  0
   -9.7821   15.7035   30.4848 C   0  0  0  0  0  0  0  0  0  0  0  0
   -8.8228   14.8012   30.9551 C   0  0  0  0  0  0  0  0  0  0  0  0
   -9.0982   13.9936   32.0548 C   0  0  0  0  0  0  0  0  0  0  0  0
  -11.5034   13.4400   34.1825 H   0  0  0  0  0  0  0  0  0  0  0  0
   -9.9639   12.7131   34.0870 H   0  0  0  0  0  0  0  0  0  0  0  0
   -9.9108   14.4497   27.8872 C   0  0  0  0  0  0  0  0  0  0  0  0
  -11.3801   14.1285   27.5654 C   0  0  0  0  0  0  0  0  0  0  0  0
  -11.5298   13.3843   26.2409 C   0  0  0  0  0  0  0  0  0  0  0  0
  -12.0305   13.3513   28.7019 C   0  0  0  0  0  0  0  0  0  0  0  0
   -8.6187   17.3171   25.7219 C   0  0  0  0  0  0  0  0  0  0  0  0
   -8.4670   17.2545   24.2782 N   0  0  0  0  0  0  0  0  0  0  0  0
   -8.2578   16.1238   23.6028 C   0  0  0  0  0  0  0  0  0  0  0  0
   -8.1657   14.9901   24.0837 O   0  0  0  0  0  0  0  0  0  0  0  0
   -8.5218   18.0954   23.7692 H   0  0  0  0  0  0  0  0  0  0  0  0
   -8.1462   16.3040   22.1785 O   0  0  0  0  0  0  0  0  0  0  0  0
   -8.6872   15.2968   21.3395 C   0  0  0  0  0  0  0  0  0  0  0  0
  -10.1487   15.6858   21.2672 C   0  0  0  0  0  0  0  0  0  0  0  0
  -10.1637   16.7788   20.3466 O   0  0  0  0  0  0  0  0  0  0  0  0
   -9.1494   16.5585   19.3568 C   0  0  0  0  0  0  0  0  0  0  0  0
   -8.4355   17.7730   19.1603 O   0  0  0  0  0  0  0  0  0  0  0  0
   -7.0393   17.6085   19.4562 C   0  0  0  0  0  0  0  0  0  0  0  0
   -6.8137   16.1483   19.8297 C   0  0  0  0  0  0  0  0  0  0  0  0
   -8.1936   15.5224   19.9218 C   0  0  0  0  0  0  0  0  0  0  0  0
   -7.7298   18.4780   26.1837 C   0  0  0  0  0  0  0  0  0  0  0  0
   -5.6099   18.7720   24.9105 C   0  0  0  0  0  0  0  0  0  0  0  0
   -4.3036   18.4039   24.6613 C   0  0  0  0  0  0  0  0  0  0  0  0
   -3.6909   17.4027   25.3967 C   0  0  0  0  0  0  0  0  0  0  0  0
   -4.3964   16.7428   26.3939 C   0  0  0  0  0  0  0  0  0  0  0  0
   -5.7124   17.0960   26.6582 C   0  0  0  0  0  0  0  0  0  0  0  0
   -6.3131   18.1153   25.9176 C   0  0  0  0  0  0  0  0  0  0  0  0
  9 10  1  0  0  0
 10 11  2  0  0  0
 10 15  1  0  0  0
 11 12  1  0  0  0
 12 13  2  0  0  0
 13 14  1  0  0  0
 13  6  1  0  0  0
 14 15  2  0  0  0
  6  7  2  0  0  0
  6  8  2  0  0  0
  6  5  1  0  0  0
  5 18  1  0  0  0
  5  4  1  0  0  0
 18 19  1  0  0  0
 19 20  1  0  0  0
 19 21  1  0  0  0
  4  1  1  0  0  0
  1  2  1  0  0  0
  1 22  1  0  0  0
 22 23  1  0  0  0
 22 36  1  0  0  0
 23 24  1  0  0  0
 24 25  2  0  0  0
 24 27  1  0  0  0
 27 28  1  0  0  0
 28 29  1  0  0  0
 28 35  1  0  0  0
 29 30  1  0  0  0
 30 31  1  0  0  0
 31 32  1  0  0  0
 31 35  1  0  0  0
 32 33  1  0  0  0
 33 34  1  0  0  0
 34 35  1  0  0  0
 36 42  1  0  0  0
 37 38  2  0  0  0
 37 42  1  0  0  0
 38 39  1  0  0  0
 39 40  2  0  0  0
 40 41  1  0  0  0
 41 42  2  0  0  0
  9 16  1  0  0  0
  9 17  1  0  0  0
  2  3  1  0  0  0
 23 26  1  0  0  0
M  END
> <minimizedAffinity>
-9.25486

$$$$
3GGU_017_B_201


 42 45  0  0  0  0  0  0  0  0999 V2000
  -10.6279   16.7737   27.7578 C   0  0  0  0  0  0  0  0  0  0  0  0
  -10.8316   18.1787   27.9194 O   0  0  0  0  0  0  0  0  0  0  0  0
  -11.1470   18.3583   28.8189 H   0  0  0  0  0  0  0  0  0  0  0  0
  -11.9543   16.0176   27.9172 C   0  0  0  0  0  0  0  0  0  0  0  0
  -11.7155   14.6129   28.3264 N   0  0  0  0  0  0  0  0  0  0  0  0
  -13.0470   13.9293   28.9942 S   0  0  0  0  0  0  0  0  0  0  0  0
  -13.1933   12.6006   28.4853 O   0  0  0  0  0  0  0  0  0  0  0  0
  -14.1325   14.7333   28.5499 O   0  0  0  0  0  0  0  0  0  0  0  0
  -13.0825   13.6289   34.6870 N   0  0  0  0  0  0  0  0  0  0  0  0
  -13.0629   13.7259   33.3502 C   0  0  0  0  0  0  0  0  0  0  0  0
  -13.3979   12.6039   32.6017 C   0  0  0  0  0  0  0  0  0  0  0  0
  -13.3863   12.6724   31.2177 C   0  0  0  0  0  0  0  0  0  0  0  0
  -13.0453   13.8740   30.5901 C   0  0  0  0  0  0  0  0  0  0  0  0
  -12.7193   14.9992   31.3539 C   0  0  0  0  0  0  0  0  0  0  0  0
  -12.7211   14.9284   32.7441 C   0  0  0  0  0  0  0  0  0  0  0  0
  -13.3249   12.7762   35.1152 H   0  0  0  0  0  0  0  0  0  0  0  0
  -12.8545   14.4104   35.2406 H   0  0  0  0  0  0  0  0  0  0  0  0
  -11.1636   13.8097   27.2085 C   0  0  0  0  0  0  0  0  0  0  0  0
  -11.6027   14.4171   25.8655 C   0  0  0  0  0  0  0  0  0  0  0  0
  -10.4178   14.6912   24.9428 C   0  0  0  0  0  0  0  0  0  0  0  0
  -12.6339   13.5327   25.1776 C   0  0  0  0  0  0  0  0  0  0  0  0
   -9.5463   16.2988   28.7316 C   0  0  0  0  0  0  0  0  0  0  0  0
   -8.2886   16.5631   28.0536 N   0  0  0  0  0  0  0  0  0  0  0  0
   -7.5575   15.6228   27.4538 C   0  0  0  0  0  0  0  0  0  0  0  0
   -7.8282   14.4200   27.3817 O   0  0  0  0  0  0  0  0  0  0  0  0
   -7.9570   17.4899   28.0361 H   0  0  0  0  0  0  0  0  0  0  0  0
   -6.3527   16.1192   26.8412 O   0  0  0  0  0  0  0  0  0  0  0  0
   -5.9487   17.4426   27.1521 C   0  0  0  0  0  0  0  0  0  0  0  0
   -4.4702   17.2728   27.4312 C   0  0  0  0  0  0  0  0  0  0  0  0
   -3.8902   17.1593   26.1299 O   0  0  0  0  0  0  0  0  0  0  0  0
   -4.6367   17.9811   25.2219 C   0  0  0  0  0  0  0  0  0  0  0  0
   -4.8732   17.2416   24.0301 O   0  0  0  0  0  0  0  0  0  0  0  0
   -6.2803   17.0970   23.7791 C   0  0  0  0  0  0  0  0  0  0  0  0
   -7.0262   17.8497   24.8744 C   0  0  0  0  0  0  0  0  0  0  0  0
   -5.9728   18.2736   25.8819 C   0  0  0  0  0  0  0  0  0  0  0  0
   -9.4912   17.1000   30.0377 C   0  0  0  0  0  0  0  0  0  0  0  0
   -9.2986   16.6208   32.4738 C   0  0  0  0  0  0  0  0  0  0  0  0
   -9.1425   15.7192   33.5067 C   0  0  0  0  0  0  0  0  0  0  0  0
   -9.0425   14.3600   33.2594 C   0  0  0  0  0  0  0  0  0  0  0  0
   -9.0854   13.8866   31.9550 C   0  0  0  0  0  0  0  0  0  0  0  0
   -9.2388   14.7774   30.9016 C   0  0  0  0  0  0  0  0  0  0  0  0
   -9.3509   16.1432   31.1664 C   0  0  0  0  0  0  0  0  0  0  0  0
  9 10  1  0  0  0
 10 11  2  0  0  0
 10 15  1  0  0  0
 11 12  1  0  0  0
 12 13  2  0  0  0
 13 14  1  0  0  0
 13  6  1  0  0  0
 14 15  2  0  0  0
  6  7  2  0  0  0
  6  8  2  0  0  0
  6  5  1  0  0  0
  5 18  1  0  0  0
  5  4  1  0  0  0
 18 19  1  0  0  0
 19 20  1  0  0  0
 19 21  1  0  0  0
  4  1  1  0  0  0
  1  2  1  0  0  0
  1 22  1  0  0  0
 22 23  1  0  0  0
 22 36  1  0  0  0
 23 24  1  0  0  0
 24 25  2  0  0  0
 24 27  1  0  0  0
 27 28  1  0  0  0
 28 29  1  0  0  0
 28 35  1  0  0  0
 29 30  1  0  0  0
 30 31  1  0  0  0
 31 32  1  0  0  0
 31 35  1  0  0  0
 32 33  1  0  0  0
 33 34  1  0  0  0
 34 35  1  0  0  0
 36 42  1  0  0  0
 37 38  2  0  0  0
 37 42  1  0  0  0
 38 39  1  0  0  0
 39 40  2  0  0  0
 40 41  1  0  0  0
 41 42  2  0  0  0
  9 16  1  0  0  0
  9 17  1  0  0  0
  2  3  1  0  0  0
 23 26  1  0  0  0
M  END
> <minimizedAffinity>
-9.21521

$$$$
3GGU_017_B_201


 42 45  0  0  0  0  0  0  0  0999 V2000
  -10.2015   17.7297   26.3728 C   0  0  0  0  0  0  0  0  0  0  0  0
  -10.4568   19.1354   26.3954 O   0  0  0  0  0  0  0  0  0  0  0  0
   -9.8988   19.5546   27.0691 H   0  0  0  0  0  0  0  0  0  0  0  0
  -10.5831   17.0936   27.7168 C   0  0  0  0  0  0  0  0  0  0  0  0
  -10.8462   15.6433   27.5588 N   0  0  0  0  0  0  0  0  0  0  0  0
  -10.0605   14.7471   28.6838 S   0  0  0  0  0  0  0  0  0  0  0  0
   -8.7140   14.5329   28.2514 O   0  0  0  0  0  0  0  0  0  0  0  0
  -10.7557   13.5069   28.7138 O   0  0  0  0  0  0  0  0  0  0  0  0
   -9.8763   17.0397   33.9001 N   0  0  0  0  0  0  0  0  0  0  0  0
   -9.9465   16.4918   32.6788 C   0  0  0  0  0  0  0  0  0  0  0  0
   -8.8968   16.7120   31.7949 C   0  0  0  0  0  0  0  0  0  0  0  0
   -8.9404   16.1595   30.5249 C   0  0  0  0  0  0  0  0  0  0  0  0
  -10.0378   15.3789   30.1502 C   0  0  0  0  0  0  0  0  0  0  0  0
  -11.0837   15.1564   31.0516 C   0  0  0  0  0  0  0  0  0  0  0  0
  -11.0453   15.7191   32.3241 C   0  0  0  0  0  0  0  0  0  0  0  0
   -9.0971   17.5870   34.1501 H   0  0  0  0  0  0  0  0  0  0  0  0
  -10.6041   16.8948   34.5472 H   0  0  0  0  0  0  0  0  0  0  0  0
  -12.3009   15.3581   27.5188 C   0  0  0  0  0  0  0  0  0  0  0  0
  -12.6639   14.6933   26.1802 C   0  0  0  0  0  0  0  0  0  0  0  0
  -11.4793   14.6525   25.2180 C   0  0  0  0  0  0  0  0  0  0  0  0
  -13.2336   13.2984   26.4002 C   0  0  0  0  0  0  0  0  0  0  0  0
   -8.7413   17.4817   25.9854 C   0  0  0  0  0  0  0  0  0  0  0  0
   -8.7407   17.4374   24.5330 N   0  0  0  0  0  0  0  0  0  0  0  0
   -8.3946   16.3623   23.8239 C   0  0  0  0  0  0  0  0  0  0  0  0
   -8.0344   15.2714   24.2769 O   0  0  0  0  0  0  0  0  0  0  0  0
   -9.0114   18.2480   24.0442 H   0  0  0  0  0  0  0  0  0  0  0  0
   -8.4775   16.5488   22.3986 O   0  0  0  0  0  0  0  0  0  0  0  0
   -8.8950   15.4465   21.6100 C   0  0  0  0  0  0  0  0  0  0  0  0
  -10.3597   15.7515   21.3767 C   0  0  0  0  0  0  0  0  0  0  0  0
  -10.3391   16.7592   20.3635 O   0  0  0  0  0  0  0  0  0  0  0  0
   -9.2304   16.5077   19.4891 C   0  0  0  0  0  0  0  0  0  0  0  0
   -8.5557   17.7363   19.2466 O   0  0  0  0  0  0  0  0  0  0  0  0
   -7.1864   17.6705   19.6759 C   0  0  0  0  0  0  0  0  0  0  0  0
   -6.9315   16.2614   20.1976 C   0  0  0  0  0  0  0  0  0  0  0  0
   -8.2851   15.5750   20.2258 C   0  0  0  0  0  0  0  0  0  0  0  0
   -7.7944   18.6257   26.3671 C   0  0  0  0  0  0  0  0  0  0  0  0
   -5.9614   17.3011   27.4097 C   0  0  0  0  0  0  0  0  0  0  0  0
   -4.6590   16.8454   27.3977 C   0  0  0  0  0  0  0  0  0  0  0  0
   -3.7984   17.1694   26.3618 C   0  0  0  0  0  0  0  0  0  0  0  0
   -4.2379   17.9756   25.3204 C   0  0  0  0  0  0  0  0  0  0  0  0
   -5.5435   18.4468   25.3153 C   0  0  0  0  0  0  0  0  0  0  0  0
   -6.4033   18.1021   26.3593 C   0  0  0  0  0  0  0  0  0  0  0  0
  9 10  1  0  0  0
 10 11  2  0  0  0
 10 15  1  0  0  0
 11 12  1  0  0  0
 12 13  2  0  0  0
 13 14  1  0  0  0
 13  6  1  0  0  0
 14 15  2  0  0  0
  6  7  2  0  0  0
  6  8  2  0  0  0
  6  5  1  0  0  0
  5 18  1  0  0  0
  5  4  1  0  0  0
 18 19  1  0  0  0
 19 20  1  0  0  0
 19 21  1  0  0  0
  4  1  1  0  0  0
  1  2  1  0  0  0
  1 22  1  0  0  0
 22 23  1  0  0  0
 22 36  1  0  0  0
 23 24  1  0  0  0
 24 25  2  0  0  0
 24 27  1  0  0  0
 27 28  1  0  0  0
 28 29  1  0  0  0
 28 35  1  0  0  0
 29 30  1  0  0  0
 30 31  1  0  0  0
 31 32  1  0  0  0
 31 35  1  0  0  0
 32 33  1  0  0  0
 33 34  1  0  0  0
 34 35  1  0  0  0
 36 42  1  0  0  0
 37 38  2  0  0  0
 37 42  1  0  0  0
 38 39  1  0  0  0
 39 40  2  0  0  0
 40 41  1  0  0  0
 41 42  2  0  0  0
  9 16  1  0  0  0
  9 17  1  0  0  0
  2  3  1  0  0  0
 23 26  1  0  0  0
M  END
> <minimizedAffinity>
-9.17499

$$$$
3GGU_017_B_201


 42 45  0  0  0  0  0  0  0  0999 V2000
  -10.6478   15.6218   26.2427 C   0  0  0  0  0  0  0  0  0  0  0  0
  -11.5270   15.7792   25.1274 O   0  0  0  0  0  0  0  0  0  0  0  0
  -11.6660   16.7238   24.9561 H   0  0  0  0  0  0  0  0  0  0  0  0
  -11.2807   16.2098   27.5117 C   0  0  0  0  0  0  0  0  0  0  0  0
  -11.3255   15.1999   28.5961 N   0  0  0  0  0  0  0  0  0  0  0  0
  -12.2222   13.8912   28.1844 S   0  0  0  0  0  0  0  0  0  0  0  0
  -11.4115   12.9920   27.4229 O   0  0  0  0  0  0  0  0  0  0  0  0
  -13.2645   14.4054   27.3650 O   0  0  0  0  0  0  0  0  0  0  0  0
  -14.5154   10.9740   32.5123 N   0  0  0  0  0  0  0  0  0  0  0  0
  -13.9692   11.6809   31.5129 C   0  0  0  0  0  0  0  0  0  0  0  0
  -13.8662   11.0848   30.2618 C   0  0  0  0  0  0  0  0  0  0  0  0
  -13.3056   11.7897   29.2087 C   0  0  0  0  0  0  0  0  0  0  0  0
  -12.8572   13.0974   29.4159 C   0  0  0  0  0  0  0  0  0  0  0  0
  -12.9748   13.6901   30.6771 C   0  0  0  0  0  0  0  0  0  0  0  0
  -13.5288   12.9793   31.7379 C   0  0  0  0  0  0  0  0  0  0  0  0
  -14.8270   10.0540   32.3515 H   0  0  0  0  0  0  0  0  0  0  0  0
  -14.6049   11.3747   33.4071 H   0  0  0  0  0  0  0  0  0  0  0  0
   -9.9625   14.8348   29.0525 C   0  0  0  0  0  0  0  0  0  0  0  0
   -9.7542   15.3103   30.5002 C   0  0  0  0  0  0  0  0  0  0  0  0
   -9.0097   14.2782   31.3436 C   0  0  0  0  0  0  0  0  0  0  0  0
   -9.0428   16.6562   30.5357 C   0  0  0  0  0  0  0  0  0  0  0  0
   -9.2863   16.2381   25.9111 C   0  0  0  0  0  0  0  0  0  0  0  0
   -9.3112   16.4522   24.4741 N   0  0  0  0  0  0  0  0  0  0  0  0
   -8.2475   16.3040   23.6835 C   0  0  0  0  0  0  0  0  0  0  0  0
   -7.1126   15.9701   24.0381 O   0  0  0  0  0  0  0  0  0  0  0  0
  -10.1626   16.7224   24.0602 H   0  0  0  0  0  0  0  0  0  0  0  0
   -8.5110   16.5626   22.2918 O   0  0  0  0  0  0  0  0  0  0  0  0
   -8.8783   15.4648   21.4725 C   0  0  0  0  0  0  0  0  0  0  0  0
  -10.3288   15.7655   21.1590 C   0  0  0  0  0  0  0  0  0  0  0  0
  -10.2555   16.7813   20.1563 O   0  0  0  0  0  0  0  0  0  0  0  0
   -9.0980   16.5413   19.3441 C   0  0  0  0  0  0  0  0  0  0  0  0
   -8.4164   17.7746   19.1496 O   0  0  0  0  0  0  0  0  0  0  0  0
   -7.0732   17.7111   19.6552 C   0  0  0  0  0  0  0  0  0  0  0  0
   -6.8417   16.2990   20.1798 C   0  0  0  0  0  0  0  0  0  0  0  0
   -8.1916   15.6067   20.1260 C   0  0  0  0  0  0  0  0  0  0  0  0
   -9.0620   17.6210   26.5339 C   0  0  0  0  0  0  0  0  0  0  0  0
   -6.9100   16.8558   27.5263 C   0  0  0  0  0  0  0  0  0  0  0  0
   -5.5630   17.0487   27.7552 C   0  0  0  0  0  0  0  0  0  0  0  0
   -4.9021   18.1526   27.2422 C   0  0  0  0  0  0  0  0  0  0  0  0
   -5.5983   19.0935   26.4955 C   0  0  0  0  0  0  0  0  0  0  0  0
   -6.9545   18.9196   26.2564 C   0  0  0  0  0  0  0  0  0  0  0  0
   -7.6048   17.7960   26.7691 C   0  0  0  0  0  0  0  0  0  0  0  0
  9 10  1  0  0  0
 10 11  2  0  0  0
 10 15  1  0  0  0
 11 12  1  0  0  0
 12 13  2  0  0  0
 13 14  1  0  0  0
 13  6  1  0  0  0
 14 15  2  0  0  0
  6  7  2  0  0  0
  6  8  2  0  0  0
  6  5  1  0  0  0
  5 18  1  0  0  0
  5  4  1  0  0  0
 18 19  1  0  0  0
 19 20  1  0  0  0
 19 21  1  0  0  0
  4  1  1  0  0  0
  1  2  1  0  0  0
  1 22  1  0  0  0
 22 23  1  0  0  0
 22 36  1  0  0  0
 23 24  1  0  0  0
 24 25  2  0  0  0
 24 27  1  0  0  0
 27 28  1  0  0  0
 28 29  1  0  0  0
 28 35  1  0  0  0
 29 30  1  0  0  0
 30 31  1  0  0  0
 31 32  1  0  0  0
 31 35  1  0  0  0
 32 33  1  0  0  0
 33 34  1  0  0  0
 34 35  1  0  0  0
 36 42  1  0  0  0
 37 38  2  0  0  0
 37 42  1  0  0  0
 38 39  1  0  0  0
 39 40  2  0  0  0
 40 41  1  0  0  0
 41 42  2  0  0  0
  9 16  1  0  0  0
  9 17  1  0  0  0
  2  3  1  0  0  0
 23 26  1  0  0  0
M  END
> <minimizedAffinity>
-8.82889

$$$$
