2EZ7_DHI_A_301


 16 16  0  0  0  0  0  0  0  0999 V2000
   -2.3225    2.6970   11.9499 N   0  0  0  0  0  0  0  0  0  0  0  0
   -3.7591    2.9919   12.0012 C   0  0  0  0  0  0  0  0  0  0  0  0
   -2.0753    2.3717   11.0153 H   0  0  0  0  0  0  0  0  0  0  0  0
   -2.0996    1.9722   12.6321 H   0  0  0  0  0  0  0  0  0  0  0  0
   -4.5726    1.7578   11.6420 C   0  0  0  0  0  0  0  0  0  0  0  0
   -4.2534    0.6771   12.0878 O   0  0  0  0  0  0  0  0  0  0  0  0
   -5.6418    1.8511   10.8385 O   0  0  0  0  0  0  0  0  0  0  0  0
   -5.8948    2.6833   10.4900 H   0  0  0  0  0  0  0  0  0  0  0  0
   -4.1455    3.4825   13.4018 C   0  0  0  0  0  0  0  0  0  0  0  0
   -3.1555    4.5103   13.8806 C   0  0  0  0  0  0  0  0  0  0  0  0
   -2.0291    4.2422   14.5614 N   0  0  0  0  0  0  0  0  0  0  0  0
   -3.2360    5.8450   13.7103 C   0  0  0  0  0  0  0  0  0  0  0  0
   -1.4106    5.3552   14.8172 C   0  0  0  0  0  0  0  0  0  0  0  0
   -2.1271    6.3839   14.3040 N   0  0  0  0  0  0  0  0  0  0  0  0
   -1.7213    3.3448   14.8245 H   0  0  0  0  0  0  0  0  0  0  0  0
   -1.8939    7.3393   14.3497 H   0  0  0  0  0  0  0  0  0  0  0  0
  1  2  1  0  0  0
  2  5  1  0  0  0
  2  9  1  0  0  0
  5  6  2  0  0  0
  5  7  1  0  0  0
  9 10  1  0  0  0
 10 11  1  0  0  0
 10 12  2  0  0  0
 11 13  2  0  0  0
 12 14  1  0  0  0
 13 14  1  0  0  0
  1  3  1  0  0  0
  1  4  1  0  0  0
 11 15  1  0  0  0
 14 16  1  0  0  0
  7  8  1  0  0  0
M  CHG 1  11   1
M  END
> <minimizedAffinity>
-4.76245

$$$$
2EZ7_DHI_A_301


 16 16  0  0  0  0  0  0  0  0999 V2000
   -3.3206    3.1658    9.3549 N   0  0  0  0  0  0  0  0  0  0  0  0
   -3.4616    3.3027   10.8091 C   0  0  0  0  0  0  0  0  0  0  0  0
   -4.2451    3.1366    8.9249 H   0  0  0  0  0  0  0  0  0  0  0  0
   -2.8190    2.3037    9.1415 H   0  0  0  0  0  0  0  0  0  0  0  0
   -4.2705    2.1478   11.3800 C   0  0  0  0  0  0  0  0  0  0  0  0
   -3.8039    1.4690   12.2689 O   0  0  0  0  0  0  0  0  0  0  0  0
   -5.4966    1.8722   10.9128 O   0  0  0  0  0  0  0  0  0  0  0  0
   -5.8640    2.3926   10.2256 H   0  0  0  0  0  0  0  0  0  0  0  0
   -2.0783    3.3480   11.4695 C   0  0  0  0  0  0  0  0  0  0  0  0
   -2.0727    4.3549   12.5884 C   0  0  0  0  0  0  0  0  0  0  0  0
   -1.2300    4.3455   13.6343 N   0  0  0  0  0  0  0  0  0  0  0  0
   -2.8988    5.4113   12.7238 C   0  0  0  0  0  0  0  0  0  0  0  0
   -1.5006    5.3523   14.4088 C   0  0  0  0  0  0  0  0  0  0  0  0
   -2.5361    6.0474   13.8799 N   0  0  0  0  0  0  0  0  0  0  0  0
   -0.5202    3.6811   13.7892 H   0  0  0  0  0  0  0  0  0  0  0  0
   -2.9498    6.8575   14.2564 H   0  0  0  0  0  0  0  0  0  0  0  0
  1  2  1  0  0  0
  2  5  1  0  0  0
  2  9  1  0  0  0
  5  6  2  0  0  0
  5  7  1  0  0  0
  9 10  1  0  0  0
 10 11  1  0  0  0
 10 12  2  0  0  0
 11 13  2  0  0  0
 12 14  1  0  0  0
 13 14  1  0  0  0
  1  3  1  0  0  0
  1  4  1  0  0  0
 11 15  1  0  0  0
 14 16  1  0  0  0
  7  8  1  0  0  0
M  CHG 1  11   1
M  END
> <minimizedAffinity>
-4.65526

$$$$
2EZ7_DHI_A_301


 16 16  0  0  0  0  0  0  0  0999 V2000
   -1.3548    4.2417   13.5432 N   0  0  0  0  0  0  0  0  0  0  0  0
   -1.6447    4.5547   12.1391 C   0  0  0  0  0  0  0  0  0  0  0  0
   -0.3452    4.2317   13.6878 H   0  0  0  0  0  0  0  0  0  0  0  0
   -1.7404    3.3260   13.7740 H   0  0  0  0  0  0  0  0  0  0  0  0
   -0.9917    3.5361   11.2172 C   0  0  0  0  0  0  0  0  0  0  0  0
   -0.8538    3.7921   10.0408 O   0  0  0  0  0  0  0  0  0  0  0  0
   -0.5639    2.3572   11.6911 O   0  0  0  0  0  0  0  0  0  0  0  0
   -0.6671    2.1522   12.5996 H   0  0  0  0  0  0  0  0  0  0  0  0
   -3.1604    4.5731   11.9067 C   0  0  0  0  0  0  0  0  0  0  0  0
   -3.6973    3.1671   11.8876 C   0  0  0  0  0  0  0  0  0  0  0  0
   -3.5639    2.2738   12.8818 N   0  0  0  0  0  0  0  0  0  0  0  0
   -4.3859    2.5825   10.8871 C   0  0  0  0  0  0  0  0  0  0  0  0
   -4.1422    1.1631   12.5373 C   0  0  0  0  0  0  0  0  0  0  0  0
   -4.6706    1.3088   11.2985 N   0  0  0  0  0  0  0  0  0  0  0  0
   -3.1014    2.4352   13.7358 H   0  0  0  0  0  0  0  0  0  0  0  0
   -5.1662    0.6268   10.7900 H   0  0  0  0  0  0  0  0  0  0  0  0
  1  2  1  0  0  0
  2  5  1  0  0  0
  2  9  1  0  0  0
  5  6  2  0  0  0
  5  7  1  0  0  0
  9 10  1  0  0  0
 10 11  1  0  0  0
 10 12  2  0  0  0
 11 13  2  0  0  0
 12 14  1  0  0  0
 13 14  1  0  0  0
  1  3  1  0  0  0
  1  4  1  0  0  0
 11 15  1  0  0  0
 14 16  1  0  0  0
  7  8  1  0  0  0
M  CHG 1  11   1
M  END
> <minimizedAffinity>
-4.36191

$$$$
2EZ7_DHI_A_301


 16 16  0  0  0  0  0  0  0  0999 V2000
   -4.5155    4.3230   11.6991 N   0  0  0  0  0  0  0  0  0  0  0  0
   -3.7981    3.1232   12.1455 C   0  0  0  0  0  0  0  0  0  0  0  0
   -5.4550    4.3247   12.0960 H   0  0  0  0  0  0  0  0  0  0  0  0
   -4.5766    4.3235   10.6809 H   0  0  0  0  0  0  0  0  0  0  0  0
   -4.5466    1.8658   11.7300 C   0  0  0  0  0  0  0  0  0  0  0  0
   -4.2567    0.8010   12.2308 O   0  0  0  0  0  0  0  0  0  0  0  0
   -5.5264    1.9211   10.8165 O   0  0  0  0  0  0  0  0  0  0  0  0
   -5.7561    2.7408   10.4249 H   0  0  0  0  0  0  0  0  0  0  0  0
   -2.3826    3.1071   11.5558 C   0  0  0  0  0  0  0  0  0  0  0  0
   -2.3556    3.8657   10.2560 C   0  0  0  0  0  0  0  0  0  0  0  0
   -3.1733    3.6448    9.2135 N   0  0  0  0  0  0  0  0  0  0  0  0
   -1.5203    4.8718    9.9291 C   0  0  0  0  0  0  0  0  0  0  0  0
   -2.8783    4.4730    8.2576 C   0  0  0  0  0  0  0  0  0  0  0  0
   -1.8516    5.2600    8.6594 N   0  0  0  0  0  0  0  0  0  0  0  0
   -3.8831    2.9635    9.1794 H   0  0  0  0  0  0  0  0  0  0  0  0
   -1.4243    5.9764    8.1364 H   0  0  0  0  0  0  0  0  0  0  0  0
  1  2  1  0  0  0
  2  5  1  0  0  0
  2  9  1  0  0  0
  5  6  2  0  0  0
  5  7  1  0  0  0
  9 10  1  0  0  0
 10 11  1  0  0  0
 10 12  2  0  0  0
 11 13  2  0  0  0
 12 14  1  0  0  0
 13 14  1  0  0  0
  1  3  1  0  0  0
  1  4  1  0  0  0
 11 15  1  0  0  0
 14 16  1  0  0  0
  7  8  1  0  0  0
M  CHG 1  11   1
M  END
> <minimizedAffinity>
-4.26960

$$$$
2EZ7_DHI_A_301


 16 16  0  0  0  0  0  0  0  0999 V2000
   -3.6209    3.1009    9.7363 N   0  0  0  0  0  0  0  0  0  0  0  0
   -4.3558    2.9792   11.0006 C   0  0  0  0  0  0  0  0  0  0  0  0
   -4.0887    2.5499    9.0167 H   0  0  0  0  0  0  0  0  0  0  0  0
   -2.6687    2.7577    9.8621 H   0  0  0  0  0  0  0  0  0  0  0  0
   -4.4461    1.5226   11.4297 C   0  0  0  0  0  0  0  0  0  0  0  0
   -5.0690    0.7341   10.7523 O   0  0  0  0  0  0  0  0  0  0  0  0
   -3.8420    1.0987   12.5491 O   0  0  0  0  0  0  0  0  0  0  0  0
   -3.3586    1.7025   13.0780 H   0  0  0  0  0  0  0  0  0  0  0  0
   -3.6633    3.8033   12.0928 C   0  0  0  0  0  0  0  0  0  0  0  0
   -2.1997    3.9546   11.7760 C   0  0  0  0  0  0  0  0  0  0  0  0
   -1.3172    2.9454   11.6920 N   0  0  0  0  0  0  0  0  0  0  0  0
   -1.5447    5.1070   11.5312 C   0  0  0  0  0  0  0  0  0  0  0  0
   -0.1456    3.4265   11.4045 C   0  0  0  0  0  0  0  0  0  0  0  0
   -0.2389    4.7734   11.2938 N   0  0  0  0  0  0  0  0  0  0  0  0
   -1.5254    1.9927   11.8269 H   0  0  0  0  0  0  0  0  0  0  0  0
    0.4946    5.3951   11.0823 H   0  0  0  0  0  0  0  0  0  0  0  0
  1  2  1  0  0  0
  2  5  1  0  0  0
  2  9  1  0  0  0
  5  6  2  0  0  0
  5  7  1  0  0  0
  9 10  1  0  0  0
 10 11  1  0  0  0
 10 12  2  0  0  0
 11 13  2  0  0  0
 12 14  1  0  0  0
 13 14  1  0  0  0
  1  3  1  0  0  0
  1  4  1  0  0  0
 11 15  1  0  0  0
 14 16  1  0  0  0
  7  8  1  0  0  0
M  CHG 1  11   1
M  END
> <minimizedAffinity>
-4.24297

$$$$
2EZ7_DHI_A_301


 16 16  0  0  0  0  0  0  0  0999 V2000
   -1.2335    4.4586   13.9190 N   0  0  0  0  0  0  0  0  0  0  0  0
   -1.1806    4.6940   12.4716 C   0  0  0  0  0  0  0  0  0  0  0  0
   -0.2849    4.3850   14.2865 H   0  0  0  0  0  0  0  0  0  0  0  0
   -1.7381    3.5918   14.1043 H   0  0  0  0  0  0  0  0  0  0  0  0
   -0.4322    3.5690   11.7728 C   0  0  0  0  0  0  0  0  0  0  0  0
   -0.9827    2.5055   11.5875 O   0  0  0  0  0  0  0  0  0  0  0  0
    0.8307    3.7404   11.3565 O   0  0  0  0  0  0  0  0  0  0  0  0
    1.2629    4.5599   11.4962 H   0  0  0  0  0  0  0  0  0  0  0  0
   -2.6011    4.8069   11.9049 C   0  0  0  0  0  0  0  0  0  0  0  0
   -3.5925    4.2239   12.8758 C   0  0  0  0  0  0  0  0  0  0  0  0
   -3.6235    2.9416   13.2746 N   0  0  0  0  0  0  0  0  0  0  0  0
   -4.5959    4.8800   13.4922 C   0  0  0  0  0  0  0  0  0  0  0  0
   -4.6029    2.7792   14.1118 C   0  0  0  0  0  0  0  0  0  0  0  0
   -5.2388    3.9635   14.2793 N   0  0  0  0  0  0  0  0  0  0  0  0
   -3.0026    2.2370   12.9791 H   0  0  0  0  0  0  0  0  0  0  0  0
   -6.0169    4.1330   14.8581 H   0  0  0  0  0  0  0  0  0  0  0  0
  1  2  1  0  0  0
  2  5  1  0  0  0
  2  9  1  0  0  0
  5  6  2  0  0  0
  5  7  1  0  0  0
  9 10  1  0  0  0
 10 11  1  0  0  0
 10 12  2  0  0  0
 11 13  2  0  0  0
 12 14  1  0  0  0
 13 14  1  0  0  0
  1  3  1  0  0  0
  1  4  1  0  0  0
 11 15  1  0  0  0
 14 16  1  0  0  0
  7  8  1  0  0  0
M  CHG 1  11   1
M  END
> <minimizedAffinity>
-4.14990

$$$$
2EZ7_DHI_A_301


 16 16  0  0  0  0  0  0  0  0999 V2000
   -5.3295    1.8272   10.9309 N   0  0  0  0  0  0  0  0  0  0  0  0
   -4.2131    2.6390   11.4289 C   0  0  0  0  0  0  0  0  0  0  0  0
   -5.1096    1.4837    9.9960 H   0  0  0  0  0  0  0  0  0  0  0  0
   -6.1744    2.3974   10.8935 H   0  0  0  0  0  0  0  0  0  0  0  0
   -3.9387    3.8052   10.4916 C   0  0  0  0  0  0  0  0  0  0  0  0
   -2.8191    3.9803   10.0621 O   0  0  0  0  0  0  0  0  0  0  0  0
   -4.9224    4.6423   10.1320 O   0  0  0  0  0  0  0  0  0  0  0  0
   -5.7906    4.5133   10.4600 H   0  0  0  0  0  0  0  0  0  0  0  0
   -4.5301    3.1627   12.8350 C   0  0  0  0  0  0  0  0  0  0  0  0
   -3.4803    4.1510   13.2670 C   0  0  0  0  0  0  0  0  0  0  0  0
   -2.1549    3.9347   13.2392 N   0  0  0  0  0  0  0  0  0  0  0  0
   -3.6933    5.3927   13.7465 C   0  0  0  0  0  0  0  0  0  0  0  0
   -1.5412    4.9909   13.6802 C   0  0  0  0  0  0  0  0  0  0  0  0
   -2.4618    5.9287   14.0088 N   0  0  0  0  0  0  0  0  0  0  0  0
   -1.7182    3.1071   12.9332 H   0  0  0  0  0  0  0  0  0  0  0  0
   -2.2793    6.8267   14.3686 H   0  0  0  0  0  0  0  0  0  0  0  0
  1  2  1  0  0  0
  2  5  1  0  0  0
  2  9  1  0  0  0
  5  6  2  0  0  0
  5  7  1  0  0  0
  9 10  1  0  0  0
 10 11  1  0  0  0
 10 12  2  0  0  0
 11 13  2  0  0  0
 12 14  1  0  0  0
 13 14  1  0  0  0
  1  3  1  0  0  0
  1  4  1  0  0  0
 11 15  1  0  0  0
 14 16  1  0  0  0
  7  8  1  0  0  0
M  CHG 1  11   1
M  END
> <minimizedAffinity>
-4.08027

$$$$
2EZ7_DHI_A_301


 16 16  0  0  0  0  0  0  0  0999 V2000
   -3.7814    5.4566   13.1462 N   0  0  0  0  0  0  0  0  0  0  0  0
   -2.3319    5.5815   12.9544 C   0  0  0  0  0  0  0  0  0  0  0  0
   -4.0942    6.1444   13.8314 H   0  0  0  0  0  0  0  0  0  0  0  0
   -4.0004    4.5186   13.4817 H   0  0  0  0  0  0  0  0  0  0  0  0
   -1.5980    5.3823   14.2719 C   0  0  0  0  0  0  0  0  0  0  0  0
   -1.3888    6.3335   14.9929 O   0  0  0  0  0  0  0  0  0  0  0  0
   -1.1807    4.1647   14.6472 O   0  0  0  0  0  0  0  0  0  0  0  0
   -1.3389    3.4244   14.0950 H   0  0  0  0  0  0  0  0  0  0  0  0
   -1.8471    4.5526   11.9259 C   0  0  0  0  0  0  0  0  0  0  0  0
   -2.9206    3.5280   11.6744 C   0  0  0  0  0  0  0  0  0  0  0  0
   -3.3702    2.6401   12.5766 N   0  0  0  0  0  0  0  0  0  0  0  0
   -3.5939    3.3345   10.5228 C   0  0  0  0  0  0  0  0  0  0  0  0
   -4.2933    1.9078   12.0304 C   0  0  0  0  0  0  0  0  0  0  0  0
   -4.4679    2.3056   10.7474 N   0  0  0  0  0  0  0  0  0  0  0  0
   -3.0508    2.5576   13.5041 H   0  0  0  0  0  0  0  0  0  0  0  0
   -5.1037    1.9260   10.0986 H   0  0  0  0  0  0  0  0  0  0  0  0
  1  2  1  0  0  0
  2  5  1  0  0  0
  2  9  1  0  0  0
  5  6  2  0  0  0
  5  7  1  0  0  0
  9 10  1  0  0  0
 10 11  1  0  0  0
 10 12  2  0  0  0
 11 13  2  0  0  0
 12 14  1  0  0  0
 13 14  1  0  0  0
  1  3  1  0  0  0
  1  4  1  0  0  0
 11 15  1  0  0  0
 14 16  1  0  0  0
  7  8  1  0  0  0
M  CHG 1  11   1
M  END
> <minimizedAffinity>
-4.04513

$$$$
2EZ7_DHI_A_301


 16 16  0  0  0  0  0  0  0  0999 V2000
   -5.2602    3.4911   13.2363 N   0  0  0  0  0  0  0  0  0  0  0  0
   -4.1463    2.6781   12.7350 C   0  0  0  0  0  0  0  0  0  0  0  0
   -5.9329    2.8898   13.7120 H   0  0  0  0  0  0  0  0  0  0  0  0
   -5.7172    3.9607   12.4546 H   0  0  0  0  0  0  0  0  0  0  0  0
   -4.6526    1.6025   11.7860 C   0  0  0  0  0  0  0  0  0  0  0  0
   -4.2329    0.4698   11.8828 O   0  0  0  0  0  0  0  0  0  0  0  0
   -5.5610    1.8919   10.8433 O   0  0  0  0  0  0  0  0  0  0  0  0
   -5.8901    2.7654   10.7623 H   0  0  0  0  0  0  0  0  0  0  0  0
   -3.1260    3.5698   12.0168 C   0  0  0  0  0  0  0  0  0  0  0  0
   -3.7712    4.8664   11.6069 C   0  0  0  0  0  0  0  0  0  0  0  0
   -3.9376    5.9345   12.4042 N   0  0  0  0  0  0  0  0  0  0  0  0
   -4.2813    5.1632   10.3950 C   0  0  0  0  0  0  0  0  0  0  0  0
   -4.5276    6.8782   11.7349 C   0  0  0  0  0  0  0  0  0  0  0  0
   -4.7617    6.4421   10.4740 N   0  0  0  0  0  0  0  0  0  0  0  0
   -3.6568    5.9928   13.3460 H   0  0  0  0  0  0  0  0  0  0  0  0
   -5.1957    6.9497    9.7506 H   0  0  0  0  0  0  0  0  0  0  0  0
  1  2  1  0  0  0
  2  5  1  0  0  0
  2  9  1  0  0  0
  5  6  2  0  0  0
  5  7  1  0  0  0
  9 10  1  0  0  0
 10 11  1  0  0  0
 10 12  2  0  0  0
 11 13  2  0  0  0
 12 14  1  0  0  0
 13 14  1  0  0  0
  1  3  1  0  0  0
  1  4  1  0  0  0
 11 15  1  0  0  0
 14 16  1  0  0  0
  7  8  1  0  0  0
M  CHG 1  11   1
M  END
> <minimizedAffinity>
-4.02144

$$$$
2EZ7_DHI_A_301


 16 16  0  0  0  0  0  0  0  0999 V2000
   -3.5223    1.4872   12.3775 N   0  0  0  0  0  0  0  0  0  0  0  0
   -4.4810    2.5815   12.5694 C   0  0  0  0  0  0  0  0  0  0  0  0
   -3.8511    0.6568   12.8703 H   0  0  0  0  0  0  0  0  0  0  0  0
   -2.6125    1.7636   12.7466 H   0  0  0  0  0  0  0  0  0  0  0  0
   -4.6589    2.8846   14.0494 C   0  0  0  0  0  0  0  0  0  0  0  0
   -5.3686    3.8047   14.3932 O   0  0  0  0  0  0  0  0  0  0  0  0
   -4.0409    2.1437   14.9804 O   0  0  0  0  0  0  0  0  0  0  0  0
   -3.4906    1.4306   14.7222 H   0  0  0  0  0  0  0  0  0  0  0  0
   -3.9993    3.8376   11.8334 C   0  0  0  0  0  0  0  0  0  0  0  0
   -2.5038    3.9630   11.9496 C   0  0  0  0  0  0  0  0  0  0  0  0
   -1.6109    3.3282   11.1724 N   0  0  0  0  0  0  0  0  0  0  0  0
   -1.8265    4.7173   12.8379 C   0  0  0  0  0  0  0  0  0  0  0  0
   -0.4113    3.6601   11.5431 C   0  0  0  0  0  0  0  0  0  0  0  0
   -0.4960    4.5270   12.5805 N   0  0  0  0  0  0  0  0  0  0  0  0
   -1.8308    2.7099   10.4386 H   0  0  0  0  0  0  0  0  0  0  0  0
    0.2576    4.9420   13.0592 H   0  0  0  0  0  0  0  0  0  0  0  0
  1  2  1  0  0  0
  2  5  1  0  0  0
  2  9  1  0  0  0
  5  6  2  0  0  0
  5  7  1  0  0  0
  9 10  1  0  0  0
 10 11  1  0  0  0
 10 12  2  0  0  0
 11 13  2  0  0  0
 12 14  1  0  0  0
 13 14  1  0  0  0
  1  3  1  0  0  0
  1  4  1  0  0  0
 11 15  1  0  0  0
 14 16  1  0  0  0
  7  8  1  0  0  0
M  CHG 1  11   1
M  END
> <minimizedAffinity>
-3.93959

$$$$
