4ASE_AV9_A_3169


 34 37  0  0  0  0  0  0  0  0999 V2000
  -22.7379   -0.7597  -13.2363 C   0  0  0  0  0  0  0  0  0  0  0  0
  -24.0610   -0.8035  -13.8139 C   0  0  0  0  0  0  0  0  0  0  0  0
  -24.8506   -1.9575  -11.7878 C   0  0  0  0  0  0  0  0  0  0  0  0
  -23.5188   -1.8986  -11.2521 C   0  0  0  0  0  0  0  0  0  0  0  0
  -22.4720   -1.3041  -11.9681 C   0  0  0  0  0  0  0  0  0  0  0  0
  -25.1167   -1.4050  -13.0787 C   0  0  0  0  0  0  0  0  0  0  0  0
  -26.7066   -1.4505  -13.7674 Cl  0  0  0  0  0  0  0  0  0  0  0  0
  -25.8978   -2.5584  -11.0441 N   0  0  0  0  0  0  0  0  0  0  0  0
  -26.3153   -2.0631   -9.7986 C   0  0  0  0  0  0  0  0  0  0  0  0
  -25.8186   -1.0779   -9.2538 O   0  0  0  0  0  0  0  0  0  0  0  0
  -26.3483   -3.3516  -11.4145 H   0  0  0  0  0  0  0  0  0  0  0  0
  -29.3413   -2.9300   -6.3733 O   0  0  0  0  0  0  0  0  0  0  0  0
  -27.3518   -2.8474   -9.2739 N   0  0  0  0  0  0  0  0  0  0  0  0
  -27.9791   -2.6250   -8.0403 C   0  0  0  0  0  0  0  0  0  0  0  0
  -28.8688   -1.1610   -4.7873 C   0  0  0  0  0  0  0  0  0  0  0  0
  -28.5999   -1.8324   -6.0705 C   0  0  0  0  0  0  0  0  0  0  0  0
  -27.7286   -1.5948   -7.0819 C   0  0  0  0  0  0  0  0  0  0  0  0
  -28.9568   -3.4320   -7.6101 N   0  0  0  0  0  0  0  0  0  0  0  0
  -29.3264   -4.2179   -8.0738 H   0  0  0  0  0  0  0  0  0  0  0  0
  -21.6871   -0.1817  -13.8991 O   0  0  0  0  0  0  0  0  0  0  0  0
  -17.7910    2.7144  -15.4426 C   0  0  0  0  0  0  0  0  0  0  0  0
  -18.8866    3.5933  -15.1319 C   0  0  0  0  0  0  0  0  0  0  0  0
  -20.1258    3.1117  -14.6673 C   0  0  0  0  0  0  0  0  0  0  0  0
  -20.2974    1.6805  -14.5038 C   0  0  0  0  0  0  0  0  0  0  0  0
  -19.2097    0.8024  -14.8122 C   0  0  0  0  0  0  0  0  0  0  0  0
  -17.9539    1.2984  -15.2773 C   0  0  0  0  0  0  0  0  0  0  0  0
  -21.1233    3.9971  -14.3828 N   0  0  0  0  0  0  0  0  0  0  0  0
  -22.3232    3.5285  -13.9315 C   0  0  0  0  0  0  0  0  0  0  0  0
  -22.6048    2.1766  -13.7390 C   0  0  0  0  0  0  0  0  0  0  0  0
  -21.5749    1.2230  -14.0308 C   0  0  0  0  0  0  0  0  0  0  0  0
  -16.8475    0.5108  -15.5891 O   0  0  0  0  0  0  0  0  0  0  0  0
  -16.8188   -0.8595  -15.1658 C   0  0  0  0  0  0  0  0  0  0  0  0
  -16.5468    3.1230  -15.8997 O   0  0  0  0  0  0  0  0  0  0  0  0
  -16.2292    4.5263  -15.9033 C   0  0  0  0  0  0  0  0  0  0  0  0
 21 22  2  0  0  0
 21 26  1  0  0  0
 21 33  1  0  0  0
 22 23  1  0  0  0
 23 24  1  0  0  0
 23 27  2  0  0  0
 24 25  1  0  0  0
 24 30  2  0  0  0
 25 26  2  0  0  0
 26 31  1  0  0  0
 27 28  1  0  0  0
 28 29  2  0  0  0
 29 30  1  0  0  0
 30 20  1  0  0  0
 20  1  1  0  0  0
  1  2  1  0  0  0
  1  5  2  0  0  0
  2  6  2  0  0  0
  3  4  2  0  0  0
  3  8  1  0  0  0
  3  6  1  0  0  0
  4  5  1  0  0  0
 12 16  1  0  0  0
 12 18  1  0  0  0
  8  9  1  0  0  0
 31 32  1  0  0  0
 33 34  1  0  0  0
  6  7  1  0  0  0
  9 10  2  0  0  0
  9 13  1  0  0  0
 13 14  2  0  0  0
 14 17  1  0  0  0
 14 18  1  0  0  0
 15 16  1  0  0  0
 17 16  2  0  0  0
  8 11  1  0  0  0
 18 19  1  0  0  0
M  END
> <minimizedAffinity>
-12.13389

$$$$
4ASE_AV9_A_3169


 34 37  0  0  0  0  0  0  0  0999 V2000
  -26.7292   -1.4433  -10.3029 C   0  0  0  0  0  0  0  0  0  0  0  0
  -26.8767   -1.3241  -11.7348 C   0  0  0  0  0  0  0  0  0  0  0  0
  -24.4232   -1.2964  -11.9331 C   0  0  0  0  0  0  0  0  0  0  0  0
  -24.3204   -1.4092  -10.5046 C   0  0  0  0  0  0  0  0  0  0  0  0
  -25.4619   -1.4838   -9.6964 C   0  0  0  0  0  0  0  0  0  0  0  0
  -25.7135   -1.2531  -12.5462 C   0  0  0  0  0  0  0  0  0  0  0  0
  -25.8897   -1.1187  -14.2652 Cl  0  0  0  0  0  0  0  0  0  0  0  0
  -23.2549   -1.2285  -12.7340 N   0  0  0  0  0  0  0  0  0  0  0  0
  -22.6715   -0.0084  -13.1103 C   0  0  0  0  0  0  0  0  0  0  0  0
  -23.1146    1.0913  -12.7807 O   0  0  0  0  0  0  0  0  0  0  0  0
  -22.8380   -2.0673  -13.0370 H   0  0  0  0  0  0  0  0  0  0  0  0
  -19.0588    1.7099  -15.4845 O   0  0  0  0  0  0  0  0  0  0  0  0
  -21.5405   -0.2240  -13.9099 N   0  0  0  0  0  0  0  0  0  0  0  0
  -20.7058    0.7868  -14.4063 C   0  0  0  0  0  0  0  0  0  0  0  0
  -19.2756    4.0961  -15.1275 C   0  0  0  0  0  0  0  0  0  0  0  0
  -19.7570    2.7216  -14.9059 C   0  0  0  0  0  0  0  0  0  0  0  0
  -20.8015    2.2001  -14.2164 C   0  0  0  0  0  0  0  0  0  0  0  0
  -19.6492    0.4916  -15.1735 N   0  0  0  0  0  0  0  0  0  0  0  0
  -19.3523   -0.4029  -15.4582 H   0  0  0  0  0  0  0  0  0  0  0  0
  -27.8187   -1.5260   -9.4762 O   0  0  0  0  0  0  0  0  0  0  0  0
  -28.1304   -5.0755   -5.8357 C   0  0  0  0  0  0  0  0  0  0  0  0
  -27.8603   -3.8180   -5.1915 C   0  0  0  0  0  0  0  0  0  0  0  0
  -27.7189   -2.6191   -5.9167 C   0  0  0  0  0  0  0  0  0  0  0  0
  -27.8462   -2.6622   -7.3612 C   0  0  0  0  0  0  0  0  0  0  0  0
  -28.1145   -3.9116   -8.0062 C   0  0  0  0  0  0  0  0  0  0  0  0
  -28.2626   -5.1225   -7.2637 C   0  0  0  0  0  0  0  0  0  0  0  0
  -27.4707   -1.4574   -5.2468 N   0  0  0  0  0  0  0  0  0  0  0  0
  -27.3352   -0.2963   -5.9513 C   0  0  0  0  0  0  0  0  0  0  0  0
  -27.4337   -0.2158   -7.3398 C   0  0  0  0  0  0  0  0  0  0  0  0
  -27.6934   -1.4217   -8.0703 C   0  0  0  0  0  0  0  0  0  0  0  0
  -28.5328   -6.3728   -7.8162 O   0  0  0  0  0  0  0  0  0  0  0  0
  -27.4590   -7.1390   -8.3797 C   0  0  0  0  0  0  0  0  0  0  0  0
  -28.2840   -6.2889   -5.1815 O   0  0  0  0  0  0  0  0  0  0  0  0
  -28.1297   -6.3373   -3.7519 C   0  0  0  0  0  0  0  0  0  0  0  0
 21 22  2  0  0  0
 21 26  1  0  0  0
 21 33  1  0  0  0
 22 23  1  0  0  0
 23 24  1  0  0  0
 23 27  2  0  0  0
 24 25  1  0  0  0
 24 30  2  0  0  0
 25 26  2  0  0  0
 26 31  1  0  0  0
 27 28  1  0  0  0
 28 29  2  0  0  0
 29 30  1  0  0  0
 30 20  1  0  0  0
 20  1  1  0  0  0
  1  2  1  0  0  0
  1  5  2  0  0  0
  2  6  2  0  0  0
  3  4  2  0  0  0
  3  8  1  0  0  0
  3  6  1  0  0  0
  4  5  1  0  0  0
 12 16  1  0  0  0
 12 18  1  0  0  0
  8  9  1  0  0  0
 31 32  1  0  0  0
 33 34  1  0  0  0
  6  7  1  0  0  0
  9 10  2  0  0  0
  9 13  1  0  0  0
 13 14  2  0  0  0
 14 17  1  0  0  0
 14 18  1  0  0  0
 15 16  1  0  0  0
 17 16  2  0  0  0
  8 11  1  0  0  0
 18 19  1  0  0  0
M  END
> <minimizedAffinity>
-9.57955

$$$$
