3UMQ_BUA_A_172


  7  6  0  0  0  0  0  0  0  0999 V2000
  -35.9424  -25.6959  -47.8434 C   0  0  0  0  0  0  0  0  0  0  0  0
  -34.7156  -25.7398  -47.7255 O   0  0  0  0  0  0  0  0  0  0  0  0
  -36.4986  -26.1459  -48.8465 O   0  0  0  0  0  0  0  0  0  0  0  0
  -37.4317  -26.1058  -48.9225 H   0  0  0  0  0  0  0  0  0  0  0  0
  -36.7726  -25.0761  -46.7426 C   0  0  0  0  0  0  0  0  0  0  0  0
  -38.7263  -26.1970  -45.6903 C   0  0  0  0  0  0  0  0  0  0  0  0
  -38.2553  -25.4264  -46.9000 C   0  0  0  0  0  0  0  0  0  0  0  0
  6  7  1  0  0  0
  7  5  1  0  0  0
  5  1  1  0  0  0
  1  2  2  0  0  0
  1  3  1  0  0  0
  3  4  1  0  0  0
M  END
> <minimizedAffinity>
-3.23654

$$$$
3UMQ_BUA_A_172


  7  6  0  0  0  0  0  0  0  0999 V2000
  -36.8614  -25.6583  -47.7547 C   0  0  0  0  0  0  0  0  0  0  0  0
  -35.9943  -25.0621  -47.1116 O   0  0  0  0  0  0  0  0  0  0  0  0
  -36.6025  -26.1673  -48.8464 O   0  0  0  0  0  0  0  0  0  0  0  0
  -37.2714  -26.6173  -49.3239 H   0  0  0  0  0  0  0  0  0  0  0  0
  -38.2622  -25.7598  -47.1957 C   0  0  0  0  0  0  0  0  0  0  0  0
  -39.2719  -26.7486  -45.1503 C   0  0  0  0  0  0  0  0  0  0  0  0
  -38.2510  -25.7622  -45.6640 C   0  0  0  0  0  0  0  0  0  0  0  0
  6  7  1  0  0  0
  7  5  1  0  0  0
  5  1  1  0  0  0
  1  2  2  0  0  0
  1  3  1  0  0  0
  3  4  1  0  0  0
M  END
> <minimizedAffinity>
-2.93178

$$$$
3UMQ_BUA_A_172


  7  6  0  0  0  0  0  0  0  0999 V2000
  -37.3080  -25.6372  -47.6363 C   0  0  0  0  0  0  0  0  0  0  0  0
  -36.9493  -25.3646  -48.7843 O   0  0  0  0  0  0  0  0  0  0  0  0
  -38.2192  -26.4409  -47.4316 O   0  0  0  0  0  0  0  0  0  0  0  0
  -38.4813  -26.6385  -46.5540 H   0  0  0  0  0  0  0  0  0  0  0  0
  -36.6222  -24.9704  -46.4658 C   0  0  0  0  0  0  0  0  0  0  0  0
  -36.4048  -25.0870  -43.9919 C   0  0  0  0  0  0  0  0  0  0  0  0
  -37.3544  -25.2620  -45.1524 C   0  0  0  0  0  0  0  0  0  0  0  0
  6  7  1  0  0  0
  7  5  1  0  0  0
  5  1  1  0  0  0
  1  2  2  0  0  0
  1  3  1  0  0  0
  3  4  1  0  0  0
M  END
> <minimizedAffinity>
-2.84374

$$$$
3UMQ_BUA_A_172


  7  6  0  0  0  0  0  0  0  0999 V2000
  -38.9650  -26.3941  -45.4575 C   0  0  0  0  0  0  0  0  0  0  0  0
  -38.7235  -25.8775  -44.3640 O   0  0  0  0  0  0  0  0  0  0  0  0
  -39.3244  -27.5699  -45.5368 O   0  0  0  0  0  0  0  0  0  0  0  0
  -39.5044  -27.9493  -46.3744 H   0  0  0  0  0  0  0  0  0  0  0  0
  -38.8118  -25.5725  -46.7171 C   0  0  0  0  0  0  0  0  0  0  0  0
  -37.0305  -25.9823  -48.4022 C   0  0  0  0  0  0  0  0  0  0  0  0
  -37.3357  -25.3552  -47.0633 C   0  0  0  0  0  0  0  0  0  0  0  0
  6  7  1  0  0  0
  7  5  1  0  0  0
  5  1  1  0  0  0
  1  2  2  0  0  0
  1  3  1  0  0  0
  3  4  1  0  0  0
M  END
> <minimizedAffinity>
-2.79368

$$$$
3UMQ_BUA_A_172


  7  6  0  0  0  0  0  0  0  0999 V2000
  -32.4524  -22.6532  -42.6792 C   0  0  0  0  0  0  0  0  0  0  0  0
  -33.3231  -21.9152  -43.1462 O   0  0  0  0  0  0  0  0  0  0  0  0
  -31.5363  -23.0774  -43.3854 O   0  0  0  0  0  0  0  0  0  0  0  0
  -30.8816  -23.6375  -43.0170 H   0  0  0  0  0  0  0  0  0  0  0  0
  -32.5156  -23.0457  -41.2208 C   0  0  0  0  0  0  0  0  0  0  0  0
  -31.1792  -23.8922  -39.3028 C   0  0  0  0  0  0  0  0  0  0  0  0
  -31.1146  -23.1365  -40.6082 C   0  0  0  0  0  0  0  0  0  0  0  0
  6  7  1  0  0  0
  7  5  1  0  0  0
  5  1  1  0  0  0
  1  2  2  0  0  0
  1  3  1  0  0  0
  3  4  1  0  0  0
M  END
> <minimizedAffinity>
-2.78826

$$$$
3UMQ_BUA_A_172


  7  6  0  0  0  0  0  0  0  0999 V2000
  -33.0649  -22.4148  -42.8088 C   0  0  0  0  0  0  0  0  0  0  0  0
  -33.5777  -21.3492  -43.1588 O   0  0  0  0  0  0  0  0  0  0  0  0
  -31.8894  -22.6696  -43.0756 O   0  0  0  0  0  0  0  0  0  0  0  0
  -31.5129  -23.4833  -42.8033 H   0  0  0  0  0  0  0  0  0  0  0  0
  -33.8941  -23.4229  -42.0465 C   0  0  0  0  0  0  0  0  0  0  0  0
  -34.5768  -24.8756  -43.9451 C   0  0  0  0  0  0  0  0  0  0  0  0
  -35.0742  -23.9212  -42.8863 C   0  0  0  0  0  0  0  0  0  0  0  0
  6  7  1  0  0  0
  7  5  1  0  0  0
  5  1  1  0  0  0
  1  2  2  0  0  0
  1  3  1  0  0  0
  3  4  1  0  0  0
M  END
> <minimizedAffinity>
-2.53704

$$$$
3UMQ_BUA_A_172


  7  6  0  0  0  0  0  0  0  0999 V2000
  -34.1160  -21.0941  -43.0286 C   0  0  0  0  0  0  0  0  0  0  0  0
  -33.9960  -19.9040  -43.3288 O   0  0  0  0  0  0  0  0  0  0  0  0
  -33.1315  -21.8311  -42.9553 O   0  0  0  0  0  0  0  0  0  0  0  0
  -33.2377  -22.7334  -42.7260 H   0  0  0  0  0  0  0  0  0  0  0  0
  -35.4923  -21.6551  -42.7522 C   0  0  0  0  0  0  0  0  0  0  0  0
  -37.1428  -20.0853  -41.7562 C   0  0  0  0  0  0  0  0  0  0  0  0
  -36.5838  -20.6230  -43.0514 C   0  0  0  0  0  0  0  0  0  0  0  0
  6  7  1  0  0  0
  7  5  1  0  0  0
  5  1  1  0  0  0
  1  2  2  0  0  0
  1  3  1  0  0  0
  3  4  1  0  0  0
M  END
> <minimizedAffinity>
-2.45112

$$$$
3UMQ_BUA_A_172


  7  6  0  0  0  0  0  0  0  0999 V2000
  -39.3397  -18.3005  -39.8989 C   0  0  0  0  0  0  0  0  0  0  0  0
  -38.8804  -17.5117  -39.0695 O   0  0  0  0  0  0  0  0  0  0  0  0
  -40.4140  -18.0762  -40.4588 O   0  0  0  0  0  0  0  0  0  0  0  0
  -40.7508  -18.6844  -41.0869 H   0  0  0  0  0  0  0  0  0  0  0  0
  -38.5743  -19.5620  -40.2272 C   0  0  0  0  0  0  0  0  0  0  0  0
  -36.7854  -20.5736  -41.6262 C   0  0  0  0  0  0  0  0  0  0  0  0
  -37.4081  -19.2736  -41.1773 C   0  0  0  0  0  0  0  0  0  0  0  0
  6  7  1  0  0  0
  7  5  1  0  0  0
  5  1  1  0  0  0
  1  2  2  0  0  0
  1  3  1  0  0  0
  3  4  1  0  0  0
M  END
> <minimizedAffinity>
-2.37296

$$$$
3UMQ_BUA_A_172


  7  6  0  0  0  0  0  0  0  0999 V2000
  -39.1724  -26.1095  -46.2942 C   0  0  0  0  0  0  0  0  0  0  0  0
  -40.1277  -25.3584  -46.5041 O   0  0  0  0  0  0  0  0  0  0  0  0
  -38.3005  -26.2788  -47.1481 O   0  0  0  0  0  0  0  0  0  0  0  0
  -37.5802  -26.8526  -46.9748 H   0  0  0  0  0  0  0  0  0  0  0  0
  -39.0750  -26.8354  -44.9718 C   0  0  0  0  0  0  0  0  0  0  0  0
  -39.1414  -25.6309  -42.7980 C   0  0  0  0  0  0  0  0  0  0  0  0
  -38.2585  -26.0319  -43.9551 C   0  0  0  0  0  0  0  0  0  0  0  0
  6  7  1  0  0  0
  7  5  1  0  0  0
  5  1  1  0  0  0
  1  2  2  0  0  0
  1  3  1  0  0  0
  3  4  1  0  0  0
M  END
> <minimizedAffinity>
-2.31362

$$$$
3UMQ_BUA_A_172


  7  6  0  0  0  0  0  0  0  0999 V2000
  -33.0267  -22.1784  -42.4482 C   0  0  0  0  0  0  0  0  0  0  0  0
  -34.0120  -22.8817  -42.2124 O   0  0  0  0  0  0  0  0  0  0  0  0
  -32.0670  -22.6242  -43.0792 O   0  0  0  0  0  0  0  0  0  0  0  0
  -31.3250  -22.0784  -43.2511 H   0  0  0  0  0  0  0  0  0  0  0  0
  -32.9965  -20.7515  -41.9504 C   0  0  0  0  0  0  0  0  0  0  0  0
  -33.5996  -18.4099  -42.5285 C   0  0  0  0  0  0  0  0  0  0  0  0
  -33.9477  -19.8612  -42.7558 C   0  0  0  0  0  0  0  0  0  0  0  0
  6  7  1  0  0  0
  7  5  1  0  0  0
  5  1  1  0  0  0
  1  2  2  0  0  0
  1  3  1  0  0  0
  3  4  1  0  0  0
M  END
> <minimizedAffinity>
-2.27004

$$$$
