5LLP_6Z9_A_302


 34 36  0  0  0  0  0  0  0  0999 V2000
   24.0413    3.4618   11.0173 C   0  0  0  0  0  0  0  0  0  0  0  0
   23.4162    3.6201   12.2461 C   0  0  0  0  0  0  0  0  0  0  0  0
   24.9544    5.3998   12.9246 C   0  0  0  0  0  0  0  0  0  0  0  0
   23.8440    4.5606   13.1780 C   0  0  0  0  0  0  0  0  0  0  0  0
   25.6218    5.1990   11.7285 C   0  0  0  0  0  0  0  0  0  0  0  0
   25.1435    4.2707   10.8112 C   0  0  0  0  0  0  0  0  0  0  0  0
   25.8240    4.0779    9.6809 F   0  0  0  0  0  0  0  0  0  0  0  0
   23.2010    4.6997   14.3757 F   0  0  0  0  0  0  0  0  0  0  0  0
   22.3254    2.9084   12.5988 F   0  0  0  0  0  0  0  0  0  0  0  0
   23.2700    2.9605    8.5104 O   0  0  0  0  0  0  0  0  0  0  0  0
   23.5482    2.2614    9.7643 S   0  0  0  0  0  0  0  0  0  0  0  0
   22.3668    1.4922   10.2411 O   0  0  0  0  0  0  0  0  0  0  0  0
   24.7672    1.1843    9.5667 N   0  0  0  0  0  0  0  0  0  0  0  0
   24.5032    0.4978    8.8601 H   0  0  0  0  0  0  0  0  0  0  0  0
   24.9481    0.7096   10.4511 H   0  0  0  0  0  0  0  0  0  0  0  0
   25.3651    6.6089   14.2087 S   0  0  0  0  0  0  0  0  0  0  0  0
   25.4609    6.0733   15.6660 O   0  0  0  0  0  0  0  0  0  0  0  0
   26.8755    7.0045   14.1474 O   0  0  0  0  0  0  0  0  0  0  0  0
   24.3048    8.0412   14.2262 C   0  0  0  0  0  0  0  0  0  0  0  0
   24.2178    8.5066   15.6669 C   0  0  0  0  0  0  0  0  0  0  0  0
   25.4650    8.8233   16.1398 O   0  0  0  0  0  0  0  0  0  0  0  0
   25.8424    9.5378   15.6033 H   0  0  0  0  0  0  0  0  0  0  0  0
   26.7254    6.0058   11.3473 N   0  0  0  0  0  0  0  0  0  0  0  0
   27.6113    5.8295   11.7390 H   0  0  0  0  0  0  0  0  0  0  0  0
   26.5689    7.1055   10.3731 C   0  0  0  0  0  0  0  0  0  0  0  0
   25.9470    8.3969   10.9397 C   0  0  0  0  0  0  0  0  0  0  0  0
   27.0136    9.3515   11.4495 C   0  0  0  0  0  0  0  0  0  0  0  0
   27.9671    9.7072   10.3030 C   0  0  0  0  0  0  0  0  0  0  0  0
   28.5772    8.4789    9.6864 C   0  0  0  0  0  0  0  0  0  0  0  0
   27.8947    7.2454    9.6978 C   0  0  0  0  0  0  0  0  0  0  0  0
   28.4505    6.1047    9.1200 C   0  0  0  0  0  0  0  0  0  0  0  0
   29.7025    6.1883    8.5046 C   0  0  0  0  0  0  0  0  0  0  0  0
   30.3870    7.4080    8.4923 C   0  0  0  0  0  0  0  0  0  0  0  0
   29.8360    8.5491    9.0806 C   0  0  0  0  0  0  0  0  0  0  0  0
 12 11  2  0  0  0
 33 32  2  0  0  0
 33 34  1  0  0  0
 32 31  1  0  0  0
 34 29  2  0  0  0
 31 30  2  0  0  0
 10 11  2  0  0  0
 29 30  1  0  0  0
 29 28  1  0  0  0
  7  6  1  0  0  0
 30 25  1  0  0  0
 28 27  1  0  0  0
 11 13  1  0  0  0
 11  1  1  0  0  0
 25 26  1  0  0  0
 25 23  1  0  0  0
 26 27  1  0  0  0
  6  1  2  0  0  0
  6  5  1  0  0  0
  1  2  1  0  0  0
 23  5  1  0  0  0
  5  3  2  0  0  0
  2  9  1  0  0  0
  2  4  2  0  0  0
  3  4  1  0  0  0
  3 16  1  0  0  0
  4  8  1  0  0  0
 17 16  2  0  0  0
 18 16  2  0  0  0
 16 19  1  0  0  0
 21 20  1  0  0  0
 20 19  1  0  0  0
 13 14  1  0  0  0
 13 15  1  0  0  0
 21 22  1  0  0  0
 23 24  1  0  0  0
M  END
> <minimizedAffinity>
-9.09093

$$$$
5LLP_6Z9_A_302


 34 36  0  0  0  0  0  0  0  0999 V2000
   24.2017    4.5725   12.0537 C   0  0  0  0  0  0  0  0  0  0  0  0
   24.2460    4.4801   13.4376 C   0  0  0  0  0  0  0  0  0  0  0  0
   25.9569    6.2227   13.6105 C   0  0  0  0  0  0  0  0  0  0  0  0
   25.0874    5.2788   14.2058 C   0  0  0  0  0  0  0  0  0  0  0  0
   25.9646    6.2707   12.2270 C   0  0  0  0  0  0  0  0  0  0  0  0
   25.0862    5.4780   11.4976 C   0  0  0  0  0  0  0  0  0  0  0  0
   25.1371    5.5238   10.1660 F   0  0  0  0  0  0  0  0  0  0  0  0
   25.1006    5.1716   15.5681 F   0  0  0  0  0  0  0  0  0  0  0  0
   23.4438    3.6464   14.1321 F   0  0  0  0  0  0  0  0  0  0  0  0
   22.3551    4.4444   10.1291 O   0  0  0  0  0  0  0  0  0  0  0  0
   23.1437    3.5673   10.9933 S   0  0  0  0  0  0  0  0  0  0  0  0
   22.2777    2.6927   11.8298 O   0  0  0  0  0  0  0  0  0  0  0  0
   24.0941    2.5770   10.0980 N   0  0  0  0  0  0  0  0  0  0  0  0
   23.5095    2.0012    9.4922 H   0  0  0  0  0  0  0  0  0  0  0  0
   24.6375    1.9759   10.7175 H   0  0  0  0  0  0  0  0  0  0  0  0
   26.9577    7.2256   14.7384 S   0  0  0  0  0  0  0  0  0  0  0  0
   27.2241    6.6308   16.1508 O   0  0  0  0  0  0  0  0  0  0  0  0
   28.4658    7.1961   14.3307 O   0  0  0  0  0  0  0  0  0  0  0  0
   26.3620    8.8911   14.9552 C   0  0  0  0  0  0  0  0  0  0  0  0
   24.8583    8.8012   15.1304 C   0  0  0  0  0  0  0  0  0  0  0  0
   24.5543    8.1651   16.3061 O   0  0  0  0  0  0  0  0  0  0  0  0
   24.9258    8.6651   17.0497 H   0  0  0  0  0  0  0  0  0  0  0  0
   26.7663    7.2035   11.5189 N   0  0  0  0  0  0  0  0  0  0  0  0
   26.3741    8.0609   11.2355 H   0  0  0  0  0  0  0  0  0  0  0  0
   28.1789    6.9111   11.1995 C   0  0  0  0  0  0  0  0  0  0  0  0
   28.4002    5.7227   10.2434 C   0  0  0  0  0  0  0  0  0  0  0  0
   28.4392    6.1745    8.7932 C   0  0  0  0  0  0  0  0  0  0  0  0
   29.5701    7.1927    8.6084 C   0  0  0  0  0  0  0  0  0  0  0  0
   29.4250    8.3603    9.5447 C   0  0  0  0  0  0  0  0  0  0  0  0
   28.7845    8.2152   10.7923 C   0  0  0  0  0  0  0  0  0  0  0  0
   28.6544    9.2913   11.6692 C   0  0  0  0  0  0  0  0  0  0  0  0
   29.1817   10.5352   11.3113 C   0  0  0  0  0  0  0  0  0  0  0  0
   29.8156   10.6875   10.0739 C   0  0  0  0  0  0  0  0  0  0  0  0
   29.9368    9.6126    9.1896 C   0  0  0  0  0  0  0  0  0  0  0  0
 12 11  2  0  0  0
 33 32  2  0  0  0
 33 34  1  0  0  0
 32 31  1  0  0  0
 34 29  2  0  0  0
 31 30  2  0  0  0
 10 11  2  0  0  0
 29 30  1  0  0  0
 29 28  1  0  0  0
  7  6  1  0  0  0
 30 25  1  0  0  0
 28 27  1  0  0  0
 11 13  1  0  0  0
 11  1  1  0  0  0
 25 26  1  0  0  0
 25 23  1  0  0  0
 26 27  1  0  0  0
  6  1  2  0  0  0
  6  5  1  0  0  0
  1  2  1  0  0  0
 23  5  1  0  0  0
  5  3  2  0  0  0
  2  9  1  0  0  0
  2  4  2  0  0  0
  3  4  1  0  0  0
  3 16  1  0  0  0
  4  8  1  0  0  0
 17 16  2  0  0  0
 18 16  2  0  0  0
 16 19  1  0  0  0
 21 20  1  0  0  0
 20 19  1  0  0  0
 13 14  1  0  0  0
 13 15  1  0  0  0
 21 22  1  0  0  0
 23 24  1  0  0  0
M  END
> <minimizedAffinity>
-8.41374

$$$$
5LLP_6Z9_A_302


 34 36  0  0  0  0  0  0  0  0999 V2000
   24.2479   11.1494   13.6401 C   0  0  0  0  0  0  0  0  0  0  0  0
   23.9108   10.3970   14.7563 C   0  0  0  0  0  0  0  0  0  0  0  0
   25.1066    8.4278   13.9282 C   0  0  0  0  0  0  0  0  0  0  0  0
   24.3258    9.0782   14.9125 C   0  0  0  0  0  0  0  0  0  0  0  0
   25.3884    9.1527   12.7830 C   0  0  0  0  0  0  0  0  0  0  0  0
   24.9817   10.4778   12.6797 C   0  0  0  0  0  0  0  0  0  0  0  0
   25.2415   11.1415   11.5528 F   0  0  0  0  0  0  0  0  0  0  0  0
   23.9860    8.3665   16.0284 F   0  0  0  0  0  0  0  0  0  0  0  0
   23.2007   10.9075   15.7840 F   0  0  0  0  0  0  0  0  0  0  0  0
   24.9307   13.6923   13.1952 O   0  0  0  0  0  0  0  0  0  0  0  0
   23.7414   12.8589   13.3657 S   0  0  0  0  0  0  0  0  0  0  0  0
   22.9003   13.3234   14.5022 O   0  0  0  0  0  0  0  0  0  0  0  0
   22.8004   12.9144   12.0254 N   0  0  0  0  0  0  0  0  0  0  0  0
   22.5054   13.8761   11.8566 H   0  0  0  0  0  0  0  0  0  0  0  0
   21.9787   12.3258   12.1622 H   0  0  0  0  0  0  0  0  0  0  0  0
   25.6139    6.7275   14.2906 S   0  0  0  0  0  0  0  0  0  0  0  0
   26.5548    6.0451   13.2569 O   0  0  0  0  0  0  0  0  0  0  0  0
   26.6768    6.6887   15.4353 O   0  0  0  0  0  0  0  0  0  0  0  0
   24.2582    5.6148   14.6068 C   0  0  0  0  0  0  0  0  0  0  0  0
   24.7522    4.5946   15.6143 C   0  0  0  0  0  0  0  0  0  0  0  0
   25.9617    4.0842   15.2193 O   0  0  0  0  0  0  0  0  0  0  0  0
   26.6111    4.8021   15.1580 H   0  0  0  0  0  0  0  0  0  0  0  0
   26.1952    8.6196   11.7442 N   0  0  0  0  0  0  0  0  0  0  0  0
   25.8221    7.9315   11.1471 H   0  0  0  0  0  0  0  0  0  0  0  0
   27.5850    9.0788   11.5427 C   0  0  0  0  0  0  0  0  0  0  0  0
   28.3941    9.2999   12.8357 C   0  0  0  0  0  0  0  0  0  0  0  0
   29.1460    8.0442   13.2438 C   0  0  0  0  0  0  0  0  0  0  0  0
   30.0964    7.6313   12.1140 C   0  0  0  0  0  0  0  0  0  0  0  0
   29.3640    7.4365   10.8152 C   0  0  0  0  0  0  0  0  0  0  0  0
   28.1805    8.1497   10.5350 C   0  0  0  0  0  0  0  0  0  0  0  0
   27.5013    7.9807    9.3292 C   0  0  0  0  0  0  0  0  0  0  0  0
   28.0108    7.0979    8.3730 C   0  0  0  0  0  0  0  0  0  0  0  0
   29.1826    6.3846    8.6453 C   0  0  0  0  0  0  0  0  0  0  0  0
   29.8582    6.5447    9.8577 C   0  0  0  0  0  0  0  0  0  0  0  0
 12 11  2  0  0  0
 33 32  2  0  0  0
 33 34  1  0  0  0
 32 31  1  0  0  0
 34 29  2  0  0  0
 31 30  2  0  0  0
 10 11  2  0  0  0
 29 30  1  0  0  0
 29 28  1  0  0  0
  7  6  1  0  0  0
 30 25  1  0  0  0
 28 27  1  0  0  0
 11 13  1  0  0  0
 11  1  1  0  0  0
 25 26  1  0  0  0
 25 23  1  0  0  0
 26 27  1  0  0  0
  6  1  2  0  0  0
  6  5  1  0  0  0
  1  2  1  0  0  0
 23  5  1  0  0  0
  5  3  2  0  0  0
  2  9  1  0  0  0
  2  4  2  0  0  0
  3  4  1  0  0  0
  3 16  1  0  0  0
  4  8  1  0  0  0
 17 16  2  0  0  0
 18 16  2  0  0  0
 16 19  1  0  0  0
 21 20  1  0  0  0
 20 19  1  0  0  0
 13 14  1  0  0  0
 13 15  1  0  0  0
 21 22  1  0  0  0
 23 24  1  0  0  0
M  END
> <minimizedAffinity>
-7.90335

$$$$
5LLP_6Z9_A_302


 34 36  0  0  0  0  0  0  0  0999 V2000
   24.4079    6.8716   13.8812 C   0  0  0  0  0  0  0  0  0  0  0  0
   23.8915    7.7824   14.7919 C   0  0  0  0  0  0  0  0  0  0  0  0
   24.7979    9.6953   13.5619 C   0  0  0  0  0  0  0  0  0  0  0  0
   24.0671    9.1550   14.6460 C   0  0  0  0  0  0  0  0  0  0  0  0
   25.3716    8.7875   12.6884 C   0  0  0  0  0  0  0  0  0  0  0  0
   25.1462    7.4257   12.8518 C   0  0  0  0  0  0  0  0  0  0  0  0
   25.7360    6.5736   12.0127 F   0  0  0  0  0  0  0  0  0  0  0  0
   23.5371   10.0274   15.5545 F   0  0  0  0  0  0  0  0  0  0  0  0
   23.1457    7.4021   15.8502 F   0  0  0  0  0  0  0  0  0  0  0  0
   23.7396    4.5547   12.7342 O   0  0  0  0  0  0  0  0  0  0  0  0
   24.2271    5.0812   14.0083 S   0  0  0  0  0  0  0  0  0  0  0  0
   23.3097    4.7463   15.1312 O   0  0  0  0  0  0  0  0  0  0  0  0
   25.6867    4.4355   14.3794 N   0  0  0  0  0  0  0  0  0  0  0  0
   25.6008    3.4219   14.4549 H   0  0  0  0  0  0  0  0  0  0  0  0
   26.0109    4.8164   15.2683 H   0  0  0  0  0  0  0  0  0  0  0  0
   24.9018   11.5013   13.4756 S   0  0  0  0  0  0  0  0  0  0  0  0
   25.6735   12.2112   14.6246 O   0  0  0  0  0  0  0  0  0  0  0  0
   25.9164   11.9552   12.3774 O   0  0  0  0  0  0  0  0  0  0  0  0
   23.3256   12.3137   13.2984 C   0  0  0  0  0  0  0  0  0  0  0  0
   23.3338   13.5006   14.2424 C   0  0  0  0  0  0  0  0  0  0  0  0
   22.8258   13.1397   15.4635 O   0  0  0  0  0  0  0  0  0  0  0  0
   23.3711   12.4339   15.8448 H   0  0  0  0  0  0  0  0  0  0  0  0
   26.0945    9.2112   11.5429 N   0  0  0  0  0  0  0  0  0  0  0  0
   25.6039    9.4588   10.7260 H   0  0  0  0  0  0  0  0  0  0  0  0
   27.5700    9.2875   11.5543 C   0  0  0  0  0  0  0  0  0  0  0  0
   28.2127    9.3039   12.9551 C   0  0  0  0  0  0  0  0  0  0  0  0
   28.5433    7.8998   13.4324 C   0  0  0  0  0  0  0  0  0  0  0  0
   29.5062    7.2390   12.4393 C   0  0  0  0  0  0  0  0  0  0  0  0
   28.9444    7.2279   11.0445 C   0  0  0  0  0  0  0  0  0  0  0  0
   28.0417    8.2231   10.6174 C   0  0  0  0  0  0  0  0  0  0  0  0
   27.5239    8.2241    9.3229 C   0  0  0  0  0  0  0  0  0  0  0  0
   27.9182    7.2275    8.4259 C   0  0  0  0  0  0  0  0  0  0  0  0
   28.8109    6.2350    8.8434 C   0  0  0  0  0  0  0  0  0  0  0  0
   29.3219    6.2266   10.1438 C   0  0  0  0  0  0  0  0  0  0  0  0
 12 11  2  0  0  0
 33 32  2  0  0  0
 33 34  1  0  0  0
 32 31  1  0  0  0
 34 29  2  0  0  0
 31 30  2  0  0  0
 10 11  2  0  0  0
 29 30  1  0  0  0
 29 28  1  0  0  0
  7  6  1  0  0  0
 30 25  1  0  0  0
 28 27  1  0  0  0
 11 13  1  0  0  0
 11  1  1  0  0  0
 25 26  1  0  0  0
 25 23  1  0  0  0
 26 27  1  0  0  0
  6  1  2  0  0  0
  6  5  1  0  0  0
  1  2  1  0  0  0
 23  5  1  0  0  0
  5  3  2  0  0  0
  2  9  1  0  0  0
  2  4  2  0  0  0
  3  4  1  0  0  0
  3 16  1  0  0  0
  4  8  1  0  0  0
 17 16  2  0  0  0
 18 16  2  0  0  0
 16 19  1  0  0  0
 21 20  1  0  0  0
 20 19  1  0  0  0
 13 14  1  0  0  0
 13 15  1  0  0  0
 21 22  1  0  0  0
 23 24  1  0  0  0
M  END
> <minimizedAffinity>
-7.78729

$$$$
5LLP_6Z9_A_302


 34 36  0  0  0  0  0  0  0  0999 V2000
   24.7395    5.2368   14.4830 C   0  0  0  0  0  0  0  0  0  0  0  0
   23.6527    4.4078   14.2438 C   0  0  0  0  0  0  0  0  0  0  0  0
   24.2203    4.1611   11.8751 C   0  0  0  0  0  0  0  0  0  0  0  0
   23.3925    3.8735   12.9857 C   0  0  0  0  0  0  0  0  0  0  0  0
   25.2663    5.0411   12.0942 C   0  0  0  0  0  0  0  0  0  0  0  0
   25.5106    5.5281   13.3729 C   0  0  0  0  0  0  0  0  0  0  0  0
   26.5066    6.3971   13.5479 F   0  0  0  0  0  0  0  0  0  0  0  0
   22.3196    3.0515   12.7841 F   0  0  0  0  0  0  0  0  0  0  0  0
   22.8056    4.0265   15.2226 F   0  0  0  0  0  0  0  0  0  0  0  0
   25.0653    7.4275   15.9747 O   0  0  0  0  0  0  0  0  0  0  0  0
   25.1355    5.9709   16.0825 S   0  0  0  0  0  0  0  0  0  0  0  0
   26.4804    5.5144   16.5269 O   0  0  0  0  0  0  0  0  0  0  0  0
   24.0586    5.4212   17.1886 N   0  0  0  0  0  0  0  0  0  0  0  0
   24.2696    5.8280   18.0999 H   0  0  0  0  0  0  0  0  0  0  0  0
   24.1204    4.4048   17.2474 H   0  0  0  0  0  0  0  0  0  0  0  0
   23.7869    3.3556   10.3121 S   0  0  0  0  0  0  0  0  0  0  0  0
   22.8391    2.1254   10.4008 O   0  0  0  0  0  0  0  0  0  0  0  0
   22.7628    4.2134    9.5015 O   0  0  0  0  0  0  0  0  0  0  0  0
   25.1914    2.8874    9.3202 C   0  0  0  0  0  0  0  0  0  0  0  0
   24.7150    1.8122    8.3628 C   0  0  0  0  0  0  0  0  0  0  0  0
   23.7866    2.3264    7.4950 O   0  0  0  0  0  0  0  0  0  0  0  0
   24.1870    3.0458    6.9822 H   0  0  0  0  0  0  0  0  0  0  0  0
   26.1863    5.3747   11.0663 N   0  0  0  0  0  0  0  0  0  0  0  0
   27.0126    4.8487   10.9678 H   0  0  0  0  0  0  0  0  0  0  0  0
   25.9262    6.4972   10.1415 C   0  0  0  0  0  0  0  0  0  0  0  0
   25.0358    7.6195   10.7100 C   0  0  0  0  0  0  0  0  0  0  0  0
   25.8649    8.7045   11.3763 C   0  0  0  0  0  0  0  0  0  0  0  0
   26.8404    9.2986   10.3537 C   0  0  0  0  0  0  0  0  0  0  0  0
   27.7126    8.2398    9.7378 C   0  0  0  0  0  0  0  0  0  0  0  0
   27.2620    6.9098    9.6134 C   0  0  0  0  0  0  0  0  0  0  0  0
   28.0618    5.9250    9.0352 C   0  0  0  0  0  0  0  0  0  0  0  0
   29.3298    6.2655    8.5561 C   0  0  0  0  0  0  0  0  0  0  0  0
   29.7850    7.5823    8.6789 C   0  0  0  0  0  0  0  0  0  0  0  0
   28.9887    8.5675    9.2682 C   0  0  0  0  0  0  0  0  0  0  0  0
 12 11  2  0  0  0
 33 32  2  0  0  0
 33 34  1  0  0  0
 32 31  1  0  0  0
 34 29  2  0  0  0
 31 30  2  0  0  0
 10 11  2  0  0  0
 29 30  1  0  0  0
 29 28  1  0  0  0
  7  6  1  0  0  0
 30 25  1  0  0  0
 28 27  1  0  0  0
 11 13  1  0  0  0
 11  1  1  0  0  0
 25 26  1  0  0  0
 25 23  1  0  0  0
 26 27  1  0  0  0
  6  1  2  0  0  0
  6  5  1  0  0  0
  1  2  1  0  0  0
 23  5  1  0  0  0
  5  3  2  0  0  0
  2  9  1  0  0  0
  2  4  2  0  0  0
  3  4  1  0  0  0
  3 16  1  0  0  0
  4  8  1  0  0  0
 17 16  2  0  0  0
 18 16  2  0  0  0
 16 19  1  0  0  0
 21 20  1  0  0  0
 20 19  1  0  0  0
 13 14  1  0  0  0
 13 15  1  0  0  0
 21 22  1  0  0  0
 23 24  1  0  0  0
M  END
> <minimizedAffinity>
-7.60636

$$$$
5LLP_6Z9_A_302


 34 36  0  0  0  0  0  0  0  0999 V2000
   25.3436   10.1650   14.2530 C   0  0  0  0  0  0  0  0  0  0  0  0
   24.3383    9.5014   14.9419 C   0  0  0  0  0  0  0  0  0  0  0  0
   25.0266    7.3202   14.0689 C   0  0  0  0  0  0  0  0  0  0  0  0
   24.1769    8.1213   14.8673 C   0  0  0  0  0  0  0  0  0  0  0  0
   25.9880    7.9855   13.3276 C   0  0  0  0  0  0  0  0  0  0  0  0
   26.1365    9.3616   13.4545 C   0  0  0  0  0  0  0  0  0  0  0  0
   27.0510    9.9789   12.7058 F   0  0  0  0  0  0  0  0  0  0  0  0
   23.1833    7.4955   15.5661 F   0  0  0  0  0  0  0  0  0  0  0  0
   23.4827   10.1419   15.7657 F   0  0  0  0  0  0  0  0  0  0  0  0
   26.9951   12.2204   14.6749 O   0  0  0  0  0  0  0  0  0  0  0  0
   25.6093   11.9488   14.2956 S   0  0  0  0  0  0  0  0  0  0  0  0
   24.6454   12.5791   15.2381 O   0  0  0  0  0  0  0  0  0  0  0  0
   25.2872   12.5588   12.8092 N   0  0  0  0  0  0  0  0  0  0  0  0
   25.4331   13.5683   12.8171 H   0  0  0  0  0  0  0  0  0  0  0  0
   24.3185   12.3572   12.5616 H   0  0  0  0  0  0  0  0  0  0  0  0
   24.7278    5.5344   14.1084 S   0  0  0  0  0  0  0  0  0  0  0  0
   23.6112    4.9932   13.1704 O   0  0  0  0  0  0  0  0  0  0  0  0
   25.8647    4.7568   13.3706 O   0  0  0  0  0  0  0  0  0  0  0  0
   24.4289    4.8820   15.7395 C   0  0  0  0  0  0  0  0  0  0  0  0
   25.7325    4.2695   16.2141 C   0  0  0  0  0  0  0  0  0  0  0  0
   26.7566    5.1715   16.0826 O   0  0  0  0  0  0  0  0  0  0  0  0
   26.5668    5.9566   16.6197 H   0  0  0  0  0  0  0  0  0  0  0  0
   26.9222    7.2854   12.5206 N   0  0  0  0  0  0  0  0  0  0  0  0
   27.7772    6.9945   12.9125 H   0  0  0  0  0  0  0  0  0  0  0  0
   26.6347    6.9852   11.1027 C   0  0  0  0  0  0  0  0  0  0  0  0
   25.6125    7.9227   10.4306 C   0  0  0  0  0  0  0  0  0  0  0  0
   26.2951    9.1080    9.7689 C   0  0  0  0  0  0  0  0  0  0  0  0
   27.2876    8.6004    8.7166 C   0  0  0  0  0  0  0  0  0  0  0  0
   28.2898    7.6498    9.3111 C   0  0  0  0  0  0  0  0  0  0  0  0
   27.9650    6.8607   10.4333 C   0  0  0  0  0  0  0  0  0  0  0  0
   28.8861    5.9707   10.9840 C   0  0  0  0  0  0  0  0  0  0  0  0
   30.1517    5.8474   10.4040 C   0  0  0  0  0  0  0  0  0  0  0  0
   30.4822    6.6295    9.2925 C   0  0  0  0  0  0  0  0  0  0  0  0
   29.5638    7.5297    8.7465 C   0  0  0  0  0  0  0  0  0  0  0  0
 12 11  2  0  0  0
 33 32  2  0  0  0
 33 34  1  0  0  0
 32 31  1  0  0  0
 34 29  2  0  0  0
 31 30  2  0  0  0
 10 11  2  0  0  0
 29 30  1  0  0  0
 29 28  1  0  0  0
  7  6  1  0  0  0
 30 25  1  0  0  0
 28 27  1  0  0  0
 11 13  1  0  0  0
 11  1  1  0  0  0
 25 26  1  0  0  0
 25 23  1  0  0  0
 26 27  1  0  0  0
  6  1  2  0  0  0
  6  5  1  0  0  0
  1  2  1  0  0  0
 23  5  1  0  0  0
  5  3  2  0  0  0
  2  9  1  0  0  0
  2  4  2  0  0  0
  3  4  1  0  0  0
  3 16  1  0  0  0
  4  8  1  0  0  0
 17 16  2  0  0  0
 18 16  2  0  0  0
 16 19  1  0  0  0
 21 20  1  0  0  0
 20 19  1  0  0  0
 13 14  1  0  0  0
 13 15  1  0  0  0
 21 22  1  0  0  0
 23 24  1  0  0  0
M  END
> <minimizedAffinity>
-7.45355

$$$$
5LLP_6Z9_A_302


 34 36  0  0  0  0  0  0  0  0999 V2000
   24.2954    6.2864   14.6240 C   0  0  0  0  0  0  0  0  0  0  0  0
   23.7922    7.4248   15.2376 C   0  0  0  0  0  0  0  0  0  0  0  0
   25.2724    8.9012   13.9638 C   0  0  0  0  0  0  0  0  0  0  0  0
   24.2518    8.6997   14.9224 C   0  0  0  0  0  0  0  0  0  0  0  0
   25.8239    7.7643   13.3985 C   0  0  0  0  0  0  0  0  0  0  0  0
   25.3150    6.5108   13.7173 C   0  0  0  0  0  0  0  0  0  0  0  0
   25.8858    5.4321   13.1801 F   0  0  0  0  0  0  0  0  0  0  0  0
   23.7286    9.8025   15.5369 F   0  0  0  0  0  0  0  0  0  0  0  0
   22.7928    7.3756   16.1430 F   0  0  0  0  0  0  0  0  0  0  0  0
   24.7854    3.9247   15.7696 O   0  0  0  0  0  0  0  0  0  0  0  0
   23.7548    4.6038   14.9854 S   0  0  0  0  0  0  0  0  0  0  0  0
   23.4641    3.8846   13.7154 O   0  0  0  0  0  0  0  0  0  0  0  0
   22.3476    4.6774   15.8218 N   0  0  0  0  0  0  0  0  0  0  0  0
   22.0284    3.7321   16.0341 H   0  0  0  0  0  0  0  0  0  0  0  0
   21.6431    5.1561   15.2606 H   0  0  0  0  0  0  0  0  0  0  0  0
   25.7339   10.6187   13.6214 S   0  0  0  0  0  0  0  0  0  0  0  0
   26.0406   11.5173   14.8535 O   0  0  0  0  0  0  0  0  0  0  0  0
   27.1912   10.7100   13.0650 O   0  0  0  0  0  0  0  0  0  0  0  0
   24.5739   11.4924   12.5886 C   0  0  0  0  0  0  0  0  0  0  0  0
   23.5889   12.1779   13.5157 C   0  0  0  0  0  0  0  0  0  0  0  0
   22.3700   12.3075   12.9017 O   0  0  0  0  0  0  0  0  0  0  0  0
   22.0266   11.4288   12.6761 H   0  0  0  0  0  0  0  0  0  0  0  0
   26.8268    7.8421   12.3973 N   0  0  0  0  0  0  0  0  0  0  0  0
   27.7474    8.0797   12.6527 H   0  0  0  0  0  0  0  0  0  0  0  0
   26.5141    7.5729   10.9786 C   0  0  0  0  0  0  0  0  0  0  0  0
   25.7168    8.6812   10.2635 C   0  0  0  0  0  0  0  0  0  0  0  0
   26.6386    9.6886    9.5970 C   0  0  0  0  0  0  0  0  0  0  0  0
   27.5296    8.9666    8.5797 C   0  0  0  0  0  0  0  0  0  0  0  0
   28.3063    7.8477    9.2169 C   0  0  0  0  0  0  0  0  0  0  0  0
   27.8053    7.1668   10.3452 C   0  0  0  0  0  0  0  0  0  0  0  0
   28.5158    6.1225   10.9355 C   0  0  0  0  0  0  0  0  0  0  0  0
   29.7420    5.7328   10.3899 C   0  0  0  0  0  0  0  0  0  0  0  0
   30.2469    6.4058    9.2726 C   0  0  0  0  0  0  0  0  0  0  0  0
   29.5411    7.4597    8.6868 C   0  0  0  0  0  0  0  0  0  0  0  0
 12 11  2  0  0  0
 33 32  2  0  0  0
 33 34  1  0  0  0
 32 31  1  0  0  0
 34 29  2  0  0  0
 31 30  2  0  0  0
 10 11  2  0  0  0
 29 30  1  0  0  0
 29 28  1  0  0  0
  7  6  1  0  0  0
 30 25  1  0  0  0
 28 27  1  0  0  0
 11 13  1  0  0  0
 11  1  1  0  0  0
 25 26  1  0  0  0
 25 23  1  0  0  0
 26 27  1  0  0  0
  6  1  2  0  0  0
  6  5  1  0  0  0
  1  2  1  0  0  0
 23  5  1  0  0  0
  5  3  2  0  0  0
  2  9  1  0  0  0
  2  4  2  0  0  0
  3  4  1  0  0  0
  3 16  1  0  0  0
  4  8  1  0  0  0
 17 16  2  0  0  0
 18 16  2  0  0  0
 16 19  1  0  0  0
 21 20  1  0  0  0
 20 19  1  0  0  0
 13 14  1  0  0  0
 13 15  1  0  0  0
 21 22  1  0  0  0
 23 24  1  0  0  0
M  END
> <minimizedAffinity>
-7.41315

$$$$
5LLP_6Z9_A_302


 34 36  0  0  0  0  0  0  0  0999 V2000
   24.8833    4.5185   11.3582 C   0  0  0  0  0  0  0  0  0  0  0  0
   25.9765    4.4677   10.5049 C   0  0  0  0  0  0  0  0  0  0  0  0
   27.1093    6.3010   11.6665 C   0  0  0  0  0  0  0  0  0  0  0  0
   27.0660    5.3214   10.6467 C   0  0  0  0  0  0  0  0  0  0  0  0
   25.9919    6.3999   12.4777 C   0  0  0  0  0  0  0  0  0  0  0  0
   24.9376    5.5074   12.3229 C   0  0  0  0  0  0  0  0  0  0  0  0
   23.8621    5.6458   13.0988 F   0  0  0  0  0  0  0  0  0  0  0  0
   28.1327    5.2398    9.7965 F   0  0  0  0  0  0  0  0  0  0  0  0
   26.0775    3.5578    9.5136 F   0  0  0  0  0  0  0  0  0  0  0  0
   22.9286    3.1649   12.5735 O   0  0  0  0  0  0  0  0  0  0  0  0
   23.4347    3.4509   11.2318 S   0  0  0  0  0  0  0  0  0  0  0  0
   23.7895    2.2054   10.4986 O   0  0  0  0  0  0  0  0  0  0  0  0
   22.2974    4.2201   10.3374 N   0  0  0  0  0  0  0  0  0  0  0  0
   21.4706    3.6282   10.2567 H   0  0  0  0  0  0  0  0  0  0  0  0
   22.6694    4.4132    9.4075 H   0  0  0  0  0  0  0  0  0  0  0  0
   28.6122    7.3073   11.7592 S   0  0  0  0  0  0  0  0  0  0  0  0
   28.7911    8.1775   13.0360 O   0  0  0  0  0  0  0  0  0  0  0  0
   29.8640    6.4231   12.0636 O   0  0  0  0  0  0  0  0  0  0  0  0
   28.8720    8.3600   10.3450 C   0  0  0  0  0  0  0  0  0  0  0  0
   30.1919    7.9449    9.7242 C   0  0  0  0  0  0  0  0  0  0  0  0
   31.2373    8.5018   10.4144 O   0  0  0  0  0  0  0  0  0  0  0  0
   31.2159    8.1970   11.3350 H   0  0  0  0  0  0  0  0  0  0  0  0
   25.9353    7.3182   13.5583 N   0  0  0  0  0  0  0  0  0  0  0  0
   26.7092    7.4042   14.1606 H   0  0  0  0  0  0  0  0  0  0  0  0
   24.7358    8.1476   13.7954 C   0  0  0  0  0  0  0  0  0  0  0  0
   24.1946    8.1165   15.2382 C   0  0  0  0  0  0  0  0  0  0  0  0
   24.8038    9.2209   16.0854 C   0  0  0  0  0  0  0  0  0  0  0  0
   24.4860   10.5806   15.4528 C   0  0  0  0  0  0  0  0  0  0  0  0
   24.9606   10.6549   14.0278 C   0  0  0  0  0  0  0  0  0  0  0  0
   25.0523    9.4950   13.2317 C   0  0  0  0  0  0  0  0  0  0  0  0
   25.4829    9.5577   11.9071 C   0  0  0  0  0  0  0  0  0  0  0  0
   25.8166   10.7964   11.3525 C   0  0  0  0  0  0  0  0  0  0  0  0
   25.7312   11.9510   12.1372 C   0  0  0  0  0  0  0  0  0  0  0  0
   25.3104   11.8880   13.4680 C   0  0  0  0  0  0  0  0  0  0  0  0
 12 11  2  0  0  0
 33 32  2  0  0  0
 33 34  1  0  0  0
 32 31  1  0  0  0
 34 29  2  0  0  0
 31 30  2  0  0  0
 10 11  2  0  0  0
 29 30  1  0  0  0
 29 28  1  0  0  0
  7  6  1  0  0  0
 30 25  1  0  0  0
 28 27  1  0  0  0
 11 13  1  0  0  0
 11  1  1  0  0  0
 25 26  1  0  0  0
 25 23  1  0  0  0
 26 27  1  0  0  0
  6  1  2  0  0  0
  6  5  1  0  0  0
  1  2  1  0  0  0
 23  5  1  0  0  0
  5  3  2  0  0  0
  2  9  1  0  0  0
  2  4  2  0  0  0
  3  4  1  0  0  0
  3 16  1  0  0  0
  4  8  1  0  0  0
 17 16  2  0  0  0
 18 16  2  0  0  0
 16 19  1  0  0  0
 21 20  1  0  0  0
 20 19  1  0  0  0
 13 14  1  0  0  0
 13 15  1  0  0  0
 21 22  1  0  0  0
 23 24  1  0  0  0
M  END
> <minimizedAffinity>
-7.38249

$$$$
5LLP_6Z9_A_302


 34 36  0  0  0  0  0  0  0  0999 V2000
   26.9940    9.0697   10.0443 C   0  0  0  0  0  0  0  0  0  0  0  0
   27.3385    7.7893    9.6352 C   0  0  0  0  0  0  0  0  0  0  0  0
   25.7975    6.7460   11.2259 C   0  0  0  0  0  0  0  0  0  0  0  0
   26.7615    6.6535   10.1947 C   0  0  0  0  0  0  0  0  0  0  0  0
   25.5005    8.0184   11.6833 C   0  0  0  0  0  0  0  0  0  0  0  0
   26.0758    9.1287   11.0764 C   0  0  0  0  0  0  0  0  0  0  0  0
   25.7938   10.3397   11.5577 F   0  0  0  0  0  0  0  0  0  0  0  0
   27.1143    5.4059    9.7630 F   0  0  0  0  0  0  0  0  0  0  0  0
   28.2179    7.5618    8.6373 F   0  0  0  0  0  0  0  0  0  0  0  0
   29.0675   10.3191    8.9175 O   0  0  0  0  0  0  0  0  0  0  0  0
   27.7034   10.5858    9.3716 S   0  0  0  0  0  0  0  0  0  0  0  0
   27.6643   11.6599   10.4008 O   0  0  0  0  0  0  0  0  0  0  0  0
   26.7677   11.0897    8.1243 N   0  0  0  0  0  0  0  0  0  0  0  0
   27.1565   11.9475    7.7325 H   0  0  0  0  0  0  0  0  0  0  0  0
   25.8210   11.2676    8.4596 H   0  0  0  0  0  0  0  0  0  0  0  0
   25.0980    5.1857   11.8226 S   0  0  0  0  0  0  0  0  0  0  0  0
   25.9415    4.3964   12.8642 O   0  0  0  0  0  0  0  0  0  0  0  0
   23.9211    5.4406   12.8184 O   0  0  0  0  0  0  0  0  0  0  0  0
   24.6368    4.0519   10.5274 C   0  0  0  0  0  0  0  0  0  0  0  0
   23.3119    3.4357   10.9333 C   0  0  0  0  0  0  0  0  0  0  0  0
   22.2715    4.2004   10.4728 O   0  0  0  0  0  0  0  0  0  0  0  0
   22.3096    4.2488    9.5047 H   0  0  0  0  0  0  0  0  0  0  0  0
   24.5215    8.2391   12.6868 N   0  0  0  0  0  0  0  0  0  0  0  0
   23.5740    8.3127   12.4299 H   0  0  0  0  0  0  0  0  0  0  0  0
   24.8987    8.3605   14.1102 C   0  0  0  0  0  0  0  0  0  0  0  0
   26.1897    7.6192   14.5096 C   0  0  0  0  0  0  0  0  0  0  0  0
   27.4093    8.5163   14.3812 C   0  0  0  0  0  0  0  0  0  0  0  0
   27.2318    9.7468   15.2780 C   0  0  0  0  0  0  0  0  0  0  0  0
   25.9652   10.4908   14.9562 C   0  0  0  0  0  0  0  0  0  0  0  0
   24.8446    9.8205   14.4245 C   0  0  0  0  0  0  0  0  0  0  0  0
   23.6641   10.5023   14.1322 C   0  0  0  0  0  0  0  0  0  0  0  0
   23.5845   11.8747   14.3844 C   0  0  0  0  0  0  0  0  0  0  0  0
   24.6932   12.5470   14.9087 C   0  0  0  0  0  0  0  0  0  0  0  0
   25.8804   11.8668   15.1917 C   0  0  0  0  0  0  0  0  0  0  0  0
 12 11  2  0  0  0
 33 32  2  0  0  0
 33 34  1  0  0  0
 32 31  1  0  0  0
 34 29  2  0  0  0
 31 30  2  0  0  0
 10 11  2  0  0  0
 29 30  1  0  0  0
 29 28  1  0  0  0
  7  6  1  0  0  0
 30 25  1  0  0  0
 28 27  1  0  0  0
 11 13  1  0  0  0
 11  1  1  0  0  0
 25 26  1  0  0  0
 25 23  1  0  0  0
 26 27  1  0  0  0
  6  1  2  0  0  0
  6  5  1  0  0  0
  1  2  1  0  0  0
 23  5  1  0  0  0
  5  3  2  0  0  0
  2  9  1  0  0  0
  2  4  2  0  0  0
  3  4  1  0  0  0
  3 16  1  0  0  0
  4  8  1  0  0  0
 17 16  2  0  0  0
 18 16  2  0  0  0
 16 19  1  0  0  0
 21 20  1  0  0  0
 20 19  1  0  0  0
 13 14  1  0  0  0
 13 15  1  0  0  0
 21 22  1  0  0  0
 23 24  1  0  0  0
M  END
> <minimizedAffinity>
-7.36186

$$$$
5LLP_6Z9_A_302


 34 36  0  0  0  0  0  0  0  0999 V2000
   24.7225    9.5539   14.3850 C   0  0  0  0  0  0  0  0  0  0  0  0
   23.8872    8.5889   14.9296 C   0  0  0  0  0  0  0  0  0  0  0  0
   24.9919    6.7809   13.7032 C   0  0  0  0  0  0  0  0  0  0  0  0
   24.0106    7.2396   14.6131 C   0  0  0  0  0  0  0  0  0  0  0  0
   25.7830    7.7476   13.1066 C   0  0  0  0  0  0  0  0  0  0  0  0
   25.6486    9.0815   13.4735 C   0  0  0  0  0  0  0  0  0  0  0  0
   26.4036    9.9937   12.8604 F   0  0  0  0  0  0  0  0  0  0  0  0
   23.1791    6.3116   15.1742 F   0  0  0  0  0  0  0  0  0  0  0  0
   22.9335    8.8873   15.8365 F   0  0  0  0  0  0  0  0  0  0  0  0
   24.4600   12.0556   13.4887 O   0  0  0  0  0  0  0  0  0  0  0  0
   24.6178   11.3191   14.7421 S   0  0  0  0  0  0  0  0  0  0  0  0
   25.8290   11.7544   15.4893 O   0  0  0  0  0  0  0  0  0  0  0  0
   23.3345   11.5757   15.7281 N   0  0  0  0  0  0  0  0  0  0  0  0
   23.2617   12.5709   15.9395 H   0  0  0  0  0  0  0  0  0  0  0  0
   23.4613   11.0524   16.5945 H   0  0  0  0  0  0  0  0  0  0  0  0
   25.0660    4.9927   13.4260 S   0  0  0  0  0  0  0  0  0  0  0  0
   26.2266    4.4735   12.5298 O   0  0  0  0  0  0  0  0  0  0  0  0
   25.5800    4.2464   14.6989 O   0  0  0  0  0  0  0  0  0  0  0  0
   23.5493    4.2876   12.8111 C   0  0  0  0  0  0  0  0  0  0  0  0
   23.7646    3.9968   11.3384 C   0  0  0  0  0  0  0  0  0  0  0  0
   22.6413    4.3191   10.6216 O   0  0  0  0  0  0  0  0  0  0  0  0
   22.4496    5.2640   10.7284 H   0  0  0  0  0  0  0  0  0  0  0  0
   26.8261    7.4051   12.2071 N   0  0  0  0  0  0  0  0  0  0  0  0
   27.7389    7.2757   12.5523 H   0  0  0  0  0  0  0  0  0  0  0  0
   26.5665    7.2390   10.7621 C   0  0  0  0  0  0  0  0  0  0  0  0
   25.6731    8.3241   10.1297 C   0  0  0  0  0  0  0  0  0  0  0  0
   26.4989    9.4758    9.5819 C   0  0  0  0  0  0  0  0  0  0  0  0
   27.4760    8.9438    8.5271 C   0  0  0  0  0  0  0  0  0  0  0  0
   28.3513    7.8535    9.0804 C   0  0  0  0  0  0  0  0  0  0  0  0
   27.9030    7.0242   10.1287 C   0  0  0  0  0  0  0  0  0  0  0  0
   28.7057    6.0056   10.6404 C   0  0  0  0  0  0  0  0  0  0  0  0
   29.9743    5.7924   10.0942 C   0  0  0  0  0  0  0  0  0  0  0  0
   30.4272    6.6132    9.0562 C   0  0  0  0  0  0  0  0  0  0  0  0
   29.6280    7.6414    8.5500 C   0  0  0  0  0  0  0  0  0  0  0  0
 12 11  2  0  0  0
 33 32  2  0  0  0
 33 34  1  0  0  0
 32 31  1  0  0  0
 34 29  2  0  0  0
 31 30  2  0  0  0
 10 11  2  0  0  0
 29 30  1  0  0  0
 29 28  1  0  0  0
  7  6  1  0  0  0
 30 25  1  0  0  0
 28 27  1  0  0  0
 11 13  1  0  0  0
 11  1  1  0  0  0
 25 26  1  0  0  0
 25 23  1  0  0  0
 26 27  1  0  0  0
  6  1  2  0  0  0
  6  5  1  0  0  0
  1  2  1  0  0  0
 23  5  1  0  0  0
  5  3  2  0  0  0
  2  9  1  0  0  0
  2  4  2  0  0  0
  3  4  1  0  0  0
  3 16  1  0  0  0
  4  8  1  0  0  0
 17 16  2  0  0  0
 18 16  2  0  0  0
 16 19  1  0  0  0
 21 20  1  0  0  0
 20 19  1  0  0  0
 13 14  1  0  0  0
 13 15  1  0  0  0
 21 22  1  0  0  0
 23 24  1  0  0  0
M  END
> <minimizedAffinity>
-7.28101

$$$$
