2PQL_TSS_A_145


 15 16  0  0  0  0  0  0  0  0999 V2000
   11.7618  -20.4358    5.8224 C   0  0  0  0  0  0  0  0  0  0  0  0
   10.4011  -20.6923    6.0749 C   0  0  0  0  0  0  0  0  0  0  0  0
    9.6022  -19.7589    5.4686 N   0  0  0  0  0  0  0  0  0  0  0  0
   10.4385  -18.9115    4.8408 C   0  0  0  0  0  0  0  0  0  0  0  0
   11.7168  -19.3022    5.0436 C   0  0  0  0  0  0  0  0  0  0  0  0
   10.0334  -17.8110    4.1199 C   0  0  0  0  0  0  0  0  0  0  0  0
   11.0788  -17.0405    3.6279 C   0  0  0  0  0  0  0  0  0  0  0  0
   12.4044  -17.4846    3.7132 C   0  0  0  0  0  0  0  0  0  0  0  0
   12.7579  -18.5722    4.5011 C   0  0  0  0  0  0  0  0  0  0  0  0
    8.6188  -19.7167    5.4881 H   0  0  0  0  0  0  0  0  0  0  0  0
   12.9721  -21.2290    6.2838 C   0  0  0  0  0  0  0  0  0  0  0  0
   13.7368  -23.5057    6.7313 N   0  0  0  0  0  0  0  0  0  0  0  0
   12.5732  -22.7041    6.3928 C   0  0  0  0  0  0  0  0  0  0  0  0
   13.4651  -24.4862    6.8025 H   0  0  0  0  0  0  0  0  0  0  0  0
   14.1171  -23.1926    7.6245 H   0  0  0  0  0  0  0  0  0  0  0  0
 12 13  1  0  0  0
 13 11  1  0  0  0
 11  1  1  0  0  0
  1  2  2  0  0  0
  1  5  1  0  0  0
  2  3  1  0  0  0
  3  4  1  0  0  0
  4  5  1  0  0  0
  4  6  2  0  0  0
  5  9  2  0  0  0
  6  7  1  0  0  0
  7  8  2  0  0  0
  8  9  1  0  0  0
 12 14  1  0  0  0
 12 15  1  0  0  0
  3 10  1  0  0  0
M  END
> <minimizedAffinity>
-7.99377

$$$$
2PQL_TSS_A_145


 15 16  0  0  0  0  0  0  0  0999 V2000
   11.3597  -18.2697    4.2565 C   0  0  0  0  0  0  0  0  0  0  0  0
    9.9892  -18.1787    4.5640 C   0  0  0  0  0  0  0  0  0  0  0  0
    9.5905  -19.2236    5.3555 N   0  0  0  0  0  0  0  0  0  0  0  0
   10.6883  -19.9782    5.5483 C   0  0  0  0  0  0  0  0  0  0  0  0
   11.7390  -19.4236    4.9032 C   0  0  0  0  0  0  0  0  0  0  0  0
   10.7122  -21.1428    6.2818 C   0  0  0  0  0  0  0  0  0  0  0  0
   11.9405  -21.7905    6.2757 C   0  0  0  0  0  0  0  0  0  0  0  0
   13.0747  -21.1807    5.7248 C   0  0  0  0  0  0  0  0  0  0  0  0
   12.9789  -20.0333    4.9483 C   0  0  0  0  0  0  0  0  0  0  0  0
    8.6871  -19.3886    5.7101 H   0  0  0  0  0  0  0  0  0  0  0  0
   12.2057  -17.3166    3.4304 C   0  0  0  0  0  0  0  0  0  0  0  0
   13.1362  -16.2852    5.4400 N   0  0  0  0  0  0  0  0  0  0  0  0
   13.4792  -16.9910    4.2172 C   0  0  0  0  0  0  0  0  0  0  0  0
   13.9877  -16.0713    5.9593 H   0  0  0  0  0  0  0  0  0  0  0  0
   12.5276  -16.8712    6.0115 H   0  0  0  0  0  0  0  0  0  0  0  0
 12 13  1  0  0  0
 13 11  1  0  0  0
 11  1  1  0  0  0
  1  2  2  0  0  0
  1  5  1  0  0  0
  2  3  1  0  0  0
  3  4  1  0  0  0
  4  5  1  0  0  0
  4  6  2  0  0  0
  5  9  2  0  0  0
  6  7  1  0  0  0
  7  8  2  0  0  0
  8  9  1  0  0  0
 12 14  1  0  0  0
 12 15  1  0  0  0
  3 10  1  0  0  0
M  END
> <minimizedAffinity>
-6.60376

$$$$
2PQL_TSS_A_145


 15 16  0  0  0  0  0  0  0  0999 V2000
   12.2973  -20.7416    5.5978 C   0  0  0  0  0  0  0  0  0  0  0  0
   13.5636  -20.4892    5.0375 C   0  0  0  0  0  0  0  0  0  0  0  0
   13.5437  -19.3603    4.2614 N   0  0  0  0  0  0  0  0  0  0  0  0
   12.2809  -18.8979    4.3177 C   0  0  0  0  0  0  0  0  0  0  0  0
   11.5362  -19.7067    5.1045 C   0  0  0  0  0  0  0  0  0  0  0  0
   11.8329  -17.7779    3.6545 C   0  0  0  0  0  0  0  0  0  0  0  0
   10.4724  -17.5403    3.8001 C   0  0  0  0  0  0  0  0  0  0  0  0
    9.7033  -18.2830    4.7048 C   0  0  0  0  0  0  0  0  0  0  0  0
   10.1950  -19.4361    5.3024 C   0  0  0  0  0  0  0  0  0  0  0  0
   14.2979  -18.9680    3.7648 H   0  0  0  0  0  0  0  0  0  0  0  0
   11.8863  -21.8686    6.5293 C   0  0  0  0  0  0  0  0  0  0  0  0
   13.6990  -22.4195    8.0715 N   0  0  0  0  0  0  0  0  0  0  0  0
   13.1084  -22.7556    6.7874 C   0  0  0  0  0  0  0  0  0  0  0  0
   14.5118  -23.0130    8.2377 H   0  0  0  0  0  0  0  0  0  0  0  0
   13.0124  -22.5685    8.8110 H   0  0  0  0  0  0  0  0  0  0  0  0
 12 13  1  0  0  0
 13 11  1  0  0  0
 11  1  1  0  0  0
  1  2  2  0  0  0
  1  5  1  0  0  0
  2  3  1  0  0  0
  3  4  1  0  0  0
  4  5  1  0  0  0
  4  6  2  0  0  0
  5  9  2  0  0  0
  6  7  1  0  0  0
  7  8  2  0  0  0
  8  9  1  0  0  0
 12 14  1  0  0  0
 12 15  1  0  0  0
  3 10  1  0  0  0
M  END
> <minimizedAffinity>
-6.52394

$$$$
