2PWG_CTS_A_8000


 17 18  0  0  0  0  0  0  0  0999 V2000
   20.4483   36.6658  112.4437 C   0  0  0  0  0  0  0  0  0  0  0  0
   21.3949   36.2168  111.3808 C   0  0  0  0  0  0  0  0  0  0  0  0
   22.7581   35.6510  111.9861 C   0  0  0  0  0  0  0  0  0  0  0  0
   22.8723   35.6551  113.5300 C   0  0  0  0  0  0  0  0  0  0  0  0
   21.5598   35.2834  114.2649 C   0  0  0  0  0  0  0  0  0  0  0  0
   21.4010   35.7838  115.7321 C   0  0  0  0  0  0  0  0  0  0  0  0
   20.7015   35.2562  110.5560 O   0  0  0  0  0  0  0  0  0  0  0  0
   23.8454   36.4827  111.5177 O   0  0  0  0  0  0  0  0  0  0  0  0
   23.8911   34.7416  113.9694 O   0  0  0  0  0  0  0  0  0  0  0  0
   22.6424   36.0379  116.4172 O   0  0  0  0  0  0  0  0  0  0  0  0
   20.3463   35.7599  113.5874 N   0  0  0  0  0  0  0  0  0  0  0  0
   20.5541   37.0559  115.5346 C   0  0  0  0  0  0  0  0  0  0  0  0
   19.5100   36.4233  114.5914 C   0  0  0  0  0  0  0  0  0  0  0  0
   20.4279   34.5009  111.0998 H   0  0  0  0  0  0  0  0  0  0  0  0
   23.7325   37.3841  111.8575 H   0  0  0  0  0  0  0  0  0  0  0  0
   23.6398   33.8364  113.7278 H   0  0  0  0  0  0  0  0  0  0  0  0
   23.1524   36.7015  115.9269 H   0  0  0  0  0  0  0  0  0  0  0  0
  1  2  1  0  0  0
  1 11  1  0  0  0
  2  3  1  0  0  0
  2  7  1  0  0  0
  3  4  1  0  0  0
  3  8  1  0  0  0
  4  5  1  0  0  0
  4  9  1  0  0  0
  5  6  1  0  0  0
  5 11  1  0  0  0
  6 10  1  0  0  0
  6 12  1  0  0  0
 11 13  1  0  0  0
 12 13  1  0  0  0
  7 14  1  0  0  0
  8 15  1  0  0  0
  9 16  1  0  0  0
 10 17  1  0  0  0
M  END
> <minimizedAffinity>
-7.50687

$$$$
2PWG_CTS_A_8000


 17 18  0  0  0  0  0  0  0  0999 V2000
   19.4582   38.1841  113.2425 C   0  0  0  0  0  0  0  0  0  0  0  0
   19.4527   39.5085  113.9306 C   0  0  0  0  0  0  0  0  0  0  0  0
   20.2521   39.4752  115.3107 C   0  0  0  0  0  0  0  0  0  0  0  0
   20.8880   38.1178  115.6978 C   0  0  0  0  0  0  0  0  0  0  0  0
   21.4963   37.3382  114.5050 C   0  0  0  0  0  0  0  0  0  0  0  0
   21.6417   35.7950  114.6650 C   0  0  0  0  0  0  0  0  0  0  0  0
   19.9698   40.4852  113.0019 O   0  0  0  0  0  0  0  0  0  0  0  0
   19.3291   39.7867  116.3804 O   0  0  0  0  0  0  0  0  0  0  0  0
   21.9268   38.3002  116.6741 O   0  0  0  0  0  0  0  0  0  0  0  0
   21.7243   35.3381  116.0287 O   0  0  0  0  0  0  0  0  0  0  0  0
   20.7523   37.5025  113.2488 N   0  0  0  0  0  0  0  0  0  0  0  0
   20.3804   35.2889  113.9387 C   0  0  0  0  0  0  0  0  0  0  0  0
   20.5410   36.1681  112.6812 C   0  0  0  0  0  0  0  0  0  0  0  0
   20.8749   40.2441  112.7497 H   0  0  0  0  0  0  0  0  0  0  0  0
   18.6454   39.1002  116.4277 H   0  0  0  0  0  0  0  0  0  0  0  0
   22.6451   38.8252  116.2876 H   0  0  0  0  0  0  0  0  0  0  0  0
   20.9307   35.6169  116.5117 H   0  0  0  0  0  0  0  0  0  0  0  0
  1  2  1  0  0  0
  1 11  1  0  0  0
  2  3  1  0  0  0
  2  7  1  0  0  0
  3  4  1  0  0  0
  3  8  1  0  0  0
  4  5  1  0  0  0
  4  9  1  0  0  0
  5  6  1  0  0  0
  5 11  1  0  0  0
  6 10  1  0  0  0
  6 12  1  0  0  0
 11 13  1  0  0  0
 12 13  1  0  0  0
  7 14  1  0  0  0
  8 15  1  0  0  0
  9 16  1  0  0  0
 10 17  1  0  0  0
M  END
> <minimizedAffinity>
-7.22476

$$$$
2PWG_CTS_A_8000


 17 18  0  0  0  0  0  0  0  0999 V2000
   20.5964   36.5929  112.4114 C   0  0  0  0  0  0  0  0  0  0  0  0
   21.4477   35.3678  112.4533 C   0  0  0  0  0  0  0  0  0  0  0  0
   22.2291   35.2226  113.8365 C   0  0  0  0  0  0  0  0  0  0  0  0
   21.9816   36.3391  114.8800 C   0  0  0  0  0  0  0  0  0  0  0  0
   20.5161   36.8382  114.9405 C   0  0  0  0  0  0  0  0  0  0  0  0
   20.2761   38.2699  115.5072 C   0  0  0  0  0  0  0  0  0  0  0  0
   20.5994   34.2366  112.1625 O   0  0  0  0  0  0  0  0  0  0  0  0
   23.6496   35.2586  113.5641 O   0  0  0  0  0  0  0  0  0  0  0  0
   22.3457   35.8964  116.1979 O   0  0  0  0  0  0  0  0  0  0  0  0
   21.3071   38.7450  116.3940 O   0  0  0  0  0  0  0  0  0  0  0  0
   19.8393   36.8479  113.6365 N   0  0  0  0  0  0  0  0  0  0  0  0
   20.1687   39.1002  114.2136 C   0  0  0  0  0  0  0  0  0  0  0  0
   19.1938   38.1544  113.4820 C   0  0  0  0  0  0  0  0  0  0  0  0
   19.8980   34.1784  112.8300 H   0  0  0  0  0  0  0  0  0  0  0  0
   23.8854   36.1220  113.1902 H   0  0  0  0  0  0  0  0  0  0  0  0
   21.7723   35.1598  116.4615 H   0  0  0  0  0  0  0  0  0  0  0  0
   22.1586   38.7445  115.9294 H   0  0  0  0  0  0  0  0  0  0  0  0
  1  2  1  0  0  0
  1 11  1  0  0  0
  2  3  1  0  0  0
  2  7  1  0  0  0
  3  4  1  0  0  0
  3  8  1  0  0  0
  4  5  1  0  0  0
  4  9  1  0  0  0
  5  6  1  0  0  0
  5 11  1  0  0  0
  6 10  1  0  0  0
  6 12  1  0  0  0
 11 13  1  0  0  0
 12 13  1  0  0  0
  7 14  1  0  0  0
  8 15  1  0  0  0
  9 16  1  0  0  0
 10 17  1  0  0  0
M  END
> <minimizedAffinity>
-6.70552

$$$$
2PWG_CTS_A_8000


 17 18  0  0  0  0  0  0  0  0999 V2000
   19.8178   37.2408  114.1200 C   0  0  0  0  0  0  0  0  0  0  0  0
   20.2507   37.0438  115.5346 C   0  0  0  0  0  0  0  0  0  0  0  0
   21.4187   35.9649  115.6639 C   0  0  0  0  0  0  0  0  0  0  0  0
   21.9015   35.3208  114.3415 C   0  0  0  0  0  0  0  0  0  0  0  0
   21.9700   36.3027  113.1448 C   0  0  0  0  0  0  0  0  0  0  0  0
   21.8921   35.6869  111.7154 C   0  0  0  0  0  0  0  0  0  0  0  0
   20.6150   38.3365  116.0638 O   0  0  0  0  0  0  0  0  0  0  0  0
   20.9378   34.8666  116.4737 O   0  0  0  0  0  0  0  0  0  0  0  0
   23.2058   34.7392  114.5029 O   0  0  0  0  0  0  0  0  0  0  0  0
   22.3119   34.3116  111.6307 O   0  0  0  0  0  0  0  0  0  0  0  0
   20.9145   37.3245  113.1559 N   0  0  0  0  0  0  0  0  0  0  0  0
   20.4014   35.8806  111.3765 C   0  0  0  0  0  0  0  0  0  0  0  0
   20.3141   37.3558  111.8195 C   0  0  0  0  0  0  0  0  0  0  0  0
   21.3431   38.7066  115.5405 H   0  0  0  0  0  0  0  0  0  0  0  0
   20.1955   34.4338  116.0236 H   0  0  0  0  0  0  0  0  0  0  0  0
   23.8485   35.4374  114.7041 H   0  0  0  0  0  0  0  0  0  0  0  0
   21.7656   33.7698  112.2215 H   0  0  0  0  0  0  0  0  0  0  0  0
  1  2  1  0  0  0
  1 11  1  0  0  0
  2  3  1  0  0  0
  2  7  1  0  0  0
  3  4  1  0  0  0
  3  8  1  0  0  0
  4  5  1  0  0  0
  4  9  1  0  0  0
  5  6  1  0  0  0
  5 11  1  0  0  0
  6 10  1  0  0  0
  6 12  1  0  0  0
 11 13  1  0  0  0
 12 13  1  0  0  0
  7 14  1  0  0  0
  8 15  1  0  0  0
  9 16  1  0  0  0
 10 17  1  0  0  0
M  END
> <minimizedAffinity>
-6.61035

$$$$
2PWG_CTS_A_8000


 17 18  0  0  0  0  0  0  0  0999 V2000
   21.8174   35.7704  115.2426 C   0  0  0  0  0  0  0  0  0  0  0  0
   22.2476   34.8546  114.1456 C   0  0  0  0  0  0  0  0  0  0  0  0
   21.5891   35.2396  112.7445 C   0  0  0  0  0  0  0  0  0  0  0  0
   20.6435   36.4654  112.7493 C   0  0  0  0  0  0  0  0  0  0  0  0
   21.1172   37.6293  113.6558 C   0  0  0  0  0  0  0  0  0  0  0  0
   20.0290   38.6227  114.1630 C   0  0  0  0  0  0  0  0  0  0  0  0
   23.6908   34.8613  114.1120 O   0  0  0  0  0  0  0  0  0  0  0  0
   20.7757   34.1279  112.3018 O   0  0  0  0  0  0  0  0  0  0  0  0
   20.4777   36.9879  111.4208 O   0  0  0  0  0  0  0  0  0  0  0  0
   18.8523   38.6977  113.3355 O   0  0  0  0  0  0  0  0  0  0  0  0
   21.8006   37.1870  114.8789 N   0  0  0  0  0  0  0  0  0  0  0  0
   19.7372   38.0688  115.5711 C   0  0  0  0  0  0  0  0  0  0  0  0
   21.2099   37.9156  116.0047 C   0  0  0  0  0  0  0  0  0  0  0  0
   24.0060   35.7620  113.9376 H   0  0  0  0  0  0  0  0  0  0  0  0
   20.0509   33.9869  112.9308 H   0  0  0  0  0  0  0  0  0  0  0  0
   21.3299   37.3158  111.0936 H   0  0  0  0  0  0  0  0  0  0  0  0
   18.4483   37.8185  113.2675 H   0  0  0  0  0  0  0  0  0  0  0  0
  1  2  1  0  0  0
  1 11  1  0  0  0
  2  3  1  0  0  0
  2  7  1  0  0  0
  3  4  1  0  0  0
  3  8  1  0  0  0
  4  5  1  0  0  0
  4  9  1  0  0  0
  5  6  1  0  0  0
  5 11  1  0  0  0
  6 10  1  0  0  0
  6 12  1  0  0  0
 11 13  1  0  0  0
 12 13  1  0  0  0
  7 14  1  0  0  0
  8 15  1  0  0  0
  9 16  1  0  0  0
 10 17  1  0  0  0
M  END
> <minimizedAffinity>
-6.56021

$$$$
2PWG_CTS_A_8000


 17 18  0  0  0  0  0  0  0  0999 V2000
   22.3245   35.6394  114.9230 C   0  0  0  0  0  0  0  0  0  0  0  0
   21.0515   36.1184  115.5374 C   0  0  0  0  0  0  0  0  0  0  0  0
   20.0959   36.8251  114.4733 C   0  0  0  0  0  0  0  0  0  0  0  0
   20.6258   36.8930  113.0203 C   0  0  0  0  0  0  0  0  0  0  0  0
   21.3845   35.6226  112.5609 C   0  0  0  0  0  0  0  0  0  0  0  0
   22.4013   35.7863  111.3915 C   0  0  0  0  0  0  0  0  0  0  0  0
   20.4315   34.9912  116.1922 O   0  0  0  0  0  0  0  0  0  0  0  0
   19.9021   38.2009  114.8770 O   0  0  0  0  0  0  0  0  0  0  0  0
   19.5499   37.1165  112.0941 O   0  0  0  0  0  0  0  0  0  0  0  0
   22.1419   36.9059  110.5230 O   0  0  0  0  0  0  0  0  0  0  0  0
   22.1622   34.9788  113.6283 N   0  0  0  0  0  0  0  0  0  0  0  0
   23.7329   35.9166  112.1559 C   0  0  0  0  0  0  0  0  0  0  0  0
   23.5058   34.7203  113.1032 C   0  0  0  0  0  0  0  0  0  0  0  0
   20.2465   34.2990  115.5383 H   0  0  0  0  0  0  0  0  0  0  0  0
   20.7522   38.6674  114.8540 H   0  0  0  0  0  0  0  0  0  0  0  0
   18.9420   36.3609  112.1161 H   0  0  0  0  0  0  0  0  0  0  0  0
   22.1462   37.7254  111.0419 H   0  0  0  0  0  0  0  0  0  0  0  0
  1  2  1  0  0  0
  1 11  1  0  0  0
  2  3  1  0  0  0
  2  7  1  0  0  0
  3  4  1  0  0  0
  3  8  1  0  0  0
  4  5  1  0  0  0
  4  9  1  0  0  0
  5  6  1  0  0  0
  5 11  1  0  0  0
  6 10  1  0  0  0
  6 12  1  0  0  0
 11 13  1  0  0  0
 12 13  1  0  0  0
  7 14  1  0  0  0
  8 15  1  0  0  0
  9 16  1  0  0  0
 10 17  1  0  0  0
M  END
> <minimizedAffinity>
-5.79870

$$$$
2PWG_CTS_A_8000


 17 18  0  0  0  0  0  0  0  0999 V2000
   20.6460   37.1938  111.7389 C   0  0  0  0  0  0  0  0  0  0  0  0
   21.3126   35.9559  111.2383 C   0  0  0  0  0  0  0  0  0  0  0  0
   21.9691   35.1048  112.4170 C   0  0  0  0  0  0  0  0  0  0  0  0
   21.8091   35.6809  113.8450 C   0  0  0  0  0  0  0  0  0  0  0  0
   20.4271   36.3259  114.1185 C   0  0  0  0  0  0  0  0  0  0  0  0
   20.3515   37.3874  115.2567 C   0  0  0  0  0  0  0  0  0  0  0  0
   20.3364   35.2107  110.4796 O   0  0  0  0  0  0  0  0  0  0  0  0
   23.3960   35.0336  112.1884 O   0  0  0  0  0  0  0  0  0  0  0  0
   22.0163   34.6591  114.8342 O   0  0  0  0  0  0  0  0  0  0  0  0
   21.3754   37.2633  116.2623 O   0  0  0  0  0  0  0  0  0  0  0  0
   19.8496   37.0061  112.9513 N   0  0  0  0  0  0  0  0  0  0  0  0
   20.4504   38.7025  114.4597 C   0  0  0  0  0  0  0  0  0  0  0  0
   19.4054   38.3329  113.3867 C   0  0  0  0  0  0  0  0  0  0  0  0
   19.5895   34.9786  111.0534 H   0  0  0  0  0  0  0  0  0  0  0  0
   23.7754   35.9252  112.2322 H   0  0  0  0  0  0  0  0  0  0  0  0
   21.3287   33.9805  114.7471 H   0  0  0  0  0  0  0  0  0  0  0  0
   22.2484   37.3318  115.8450 H   0  0  0  0  0  0  0  0  0  0  0  0
  1  2  1  0  0  0
  1 11  1  0  0  0
  2  3  1  0  0  0
  2  7  1  0  0  0
  3  4  1  0  0  0
  3  8  1  0  0  0
  4  5  1  0  0  0
  4  9  1  0  0  0
  5  6  1  0  0  0
  5 11  1  0  0  0
  6 10  1  0  0  0
  6 12  1  0  0  0
 11 13  1  0  0  0
 12 13  1  0  0  0
  7 14  1  0  0  0
  8 15  1  0  0  0
  9 16  1  0  0  0
 10 17  1  0  0  0
M  END
> <minimizedAffinity>
-5.72025

$$$$
2PWG_CTS_A_8000


 17 18  0  0  0  0  0  0  0  0999 V2000
   20.7883   38.2047  116.1852 C   0  0  0  0  0  0  0  0  0  0  0  0
   20.1326   39.4571  115.7067 C   0  0  0  0  0  0  0  0  0  0  0  0
   19.7117   39.3693  114.1705 C   0  0  0  0  0  0  0  0  0  0  0  0
   20.0374   38.0388  113.4491 C   0  0  0  0  0  0  0  0  0  0  0  0
   19.8205   36.7751  114.3189 C   0  0  0  0  0  0  0  0  0  0  0  0
   20.6145   35.4944  113.9217 C   0  0  0  0  0  0  0  0  0  0  0  0
   19.0180   39.7286  116.5830 O   0  0  0  0  0  0  0  0  0  0  0  0
   20.4329   40.3894  113.4407 O   0  0  0  0  0  0  0  0  0  0  0  0
   19.2404   37.8927  112.2622 O   0  0  0  0  0  0  0  0  0  0  0  0
   21.0116   35.4395  112.5381 O   0  0  0  0  0  0  0  0  0  0  0  0
   20.1398   36.9719  115.7395 N   0  0  0  0  0  0  0  0  0  0  0  0
   21.8136   35.5625  114.8871 C   0  0  0  0  0  0  0  0  0  0  0  0
   20.9935   35.8576  116.1601 C   0  0  0  0  0  0  0  0  0  0  0  0
   18.3911   38.9892  116.5473 H   0  0  0  0  0  0  0  0  0  0  0  0
   21.3848   40.2091  113.4885 H   0  0  0  0  0  0  0  0  0  0  0  0
   18.3035   37.8353  112.5069 H   0  0  0  0  0  0  0  0  0  0  0  0
   21.5611   36.2109  112.3285 H   0  0  0  0  0  0  0  0  0  0  0  0
  1  2  1  0  0  0
  1 11  1  0  0  0
  2  3  1  0  0  0
  2  7  1  0  0  0
  3  4  1  0  0  0
  3  8  1  0  0  0
  4  5  1  0  0  0
  4  9  1  0  0  0
  5  6  1  0  0  0
  5 11  1  0  0  0
  6 10  1  0  0  0
  6 12  1  0  0  0
 11 13  1  0  0  0
 12 13  1  0  0  0
  7 14  1  0  0  0
  8 15  1  0  0  0
  9 16  1  0  0  0
 10 17  1  0  0  0
M  END
> <minimizedAffinity>
-5.55092

$$$$
2PWG_CTS_A_8000


 17 18  0  0  0  0  0  0  0  0999 V2000
   20.4239   36.8410  112.1985 C   0  0  0  0  0  0  0  0  0  0  0  0
   19.7856   37.5571  113.3418 C   0  0  0  0  0  0  0  0  0  0  0  0
   20.4444   37.1680  114.7416 C   0  0  0  0  0  0  0  0  0  0  0  0
   21.6061   36.1460  114.6879 C   0  0  0  0  0  0  0  0  0  0  0  0
   22.5593   36.3308  113.4805 C   0  0  0  0  0  0  0  0  0  0  0  0
   23.3795   35.0862  113.0260 C   0  0  0  0  0  0  0  0  0  0  0  0
   19.8494   38.9717  113.0613 O   0  0  0  0  0  0  0  0  0  0  0  0
   19.4290   36.5533  115.5688 O   0  0  0  0  0  0  0  0  0  0  0  0
   22.4003   36.2121  115.8839 O   0  0  0  0  0  0  0  0  0  0  0  0
   23.5928   34.1000  114.0540 O   0  0  0  0  0  0  0  0  0  0  0  0
   21.8843   36.7849  112.2571 N   0  0  0  0  0  0  0  0  0  0  0  0
   22.5215   34.5600  111.8592 C   0  0  0  0  0  0  0  0  0  0  0  0
   22.3283   35.9214  111.1595 C   0  0  0  0  0  0  0  0  0  0  0  0
   20.7768   39.2425  112.9741 H   0  0  0  0  0  0  0  0  0  0  0  0
   19.1289   35.7296  115.1537 H   0  0  0  0  0  0  0  0  0  0  0  0
   22.8211   37.0839  115.9448 H   0  0  0  0  0  0  0  0  0  0  0  0
   22.7363   33.7900  114.3874 H   0  0  0  0  0  0  0  0  0  0  0  0
  1  2  1  0  0  0
  1 11  1  0  0  0
  2  3  1  0  0  0
  2  7  1  0  0  0
  3  4  1  0  0  0
  3  8  1  0  0  0
  4  5  1  0  0  0
  4  9  1  0  0  0
  5  6  1  0  0  0
  5 11  1  0  0  0
  6 10  1  0  0  0
  6 12  1  0  0  0
 11 13  1  0  0  0
 12 13  1  0  0  0
  7 14  1  0  0  0
  8 15  1  0  0  0
  9 16  1  0  0  0
 10 17  1  0  0  0
M  END
> <minimizedAffinity>
-5.22608

$$$$
2PWG_CTS_A_8000


 17 18  0  0  0  0  0  0  0  0999 V2000
   19.7353   34.9904  114.7946 C   0  0  0  0  0  0  0  0  0  0  0  0
   20.0810   34.1500  113.6107 C   0  0  0  0  0  0  0  0  0  0  0  0
   21.0728   34.8969  112.6090 C   0  0  0  0  0  0  0  0  0  0  0  0
   21.5059   36.3260  113.0173 C   0  0  0  0  0  0  0  0  0  0  0  0
   21.7624   36.5026  114.5351 C   0  0  0  0  0  0  0  0  0  0  0  0
   21.6493   37.9460  115.1114 C   0  0  0  0  0  0  0  0  0  0  0  0
   20.6103   32.9001  114.1021 O   0  0  0  0  0  0  0  0  0  0  0  0
   20.4062   35.0464  111.3336 O   0  0  0  0  0  0  0  0  0  0  0  0
   22.7040   36.7142  112.3250 O   0  0  0  0  0  0  0  0  0  0  0  0
   21.8662   38.9954  114.1487 O   0  0  0  0  0  0  0  0  0  0  0  0
   20.8681   35.7037  115.3839 N   0  0  0  0  0  0  0  0  0  0  0  0
   20.2168   37.9404  115.6794 C   0  0  0  0  0  0  0  0  0  0  0  0
   20.3296   36.5909  116.4184 C   0  0  0  0  0  0  0  0  0  0  0  0
   21.4040   33.0714  114.6328 H   0  0  0  0  0  0  0  0  0  0  0  0
   19.6261   35.6128  111.4410 H   0  0  0  0  0  0  0  0  0  0  0  0
   23.4338   36.1334  112.5912 H   0  0  0  0  0  0  0  0  0  0  0  0
   21.2247   38.9091  113.4263 H   0  0  0  0  0  0  0  0  0  0  0  0
  1  2  1  0  0  0
  1 11  1  0  0  0
  2  3  1  0  0  0
  2  7  1  0  0  0
  3  4  1  0  0  0
  3  8  1  0  0  0
  4  5  1  0  0  0
  4  9  1  0  0  0
  5  6  1  0  0  0
  5 11  1  0  0  0
  6 10  1  0  0  0
  6 12  1  0  0  0
 11 13  1  0  0  0
 12 13  1  0  0  0
  7 14  1  0  0  0
  8 15  1  0  0  0
  9 16  1  0  0  0
 10 17  1  0  0  0
M  END
> <minimizedAffinity>
-5.18420

$$$$
