1TA6_177_A_401


 37 39  0  0  0  0  0  0  0  0999 V2000
   15.8639  -12.5864   20.0986 C   0  0  0  0  0  0  0  0  0  0  0  0
   15.3864  -13.3991   19.2955 O   0  0  0  0  0  0  0  0  0  0  0  0
   15.1329  -11.6819   20.7442 N   0  0  0  0  0  0  0  0  0  0  0  0
   15.5864  -11.1090   21.4040 H   0  0  0  0  0  0  0  0  0  0  0  0
   16.9753  -14.3473   22.2187 C   0  0  0  0  0  0  0  0  0  0  0  0
   15.9237  -13.8011   22.6242 O   0  0  0  0  0  0  0  0  0  0  0  0
   17.6948  -13.8587   21.1864 N   0  0  0  0  0  0  0  0  0  0  0  0
   17.3506  -12.6401   20.4461 C   0  0  0  0  0  0  0  0  0  0  0  0
   18.1889  -12.7824   19.1808 C   0  0  0  0  0  0  0  0  0  0  0  0
   19.4290  -13.3975   19.6950 C   0  0  0  0  0  0  0  0  0  0  0  0
   18.8892  -14.4965   20.5981 C   0  0  0  0  0  0  0  0  0  0  0  0
   16.3305  -16.5729   22.9330 N   0  0  0  0  0  0  0  0  0  0  0  0
   17.4778  -15.6268   22.8754 C   0  0  0  0  0  0  0  0  0  0  0  0
   16.6305  -17.4450   23.3686 H   0  0  0  0  0  0  0  0  0  0  0  0
   15.9979  -16.7619   21.9874 H   0  0  0  0  0  0  0  0  0  0  0  0
   18.0127  -15.2879   24.2881 C   0  0  0  0  0  0  0  0  0  0  0  0
   19.3970  -14.6409   24.2009 C   0  0  0  0  0  0  0  0  0  0  0  0
   19.9500  -14.2932   25.5620 C   0  0  0  0  0  0  0  0  0  0  0  0
   19.9827  -15.5204   26.4628 C   0  0  0  0  0  0  0  0  0  0  0  0
   18.6175  -16.2032   26.5472 C   0  0  0  0  0  0  0  0  0  0  0  0
   18.1242  -16.5391   25.1601 C   0  0  0  0  0  0  0  0  0  0  0  0
   13.7004  -11.4839   20.5373 C   0  0  0  0  0  0  0  0  0  0  0  0
   12.9173  -11.4327   21.8255 C   0  0  0  0  0  0  0  0  0  0  0  0
   12.1087  -12.5086   22.1859 C   0  0  0  0  0  0  0  0  0  0  0  0
   11.2573  -12.4008   23.3083 C   0  0  0  0  0  0  0  0  0  0  0  0
   11.2308  -11.2473   24.0636 C   0  0  0  0  0  0  0  0  0  0  0  0
   12.0385  -10.1471   23.7259 C   0  0  0  0  0  0  0  0  0  0  0  0
   12.8747  -10.2555   22.5979 C   0  0  0  0  0  0  0  0  0  0  0  0
   11.9940   -8.6924   24.6260 Cl  0  0  0  0  0  0  0  0  0  0  0  0
   12.3516  -13.7146   21.5616 O   0  0  0  0  0  0  0  0  0  0  0  0
   12.5885  -14.7930   22.4771 C   0  0  0  0  0  0  0  0  0  0  0  0
   13.2654  -15.9562   21.7879 C   0  0  0  0  0  0  0  0  0  0  0  0
   13.1747  -17.0964   22.2445 O   0  0  0  0  0  0  0  0  0  0  0  0
   13.9630  -15.6680   20.6948 N   0  0  0  0  0  0  0  0  0  0  0  0
   14.0172  -14.7247   20.4181 H   0  0  0  0  0  0  0  0  0  0  0  0
   14.6563  -16.6635   19.8753 C   0  0  0  0  0  0  0  0  0  0  0  0
   14.1507  -16.6318   18.4318 C   0  0  0  0  0  0  0  0  0  0  0  0
 16 17  1  0  0  0
 16 21  1  0  0  0
 16 13  1  0  0  0
 17 18  1  0  0  0
 21 20  1  0  0  0
 18 19  1  0  0  0
 20 19  1  0  0  0
  5  6  2  0  0  0
  5 13  1  0  0  0
  5  7  1  0  0  0
 12 13  1  0  0  0
  7 11  1  0  0  0
  7  8  1  0  0  0
 11 10  1  0  0  0
  8  9  1  0  0  0
  8  1  1  0  0  0
  9 10  1  0  0  0
  1  2  2  0  0  0
  1  3  1  0  0  0
  3 22  1  0  0  0
 22 23  1  0  0  0
 23 24  2  0  0  0
 23 28  1  0  0  0
 24 25  1  0  0  0
 24 30  1  0  0  0
 25 26  2  0  0  0
 26 27  1  0  0  0
 27 28  2  0  0  0
 27 29  1  0  0  0
 30 31  1  0  0  0
 31 32  1  0  0  0
 32 33  2  0  0  0
 32 34  1  0  0  0
 34 36  1  0  0  0
 36 37  1  0  0  0
 12 14  1  0  0  0
 12 15  1  0  0  0
  3  4  1  0  0  0
 34 35  1  0  0  0
M  END
> <minimizedAffinity>
-9.84128

$$$$
1TA6_177_A_401


 37 39  0  0  0  0  0  0  0  0999 V2000
   16.0209  -12.6010   20.0000 C   0  0  0  0  0  0  0  0  0  0  0  0
   15.3363  -11.6161   20.3079 O   0  0  0  0  0  0  0  0  0  0  0  0
   15.5546  -13.6188   19.2815 N   0  0  0  0  0  0  0  0  0  0  0  0
   16.1828  -14.3368   19.0384 H   0  0  0  0  0  0  0  0  0  0  0  0
   17.0778  -14.3515   22.1562 C   0  0  0  0  0  0  0  0  0  0  0  0
   16.0170  -13.8024   22.5326 O   0  0  0  0  0  0  0  0  0  0  0  0
   17.8232  -13.8690   21.1394 N   0  0  0  0  0  0  0  0  0  0  0  0
   17.4985  -12.6541   20.3844 C   0  0  0  0  0  0  0  0  0  0  0  0
   18.3676  -12.8037   19.1410 C   0  0  0  0  0  0  0  0  0  0  0  0
   19.5941  -13.4171   19.6890 C   0  0  0  0  0  0  0  0  0  0  0  0
   19.0312  -14.5109   20.5843 C   0  0  0  0  0  0  0  0  0  0  0  0
   16.4129  -16.5720   22.8678 N   0  0  0  0  0  0  0  0  0  0  0  0
   17.5628  -15.6279   22.8318 C   0  0  0  0  0  0  0  0  0  0  0  0
   16.7013  -17.4420   23.3154 H   0  0  0  0  0  0  0  0  0  0  0  0
   16.1024  -16.7661   21.9158 H   0  0  0  0  0  0  0  0  0  0  0  0
   18.0648  -15.2816   24.2548 C   0  0  0  0  0  0  0  0  0  0  0  0
   19.4462  -14.6255   24.1956 C   0  0  0  0  0  0  0  0  0  0  0  0
   19.9675  -14.2704   25.5673 C   0  0  0  0  0  0  0  0  0  0  0  0
   19.9889  -15.4949   26.4721 C   0  0  0  0  0  0  0  0  0  0  0  0
   18.6268  -16.1868   26.5290 C   0  0  0  0  0  0  0  0  0  0  0  0
   18.1658  -16.5297   25.1325 C   0  0  0  0  0  0  0  0  0  0  0  0
   14.1707  -13.7397   18.8300 C   0  0  0  0  0  0  0  0  0  0  0  0
   13.3859  -14.7754   19.5960 C   0  0  0  0  0  0  0  0  0  0  0  0
   12.8249  -14.4456   20.8279 C   0  0  0  0  0  0  0  0  0  0  0  0
   12.2244  -15.4521   21.6169 C   0  0  0  0  0  0  0  0  0  0  0  0
   12.1707  -16.7565   21.1727 C   0  0  0  0  0  0  0  0  0  0  0  0
   12.7251  -17.1178   19.9322 C   0  0  0  0  0  0  0  0  0  0  0  0
   13.3347  -16.1127   19.1565 C   0  0  0  0  0  0  0  0  0  0  0  0
   12.7039  -18.7367   19.3780 Cl  0  0  0  0  0  0  0  0  0  0  0  0
   12.6783  -13.1038   21.1132 O   0  0  0  0  0  0  0  0  0  0  0  0
   12.6058  -12.8242   22.5182 C   0  0  0  0  0  0  0  0  0  0  0  0
   11.9123  -11.5059   22.7779 C   0  0  0  0  0  0  0  0  0  0  0  0
   11.5202  -10.8072   21.8426 O   0  0  0  0  0  0  0  0  0  0  0  0
   11.7761  -11.1531   24.0513 N   0  0  0  0  0  0  0  0  0  0  0  0
   12.1519  -11.7504   24.7378 H   0  0  0  0  0  0  0  0  0  0  0  0
   11.1026   -9.9328   24.4991 C   0  0  0  0  0  0  0  0  0  0  0  0
   12.1098   -8.8037   24.7254 C   0  0  0  0  0  0  0  0  0  0  0  0
 16 17  1  0  0  0
 16 21  1  0  0  0
 16 13  1  0  0  0
 17 18  1  0  0  0
 21 20  1  0  0  0
 18 19  1  0  0  0
 20 19  1  0  0  0
  5  6  2  0  0  0
  5 13  1  0  0  0
  5  7  1  0  0  0
 12 13  1  0  0  0
  7 11  1  0  0  0
  7  8  1  0  0  0
 11 10  1  0  0  0
  8  9  1  0  0  0
  8  1  1  0  0  0
  9 10  1  0  0  0
  1  2  2  0  0  0
  1  3  1  0  0  0
  3 22  1  0  0  0
 22 23  1  0  0  0
 23 24  2  0  0  0
 23 28  1  0  0  0
 24 25  1  0  0  0
 24 30  1  0  0  0
 25 26  2  0  0  0
 26 27  1  0  0  0
 27 28  2  0  0  0
 27 29  1  0  0  0
 30 31  1  0  0  0
 31 32  1  0  0  0
 32 33  2  0  0  0
 32 34  1  0  0  0
 34 36  1  0  0  0
 36 37  1  0  0  0
 12 14  1  0  0  0
 12 15  1  0  0  0
  3  4  1  0  0  0
 34 35  1  0  0  0
M  END
> <minimizedAffinity>
-8.84641

$$$$
1TA6_177_A_401


 37 39  0  0  0  0  0  0  0  0999 V2000
   15.5784  -16.2181   20.9244 C   0  0  0  0  0  0  0  0  0  0  0  0
   16.1098  -15.8582   19.8653 O   0  0  0  0  0  0  0  0  0  0  0  0
   16.2671  -16.6513   21.9767 N   0  0  0  0  0  0  0  0  0  0  0  0
   15.7672  -16.8683   22.7966 H   0  0  0  0  0  0  0  0  0  0  0  0
   14.1986  -13.6652   21.5641 C   0  0  0  0  0  0  0  0  0  0  0  0
   15.2283  -13.7827   22.2673 O   0  0  0  0  0  0  0  0  0  0  0  0
   13.6014  -14.7203   20.9705 N   0  0  0  0  0  0  0  0  0  0  0  0
   14.0644  -16.1065   21.0953 C   0  0  0  0  0  0  0  0  0  0  0  0
   13.3455  -16.7931   19.9397 C   0  0  0  0  0  0  0  0  0  0  0  0
   12.0377  -16.1071   19.9333 C   0  0  0  0  0  0  0  0  0  0  0  0
   12.4434  -14.6461   20.0578 C   0  0  0  0  0  0  0  0  0  0  0  0
   14.6765  -11.3928   20.8663 N   0  0  0  0  0  0  0  0  0  0  0  0
   13.5837  -12.2917   21.3274 C   0  0  0  0  0  0  0  0  0  0  0  0
   14.3006  -10.4598   20.6970 H   0  0  0  0  0  0  0  0  0  0  0  0
   15.0771  -11.7598   20.0031 H   0  0  0  0  0  0  0  0  0  0  0  0
   12.9500  -11.7923   22.6487 C   0  0  0  0  0  0  0  0  0  0  0  0
   11.5967  -12.4661   22.8874 C   0  0  0  0  0  0  0  0  0  0  0  0
   10.9492  -12.0049   24.1709 C   0  0  0  0  0  0  0  0  0  0  0  0
   10.8095  -10.4888   24.1925 C   0  0  0  0  0  0  0  0  0  0  0  0
   12.1429   -9.7887   23.9299 C   0  0  0  0  0  0  0  0  0  0  0  0
   12.7333  -10.2787   22.6293 C   0  0  0  0  0  0  0  0  0  0  0  0
   17.7173  -16.8258   21.9942 C   0  0  0  0  0  0  0  0  0  0  0  0
   18.3949  -16.0435   23.0916 C   0  0  0  0  0  0  0  0  0  0  0  0
   19.3231  -15.0571   22.7652 C   0  0  0  0  0  0  0  0  0  0  0  0
   20.0714  -14.4324   23.7879 C   0  0  0  0  0  0  0  0  0  0  0  0
   19.8800  -14.7753   25.1099 C   0  0  0  0  0  0  0  0  0  0  0  0
   18.9477  -15.7644   25.4692 C   0  0  0  0  0  0  0  0  0  0  0  0
   18.2149  -16.3934   24.4442 C   0  0  0  0  0  0  0  0  0  0  0  0
   18.7209  -16.2329   27.0994 Cl  0  0  0  0  0  0  0  0  0  0  0  0
   19.2994  -14.5742   21.4731 O   0  0  0  0  0  0  0  0  0  0  0  0
   18.4686  -13.4160   21.3125 C   0  0  0  0  0  0  0  0  0  0  0  0
   18.2246  -13.1170   19.8505 C   0  0  0  0  0  0  0  0  0  0  0  0
   19.1635  -13.0602   19.0556 O   0  0  0  0  0  0  0  0  0  0  0  0
   16.9621  -12.9061   19.4953 N   0  0  0  0  0  0  0  0  0  0  0  0
   16.2748  -12.9317   20.1997 H   0  0  0  0  0  0  0  0  0  0  0  0
   16.5276  -12.6381   18.1233 C   0  0  0  0  0  0  0  0  0  0  0  0
   15.1852  -13.3122   17.8330 C   0  0  0  0  0  0  0  0  0  0  0  0
 16 17  1  0  0  0
 16 21  1  0  0  0
 16 13  1  0  0  0
 17 18  1  0  0  0
 21 20  1  0  0  0
 18 19  1  0  0  0
 20 19  1  0  0  0
  5  6  2  0  0  0
  5 13  1  0  0  0
  5  7  1  0  0  0
 12 13  1  0  0  0
  7 11  1  0  0  0
  7  8  1  0  0  0
 11 10  1  0  0  0
  8  9  1  0  0  0
  8  1  1  0  0  0
  9 10  1  0  0  0
  1  2  2  0  0  0
  1  3  1  0  0  0
  3 22  1  0  0  0
 22 23  1  0  0  0
 23 24  2  0  0  0
 23 28  1  0  0  0
 24 25  1  0  0  0
 24 30  1  0  0  0
 25 26  2  0  0  0
 26 27  1  0  0  0
 27 28  2  0  0  0
 27 29  1  0  0  0
 30 31  1  0  0  0
 31 32  1  0  0  0
 32 33  2  0  0  0
 32 34  1  0  0  0
 34 36  1  0  0  0
 36 37  1  0  0  0
 12 14  1  0  0  0
 12 15  1  0  0  0
  3  4  1  0  0  0
 34 35  1  0  0  0
M  END
> <minimizedAffinity>
-8.56274

$$$$
1TA6_177_A_401


 37 39  0  0  0  0  0  0  0  0999 V2000
   16.5156  -15.6278   21.2588 C   0  0  0  0  0  0  0  0  0  0  0  0
   17.3221  -15.1382   20.4567 O   0  0  0  0  0  0  0  0  0  0  0  0
   16.8322  -15.9452   22.5112 N   0  0  0  0  0  0  0  0  0  0  0  0
   16.1155  -16.2815   23.0963 H   0  0  0  0  0  0  0  0  0  0  0  0
   14.4335  -13.5348   21.5972 C   0  0  0  0  0  0  0  0  0  0  0  0
   15.1495  -13.5955   22.6229 O   0  0  0  0  0  0  0  0  0  0  0  0
   14.3506  -14.5484   20.7095 N   0  0  0  0  0  0  0  0  0  0  0  0
   15.0570  -15.8261   20.8498 C   0  0  0  0  0  0  0  0  0  0  0  0
   14.9720  -16.3996   19.4400 C   0  0  0  0  0  0  0  0  0  0  0  0
   13.6254  -15.9727   19.0096 C   0  0  0  0  0  0  0  0  0  0  0  0
   13.6016  -14.5129   19.4378 C   0  0  0  0  0  0  0  0  0  0  0  0
   14.5763  -11.2769   20.7250 N   0  0  0  0  0  0  0  0  0  0  0  0
   13.6313  -12.2755   21.2947 C   0  0  0  0  0  0  0  0  0  0  0  0
   14.0726  -10.4166   20.5091 H   0  0  0  0  0  0  0  0  0  0  0  0
   14.9922  -11.6506   19.8718 H   0  0  0  0  0  0  0  0  0  0  0  0
   12.9829  -11.7679   22.6057 C   0  0  0  0  0  0  0  0  0  0  0  0
   11.6316  -12.4478   22.8387 C   0  0  0  0  0  0  0  0  0  0  0  0
   10.9700  -11.9788   24.1121 C   0  0  0  0  0  0  0  0  0  0  0  0
   10.8208  -10.4636   24.1184 C   0  0  0  0  0  0  0  0  0  0  0  0
   12.1522   -9.7576   23.8611 C   0  0  0  0  0  0  0  0  0  0  0  0
   12.7570  -10.2559   22.5703 C   0  0  0  0  0  0  0  0  0  0  0  0
   18.1749  -15.8267   23.0742 C   0  0  0  0  0  0  0  0  0  0  0  0
   18.2754  -16.3564   24.4831 C   0  0  0  0  0  0  0  0  0  0  0  0
   19.0213  -15.6598   25.4315 C   0  0  0  0  0  0  0  0  0  0  0  0
   19.2451  -16.2305   26.7045 C   0  0  0  0  0  0  0  0  0  0  0  0
   18.7174  -17.4634   27.0259 C   0  0  0  0  0  0  0  0  0  0  0  0
   17.9577  -18.1873   26.0903 C   0  0  0  0  0  0  0  0  0  0  0  0
   17.7497  -17.6194   24.8184 C   0  0  0  0  0  0  0  0  0  0  0  0
   17.3253  -19.7352   26.4541 Cl  0  0  0  0  0  0  0  0  0  0  0  0
   19.3108  -14.3391   25.1578 O   0  0  0  0  0  0  0  0  0  0  0  0
   20.6322  -13.9503   25.5579 C   0  0  0  0  0  0  0  0  0  0  0  0
   21.6716  -14.4736   24.5924 C   0  0  0  0  0  0  0  0  0  0  0  0
   21.5239  -14.3404   23.3770 O   0  0  0  0  0  0  0  0  0  0  0  0
   22.7188  -15.0884   25.1309 N   0  0  0  0  0  0  0  0  0  0  0  0
   22.7419  -15.1871   26.1102 H   0  0  0  0  0  0  0  0  0  0  0  0
   23.8408  -15.6286   24.3611 C   0  0  0  0  0  0  0  0  0  0  0  0
   23.7153  -17.1451   24.2021 C   0  0  0  0  0  0  0  0  0  0  0  0
 16 17  1  0  0  0
 16 21  1  0  0  0
 16 13  1  0  0  0
 17 18  1  0  0  0
 21 20  1  0  0  0
 18 19  1  0  0  0
 20 19  1  0  0  0
  5  6  2  0  0  0
  5 13  1  0  0  0
  5  7  1  0  0  0
 12 13  1  0  0  0
  7 11  1  0  0  0
  7  8  1  0  0  0
 11 10  1  0  0  0
  8  9  1  0  0  0
  8  1  1  0  0  0
  9 10  1  0  0  0
  1  2  2  0  0  0
  1  3  1  0  0  0
  3 22  1  0  0  0
 22 23  1  0  0  0
 23 24  2  0  0  0
 23 28  1  0  0  0
 24 25  1  0  0  0
 24 30  1  0  0  0
 25 26  2  0  0  0
 26 27  1  0  0  0
 27 28  2  0  0  0
 27 29  1  0  0  0
 30 31  1  0  0  0
 31 32  1  0  0  0
 32 33  2  0  0  0
 32 34  1  0  0  0
 34 36  1  0  0  0
 36 37  1  0  0  0
 12 14  1  0  0  0
 12 15  1  0  0  0
  3  4  1  0  0  0
 34 35  1  0  0  0
M  END
> <minimizedAffinity>
-7.93364

$$$$
1TA6_177_A_401


 37 39  0  0  0  0  0  0  0  0999 V2000
   16.8611  -14.8778   20.9656 C   0  0  0  0  0  0  0  0  0  0  0  0
   17.2463  -14.2045   20.0003 O   0  0  0  0  0  0  0  0  0  0  0  0
   17.5048  -14.9217   22.1288 N   0  0  0  0  0  0  0  0  0  0  0  0
   17.1000  -15.4423   22.8598 H   0  0  0  0  0  0  0  0  0  0  0  0
   14.2137  -13.6616   21.5511 C   0  0  0  0  0  0  0  0  0  0  0  0
   15.0497  -13.3005   22.4109 O   0  0  0  0  0  0  0  0  0  0  0  0
   14.3899  -14.7581   20.7837 N   0  0  0  0  0  0  0  0  0  0  0  0
   15.5477  -15.6534   20.8799 C   0  0  0  0  0  0  0  0  0  0  0  0
   15.4695  -16.4257   19.5679 C   0  0  0  0  0  0  0  0  0  0  0  0
   14.0129  -16.5895   19.3879 C   0  0  0  0  0  0  0  0  0  0  0  0
   13.4948  -15.1919   19.6928 C   0  0  0  0  0  0  0  0  0  0  0  0
   13.2297  -11.9127   20.1902 N   0  0  0  0  0  0  0  0  0  0  0  0
   12.9504  -12.8428   21.3178 C   0  0  0  0  0  0  0  0  0  0  0  0
   12.4026  -11.3454   20.0044 H   0  0  0  0  0  0  0  0  0  0  0  0
   13.4673  -12.4505   19.3567 H   0  0  0  0  0  0  0  0  0  0  0  0
   12.6018  -12.0785   22.6182 C   0  0  0  0  0  0  0  0  0  0  0  0
   11.2363  -12.5165   23.1530 C   0  0  0  0  0  0  0  0  0  0  0  0
   10.8637  -11.7930   24.4246 C   0  0  0  0  0  0  0  0  0  0  0  0
   10.9060  -10.2846   24.2215 C   0  0  0  0  0  0  0  0  0  0  0  0
   12.2512   -9.8213   23.6621 C   0  0  0  0  0  0  0  0  0  0  0  0
   12.5618  -10.5675   22.3865 C   0  0  0  0  0  0  0  0  0  0  0  0
   18.7738  -14.2475   22.3914 C   0  0  0  0  0  0  0  0  0  0  0  0
   19.5878  -14.9163   23.4710 C   0  0  0  0  0  0  0  0  0  0  0  0
   20.0290  -16.2257   23.2926 C   0  0  0  0  0  0  0  0  0  0  0  0
   20.6557  -16.9062   24.3605 C   0  0  0  0  0  0  0  0  0  0  0  0
   20.8526  -16.2816   25.5742 C   0  0  0  0  0  0  0  0  0  0  0  0
   20.4212  -14.9597   25.7818 C   0  0  0  0  0  0  0  0  0  0  0  0
   19.7847  -14.2915   24.7180 C   0  0  0  0  0  0  0  0  0  0  0  0
   20.6207  -14.1780   27.2910 Cl  0  0  0  0  0  0  0  0  0  0  0  0
   20.0392  -16.7158   22.0030 O   0  0  0  0  0  0  0  0  0  0  0  0
   20.1263  -18.1460   21.9372 C   0  0  0  0  0  0  0  0  0  0  0  0
   21.3992  -18.5848   21.2492 C   0  0  0  0  0  0  0  0  0  0  0  0
   21.6068  -18.2983   20.0695 O   0  0  0  0  0  0  0  0  0  0  0  0
   22.2477  -19.2991   21.9804 N   0  0  0  0  0  0  0  0  0  0  0  0
   21.9885  -19.5178   22.9046 H   0  0  0  0  0  0  0  0  0  0  0  0
   23.5434  -19.7817   21.4995 C   0  0  0  0  0  0  0  0  0  0  0  0
   24.6752  -18.8607   21.9596 C   0  0  0  0  0  0  0  0  0  0  0  0
 16 17  1  0  0  0
 16 21  1  0  0  0
 16 13  1  0  0  0
 17 18  1  0  0  0
 21 20  1  0  0  0
 18 19  1  0  0  0
 20 19  1  0  0  0
  5  6  2  0  0  0
  5 13  1  0  0  0
  5  7  1  0  0  0
 12 13  1  0  0  0
  7 11  1  0  0  0
  7  8  1  0  0  0
 11 10  1  0  0  0
  8  9  1  0  0  0
  8  1  1  0  0  0
  9 10  1  0  0  0
  1  2  2  0  0  0
  1  3  1  0  0  0
  3 22  1  0  0  0
 22 23  1  0  0  0
 23 24  2  0  0  0
 23 28  1  0  0  0
 24 25  1  0  0  0
 24 30  1  0  0  0
 25 26  2  0  0  0
 26 27  1  0  0  0
 27 28  2  0  0  0
 27 29  1  0  0  0
 30 31  1  0  0  0
 31 32  1  0  0  0
 32 33  2  0  0  0
 32 34  1  0  0  0
 34 36  1  0  0  0
 36 37  1  0  0  0
 12 14  1  0  0  0
 12 15  1  0  0  0
  3  4  1  0  0  0
 34 35  1  0  0  0
M  END
> <minimizedAffinity>
-7.62686

$$$$
1TA6_177_A_401


 37 39  0  0  0  0  0  0  0  0999 V2000
   16.6793  -14.2674   20.8035 C   0  0  0  0  0  0  0  0  0  0  0  0
   17.3435  -13.5534   20.0402 O   0  0  0  0  0  0  0  0  0  0  0  0
   17.1257  -14.6873   21.9840 N   0  0  0  0  0  0  0  0  0  0  0  0
   16.5115  -15.2087   22.5497 H   0  0  0  0  0  0  0  0  0  0  0  0
   14.3672  -12.4402   21.1860 C   0  0  0  0  0  0  0  0  0  0  0  0
   15.1139  -12.4012   22.1907 O   0  0  0  0  0  0  0  0  0  0  0  0
   14.3840  -13.4665   20.3092 N   0  0  0  0  0  0  0  0  0  0  0  0
   15.2451  -14.6468   20.4391 C   0  0  0  0  0  0  0  0  0  0  0  0
   15.1912  -15.2427   19.0370 C   0  0  0  0  0  0  0  0  0  0  0  0
   13.7909  -14.9882   18.6428 C   0  0  0  0  0  0  0  0  0  0  0  0
   13.6008  -13.5375   19.0598 C   0  0  0  0  0  0  0  0  0  0  0  0
   14.1666  -10.0257   21.0914 N   0  0  0  0  0  0  0  0  0  0  0  0
   13.4089  -11.2918   20.8971 C   0  0  0  0  0  0  0  0  0  0  0  0
   13.5544   -9.2312   20.9059 H   0  0  0  0  0  0  0  0  0  0  0  0
   14.9588  -10.0016   20.4495 H   0  0  0  0  0  0  0  0  0  0  0  0
   12.2024  -11.3916   21.8620 C   0  0  0  0  0  0  0  0  0  0  0  0
   12.3433  -10.3880   23.0089 C   0  0  0  0  0  0  0  0  0  0  0  0
   11.1810  -10.4547   23.9702 C   0  0  0  0  0  0  0  0  0  0  0  0
   11.0033  -11.8682   24.5076 C   0  0  0  0  0  0  0  0  0  0  0  0
   10.8866  -12.8964   23.3823 C   0  0  0  0  0  0  0  0  0  0  0  0
   12.0812  -12.7918   22.4646 C   0  0  0  0  0  0  0  0  0  0  0  0
   18.4687  -14.4246   22.4952 C   0  0  0  0  0  0  0  0  0  0  0  0
   18.7270  -15.0625   23.8376 C   0  0  0  0  0  0  0  0  0  0  0  0
   18.0282  -16.2113   24.2026 C   0  0  0  0  0  0  0  0  0  0  0  0
   18.1527  -16.7205   25.5146 C   0  0  0  0  0  0  0  0  0  0  0  0
   18.9739  -16.1030   26.4344 C   0  0  0  0  0  0  0  0  0  0  0  0
   19.6940  -14.9447   26.0931 C   0  0  0  0  0  0  0  0  0  0  0  0
   19.5549  -14.4338   24.7880 C   0  0  0  0  0  0  0  0  0  0  0  0
   20.6891  -14.1401   27.2293 Cl  0  0  0  0  0  0  0  0  0  0  0  0
   17.4262  -16.9295   23.1903 O   0  0  0  0  0  0  0  0  0  0  0  0
   16.8662  -18.1748   23.6298 C   0  0  0  0  0  0  0  0  0  0  0  0
   15.6324  -18.5311   22.8316 C   0  0  0  0  0  0  0  0  0  0  0  0
   15.4509  -19.6832   22.4362 O   0  0  0  0  0  0  0  0  0  0  0  0
   14.7889  -17.5372   22.5763 N   0  0  0  0  0  0  0  0  0  0  0  0
   15.0273  -16.6369   22.8956 H   0  0  0  0  0  0  0  0  0  0  0  0
   13.5275  -17.6951   21.8503 C   0  0  0  0  0  0  0  0  0  0  0  0
   12.6997  -16.4096   21.9059 C   0  0  0  0  0  0  0  0  0  0  0  0
 16 17  1  0  0  0
 16 21  1  0  0  0
 16 13  1  0  0  0
 17 18  1  0  0  0
 21 20  1  0  0  0
 18 19  1  0  0  0
 20 19  1  0  0  0
  5  6  2  0  0  0
  5 13  1  0  0  0
  5  7  1  0  0  0
 12 13  1  0  0  0
  7 11  1  0  0  0
  7  8  1  0  0  0
 11 10  1  0  0  0
  8  9  1  0  0  0
  8  1  1  0  0  0
  9 10  1  0  0  0
  1  2  2  0  0  0
  1  3  1  0  0  0
  3 22  1  0  0  0
 22 23  1  0  0  0
 23 24  2  0  0  0
 23 28  1  0  0  0
 24 25  1  0  0  0
 24 30  1  0  0  0
 25 26  2  0  0  0
 26 27  1  0  0  0
 27 28  2  0  0  0
 27 29  1  0  0  0
 30 31  1  0  0  0
 31 32  1  0  0  0
 32 33  2  0  0  0
 32 34  1  0  0  0
 34 36  1  0  0  0
 36 37  1  0  0  0
 12 14  1  0  0  0
 12 15  1  0  0  0
  3  4  1  0  0  0
 34 35  1  0  0  0
M  END
> <minimizedAffinity>
-7.59265

$$$$
1TA6_177_A_401


 37 39  0  0  0  0  0  0  0  0999 V2000
   15.8141  -15.8553   20.9058 C   0  0  0  0  0  0  0  0  0  0  0  0
   16.3228  -16.5033   19.9812 O   0  0  0  0  0  0  0  0  0  0  0  0
   14.8677  -16.3414   21.7041 N   0  0  0  0  0  0  0  0  0  0  0  0
   14.5561  -15.7752   22.4468 H   0  0  0  0  0  0  0  0  0  0  0  0
   18.0784  -15.3238   22.7553 C   0  0  0  0  0  0  0  0  0  0  0  0
   17.3217  -16.1935   23.2446 O   0  0  0  0  0  0  0  0  0  0  0  0
   17.6754  -14.4728   21.7881 N   0  0  0  0  0  0  0  0  0  0  0  0
   16.3222  -14.4498   21.2226 C   0  0  0  0  0  0  0  0  0  0  0  0
   16.5215  -13.6530   19.9384 C   0  0  0  0  0  0  0  0  0  0  0  0
   17.5180  -12.6432   20.3486 C   0  0  0  0  0  0  0  0  0  0  0  0
   18.5346  -13.4867   21.1035 C   0  0  0  0  0  0  0  0  0  0  0  0
   20.1962  -16.4956   22.9014 N   0  0  0  0  0  0  0  0  0  0  0  0
   19.5223  -15.2094   23.2277 C   0  0  0  0  0  0  0  0  0  0  0  0
   21.1693  -16.4559   23.2044 H   0  0  0  0  0  0  0  0  0  0  0  0
   20.1598  -16.6525   21.8942 H   0  0  0  0  0  0  0  0  0  0  0  0
   19.5304  -14.9282   24.7500 C   0  0  0  0  0  0  0  0  0  0  0  0
   20.6231  -13.9178   25.1071 C   0  0  0  0  0  0  0  0  0  0  0  0
   20.6589  -13.6162   26.5860 C   0  0  0  0  0  0  0  0  0  0  0  0
   20.8203  -14.8956   27.3956 C   0  0  0  0  0  0  0  0  0  0  0  0
   19.7567  -15.9345   27.0399 C   0  0  0  0  0  0  0  0  0  0  0  0
   19.7788  -16.2048   25.5544 C   0  0  0  0  0  0  0  0  0  0  0  0
   14.2608  -17.6611   21.5497 C   0  0  0  0  0  0  0  0  0  0  0  0
   13.3073  -17.7421   20.3836 C   0  0  0  0  0  0  0  0  0  0  0  0
   12.1240  -17.0071   20.4063 C   0  0  0  0  0  0  0  0  0  0  0  0
   11.1598  -17.1990   19.3916 C   0  0  0  0  0  0  0  0  0  0  0  0
   11.3850  -18.0939   18.3667 C   0  0  0  0  0  0  0  0  0  0  0  0
   12.5714  -18.8464   18.3159 C   0  0  0  0  0  0  0  0  0  0  0  0
   13.5226  -18.6609   19.3378 C   0  0  0  0  0  0  0  0  0  0  0  0
   12.8555  -19.9899   17.0749 Cl  0  0  0  0  0  0  0  0  0  0  0  0
   12.0537  -15.9555   21.2964 O   0  0  0  0  0  0  0  0  0  0  0  0
   12.0237  -14.6706   20.6597 C   0  0  0  0  0  0  0  0  0  0  0  0
   12.7887  -13.6440   21.4643 C   0  0  0  0  0  0  0  0  0  0  0  0
   13.1020  -13.8686   22.6339 O   0  0  0  0  0  0  0  0  0  0  0  0
   13.0754  -12.5046   20.8445 N   0  0  0  0  0  0  0  0  0  0  0  0
   12.7549  -12.3891   19.9208 H   0  0  0  0  0  0  0  0  0  0  0  0
   13.8374  -11.4096   21.4474 C   0  0  0  0  0  0  0  0  0  0  0  0
   12.9177  -10.4669   22.2260 C   0  0  0  0  0  0  0  0  0  0  0  0
 16 17  1  0  0  0
 16 21  1  0  0  0
 16 13  1  0  0  0
 17 18  1  0  0  0
 21 20  1  0  0  0
 18 19  1  0  0  0
 20 19  1  0  0  0
  5  6  2  0  0  0
  5 13  1  0  0  0
  5  7  1  0  0  0
 12 13  1  0  0  0
  7 11  1  0  0  0
  7  8  1  0  0  0
 11 10  1  0  0  0
  8  9  1  0  0  0
  8  1  1  0  0  0
  9 10  1  0  0  0
  1  2  2  0  0  0
  1  3  1  0  0  0
  3 22  1  0  0  0
 22 23  1  0  0  0
 23 24  2  0  0  0
 23 28  1  0  0  0
 24 25  1  0  0  0
 24 30  1  0  0  0
 25 26  2  0  0  0
 26 27  1  0  0  0
 27 28  2  0  0  0
 27 29  1  0  0  0
 30 31  1  0  0  0
 31 32  1  0  0  0
 32 33  2  0  0  0
 32 34  1  0  0  0
 34 36  1  0  0  0
 36 37  1  0  0  0
 12 14  1  0  0  0
 12 15  1  0  0  0
  3  4  1  0  0  0
 34 35  1  0  0  0
M  END
> <minimizedAffinity>
-7.59131

$$$$
1TA6_177_A_401


 37 39  0  0  0  0  0  0  0  0999 V2000
   15.7275  -16.1960   21.4116 C   0  0  0  0  0  0  0  0  0  0  0  0
   16.1931  -16.1749   20.2643 O   0  0  0  0  0  0  0  0  0  0  0  0
   16.4790  -16.1190   22.5064 N   0  0  0  0  0  0  0  0  0  0  0  0
   16.0218  -16.0907   23.3778 H   0  0  0  0  0  0  0  0  0  0  0  0
   14.0666  -13.7594   21.7789 C   0  0  0  0  0  0  0  0  0  0  0  0
   15.1172  -13.6666   22.4544 O   0  0  0  0  0  0  0  0  0  0  0  0
   13.5874  -14.9433   21.3419 N   0  0  0  0  0  0  0  0  0  0  0  0
   14.2148  -16.2394   21.6208 C   0  0  0  0  0  0  0  0  0  0  0  0
   13.5593  -17.1459   20.5853 C   0  0  0  0  0  0  0  0  0  0  0  0
   12.1792  -16.6222   20.5403 C   0  0  0  0  0  0  0  0  0  0  0  0
   12.4103  -15.1201   20.4686 C   0  0  0  0  0  0  0  0  0  0  0  0
   14.2015  -11.6465   20.5971 N   0  0  0  0  0  0  0  0  0  0  0  0
   13.2875  -12.5075   21.3959 C   0  0  0  0  0  0  0  0  0  0  0  0
   13.7121  -10.7950   20.3216 H   0  0  0  0  0  0  0  0  0  0  0  0
   14.5015  -12.1512   19.7630 H   0  0  0  0  0  0  0  0  0  0  0  0
   12.8144  -11.7974   22.6877 C   0  0  0  0  0  0  0  0  0  0  0  0
   11.4319  -12.3028   23.1068 C   0  0  0  0  0  0  0  0  0  0  0  0
   10.9386  -11.6335   24.3669 C   0  0  0  0  0  0  0  0  0  0  0  0
   10.9357  -10.1189   24.2100 C   0  0  0  0  0  0  0  0  0  0  0  0
   12.2988   -9.5884   23.7655 C   0  0  0  0  0  0  0  0  0  0  0  0
   12.7315  -10.2825   22.4962 C   0  0  0  0  0  0  0  0  0  0  0  0
   17.9391  -16.0740   22.4990 C   0  0  0  0  0  0  0  0  0  0  0  0
   18.5386  -16.0651   23.8832 C   0  0  0  0  0  0  0  0  0  0  0  0
   18.2313  -17.0898   24.7759 C   0  0  0  0  0  0  0  0  0  0  0  0
   18.6645  -17.0039   26.1179 C   0  0  0  0  0  0  0  0  0  0  0  0
   19.4051  -15.9242   26.5509 C   0  0  0  0  0  0  0  0  0  0  0  0
   19.7333  -14.8774   25.6716 C   0  0  0  0  0  0  0  0  0  0  0  0
   19.2868  -14.9620   24.3386 C   0  0  0  0  0  0  0  0  0  0  0  0
   20.6185  -13.5100   26.1961 Cl  0  0  0  0  0  0  0  0  0  0  0  0
   17.7143  -18.2531   24.2442 O   0  0  0  0  0  0  0  0  0  0  0  0
   16.4372  -18.6112   24.7902 C   0  0  0  0  0  0  0  0  0  0  0  0
   15.5169  -19.1511   23.7189 C   0  0  0  0  0  0  0  0  0  0  0  0
   14.2946  -19.0502   23.8312 O   0  0  0  0  0  0  0  0  0  0  0  0
   16.1019  -19.7439   22.6839 N   0  0  0  0  0  0  0  0  0  0  0  0
   17.0836  -19.8172   22.6893 H   0  0  0  0  0  0  0  0  0  0  0  0
   15.3798  -20.2949   21.5358 C   0  0  0  0  0  0  0  0  0  0  0  0
   16.0135  -19.8379   20.2204 C   0  0  0  0  0  0  0  0  0  0  0  0
 16 17  1  0  0  0
 16 21  1  0  0  0
 16 13  1  0  0  0
 17 18  1  0  0  0
 21 20  1  0  0  0
 18 19  1  0  0  0
 20 19  1  0  0  0
  5  6  2  0  0  0
  5 13  1  0  0  0
  5  7  1  0  0  0
 12 13  1  0  0  0
  7 11  1  0  0  0
  7  8  1  0  0  0
 11 10  1  0  0  0
  8  9  1  0  0  0
  8  1  1  0  0  0
  9 10  1  0  0  0
  1  2  2  0  0  0
  1  3  1  0  0  0
  3 22  1  0  0  0
 22 23  1  0  0  0
 23 24  2  0  0  0
 23 28  1  0  0  0
 24 25  1  0  0  0
 24 30  1  0  0  0
 25 26  2  0  0  0
 26 27  1  0  0  0
 27 28  2  0  0  0
 27 29  1  0  0  0
 30 31  1  0  0  0
 31 32  1  0  0  0
 32 33  2  0  0  0
 32 34  1  0  0  0
 34 36  1  0  0  0
 36 37  1  0  0  0
 12 14  1  0  0  0
 12 15  1  0  0  0
  3  4  1  0  0  0
 34 35  1  0  0  0
M  END
> <minimizedAffinity>
-7.58142

$$$$
1TA6_177_A_401


 37 39  0  0  0  0  0  0  0  0999 V2000
   15.9977  -15.3789   21.4693 C   0  0  0  0  0  0  0  0  0  0  0  0
   16.6218  -15.1862   20.4172 O   0  0  0  0  0  0  0  0  0  0  0  0
   16.5712  -15.3773   22.6694 N   0  0  0  0  0  0  0  0  0  0  0  0
   15.9911  -15.4874   23.4572 H   0  0  0  0  0  0  0  0  0  0  0  0
   14.0877  -13.1025   21.4969 C   0  0  0  0  0  0  0  0  0  0  0  0
   15.0025  -12.9033   22.3288 O   0  0  0  0  0  0  0  0  0  0  0  0
   13.7936  -14.3317   21.0227 N   0  0  0  0  0  0  0  0  0  0  0  0
   14.4811  -15.5600   21.4351 C   0  0  0  0  0  0  0  0  0  0  0  0
   14.0857  -16.5375   20.3342 C   0  0  0  0  0  0  0  0  0  0  0  0
   12.6899  -16.1450   20.0543 C   0  0  0  0  0  0  0  0  0  0  0  0
   12.7939  -14.6291   19.9778 C   0  0  0  0  0  0  0  0  0  0  0  0
   14.2125  -10.8003   20.7465 N   0  0  0  0  0  0  0  0  0  0  0  0
   13.2719  -11.9338   20.9589 C   0  0  0  0  0  0  0  0  0  0  0  0
   13.6996   -9.9961   20.3850 H   0  0  0  0  0  0  0  0  0  0  0  0
   14.9303  -11.0752   20.0760 H   0  0  0  0  0  0  0  0  0  0  0  0
   12.1688  -11.5786   21.9854 C   0  0  0  0  0  0  0  0  0  0  0  0
   12.6178  -10.4230   22.8830 C   0  0  0  0  0  0  0  0  0  0  0  0
   11.5641  -10.0464   23.8965 C   0  0  0  0  0  0  0  0  0  0  0  0
   11.1599  -11.2537   24.7315 C   0  0  0  0  0  0  0  0  0  0  0  0
   10.7317  -12.4338   23.8591 C   0  0  0  0  0  0  0  0  0  0  0  0
   11.8286  -12.7726   22.8782 C   0  0  0  0  0  0  0  0  0  0  0  0
   18.0063  -15.2226   22.8939 C   0  0  0  0  0  0  0  0  0  0  0  0
   18.4460  -15.6888   24.2595 C   0  0  0  0  0  0  0  0  0  0  0  0
   17.8836  -16.8376   24.8117 C   0  0  0  0  0  0  0  0  0  0  0  0
   18.1771  -17.1891   26.1483 C   0  0  0  0  0  0  0  0  0  0  0  0
   19.0301  -16.4167   26.9083 C   0  0  0  0  0  0  0  0  0  0  0  0
   19.6152  -15.2542   26.3763 C   0  0  0  0  0  0  0  0  0  0  0  0
   19.3078  -14.9014   25.0479 C   0  0  0  0  0  0  0  0  0  0  0  0
   20.6463  -14.2601   27.3127 Cl  0  0  0  0  0  0  0  0  0  0  0  0
   17.2473  -17.7043   23.9474 O   0  0  0  0  0  0  0  0  0  0  0  0
   17.6127  -19.0771   24.1449 C   0  0  0  0  0  0  0  0  0  0  0  0
   18.7046  -19.4954   23.1863 C   0  0  0  0  0  0  0  0  0  0  0  0
   19.6366  -20.2051   23.5663 O   0  0  0  0  0  0  0  0  0  0  0  0
   18.6024  -19.0402   21.9425 N   0  0  0  0  0  0  0  0  0  0  0  0
   17.8467  -18.4461   21.7298 H   0  0  0  0  0  0  0  0  0  0  0  0
   19.5417  -19.3657   20.8678 C   0  0  0  0  0  0  0  0  0  0  0  0
   20.6511  -18.3163   20.7745 C   0  0  0  0  0  0  0  0  0  0  0  0
 16 17  1  0  0  0
 16 21  1  0  0  0
 16 13  1  0  0  0
 17 18  1  0  0  0
 21 20  1  0  0  0
 18 19  1  0  0  0
 20 19  1  0  0  0
  5  6  2  0  0  0
  5 13  1  0  0  0
  5  7  1  0  0  0
 12 13  1  0  0  0
  7 11  1  0  0  0
  7  8  1  0  0  0
 11 10  1  0  0  0
  8  9  1  0  0  0
  8  1  1  0  0  0
  9 10  1  0  0  0
  1  2  2  0  0  0
  1  3  1  0  0  0
  3 22  1  0  0  0
 22 23  1  0  0  0
 23 24  2  0  0  0
 23 28  1  0  0  0
 24 25  1  0  0  0
 24 30  1  0  0  0
 25 26  2  0  0  0
 26 27  1  0  0  0
 27 28  2  0  0  0
 27 29  1  0  0  0
 30 31  1  0  0  0
 31 32  1  0  0  0
 32 33  2  0  0  0
 32 34  1  0  0  0
 34 36  1  0  0  0
 36 37  1  0  0  0
 12 14  1  0  0  0
 12 15  1  0  0  0
  3  4  1  0  0  0
 34 35  1  0  0  0
M  END
> <minimizedAffinity>
-7.38308

$$$$
1TA6_177_A_401


 37 39  0  0  0  0  0  0  0  0999 V2000
   16.1397  -13.1011   19.9519 C   0  0  0  0  0  0  0  0  0  0  0  0
   16.0318  -14.0289   19.1388 O   0  0  0  0  0  0  0  0  0  0  0  0
   15.0996  -12.4204   20.4256 N   0  0  0  0  0  0  0  0  0  0  0  0
   15.2719  -11.7324   21.1084 H   0  0  0  0  0  0  0  0  0  0  0  0
   17.2795  -14.3618   22.3895 C   0  0  0  0  0  0  0  0  0  0  0  0
   16.0718  -14.0871   22.5750 O   0  0  0  0  0  0  0  0  0  0  0  0
   18.0185  -13.7699   21.4273 N   0  0  0  0  0  0  0  0  0  0  0  0
   17.5114  -12.7372   20.5174 C   0  0  0  0  0  0  0  0  0  0  0  0
   18.5607  -12.7364   19.4116 C   0  0  0  0  0  0  0  0  0  0  0  0
   19.8094  -12.9669   20.1655 C   0  0  0  0  0  0  0  0  0  0  0  0
   19.4163  -14.1072   21.0928 C   0  0  0  0  0  0  0  0  0  0  0  0
   19.0362  -14.7286   24.0201 N   0  0  0  0  0  0  0  0  0  0  0  0
   17.9670  -15.4169   23.2468 C   0  0  0  0  0  0  0  0  0  0  0  0
   19.5204  -15.4067   24.6084 H   0  0  0  0  0  0  0  0  0  0  0  0
   18.6197  -14.0056   24.6068 H   0  0  0  0  0  0  0  0  0  0  0  0
   18.5453  -16.5150   22.3215 C   0  0  0  0  0  0  0  0  0  0  0  0
   17.4670  -17.5386   21.9582 C   0  0  0  0  0  0  0  0  0  0  0  0
   17.9949  -18.6251   21.0525 C   0  0  0  0  0  0  0  0  0  0  0  0
   19.2027  -19.3108   21.6765 C   0  0  0  0  0  0  0  0  0  0  0  0
   20.2862  -18.3082   22.0743 C   0  0  0  0  0  0  0  0  0  0  0  0
   19.7034  -17.2577   22.9891 C   0  0  0  0  0  0  0  0  0  0  0  0
   13.7184  -12.6279   19.9979 C   0  0  0  0  0  0  0  0  0  0  0  0
   13.1584  -13.9605   20.4292 C   0  0  0  0  0  0  0  0  0  0  0  0
   13.0351  -14.2516   21.7861 C   0  0  0  0  0  0  0  0  0  0  0  0
   12.6587  -15.5512   22.1930 C   0  0  0  0  0  0  0  0  0  0  0  0
   12.3935  -16.5318   21.2603 C   0  0  0  0  0  0  0  0  0  0  0  0
   12.5061  -16.2657   19.8843 C   0  0  0  0  0  0  0  0  0  0  0  0
   12.8952  -14.9724   19.4853 C   0  0  0  0  0  0  0  0  0  0  0  0
   12.2190  -17.4772   18.7104 Cl  0  0  0  0  0  0  0  0  0  0  0  0
   13.0626  -13.1869   22.6628 O   0  0  0  0  0  0  0  0  0  0  0  0
   11.7729  -12.6015   22.8895 C   0  0  0  0  0  0  0  0  0  0  0  0
   11.8361  -11.0928   22.8102 C   0  0  0  0  0  0  0  0  0  0  0  0
   11.4952  -10.5026   21.7845 O   0  0  0  0  0  0  0  0  0  0  0  0
   12.2914  -10.4650   23.8888 N   0  0  0  0  0  0  0  0  0  0  0  0
   12.5798  -11.0135   24.6539 H   0  0  0  0  0  0  0  0  0  0  0  0
   12.3915   -9.0097   24.0124 C   0  0  0  0  0  0  0  0  0  0  0  0
   11.4299   -8.4839   25.0798 C   0  0  0  0  0  0  0  0  0  0  0  0
 16 17  1  0  0  0
 16 21  1  0  0  0
 16 13  1  0  0  0
 17 18  1  0  0  0
 21 20  1  0  0  0
 18 19  1  0  0  0
 20 19  1  0  0  0
  5  6  2  0  0  0
  5 13  1  0  0  0
  5  7  1  0  0  0
 12 13  1  0  0  0
  7 11  1  0  0  0
  7  8  1  0  0  0
 11 10  1  0  0  0
  8  9  1  0  0  0
  8  1  1  0  0  0
  9 10  1  0  0  0
  1  2  2  0  0  0
  1  3  1  0  0  0
  3 22  1  0  0  0
 22 23  1  0  0  0
 23 24  2  0  0  0
 23 28  1  0  0  0
 24 25  1  0  0  0
 24 30  1  0  0  0
 25 26  2  0  0  0
 26 27  1  0  0  0
 27 28  2  0  0  0
 27 29  1  0  0  0
 30 31  1  0  0  0
 31 32  1  0  0  0
 32 33  2  0  0  0
 32 34  1  0  0  0
 34 36  1  0  0  0
 36 37  1  0  0  0
 12 14  1  0  0  0
 12 15  1  0  0  0
  3  4  1  0  0  0
 34 35  1  0  0  0
M  END
> <minimizedAffinity>
-6.89146

$$$$
