3CKZ_ZMR_A_469


 32 32  0  0  0  0  0  0  0  0999 V2000
  -30.6269  -54.5068    7.4327 C   0  0  0  0  0  0  0  0  0  0  0  0
  -29.4761  -55.1527    7.7430 C   0  0  0  0  0  0  0  0  0  0  0  0
  -29.4345  -56.1647    8.8833 C   0  0  0  0  0  0  0  0  0  0  0  0
  -30.7836  -56.8895    8.9155 C   0  0  0  0  0  0  0  0  0  0  0  0
  -31.9298  -55.8743    9.0089 C   0  0  0  0  0  0  0  0  0  0  0  0
  -31.9168  -54.9898    7.8866 O   0  0  0  0  0  0  0  0  0  0  0  0
  -28.4639  -57.2301    8.6509 N   0  0  0  0  0  0  0  0  0  0  0  0
  -27.6872  -57.7930    9.4823 C   0  0  0  0  0  0  0  0  0  0  0  0
  -27.6392  -57.4434   10.7652 N   0  0  0  0  0  0  0  0  0  0  0  0
  -26.8932  -58.7818    9.0464 N   0  0  0  0  0  0  0  0  0  0  0  0
  -28.2161  -56.7193   11.1000 H   0  0  0  0  0  0  0  0  0  0  0  0
  -27.0268  -57.9088   11.3797 H   0  0  0  0  0  0  0  0  0  0  0  0
  -26.9175  -59.0516    8.1000 H   0  0  0  0  0  0  0  0  0  0  0  0
  -26.2860  -59.2379    9.6729 H   0  0  0  0  0  0  0  0  0  0  0  0
  -30.8461  -57.8585   10.0010 N   0  0  0  0  0  0  0  0  0  0  0  0
  -31.0165  -59.1780    9.8388 C   0  0  0  0  0  0  0  0  0  0  0  0
  -31.2223  -59.7158    8.7637 O   0  0  0  0  0  0  0  0  0  0  0  0
  -30.9149  -60.0098   11.0874 C   0  0  0  0  0  0  0  0  0  0  0  0
  -30.7567  -57.5196   10.9210 H   0  0  0  0  0  0  0  0  0  0  0  0
  -30.6811  -53.2917    6.6192 C   0  0  0  0  0  0  0  0  0  0  0  0
  -29.6322  -52.6091    6.5130 O   0  0  0  0  0  0  0  0  0  0  0  0
  -31.7359  -52.9547    6.0560 O   0  0  0  0  0  0  0  0  0  0  0  0
  -28.8486  -52.8837    6.9472 H   0  0  0  0  0  0  0  0  0  0  0  0
  -33.3107  -56.5084    8.9804 C   0  0  0  0  0  0  0  0  0  0  0  0
  -33.3025  -57.5399    7.9926 O   0  0  0  0  0  0  0  0  0  0  0  0
  -33.0897  -57.1570    7.1271 H   0  0  0  0  0  0  0  0  0  0  0  0
  -34.3758  -55.4704    8.6015 C   0  0  0  0  0  0  0  0  0  0  0  0
  -34.2064  -54.3050    9.4232 O   0  0  0  0  0  0  0  0  0  0  0  0
  -34.3205  -54.5473   10.3555 H   0  0  0  0  0  0  0  0  0  0  0  0
  -35.7872  -56.0279    8.7793 C   0  0  0  0  0  0  0  0  0  0  0  0
  -35.7697  -57.0986    9.7348 O   0  0  0  0  0  0  0  0  0  0  0  0
  -35.1852  -57.8049    9.4181 H   0  0  0  0  0  0  0  0  0  0  0  0
 20 21  1  0  0  0
 20 22  2  0  0  0
 20  1  1  0  0  0
  1  2  2  0  0  0
  1  6  1  0  0  0
  2  3  1  0  0  0
  3  4  1  0  0  0
  3  7  1  0  0  0
  4 15  1  0  0  0
  4  5  1  0  0  0
 15 16  1  0  0  0
 16 17  2  0  0  0
 16 18  1  0  0  0
  5  6  1  0  0  0
  5 24  1  0  0  0
 24 25  1  0  0  0
 24 27  1  0  0  0
 27 28  1  0  0  0
 27 30  1  0  0  0
 30 31  1  0  0  0
  7  8  2  0  0  0
  8  9  1  0  0  0
  8 10  1  0  0  0
 21 23  1  0  0  0
 15 19  1  0  0  0
 25 26  1  0  0  0
 28 29  1  0  0  0
 31 32  1  0  0  0
  9 11  1  0  0  0
  9 12  1  0  0  0
 10 13  1  0  0  0
 10 14  1  0  0  0
M  END
> <minimizedAffinity>
-8.88877

$$$$
3CKZ_ZMR_A_469


 32 32  0  0  0  0  0  0  0  0999 V2000
  -33.6788  -55.6569    8.4078 C   0  0  0  0  0  0  0  0  0  0  0  0
  -33.3302  -56.4537    9.4476 C   0  0  0  0  0  0  0  0  0  0  0  0
  -32.0336  -57.2560    9.4131 C   0  0  0  0  0  0  0  0  0  0  0  0
  -30.9867  -56.4221    8.6681 C   0  0  0  0  0  0  0  0  0  0  0  0
  -31.5174  -56.0132    7.2882 C   0  0  0  0  0  0  0  0  0  0  0  0
  -32.7106  -55.2368    7.4132 O   0  0  0  0  0  0  0  0  0  0  0  0
  -31.4575  -57.4460   10.7410 N   0  0  0  0  0  0  0  0  0  0  0  0
  -31.0744  -58.5222   11.2946 C   0  0  0  0  0  0  0  0  0  0  0  0
  -31.1757  -59.7076   10.6991 N   0  0  0  0  0  0  0  0  0  0  0  0
  -30.5411  -58.4538   12.5232 N   0  0  0  0  0  0  0  0  0  0  0  0
  -31.5650  -59.7737    9.7972 H   0  0  0  0  0  0  0  0  0  0  0  0
  -30.8614  -60.5187   11.1602 H   0  0  0  0  0  0  0  0  0  0  0  0
  -30.4595  -57.5838   12.9766 H   0  0  0  0  0  0  0  0  0  0  0  0
  -30.2313  -59.2736   12.9716 H   0  0  0  0  0  0  0  0  0  0  0  0
  -29.7176  -57.1281    8.5583 N   0  0  0  0  0  0  0  0  0  0  0  0
  -28.6076  -56.8158    9.2415 C   0  0  0  0  0  0  0  0  0  0  0  0
  -28.5048  -55.8489    9.9778 O   0  0  0  0  0  0  0  0  0  0  0  0
  -27.4494  -57.7605    9.0765 C   0  0  0  0  0  0  0  0  0  0  0  0
  -29.6717  -57.8903    7.9370 H   0  0  0  0  0  0  0  0  0  0  0  0
  -35.0333  -55.1451    8.1965 C   0  0  0  0  0  0  0  0  0  0  0  0
  -35.9052  -55.4191    9.0579 O   0  0  0  0  0  0  0  0  0  0  0  0
  -35.3018  -54.4627    7.1937 O   0  0  0  0  0  0  0  0  0  0  0  0
  -35.6786  -55.9356    9.8061 H   0  0  0  0  0  0  0  0  0  0  0  0
  -30.5636  -55.1257    6.5057 C   0  0  0  0  0  0  0  0  0  0  0  0
  -30.2009  -54.0244    7.3397 O   0  0  0  0  0  0  0  0  0  0  0  0
  -30.9976  -53.5285    7.5851 H   0  0  0  0  0  0  0  0  0  0  0  0
  -31.2423  -54.5841    5.2402 C   0  0  0  0  0  0  0  0  0  0  0  0
  -32.0433  -55.6238    4.6576 O   0  0  0  0  0  0  0  0  0  0  0  0
  -31.4754  -56.3718    4.4148 H   0  0  0  0  0  0  0  0  0  0  0  0
  -30.2147  -54.0911    4.2226 C   0  0  0  0  0  0  0  0  0  0  0  0
  -28.8914  -54.4190    4.6709 O   0  0  0  0  0  0  0  0  0  0  0  0
  -28.7244  -53.9918    5.5256 H   0  0  0  0  0  0  0  0  0  0  0  0
 20 21  1  0  0  0
 20 22  2  0  0  0
 20  1  1  0  0  0
  1  2  2  0  0  0
  1  6  1  0  0  0
  2  3  1  0  0  0
  3  4  1  0  0  0
  3  7  1  0  0  0
  4 15  1  0  0  0
  4  5  1  0  0  0
 15 16  1  0  0  0
 16 17  2  0  0  0
 16 18  1  0  0  0
  5  6  1  0  0  0
  5 24  1  0  0  0
 24 25  1  0  0  0
 24 27  1  0  0  0
 27 28  1  0  0  0
 27 30  1  0  0  0
 30 31  1  0  0  0
  7  8  2  0  0  0
  8  9  1  0  0  0
  8 10  1  0  0  0
 21 23  1  0  0  0
 15 19  1  0  0  0
 25 26  1  0  0  0
 28 29  1  0  0  0
 31 32  1  0  0  0
  9 11  1  0  0  0
  9 12  1  0  0  0
 10 13  1  0  0  0
 10 14  1  0  0  0
M  END
> <minimizedAffinity>
-7.95606

$$$$
3CKZ_ZMR_A_469


 32 32  0  0  0  0  0  0  0  0999 V2000
  -31.1493  -54.9167    6.8496 C   0  0  0  0  0  0  0  0  0  0  0  0
  -32.3394  -55.0602    6.2165 C   0  0  0  0  0  0  0  0  0  0  0  0
  -33.1873  -56.3104    6.4268 C   0  0  0  0  0  0  0  0  0  0  0  0
  -33.0024  -56.7628    7.8785 C   0  0  0  0  0  0  0  0  0  0  0  0
  -31.5120  -56.9462    8.1919 C   0  0  0  0  0  0  0  0  0  0  0  0
  -30.7997  -55.7217    8.0042 O   0  0  0  0  0  0  0  0  0  0  0  0
  -34.6180  -56.0412    6.3177 N   0  0  0  0  0  0  0  0  0  0  0  0
  -35.4342  -56.4298    5.4265 C   0  0  0  0  0  0  0  0  0  0  0  0
  -35.0583  -57.1709    4.3874 N   0  0  0  0  0  0  0  0  0  0  0  0
  -36.7241  -56.0833    5.5469 N   0  0  0  0  0  0  0  0  0  0  0  0
  -34.1149  -57.4332    4.2854 H   0  0  0  0  0  0  0  0  0  0  0  0
  -35.7236  -57.4570    3.7205 H   0  0  0  0  0  0  0  0  0  0  0  0
  -37.0173  -55.5353    6.3104 H   0  0  0  0  0  0  0  0  0  0  0  0
  -37.3777  -56.3771    4.8719 H   0  0  0  0  0  0  0  0  0  0  0  0
  -33.7554  -57.9768    8.1620 N   0  0  0  0  0  0  0  0  0  0  0  0
  -34.7154  -58.0813    9.0915 C   0  0  0  0  0  0  0  0  0  0  0  0
  -35.0167  -57.1913    9.8692 O   0  0  0  0  0  0  0  0  0  0  0  0
  -35.4566  -59.3892    9.1233 C   0  0  0  0  0  0  0  0  0  0  0  0
  -33.5438  -58.7793    7.6323 H   0  0  0  0  0  0  0  0  0  0  0  0
  -30.1273  -53.9504    6.4463 C   0  0  0  0  0  0  0  0  0  0  0  0
  -29.0917  -54.3900    5.8880 O   0  0  0  0  0  0  0  0  0  0  0  0
  -30.2883  -52.7362    6.6544 O   0  0  0  0  0  0  0  0  0  0  0  0
  -28.9929  -55.3102    5.7417 H   0  0  0  0  0  0  0  0  0  0  0  0
  -31.2348  -57.3328    9.6353 C   0  0  0  0  0  0  0  0  0  0  0  0
  -30.3444  -56.3629   10.1888 O   0  0  0  0  0  0  0  0  0  0  0  0
  -29.5196  -56.3528    9.6785 H   0  0  0  0  0  0  0  0  0  0  0  0
  -30.5682  -58.7133    9.7080 C   0  0  0  0  0  0  0  0  0  0  0  0
  -31.4721  -59.6975    9.1824 O   0  0  0  0  0  0  0  0  0  0  0  0
  -32.2820  -59.7104    9.7161 H   0  0  0  0  0  0  0  0  0  0  0  0
  -30.1873  -59.0748   11.1429 C   0  0  0  0  0  0  0  0  0  0  0  0
  -28.8311  -58.6812   11.3990 O   0  0  0  0  0  0  0  0  0  0  0  0
  -28.2389  -59.1436   10.7855 H   0  0  0  0  0  0  0  0  0  0  0  0
 20 21  1  0  0  0
 20 22  2  0  0  0
 20  1  1  0  0  0
  1  2  2  0  0  0
  1  6  1  0  0  0
  2  3  1  0  0  0
  3  4  1  0  0  0
  3  7  1  0  0  0
  4 15  1  0  0  0
  4  5  1  0  0  0
 15 16  1  0  0  0
 16 17  2  0  0  0
 16 18  1  0  0  0
  5  6  1  0  0  0
  5 24  1  0  0  0
 24 25  1  0  0  0
 24 27  1  0  0  0
 27 28  1  0  0  0
 27 30  1  0  0  0
 30 31  1  0  0  0
  7  8  2  0  0  0
  8  9  1  0  0  0
  8 10  1  0  0  0
 21 23  1  0  0  0
 15 19  1  0  0  0
 25 26  1  0  0  0
 28 29  1  0  0  0
 31 32  1  0  0  0
  9 11  1  0  0  0
  9 12  1  0  0  0
 10 13  1  0  0  0
 10 14  1  0  0  0
M  END
> <minimizedAffinity>
-7.68651

$$$$
3CKZ_ZMR_A_469


 32 32  0  0  0  0  0  0  0  0999 V2000
  -30.7501  -54.2597    7.0873 C   0  0  0  0  0  0  0  0  0  0  0  0
  -32.0898  -54.4399    7.1896 C   0  0  0  0  0  0  0  0  0  0  0  0
  -32.6595  -55.7219    7.7878 C   0  0  0  0  0  0  0  0  0  0  0  0
  -31.7109  -56.1819    8.8992 C   0  0  0  0  0  0  0  0  0  0  0  0
  -30.2821  -56.3144    8.3569 C   0  0  0  0  0  0  0  0  0  0  0  0
  -29.8139  -55.0631    7.8499 O   0  0  0  0  0  0  0  0  0  0  0  0
  -33.9302  -55.5036    8.4727 N   0  0  0  0  0  0  0  0  0  0  0  0
  -35.0484  -56.0702    8.2729 C   0  0  0  0  0  0  0  0  0  0  0  0
  -35.2246  -56.9904    7.3282 N   0  0  0  0  0  0  0  0  0  0  0  0
  -36.0853  -55.7295    9.0520 N   0  0  0  0  0  0  0  0  0  0  0  0
  -34.4727  -57.2510    6.7485 H   0  0  0  0  0  0  0  0  0  0  0  0
  -36.1068  -57.4108    7.2090 H   0  0  0  0  0  0  0  0  0  0  0  0
  -35.9703  -55.0502    9.7552 H   0  0  0  0  0  0  0  0  0  0  0  0
  -36.9615  -56.1587    8.9207 H   0  0  0  0  0  0  0  0  0  0  0  0
  -32.1621  -57.4251    9.5091 N   0  0  0  0  0  0  0  0  0  0  0  0
  -32.4150  -58.5577    8.8386 C   0  0  0  0  0  0  0  0  0  0  0  0
  -32.3760  -58.6587    7.6238 O   0  0  0  0  0  0  0  0  0  0  0  0
  -32.7392  -59.7596    9.6821 C   0  0  0  0  0  0  0  0  0  0  0  0
  -32.2908  -57.4341   10.4852 H   0  0  0  0  0  0  0  0  0  0  0  0
  -30.1305  -53.2531    6.2249 C   0  0  0  0  0  0  0  0  0  0  0  0
  -30.6276  -53.0696    5.0862 O   0  0  0  0  0  0  0  0  0  0  0  0
  -29.1444  -52.6064    6.6158 O   0  0  0  0  0  0  0  0  0  0  0  0
  -31.3716  -53.5696    4.8136 H   0  0  0  0  0  0  0  0  0  0  0  0
  -29.2620  -56.7051    9.4134 C   0  0  0  0  0  0  0  0  0  0  0  0
  -28.1892  -55.7637    9.3606 O   0  0  0  0  0  0  0  0  0  0  0  0
  -27.7852  -55.7830    8.4789 H   0  0  0  0  0  0  0  0  0  0  0  0
  -28.7029  -58.1069    9.1345 C   0  0  0  0  0  0  0  0  0  0  0  0
  -29.2263  -59.0218   10.1097 O   0  0  0  0  0  0  0  0  0  0  0  0
  -28.9491  -58.7429   10.9963 H   0  0  0  0  0  0  0  0  0  0  0  0
  -27.1757  -58.1187    9.1815 C   0  0  0  0  0  0  0  0  0  0  0  0
  -26.6476  -57.7498    7.8992 O   0  0  0  0  0  0  0  0  0  0  0  0
  -26.9511  -58.3831    7.2301 H   0  0  0  0  0  0  0  0  0  0  0  0
 20 21  1  0  0  0
 20 22  2  0  0  0
 20  1  1  0  0  0
  1  2  2  0  0  0
  1  6  1  0  0  0
  2  3  1  0  0  0
  3  4  1  0  0  0
  3  7  1  0  0  0
  4 15  1  0  0  0
  4  5  1  0  0  0
 15 16  1  0  0  0
 16 17  2  0  0  0
 16 18  1  0  0  0
  5  6  1  0  0  0
  5 24  1  0  0  0
 24 25  1  0  0  0
 24 27  1  0  0  0
 27 28  1  0  0  0
 27 30  1  0  0  0
 30 31  1  0  0  0
  7  8  2  0  0  0
  8  9  1  0  0  0
  8 10  1  0  0  0
 21 23  1  0  0  0
 15 19  1  0  0  0
 25 26  1  0  0  0
 28 29  1  0  0  0
 31 32  1  0  0  0
  9 11  1  0  0  0
  9 12  1  0  0  0
 10 13  1  0  0  0
 10 14  1  0  0  0
M  END
> <minimizedAffinity>
-7.61659

$$$$
3CKZ_ZMR_A_469


 32 32  0  0  0  0  0  0  0  0999 V2000
  -34.0141  -57.1250    8.6012 C   0  0  0  0  0  0  0  0  0  0  0  0
  -32.7298  -57.0165    9.0213 C   0  0  0  0  0  0  0  0  0  0  0  0
  -31.6454  -56.4959    8.0838 C   0  0  0  0  0  0  0  0  0  0  0  0
  -32.2772  -55.4302    7.1830 C   0  0  0  0  0  0  0  0  0  0  0  0
  -33.5116  -55.9995    6.4722 C   0  0  0  0  0  0  0  0  0  0  0  0
  -34.4899  -56.4296    7.4208 O   0  0  0  0  0  0  0  0  0  0  0  0
  -30.5883  -55.7810    8.7929 N   0  0  0  0  0  0  0  0  0  0  0  0
  -29.4120  -56.1705    9.0685 C   0  0  0  0  0  0  0  0  0  0  0  0
  -28.9643  -57.3796    8.7402 N   0  0  0  0  0  0  0  0  0  0  0  0
  -28.5921  -55.3237    9.7080 N   0  0  0  0  0  0  0  0  0  0  0  0
  -29.5545  -58.0123    8.2705 H   0  0  0  0  0  0  0  0  0  0  0  0
  -28.0428  -57.6416    8.9670 H   0  0  0  0  0  0  0  0  0  0  0  0
  -28.9091  -54.4256    9.9574 H   0  0  0  0  0  0  0  0  0  0  0  0
  -27.6732  -55.6000    9.9280 H   0  0  0  0  0  0  0  0  0  0  0  0
  -31.3160  -54.8970    6.2275 N   0  0  0  0  0  0  0  0  0  0  0  0
  -30.9090  -53.6207    6.1841 C   0  0  0  0  0  0  0  0  0  0  0  0
  -31.3584  -52.7332    6.8897 O   0  0  0  0  0  0  0  0  0  0  0  0
  -29.8095  -53.3170    5.2042 C   0  0  0  0  0  0  0  0  0  0  0  0
  -30.9377  -55.5194    5.5652 H   0  0  0  0  0  0  0  0  0  0  0  0
  -35.0269  -57.9279    9.2872 C   0  0  0  0  0  0  0  0  0  0  0  0
  -34.9307  -59.1783    9.2178 O   0  0  0  0  0  0  0  0  0  0  0  0
  -35.9486  -57.3806    9.9151 O   0  0  0  0  0  0  0  0  0  0  0  0
  -34.2265  -59.5680    8.7381 H   0  0  0  0  0  0  0  0  0  0  0  0
  -34.2390  -54.9848    5.6056 C   0  0  0  0  0  0  0  0  0  0  0  0
  -35.2509  -54.3682    6.4029 O   0  0  0  0  0  0  0  0  0  0  0  0
  -35.8692  -55.0447    6.7205 H   0  0  0  0  0  0  0  0  0  0  0  0
  -34.9063  -55.6746    4.4079 C   0  0  0  0  0  0  0  0  0  0  0  0
  -34.4369  -55.0646    3.1956 O   0  0  0  0  0  0  0  0  0  0  0  0
  -34.6777  -54.1250    3.1922 H   0  0  0  0  0  0  0  0  0  0  0  0
  -36.4290  -55.5732    4.4820 C   0  0  0  0  0  0  0  0  0  0  0  0
  -36.9296  -56.4917    5.4645 O   0  0  0  0  0  0  0  0  0  0  0  0
  -36.6817  -57.3964    5.2173 H   0  0  0  0  0  0  0  0  0  0  0  0
 20 21  1  0  0  0
 20 22  2  0  0  0
 20  1  1  0  0  0
  1  2  2  0  0  0
  1  6  1  0  0  0
  2  3  1  0  0  0
  3  4  1  0  0  0
  3  7  1  0  0  0
  4 15  1  0  0  0
  4  5  1  0  0  0
 15 16  1  0  0  0
 16 17  2  0  0  0
 16 18  1  0  0  0
  5  6  1  0  0  0
  5 24  1  0  0  0
 24 25  1  0  0  0
 24 27  1  0  0  0
 27 28  1  0  0  0
 27 30  1  0  0  0
 30 31  1  0  0  0
  7  8  2  0  0  0
  8  9  1  0  0  0
  8 10  1  0  0  0
 21 23  1  0  0  0
 15 19  1  0  0  0
 25 26  1  0  0  0
 28 29  1  0  0  0
 31 32  1  0  0  0
  9 11  1  0  0  0
  9 12  1  0  0  0
 10 13  1  0  0  0
 10 14  1  0  0  0
M  END
> <minimizedAffinity>
-7.41498

$$$$
3CKZ_ZMR_A_469


 32 32  0  0  0  0  0  0  0  0999 V2000
  -30.1814  -56.2575    8.8769 C   0  0  0  0  0  0  0  0  0  0  0  0
  -31.2531  -56.9955    9.2567 C   0  0  0  0  0  0  0  0  0  0  0  0
  -32.6551  -56.6377    8.7745 C   0  0  0  0  0  0  0  0  0  0  0  0
  -32.5346  -56.0911    7.3487 C   0  0  0  0  0  0  0  0  0  0  0  0
  -31.5333  -54.9296    7.3081 C   0  0  0  0  0  0  0  0  0  0  0  0
  -30.2406  -55.3589    7.7401 O   0  0  0  0  0  0  0  0  0  0  0  0
  -33.5149  -57.8093    8.6346 N   0  0  0  0  0  0  0  0  0  0  0  0
  -34.7072  -57.9730    9.0383 C   0  0  0  0  0  0  0  0  0  0  0  0
  -35.3694  -57.0346    9.7101 N   0  0  0  0  0  0  0  0  0  0  0  0
  -35.3195  -59.1349    8.7675 N   0  0  0  0  0  0  0  0  0  0  0  0
  -34.9332  -56.1765    9.9163 H   0  0  0  0  0  0  0  0  0  0  0  0
  -36.2956  -57.1984   10.0009 H   0  0  0  0  0  0  0  0  0  0  0  0
  -34.8424  -59.8387    8.2713 H   0  0  0  0  0  0  0  0  0  0  0  0
  -36.2460  -59.2841    9.0649 H   0  0  0  0  0  0  0  0  0  0  0  0
  -33.8298  -55.6911    6.8162 N   0  0  0  0  0  0  0  0  0  0  0  0
  -34.4592  -56.2984    5.8006 C   0  0  0  0  0  0  0  0  0  0  0  0
  -33.9829  -57.2104    5.1457 O   0  0  0  0  0  0  0  0  0  0  0  0
  -35.8482  -55.8055    5.5025 C   0  0  0  0  0  0  0  0  0  0  0  0
  -34.2755  -54.9184    7.2326 H   0  0  0  0  0  0  0  0  0  0  0  0
  -28.8852  -56.3010    9.5546 C   0  0  0  0  0  0  0  0  0  0  0  0
  -28.6607  -55.4467   10.4474 O   0  0  0  0  0  0  0  0  0  0  0  0
  -28.0408  -57.1594    9.2489 O   0  0  0  0  0  0  0  0  0  0  0  0
  -29.3134  -54.8091   10.6604 H   0  0  0  0  0  0  0  0  0  0  0  0
  -31.3044  -54.3694    5.9140 C   0  0  0  0  0  0  0  0  0  0  0  0
  -31.5437  -55.4166    4.9727 O   0  0  0  0  0  0  0  0  0  0  0  0
  -30.9344  -56.1514    5.1447 H   0  0  0  0  0  0  0  0  0  0  0  0
  -29.8568  -53.8847    5.7558 C   0  0  0  0  0  0  0  0  0  0  0  0
  -29.6950  -52.6521    6.4745 O   0  0  0  0  0  0  0  0  0  0  0  0
  -30.2932  -51.9827    6.1071 H   0  0  0  0  0  0  0  0  0  0  0  0
  -29.4945  -53.6778    4.2860 C   0  0  0  0  0  0  0  0  0  0  0  0
  -28.9987  -54.9048    3.7307 O   0  0  0  0  0  0  0  0  0  0  0  0
  -28.2079  -55.1840    4.2180 H   0  0  0  0  0  0  0  0  0  0  0  0
 20 21  1  0  0  0
 20 22  2  0  0  0
 20  1  1  0  0  0
  1  2  2  0  0  0
  1  6  1  0  0  0
  2  3  1  0  0  0
  3  4  1  0  0  0
  3  7  1  0  0  0
  4 15  1  0  0  0
  4  5  1  0  0  0
 15 16  1  0  0  0
 16 17  2  0  0  0
 16 18  1  0  0  0
  5  6  1  0  0  0
  5 24  1  0  0  0
 24 25  1  0  0  0
 24 27  1  0  0  0
 27 28  1  0  0  0
 27 30  1  0  0  0
 30 31  1  0  0  0
  7  8  2  0  0  0
  8  9  1  0  0  0
  8 10  1  0  0  0
 21 23  1  0  0  0
 15 19  1  0  0  0
 25 26  1  0  0  0
 28 29  1  0  0  0
 31 32  1  0  0  0
  9 11  1  0  0  0
  9 12  1  0  0  0
 10 13  1  0  0  0
 10 14  1  0  0  0
M  END
> <minimizedAffinity>
-7.39250

$$$$
3CKZ_ZMR_A_469


 32 32  0  0  0  0  0  0  0  0999 V2000
  -28.8256  -57.0904    9.1459 C   0  0  0  0  0  0  0  0  0  0  0  0
  -29.1425  -56.1786    8.1942 C   0  0  0  0  0  0  0  0  0  0  0  0
  -30.5882  -55.9917    7.7457 C   0  0  0  0  0  0  0  0  0  0  0  0
  -31.4887  -56.2095    8.9655 C   0  0  0  0  0  0  0  0  0  0  0  0
  -31.1938  -57.5714    9.6069 C   0  0  0  0  0  0  0  0  0  0  0  0
  -29.8310  -57.6486   10.0296 O   0  0  0  0  0  0  0  0  0  0  0  0
  -30.8735  -54.6206    7.3334 N   0  0  0  0  0  0  0  0  0  0  0  0
  -30.8608  -54.1227    6.1658 C   0  0  0  0  0  0  0  0  0  0  0  0
  -30.5410  -54.8351    5.0886 N   0  0  0  0  0  0  0  0  0  0  0  0
  -31.1905  -52.8312    6.0185 N   0  0  0  0  0  0  0  0  0  0  0  0
  -30.2968  -55.7844    5.1809 H   0  0  0  0  0  0  0  0  0  0  0  0
  -30.5487  -54.4131    4.1992 H   0  0  0  0  0  0  0  0  0  0  0  0
  -31.4294  -52.2912    6.8062 H   0  0  0  0  0  0  0  0  0  0  0  0
  -31.1936  -52.4231    5.1225 H   0  0  0  0  0  0  0  0  0  0  0  0
  -32.8982  -56.0815    8.6215 N   0  0  0  0  0  0  0  0  0  0  0  0
  -33.7405  -55.1932    9.1673 C   0  0  0  0  0  0  0  0  0  0  0  0
  -33.4454  -54.4388   10.0791 O   0  0  0  0  0  0  0  0  0  0  0  0
  -35.1187  -55.1438    8.5680 C   0  0  0  0  0  0  0  0  0  0  0  0
  -33.2584  -56.6919    7.9382 H   0  0  0  0  0  0  0  0  0  0  0  0
  -27.4673  -57.5829    9.3772 C   0  0  0  0  0  0  0  0  0  0  0  0
  -26.7609  -57.8498    8.3736 O   0  0  0  0  0  0  0  0  0  0  0  0
  -27.0364  -57.7292   10.5331 O   0  0  0  0  0  0  0  0  0  0  0  0
  -27.1081  -57.7314    7.5114 H   0  0  0  0  0  0  0  0  0  0  0  0
  -32.0009  -57.8408   10.8662 C   0  0  0  0  0  0  0  0  0  0  0  0
  -32.0122  -56.6451   11.6473 O   0  0  0  0  0  0  0  0  0  0  0  0
  -31.1021  -56.4000   11.8765 H   0  0  0  0  0  0  0  0  0  0  0  0
  -31.3584  -58.9638   11.6917 C   0  0  0  0  0  0  0  0  0  0  0  0
  -30.3726  -58.3953   12.5675 O   0  0  0  0  0  0  0  0  0  0  0  0
  -29.6850  -57.9590   12.0405 H   0  0  0  0  0  0  0  0  0  0  0  0
  -30.7079  -60.0150   10.7938 C   0  0  0  0  0  0  0  0  0  0  0  0
  -29.2998  -60.0797   11.0633 O   0  0  0  0  0  0  0  0  0  0  0  0
  -28.8967  -59.2154   10.8863 H   0  0  0  0  0  0  0  0  0  0  0  0
 20 21  1  0  0  0
 20 22  2  0  0  0
 20  1  1  0  0  0
  1  2  2  0  0  0
  1  6  1  0  0  0
  2  3  1  0  0  0
  3  4  1  0  0  0
  3  7  1  0  0  0
  4 15  1  0  0  0
  4  5  1  0  0  0
 15 16  1  0  0  0
 16 17  2  0  0  0
 16 18  1  0  0  0
  5  6  1  0  0  0
  5 24  1  0  0  0
 24 25  1  0  0  0
 24 27  1  0  0  0
 27 28  1  0  0  0
 27 30  1  0  0  0
 30 31  1  0  0  0
  7  8  2  0  0  0
  8  9  1  0  0  0
  8 10  1  0  0  0
 21 23  1  0  0  0
 15 19  1  0  0  0
 25 26  1  0  0  0
 28 29  1  0  0  0
 31 32  1  0  0  0
  9 11  1  0  0  0
  9 12  1  0  0  0
 10 13  1  0  0  0
 10 14  1  0  0  0
M  END
> <minimizedAffinity>
-7.34951

$$$$
3CKZ_ZMR_A_469


 32 32  0  0  0  0  0  0  0  0999 V2000
  -30.3767  -54.6798    6.4454 C   0  0  0  0  0  0  0  0  0  0  0  0
  -29.5319  -54.9637    7.4668 C   0  0  0  0  0  0  0  0  0  0  0  0
  -29.9853  -55.8364    8.6325 C   0  0  0  0  0  0  0  0  0  0  0  0
  -30.9440  -56.8953    8.0795 C   0  0  0  0  0  0  0  0  0  0  0  0
  -32.0866  -56.2251    7.3059 C   0  0  0  0  0  0  0  0  0  0  0  0
  -31.5778  -55.4586    6.2125 O   0  0  0  0  0  0  0  0  0  0  0  0
  -28.8917  -56.6131    9.2088 N   0  0  0  0  0  0  0  0  0  0  0  0
  -28.6093  -56.8020   10.4318 C   0  0  0  0  0  0  0  0  0  0  0  0
  -29.3145  -56.2582   11.4204 N   0  0  0  0  0  0  0  0  0  0  0  0
  -27.5642  -57.5867   10.7323 N   0  0  0  0  0  0  0  0  0  0  0  0
  -30.0845  -55.6799   11.2155 H   0  0  0  0  0  0  0  0  0  0  0  0
  -29.0663  -56.4341   12.3567 H   0  0  0  0  0  0  0  0  0  0  0  0
  -27.0329  -57.9961   10.0116 H   0  0  0  0  0  0  0  0  0  0  0  0
  -27.3282  -57.7533   11.6734 H   0  0  0  0  0  0  0  0  0  0  0  0
  -31.4556  -57.7592    9.1346 N   0  0  0  0  0  0  0  0  0  0  0  0
  -31.1140  -59.0443    9.3030 C   0  0  0  0  0  0  0  0  0  0  0  0
  -30.3945  -59.6682    8.5411 O   0  0  0  0  0  0  0  0  0  0  0  0
  -31.6573  -59.7099   10.5371 C   0  0  0  0  0  0  0  0  0  0  0  0
  -32.0991  -57.3709    9.7704 H   0  0  0  0  0  0  0  0  0  0  0  0
  -30.1602  -53.5907    5.4924 C   0  0  0  0  0  0  0  0  0  0  0  0
  -30.9120  -52.5875    5.5668 O   0  0  0  0  0  0  0  0  0  0  0  0
  -29.2590  -53.6662    4.6406 O   0  0  0  0  0  0  0  0  0  0  0  0
  -31.5849  -52.5535    6.2180 H   0  0  0  0  0  0  0  0  0  0  0  0
  -33.0512  -57.2102    6.6665 C   0  0  0  0  0  0  0  0  0  0  0  0
  -32.3394  -58.4217    6.4102 O   0  0  0  0  0  0  0  0  0  0  0  0
  -31.5975  -58.2404    5.8122 H   0  0  0  0  0  0  0  0  0  0  0  0
  -33.5850  -56.6604    5.3368 C   0  0  0  0  0  0  0  0  0  0  0  0
  -34.6986  -55.7937    5.6023 O   0  0  0  0  0  0  0  0  0  0  0  0
  -35.4027  -56.2969    6.0403 H   0  0  0  0  0  0  0  0  0  0  0  0
  -34.0182  -57.7871    4.4001 C   0  0  0  0  0  0  0  0  0  0  0  0
  -32.9018  -58.2151    3.6063 O   0  0  0  0  0  0  0  0  0  0  0  0
  -32.5754  -57.4693    3.0788 H   0  0  0  0  0  0  0  0  0  0  0  0
 20 21  1  0  0  0
 20 22  2  0  0  0
 20  1  1  0  0  0
  1  2  2  0  0  0
  1  6  1  0  0  0
  2  3  1  0  0  0
  3  4  1  0  0  0
  3  7  1  0  0  0
  4 15  1  0  0  0
  4  5  1  0  0  0
 15 16  1  0  0  0
 16 17  2  0  0  0
 16 18  1  0  0  0
  5  6  1  0  0  0
  5 24  1  0  0  0
 24 25  1  0  0  0
 24 27  1  0  0  0
 27 28  1  0  0  0
 27 30  1  0  0  0
 30 31  1  0  0  0
  7  8  2  0  0  0
  8  9  1  0  0  0
  8 10  1  0  0  0
 21 23  1  0  0  0
 15 19  1  0  0  0
 25 26  1  0  0  0
 28 29  1  0  0  0
 31 32  1  0  0  0
  9 11  1  0  0  0
  9 12  1  0  0  0
 10 13  1  0  0  0
 10 14  1  0  0  0
M  END
> <minimizedAffinity>
-7.26370

$$$$
3CKZ_ZMR_A_469


 32 32  0  0  0  0  0  0  0  0999 V2000
  -31.5396  -57.0581   10.2791 C   0  0  0  0  0  0  0  0  0  0  0  0
  -30.8644  -56.2343    9.4405 C   0  0  0  0  0  0  0  0  0  0  0  0
  -31.2798  -56.1002    7.9792 C   0  0  0  0  0  0  0  0  0  0  0  0
  -32.8054  -56.2210    7.9131 C   0  0  0  0  0  0  0  0  0  0  0  0
  -33.2650  -57.5200    8.5874 C   0  0  0  0  0  0  0  0  0  0  0  0
  -32.8668  -57.5478    9.9595 O   0  0  0  0  0  0  0  0  0  0  0  0
  -31.0046  -54.7723    7.4386 N   0  0  0  0  0  0  0  0  0  0  0  0
  -29.8828  -54.2281    7.2002 C   0  0  0  0  0  0  0  0  0  0  0  0
  -28.7260  -54.8357    7.4510 N   0  0  0  0  0  0  0  0  0  0  0  0
  -29.8702  -52.9971    6.6684 N   0  0  0  0  0  0  0  0  0  0  0  0
  -28.7192  -55.7395    7.8413 H   0  0  0  0  0  0  0  0  0  0  0  0
  -27.8769  -54.3815    7.2462 H   0  0  0  0  0  0  0  0  0  0  0  0
  -30.7182  -52.5348    6.4772 H   0  0  0  0  0  0  0  0  0  0  0  0
  -29.0131  -52.5557    6.4691 H   0  0  0  0  0  0  0  0  0  0  0  0
  -33.2914  -56.1362    6.5428 N   0  0  0  0  0  0  0  0  0  0  0  0
  -34.2403  -55.2897    6.1194 C   0  0  0  0  0  0  0  0  0  0  0  0
  -34.8699  -54.5438    6.8507 O   0  0  0  0  0  0  0  0  0  0  0  0
  -34.4927  -55.2772    4.6370 C   0  0  0  0  0  0  0  0  0  0  0  0
  -32.8939  -56.7452    5.8791 H   0  0  0  0  0  0  0  0  0  0  0  0
  -31.0125  -57.5161   11.5649 C   0  0  0  0  0  0  0  0  0  0  0  0
  -30.9062  -56.6728   12.4896 O   0  0  0  0  0  0  0  0  0  0  0  0
  -30.6830  -58.7030   11.7263 O   0  0  0  0  0  0  0  0  0  0  0  0
  -31.1613  -55.7831   12.3439 H   0  0  0  0  0  0  0  0  0  0  0  0
  -34.7750  -57.6878    8.6237 C   0  0  0  0  0  0  0  0  0  0  0  0
  -35.2303  -57.3070    9.9228 O   0  0  0  0  0  0  0  0  0  0  0  0
  -34.8124  -57.8730   10.5906 H   0  0  0  0  0  0  0  0  0  0  0  0
  -35.1637  -59.1513    8.3736 C   0  0  0  0  0  0  0  0  0  0  0  0
  -33.9689  -59.9350    8.2320 O   0  0  0  0  0  0  0  0  0  0  0  0
  -33.4576  -59.6110    7.4741 H   0  0  0  0  0  0  0  0  0  0  0  0
  -36.0272  -59.2937    7.1211 C   0  0  0  0  0  0  0  0  0  0  0  0
  -35.9819  -58.0783    6.3593 O   0  0  0  0  0  0  0  0  0  0  0  0
  -36.3200  -57.3461    6.8983 H   0  0  0  0  0  0  0  0  0  0  0  0
 20 21  1  0  0  0
 20 22  2  0  0  0
 20  1  1  0  0  0
  1  2  2  0  0  0
  1  6  1  0  0  0
  2  3  1  0  0  0
  3  4  1  0  0  0
  3  7  1  0  0  0
  4 15  1  0  0  0
  4  5  1  0  0  0
 15 16  1  0  0  0
 16 17  2  0  0  0
 16 18  1  0  0  0
  5  6  1  0  0  0
  5 24  1  0  0  0
 24 25  1  0  0  0
 24 27  1  0  0  0
 27 28  1  0  0  0
 27 30  1  0  0  0
 30 31  1  0  0  0
  7  8  2  0  0  0
  8  9  1  0  0  0
  8 10  1  0  0  0
 21 23  1  0  0  0
 15 19  1  0  0  0
 25 26  1  0  0  0
 28 29  1  0  0  0
 31 32  1  0  0  0
  9 11  1  0  0  0
  9 12  1  0  0  0
 10 13  1  0  0  0
 10 14  1  0  0  0
M  END
> <minimizedAffinity>
-6.96190

$$$$
3CKZ_ZMR_A_469


 32 32  0  0  0  0  0  0  0  0999 V2000
  -34.0555  -57.1897    7.3999 C   0  0  0  0  0  0  0  0  0  0  0  0
  -33.2162  -56.3234    6.7811 C   0  0  0  0  0  0  0  0  0  0  0  0
  -32.1084  -55.6221    7.5601 C   0  0  0  0  0  0  0  0  0  0  0  0
  -31.5972  -56.5957    8.6265 C   0  0  0  0  0  0  0  0  0  0  0  0
  -32.7618  -57.0966    9.4902 C   0  0  0  0  0  0  0  0  0  0  0  0
  -33.7342  -57.7709    8.6892 O   0  0  0  0  0  0  0  0  0  0  0  0
  -30.9339  -55.3468    6.7378 N   0  0  0  0  0  0  0  0  0  0  0  0
  -30.6910  -54.3333    6.0130 C   0  0  0  0  0  0  0  0  0  0  0  0
  -31.5495  -53.3252    5.8832 N   0  0  0  0  0  0  0  0  0  0  0  0
  -29.5197  -54.2794    5.3624 N   0  0  0  0  0  0  0  0  0  0  0  0
  -32.4134  -53.3505    6.3547 H   0  0  0  0  0  0  0  0  0  0  0  0
  -31.3209  -52.5539    5.3157 H   0  0  0  0  0  0  0  0  0  0  0  0
  -28.8742  -55.0177    5.4486 H   0  0  0  0  0  0  0  0  0  0  0  0
  -29.3052  -53.5014    4.7984 H   0  0  0  0  0  0  0  0  0  0  0  0
  -30.5525  -55.9953    9.4445 N   0  0  0  0  0  0  0  0  0  0  0  0
  -29.2589  -56.3443    9.4095 C   0  0  0  0  0  0  0  0  0  0  0  0
  -28.8150  -57.2658    8.7453 O   0  0  0  0  0  0  0  0  0  0  0  0
  -28.3306  -55.5016   10.2397 C   0  0  0  0  0  0  0  0  0  0  0  0
  -30.8157  -55.2809   10.0688 H   0  0  0  0  0  0  0  0  0  0  0  0
  -35.3349  -57.6220    6.8364 C   0  0  0  0  0  0  0  0  0  0  0  0
  -35.6901  -58.8109    7.0309 O   0  0  0  0  0  0  0  0  0  0  0  0
  -36.0394  -56.8308    6.1876 O   0  0  0  0  0  0  0  0  0  0  0  0
  -35.1415  -59.3891    7.5237 H   0  0  0  0  0  0  0  0  0  0  0  0
  -32.3504  -58.1205   10.5353 C   0  0  0  0  0  0  0  0  0  0  0  0
  -31.7638  -57.4197   11.6329 O   0  0  0  0  0  0  0  0  0  0  0  0
  -30.9893  -56.9244   11.3235 H   0  0  0  0  0  0  0  0  0  0  0  0
  -31.3130  -59.0946    9.9604 C   0  0  0  0  0  0  0  0  0  0  0  0
  -31.9860  -60.0688    9.1480 O   0  0  0  0  0  0  0  0  0  0  0  0
  -32.6158  -60.5654    9.6937 H   0  0  0  0  0  0  0  0  0  0  0  0
  -30.5315  -59.7970   11.0696 C   0  0  0  0  0  0  0  0  0  0  0  0
  -29.3298  -59.0661   11.3546 O   0  0  0  0  0  0  0  0  0  0  0  0
  -28.7809  -59.0223   10.5561 H   0  0  0  0  0  0  0  0  0  0  0  0
 20 21  1  0  0  0
 20 22  2  0  0  0
 20  1  1  0  0  0
  1  2  2  0  0  0
  1  6  1  0  0  0
  2  3  1  0  0  0
  3  4  1  0  0  0
  3  7  1  0  0  0
  4 15  1  0  0  0
  4  5  1  0  0  0
 15 16  1  0  0  0
 16 17  2  0  0  0
 16 18  1  0  0  0
  5  6  1  0  0  0
  5 24  1  0  0  0
 24 25  1  0  0  0
 24 27  1  0  0  0
 27 28  1  0  0  0
 27 30  1  0  0  0
 30 31  1  0  0  0
  7  8  2  0  0  0
  8  9  1  0  0  0
  8 10  1  0  0  0
 21 23  1  0  0  0
 15 19  1  0  0  0
 25 26  1  0  0  0
 28 29  1  0  0  0
 31 32  1  0  0  0
  9 11  1  0  0  0
  9 12  1  0  0  0
 10 13  1  0  0  0
 10 14  1  0  0  0
M  END
> <minimizedAffinity>
-6.95582

$$$$
