3ARP_DEQ_A_606


 38 41  0  0  0  0  0  0  0  0999 V2000
   14.7426   -8.5356   23.5071 C   0  0  0  0  0  0  0  0  0  0  0  0
   14.8801   -6.9689   23.5656 C   0  0  0  0  0  0  0  0  0  0  0  0
   13.8061   -6.4795   24.4694 C   0  0  0  0  0  0  0  0  0  0  0  0
   13.0331   -7.7106   24.9888 C   0  0  0  0  0  0  0  0  0  0  0  0
   11.5652   -7.2563   24.9924 C   0  0  0  0  0  0  0  0  0  0  0  0
    9.7279   -8.7681   21.9640 C   0  0  0  0  0  0  0  0  0  0  0  0
   10.5325   -7.8783   22.7370 C   0  0  0  0  0  0  0  0  0  0  0  0
   10.6699   -8.0482   24.1148 N   0  0  0  0  0  0  0  0  0  0  0  0
    9.9094   -9.0290   24.8110 C   0  0  0  0  0  0  0  0  0  0  0  0
    9.1131   -9.8483   24.0371 C   0  0  0  0  0  0  0  0  0  0  0  0
    8.9846   -9.7055   22.6536 C   0  0  0  0  0  0  0  0  0  0  0  0
    9.6051   -8.6059   20.6178 C   0  0  0  0  0  0  0  0  0  0  0  0
   10.3023   -7.6105   19.9800 C   0  0  0  0  0  0  0  0  0  0  0  0
   11.0815   -6.7554   20.7120 C   0  0  0  0  0  0  0  0  0  0  0  0
   11.2461   -6.8524   22.0552 C   0  0  0  0  0  0  0  0  0  0  0  0
   10.0599   -9.3120   26.3558 C   0  0  0  0  0  0  0  0  0  0  0  0
    8.1424  -10.5814   22.0872 N   0  0  0  0  0  0  0  0  0  0  0  0
    7.9876  -10.5575   21.1152 H   0  0  0  0  0  0  0  0  0  0  0  0
    7.6786  -11.2485   22.6432 H   0  0  0  0  0  0  0  0  0  0  0  0
   14.3736   -9.0175   22.0470 C   0  0  0  0  0  0  0  0  0  0  0  0
   13.2341  -10.1011   21.9411 C   0  0  0  0  0  0  0  0  0  0  0  0
   13.0099  -10.6507   20.4463 C   0  0  0  0  0  0  0  0  0  0  0  0
   14.0691  -11.8133   20.1821 C   0  0  0  0  0  0  0  0  0  0  0  0
   14.8181  -11.2877   19.0414 C   0  0  0  0  0  0  0  0  0  0  0  0
   17.2336  -10.3584   20.4011 C   0  0  0  0  0  0  0  0  0  0  0  0
   18.2916   -9.9266   21.1661 C   0  0  0  0  0  0  0  0  0  0  0  0
   19.5244  -10.5955   21.0492 C   0  0  0  0  0  0  0  0  0  0  0  0
   19.6761  -11.7509   20.1737 C   0  0  0  0  0  0  0  0  0  0  0  0
   17.3446  -11.4501   19.5685 C   0  0  0  0  0  0  0  0  0  0  0  0
   18.5415  -12.1970   19.4630 C   0  0  0  0  0  0  0  0  0  0  0  0
   18.6246  -13.2766   18.5726 C   0  0  0  0  0  0  0  0  0  0  0  0
   17.5256  -13.6829   17.8373 C   0  0  0  0  0  0  0  0  0  0  0  0
   16.3235  -12.9883   17.9743 C   0  0  0  0  0  0  0  0  0  0  0  0
   16.2145  -11.8779   18.8393 N   0  0  0  0  0  0  0  0  0  0  0  0
   15.1065  -13.4464   17.1463 C   0  0  0  0  0  0  0  0  0  0  0  0
   19.8253  -13.9332   18.4226 N   0  0  0  0  0  0  0  0  0  0  0  0
   20.6106  -13.6482   18.9434 H   0  0  0  0  0  0  0  0  0  0  0  0
   19.8985  -14.6878   17.7945 H   0  0  0  0  0  0  0  0  0  0  0  0
 25 26  2  0  0  0
 25 29  1  0  0  0
 26 27  1  0  0  0
 27 28  2  0  0  0
 28 30  1  0  0  0
 29 30  2  0  0  0
 29 34  1  0  0  0
 30 31  1  0  0  0
 31 32  2  0  0  0
 31 36  1  0  0  0
 32 33  1  0  0  0
 33 34  2  0  0  0
 33 35  1  0  0  0
 34 24  1  0  0  0
  6  7  2  0  0  0
  6 11  1  0  0  0
  6 12  1  0  0  0
  7  8  1  0  0  0
  7 15  1  0  0  0
  8  9  2  0  0  0
  8  5  1  0  0  0
  9 10  1  0  0  0
  9 16  1  0  0  0
 10 11  2  0  0  0
 11 17  1  0  0  0
 12 13  2  0  0  0
 13 14  1  0  0  0
 14 15  2  0  0  0
  5  4  1  0  0  0
  4  3  1  0  0  0
  3  2  1  0  0  0
  2  1  1  0  0  0
  1 20  1  0  0  0
 20 21  1  0  0  0
 21 22  1  0  0  0
 22 23  1  0  0  0
 23 24  1  0  0  0
 36 37  1  0  0  0
 36 38  1  0  0  0
 17 18  1  0  0  0
 17 19  1  0  0  0
M  CHG 1   8   1
M  CHG 1  34   1
M  END
> <minimizedAffinity>
-9.67416

$$$$
3ARP_DEQ_A_606


 38 41  0  0  0  0  0  0  0  0999 V2000
   14.2338   -8.9265   21.8617 C   0  0  0  0  0  0  0  0  0  0  0  0
   13.2293  -10.1351   21.9440 C   0  0  0  0  0  0  0  0  0  0  0  0
   12.9924  -10.5891   20.5483 C   0  0  0  0  0  0  0  0  0  0  0  0
   13.9717  -11.7469   20.2591 C   0  0  0  0  0  0  0  0  0  0  0  0
   14.5851  -11.3864   18.8973 C   0  0  0  0  0  0  0  0  0  0  0  0
   18.3692  -12.0446   19.1786 C   0  0  0  0  0  0  0  0  0  0  0  0
   17.0983  -11.4241   19.3690 C   0  0  0  0  0  0  0  0  0  0  0  0
   15.9679  -11.8806   18.6908 N   0  0  0  0  0  0  0  0  0  0  0  0
   16.0708  -12.8886   17.6916 C   0  0  0  0  0  0  0  0  0  0  0  0
   17.3217  -13.4413   17.5069 C   0  0  0  0  0  0  0  0  0  0  0  0
   18.4577  -13.0111   18.1963 C   0  0  0  0  0  0  0  0  0  0  0  0
   19.4681  -11.6036   19.8507 C   0  0  0  0  0  0  0  0  0  0  0  0
   19.3515  -10.5860   20.7641 C   0  0  0  0  0  0  0  0  0  0  0  0
   18.1353   -9.9882   20.9581 C   0  0  0  0  0  0  0  0  0  0  0  0
   17.0002  -10.3698   20.3204 C   0  0  0  0  0  0  0  0  0  0  0  0
   14.8265  -13.4900   16.9306 C   0  0  0  0  0  0  0  0  0  0  0  0
   19.5832  -13.6551   17.8558 N   0  0  0  0  0  0  0  0  0  0  0  0
   20.4353  -13.4199   18.2892 H   0  0  0  0  0  0  0  0  0  0  0  0
   19.5575  -14.3633   17.1724 H   0  0  0  0  0  0  0  0  0  0  0  0
   15.1357   -8.8505   23.1584 C   0  0  0  0  0  0  0  0  0  0  0  0
   14.8757   -7.6243   24.1137 C   0  0  0  0  0  0  0  0  0  0  0  0
   13.6143   -7.8296   25.0903 C   0  0  0  0  0  0  0  0  0  0  0  0
   12.4806   -6.7942   24.6589 C   0  0  0  0  0  0  0  0  0  0  0  0
   11.2818   -7.3981   25.2388 C   0  0  0  0  0  0  0  0  0  0  0  0
   11.1132   -6.8879   22.3651 C   0  0  0  0  0  0  0  0  0  0  0  0
   11.1819   -6.6467   21.0129 C   0  0  0  0  0  0  0  0  0  0  0  0
   10.4602   -7.4843   20.1420 C   0  0  0  0  0  0  0  0  0  0  0  0
    9.6900   -8.6140   20.6470 C   0  0  0  0  0  0  0  0  0  0  0  0
   10.3981   -7.9504   22.8721 C   0  0  0  0  0  0  0  0  0  0  0  0
    9.7086   -8.8602   22.0364 C   0  0  0  0  0  0  0  0  0  0  0  0
    8.9586   -9.9043   22.5956 C   0  0  0  0  0  0  0  0  0  0  0  0
    8.9357  -10.1155   23.9625 C   0  0  0  0  0  0  0  0  0  0  0  0
    9.6570   -9.2578   24.7934 C   0  0  0  0  0  0  0  0  0  0  0  0
   10.3977   -8.1784   24.2649 N   0  0  0  0  0  0  0  0  0  0  0  0
    9.6203   -9.4992   26.3156 C   0  0  0  0  0  0  0  0  0  0  0  0
    8.2254  -10.7238   21.7672 N   0  0  0  0  0  0  0  0  0  0  0  0
    8.2381  -10.5780   20.7937 H   0  0  0  0  0  0  0  0  0  0  0  0
    7.6883  -11.4555   22.1484 H   0  0  0  0  0  0  0  0  0  0  0  0
 25 26  2  0  0  0
 25 29  1  0  0  0
 26 27  1  0  0  0
 27 28  2  0  0  0
 28 30  1  0  0  0
 29 30  2  0  0  0
 29 34  1  0  0  0
 30 31  1  0  0  0
 31 32  2  0  0  0
 31 36  1  0  0  0
 32 33  1  0  0  0
 33 34  2  0  0  0
 33 35  1  0  0  0
 34 24  1  0  0  0
  6  7  2  0  0  0
  6 11  1  0  0  0
  6 12  1  0  0  0
  7  8  1  0  0  0
  7 15  1  0  0  0
  8  9  2  0  0  0
  8  5  1  0  0  0
  9 10  1  0  0  0
  9 16  1  0  0  0
 10 11  2  0  0  0
 11 17  1  0  0  0
 12 13  2  0  0  0
 13 14  1  0  0  0
 14 15  2  0  0  0
  5  4  1  0  0  0
  4  3  1  0  0  0
  3  2  1  0  0  0
  2  1  1  0  0  0
  1 20  1  0  0  0
 20 21  1  0  0  0
 21 22  1  0  0  0
 22 23  1  0  0  0
 23 24  1  0  0  0
 36 37  1  0  0  0
 36 38  1  0  0  0
 17 18  1  0  0  0
 17 19  1  0  0  0
M  CHG 1   8   1
M  CHG 1  34   1
M  END
> <minimizedAffinity>
-9.49820

$$$$
3ARP_DEQ_A_606


 38 41  0  0  0  0  0  0  0  0999 V2000
   14.8425   -7.5624   25.4174 C   0  0  0  0  0  0  0  0  0  0  0  0
   14.3108   -7.3878   26.8883 C   0  0  0  0  0  0  0  0  0  0  0  0
   12.8592   -7.0844   26.7844 C   0  0  0  0  0  0  0  0  0  0  0  0
   12.2697   -7.9858   25.6784 C   0  0  0  0  0  0  0  0  0  0  0  0
   11.1121   -7.1580   25.0989 C   0  0  0  0  0  0  0  0  0  0  0  0
    9.9989   -8.1094   21.5370 C   0  0  0  0  0  0  0  0  0  0  0  0
   10.1649   -8.1763   22.9528 C   0  0  0  0  0  0  0  0  0  0  0  0
   10.9615   -7.2502   23.6266 N   0  0  0  0  0  0  0  0  0  0  0  0
   11.7372   -6.2948   22.9123 C   0  0  0  0  0  0  0  0  0  0  0  0
   11.5811   -6.2821   21.5412 C   0  0  0  0  0  0  0  0  0  0  0  0
   10.7682   -7.1873   20.8552 C   0  0  0  0  0  0  0  0  0  0  0  0
    9.2118   -9.0082   20.8840 C   0  0  0  0  0  0  0  0  0  0  0  0
    8.5232   -9.9602   21.5933 C   0  0  0  0  0  0  0  0  0  0  0  0
    8.6712  -10.0288   22.9525 C   0  0  0  0  0  0  0  0  0  0  0  0
    9.4422   -9.1722   23.6685 C   0  0  0  0  0  0  0  0  0  0  0  0
   12.6114   -5.1840   23.6133 C   0  0  0  0  0  0  0  0  0  0  0  0
   10.7714   -7.0284   19.5240 N   0  0  0  0  0  0  0  0  0  0  0  0
   10.2278   -7.6211   18.9562 H   0  0  0  0  0  0  0  0  0  0  0  0
   11.3174   -6.3190   19.1142 H   0  0  0  0  0  0  0  0  0  0  0  0
   16.3727   -7.1762   25.3188 C   0  0  0  0  0  0  0  0  0  0  0  0
   17.1185   -7.6252   24.0050 C   0  0  0  0  0  0  0  0  0  0  0  0
   18.4442   -8.4916   24.2854 C   0  0  0  0  0  0  0  0  0  0  0  0
   18.7232   -9.3985   23.0035 C   0  0  0  0  0  0  0  0  0  0  0  0
   17.7601   -8.8669   22.0403 C   0  0  0  0  0  0  0  0  0  0  0  0
   14.8836   -9.3729   22.1694 C   0  0  0  0  0  0  0  0  0  0  0  0
   13.5124   -9.4645   22.2206 C   0  0  0  0  0  0  0  0  0  0  0  0
   12.8619  -10.3367   21.3279 C   0  0  0  0  0  0  0  0  0  0  0  0
   13.6109  -11.0972   20.3353 C   0  0  0  0  0  0  0  0  0  0  0  0
   15.6184  -10.0749   21.2396 C   0  0  0  0  0  0  0  0  0  0  0  0
   15.0091  -10.9148   20.2779 C   0  0  0  0  0  0  0  0  0  0  0  0
   15.7967  -11.6435   19.3757 C   0  0  0  0  0  0  0  0  0  0  0  0
   17.1726  -11.5032   19.3529 C   0  0  0  0  0  0  0  0  0  0  0  0
   17.7810  -10.6354   20.2601 C   0  0  0  0  0  0  0  0  0  0  0  0
   17.0196   -9.9098   21.2019 N   0  0  0  0  0  0  0  0  0  0  0  0
   19.3155  -10.4904   20.2294 C   0  0  0  0  0  0  0  0  0  0  0  0
   15.1869  -12.5208   18.5074 N   0  0  0  0  0  0  0  0  0  0  0  0
   14.2079  -12.6246   18.5194 H   0  0  0  0  0  0  0  0  0  0  0  0
   15.7297  -13.0443   17.8746 H   0  0  0  0  0  0  0  0  0  0  0  0
 25 26  2  0  0  0
 25 29  1  0  0  0
 26 27  1  0  0  0
 27 28  2  0  0  0
 28 30  1  0  0  0
 29 30  2  0  0  0
 29 34  1  0  0  0
 30 31  1  0  0  0
 31 32  2  0  0  0
 31 36  1  0  0  0
 32 33  1  0  0  0
 33 34  2  0  0  0
 33 35  1  0  0  0
 34 24  1  0  0  0
  6  7  2  0  0  0
  6 11  1  0  0  0
  6 12  1  0  0  0
  7  8  1  0  0  0
  7 15  1  0  0  0
  8  9  2  0  0  0
  8  5  1  0  0  0
  9 10  1  0  0  0
  9 16  1  0  0  0
 10 11  2  0  0  0
 11 17  1  0  0  0
 12 13  2  0  0  0
 13 14  1  0  0  0
 14 15  2  0  0  0
  5  4  1  0  0  0
  4  3  1  0  0  0
  3  2  1  0  0  0
  2  1  1  0  0  0
  1 20  1  0  0  0
 20 21  1  0  0  0
 21 22  1  0  0  0
 22 23  1  0  0  0
 23 24  1  0  0  0
 36 37  1  0  0  0
 36 38  1  0  0  0
 17 18  1  0  0  0
 17 19  1  0  0  0
M  CHG 1   8   1
M  CHG 1  34   1
M  END
> <minimizedAffinity>
-9.49517

$$$$
3ARP_DEQ_A_606


 38 41  0  0  0  0  0  0  0  0999 V2000
   14.0090   -9.0358   23.1225 C   0  0  0  0  0  0  0  0  0  0  0  0
   14.5032   -7.5447   23.2178 C   0  0  0  0  0  0  0  0  0  0  0  0
   13.5337   -6.8284   24.0880 C   0  0  0  0  0  0  0  0  0  0  0  0
   12.8022   -7.8848   24.9437 C   0  0  0  0  0  0  0  0  0  0  0  0
   11.3330   -7.4357   24.9165 C   0  0  0  0  0  0  0  0  0  0  0  0
    9.5233   -8.9867   21.8914 C   0  0  0  0  0  0  0  0  0  0  0  0
   10.3094   -8.0795   22.6631 C   0  0  0  0  0  0  0  0  0  0  0  0
   10.4537   -8.2471   24.0405 N   0  0  0  0  0  0  0  0  0  0  0  0
    9.7171   -9.2452   24.7378 C   0  0  0  0  0  0  0  0  0  0  0  0
    8.9377  -10.0818   23.9651 C   0  0  0  0  0  0  0  0  0  0  0  0
    8.8029   -9.9411   22.5821 C   0  0  0  0  0  0  0  0  0  0  0  0
    9.3937   -8.8264   20.5455 C   0  0  0  0  0  0  0  0  0  0  0  0
   10.0669   -7.8153   19.9068 C   0  0  0  0  0  0  0  0  0  0  0  0
   10.8283   -6.9433   20.6376 C   0  0  0  0  0  0  0  0  0  0  0  0
   10.9981   -7.0374   21.9804 C   0  0  0  0  0  0  0  0  0  0  0  0
    9.8775   -9.5257   26.2821 C   0  0  0  0  0  0  0  0  0  0  0  0
    7.9793  -10.8354   22.0170 N   0  0  0  0  0  0  0  0  0  0  0  0
    7.8218  -10.8143   21.0454 H   0  0  0  0  0  0  0  0  0  0  0  0
    7.5320  -11.5131   22.5736 H   0  0  0  0  0  0  0  0  0  0  0  0
   13.5747   -9.3951   21.6450 C   0  0  0  0  0  0  0  0  0  0  0  0
   13.7331  -10.9052   21.2229 C   0  0  0  0  0  0  0  0  0  0  0  0
   14.1605  -11.0987   19.6846 C   0  0  0  0  0  0  0  0  0  0  0  0
   15.5464  -11.8871   19.6512 C   0  0  0  0  0  0  0  0  0  0  0  0
   16.3945  -10.9774   18.8822 C   0  0  0  0  0  0  0  0  0  0  0  0
   17.3591   -9.6846   21.3204 C   0  0  0  0  0  0  0  0  0  0  0  0
   17.7052   -9.1487   22.5387 C   0  0  0  0  0  0  0  0  0  0  0  0
   19.0450   -9.2424   22.9595 C   0  0  0  0  0  0  0  0  0  0  0  0
   20.0436   -9.9307   22.1511 C   0  0  0  0  0  0  0  0  0  0  0  0
   18.2790  -10.3453   20.5364 C   0  0  0  0  0  0  0  0  0  0  0  0
   19.6225  -10.5242   20.9420 C   0  0  0  0  0  0  0  0  0  0  0  0
   20.5366  -11.1668   20.0953 C   0  0  0  0  0  0  0  0  0  0  0  0
   20.1346  -11.7047   18.8860 C   0  0  0  0  0  0  0  0  0  0  0  0
   18.7995  -11.5832   18.5000 C   0  0  0  0  0  0  0  0  0  0  0  0
   17.8600  -10.9154   19.3152 N   0  0  0  0  0  0  0  0  0  0  0  0
   18.3634  -12.1818   17.1480 C   0  0  0  0  0  0  0  0  0  0  0  0
   21.8577  -11.2516   20.4732 N   0  0  0  0  0  0  0  0  0  0  0  0
   22.1493  -10.8705   21.3329 H   0  0  0  0  0  0  0  0  0  0  0  0
   22.5109  -11.6933   19.8838 H   0  0  0  0  0  0  0  0  0  0  0  0
 25 26  2  0  0  0
 25 29  1  0  0  0
 26 27  1  0  0  0
 27 28  2  0  0  0
 28 30  1  0  0  0
 29 30  2  0  0  0
 29 34  1  0  0  0
 30 31  1  0  0  0
 31 32  2  0  0  0
 31 36  1  0  0  0
 32 33  1  0  0  0
 33 34  2  0  0  0
 33 35  1  0  0  0
 34 24  1  0  0  0
  6  7  2  0  0  0
  6 11  1  0  0  0
  6 12  1  0  0  0
  7  8  1  0  0  0
  7 15  1  0  0  0
  8  9  2  0  0  0
  8  5  1  0  0  0
  9 10  1  0  0  0
  9 16  1  0  0  0
 10 11  2  0  0  0
 11 17  1  0  0  0
 12 13  2  0  0  0
 13 14  1  0  0  0
 14 15  2  0  0  0
  5  4  1  0  0  0
  4  3  1  0  0  0
  3  2  1  0  0  0
  2  1  1  0  0  0
  1 20  1  0  0  0
 20 21  1  0  0  0
 21 22  1  0  0  0
 22 23  1  0  0  0
 23 24  1  0  0  0
 36 37  1  0  0  0
 36 38  1  0  0  0
 17 18  1  0  0  0
 17 19  1  0  0  0
M  CHG 1   8   1
M  CHG 1  34   1
M  END
> <minimizedAffinity>
-9.46860

$$$$
3ARP_DEQ_A_606


 38 41  0  0  0  0  0  0  0  0999 V2000
   14.5158   -4.6284   23.6167 C   0  0  0  0  0  0  0  0  0  0  0  0
   16.0435   -4.6438   23.9946 C   0  0  0  0  0  0  0  0  0  0  0  0
   16.2858   -5.9062   24.7416 C   0  0  0  0  0  0  0  0  0  0  0  0
   17.1911   -6.8013   23.8685 C   0  0  0  0  0  0  0  0  0  0  0  0
   16.6645   -8.2229   24.1190 C   0  0  0  0  0  0  0  0  0  0  0  0
   16.4331  -10.2883   20.8767 C   0  0  0  0  0  0  0  0  0  0  0  0
   16.9977   -9.5364   21.9502 C   0  0  0  0  0  0  0  0  0  0  0  0
   16.1841   -8.9278   22.9060 N   0  0  0  0  0  0  0  0  0  0  0  0
   14.7679   -8.9248   22.7672 C   0  0  0  0  0  0  0  0  0  0  0  0
   14.2567   -9.6303   21.6969 C   0  0  0  0  0  0  0  0  0  0  0  0
   15.0586  -10.2651   20.7457 C   0  0  0  0  0  0  0  0  0  0  0  0
   17.2307  -10.8903   19.9519 C   0  0  0  0  0  0  0  0  0  0  0  0
   18.5959  -10.8240   20.0756 C   0  0  0  0  0  0  0  0  0  0  0  0
   19.1472  -10.1100   21.1054 C   0  0  0  0  0  0  0  0  0  0  0  0
   18.4160   -9.4799   22.0588 C   0  0  0  0  0  0  0  0  0  0  0  0
   13.7894   -8.3071   23.8398 C   0  0  0  0  0  0  0  0  0  0  0  0
   14.3728  -10.8741   19.7679 N   0  0  0  0  0  0  0  0  0  0  0  0
   14.8533  -11.3487   19.0515 H   0  0  0  0  0  0  0  0  0  0  0  0
   13.3887  -10.8467   19.7662 H   0  0  0  0  0  0  0  0  0  0  0  0
   13.8094   -3.3253   24.1675 C   0  0  0  0  0  0  0  0  0  0  0  0
   12.2341   -3.3177   24.1214 C   0  0  0  0  0  0  0  0  0  0  0  0
   11.5504   -3.6527   25.5381 C   0  0  0  0  0  0  0  0  0  0  0  0
   10.4056   -4.7354   25.2917 C   0  0  0  0  0  0  0  0  0  0  0  0
   11.1742   -5.9770   25.2131 C   0  0  0  0  0  0  0  0  0  0  0  0
   11.0806   -6.4373   22.3277 C   0  0  0  0  0  0  0  0  0  0  0  0
   11.1826   -6.6300   20.9698 C   0  0  0  0  0  0  0  0  0  0  0  0
   10.6357   -7.8013   20.4130 C   0  0  0  0  0  0  0  0  0  0  0  0
   10.0131   -8.8168   21.2528 C   0  0  0  0  0  0  0  0  0  0  0  0
   10.5024   -7.3808   23.1479 C   0  0  0  0  0  0  0  0  0  0  0  0
    9.9961   -8.6035   22.6477 C   0  0  0  0  0  0  0  0  0  0  0  0
    9.3782   -9.5186   23.5115 C   0  0  0  0  0  0  0  0  0  0  0  0
    9.3162   -9.2861   24.8737 C   0  0  0  0  0  0  0  0  0  0  0  0
    9.8618   -8.1088   25.3862 C   0  0  0  0  0  0  0  0  0  0  0  0
   10.4639   -7.1523   24.5401 N   0  0  0  0  0  0  0  0  0  0  0  0
    9.7827   -7.8573   26.9051 C   0  0  0  0  0  0  0  0  0  0  0  0
    8.8151  -10.6612   22.9891 N   0  0  0  0  0  0  0  0  0  0  0  0
    8.8563  -10.8317   22.0204 H   0  0  0  0  0  0  0  0  0  0  0  0
    8.3713  -11.3077   23.5843 H   0  0  0  0  0  0  0  0  0  0  0  0
 25 26  2  0  0  0
 25 29  1  0  0  0
 26 27  1  0  0  0
 27 28  2  0  0  0
 28 30  1  0  0  0
 29 30  2  0  0  0
 29 34  1  0  0  0
 30 31  1  0  0  0
 31 32  2  0  0  0
 31 36  1  0  0  0
 32 33  1  0  0  0
 33 34  2  0  0  0
 33 35  1  0  0  0
 34 24  1  0  0  0
  6  7  2  0  0  0
  6 11  1  0  0  0
  6 12  1  0  0  0
  7  8  1  0  0  0
  7 15  1  0  0  0
  8  9  2  0  0  0
  8  5  1  0  0  0
  9 10  1  0  0  0
  9 16  1  0  0  0
 10 11  2  0  0  0
 11 17  1  0  0  0
 12 13  2  0  0  0
 13 14  1  0  0  0
 14 15  2  0  0  0
  5  4  1  0  0  0
  4  3  1  0  0  0
  3  2  1  0  0  0
  2  1  1  0  0  0
  1 20  1  0  0  0
 20 21  1  0  0  0
 21 22  1  0  0  0
 22 23  1  0  0  0
 23 24  1  0  0  0
 36 37  1  0  0  0
 36 38  1  0  0  0
 17 18  1  0  0  0
 17 19  1  0  0  0
M  CHG 1   8   1
M  CHG 1  34   1
M  END
> <minimizedAffinity>
-9.44089

$$$$
3ARP_DEQ_A_606


 38 41  0  0  0  0  0  0  0  0999 V2000
   11.1694   -2.9951   26.7482 C   0  0  0  0  0  0  0  0  0  0  0  0
   11.0236   -3.0641   28.3136 C   0  0  0  0  0  0  0  0  0  0  0  0
   12.0985   -3.9669   28.8032 C   0  0  0  0  0  0  0  0  0  0  0  0
   11.4931   -4.8623   29.9054 C   0  0  0  0  0  0  0  0  0  0  0  0
   10.0636   -4.3263   30.0793 C   0  0  0  0  0  0  0  0  0  0  0  0
    8.2458   -6.9619   32.2195 C   0  0  0  0  0  0  0  0  0  0  0  0
    8.9203   -6.3679   31.1110 C   0  0  0  0  0  0  0  0  0  0  0  0
    9.2661   -5.0165   31.1217 N   0  0  0  0  0  0  0  0  0  0  0  0
    8.8412   -4.1602   32.1758 C   0  0  0  0  0  0  0  0  0  0  0  0
    8.1586   -4.7607   33.2140 C   0  0  0  0  0  0  0  0  0  0  0  0
    7.8268   -6.1173   33.2284 C   0  0  0  0  0  0  0  0  0  0  0  0
    7.9197   -8.2838   32.2104 C   0  0  0  0  0  0  0  0  0  0  0  0
    8.2876   -9.0742   31.1504 C   0  0  0  0  0  0  0  0  0  0  0  0
    8.9402   -8.5149   30.0849 C   0  0  0  0  0  0  0  0  0  0  0  0
    9.2915   -7.2059   30.0219 C   0  0  0  0  0  0  0  0  0  0  0  0
    9.2464   -2.6388   32.2784 C   0  0  0  0  0  0  0  0  0  0  0  0
    7.1390   -6.5028   34.3127 N   0  0  0  0  0  0  0  0  0  0  0  0
    6.8608   -7.4420   34.4110 H   0  0  0  0  0  0  0  0  0  0  0  0
    6.9122   -5.8466   35.0107 H   0  0  0  0  0  0  0  0  0  0  0  0
   11.0880   -4.4387   26.1077 C   0  0  0  0  0  0  0  0  0  0  0  0
    9.7203   -5.2010   26.2866 C   0  0  0  0  0  0  0  0  0  0  0  0
    9.8819   -6.8000   26.3499 C   0  0  0  0  0  0  0  0  0  0  0  0
   11.4307   -7.1342   26.5316 C   0  0  0  0  0  0  0  0  0  0  0  0
   11.5996   -8.2825   25.6422 C   0  0  0  0  0  0  0  0  0  0  0  0
    9.6763   -9.4723   23.7896 C   0  0  0  0  0  0  0  0  0  0  0  0
    8.6673   -9.9991   23.0178 C   0  0  0  0  0  0  0  0  0  0  0  0
    8.5523   -9.5770   21.6800 C   0  0  0  0  0  0  0  0  0  0  0  0
    9.4488   -8.5697   21.1268 C   0  0  0  0  0  0  0  0  0  0  0  0
   10.5358   -8.5154   23.2967 C   0  0  0  0  0  0  0  0  0  0  0  0
   10.4230   -8.0094   21.9803 C   0  0  0  0  0  0  0  0  0  0  0  0
   11.3441   -7.0657   21.5047 C   0  0  0  0  0  0  0  0  0  0  0  0
   12.3315   -6.5533   22.3268 C   0  0  0  0  0  0  0  0  0  0  0  0
   12.4184   -7.0038   23.6443 C   0  0  0  0  0  0  0  0  0  0  0  0
   11.5257   -7.9758   24.1457 N   0  0  0  0  0  0  0  0  0  0  0  0
   13.5258   -6.4299   24.5504 C   0  0  0  0  0  0  0  0  0  0  0  0
   11.2676   -6.6534   20.1934 N   0  0  0  0  0  0  0  0  0  0  0  0
   10.5668   -7.0149   19.6039 H   0  0  0  0  0  0  0  0  0  0  0  0
   11.9136   -5.9972   19.8452 H   0  0  0  0  0  0  0  0  0  0  0  0
 25 26  2  0  0  0
 25 29  1  0  0  0
 26 27  1  0  0  0
 27 28  2  0  0  0
 28 30  1  0  0  0
 29 30  2  0  0  0
 29 34  1  0  0  0
 30 31  1  0  0  0
 31 32  2  0  0  0
 31 36  1  0  0  0
 32 33  1  0  0  0
 33 34  2  0  0  0
 33 35  1  0  0  0
 34 24  1  0  0  0
  6  7  2  0  0  0
  6 11  1  0  0  0
  6 12  1  0  0  0
  7  8  1  0  0  0
  7 15  1  0  0  0
  8  9  2  0  0  0
  8  5  1  0  0  0
  9 10  1  0  0  0
  9 16  1  0  0  0
 10 11  2  0  0  0
 11 17  1  0  0  0
 12 13  2  0  0  0
 13 14  1  0  0  0
 14 15  2  0  0  0
  5  4  1  0  0  0
  4  3  1  0  0  0
  3  2  1  0  0  0
  2  1  1  0  0  0
  1 20  1  0  0  0
 20 21  1  0  0  0
 21 22  1  0  0  0
 22 23  1  0  0  0
 23 24  1  0  0  0
 36 37  1  0  0  0
 36 38  1  0  0  0
 17 18  1  0  0  0
 17 19  1  0  0  0
M  CHG 1   8   1
M  CHG 1  34   1
M  END
> <minimizedAffinity>
-9.34500

$$$$
3ARP_DEQ_A_606


 38 41  0  0  0  0  0  0  0  0999 V2000
   15.0371   -8.5718   23.5982 C   0  0  0  0  0  0  0  0  0  0  0  0
   14.6097   -7.5429   24.7097 C   0  0  0  0  0  0  0  0  0  0  0  0
   13.1963   -7.8492   25.0541 C   0  0  0  0  0  0  0  0  0  0  0  0
   12.6070   -6.6101   25.7616 C   0  0  0  0  0  0  0  0  0  0  0  0
   11.1772   -6.5083   25.2081 C   0  0  0  0  0  0  0  0  0  0  0  0
   10.2051   -7.9950   21.7910 C   0  0  0  0  0  0  0  0  0  0  0  0
   10.3615   -7.8716   23.2041 C   0  0  0  0  0  0  0  0  0  0  0  0
   11.0528   -6.7941   23.7583 N   0  0  0  0  0  0  0  0  0  0  0  0
   11.7356   -5.8588   22.9313 C   0  0  0  0  0  0  0  0  0  0  0  0
   11.5940   -6.0292   21.5692 C   0  0  0  0  0  0  0  0  0  0  0  0
   10.8845   -7.0893   21.0004 C   0  0  0  0  0  0  0  0  0  0  0  0
    9.5202   -9.0420   21.2540 C   0  0  0  0  0  0  0  0  0  0  0  0
    8.9237   -9.9656   22.0755 C   0  0  0  0  0  0  0  0  0  0  0  0
    9.0631   -9.8526   23.4327 C   0  0  0  0  0  0  0  0  0  0  0  0
    9.7355   -8.8412   24.0373 C   0  0  0  0  0  0  0  0  0  0  0  0
   12.4852   -4.5878   23.4899 C   0  0  0  0  0  0  0  0  0  0  0  0
   10.8863   -7.0943   19.6597 N   0  0  0  0  0  0  0  0  0  0  0  0
   10.4117   -7.8040   19.1695 H   0  0  0  0  0  0  0  0  0  0  0  0
   11.3621   -6.3882   19.1654 H   0  0  0  0  0  0  0  0  0  0  0  0
   13.7973   -8.9979   22.7140 C   0  0  0  0  0  0  0  0  0  0  0  0
   14.1315   -9.6546   21.3209 C   0  0  0  0  0  0  0  0  0  0  0  0
   13.1413  -10.8591   20.9267 C   0  0  0  0  0  0  0  0  0  0  0  0
   14.0004  -11.9881   20.1982 C   0  0  0  0  0  0  0  0  0  0  0  0
   14.6335  -11.2363   19.1156 C   0  0  0  0  0  0  0  0  0  0  0  0
   17.2111  -10.4626   20.2575 C   0  0  0  0  0  0  0  0  0  0  0  0
   18.3631  -10.1229   20.9274 C   0  0  0  0  0  0  0  0  0  0  0  0
   19.5683  -10.7464   20.5536 C   0  0  0  0  0  0  0  0  0  0  0  0
   19.5995  -11.7651   19.5116 C   0  0  0  0  0  0  0  0  0  0  0  0
   17.2078  -11.4249   19.2720 C   0  0  0  0  0  0  0  0  0  0  0  0
   18.3789  -12.1279   18.9032 C   0  0  0  0  0  0  0  0  0  0  0  0
   18.3402  -13.0707   17.8664 C   0  0  0  0  0  0  0  0  0  0  0  0
   17.1517  -13.3900   17.2348 C   0  0  0  0  0  0  0  0  0  0  0  0
   15.9797  -12.7433   17.6278 C   0  0  0  0  0  0  0  0  0  0  0  0
   15.9893  -11.7669   18.6474 N   0  0  0  0  0  0  0  0  0  0  0  0
   14.6617  -13.1031   16.9136 C   0  0  0  0  0  0  0  0  0  0  0  0
   19.5090  -13.6780   17.4662 N   0  0  0  0  0  0  0  0  0  0  0  0
   20.3577  -13.4545   17.9123 H   0  0  0  0  0  0  0  0  0  0  0  0
   19.4963  -14.3359   16.7339 H   0  0  0  0  0  0  0  0  0  0  0  0
 25 26  2  0  0  0
 25 29  1  0  0  0
 26 27  1  0  0  0
 27 28  2  0  0  0
 28 30  1  0  0  0
 29 30  2  0  0  0
 29 34  1  0  0  0
 30 31  1  0  0  0
 31 32  2  0  0  0
 31 36  1  0  0  0
 32 33  1  0  0  0
 33 34  2  0  0  0
 33 35  1  0  0  0
 34 24  1  0  0  0
  6  7  2  0  0  0
  6 11  1  0  0  0
  6 12  1  0  0  0
  7  8  1  0  0  0
  7 15  1  0  0  0
  8  9  2  0  0  0
  8  5  1  0  0  0
  9 10  1  0  0  0
  9 16  1  0  0  0
 10 11  2  0  0  0
 11 17  1  0  0  0
 12 13  2  0  0  0
 13 14  1  0  0  0
 14 15  2  0  0  0
  5  4  1  0  0  0
  4  3  1  0  0  0
  3  2  1  0  0  0
  2  1  1  0  0  0
  1 20  1  0  0  0
 20 21  1  0  0  0
 21 22  1  0  0  0
 22 23  1  0  0  0
 23 24  1  0  0  0
 36 37  1  0  0  0
 36 38  1  0  0  0
 17 18  1  0  0  0
 17 19  1  0  0  0
M  CHG 1   8   1
M  CHG 1  34   1
M  END
> <minimizedAffinity>
-9.33941

$$$$
3ARP_DEQ_A_606


 38 41  0  0  0  0  0  0  0  0999 V2000
   10.9411   -3.0284   25.7676 C   0  0  0  0  0  0  0  0  0  0  0  0
   10.7946   -4.2172   24.7470 C   0  0  0  0  0  0  0  0  0  0  0  0
   11.5848   -5.3508   25.2955 C   0  0  0  0  0  0  0  0  0  0  0  0
   10.5890   -6.4349   25.7605 C   0  0  0  0  0  0  0  0  0  0  0  0
   11.1879   -7.7458   25.2275 C   0  0  0  0  0  0  0  0  0  0  0  0
    9.5169   -9.0171   21.9990 C   0  0  0  0  0  0  0  0  0  0  0  0
   10.2847   -8.1955   22.8776 C   0  0  0  0  0  0  0  0  0  0  0  0
   10.3371   -8.4612   24.2461 N   0  0  0  0  0  0  0  0  0  0  0  0
    9.5242   -9.4745   24.8269 C   0  0  0  0  0  0  0  0  0  0  0  0
    8.7656  -10.2260   23.9526 C   0  0  0  0  0  0  0  0  0  0  0  0
    8.7221   -9.9871   22.5772 C   0  0  0  0  0  0  0  0  0  0  0  0
    9.4770   -8.7615   20.6623 C   0  0  0  0  0  0  0  0  0  0  0  0
   10.2235   -7.7367   20.1370 C   0  0  0  0  0  0  0  0  0  0  0  0
   10.9679   -6.9464   20.9709 C   0  0  0  0  0  0  0  0  0  0  0  0
   11.0504   -7.1374   22.3116 C   0  0  0  0  0  0  0  0  0  0  0  0
    9.5782   -9.8646   26.3547 C   0  0  0  0  0  0  0  0  0  0  0  0
    7.9045  -10.8083   21.9030 N   0  0  0  0  0  0  0  0  0  0  0  0
    7.8086  -10.7157   20.9276 H   0  0  0  0  0  0  0  0  0  0  0  0
    7.4001  -11.5041   22.3833 H   0  0  0  0  0  0  0  0  0  0  0  0
    9.7791   -3.0560   26.8398 C   0  0  0  0  0  0  0  0  0  0  0  0
   10.2238   -2.9492   28.3480 C   0  0  0  0  0  0  0  0  0  0  0  0
   11.4957   -3.8659   28.7070 C   0  0  0  0  0  0  0  0  0  0  0  0
   11.1516   -4.6958   30.0248 C   0  0  0  0  0  0  0  0  0  0  0  0
    9.9511   -4.0146   30.5075 C   0  0  0  0  0  0  0  0  0  0  0  0
    9.2860   -6.8376   30.1408 C   0  0  0  0  0  0  0  0  0  0  0  0
    9.1175   -8.1884   29.9454 C   0  0  0  0  0  0  0  0  0  0  0  0
    8.4099   -8.9257   30.9132 C   0  0  0  0  0  0  0  0  0  0  0  0
    7.9018   -8.2910   32.1229 C   0  0  0  0  0  0  0  0  0  0  0  0
    8.8218   -6.2103   31.2758 C   0  0  0  0  0  0  0  0  0  0  0  0
    8.1618   -6.9165   32.3089 C   0  0  0  0  0  0  0  0  0  0  0  0
    7.6686   -6.2326   33.4289 C   0  0  0  0  0  0  0  0  0  0  0  0
    7.8794   -4.8747   33.5873 C   0  0  0  0  0  0  0  0  0  0  0  0
    8.5777   -4.1772   32.6013 C   0  0  0  0  0  0  0  0  0  0  0  0
    9.0611   -4.8300   31.4466 N   0  0  0  0  0  0  0  0  0  0  0  0
    8.8025   -2.6632   32.7855 C   0  0  0  0  0  0  0  0  0  0  0  0
    6.9533   -6.9264   34.3788 N   0  0  0  0  0  0  0  0  0  0  0  0
    6.8003   -7.8929   34.2711 H   0  0  0  0  0  0  0  0  0  0  0  0
    6.5948   -6.4560   35.1659 H   0  0  0  0  0  0  0  0  0  0  0  0
 25 26  2  0  0  0
 25 29  1  0  0  0
 26 27  1  0  0  0
 27 28  2  0  0  0
 28 30  1  0  0  0
 29 30  2  0  0  0
 29 34  1  0  0  0
 30 31  1  0  0  0
 31 32  2  0  0  0
 31 36  1  0  0  0
 32 33  1  0  0  0
 33 34  2  0  0  0
 33 35  1  0  0  0
 34 24  1  0  0  0
  6  7  2  0  0  0
  6 11  1  0  0  0
  6 12  1  0  0  0
  7  8  1  0  0  0
  7 15  1  0  0  0
  8  9  2  0  0  0
  8  5  1  0  0  0
  9 10  1  0  0  0
  9 16  1  0  0  0
 10 11  2  0  0  0
 11 17  1  0  0  0
 12 13  2  0  0  0
 13 14  1  0  0  0
 14 15  2  0  0  0
  5  4  1  0  0  0
  4  3  1  0  0  0
  3  2  1  0  0  0
  2  1  1  0  0  0
  1 20  1  0  0  0
 20 21  1  0  0  0
 21 22  1  0  0  0
 22 23  1  0  0  0
 23 24  1  0  0  0
 36 37  1  0  0  0
 36 38  1  0  0  0
 17 18  1  0  0  0
 17 19  1  0  0  0
M  CHG 1   8   1
M  CHG 1  34   1
M  END
> <minimizedAffinity>
-9.30087

$$$$
3ARP_DEQ_A_606


 38 41  0  0  0  0  0  0  0  0999 V2000
   15.5202   -8.3341   23.9977 C   0  0  0  0  0  0  0  0  0  0  0  0
   14.9463   -7.5133   25.2116 C   0  0  0  0  0  0  0  0  0  0  0  0
   13.5581   -7.1259   24.8468 C   0  0  0  0  0  0  0  0  0  0  0  0
   12.5940   -8.0268   25.6480 C   0  0  0  0  0  0  0  0  0  0  0  0
   11.2030   -7.4489   25.3445 C   0  0  0  0  0  0  0  0  0  0  0  0
    9.7508   -8.7869   22.0380 C   0  0  0  0  0  0  0  0  0  0  0  0
   10.4412   -7.9361   22.9523 C   0  0  0  0  0  0  0  0  0  0  0  0
   10.4313   -8.1969   24.3227 N   0  0  0  0  0  0  0  0  0  0  0  0
    9.6263   -9.2378   24.8642 C   0  0  0  0  0  0  0  0  0  0  0  0
    8.9423  -10.0182   23.9544 C   0  0  0  0  0  0  0  0  0  0  0  0
    8.9624   -9.7840   22.5777 C   0  0  0  0  0  0  0  0  0  0  0  0
    9.7719   -8.5357   20.7000 C   0  0  0  0  0  0  0  0  0  0  0  0
   10.5072   -7.4854   20.2104 C   0  0  0  0  0  0  0  0  0  0  0  0
   11.1777   -6.6669   21.0790 C   0  0  0  0  0  0  0  0  0  0  0  0
   11.1967   -6.8520   22.4229 C   0  0  0  0  0  0  0  0  0  0  0  0
    9.6143   -9.6225   26.3943 C   0  0  0  0  0  0  0  0  0  0  0  0
    8.2116  -10.6358   21.8648 N   0  0  0  0  0  0  0  0  0  0  0  0
    8.1637  -10.5487   20.8854 H   0  0  0  0  0  0  0  0  0  0  0  0
    7.7083  -11.3485   22.3209 H   0  0  0  0  0  0  0  0  0  0  0  0
   14.6505   -8.1045   22.6971 C   0  0  0  0  0  0  0  0  0  0  0  0
   14.8428   -9.1560   21.5391 C   0  0  0  0  0  0  0  0  0  0  0  0
   13.6702  -10.2547   21.4705 C   0  0  0  0  0  0  0  0  0  0  0  0
   14.0750  -11.3433   20.3775 C   0  0  0  0  0  0  0  0  0  0  0  0
   15.2345  -10.7188   19.7423 C   0  0  0  0  0  0  0  0  0  0  0  0
   14.6225  -12.7576   17.7385 C   0  0  0  0  0  0  0  0  0  0  0  0
   14.2623  -13.6109   16.7219 C   0  0  0  0  0  0  0  0  0  0  0  0
   15.2651  -14.3767   16.0984 C   0  0  0  0  0  0  0  0  0  0  0  0
   16.6649  -14.2431   16.4819 C   0  0  0  0  0  0  0  0  0  0  0  0
   15.9374  -12.6058   18.1199 C   0  0  0  0  0  0  0  0  0  0  0  0
   16.9907  -13.3027   17.4824 C   0  0  0  0  0  0  0  0  0  0  0  0
   18.3108  -13.1504   17.9290 C   0  0  0  0  0  0  0  0  0  0  0  0
   18.6241  -12.2654   18.9449 C   0  0  0  0  0  0  0  0  0  0  0  0
   17.6005  -11.5309   19.5442 C   0  0  0  0  0  0  0  0  0  0  0  0
   16.2567  -11.6831   19.1390 N   0  0  0  0  0  0  0  0  0  0  0  0
   17.9602  -10.5513   20.6789 C   0  0  0  0  0  0  0  0  0  0  0  0
   19.3071  -13.9047   17.3513 N   0  0  0  0  0  0  0  0  0  0  0  0
   19.0897  -14.5361   16.6279 H   0  0  0  0  0  0  0  0  0  0  0  0
   20.2369  -13.8128   17.6615 H   0  0  0  0  0  0  0  0  0  0  0  0
 25 26  2  0  0  0
 25 29  1  0  0  0
 26 27  1  0  0  0
 27 28  2  0  0  0
 28 30  1  0  0  0
 29 30  2  0  0  0
 29 34  1  0  0  0
 30 31  1  0  0  0
 31 32  2  0  0  0
 31 36  1  0  0  0
 32 33  1  0  0  0
 33 34  2  0  0  0
 33 35  1  0  0  0
 34 24  1  0  0  0
  6  7  2  0  0  0
  6 11  1  0  0  0
  6 12  1  0  0  0
  7  8  1  0  0  0
  7 15  1  0  0  0
  8  9  2  0  0  0
  8  5  1  0  0  0
  9 10  1  0  0  0
  9 16  1  0  0  0
 10 11  2  0  0  0
 11 17  1  0  0  0
 12 13  2  0  0  0
 13 14  1  0  0  0
 14 15  2  0  0  0
  5  4  1  0  0  0
  4  3  1  0  0  0
  3  2  1  0  0  0
  2  1  1  0  0  0
  1 20  1  0  0  0
 20 21  1  0  0  0
 21 22  1  0  0  0
 22 23  1  0  0  0
 23 24  1  0  0  0
 36 37  1  0  0  0
 36 38  1  0  0  0
 17 18  1  0  0  0
 17 19  1  0  0  0
M  CHG 1   8   1
M  CHG 1  34   1
M  END
> <minimizedAffinity>
-9.28639

$$$$
3ARP_DEQ_A_606


 38 41  0  0  0  0  0  0  0  0999 V2000
   15.5816   -7.1013   26.6417 C   0  0  0  0  0  0  0  0  0  0  0  0
   16.4082   -6.1516   25.6975 C   0  0  0  0  0  0  0  0  0  0  0  0
   15.8321   -6.2974   24.3348 C   0  0  0  0  0  0  0  0  0  0  0  0
   16.8943   -6.9811   23.4474 C   0  0  0  0  0  0  0  0  0  0  0  0
   16.5650   -8.4780   23.5562 C   0  0  0  0  0  0  0  0  0  0  0  0
   17.9291  -10.5403   20.6035 C   0  0  0  0  0  0  0  0  0  0  0  0
   17.9108   -9.7221   21.7726 C   0  0  0  0  0  0  0  0  0  0  0  0
   16.7097   -9.2373   22.2907 N   0  0  0  0  0  0  0  0  0  0  0  0
   15.4821   -9.4312   21.5977 C   0  0  0  0  0  0  0  0  0  0  0  0
   15.5416  -10.1960   20.4505 C   0  0  0  0  0  0  0  0  0  0  0  0
   16.7335  -10.7084   19.9333 C   0  0  0  0  0  0  0  0  0  0  0  0
   19.1023  -11.0209   20.1071 C   0  0  0  0  0  0  0  0  0  0  0  0
   20.2807  -10.7654   20.7624 C   0  0  0  0  0  0  0  0  0  0  0  0
   20.2730   -9.9863   21.8880 C   0  0  0  0  0  0  0  0  0  0  0  0
   19.1447   -9.4689   22.4358 C   0  0  0  0  0  0  0  0  0  0  0  0
   14.0835   -8.9610   22.1563 C   0  0  0  0  0  0  0  0  0  0  0  0
   16.5849  -11.4024   18.7960 N   0  0  0  0  0  0  0  0  0  0  0  0
   17.3703  -11.8020   18.3570 H   0  0  0  0  0  0  0  0  0  0  0  0
   15.6904  -11.5125   18.3998 H   0  0  0  0  0  0  0  0  0  0  0  0
   14.4290   -6.3061   27.3763 C   0  0  0  0  0  0  0  0  0  0  0  0
   12.9594   -6.6143   26.8978 C   0  0  0  0  0  0  0  0  0  0  0  0
   12.8287   -7.9912   26.0769 C   0  0  0  0  0  0  0  0  0  0  0  0
   11.2783   -8.3349   25.9303 C   0  0  0  0  0  0  0  0  0  0  0  0
   10.7763   -7.1690   25.2045 C   0  0  0  0  0  0  0  0  0  0  0  0
    9.4157   -9.2027   23.6048 C   0  0  0  0  0  0  0  0  0  0  0  0
    8.6544  -10.1294   22.9317 C   0  0  0  0  0  0  0  0  0  0  0  0
    8.6296  -10.0868   21.5251 C   0  0  0  0  0  0  0  0  0  0  0  0
    9.3541   -9.0588   20.7883 C   0  0  0  0  0  0  0  0  0  0  0  0
   10.1072   -8.2164   22.9369 C   0  0  0  0  0  0  0  0  0  0  0  0
   10.0636   -8.0891   21.5285 C   0  0  0  0  0  0  0  0  0  0  0  0
   10.8154   -7.0961   20.8851 C   0  0  0  0  0  0  0  0  0  0  0  0
   11.5522   -6.1759   21.6088 C   0  0  0  0  0  0  0  0  0  0  0  0
   11.5586   -6.2569   23.0016 C   0  0  0  0  0  0  0  0  0  0  0  0
   10.8370   -7.2635   23.6793 N   0  0  0  0  0  0  0  0  0  0  0  0
   12.3872   -5.2295   23.7981 C   0  0  0  0  0  0  0  0  0  0  0  0
   10.8264   -7.0469   19.5093 N   0  0  0  0  0  0  0  0  0  0  0  0
   10.3038   -7.6994   18.9892 H   0  0  0  0  0  0  0  0  0  0  0  0
   11.3568   -6.3593   19.0455 H   0  0  0  0  0  0  0  0  0  0  0  0
 25 26  2  0  0  0
 25 29  1  0  0  0
 26 27  1  0  0  0
 27 28  2  0  0  0
 28 30  1  0  0  0
 29 30  2  0  0  0
 29 34  1  0  0  0
 30 31  1  0  0  0
 31 32  2  0  0  0
 31 36  1  0  0  0
 32 33  1  0  0  0
 33 34  2  0  0  0
 33 35  1  0  0  0
 34 24  1  0  0  0
  6  7  2  0  0  0
  6 11  1  0  0  0
  6 12  1  0  0  0
  7  8  1  0  0  0
  7 15  1  0  0  0
  8  9  2  0  0  0
  8  5  1  0  0  0
  9 10  1  0  0  0
  9 16  1  0  0  0
 10 11  2  0  0  0
 11 17  1  0  0  0
 12 13  2  0  0  0
 13 14  1  0  0  0
 14 15  2  0  0  0
  5  4  1  0  0  0
  4  3  1  0  0  0
  3  2  1  0  0  0
  2  1  1  0  0  0
  1 20  1  0  0  0
 20 21  1  0  0  0
 21 22  1  0  0  0
 22 23  1  0  0  0
 23 24  1  0  0  0
 36 37  1  0  0  0
 36 38  1  0  0  0
 17 18  1  0  0  0
 17 19  1  0  0  0
M  CHG 1   8   1
M  CHG 1  34   1
M  END
> <minimizedAffinity>
-9.26560

$$$$
