4AGO_P74_A_1292


 33 34  0  0  0  0  0  0  0  0999 V2000
   91.3549   93.0696  -45.7808 C   0  0  0  0  0  0  0  0  0  0  0  0
   90.7532   95.3045  -45.0688 C   0  0  0  0  0  0  0  0  0  0  0  0
   91.2088   96.0089  -42.8269 O   0  0  0  0  0  0  0  0  0  0  0  0
   91.8770   92.7746  -44.5178 C   0  0  0  0  0  0  0  0  0  0  0  0
   90.8058   94.3334  -46.0639 C   0  0  0  0  0  0  0  0  0  0  0  0
   91.8108   93.7647  -43.5371 C   0  0  0  0  0  0  0  0  0  0  0  0
   91.2634   95.0359  -43.7748 C   0  0  0  0  0  0  0  0  0  0  0  0
   92.5705   93.3572  -41.5870 I   0  0  0  0  0  0  0  0  0  0  0  0
   90.8338   96.8427  -43.0324 H   0  0  0  0  0  0  0  0  0  0  0  0
   91.3558   92.1524  -46.8720 C   0  0  0  0  0  0  0  0  0  0  0  0
   91.4127   91.3773  -47.7795 C   0  0  0  0  0  0  0  0  0  0  0  0
   91.4852   90.4178  -48.8857 C   0  0  0  0  0  0  0  0  0  0  0  0
   91.3524   91.1604  -50.1194 N   0  0  0  0  0  0  0  0  0  0  0  0
   90.2254   91.0690  -50.8858 C   0  0  0  0  0  0  0  0  0  0  0  0
   89.3505   90.2335  -50.7170 O   0  0  0  0  0  0  0  0  0  0  0  0
   92.0892   91.7437  -50.4129 H   0  0  0  0  0  0  0  0  0  0  0  0
   90.2370   92.0804  -51.7865 O   0  0  0  0  0  0  0  0  0  0  0  0
   89.2402   93.1367  -51.7512 C   0  0  0  0  0  0  0  0  0  0  0  0
   89.9442   94.3327  -52.4033 C   0  0  0  0  0  0  0  0  0  0  0  0
   88.8675   93.5361  -50.3170 C   0  0  0  0  0  0  0  0  0  0  0  0
   88.0053   92.7551  -52.5763 C   0  0  0  0  0  0  0  0  0  0  0  0
   90.1374   96.6382  -45.3897 C   0  0  0  0  0  0  0  0  0  0  0  0
   90.6640   97.7394  -44.5456 N   0  0  0  0  0  0  0  0  0  0  0  0
   89.5462   98.6346  -44.0960 C   0  0  0  0  0  0  0  0  0  0  0  0
   90.1227   99.6675  -43.1452 C   0  0  0  0  0  0  0  0  0  0  0  0
   91.1381  100.4934  -43.9210 C   0  0  0  0  0  0  0  0  0  0  0  0
   92.2992   99.5842  -44.3651 C   0  0  0  0  0  0  0  0  0  0  0  0
   91.7336   98.5003  -45.2637 C   0  0  0  0  0  0  0  0  0  0  0  0
   91.6538  101.6339  -43.0231 N   0  0  0  0  0  0  0  0  0  0  0  0
   91.1410  101.5952  -41.5774 C   0  0  0  0  0  0  0  0  0  0  0  0
   92.3094  101.3301  -40.6459 C   0  0  0  0  0  0  0  0  0  0  0  0
   93.1242  102.0257  -43.1019 C   0  0  0  0  0  0  0  0  0  0  0  0
   93.3801  103.4360  -43.6193 C   0  0  0  0  0  0  0  0  0  0  0  0
  1 10  1  0  0  0
  1  4  1  0  0  0
  1  5  2  0  0  0
 10 11  3  0  0  0
 11 12  1  0  0  0
 12 13  1  0  0  0
 13 14  1  0  0  0
  2 22  1  0  0  0
  2  5  1  0  0  0
  2  7  2  0  0  0
 23 22  1  0  0  0
 23 24  1  0  0  0
 23 28  1  0  0  0
  3  7  1  0  0  0
  4  6  2  0  0  0
 29 26  1  0  0  0
 29 30  1  0  0  0
 29 32  1  0  0  0
 24 25  1  0  0  0
  6  7  1  0  0  0
  6  8  1  0  0  0
 25 26  1  0  0  0
 26 27  1  0  0  0
 30 31  1  0  0  0
 32 33  1  0  0  0
 27 28  1  0  0  0
 14 17  1  0  0  0
 14 15  2  0  0  0
 17 18  1  0  0  0
 18 19  1  0  0  0
 18 20  1  0  0  0
 18 21  1  0  0  0
 13 16  1  0  0  0
  3  9  1  0  0  0
M  END
> <minimizedAffinity>
-6.81719

$$$$
4AGO_P74_A_1292


 33 34  0  0  0  0  0  0  0  0999 V2000
   91.3622   93.1043  -45.8216 C   0  0  0  0  0  0  0  0  0  0  0  0
   90.7532   95.3306  -45.0890 C   0  0  0  0  0  0  0  0  0  0  0  0
   91.1944   96.0111  -42.8369 O   0  0  0  0  0  0  0  0  0  0  0  0
   91.8770   92.7962  -44.5588 C   0  0  0  0  0  0  0  0  0  0  0  0
   90.8131   94.3704  -46.0943 C   0  0  0  0  0  0  0  0  0  0  0  0
   91.8036   93.7755  -43.5677 C   0  0  0  0  0  0  0  0  0  0  0  0
   91.2559   95.0485  -43.7950 C   0  0  0  0  0  0  0  0  0  0  0  0
   92.5521   93.3477  -41.6176 I   0  0  0  0  0  0  0  0  0  0  0  0
   90.8195   96.8465  -43.0355 H   0  0  0  0  0  0  0  0  0  0  0  0
   91.3708   92.1990  -46.9227 C   0  0  0  0  0  0  0  0  0  0  0  0
   91.3359   91.4113  -47.8204 C   0  0  0  0  0  0  0  0  0  0  0  0
   91.2825   90.4486  -48.9249 C   0  0  0  0  0  0  0  0  0  0  0  0
   90.2034   89.5259  -48.6502 N   0  0  0  0  0  0  0  0  0  0  0  0
   89.4544   88.9884  -49.6582 C   0  0  0  0  0  0  0  0  0  0  0  0
   89.4882   89.3763  -50.8159 O   0  0  0  0  0  0  0  0  0  0  0  0
   90.0045   89.2801  -47.7179 H   0  0  0  0  0  0  0  0  0  0  0  0
   88.7481   87.9466  -49.1579 O   0  0  0  0  0  0  0  0  0  0  0  0
   87.3106   87.8484  -49.3434 C   0  0  0  0  0  0  0  0  0  0  0  0
   86.8525   86.9248  -48.2082 C   0  0  0  0  0  0  0  0  0  0  0  0
   86.9409   87.1769  -50.6730 C   0  0  0  0  0  0  0  0  0  0  0  0
   86.6415   89.2198  -49.1915 C   0  0  0  0  0  0  0  0  0  0  0  0
   90.1375   96.6668  -45.3991 C   0  0  0  0  0  0  0  0  0  0  0  0
   90.6686   97.7621  -44.5501 N   0  0  0  0  0  0  0  0  0  0  0  0
   89.5525   98.6508  -44.0835 C   0  0  0  0  0  0  0  0  0  0  0  0
   90.1345   99.6769  -43.1288 C   0  0  0  0  0  0  0  0  0  0  0  0
   91.1413  100.5119  -43.9060 C   0  0  0  0  0  0  0  0  0  0  0  0
   92.3008   99.6094  -44.3677 C   0  0  0  0  0  0  0  0  0  0  0  0
   91.7303   98.5317  -45.2706 C   0  0  0  0  0  0  0  0  0  0  0  0
   91.6618  101.6461  -43.0029 N   0  0  0  0  0  0  0  0  0  0  0  0
   91.1511  101.6012  -41.5567 C   0  0  0  0  0  0  0  0  0  0  0  0
   92.3286  101.3871  -40.6234 C   0  0  0  0  0  0  0  0  0  0  0  0
   93.1333  102.0338  -43.0818 C   0  0  0  0  0  0  0  0  0  0  0  0
   93.4004  103.3896  -43.7241 C   0  0  0  0  0  0  0  0  0  0  0  0
  1 10  1  0  0  0
  1  4  1  0  0  0
  1  5  2  0  0  0
 10 11  3  0  0  0
 11 12  1  0  0  0
 12 13  1  0  0  0
 13 14  1  0  0  0
  2 22  1  0  0  0
  2  5  1  0  0  0
  2  7  2  0  0  0
 23 22  1  0  0  0
 23 24  1  0  0  0
 23 28  1  0  0  0
  3  7  1  0  0  0
  4  6  2  0  0  0
 29 26  1  0  0  0
 29 30  1  0  0  0
 29 32  1  0  0  0
 24 25  1  0  0  0
  6  7  1  0  0  0
  6  8  1  0  0  0
 25 26  1  0  0  0
 26 27  1  0  0  0
 30 31  1  0  0  0
 32 33  1  0  0  0
 27 28  1  0  0  0
 14 17  1  0  0  0
 14 15  2  0  0  0
 17 18  1  0  0  0
 18 19  1  0  0  0
 18 20  1  0  0  0
 18 21  1  0  0  0
 13 16  1  0  0  0
  3  9  1  0  0  0
M  END
> <minimizedAffinity>
-6.70214

$$$$
4AGO_P74_A_1292


 33 34  0  0  0  0  0  0  0  0999 V2000
   90.3871   95.2448  -45.9341 C   0  0  0  0  0  0  0  0  0  0  0  0
   90.4479   97.1532  -44.4448 C   0  0  0  0  0  0  0  0  0  0  0  0
   89.0408   99.0436  -44.8651 O   0  0  0  0  0  0  0  0  0  0  0  0
   89.4120   95.8563  -46.7279 C   0  0  0  0  0  0  0  0  0  0  0  0
   90.8968   95.8817  -44.7880 C   0  0  0  0  0  0  0  0  0  0  0  0
   88.9799   97.1318  -46.3633 C   0  0  0  0  0  0  0  0  0  0  0  0
   89.4684   97.8065  -45.2327 C   0  0  0  0  0  0  0  0  0  0  0  0
   87.5123   98.1186  -47.5543 I   0  0  0  0  0  0  0  0  0  0  0  0
   89.3964   99.4545  -44.1018 H   0  0  0  0  0  0  0  0  0  0  0  0
   90.9185   93.9473  -46.1916 C   0  0  0  0  0  0  0  0  0  0  0  0
   91.3109   92.8420  -46.4190 C   0  0  0  0  0  0  0  0  0  0  0  0
   91.7897   91.4869  -46.7093 C   0  0  0  0  0  0  0  0  0  0  0  0
   91.8866   91.3548  -48.1461 N   0  0  0  0  0  0  0  0  0  0  0  0
   90.9703   90.6325  -48.8564 C   0  0  0  0  0  0  0  0  0  0  0  0
   90.1404   89.8940  -48.3486 O   0  0  0  0  0  0  0  0  0  0  0  0
   92.6279   91.7943  -48.6219 H   0  0  0  0  0  0  0  0  0  0  0  0
   91.1137   90.9323  -50.1694 O   0  0  0  0  0  0  0  0  0  0  0  0
   90.1645   91.7898  -50.8580 C   0  0  0  0  0  0  0  0  0  0  0  0
   89.2179   90.8076  -51.5585 C   0  0  0  0  0  0  0  0  0  0  0  0
   90.8349   92.6479  -51.9394 C   0  0  0  0  0  0  0  0  0  0  0  0
   89.3722   92.6446  -49.8613 C   0  0  0  0  0  0  0  0  0  0  0  0
   91.0278   97.8229  -43.2299 C   0  0  0  0  0  0  0  0  0  0  0  0
   91.2743   99.2730  -43.4280 N   0  0  0  0  0  0  0  0  0  0  0  0
   92.4886   99.4852  -44.2845 C   0  0  0  0  0  0  0  0  0  0  0  0
   92.6236  100.9731  -44.5509 C   0  0  0  0  0  0  0  0  0  0  0  0
   92.8340  101.6647  -43.2121 C   0  0  0  0  0  0  0  0  0  0  0  0
   91.5813  101.4698  -42.3374 C   0  0  0  0  0  0  0  0  0  0  0  0
   91.3871   99.9815  -42.1151 C   0  0  0  0  0  0  0  0  0  0  0  0
   93.1007  103.1625  -43.4533 N   0  0  0  0  0  0  0  0  0  0  0  0
   94.5171  103.6290  -43.0920 C   0  0  0  0  0  0  0  0  0  0  0  0
   94.7932  103.2903  -41.6386 C   0  0  0  0  0  0  0  0  0  0  0  0
   92.5947  103.8027  -44.7401 C   0  0  0  0  0  0  0  0  0  0  0  0
   91.3638  104.6849  -44.5706 C   0  0  0  0  0  0  0  0  0  0  0  0
  1 10  1  0  0  0
  1  4  1  0  0  0
  1  5  2  0  0  0
 10 11  3  0  0  0
 11 12  1  0  0  0
 12 13  1  0  0  0
 13 14  1  0  0  0
  2 22  1  0  0  0
  2  5  1  0  0  0
  2  7  2  0  0  0
 23 22  1  0  0  0
 23 24  1  0  0  0
 23 28  1  0  0  0
  3  7  1  0  0  0
  4  6  2  0  0  0
 29 26  1  0  0  0
 29 30  1  0  0  0
 29 32  1  0  0  0
 24 25  1  0  0  0
  6  7  1  0  0  0
  6  8  1  0  0  0
 25 26  1  0  0  0
 26 27  1  0  0  0
 30 31  1  0  0  0
 32 33  1  0  0  0
 27 28  1  0  0  0
 14 17  1  0  0  0
 14 15  2  0  0  0
 17 18  1  0  0  0
 18 19  1  0  0  0
 18 20  1  0  0  0
 18 21  1  0  0  0
 13 16  1  0  0  0
  3  9  1  0  0  0
M  END
> <minimizedAffinity>
-5.83339

$$$$
4AGO_P74_A_1292


 33 34  0  0  0  0  0  0  0  0999 V2000
   90.6966   95.0641  -45.5767 C   0  0  0  0  0  0  0  0  0  0  0  0
   89.2904   96.9500  -46.1511 C   0  0  0  0  0  0  0  0  0  0  0  0
   89.2410   98.8800  -44.7360 O   0  0  0  0  0  0  0  0  0  0  0  0
   91.1552   95.7165  -44.4282 C   0  0  0  0  0  0  0  0  0  0  0  0
   89.7773   95.6802  -46.4452 C   0  0  0  0  0  0  0  0  0  0  0  0
   90.6504   96.9882  -44.1550 C   0  0  0  0  0  0  0  0  0  0  0  0
   89.7256   97.6355  -44.9903 C   0  0  0  0  0  0  0  0  0  0  0  0
   91.2987   98.0161  -42.4030 I   0  0  0  0  0  0  0  0  0  0  0  0
   88.6246   99.2717  -45.3231 H   0  0  0  0  0  0  0  0  0  0  0  0
   91.1266   93.7644  -45.9741 C   0  0  0  0  0  0  0  0  0  0  0  0
   91.4323   92.6595  -46.3105 C   0  0  0  0  0  0  0  0  0  0  0  0
   91.8028   91.3056  -46.7340 C   0  0  0  0  0  0  0  0  0  0  0  0
   91.8872   91.3057  -48.1776 N   0  0  0  0  0  0  0  0  0  0  0  0
   90.9280   90.7085  -48.9453 C   0  0  0  0  0  0  0  0  0  0  0  0
   90.0582   89.9741  -48.5027 O   0  0  0  0  0  0  0  0  0  0  0  0
   92.6514   91.7450  -48.6161 H   0  0  0  0  0  0  0  0  0  0  0  0
   91.0846   91.1233  -50.2251 O   0  0  0  0  0  0  0  0  0  0  0  0
   90.0062   91.7778  -50.9457 C   0  0  0  0  0  0  0  0  0  0  0  0
   90.7228   92.5716  -52.0447 C   0  0  0  0  0  0  0  0  0  0  0  0
   89.2427   92.7775  -50.0665 C   0  0  0  0  0  0  0  0  0  0  0  0
   89.0674   90.7475  -51.5852 C   0  0  0  0  0  0  0  0  0  0  0  0
   88.2887   97.5753  -47.0818 C   0  0  0  0  0  0  0  0  0  0  0  0
   87.9827   96.7273  -48.2607 N   0  0  0  0  0  0  0  0  0  0  0  0
   88.3197   97.4543  -49.5300 C   0  0  0  0  0  0  0  0  0  0  0  0
   88.0998   96.5023  -50.6912 C   0  0  0  0  0  0  0  0  0  0  0  0
   86.6248   96.1296  -50.7099 C   0  0  0  0  0  0  0  0  0  0  0  0
   86.2784   95.3628  -49.4198 C   0  0  0  0  0  0  0  0  0  0  0  0
   86.5569   96.2743  -48.2391 C   0  0  0  0  0  0  0  0  0  0  0  0
   86.3380   95.2630  -51.9507 N   0  0  0  0  0  0  0  0  0  0  0  0
   87.5827   94.8497  -52.7472 C   0  0  0  0  0  0  0  0  0  0  0  0
   87.4382   95.3366  -54.1773 C   0  0  0  0  0  0  0  0  0  0  0  0
   85.3237   94.1313  -51.8401 C   0  0  0  0  0  0  0  0  0  0  0  0
   85.9059   92.7349  -52.0225 C   0  0  0  0  0  0  0  0  0  0  0  0
  1 10  1  0  0  0
  1  4  1  0  0  0
  1  5  2  0  0  0
 10 11  3  0  0  0
 11 12  1  0  0  0
 12 13  1  0  0  0
 13 14  1  0  0  0
  2 22  1  0  0  0
  2  5  1  0  0  0
  2  7  2  0  0  0
 23 22  1  0  0  0
 23 24  1  0  0  0
 23 28  1  0  0  0
  3  7  1  0  0  0
  4  6  2  0  0  0
 29 26  1  0  0  0
 29 30  1  0  0  0
 29 32  1  0  0  0
 24 25  1  0  0  0
  6  7  1  0  0  0
  6  8  1  0  0  0
 25 26  1  0  0  0
 26 27  1  0  0  0
 30 31  1  0  0  0
 32 33  1  0  0  0
 27 28  1  0  0  0
 14 17  1  0  0  0
 14 15  2  0  0  0
 17 18  1  0  0  0
 18 19  1  0  0  0
 18 20  1  0  0  0
 18 21  1  0  0  0
 13 16  1  0  0  0
  3  9  1  0  0  0
M  END
> <minimizedAffinity>
-5.74597

$$$$
4AGO_P74_A_1292


 33 34  0  0  0  0  0  0  0  0999 V2000
   90.4373   95.7179  -45.8467 C   0  0  0  0  0  0  0  0  0  0  0  0
   91.0756   97.9185  -45.0632 C   0  0  0  0  0  0  0  0  0  0  0  0
   89.4960   99.7158  -45.1276 O   0  0  0  0  0  0  0  0  0  0  0  0
   89.1493   96.1671  -46.1538 C   0  0  0  0  0  0  0  0  0  0  0  0
   91.3965   96.5838  -45.2908 C   0  0  0  0  0  0  0  0  0  0  0  0
   88.8533   97.5099  -45.9176 C   0  0  0  0  0  0  0  0  0  0  0  0
   89.7834   98.4098  -45.3725 C   0  0  0  0  0  0  0  0  0  0  0  0
   86.9112   98.2513  -46.3917 I   0  0  0  0  0  0  0  0  0  0  0  0
   90.1498  100.2789  -44.7625 H   0  0  0  0  0  0  0  0  0  0  0  0
   90.8742   94.3746  -46.0387 C   0  0  0  0  0  0  0  0  0  0  0  0
   91.1858   93.2325  -46.1994 C   0  0  0  0  0  0  0  0  0  0  0  0
   91.5634   91.8311  -46.4072 C   0  0  0  0  0  0  0  0  0  0  0  0
   91.8021   91.6467  -47.8215 N   0  0  0  0  0  0  0  0  0  0  0  0
   90.9730   90.8775  -48.5875 C   0  0  0  0  0  0  0  0  0  0  0  0
   90.1116   90.1403  -48.1330 O   0  0  0  0  0  0  0  0  0  0  0  0
   92.5779   92.0844  -48.2407 H   0  0  0  0  0  0  0  0  0  0  0  0
   91.2380   91.1303  -49.8914 O   0  0  0  0  0  0  0  0  0  0  0  0
   90.2193   91.6593  -50.7819 C   0  0  0  0  0  0  0  0  0  0  0  0
   89.3913   92.5894  -49.8871 C   0  0  0  0  0  0  0  0  0  0  0  0
   89.2848   90.5633  -51.3118 C   0  0  0  0  0  0  0  0  0  0  0  0
   90.8510   92.4698  -51.9202 C   0  0  0  0  0  0  0  0  0  0  0  0
   92.1271   98.8294  -44.4928 C   0  0  0  0  0  0  0  0  0  0  0  0
   91.5571   99.9953  -43.7728 N   0  0  0  0  0  0  0  0  0  0  0  0
   92.3711  101.2270  -44.0442 C   0  0  0  0  0  0  0  0  0  0  0  0
   91.6790  102.4046  -43.3831 C   0  0  0  0  0  0  0  0  0  0  0  0
   91.6568  102.1452  -41.8841 C   0  0  0  0  0  0  0  0  0  0  0  0
   90.8035  100.8954  -41.5976 C   0  0  0  0  0  0  0  0  0  0  0  0
   91.4405   99.7155  -42.3077 C   0  0  0  0  0  0  0  0  0  0  0  0
   91.0739  103.3773  -41.1665 N   0  0  0  0  0  0  0  0  0  0  0  0
   90.1682  104.2588  -42.0366 C   0  0  0  0  0  0  0  0  0  0  0  0
   88.7333  104.1096  -41.5653 C   0  0  0  0  0  0  0  0  0  0  0  0
   90.5334  103.2177  -39.7508 C   0  0  0  0  0  0  0  0  0  0  0  0
   91.5954  103.2372  -38.6582 C   0  0  0  0  0  0  0  0  0  0  0  0
  1 10  1  0  0  0
  1  4  1  0  0  0
  1  5  2  0  0  0
 10 11  3  0  0  0
 11 12  1  0  0  0
 12 13  1  0  0  0
 13 14  1  0  0  0
  2 22  1  0  0  0
  2  5  1  0  0  0
  2  7  2  0  0  0
 23 22  1  0  0  0
 23 24  1  0  0  0
 23 28  1  0  0  0
  3  7  1  0  0  0
  4  6  2  0  0  0
 29 26  1  0  0  0
 29 30  1  0  0  0
 29 32  1  0  0  0
 24 25  1  0  0  0
  6  7  1  0  0  0
  6  8  1  0  0  0
 25 26  1  0  0  0
 26 27  1  0  0  0
 30 31  1  0  0  0
 32 33  1  0  0  0
 27 28  1  0  0  0
 14 17  1  0  0  0
 14 15  2  0  0  0
 17 18  1  0  0  0
 18 19  1  0  0  0
 18 20  1  0  0  0
 18 21  1  0  0  0
 13 16  1  0  0  0
  3  9  1  0  0  0
M  END
> <minimizedAffinity>
-5.30800

$$$$
4AGO_P74_A_1292


 33 34  0  0  0  0  0  0  0  0999 V2000
   88.3734   97.9670  -45.0547 C   0  0  0  0  0  0  0  0  0  0  0  0
   87.8942   99.7086  -43.4420 C   0  0  0  0  0  0  0  0  0  0  0  0
   85.9893  101.1266  -43.7435 O   0  0  0  0  0  0  0  0  0  0  0  0
   87.2506   98.3159  -45.8113 C   0  0  0  0  0  0  0  0  0  0  0  0
   88.6907   98.6496  -43.8664 C   0  0  0  0  0  0  0  0  0  0  0  0
   86.4693   99.3823  -45.3653 C   0  0  0  0  0  0  0  0  0  0  0  0
   86.7550  100.0958  -44.1900 C   0  0  0  0  0  0  0  0  0  0  0  0
   84.7599   99.9706  -46.4959 I   0  0  0  0  0  0  0  0  0  0  0  0
   86.2199  101.5733  -42.9528 H   0  0  0  0  0  0  0  0  0  0  0  0
   89.2576   96.9018  -45.3949 C   0  0  0  0  0  0  0  0  0  0  0  0
   90.0240   96.0157  -45.6293 C   0  0  0  0  0  0  0  0  0  0  0  0
   90.9595   94.9219  -45.9086 C   0  0  0  0  0  0  0  0  0  0  0  0
   91.6891   94.6475  -44.6906 N   0  0  0  0  0  0  0  0  0  0  0  0
   92.0782   93.3790  -44.3660 C   0  0  0  0  0  0  0  0  0  0  0  0
   91.6863   92.3758  -44.9422 O   0  0  0  0  0  0  0  0  0  0  0  0
   91.9099   95.3900  -44.0829 H   0  0  0  0  0  0  0  0  0  0  0  0
   92.9914   93.4534  -43.3686 O   0  0  0  0  0  0  0  0  0  0  0  0
   92.6157   93.2416  -41.9813 C   0  0  0  0  0  0  0  0  0  0  0  0
   93.9218   93.4551  -41.2067 C   0  0  0  0  0  0  0  0  0  0  0  0
   92.1444   91.8046  -41.7198 C   0  0  0  0  0  0  0  0  0  0  0  0
   91.5758   94.2742  -41.5295 C   0  0  0  0  0  0  0  0  0  0  0  0
   88.2700  100.4387  -42.1825 C   0  0  0  0  0  0  0  0  0  0  0  0
   89.5149  101.2346  -42.3219 N   0  0  0  0  0  0  0  0  0  0  0  0
   90.7199  100.3525  -42.1697 C   0  0  0  0  0  0  0  0  0  0  0  0
   91.9555  101.1918  -42.4378 C   0  0  0  0  0  0  0  0  0  0  0  0
   92.0069  102.2878  -41.3837 C   0  0  0  0  0  0  0  0  0  0  0  0
   90.7845  103.2099  -41.5499 C   0  0  0  0  0  0  0  0  0  0  0  0
   89.5327  102.3752  -41.3537 C   0  0  0  0  0  0  0  0  0  0  0  0
   93.3150  103.0848  -41.5467 N   0  0  0  0  0  0  0  0  0  0  0  0
   94.3550  102.8448  -40.4443 C   0  0  0  0  0  0  0  0  0  0  0  0
   93.6355  102.6145  -39.1280 C   0  0  0  0  0  0  0  0  0  0  0  0
   93.9519  103.1805  -42.9276 C   0  0  0  0  0  0  0  0  0  0  0  0
   93.8739  104.5601  -43.5701 C   0  0  0  0  0  0  0  0  0  0  0  0
  1 10  1  0  0  0
  1  4  1  0  0  0
  1  5  2  0  0  0
 10 11  3  0  0  0
 11 12  1  0  0  0
 12 13  1  0  0  0
 13 14  1  0  0  0
  2 22  1  0  0  0
  2  5  1  0  0  0
  2  7  2  0  0  0
 23 22  1  0  0  0
 23 24  1  0  0  0
 23 28  1  0  0  0
  3  7  1  0  0  0
  4  6  2  0  0  0
 29 26  1  0  0  0
 29 30  1  0  0  0
 29 32  1  0  0  0
 24 25  1  0  0  0
  6  7  1  0  0  0
  6  8  1  0  0  0
 25 26  1  0  0  0
 26 27  1  0  0  0
 30 31  1  0  0  0
 32 33  1  0  0  0
 27 28  1  0  0  0
 14 17  1  0  0  0
 14 15  2  0  0  0
 17 18  1  0  0  0
 18 19  1  0  0  0
 18 20  1  0  0  0
 18 21  1  0  0  0
 13 16  1  0  0  0
  3  9  1  0  0  0
M  END
> <minimizedAffinity>
-5.26033

$$$$
4AGO_P74_A_1292


 33 34  0  0  0  0  0  0  0  0999 V2000
   89.5393   98.0031  -44.8723 C   0  0  0  0  0  0  0  0  0  0  0  0
   90.0583  100.2874  -44.2590 C   0  0  0  0  0  0  0  0  0  0  0  0
   88.2900  101.8578  -43.8893 O   0  0  0  0  0  0  0  0  0  0  0  0
   88.1676   98.2702  -44.8275 C   0  0  0  0  0  0  0  0  0  0  0  0
   90.4850   99.0017  -44.5769 C   0  0  0  0  0  0  0  0  0  0  0  0
   87.7659   99.5675  -44.5078 C   0  0  0  0  0  0  0  0  0  0  0  0
   88.6764  100.5957  -44.2148 C   0  0  0  0  0  0  0  0  0  0  0  0
   85.6860  100.0335  -44.4501 I   0  0  0  0  0  0  0  0  0  0  0  0
   88.9347  102.5114  -43.7016 H   0  0  0  0  0  0  0  0  0  0  0  0
   90.0873   96.7251  -45.1861 C   0  0  0  0  0  0  0  0  0  0  0  0
   90.5162   95.6543  -45.4974 C   0  0  0  0  0  0  0  0  0  0  0  0
   91.0482   94.3451  -45.8882 C   0  0  0  0  0  0  0  0  0  0  0  0
   92.1613   94.0460  -45.0148 N   0  0  0  0  0  0  0  0  0  0  0  0
   91.9640   93.6582  -43.7200 C   0  0  0  0  0  0  0  0  0  0  0  0
   90.8893   93.7240  -43.1434 O   0  0  0  0  0  0  0  0  0  0  0  0
   93.0799   94.1234  -45.3605 H   0  0  0  0  0  0  0  0  0  0  0  0
   93.1255   93.1495  -43.2439 O   0  0  0  0  0  0  0  0  0  0  0  0
   93.2986   92.8508  -41.8327 C   0  0  0  0  0  0  0  0  0  0  0  0
   93.0425   94.1924  -41.1356 C   0  0  0  0  0  0  0  0  0  0  0  0
   94.7330   92.4165  -41.5025 C   0  0  0  0  0  0  0  0  0  0  0  0
   92.2669   91.8202  -41.3582 C   0  0  0  0  0  0  0  0  0  0  0  0
   91.0900  101.3432  -43.9732 C   0  0  0  0  0  0  0  0  0  0  0  0
   91.0956  101.7812  -42.5552 N   0  0  0  0  0  0  0  0  0  0  0  0
   91.6240  103.1816  -42.4421 C   0  0  0  0  0  0  0  0  0  0  0  0
   91.4968  103.6180  -40.9942 C   0  0  0  0  0  0  0  0  0  0  0  0
   92.3638  102.6915  -40.1547 C   0  0  0  0  0  0  0  0  0  0  0  0
   91.8122  101.2565  -40.2485 C   0  0  0  0  0  0  0  0  0  0  0  0
   91.8659  100.8237  -41.7018 C   0  0  0  0  0  0  0  0  0  0  0  0
   92.3595  103.1809  -38.6941 N   0  0  0  0  0  0  0  0  0  0  0  0
   93.7507  103.3479  -38.0685 C   0  0  0  0  0  0  0  0  0  0  0  0
   94.6278  104.1414  -39.0194 C   0  0  0  0  0  0  0  0  0  0  0  0
   91.4112  104.3056  -38.2970 C   0  0  0  0  0  0  0  0  0  0  0  0
   90.2265  103.8677  -37.4445 C   0  0  0  0  0  0  0  0  0  0  0  0
  1 10  1  0  0  0
  1  4  1  0  0  0
  1  5  2  0  0  0
 10 11  3  0  0  0
 11 12  1  0  0  0
 12 13  1  0  0  0
 13 14  1  0  0  0
  2 22  1  0  0  0
  2  5  1  0  0  0
  2  7  2  0  0  0
 23 22  1  0  0  0
 23 24  1  0  0  0
 23 28  1  0  0  0
  3  7  1  0  0  0
  4  6  2  0  0  0
 29 26  1  0  0  0
 29 30  1  0  0  0
 29 32  1  0  0  0
 24 25  1  0  0  0
  6  7  1  0  0  0
  6  8  1  0  0  0
 25 26  1  0  0  0
 26 27  1  0  0  0
 30 31  1  0  0  0
 32 33  1  0  0  0
 27 28  1  0  0  0
 14 17  1  0  0  0
 14 15  2  0  0  0
 17 18  1  0  0  0
 18 19  1  0  0  0
 18 20  1  0  0  0
 18 21  1  0  0  0
 13 16  1  0  0  0
  3  9  1  0  0  0
M  END
> <minimizedAffinity>
-5.11171

$$$$
4AGO_P74_A_1292


 33 34  0  0  0  0  0  0  0  0999 V2000
   90.4228   91.0609  -48.5786 C   0  0  0  0  0  0  0  0  0  0  0  0
   89.5547   91.2887  -50.8276 C   0  0  0  0  0  0  0  0  0  0  0  0
   88.8291   89.3513  -52.0316 O   0  0  0  0  0  0  0  0  0  0  0  0
   90.2266   89.6769  -48.6100 C   0  0  0  0  0  0  0  0  0  0  0  0
   90.0773   91.8698  -49.6764 C   0  0  0  0  0  0  0  0  0  0  0  0
   89.7028   89.1187  -49.7765 C   0  0  0  0  0  0  0  0  0  0  0  0
   89.3526   89.8883  -50.8977 C   0  0  0  0  0  0  0  0  0  0  0  0
   89.4072   87.0099  -49.8852 I   0  0  0  0  0  0  0  0  0  0  0  0
   88.6106   89.9054  -52.7549 H   0  0  0  0  0  0  0  0  0  0  0  0
   90.9507   91.7605  -47.4543 C   0  0  0  0  0  0  0  0  0  0  0  0
   91.3397   92.3569  -46.4949 C   0  0  0  0  0  0  0  0  0  0  0  0
   91.8128   93.0803  -45.3107 C   0  0  0  0  0  0  0  0  0  0  0  0
   91.5805   94.4897  -45.5363 N   0  0  0  0  0  0  0  0  0  0  0  0
   91.3726   95.3508  -44.4965 C   0  0  0  0  0  0  0  0  0  0  0  0
   91.1670   94.9956  -43.3461 O   0  0  0  0  0  0  0  0  0  0  0  0
   91.5719   94.8356  -46.4580 H   0  0  0  0  0  0  0  0  0  0  0  0
   91.4979   96.6178  -44.9585 O   0  0  0  0  0  0  0  0  0  0  0  0
   90.4249   97.5862  -44.8121 C   0  0  0  0  0  0  0  0  0  0  0  0
   90.9322   98.8191  -45.5697 C   0  0  0  0  0  0  0  0  0  0  0  0
   90.2044   97.9923  -43.3486 C   0  0  0  0  0  0  0  0  0  0  0  0
   89.1331   97.0782  -45.4640 C   0  0  0  0  0  0  0  0  0  0  0  0
   89.2181   92.1725  -51.9966 C   0  0  0  0  0  0  0  0  0  0  0  0
   90.0836   93.3750  -52.0839 N   0  0  0  0  0  0  0  0  0  0  0  0
   89.2577   94.5941  -52.3753 C   0  0  0  0  0  0  0  0  0  0  0  0
   90.1729   95.8040  -52.3360 C   0  0  0  0  0  0  0  0  0  0  0  0
   91.2109   95.6337  -53.4354 C   0  0  0  0  0  0  0  0  0  0  0  0
   92.0765   94.3971  -53.1294 C   0  0  0  0  0  0  0  0  0  0  0  0
   91.1689   93.1816  -53.0954 C   0  0  0  0  0  0  0  0  0  0  0  0
   92.0819   96.9020  -53.5090 N   0  0  0  0  0  0  0  0  0  0  0  0
   93.4003   96.8221  -52.7279 C   0  0  0  0  0  0  0  0  0  0  0  0
   93.6416   98.1475  -52.0292 C   0  0  0  0  0  0  0  0  0  0  0  0
   92.2501   97.6031  -54.8515 C   0  0  0  0  0  0  0  0  0  0  0  0
   93.3121   96.9940  -55.7587 C   0  0  0  0  0  0  0  0  0  0  0  0
  1 10  1  0  0  0
  1  4  1  0  0  0
  1  5  2  0  0  0
 10 11  3  0  0  0
 11 12  1  0  0  0
 12 13  1  0  0  0
 13 14  1  0  0  0
  2 22  1  0  0  0
  2  5  1  0  0  0
  2  7  2  0  0  0
 23 22  1  0  0  0
 23 24  1  0  0  0
 23 28  1  0  0  0
  3  7  1  0  0  0
  4  6  2  0  0  0
 29 26  1  0  0  0
 29 30  1  0  0  0
 29 32  1  0  0  0
 24 25  1  0  0  0
  6  7  1  0  0  0
  6  8  1  0  0  0
 25 26  1  0  0  0
 26 27  1  0  0  0
 30 31  1  0  0  0
 32 33  1  0  0  0
 27 28  1  0  0  0
 14 17  1  0  0  0
 14 15  2  0  0  0
 17 18  1  0  0  0
 18 19  1  0  0  0
 18 20  1  0  0  0
 18 21  1  0  0  0
 13 16  1  0  0  0
  3  9  1  0  0  0
M  END
> <minimizedAffinity>
-5.05041

$$$$
4AGO_P74_A_1292


 33 34  0  0  0  0  0  0  0  0999 V2000
   90.5206   95.2611  -45.7212 C   0  0  0  0  0  0  0  0  0  0  0  0
   89.0665   97.1191  -46.2662 C   0  0  0  0  0  0  0  0  0  0  0  0
   89.0869   99.0916  -44.9103 O   0  0  0  0  0  0  0  0  0  0  0  0
   91.0426   95.9517  -44.6232 C   0  0  0  0  0  0  0  0  0  0  0  0
   89.5452   95.8440  -46.5505 C   0  0  0  0  0  0  0  0  0  0  0  0
   90.5447   97.2279  -44.3587 C   0  0  0  0  0  0  0  0  0  0  0  0
   89.5655   97.8430  -45.1555 C   0  0  0  0  0  0  0  0  0  0  0  0
   91.2894   98.3137  -42.6815 I   0  0  0  0  0  0  0  0  0  0  0  0
   88.4328   99.4610  -45.4703 H   0  0  0  0  0  0  0  0  0  0  0  0
   90.9366   93.9525  -46.1042 C   0  0  0  0  0  0  0  0  0  0  0  0
   91.2979   92.8453  -46.3707 C   0  0  0  0  0  0  0  0  0  0  0  0
   91.7324   91.4823  -46.6917 C   0  0  0  0  0  0  0  0  0  0  0  0
   91.8674   91.3925  -48.1287 N   0  0  0  0  0  0  0  0  0  0  0  0
   90.9584   90.7102  -48.8864 C   0  0  0  0  0  0  0  0  0  0  0  0
   90.1010   89.9726  -48.4251 O   0  0  0  0  0  0  0  0  0  0  0  0
   92.6300   91.8320  -48.5699 H   0  0  0  0  0  0  0  0  0  0  0  0
   91.1446   91.0473  -50.1849 O   0  0  0  0  0  0  0  0  0  0  0  0
   90.1400   91.7913  -50.9251 C   0  0  0  0  0  0  0  0  0  0  0  0
   89.2442   90.7037  -51.5302 C   0  0  0  0  0  0  0  0  0  0  0  0
   90.7480   92.5959  -52.0819 C   0  0  0  0  0  0  0  0  0  0  0  0
   89.3105   92.6774  -49.9879 C   0  0  0  0  0  0  0  0  0  0  0  0
   88.0050   97.7089  -47.1529 C   0  0  0  0  0  0  0  0  0  0  0  0
   88.5282   98.7504  -48.0716 N   0  0  0  0  0  0  0  0  0  0  0  0
   87.6847   99.9896  -47.9926 C   0  0  0  0  0  0  0  0  0  0  0  0
   88.3308  101.0557  -48.8581 C   0  0  0  0  0  0  0  0  0  0  0  0
   88.3327  100.5476  -50.2922 C   0  0  0  0  0  0  0  0  0  0  0  0
   89.2157   99.2890  -50.3839 C   0  0  0  0  0  0  0  0  0  0  0  0
   88.6257   98.2303  -49.4710 C   0  0  0  0  0  0  0  0  0  0  0  0
   88.8670  101.6551  -51.2201 N   0  0  0  0  0  0  0  0  0  0  0  0
   89.7523  102.7005  -50.5289 C   0  0  0  0  0  0  0  0  0  0  0  0
   91.1934  102.4860  -50.9535 C   0  0  0  0  0  0  0  0  0  0  0  0
   89.3976  101.2708  -52.5958 C   0  0  0  0  0  0  0  0  0  0  0  0
   88.3424  101.2232  -53.6942 C   0  0  0  0  0  0  0  0  0  0  0  0
  1 10  1  0  0  0
  1  4  1  0  0  0
  1  5  2  0  0  0
 10 11  3  0  0  0
 11 12  1  0  0  0
 12 13  1  0  0  0
 13 14  1  0  0  0
  2 22  1  0  0  0
  2  5  1  0  0  0
  2  7  2  0  0  0
 23 22  1  0  0  0
 23 24  1  0  0  0
 23 28  1  0  0  0
  3  7  1  0  0  0
  4  6  2  0  0  0
 29 26  1  0  0  0
 29 30  1  0  0  0
 29 32  1  0  0  0
 24 25  1  0  0  0
  6  7  1  0  0  0
  6  8  1  0  0  0
 25 26  1  0  0  0
 26 27  1  0  0  0
 30 31  1  0  0  0
 32 33  1  0  0  0
 27 28  1  0  0  0
 14 17  1  0  0  0
 14 15  2  0  0  0
 17 18  1  0  0  0
 18 19  1  0  0  0
 18 20  1  0  0  0
 18 21  1  0  0  0
 13 16  1  0  0  0
  3  9  1  0  0  0
M  END
> <minimizedAffinity>
-5.00775

$$$$
4AGO_P74_A_1292


 33 34  0  0  0  0  0  0  0  0999 V2000
   90.5336   95.9175  -44.5985 C   0  0  0  0  0  0  0  0  0  0  0  0
   91.1639   97.2758  -42.6955 C   0  0  0  0  0  0  0  0  0  0  0  0
   92.2318   96.2656  -40.8063 O   0  0  0  0  0  0  0  0  0  0  0  0
   91.0425   94.7684  -43.9860 C   0  0  0  0  0  0  0  0  0  0  0  0
   90.6037   97.1715  -43.9648 C   0  0  0  0  0  0  0  0  0  0  0  0
   91.5976   94.8994  -42.7127 C   0  0  0  0  0  0  0  0  0  0  0  0
   91.6796   96.1300  -42.0412 C   0  0  0  0  0  0  0  0  0  0  0  0
   92.3655   93.1732  -41.7243 I   0  0  0  0  0  0  0  0  0  0  0  0
   92.2642   97.1081  -40.3975 H   0  0  0  0  0  0  0  0  0  0  0  0
   89.9388   95.9270  -45.8940 C   0  0  0  0  0  0  0  0  0  0  0  0
   89.3902   95.9229  -46.9554 C   0  0  0  0  0  0  0  0  0  0  0  0
   88.7111   95.9275  -48.2548 C   0  0  0  0  0  0  0  0  0  0  0  0
   88.9892   97.1965  -48.8901 N   0  0  0  0  0  0  0  0  0  0  0  0
   88.2328   98.3032  -48.6275 C   0  0  0  0  0  0  0  0  0  0  0  0
   87.1737   98.2782  -48.0194 O   0  0  0  0  0  0  0  0  0  0  0  0
   89.7388   97.2642  -49.5247 H   0  0  0  0  0  0  0  0  0  0  0  0
   88.8894   99.3914  -49.0955 O   0  0  0  0  0  0  0  0  0  0  0  0
   89.5966  100.2913  -48.2008 C   0  0  0  0  0  0  0  0  0  0  0  0
   90.9331  100.5436  -48.9090 C   0  0  0  0  0  0  0  0  0  0  0  0
   89.8998   99.6418  -46.8437 C   0  0  0  0  0  0  0  0  0  0  0  0
   88.8407  101.6162  -48.0430 C   0  0  0  0  0  0  0  0  0  0  0  0
   91.2029   98.6231  -42.0291 C   0  0  0  0  0  0  0  0  0  0  0  0
   90.7305   99.7205  -42.9096 N   0  0  0  0  0  0  0  0  0  0  0  0
   91.8292  100.7173  -43.1386 C   0  0  0  0  0  0  0  0  0  0  0  0
   91.3306  101.7479  -44.1348 C   0  0  0  0  0  0  0  0  0  0  0  0
   90.1397  102.4577  -43.5079 C   0  0  0  0  0  0  0  0  0  0  0  0
   89.0005  101.4440  -43.2918 C   0  0  0  0  0  0  0  0  0  0  0  0
   89.5010  100.3641  -42.3507 C   0  0  0  0  0  0  0  0  0  0  0  0
   89.6836  103.5976  -44.4381 N   0  0  0  0  0  0  0  0  0  0  0  0
   88.2417  103.4728  -44.9478 C   0  0  0  0  0  0  0  0  0  0  0  0
   87.5229  104.7906  -44.7241 C   0  0  0  0  0  0  0  0  0  0  0  0
   90.0433  105.0331  -44.0749 C   0  0  0  0  0  0  0  0  0  0  0  0
   90.7173  105.1963  -42.7181 C   0  0  0  0  0  0  0  0  0  0  0  0
  1 10  1  0  0  0
  1  4  1  0  0  0
  1  5  2  0  0  0
 10 11  3  0  0  0
 11 12  1  0  0  0
 12 13  1  0  0  0
 13 14  1  0  0  0
  2 22  1  0  0  0
  2  5  1  0  0  0
  2  7  2  0  0  0
 23 22  1  0  0  0
 23 24  1  0  0  0
 23 28  1  0  0  0
  3  7  1  0  0  0
  4  6  2  0  0  0
 29 26  1  0  0  0
 29 30  1  0  0  0
 29 32  1  0  0  0
 24 25  1  0  0  0
  6  7  1  0  0  0
  6  8  1  0  0  0
 25 26  1  0  0  0
 26 27  1  0  0  0
 30 31  1  0  0  0
 32 33  1  0  0  0
 27 28  1  0  0  0
 14 17  1  0  0  0
 14 15  2  0  0  0
 17 18  1  0  0  0
 18 19  1  0  0  0
 18 20  1  0  0  0
 18 21  1  0  0  0
 13 16  1  0  0  0
  3  9  1  0  0  0
M  END
> <minimizedAffinity>
-4.89173

$$$$
