4Q9O_2ZW_A_301


 26 28  0  0  0  0  0  0  0  0999 V2000
   23.3573  -17.5597    6.9838 N   0  0  0  0  0  0  0  0  0  0  0  0
   24.6474  -17.9302    7.2904 C   0  0  0  0  0  0  0  0  0  0  0  0
   25.6036  -17.1554    7.2732 O   0  0  0  0  0  0  0  0  0  0  0  0
   22.6894  -18.2818    7.0258 H   0  0  0  0  0  0  0  0  0  0  0  0
   21.6384  -13.8633    5.8979 C   0  0  0  0  0  0  0  0  0  0  0  0
   21.1893  -14.5900    6.9944 C   0  0  0  0  0  0  0  0  0  0  0  0
   21.7859  -15.7859    7.3545 C   0  0  0  0  0  0  0  0  0  0  0  0
   22.7111  -14.3659    5.1721 C   0  0  0  0  0  0  0  0  0  0  0  0
   23.3166  -15.5604    5.5236 C   0  0  0  0  0  0  0  0  0  0  0  0
   22.8537  -16.2864    6.6161 C   0  0  0  0  0  0  0  0  0  0  0  0
   21.4275  -11.4227    6.4790 C   0  0  0  0  0  0  0  0  0  0  0  0
   21.0096  -12.5308    5.5165 C   0  0  0  0  0  0  0  0  0  0  0  0
   19.4883  -12.5929    5.4023 C   0  0  0  0  0  0  0  0  0  0  0  0
   24.8463  -19.3502    7.6540 C   0  0  0  0  0  0  0  0  0  0  0  0
   26.0652  -19.9496    7.8509 C   0  0  0  0  0  0  0  0  0  0  0  0
   27.4786  -19.5222    7.7079 C   0  0  0  0  0  0  0  0  0  0  0  0
   25.8767  -21.2592    8.0937 O   0  0  0  0  0  0  0  0  0  0  0  0
   24.4889  -21.5449    8.0126 N   0  0  0  0  0  0  0  0  0  0  0  0
   23.8841  -20.4041    7.7425 C   0  0  0  0  0  0  0  0  0  0  0  0
   22.4227  -20.5186    7.7469 C   0  0  0  0  0  0  0  0  0  0  0  0
   21.7688  -20.8218    6.5478 C   0  0  0  0  0  0  0  0  0  0  0  0
   22.6606  -20.9692    5.0623 Cl  0  0  0  0  0  0  0  0  0  0  0  0
   20.3839  -20.9031    6.4816 C   0  0  0  0  0  0  0  0  0  0  0  0
   19.6313  -20.6214    7.6092 C   0  0  0  0  0  0  0  0  0  0  0  0
   20.2574  -20.2563    8.7872 C   0  0  0  0  0  0  0  0  0  0  0  0
   21.6413  -20.2009    8.8569 C   0  0  0  0  0  0  0  0  0  0  0  0
 22 21  1  0  0  0
  6  7  2  0  0  0
  6  5  1  0  0  0
 12 13  1  0  0  0
 12  5  1  0  0  0
 12 11  1  0  0  0
  7 10  1  0  0  0
  5  8  2  0  0  0
 23 21  2  0  0  0
 23 24  1  0  0  0
  3  2  2  0  0  0
 21 20  1  0  0  0
 10  1  1  0  0  0
 10  9  2  0  0  0
  8  9  1  0  0  0
  2  1  1  0  0  0
  2 14  1  0  0  0
 14 15  2  0  0  0
 14 19  1  0  0  0
 16 15  1  0  0  0
 24 25  2  0  0  0
 15 17  1  0  0  0
 20 19  1  0  0  0
 20 26  2  0  0  0
 19 18  2  0  0  0
 17 18  1  0  0  0
 25 26  1  0  0  0
  1  4  1  0  0  0
M  END
> <minimizedAffinity>
-11.72656

$$$$
4Q9O_2ZW_A_301


 26 28  0  0  0  0  0  0  0  0999 V2000
   25.6510  -16.9963    7.3945 N   0  0  0  0  0  0  0  0  0  0  0  0
   24.6429  -17.8987    7.1396 C   0  0  0  0  0  0  0  0  0  0  0  0
   23.6134  -17.6184    6.5258 O   0  0  0  0  0  0  0  0  0  0  0  0
   26.4144  -17.3496    7.9060 H   0  0  0  0  0  0  0  0  0  0  0  0
   26.0687  -12.8969    6.4903 C   0  0  0  0  0  0  0  0  0  0  0  0
   27.1637  -13.7010    6.7843 C   0  0  0  0  0  0  0  0  0  0  0  0
   27.0110  -15.0511    7.0479 C   0  0  0  0  0  0  0  0  0  0  0  0
   24.8109  -13.4859    6.4606 C   0  0  0  0  0  0  0  0  0  0  0  0
   24.6461  -14.8357    6.7214 C   0  0  0  0  0  0  0  0  0  0  0  0
   25.7463  -15.6308    7.0253 C   0  0  0  0  0  0  0  0  0  0  0  0
   26.4457  -10.5921    7.4307 C   0  0  0  0  0  0  0  0  0  0  0  0
   26.2328  -11.4190    6.1658 C   0  0  0  0  0  0  0  0  0  0  0  0
   25.0780  -10.8504    5.3445 C   0  0  0  0  0  0  0  0  0  0  0  0
   24.8535  -19.2699    7.6529 C   0  0  0  0  0  0  0  0  0  0  0  0
   26.0751  -19.8217    7.9475 C   0  0  0  0  0  0  0  0  0  0  0  0
   27.4852  -19.3831    7.8049 C   0  0  0  0  0  0  0  0  0  0  0  0
   25.9007  -21.1032    8.3176 O   0  0  0  0  0  0  0  0  0  0  0  0
   24.5212  -21.4232    8.2236 N   0  0  0  0  0  0  0  0  0  0  0  0
   23.9067  -20.3282    7.8195 C   0  0  0  0  0  0  0  0  0  0  0  0
   22.4480  -20.4708    7.7908 C   0  0  0  0  0  0  0  0  0  0  0  0
   21.8246  -20.7575    6.5715 C   0  0  0  0  0  0  0  0  0  0  0  0
   22.7492  -20.8520    5.1018 Cl  0  0  0  0  0  0  0  0  0  0  0  0
   20.4433  -20.8637    6.4747 C   0  0  0  0  0  0  0  0  0  0  0  0
   19.6625  -20.6237    7.5927 C   0  0  0  0  0  0  0  0  0  0  0  0
   20.2572  -20.2751    8.7918 C   0  0  0  0  0  0  0  0  0  0  0  0
   21.6381  -20.1949    8.8915 C   0  0  0  0  0  0  0  0  0  0  0  0
 22 21  1  0  0  0
  6  7  2  0  0  0
  6  5  1  0  0  0
 12 13  1  0  0  0
 12  5  1  0  0  0
 12 11  1  0  0  0
  7 10  1  0  0  0
  5  8  2  0  0  0
 23 21  2  0  0  0
 23 24  1  0  0  0
  3  2  2  0  0  0
 21 20  1  0  0  0
 10  1  1  0  0  0
 10  9  2  0  0  0
  8  9  1  0  0  0
  2  1  1  0  0  0
  2 14  1  0  0  0
 14 15  2  0  0  0
 14 19  1  0  0  0
 16 15  1  0  0  0
 24 25  2  0  0  0
 15 17  1  0  0  0
 20 19  1  0  0  0
 20 26  2  0  0  0
 19 18  2  0  0  0
 17 18  1  0  0  0
 25 26  1  0  0  0
  1  4  1  0  0  0
M  END
> <minimizedAffinity>
-10.66104

$$$$
4Q9O_2ZW_A_301


 26 28  0  0  0  0  0  0  0  0999 V2000
   23.1763  -17.4709    6.9358 N   0  0  0  0  0  0  0  0  0  0  0  0
   24.4976  -17.7950    7.1473 C   0  0  0  0  0  0  0  0  0  0  0  0
   25.4228  -16.9885    7.0535 O   0  0  0  0  0  0  0  0  0  0  0  0
   22.5385  -18.2147    7.0323 H   0  0  0  0  0  0  0  0  0  0  0  0
   21.6918  -13.6531    5.9271 C   0  0  0  0  0  0  0  0  0  0  0  0
   22.7170  -14.2574    5.2089 C   0  0  0  0  0  0  0  0  0  0  0  0
   23.1702  -15.5239    5.5349 C   0  0  0  0  0  0  0  0  0  0  0  0
   21.1252  -14.3578    6.9818 C   0  0  0  0  0  0  0  0  0  0  0  0
   21.5695  -15.6258    7.3163 C   0  0  0  0  0  0  0  0  0  0  0  0
   22.6032  -16.2187    6.5987 C   0  0  0  0  0  0  0  0  0  0  0  0
   21.5693  -11.2260    6.5852 C   0  0  0  0  0  0  0  0  0  0  0  0
   21.1651  -12.2750    5.5530 C   0  0  0  0  0  0  0  0  0  0  0  0
   19.6552  -12.2475    5.3274 C   0  0  0  0  0  0  0  0  0  0  0  0
   24.7716  -19.2040    7.5041 C   0  0  0  0  0  0  0  0  0  0  0  0
   26.0073  -19.7103    7.8214 C   0  0  0  0  0  0  0  0  0  0  0  0
   27.3883  -19.1687    7.8411 C   0  0  0  0  0  0  0  0  0  0  0  0
   25.9014  -21.0368    8.0181 O   0  0  0  0  0  0  0  0  0  0  0  0
   24.5582  -21.4291    7.7810 N   0  0  0  0  0  0  0  0  0  0  0  0
   23.8948  -20.3328    7.4678 C   0  0  0  0  0  0  0  0  0  0  0  0
   22.4555  -20.5627    7.3110 C   0  0  0  0  0  0  0  0  0  0  0  0
   21.6641  -20.6768    8.4591 C   0  0  0  0  0  0  0  0  0  0  0  0
   22.3841  -20.6394   10.0415 Cl  0  0  0  0  0  0  0  0  0  0  0  0
   20.3022  -20.9351    8.3740 C   0  0  0  0  0  0  0  0  0  0  0  0
   19.7254  -21.1423    7.1325 C   0  0  0  0  0  0  0  0  0  0  0  0
   20.5039  -21.0979    5.9901 C   0  0  0  0  0  0  0  0  0  0  0  0
   21.8587  -20.8145    6.0764 C   0  0  0  0  0  0  0  0  0  0  0  0
 22 21  1  0  0  0
  6  7  2  0  0  0
  6  5  1  0  0  0
 12 13  1  0  0  0
 12  5  1  0  0  0
 12 11  1  0  0  0
  7 10  1  0  0  0
  5  8  2  0  0  0
 23 21  2  0  0  0
 23 24  1  0  0  0
  3  2  2  0  0  0
 21 20  1  0  0  0
 10  1  1  0  0  0
 10  9  2  0  0  0
  8  9  1  0  0  0
  2  1  1  0  0  0
  2 14  1  0  0  0
 14 15  2  0  0  0
 14 19  1  0  0  0
 16 15  1  0  0  0
 24 25  2  0  0  0
 15 17  1  0  0  0
 20 19  1  0  0  0
 20 26  2  0  0  0
 19 18  2  0  0  0
 17 18  1  0  0  0
 25 26  1  0  0  0
  1  4  1  0  0  0
M  END
> <minimizedAffinity>
-9.90435

$$$$
4Q9O_2ZW_A_301


 26 28  0  0  0  0  0  0  0  0999 V2000
   24.6644  -15.0321    6.4278 N   0  0  0  0  0  0  0  0  0  0  0  0
   24.8623  -13.9532    7.2600 C   0  0  0  0  0  0  0  0  0  0  0  0
   25.0194  -14.0483    8.4771 O   0  0  0  0  0  0  0  0  0  0  0  0
   24.5410  -14.8139    5.4758 H   0  0  0  0  0  0  0  0  0  0  0  0
   24.3307  -19.0917    7.5255 C   0  0  0  0  0  0  0  0  0  0  0  0
   23.2294  -18.3453    7.1228 C   0  0  0  0  0  0  0  0  0  0  0  0
   23.3627  -17.0231    6.7362 C   0  0  0  0  0  0  0  0  0  0  0  0
   25.5765  -18.4769    7.5241 C   0  0  0  0  0  0  0  0  0  0  0  0
   25.7221  -17.1552    7.1381 C   0  0  0  0  0  0  0  0  0  0  0  0
   24.6130  -16.4126    6.7467 C   0  0  0  0  0  0  0  0  0  0  0  0
   22.9608  -20.7889    8.7832 C   0  0  0  0  0  0  0  0  0  0  0  0
   24.1971  -20.5558    7.9193 C   0  0  0  0  0  0  0  0  0  0  0  0
   25.4417  -21.1108    8.6080 C   0  0  0  0  0  0  0  0  0  0  0  0
   24.8781  -12.6251    6.6089 C   0  0  0  0  0  0  0  0  0  0  0  0
   26.0042  -11.8768    6.3729 C   0  0  0  0  0  0  0  0  0  0  0  0
   27.4431  -12.0146    6.7069 C   0  0  0  0  0  0  0  0  0  0  0  0
   25.6436  -10.6974    5.8358 O   0  0  0  0  0  0  0  0  0  0  0  0
   24.2277  -10.6459    5.7529 N   0  0  0  0  0  0  0  0  0  0  0  0
   23.7803  -11.7944    6.2228 C   0  0  0  0  0  0  0  0  0  0  0  0
   22.3276  -11.9380    6.0889 C   0  0  0  0  0  0  0  0  0  0  0  0
   21.8249  -12.9827    5.3056 C   0  0  0  0  0  0  0  0  0  0  0  0
   22.8995  -14.0350    4.4328 Cl  0  0  0  0  0  0  0  0  0  0  0  0
   20.4597  -13.1447    5.1089 C   0  0  0  0  0  0  0  0  0  0  0  0
   19.5803  -12.2215    5.6489 C   0  0  0  0  0  0  0  0  0  0  0  0
   20.0623  -11.1454    6.3718 C   0  0  0  0  0  0  0  0  0  0  0  0
   21.4245  -11.0005    6.5881 C   0  0  0  0  0  0  0  0  0  0  0  0
 22 21  1  0  0  0
  6  7  2  0  0  0
  6  5  1  0  0  0
 12 13  1  0  0  0
 12  5  1  0  0  0
 12 11  1  0  0  0
  7 10  1  0  0  0
  5  8  2  0  0  0
 23 21  2  0  0  0
 23 24  1  0  0  0
  3  2  2  0  0  0
 21 20  1  0  0  0
 10  1  1  0  0  0
 10  9  2  0  0  0
  8  9  1  0  0  0
  2  1  1  0  0  0
  2 14  1  0  0  0
 14 15  2  0  0  0
 14 19  1  0  0  0
 16 15  1  0  0  0
 24 25  2  0  0  0
 15 17  1  0  0  0
 20 19  1  0  0  0
 20 26  2  0  0  0
 19 18  2  0  0  0
 17 18  1  0  0  0
 25 26  1  0  0  0
  1  4  1  0  0  0
M  END
> <minimizedAffinity>
-9.63427

$$$$
4Q9O_2ZW_A_301


 26 28  0  0  0  0  0  0  0  0999 V2000
   22.0494  -15.1563    7.0878 N   0  0  0  0  0  0  0  0  0  0  0  0
   22.2661  -14.4055    5.9542 C   0  0  0  0  0  0  0  0  0  0  0  0
   22.6369  -14.8798    4.8806 O   0  0  0  0  0  0  0  0  0  0  0  0
   21.7655  -14.6489    7.8822 H   0  0  0  0  0  0  0  0  0  0  0  0
   22.3892  -19.2869    7.8748 C   0  0  0  0  0  0  0  0  0  0  0  0
   21.3126  -18.5365    8.3331 C   0  0  0  0  0  0  0  0  0  0  0  0
   21.2017  -17.1887    8.0387 C   0  0  0  0  0  0  0  0  0  0  0  0
   23.3532  -18.6492    7.1040 C   0  0  0  0  0  0  0  0  0  0  0  0
   23.2521  -17.3017    6.8021 C   0  0  0  0  0  0  0  0  0  0  0  0
   22.1768  -16.5560    7.2739 C   0  0  0  0  0  0  0  0  0  0  0  0
   21.4754  -21.2181    9.2068 C   0  0  0  0  0  0  0  0  0  0  0  0
   22.5002  -20.7767    8.1657 C   0  0  0  0  0  0  0  0  0  0  0  0
   23.9046  -21.2063    8.5836 C   0  0  0  0  0  0  0  0  0  0  0  0
   22.0279  -12.9514    6.0829 C   0  0  0  0  0  0  0  0  0  0  0  0
   20.8006  -12.3433    5.9945 C   0  0  0  0  0  0  0  0  0  0  0  0
   19.4242  -12.8010    5.6826 C   0  0  0  0  0  0  0  0  0  0  0  0
   20.9628  -11.0109    6.0835 O   0  0  0  0  0  0  0  0  0  0  0  0
   22.3487  -10.7246    6.1915 N   0  0  0  0  0  0  0  0  0  0  0  0
   22.9755  -11.8853    6.1823 C   0  0  0  0  0  0  0  0  0  0  0  0
   24.4179  -11.7560    6.4093 C   0  0  0  0  0  0  0  0  0  0  0  0
   25.2357  -11.3795    5.3383 C   0  0  0  0  0  0  0  0  0  0  0  0
   24.5700  -11.1586    3.7472 Cl  0  0  0  0  0  0  0  0  0  0  0  0
   26.6134  -11.2802    5.4826 C   0  0  0  0  0  0  0  0  0  0  0  0
   27.1968  -11.6167    6.6925 C   0  0  0  0  0  0  0  0  0  0  0  0
   26.4107  -12.0535    7.7434 C   0  0  0  0  0  0  0  0  0  0  0  0
   25.0329  -12.1271    7.6042 C   0  0  0  0  0  0  0  0  0  0  0  0
 22 21  1  0  0  0
  6  7  2  0  0  0
  6  5  1  0  0  0
 12 13  1  0  0  0
 12  5  1  0  0  0
 12 11  1  0  0  0
  7 10  1  0  0  0
  5  8  2  0  0  0
 23 21  2  0  0  0
 23 24  1  0  0  0
  3  2  2  0  0  0
 21 20  1  0  0  0
 10  1  1  0  0  0
 10  9  2  0  0  0
  8  9  1  0  0  0
  2  1  1  0  0  0
  2 14  1  0  0  0
 14 15  2  0  0  0
 14 19  1  0  0  0
 16 15  1  0  0  0
 24 25  2  0  0  0
 15 17  1  0  0  0
 20 19  1  0  0  0
 20 26  2  0  0  0
 19 18  2  0  0  0
 17 18  1  0  0  0
 25 26  1  0  0  0
  1  4  1  0  0  0
M  END
> <minimizedAffinity>
-9.52612

$$$$
4Q9O_2ZW_A_301


 26 28  0  0  0  0  0  0  0  0999 V2000
   22.3420  -15.7665    6.7085 N   0  0  0  0  0  0  0  0  0  0  0  0
   21.6309  -14.7338    7.2773 C   0  0  0  0  0  0  0  0  0  0  0  0
   21.0119  -14.8319    8.3367 O   0  0  0  0  0  0  0  0  0  0  0  0
   22.7814  -15.5556    5.8532 H   0  0  0  0  0  0  0  0  0  0  0  0
   22.9963  -19.7616    7.8950 C   0  0  0  0  0  0  0  0  0  0  0  0
   23.9938  -18.9977    7.3005 C   0  0  0  0  0  0  0  0  0  0  0  0
   23.7707  -17.6785    6.9462 C   0  0  0  0  0  0  0  0  0  0  0  0
   21.7650  -19.1636    8.1325 C   0  0  0  0  0  0  0  0  0  0  0  0
   21.5307  -17.8443    7.7835 C   0  0  0  0  0  0  0  0  0  0  0  0
   22.5314  -17.0904    7.1792 C   0  0  0  0  0  0  0  0  0  0  0  0
   22.7336  -21.4626    9.7326 C   0  0  0  0  0  0  0  0  0  0  0  0
   23.2450  -21.2022    8.3185 C   0  0  0  0  0  0  0  0  0  0  0  0
   24.7074  -21.6232    8.1939 C   0  0  0  0  0  0  0  0  0  0  0  0
   21.6398  -13.4537    6.5362 C   0  0  0  0  0  0  0  0  0  0  0  0
   20.5286  -12.8331    6.0225 C   0  0  0  0  0  0  0  0  0  0  0  0
   19.0889  -13.1769    5.9211 C   0  0  0  0  0  0  0  0  0  0  0  0
   20.9112  -11.7332    5.3493 O   0  0  0  0  0  0  0  0  0  0  0  0
   22.3274  -11.6458    5.3821 N   0  0  0  0  0  0  0  0  0  0  0  0
   22.7529  -12.6785    6.0839 C   0  0  0  0  0  0  0  0  0  0  0  0
   24.2014  -12.6577    6.3080 C   0  0  0  0  0  0  0  0  0  0  0  0
   25.0036  -13.5613    5.6027 C   0  0  0  0  0  0  0  0  0  0  0  0
   24.2908  -14.7480    4.5504 Cl  0  0  0  0  0  0  0  0  0  0  0  0
   26.3768  -13.6159    5.8031 C   0  0  0  0  0  0  0  0  0  0  0  0
   26.9573  -12.8023    6.7614 C   0  0  0  0  0  0  0  0  0  0  0  0
   26.1716  -11.9487    7.5144 C   0  0  0  0  0  0  0  0  0  0  0  0
   24.8043  -11.8780    7.2941 C   0  0  0  0  0  0  0  0  0  0  0  0
 22 21  1  0  0  0
  6  7  2  0  0  0
  6  5  1  0  0  0
 12 13  1  0  0  0
 12  5  1  0  0  0
 12 11  1  0  0  0
  7 10  1  0  0  0
  5  8  2  0  0  0
 23 21  2  0  0  0
 23 24  1  0  0  0
  3  2  2  0  0  0
 21 20  1  0  0  0
 10  1  1  0  0  0
 10  9  2  0  0  0
  8  9  1  0  0  0
  2  1  1  0  0  0
  2 14  1  0  0  0
 14 15  2  0  0  0
 14 19  1  0  0  0
 16 15  1  0  0  0
 24 25  2  0  0  0
 15 17  1  0  0  0
 20 19  1  0  0  0
 20 26  2  0  0  0
 19 18  2  0  0  0
 17 18  1  0  0  0
 25 26  1  0  0  0
  1  4  1  0  0  0
M  END
> <minimizedAffinity>
-8.89775

$$$$
4Q9O_2ZW_A_301


 26 28  0  0  0  0  0  0  0  0999 V2000
   23.4130  -15.0686    6.7919 N   0  0  0  0  0  0  0  0  0  0  0  0
   24.5045  -14.3458    7.2183 C   0  0  0  0  0  0  0  0  0  0  0  0
   25.3009  -14.7468    8.0669 O   0  0  0  0  0  0  0  0  0  0  0  0
   22.8508  -14.6251    6.1163 H   0  0  0  0  0  0  0  0  0  0  0  0
   22.1981  -18.9927    7.7522 C   0  0  0  0  0  0  0  0  0  0  0  0
   23.4496  -18.7212    7.2117 C   0  0  0  0  0  0  0  0  0  0  0  0
   23.8432  -17.4241    6.9319 C   0  0  0  0  0  0  0  0  0  0  0  0
   21.3496  -17.9240    8.0126 C   0  0  0  0  0  0  0  0  0  0  0  0
   21.7330  -16.6221    7.7380 C   0  0  0  0  0  0  0  0  0  0  0  0
   22.9832  -16.3605    7.1872 C   0  0  0  0  0  0  0  0  0  0  0  0
   20.2809  -20.4850    8.4127 C   0  0  0  0  0  0  0  0  0  0  0  0
   21.7717  -20.4132    8.0942 C   0  0  0  0  0  0  0  0  0  0  0  0
   22.5894  -21.0323    9.2253 C   0  0  0  0  0  0  0  0  0  0  0  0
   24.6884  -13.0178    6.5934 C   0  0  0  0  0  0  0  0  0  0  0  0
   25.8998  -12.4093    6.3785 C   0  0  0  0  0  0  0  0  0  0  0  0
   27.3082  -12.7292    6.7178 C   0  0  0  0  0  0  0  0  0  0  0  0
   25.6911  -11.1847    5.8625 O   0  0  0  0  0  0  0  0  0  0  0  0
   24.2929  -10.9579    5.7727 N   0  0  0  0  0  0  0  0  0  0  0  0
   23.7041  -12.0514    6.2175 C   0  0  0  0  0  0  0  0  0  0  0  0
   22.2459  -12.0127    6.0726 C   0  0  0  0  0  0  0  0  0  0  0  0
   21.6291  -12.9456    5.2318 C   0  0  0  0  0  0  0  0  0  0  0  0
   22.5782  -14.0696    4.3047 Cl  0  0  0  0  0  0  0  0  0  0  0  0
   20.2561  -12.9323    5.0234 C   0  0  0  0  0  0  0  0  0  0  0  0
   19.4884  -11.9413    5.6115 C   0  0  0  0  0  0  0  0  0  0  0  0
   20.0889  -10.9716    6.3938 C   0  0  0  0  0  0  0  0  0  0  0  0
   21.4566  -11.0026    6.6207 C   0  0  0  0  0  0  0  0  0  0  0  0
 22 21  1  0  0  0
  6  7  2  0  0  0
  6  5  1  0  0  0
 12 13  1  0  0  0
 12  5  1  0  0  0
 12 11  1  0  0  0
  7 10  1  0  0  0
  5  8  2  0  0  0
 23 21  2  0  0  0
 23 24  1  0  0  0
  3  2  2  0  0  0
 21 20  1  0  0  0
 10  1  1  0  0  0
 10  9  2  0  0  0
  8  9  1  0  0  0
  2  1  1  0  0  0
  2 14  1  0  0  0
 14 15  2  0  0  0
 14 19  1  0  0  0
 16 15  1  0  0  0
 24 25  2  0  0  0
 15 17  1  0  0  0
 20 19  1  0  0  0
 20 26  2  0  0  0
 19 18  2  0  0  0
 17 18  1  0  0  0
 25 26  1  0  0  0
  1  4  1  0  0  0
M  END
> <minimizedAffinity>
-8.81810

$$$$
4Q9O_2ZW_A_301


 26 28  0  0  0  0  0  0  0  0999 V2000
   24.7469  -14.8275    6.6719 N   0  0  0  0  0  0  0  0  0  0  0  0
   24.3268  -14.2531    5.4933 C   0  0  0  0  0  0  0  0  0  0  0  0
   24.2859  -14.8508    4.4180 O   0  0  0  0  0  0  0  0  0  0  0  0
   24.7409  -14.2331    7.4568 H   0  0  0  0  0  0  0  0  0  0  0  0
   25.8876  -18.7890    7.5676 C   0  0  0  0  0  0  0  0  0  0  0  0
   24.5649  -18.4427    7.3173 C   0  0  0  0  0  0  0  0  0  0  0  0
   24.2132  -17.1437    6.9942 C   0  0  0  0  0  0  0  0  0  0  0  0
   26.8545  -17.7954    7.4785 C   0  0  0  0  0  0  0  0  0  0  0  0
   26.5146  -16.4927    7.1549 C   0  0  0  0  0  0  0  0  0  0  0  0
   25.1870  -16.1529    6.9164 C   0  0  0  0  0  0  0  0  0  0  0  0
   25.0817  -21.0487    8.3313 C   0  0  0  0  0  0  0  0  0  0  0  0
   26.2863  -20.2220    7.8898 C   0  0  0  0  0  0  0  0  0  0  0  0
   27.4069  -20.3183    8.9224 C   0  0  0  0  0  0  0  0  0  0  0  0
   23.9118  -12.8356    5.5733 C   0  0  0  0  0  0  0  0  0  0  0  0
   24.7585  -11.7601    5.4734 C   0  0  0  0  0  0  0  0  0  0  0  0
   26.2280  -11.5900    5.3607 C   0  0  0  0  0  0  0  0  0  0  0  0
   24.0565  -10.6288    5.6651 O   0  0  0  0  0  0  0  0  0  0  0  0
   22.7071  -10.9690    5.9440 N   0  0  0  0  0  0  0  0  0  0  0  0
   22.6321  -12.2850    5.8952 C   0  0  0  0  0  0  0  0  0  0  0  0
   21.2619  -12.7839    6.0459 C   0  0  0  0  0  0  0  0  0  0  0  0
   20.9902  -13.7049    7.0635 C   0  0  0  0  0  0  0  0  0  0  0  0
   22.2678  -14.3173    8.0716 Cl  0  0  0  0  0  0  0  0  0  0  0  0
   19.7208  -14.2432    7.2293 C   0  0  0  0  0  0  0  0  0  0  0  0
   18.7177  -13.9085    6.3354 C   0  0  0  0  0  0  0  0  0  0  0  0
   18.9840  -13.0499    5.2843 C   0  0  0  0  0  0  0  0  0  0  0  0
   20.2459  -12.4940    5.1363 C   0  0  0  0  0  0  0  0  0  0  0  0
 22 21  1  0  0  0
  6  7  2  0  0  0
  6  5  1  0  0  0
 12 13  1  0  0  0
 12  5  1  0  0  0
 12 11  1  0  0  0
  7 10  1  0  0  0
  5  8  2  0  0  0
 23 21  2  0  0  0
 23 24  1  0  0  0
  3  2  2  0  0  0
 21 20  1  0  0  0
 10  1  1  0  0  0
 10  9  2  0  0  0
  8  9  1  0  0  0
  2  1  1  0  0  0
  2 14  1  0  0  0
 14 15  2  0  0  0
 14 19  1  0  0  0
 16 15  1  0  0  0
 24 25  2  0  0  0
 15 17  1  0  0  0
 20 19  1  0  0  0
 20 26  2  0  0  0
 19 18  2  0  0  0
 17 18  1  0  0  0
 25 26  1  0  0  0
  1  4  1  0  0  0
M  END
> <minimizedAffinity>
-8.77763

$$$$
4Q9O_2ZW_A_301


 26 28  0  0  0  0  0  0  0  0999 V2000
   23.8069  -14.9574    6.4641 N   0  0  0  0  0  0  0  0  0  0  0  0
   22.9422  -14.1104    7.1201 C   0  0  0  0  0  0  0  0  0  0  0  0
   22.2616  -14.4447    8.0897 O   0  0  0  0  0  0  0  0  0  0  0  0
   24.2816  -14.5644    5.6964 H   0  0  0  0  0  0  0  0  0  0  0  0
   24.5311  -18.9993    7.4314 C   0  0  0  0  0  0  0  0  0  0  0  0
   23.2646  -18.5399    7.0894 C   0  0  0  0  0  0  0  0  0  0  0  0
   23.0514  -17.2166    6.7444 C   0  0  0  0  0  0  0  0  0  0  0  0
   25.5851  -18.0944    7.4120 C   0  0  0  0  0  0  0  0  0  0  0  0
   25.3840  -16.7685    7.0674 C   0  0  0  0  0  0  0  0  0  0  0  0
   24.1112  -16.3151    6.7368 C   0  0  0  0  0  0  0  0  0  0  0  0
   23.5909  -21.0654    8.5205 C   0  0  0  0  0  0  0  0  0  0  0  0
   24.7794  -20.4602    7.7786 C   0  0  0  0  0  0  0  0  0  0  0  0
   26.0689  -20.6822    8.5655 C   0  0  0  0  0  0  0  0  0  0  0  0
   22.8595  -12.7308    6.5929 C   0  0  0  0  0  0  0  0  0  0  0  0
   21.7026  -12.1057    6.1998 C   0  0  0  0  0  0  0  0  0  0  0  0
   20.2834  -12.5164    6.0642 C   0  0  0  0  0  0  0  0  0  0  0  0
   22.0050  -10.8917    5.7058 O   0  0  0  0  0  0  0  0  0  0  0  0
   23.4141  -10.7243    5.7331 N   0  0  0  0  0  0  0  0  0  0  0  0
   23.9149  -11.8272    6.2553 C   0  0  0  0  0  0  0  0  0  0  0  0
   25.3646  -11.7537    6.4603 C   0  0  0  0  0  0  0  0  0  0  0  0
   26.2011  -12.4907    5.6150 C   0  0  0  0  0  0  0  0  0  0  0  0
   25.5339  -13.5455    4.4042 Cl  0  0  0  0  0  0  0  0  0  0  0  0
   27.5793  -12.4927    5.7862 C   0  0  0  0  0  0  0  0  0  0  0  0
   28.1337  -11.7998    6.8491 C   0  0  0  0  0  0  0  0  0  0  0  0
   27.3176  -11.1183    7.7337 C   0  0  0  0  0  0  0  0  0  0  0  0
   25.9439  -11.0972    7.5452 C   0  0  0  0  0  0  0  0  0  0  0  0
 22 21  1  0  0  0
  6  7  2  0  0  0
  6  5  1  0  0  0
 12 13  1  0  0  0
 12  5  1  0  0  0
 12 11  1  0  0  0
  7 10  1  0  0  0
  5  8  2  0  0  0
 23 21  2  0  0  0
 23 24  1  0  0  0
  3  2  2  0  0  0
 21 20  1  0  0  0
 10  1  1  0  0  0
 10  9  2  0  0  0
  8  9  1  0  0  0
  2  1  1  0  0  0
  2 14  1  0  0  0
 14 15  2  0  0  0
 14 19  1  0  0  0
 16 15  1  0  0  0
 24 25  2  0  0  0
 15 17  1  0  0  0
 20 19  1  0  0  0
 20 26  2  0  0  0
 19 18  2  0  0  0
 17 18  1  0  0  0
 25 26  1  0  0  0
  1  4  1  0  0  0
M  END
> <minimizedAffinity>
-8.74626

$$$$
