4X8O_AP5_A_301


 70 75  0  0  0  0  0  0  0  0999 V2000
  -19.6631   18.1823  -35.2467 P   0  0  0  0  0  0  0  0  0  0  0  0
  -18.7394   19.0119  -36.1571 O   0  0  0  0  0  0  0  0  0  0  0  0
  -19.1465   18.2344  -33.7938 O   0  0  0  0  0  0  0  0  0  0  0  0
  -18.2427   17.8839  -33.7592 H   0  0  0  0  0  0  0  0  0  0  0  0
  -21.1792   18.7579  -35.3744 O   0  0  0  0  0  0  0  0  0  0  0  0
  -21.9291   19.1005  -36.7585 P   0  0  0  0  0  0  0  0  0  0  0  0
  -23.2835   18.4700  -36.7276 O   0  0  0  0  0  0  0  0  0  0  0  0
  -21.1181   18.5196  -37.9042 O   0  0  0  0  0  0  0  0  0  0  0  0
  -21.0179   17.5632  -37.7771 H   0  0  0  0  0  0  0  0  0  0  0  0
  -22.1201   20.6453  -36.9162 O   0  0  0  0  0  0  0  0  0  0  0  0
  -21.6150   21.8002  -35.9514 P   0  0  0  0  0  0  0  0  0  0  0  0
  -20.2714   22.3363  -36.3949 O   0  0  0  0  0  0  0  0  0  0  0  0
  -21.4916   21.2319  -34.5524 O   0  0  0  0  0  0  0  0  0  0  0  0
  -20.8415   20.5120  -34.5520 H   0  0  0  0  0  0  0  0  0  0  0  0
  -22.6856   22.9757  -35.9197 O   0  0  0  0  0  0  0  0  0  0  0  0
  -23.6823   22.9773  -36.9380 C   0  0  0  0  0  0  0  0  0  0  0  0
  -23.9560   24.4632  -37.3941 C   0  0  0  0  0  0  0  0  0  0  0  0
  -23.1274   25.2781  -36.8170 O   0  0  0  0  0  0  0  0  0  0  0  0
  -23.6776   24.6061  -38.8968 C   0  0  0  0  0  0  0  0  0  0  0  0
  -24.7761   24.2978  -39.6004 O   0  0  0  0  0  0  0  0  0  0  0  0
  -23.3284   26.0982  -39.0140 C   0  0  0  0  0  0  0  0  0  0  0  0
  -24.6095   26.9006  -39.0791 O   0  0  0  0  0  0  0  0  0  0  0  0
  -22.6960   26.3891  -37.9130 C   0  0  0  0  0  0  0  0  0  0  0  0
  -25.5154   24.8520  -39.3049 H   0  0  0  0  0  0  0  0  0  0  0  0
  -25.1481   26.7142  -38.2942 H   0  0  0  0  0  0  0  0  0  0  0  0
  -21.2978   26.3333  -38.0459 N   0  0  0  0  0  0  0  0  0  0  0  0
  -20.4458   25.6672  -37.2514 C   0  0  0  0  0  0  0  0  0  0  0  0
  -19.1753   25.8732  -37.7149 N   0  0  0  0  0  0  0  0  0  0  0  0
  -19.2570   26.6756  -38.8074 C   0  0  0  0  0  0  0  0  0  0  0  0
  -18.2836   27.1879  -39.6434 C   0  0  0  0  0  0  0  0  0  0  0  0
  -16.8531   27.1146  -39.7529 N   0  0  0  0  0  0  0  0  0  0  0  0
  -18.6342   27.9839  -40.6851 N   0  0  0  0  0  0  0  0  0  0  0  0
  -19.9432   28.2778  -40.9003 C   0  0  0  0  0  0  0  0  0  0  0  0
  -20.9071   27.7720  -40.0679 N   0  0  0  0  0  0  0  0  0  0  0  0
  -20.5630   26.9704  -39.0214 C   0  0  0  0  0  0  0  0  0  0  0  0
  -16.3362   26.5860  -39.1029 H   0  0  0  0  0  0  0  0  0  0  0  0
  -16.3898   27.5929  -40.4780 H   0  0  0  0  0  0  0  0  0  0  0  0
  -19.6965   16.6562  -35.7432 O   0  0  0  0  0  0  0  0  0  0  0  0
  -18.4669   15.7129  -35.7597 P   0  0  0  0  0  0  0  0  0  0  0  0
  -18.1459   15.2922  -37.1859 O   0  0  0  0  0  0  0  0  0  0  0  0
  -17.2763   16.4038  -35.1321 O   0  0  0  0  0  0  0  0  0  0  0  0
  -16.5117   15.8071  -35.1464 H   0  0  0  0  0  0  0  0  0  0  0  0
  -18.8581   14.3727  -34.9255 O   0  0  0  0  0  0  0  0  0  0  0  0
  -18.9765   14.2455  -33.3647 P   0  0  0  0  0  0  0  0  0  0  0  0
  -17.7776   13.5596  -32.7878 O   0  0  0  0  0  0  0  0  0  0  0  0
  -19.1498   15.5912  -32.7308 O   0  0  0  0  0  0  0  0  0  0  0  0
  -18.3584   16.1285  -32.8914 H   0  0  0  0  0  0  0  0  0  0  0  0
  -20.2839   13.3305  -33.1108 O   0  0  0  0  0  0  0  0  0  0  0  0
  -20.5972   12.3045  -34.0363 C   0  0  0  0  0  0  0  0  0  0  0  0
  -21.3306   11.1583  -33.2912 C   0  0  0  0  0  0  0  0  0  0  0  0
  -20.8628   10.0178  -33.6689 O   0  0  0  0  0  0  0  0  0  0  0  0
  -21.0643   11.2573  -31.7826 C   0  0  0  0  0  0  0  0  0  0  0  0
  -22.1804   10.9086  -31.0754 O   0  0  0  0  0  0  0  0  0  0  0  0
  -19.9048   10.2694  -31.5221 C   0  0  0  0  0  0  0  0  0  0  0  0
  -20.0194    9.6836  -30.1623 O   0  0  0  0  0  0  0  0  0  0  0  0
  -20.0165    9.3727  -32.4360 C   0  0  0  0  0  0  0  0  0  0  0  0
  -22.4495   10.0090  -31.3189 H   0  0  0  0  0  0  0  0  0  0  0  0
  -20.8762    9.2378  -30.0734 H   0  0  0  0  0  0  0  0  0  0  0  0
  -18.7514    8.9674  -32.9330 N   0  0  0  0  0  0  0  0  0  0  0  0
  -17.6720    9.7546  -33.1706 C   0  0  0  0  0  0  0  0  0  0  0  0
  -16.6744    8.9655  -33.6478 N   0  0  0  0  0  0  0  0  0  0  0  0
  -17.1410    7.6832  -33.7098 C   0  0  0  0  0  0  0  0  0  0  0  0
  -16.5533    6.5037  -34.1150 C   0  0  0  0  0  0  0  0  0  0  0  0
  -15.1982    6.2221  -34.6257 N   0  0  0  0  0  0  0  0  0  0  0  0
  -17.2599    5.3449  -34.0738 N   0  0  0  0  0  0  0  0  0  0  0  0
  -18.5511    5.3384  -33.6344 C   0  0  0  0  0  0  0  0  0  0  0  0
  -19.1340    6.4989  -33.2346 N   0  0  0  0  0  0  0  0  0  0  0  0
  -18.4196    7.6813  -33.2742 C   0  0  0  0  0  0  0  0  0  0  0  0
  -14.5465    6.9537  -34.7218 H   0  0  0  0  0  0  0  0  0  0  0  0
  -14.9457    5.3025  -34.8704 H   0  0  0  0  0  0  0  0  0  0  0  0
 44 45  2  0  0  0
 44 46  1  0  0  0
 44 43  1  0  0  0
 44 48  1  0  0  0
 43 39  1  0  0  0
 39 40  2  0  0  0
 39 41  1  0  0  0
 39 38  1  0  0  0
 38  1  1  0  0  0
  1  2  2  0  0  0
  1  3  1  0  0  0
  1  5  1  0  0  0
  5  6  1  0  0  0
  6  7  2  0  0  0
  6  8  1  0  0  0
  6 10  1  0  0  0
 10 11  1  0  0  0
 11 12  2  0  0  0
 11 13  1  0  0  0
 11 15  1  0  0  0
 48 49  1  0  0  0
 49 50  1  0  0  0
 50 51  1  0  0  0
 50 52  1  0  0  0
 51 56  1  0  0  0
 52 53  1  0  0  0
 52 54  1  0  0  0
 54 55  1  0  0  0
 54 56  1  0  0  0
 56 59  1  0  0  0
 59 60  1  0  0  0
 59 68  1  0  0  0
 60 61  2  0  0  0
 61 62  1  0  0  0
 62 63  1  0  0  0
 62 68  2  0  0  0
 63 64  1  0  0  0
 63 65  2  0  0  0
 65 66  1  0  0  0
 66 67  2  0  0  0
 67 68  1  0  0  0
 15 16  1  0  0  0
 16 17  1  0  0  0
 17 18  1  0  0  0
 17 19  1  0  0  0
 18 23  1  0  0  0
 19 20  1  0  0  0
 19 21  1  0  0  0
 21 22  1  0  0  0
 21 23  1  0  0  0
 23 26  1  0  0  0
 26 27  1  0  0  0
 26 35  1  0  0  0
 27 28  2  0  0  0
 28 29  1  0  0  0
 29 30  1  0  0  0
 29 35  2  0  0  0
 30 31  1  0  0  0
 30 32  2  0  0  0
 32 33  1  0  0  0
 33 34  2  0  0  0
 34 35  1  0  0  0
 46 47  1  0  0  0
 41 42  1  0  0  0
  3  4  1  0  0  0
  8  9  1  0  0  0
 13 14  1  0  0  0
 53 57  1  0  0  0
 55 58  1  0  0  0
 64 69  1  0  0  0
 64 70  1  0  0  0
 20 24  1  0  0  0
 22 25  1  0  0  0
 31 36  1  0  0  0
 31 37  1  0  0  0
M  END
> <minimizedAffinity>
-16.94755

$$$$
4X8O_AP5_A_301


 70 75  0  0  0  0  0  0  0  0999 V2000
  -19.5129   17.5972  -35.8165 P   0  0  0  0  0  0  0  0  0  0  0  0
  -17.9805   17.6594  -35.9523 O   0  0  0  0  0  0  0  0  0  0  0  0
  -20.0008   16.1562  -36.0741 O   0  0  0  0  0  0  0  0  0  0  0  0
  -19.7338   15.8788  -36.9644 H   0  0  0  0  0  0  0  0  0  0  0  0
  -19.9295   18.1250  -34.3353 O   0  0  0  0  0  0  0  0  0  0  0  0
  -19.1669   17.7489  -32.9669 P   0  0  0  0  0  0  0  0  0  0  0  0
  -19.6928   18.6282  -31.8791 O   0  0  0  0  0  0  0  0  0  0  0  0
  -17.6808   18.0001  -33.1570 O   0  0  0  0  0  0  0  0  0  0  0  0
  -17.5386   18.9272  -33.4044 H   0  0  0  0  0  0  0  0  0  0  0  0
  -19.4511   16.2636  -32.5658 O   0  0  0  0  0  0  0  0  0  0  0  0
  -18.7268   14.9506  -33.0867 P   0  0  0  0  0  0  0  0  0  0  0  0
  -17.9990   14.2442  -31.9639 O   0  0  0  0  0  0  0  0  0  0  0  0
  -17.7317   15.3487  -34.1575 O   0  0  0  0  0  0  0  0  0  0  0  0
  -17.0690   15.9462  -33.7770 H   0  0  0  0  0  0  0  0  0  0  0  0
  -19.7980   13.9733  -33.7396 O   0  0  0  0  0  0  0  0  0  0  0  0
  -19.3256   12.7204  -34.2269 C   0  0  0  0  0  0  0  0  0  0  0  0
  -20.3952   11.6038  -33.9105 C   0  0  0  0  0  0  0  0  0  0  0  0
  -20.1291   10.5172  -34.5678 O   0  0  0  0  0  0  0  0  0  0  0  0
  -20.3116   11.2075  -32.4301 C   0  0  0  0  0  0  0  0  0  0  0  0
  -21.0880   12.0136  -31.6926 O   0  0  0  0  0  0  0  0  0  0  0  0
  -20.8505    9.7684  -32.4562 C   0  0  0  0  0  0  0  0  0  0  0  0
  -22.3631    9.8084  -32.4575 O   0  0  0  0  0  0  0  0  0  0  0  0
  -20.4342    9.2676  -33.5844 C   0  0  0  0  0  0  0  0  0  0  0  0
  -21.9958   11.9887  -32.0334 H   0  0  0  0  0  0  0  0  0  0  0  0
  -22.6722   10.3260  -33.2175 H   0  0  0  0  0  0  0  0  0  0  0  0
  -19.2457    8.5279  -33.4571 N   0  0  0  0  0  0  0  0  0  0  0  0
  -18.0416    9.0050  -33.1058 C   0  0  0  0  0  0  0  0  0  0  0  0
  -17.1509    7.9666  -33.1058 N   0  0  0  0  0  0  0  0  0  0  0  0
  -17.8242    6.8423  -33.4618 C   0  0  0  0  0  0  0  0  0  0  0  0
  -17.4066    5.5347  -33.6190 C   0  0  0  0  0  0  0  0  0  0  0  0
  -16.1766    4.8051  -33.4831 N   0  0  0  0  0  0  0  0  0  0  0  0
  -18.2947    4.5790  -33.9925 N   0  0  0  0  0  0  0  0  0  0  0  0
  -19.5930    4.9128  -34.2146 C   0  0  0  0  0  0  0  0  0  0  0  0
  -20.0048    6.2108  -34.0619 N   0  0  0  0  0  0  0  0  0  0  0  0
  -19.1195    7.1753  -33.6850 C   0  0  0  0  0  0  0  0  0  0  0  0
  -15.3535    5.2736  -33.2145 H   0  0  0  0  0  0  0  0  0  0  0  0
  -16.1569    3.8366  -33.6587 H   0  0  0  0  0  0  0  0  0  0  0  0
  -20.1984   18.5869  -36.8781 O   0  0  0  0  0  0  0  0  0  0  0  0
  -21.7241   18.8392  -36.9828 P   0  0  0  0  0  0  0  0  0  0  0  0
  -22.0928   19.2517  -38.3998 O   0  0  0  0  0  0  0  0  0  0  0  0
  -22.4832   17.5940  -36.5807 O   0  0  0  0  0  0  0  0  0  0  0  0
  -23.4364   17.7602  -36.6489 H   0  0  0  0  0  0  0  0  0  0  0  0
  -22.0911   20.0789  -35.9960 O   0  0  0  0  0  0  0  0  0  0  0  0
  -21.1693   21.3027  -35.6515 P   0  0  0  0  0  0  0  0  0  0  0  0
  -20.7703   21.2871  -34.2089 O   0  0  0  0  0  0  0  0  0  0  0  0
  -19.9489   21.3131  -36.5193 O   0  0  0  0  0  0  0  0  0  0  0  0
  -19.4160   20.5234  -36.3373 H   0  0  0  0  0  0  0  0  0  0  0  0
  -22.0747   22.6104  -35.9368 O   0  0  0  0  0  0  0  0  0  0  0  0
  -22.9918   22.5912  -37.0166 C   0  0  0  0  0  0  0  0  0  0  0  0
  -23.7534   23.9422  -37.0569 C   0  0  0  0  0  0  0  0  0  0  0  0
  -22.9678   24.9010  -36.7025 O   0  0  0  0  0  0  0  0  0  0  0  0
  -24.1956   24.2536  -38.4937 C   0  0  0  0  0  0  0  0  0  0  0  0
  -25.4237   24.8529  -38.4975 O   0  0  0  0  0  0  0  0  0  0  0  0
  -23.1072   25.2030  -39.0432 C   0  0  0  0  0  0  0  0  0  0  0  0
  -23.6946   26.1518  -40.0232 O   0  0  0  0  0  0  0  0  0  0  0  0
  -22.6425   25.8131  -38.0120 C   0  0  0  0  0  0  0  0  0  0  0  0
  -25.3898   25.6629  -37.9649 H   0  0  0  0  0  0  0  0  0  0  0  0
  -24.4066   26.6555  -39.5986 H   0  0  0  0  0  0  0  0  0  0  0  0
  -21.2370   25.9860  -38.0918 N   0  0  0  0  0  0  0  0  0  0  0  0
  -20.2997   25.4950  -37.2423 C   0  0  0  0  0  0  0  0  0  0  0  0
  -19.0807   25.9028  -37.6817 N   0  0  0  0  0  0  0  0  0  0  0  0
  -19.2653   26.6541  -38.8073 C   0  0  0  0  0  0  0  0  0  0  0  0
  -18.3801   27.3027  -39.6420 C   0  0  0  0  0  0  0  0  0  0  0  0
  -16.9089   27.4049  -39.6023 N   0  0  0  0  0  0  0  0  0  0  0  0
  -18.8425   27.9940  -40.7154 N   0  0  0  0  0  0  0  0  0  0  0  0
  -20.1802   28.0533  -40.9748 C   0  0  0  0  0  0  0  0  0  0  0  0
  -21.0559   27.4158  -40.1543 N   0  0  0  0  0  0  0  0  0  0  0  0
  -20.5909   26.7105  -39.0605 C   0  0  0  0  0  0  0  0  0  0  0  0
  -16.4037   26.9596  -38.8842 H   0  0  0  0  0  0  0  0  0  0  0  0
  -16.4323   27.9185  -40.2940 H   0  0  0  0  0  0  0  0  0  0  0  0
 44 45  2  0  0  0
 44 46  1  0  0  0
 44 43  1  0  0  0
 44 48  1  0  0  0
 43 39  1  0  0  0
 39 40  2  0  0  0
 39 41  1  0  0  0
 39 38  1  0  0  0
 38  1  1  0  0  0
  1  2  2  0  0  0
  1  3  1  0  0  0
  1  5  1  0  0  0
  5  6  1  0  0  0
  6  7  2  0  0  0
  6  8  1  0  0  0
  6 10  1  0  0  0
 10 11  1  0  0  0
 11 12  2  0  0  0
 11 13  1  0  0  0
 11 15  1  0  0  0
 48 49  1  0  0  0
 49 50  1  0  0  0
 50 51  1  0  0  0
 50 52  1  0  0  0
 51 56  1  0  0  0
 52 53  1  0  0  0
 52 54  1  0  0  0
 54 55  1  0  0  0
 54 56  1  0  0  0
 56 59  1  0  0  0
 59 60  1  0  0  0
 59 68  1  0  0  0
 60 61  2  0  0  0
 61 62  1  0  0  0
 62 63  1  0  0  0
 62 68  2  0  0  0
 63 64  1  0  0  0
 63 65  2  0  0  0
 65 66  1  0  0  0
 66 67  2  0  0  0
 67 68  1  0  0  0
 15 16  1  0  0  0
 16 17  1  0  0  0
 17 18  1  0  0  0
 17 19  1  0  0  0
 18 23  1  0  0  0
 19 20  1  0  0  0
 19 21  1  0  0  0
 21 22  1  0  0  0
 21 23  1  0  0  0
 23 26  1  0  0  0
 26 27  1  0  0  0
 26 35  1  0  0  0
 27 28  2  0  0  0
 28 29  1  0  0  0
 29 30  1  0  0  0
 29 35  2  0  0  0
 30 31  1  0  0  0
 30 32  2  0  0  0
 32 33  1  0  0  0
 33 34  2  0  0  0
 34 35  1  0  0  0
 46 47  1  0  0  0
 41 42  1  0  0  0
  3  4  1  0  0  0
  8  9  1  0  0  0
 13 14  1  0  0  0
 53 57  1  0  0  0
 55 58  1  0  0  0
 64 69  1  0  0  0
 64 70  1  0  0  0
 20 24  1  0  0  0
 22 25  1  0  0  0
 31 36  1  0  0  0
 31 37  1  0  0  0
M  END
> <minimizedAffinity>
-15.17097

$$$$
4X8O_AP5_A_301


 70 75  0  0  0  0  0  0  0  0999 V2000
  -18.9170   19.6105  -33.4090 P   0  0  0  0  0  0  0  0  0  0  0  0
  -17.7171   20.2892  -32.7232 O   0  0  0  0  0  0  0  0  0  0  0  0
  -20.2303   20.2549  -32.9186 O   0  0  0  0  0  0  0  0  0  0  0  0
  -20.2984   20.1578  -31.9559 H   0  0  0  0  0  0  0  0  0  0  0  0
  -18.7408   19.7394  -35.0210 O   0  0  0  0  0  0  0  0  0  0  0  0
  -18.3281   21.0846  -35.8055 P   0  0  0  0  0  0  0  0  0  0  0  0
  -17.7438   20.6982  -37.1255 O   0  0  0  0  0  0  0  0  0  0  0  0
  -17.2894   21.8256  -34.9811 O   0  0  0  0  0  0  0  0  0  0  0  0
  -16.5244   21.2486  -34.8305 H   0  0  0  0  0  0  0  0  0  0  0  0
  -19.5862   21.9742  -36.0772 O   0  0  0  0  0  0  0  0  0  0  0  0
  -21.1057   21.5240  -36.1665 P   0  0  0  0  0  0  0  0  0  0  0  0
  -21.7883   21.6289  -34.8203 O   0  0  0  0  0  0  0  0  0  0  0  0
  -21.1491   20.0857  -36.6405 O   0  0  0  0  0  0  0  0  0  0  0  0
  -20.6884   19.5205  -36.0008 H   0  0  0  0  0  0  0  0  0  0  0  0
  -21.8674   22.4242  -37.2336 O   0  0  0  0  0  0  0  0  0  0  0  0
  -23.2769   22.5653  -37.0800 C   0  0  0  0  0  0  0  0  0  0  0  0
  -23.6977   24.0340  -37.4759 C   0  0  0  0  0  0  0  0  0  0  0  0
  -22.9463   24.9027  -36.8724 O   0  0  0  0  0  0  0  0  0  0  0  0
  -23.4495   24.2608  -38.9735 C   0  0  0  0  0  0  0  0  0  0  0  0
  -24.5199   23.8746  -39.6818 O   0  0  0  0  0  0  0  0  0  0  0  0
  -23.2476   25.7832  -39.0343 C   0  0  0  0  0  0  0  0  0  0  0  0
  -24.6010   26.4593  -39.0600 O   0  0  0  0  0  0  0  0  0  0  0  0
  -22.6355   26.0917  -37.9266 C   0  0  0  0  0  0  0  0  0  0  0  0
  -25.3064   24.3425  -39.3603 H   0  0  0  0  0  0  0  0  0  0  0  0
  -25.1111   26.1913  -38.2796 H   0  0  0  0  0  0  0  0  0  0  0  0
  -21.2398   26.1772  -38.0703 N   0  0  0  0  0  0  0  0  0  0  0  0
  -20.3187   25.6203  -37.2689 C   0  0  0  0  0  0  0  0  0  0  0  0
  -19.0791   25.9455  -37.7476 N   0  0  0  0  0  0  0  0  0  0  0  0
  -19.2500   26.7107  -38.8563 C   0  0  0  0  0  0  0  0  0  0  0  0
  -18.3399   27.3017  -39.7116 C   0  0  0  0  0  0  0  0  0  0  0  0
  -16.9102   27.3736  -39.8317 N   0  0  0  0  0  0  0  0  0  0  0  0
  -18.7772   28.0339  -40.7671 N   0  0  0  0  0  0  0  0  0  0  0  0
  -20.1109   28.1866  -40.9774 C   0  0  0  0  0  0  0  0  0  0  0  0
  -21.0123   27.6030  -40.1261 N   0  0  0  0  0  0  0  0  0  0  0  0
  -20.5808   26.8646  -39.0655 C   0  0  0  0  0  0  0  0  0  0  0  0
  -16.3374   26.9157  -39.1749 H   0  0  0  0  0  0  0  0  0  0  0  0
  -16.5032   27.8808  -40.5708 H   0  0  0  0  0  0  0  0  0  0  0  0
  -18.9331   18.0435  -33.0618 O   0  0  0  0  0  0  0  0  0  0  0  0
  -18.8514   16.9112  -34.1170 P   0  0  0  0  0  0  0  0  0  0  0  0
  -19.9055   17.1189  -35.1939 O   0  0  0  0  0  0  0  0  0  0  0  0
  -17.4692   16.8749  -34.7309 O   0  0  0  0  0  0  0  0  0  0  0  0
  -17.4265   16.1642  -35.3896 H   0  0  0  0  0  0  0  0  0  0  0  0
  -19.1826   15.5074  -33.3655 O   0  0  0  0  0  0  0  0  0  0  0  0
  -18.7571   14.0717  -33.8388 P   0  0  0  0  0  0  0  0  0  0  0  0
  -18.2966   14.0886  -35.2630 O   0  0  0  0  0  0  0  0  0  0  0  0
  -17.6790   13.5172  -32.9596 O   0  0  0  0  0  0  0  0  0  0  0  0
  -16.8833   14.0663  -33.0383 H   0  0  0  0  0  0  0  0  0  0  0  0
  -20.0949   13.1727  -33.7250 O   0  0  0  0  0  0  0  0  0  0  0  0
  -20.0269   11.7931  -34.0406 C   0  0  0  0  0  0  0  0  0  0  0  0
  -21.0708   11.0271  -33.1861 C   0  0  0  0  0  0  0  0  0  0  0  0
  -21.1166    9.7914  -33.5509 O   0  0  0  0  0  0  0  0  0  0  0  0
  -20.6448   11.0275  -31.7112 C   0  0  0  0  0  0  0  0  0  0  0  0
  -21.7364   11.1445  -30.8975 O   0  0  0  0  0  0  0  0  0  0  0  0
  -19.9363    9.6695  -31.5061 C   0  0  0  0  0  0  0  0  0  0  0  0
  -20.1378    9.1852  -30.1168 O   0  0  0  0  0  0  0  0  0  0  0  0
  -20.4710    8.8788  -32.3665 C   0  0  0  0  0  0  0  0  0  0  0  0
  -22.3531   10.4177  -31.0772 H   0  0  0  0  0  0  0  0  0  0  0  0
  -21.0876    9.1071  -29.9361 H   0  0  0  0  0  0  0  0  0  0  0  0
  -19.5132    8.0107  -32.9501 N   0  0  0  0  0  0  0  0  0  0  0  0
  -19.7062    6.7314  -33.3595 C   0  0  0  0  0  0  0  0  0  0  0  0
  -18.5282    6.2660  -33.8506 N   0  0  0  0  0  0  0  0  0  0  0  0
  -17.5999    7.2620  -33.7404 C   0  0  0  0  0  0  0  0  0  0  0  0
  -16.2653    7.3243  -34.0810 C   0  0  0  0  0  0  0  0  0  0  0  0
  -15.3736    6.3202  -34.6916 N   0  0  0  0  0  0  0  0  0  0  0  0
  -15.5609    8.4634  -33.8572 N   0  0  0  0  0  0  0  0  0  0  0  0
  -16.1645    9.5498  -33.2953 C   0  0  0  0  0  0  0  0  0  0  0  0
  -17.4795    9.4922  -32.9579 N   0  0  0  0  0  0  0  0  0  0  0  0
  -18.2015    8.3355  -33.1835 C   0  0  0  0  0  0  0  0  0  0  0  0
  -15.7212    5.4286  -34.9225 H   0  0  0  0  0  0  0  0  0  0  0  0
  -14.4307    6.5418  -34.8683 H   0  0  0  0  0  0  0  0  0  0  0  0
 44 45  2  0  0  0
 44 46  1  0  0  0
 44 43  1  0  0  0
 44 48  1  0  0  0
 43 39  1  0  0  0
 39 40  2  0  0  0
 39 41  1  0  0  0
 39 38  1  0  0  0
 38  1  1  0  0  0
  1  2  2  0  0  0
  1  3  1  0  0  0
  1  5  1  0  0  0
  5  6  1  0  0  0
  6  7  2  0  0  0
  6  8  1  0  0  0
  6 10  1  0  0  0
 10 11  1  0  0  0
 11 12  2  0  0  0
 11 13  1  0  0  0
 11 15  1  0  0  0
 48 49  1  0  0  0
 49 50  1  0  0  0
 50 51  1  0  0  0
 50 52  1  0  0  0
 51 56  1  0  0  0
 52 53  1  0  0  0
 52 54  1  0  0  0
 54 55  1  0  0  0
 54 56  1  0  0  0
 56 59  1  0  0  0
 59 60  1  0  0  0
 59 68  1  0  0  0
 60 61  2  0  0  0
 61 62  1  0  0  0
 62 63  1  0  0  0
 62 68  2  0  0  0
 63 64  1  0  0  0
 63 65  2  0  0  0
 65 66  1  0  0  0
 66 67  2  0  0  0
 67 68  1  0  0  0
 15 16  1  0  0  0
 16 17  1  0  0  0
 17 18  1  0  0  0
 17 19  1  0  0  0
 18 23  1  0  0  0
 19 20  1  0  0  0
 19 21  1  0  0  0
 21 22  1  0  0  0
 21 23  1  0  0  0
 23 26  1  0  0  0
 26 27  1  0  0  0
 26 35  1  0  0  0
 27 28  2  0  0  0
 28 29  1  0  0  0
 29 30  1  0  0  0
 29 35  2  0  0  0
 30 31  1  0  0  0
 30 32  2  0  0  0
 32 33  1  0  0  0
 33 34  2  0  0  0
 34 35  1  0  0  0
 46 47  1  0  0  0
 41 42  1  0  0  0
  3  4  1  0  0  0
  8  9  1  0  0  0
 13 14  1  0  0  0
 53 57  1  0  0  0
 55 58  1  0  0  0
 64 69  1  0  0  0
 64 70  1  0  0  0
 20 24  1  0  0  0
 22 25  1  0  0  0
 31 36  1  0  0  0
 31 37  1  0  0  0
M  END
> <minimizedAffinity>
-14.53519

$$$$
4X8O_AP5_A_301


 70 75  0  0  0  0  0  0  0  0999 V2000
  -18.9041   17.4522  -33.4194 P   0  0  0  0  0  0  0  0  0  0  0  0
  -19.5057   16.4944  -32.3747 O   0  0  0  0  0  0  0  0  0  0  0  0
  -18.0391   18.5168  -32.7131 O   0  0  0  0  0  0  0  0  0  0  0  0
  -18.5860   19.0120  -32.0833 H   0  0  0  0  0  0  0  0  0  0  0  0
  -18.0440   16.5835  -34.4926 O   0  0  0  0  0  0  0  0  0  0  0  0
  -18.6421   15.4327  -35.4482 P   0  0  0  0  0  0  0  0  0  0  0  0
  -17.7458   15.2954  -36.6360 O   0  0  0  0  0  0  0  0  0  0  0  0
  -20.0311   15.8519  -35.8986 O   0  0  0  0  0  0  0  0  0  0  0  0
  -19.9789   16.7064  -36.3547 H   0  0  0  0  0  0  0  0  0  0  0  0
  -18.6711   14.0564  -34.7046 O   0  0  0  0  0  0  0  0  0  0  0  0
  -19.9180   13.3155  -34.0596 P   0  0  0  0  0  0  0  0  0  0  0  0
  -21.1950   13.6452  -34.8011 O   0  0  0  0  0  0  0  0  0  0  0  0
  -20.0447   13.7637  -32.6180 O   0  0  0  0  0  0  0  0  0  0  0  0
  -20.1958   14.7214  -32.5892 H   0  0  0  0  0  0  0  0  0  0  0  0
  -19.6714   11.7445  -34.0738 O   0  0  0  0  0  0  0  0  0  0  0  0
  -20.8188   10.9038  -33.9896 C   0  0  0  0  0  0  0  0  0  0  0  0
  -20.7401   10.0494  -32.6649 C   0  0  0  0  0  0  0  0  0  0  0  0
  -20.7796    8.7812  -32.9363 O   0  0  0  0  0  0  0  0  0  0  0  0
  -19.3835   10.2712  -31.9822 C   0  0  0  0  0  0  0  0  0  0  0  0
  -19.4451   11.3350  -31.1691 O   0  0  0  0  0  0  0  0  0  0  0  0
  -19.2076    8.9636  -31.1941 C   0  0  0  0  0  0  0  0  0  0  0  0
  -19.9821    9.0613  -29.8979 O   0  0  0  0  0  0  0  0  0  0  0  0
  -19.7392    8.0391  -31.9422 C   0  0  0  0  0  0  0  0  0  0  0  0
  -20.1664   11.2136  -30.5320 H   0  0  0  0  0  0  0  0  0  0  0  0
  -20.9144    9.2462  -30.0915 H   0  0  0  0  0  0  0  0  0  0  0  0
  -18.7993    7.3633  -32.7395 N   0  0  0  0  0  0  0  0  0  0  0  0
  -18.9464    6.1494  -33.2925 C   0  0  0  0  0  0  0  0  0  0  0  0
  -17.8045    5.8505  -33.9839 N   0  0  0  0  0  0  0  0  0  0  0  0
  -16.9515    6.8986  -33.8494 C   0  0  0  0  0  0  0  0  0  0  0  0
  -15.6763    7.1112  -34.3369 C   0  0  0  0  0  0  0  0  0  0  0  0
  -14.7346    6.3959  -35.1525 N   0  0  0  0  0  0  0  0  0  0  0  0
  -15.0241    8.2662  -34.0502 N   0  0  0  0  0  0  0  0  0  0  0  0
  -15.6272    9.2096  -33.2803 C   0  0  0  0  0  0  0  0  0  0  0  0
  -16.8904    8.9956  -32.7945 N   0  0  0  0  0  0  0  0  0  0  0  0
  -17.5523    7.8394  -33.0799 C   0  0  0  0  0  0  0  0  0  0  0  0
  -14.9641    5.5051  -35.5032 H   0  0  0  0  0  0  0  0  0  0  0  0
  -13.8597    6.7965  -35.3606 H   0  0  0  0  0  0  0  0  0  0  0  0
  -20.0782   18.1799  -34.2370 O   0  0  0  0  0  0  0  0  0  0  0  0
  -19.8552   19.3195  -35.2634 P   0  0  0  0  0  0  0  0  0  0  0  0
  -18.9138   20.3676  -34.6893 O   0  0  0  0  0  0  0  0  0  0  0  0
  -19.2949   18.7546  -36.5501 O   0  0  0  0  0  0  0  0  0  0  0  0
  -19.1584   19.4737  -37.1866 H   0  0  0  0  0  0  0  0  0  0  0  0
  -21.2905   20.0368  -35.5286 O   0  0  0  0  0  0  0  0  0  0  0  0
  -22.2450   19.7922  -36.7513 P   0  0  0  0  0  0  0  0  0  0  0  0
  -21.4710   19.3826  -37.9654 O   0  0  0  0  0  0  0  0  0  0  0  0
  -23.2735   18.7532  -36.4265 O   0  0  0  0  0  0  0  0  0  0  0  0
  -22.8346   17.9041  -36.2618 H   0  0  0  0  0  0  0  0  0  0  0  0
  -22.9528   21.2178  -37.0300 O   0  0  0  0  0  0  0  0  0  0  0  0
  -22.4542   22.3735  -36.3794 C   0  0  0  0  0  0  0  0  0  0  0  0
  -23.4158   23.5604  -36.6501 C   0  0  0  0  0  0  0  0  0  0  0  0
  -22.7943   24.6774  -36.4824 O   0  0  0  0  0  0  0  0  0  0  0  0
  -23.8791   23.5382  -38.1135 C   0  0  0  0  0  0  0  0  0  0  0  0
  -25.1852   23.9288  -38.2083 O   0  0  0  0  0  0  0  0  0  0  0  0
  -22.9433   24.5324  -38.8375 C   0  0  0  0  0  0  0  0  0  0  0  0
  -23.6560   25.1883  -39.9631 O   0  0  0  0  0  0  0  0  0  0  0  0
  -22.5948   25.3811  -37.9375 C   0  0  0  0  0  0  0  0  0  0  0  0
  -25.2858   24.8159  -37.8291 H   0  0  0  0  0  0  0  0  0  0  0  0
  -24.4440   25.6425  -39.6261 H   0  0  0  0  0  0  0  0  0  0  0  0
  -21.2323   25.7537  -38.0650 N   0  0  0  0  0  0  0  0  0  0  0  0
  -20.2057   25.4043  -37.2492 C   0  0  0  0  0  0  0  0  0  0  0  0
  -19.0735   25.9817  -37.7291 N   0  0  0  0  0  0  0  0  0  0  0  0
  -19.4025   26.6960  -38.8459 C   0  0  0  0  0  0  0  0  0  0  0  0
  -18.6485   27.4627  -39.7088 C   0  0  0  0  0  0  0  0  0  0  0  0
  -17.2068   27.7751  -39.7192 N   0  0  0  0  0  0  0  0  0  0  0  0
  -19.2418   28.0779  -40.7640 N   0  0  0  0  0  0  0  0  0  0  0  0
  -20.5823   27.9440  -40.9774 C   0  0  0  0  0  0  0  0  0  0  0  0
  -21.3289   27.1895  -40.1290 N   0  0  0  0  0  0  0  0  0  0  0  0
  -20.7304   26.5609  -39.0535 C   0  0  0  0  0  0  0  0  0  0  0  0
  -16.6186   27.4087  -39.0199 H   0  0  0  0  0  0  0  0  0  0  0  0
  -16.8328   28.3500  -40.4255 H   0  0  0  0  0  0  0  0  0  0  0  0
 44 45  2  0  0  0
 44 46  1  0  0  0
 44 43  1  0  0  0
 44 48  1  0  0  0
 43 39  1  0  0  0
 39 40  2  0  0  0
 39 41  1  0  0  0
 39 38  1  0  0  0
 38  1  1  0  0  0
  1  2  2  0  0  0
  1  3  1  0  0  0
  1  5  1  0  0  0
  5  6  1  0  0  0
  6  7  2  0  0  0
  6  8  1  0  0  0
  6 10  1  0  0  0
 10 11  1  0  0  0
 11 12  2  0  0  0
 11 13  1  0  0  0
 11 15  1  0  0  0
 48 49  1  0  0  0
 49 50  1  0  0  0
 50 51  1  0  0  0
 50 52  1  0  0  0
 51 56  1  0  0  0
 52 53  1  0  0  0
 52 54  1  0  0  0
 54 55  1  0  0  0
 54 56  1  0  0  0
 56 59  1  0  0  0
 59 60  1  0  0  0
 59 68  1  0  0  0
 60 61  2  0  0  0
 61 62  1  0  0  0
 62 63  1  0  0  0
 62 68  2  0  0  0
 63 64  1  0  0  0
 63 65  2  0  0  0
 65 66  1  0  0  0
 66 67  2  0  0  0
 67 68  1  0  0  0
 15 16  1  0  0  0
 16 17  1  0  0  0
 17 18  1  0  0  0
 17 19  1  0  0  0
 18 23  1  0  0  0
 19 20  1  0  0  0
 19 21  1  0  0  0
 21 22  1  0  0  0
 21 23  1  0  0  0
 23 26  1  0  0  0
 26 27  1  0  0  0
 26 35  1  0  0  0
 27 28  2  0  0  0
 28 29  1  0  0  0
 29 30  1  0  0  0
 29 35  2  0  0  0
 30 31  1  0  0  0
 30 32  2  0  0  0
 32 33  1  0  0  0
 33 34  2  0  0  0
 34 35  1  0  0  0
 46 47  1  0  0  0
 41 42  1  0  0  0
  3  4  1  0  0  0
  8  9  1  0  0  0
 13 14  1  0  0  0
 53 57  1  0  0  0
 55 58  1  0  0  0
 64 69  1  0  0  0
 64 70  1  0  0  0
 20 24  1  0  0  0
 22 25  1  0  0  0
 31 36  1  0  0  0
 31 37  1  0  0  0
M  END
> <minimizedAffinity>
-14.36631

$$$$
