1UTM_PEA_A_246


 12 12  0  0  0  0  0  0  0  0999 V2000
   94.4213   77.6925  -16.4426 C   0  0  0  0  0  0  0  0  0  0  0  0
   93.5996   76.6512  -16.8655 C   0  0  0  0  0  0  0  0  0  0  0  0
   93.6950   76.1448  -18.1607 C   0  0  0  0  0  0  0  0  0  0  0  0
   94.6283   76.6845  -19.0473 C   0  0  0  0  0  0  0  0  0  0  0  0
   95.4535   77.7235  -18.6319 C   0  0  0  0  0  0  0  0  0  0  0  0
   95.3461   78.2216  -17.3344 C   0  0  0  0  0  0  0  0  0  0  0  0
   94.3047   78.2447  -15.0463 C   0  0  0  0  0  0  0  0  0  0  0  0
   94.3162   79.7607  -14.9815 C   0  0  0  0  0  0  0  0  0  0  0  0
   95.1121   80.2371  -13.8267 N   0  0  0  0  0  0  0  0  0  0  0  0
   94.7003   79.8861  -12.9620 H   0  0  0  0  0  0  0  0  0  0  0  0
   95.1141   81.2570  -13.8127 H   0  0  0  0  0  0  0  0  0  0  0  0
   96.0698   79.8963  -13.9100 H   0  0  0  0  0  0  0  0  0  0  0  0
  1  2  2  0  0  0
  1  6  1  0  0  0
  1  7  1  0  0  0
  2  3  1  0  0  0
  3  4  2  0  0  0
  4  5  1  0  0  0
  5  6  2  0  0  0
  7  8  1  0  0  0
  8  9  1  0  0  0
  9 10  1  0  0  0
  9 11  1  0  0  0
  9 12  1  0  0  0
M  CHG 1   9   1
M  END
> <minimizedAffinity>
-4.64970

$$$$
1UTM_PEA_A_246


 12 12  0  0  0  0  0  0  0  0999 V2000
   94.4351   77.7744  -16.5222 C   0  0  0  0  0  0  0  0  0  0  0  0
   95.3292   78.2937  -17.4544 C   0  0  0  0  0  0  0  0  0  0  0  0
   95.4318   77.7443  -18.7313 C   0  0  0  0  0  0  0  0  0  0  0  0
   94.6260   76.6606  -19.0846 C   0  0  0  0  0  0  0  0  0  0  0  0
   93.7295   76.1373  -18.1597 C   0  0  0  0  0  0  0  0  0  0  0  0
   93.6387   76.6954  -16.8855 C   0  0  0  0  0  0  0  0  0  0  0  0
   94.3380   78.3635  -15.1395 C   0  0  0  0  0  0  0  0  0  0  0  0
   94.5829   79.8602  -15.0902 C   0  0  0  0  0  0  0  0  0  0  0  0
   95.0836   80.2731  -13.7586 N   0  0  0  0  0  0  0  0  0  0  0  0
   94.3895   80.0419  -13.0478 H   0  0  0  0  0  0  0  0  0  0  0  0
   95.2514   81.2792  -13.7554 H   0  0  0  0  0  0  0  0  0  0  0  0
   95.9545   79.7825  -13.5557 H   0  0  0  0  0  0  0  0  0  0  0  0
  1  2  2  0  0  0
  1  6  1  0  0  0
  1  7  1  0  0  0
  2  3  1  0  0  0
  3  4  2  0  0  0
  4  5  1  0  0  0
  5  6  2  0  0  0
  7  8  1  0  0  0
  8  9  1  0  0  0
  9 10  1  0  0  0
  9 11  1  0  0  0
  9 12  1  0  0  0
M  CHG 1   9   1
M  END
> <minimizedAffinity>
-4.61078

$$$$
1UTM_PEA_A_246


 12 12  0  0  0  0  0  0  0  0999 V2000
   93.6205   78.5563  -17.0031 C   0  0  0  0  0  0  0  0  0  0  0  0
   94.5764   79.5665  -16.9410 C   0  0  0  0  0  0  0  0  0  0  0  0
   94.8722   80.1990  -15.7345 C   0  0  0  0  0  0  0  0  0  0  0  0
   94.2052   79.8143  -14.5702 C   0  0  0  0  0  0  0  0  0  0  0  0
   93.2504   78.8051  -14.6239 C   0  0  0  0  0  0  0  0  0  0  0  0
   92.9631   78.1824  -15.8376 C   0  0  0  0  0  0  0  0  0  0  0  0
   93.2953   77.8856  -18.3119 C   0  0  0  0  0  0  0  0  0  0  0  0
   94.1368   76.6559  -18.5985 C   0  0  0  0  0  0  0  0  0  0  0  0
   93.4649   75.4278  -18.1146 N   0  0  0  0  0  0  0  0  0  0  0  0
   93.3281   75.4901  -17.1058 H   0  0  0  0  0  0  0  0  0  0  0  0
   94.0440   74.6161  -18.3297 H   0  0  0  0  0  0  0  0  0  0  0  0
   92.5599   75.3314  -18.5751 H   0  0  0  0  0  0  0  0  0  0  0  0
  1  2  2  0  0  0
  1  6  1  0  0  0
  1  7  1  0  0  0
  2  3  1  0  0  0
  3  4  2  0  0  0
  4  5  1  0  0  0
  5  6  2  0  0  0
  7  8  1  0  0  0
  8  9  1  0  0  0
  9 10  1  0  0  0
  9 11  1  0  0  0
  9 12  1  0  0  0
M  CHG 1   9   1
M  END
> <minimizedAffinity>
-4.40687

$$$$
1UTM_PEA_A_246


 12 12  0  0  0  0  0  0  0  0999 V2000
   93.6202   78.5682  -17.0017 C   0  0  0  0  0  0  0  0  0  0  0  0
   92.9720   78.1862  -15.8303 C   0  0  0  0  0  0  0  0  0  0  0  0
   93.2675   78.8020  -14.6151 C   0  0  0  0  0  0  0  0  0  0  0  0
   94.2234   79.8182  -14.5692 C   0  0  0  0  0  0  0  0  0  0  0  0
   94.8738   80.2064  -15.7351 C   0  0  0  0  0  0  0  0  0  0  0  0
   94.5699   79.5807  -16.9432 C   0  0  0  0  0  0  0  0  0  0  0  0
   93.3066   77.8902  -18.3095 C   0  0  0  0  0  0  0  0  0  0  0  0
   94.1501   76.6586  -18.5815 C   0  0  0  0  0  0  0  0  0  0  0  0
   93.4659   75.4317  -18.1115 N   0  0  0  0  0  0  0  0  0  0  0  0
   93.3103   75.4935  -17.1053 H   0  0  0  0  0  0  0  0  0  0  0  0
   94.0468   74.6188  -18.3165 H   0  0  0  0  0  0  0  0  0  0  0  0
   92.5695   75.3382  -18.5890 H   0  0  0  0  0  0  0  0  0  0  0  0
  1  2  2  0  0  0
  1  6  1  0  0  0
  1  7  1  0  0  0
  2  3  1  0  0  0
  3  4  2  0  0  0
  4  5  1  0  0  0
  5  6  2  0  0  0
  7  8  1  0  0  0
  8  9  1  0  0  0
  9 10  1  0  0  0
  9 11  1  0  0  0
  9 12  1  0  0  0
M  CHG 1   9   1
M  END
> <minimizedAffinity>
-4.40370

$$$$
1UTM_PEA_A_246


 12 12  0  0  0  0  0  0  0  0999 V2000
   93.7359   78.7387  -16.2788 C   0  0  0  0  0  0  0  0  0  0  0  0
   92.8688   77.8086  -16.8456 C   0  0  0  0  0  0  0  0  0  0  0  0
   92.7898   77.6535  -18.2286 C   0  0  0  0  0  0  0  0  0  0  0  0
   93.5921   78.4375  -19.0594 C   0  0  0  0  0  0  0  0  0  0  0  0
   94.4617   79.3675  -18.5008 C   0  0  0  0  0  0  0  0  0  0  0  0
   94.5291   79.5134  -17.1160 C   0  0  0  0  0  0  0  0  0  0  0  0
   93.8074   78.9114  -14.7843 C   0  0  0  0  0  0  0  0  0  0  0  0
   92.4567   78.8650  -14.0945 C   0  0  0  0  0  0  0  0  0  0  0  0
   92.4008   79.8281  -12.9705 N   0  0  0  0  0  0  0  0  0  0  0  0
   93.1159   79.5903  -12.2831 H   0  0  0  0  0  0  0  0  0  0  0  0
   91.4807   79.7861  -12.5322 H   0  0  0  0  0  0  0  0  0  0  0  0
   92.5672   80.7710  -13.3220 H   0  0  0  0  0  0  0  0  0  0  0  0
  1  2  2  0  0  0
  1  6  1  0  0  0
  1  7  1  0  0  0
  2  3  1  0  0  0
  3  4  2  0  0  0
  4  5  1  0  0  0
  5  6  2  0  0  0
  7  8  1  0  0  0
  8  9  1  0  0  0
  9 10  1  0  0  0
  9 11  1  0  0  0
  9 12  1  0  0  0
M  CHG 1   9   1
M  END
> <minimizedAffinity>
-4.39745

$$$$
1UTM_PEA_A_246


 12 12  0  0  0  0  0  0  0  0999 V2000
   94.7412   78.0899  -17.1101 C   0  0  0  0  0  0  0  0  0  0  0  0
   93.4916   77.4875  -16.9937 C   0  0  0  0  0  0  0  0  0  0  0  0
   92.6913   77.7093  -15.8741 C   0  0  0  0  0  0  0  0  0  0  0  0
   93.1447   78.5491  -14.8555 C   0  0  0  0  0  0  0  0  0  0  0  0
   94.3910   79.1557  -14.9651 C   0  0  0  0  0  0  0  0  0  0  0  0
   95.1817   78.9234  -16.0895 C   0  0  0  0  0  0  0  0  0  0  0  0
   95.6074   77.8360  -18.3159 C   0  0  0  0  0  0  0  0  0  0  0  0
   95.1712   78.5927  -19.5567 C   0  0  0  0  0  0  0  0  0  0  0  0
   95.4847   80.0354  -19.4367 N   0  0  0  0  0  0  0  0  0  0  0  0
   94.9876   80.4260  -18.6362 H   0  0  0  0  0  0  0  0  0  0  0  0
   95.1933   80.5184  -20.2866 H   0  0  0  0  0  0  0  0  0  0  0  0
   96.4890   80.1553  -19.3048 H   0  0  0  0  0  0  0  0  0  0  0  0
  1  2  2  0  0  0
  1  6  1  0  0  0
  1  7  1  0  0  0
  2  3  1  0  0  0
  3  4  2  0  0  0
  4  5  1  0  0  0
  5  6  2  0  0  0
  7  8  1  0  0  0
  8  9  1  0  0  0
  9 10  1  0  0  0
  9 11  1  0  0  0
  9 12  1  0  0  0
M  CHG 1   9   1
M  END
> <minimizedAffinity>
-4.10024

$$$$
1UTM_PEA_A_246


 12 12  0  0  0  0  0  0  0  0999 V2000
   93.2483   78.3868  -17.6416 C   0  0  0  0  0  0  0  0  0  0  0  0
   94.2715   79.3170  -17.4806 C   0  0  0  0  0  0  0  0  0  0  0  0
   94.9397   79.4429  -16.2638 C   0  0  0  0  0  0  0  0  0  0  0  0
   94.5828   78.6243  -15.1909 C   0  0  0  0  0  0  0  0  0  0  0  0
   93.5630   77.6918  -15.3444 C   0  0  0  0  0  0  0  0  0  0  0  0
   92.9019   77.5779  -16.5664 C   0  0  0  0  0  0  0  0  0  0  0  0
   92.5207   78.2644  -18.9547 C   0  0  0  0  0  0  0  0  0  0  0  0
   93.0664   79.1659  -20.0465 C   0  0  0  0  0  0  0  0  0  0  0  0
   92.0354   80.1233  -20.5095 N   0  0  0  0  0  0  0  0  0  0  0  0
   91.2408   79.6096  -20.8904 H   0  0  0  0  0  0  0  0  0  0  0  0
   92.4300   80.7244  -21.2330 H   0  0  0  0  0  0  0  0  0  0  0  0
   91.7254   80.6954  -19.7240 H   0  0  0  0  0  0  0  0  0  0  0  0
  1  2  2  0  0  0
  1  6  1  0  0  0
  1  7  1  0  0  0
  2  3  1  0  0  0
  3  4  2  0  0  0
  4  5  1  0  0  0
  5  6  2  0  0  0
  7  8  1  0  0  0
  8  9  1  0  0  0
  9 10  1  0  0  0
  9 11  1  0  0  0
  9 12  1  0  0  0
M  CHG 1   9   1
M  END
> <minimizedAffinity>
-3.89771

$$$$
1UTM_PEA_A_246


 12 12  0  0  0  0  0  0  0  0999 V2000
   94.6686   77.9183  -17.1399 C   0  0  0  0  0  0  0  0  0  0  0  0
   95.1893   78.8522  -16.2483 C   0  0  0  0  0  0  0  0  0  0  0  0
   94.4780   79.2298  -15.1105 C   0  0  0  0  0  0  0  0  0  0  0  0
   93.2278   78.6632  -14.8569 C   0  0  0  0  0  0  0  0  0  0  0  0
   92.7017   77.7288  -15.7418 C   0  0  0  0  0  0  0  0  0  0  0  0
   93.4231   77.3617  -16.8768 C   0  0  0  0  0  0  0  0  0  0  0  0
   95.4357   77.5240  -18.3747 C   0  0  0  0  0  0  0  0  0  0  0  0
   94.6494   76.6501  -19.3341 C   0  0  0  0  0  0  0  0  0  0  0  0
   94.8323   77.0995  -20.7336 N   0  0  0  0  0  0  0  0  0  0  0  0
   94.4960   78.0577  -20.8297 H   0  0  0  0  0  0  0  0  0  0  0  0
   94.3046   76.4898  -21.3582 H   0  0  0  0  0  0  0  0  0  0  0  0
   95.8221   77.0606  -20.9767 H   0  0  0  0  0  0  0  0  0  0  0  0
  1  2  2  0  0  0
  1  6  1  0  0  0
  1  7  1  0  0  0
  2  3  1  0  0  0
  3  4  2  0  0  0
  4  5  1  0  0  0
  5  6  2  0  0  0
  7  8  1  0  0  0
  8  9  1  0  0  0
  9 10  1  0  0  0
  9 11  1  0  0  0
  9 12  1  0  0  0
M  CHG 1   9   1
M  END
> <minimizedAffinity>
-3.86143

$$$$
1UTM_PEA_A_246


 12 12  0  0  0  0  0  0  0  0999 V2000
   94.0543   77.7545  -17.9929 C   0  0  0  0  0  0  0  0  0  0  0  0
   93.4863   78.8713  -18.5998 C   0  0  0  0  0  0  0  0  0  0  0  0
   93.4134   78.9722  -19.9882 C   0  0  0  0  0  0  0  0  0  0  0  0
   93.9127   77.9397  -20.7838 C   0  0  0  0  0  0  0  0  0  0  0  0
   94.4800   76.8204  -20.1851 C   0  0  0  0  0  0  0  0  0  0  0  0
   94.5481   76.7334  -18.7955 C   0  0  0  0  0  0  0  0  0  0  0  0
   94.1425   77.6568  -16.4926 C   0  0  0  0  0  0  0  0  0  0  0  0
   92.7970   77.7059  -15.7929 C   0  0  0  0  0  0  0  0  0  0  0  0
   91.9724   76.5265  -16.1437 N   0  0  0  0  0  0  0  0  0  0  0  0
   91.8061   76.5150  -17.1500 H   0  0  0  0  0  0  0  0  0  0  0  0
   91.0800   76.5772  -15.6522 H   0  0  0  0  0  0  0  0  0  0  0  0
   92.4631   75.6751  -15.8704 H   0  0  0  0  0  0  0  0  0  0  0  0
  1  2  2  0  0  0
  1  6  1  0  0  0
  1  7  1  0  0  0
  2  3  1  0  0  0
  3  4  2  0  0  0
  4  5  1  0  0  0
  5  6  2  0  0  0
  7  8  1  0  0  0
  8  9  1  0  0  0
  9 10  1  0  0  0
  9 11  1  0  0  0
  9 12  1  0  0  0
M  CHG 1   9   1
M  END
> <minimizedAffinity>
-3.70819

$$$$
1UTM_PEA_A_246


 12 12  0  0  0  0  0  0  0  0999 V2000
   91.5728   78.1385  -19.7086 C   0  0  0  0  0  0  0  0  0  0  0  0
   90.6729   77.0829  -19.8274 C   0  0  0  0  0  0  0  0  0  0  0  0
   89.6498   77.1175  -20.7735 C   0  0  0  0  0  0  0  0  0  0  0  0
   89.5251   78.2225  -21.6172 C   0  0  0  0  0  0  0  0  0  0  0  0
   90.4209   79.2799  -21.5057 C   0  0  0  0  0  0  0  0  0  0  0  0
   91.4382   79.2330  -20.5538 C   0  0  0  0  0  0  0  0  0  0  0  0
   92.6681   78.1018  -18.6755 C   0  0  0  0  0  0  0  0  0  0  0  0
   92.8227   76.7566  -17.9907 C   0  0  0  0  0  0  0  0  0  0  0  0
   92.2029   76.7709  -16.6454 N   0  0  0  0  0  0  0  0  0  0  0  0
   92.6611   77.4753  -16.0674 H   0  0  0  0  0  0  0  0  0  0  0  0
   92.3095   75.8537  -16.2122 H   0  0  0  0  0  0  0  0  0  0  0  0
   91.2111   76.9935  -16.7304 H   0  0  0  0  0  0  0  0  0  0  0  0
  1  2  2  0  0  0
  1  6  1  0  0  0
  1  7  1  0  0  0
  2  3  1  0  0  0
  3  4  2  0  0  0
  4  5  1  0  0  0
  5  6  2  0  0  0
  7  8  1  0  0  0
  8  9  1  0  0  0
  9 10  1  0  0  0
  9 11  1  0  0  0
  9 12  1  0  0  0
M  CHG 1   9   1
M  END
> <minimizedAffinity>
-3.30698

$$$$
