2PQC_RC1_A_601


 32 32  0  0  0  0  0  0  0  0999 V2000
 -127.3415   32.2720  127.1129 C   0  0  0  0  0  0  0  0  0  0  0  0
 -127.0464   32.6204  125.7282 C   0  0  0  0  0  0  0  0  0  0  0  0
 -128.1320   32.4456  124.6367 C   0  0  0  0  0  0  0  0  0  0  0  0
 -129.5506   32.5409  125.2351 C   0  0  0  0  0  0  0  0  0  0  0  0
 -129.7106   31.5089  126.3823 C   0  0  0  0  0  0  0  0  0  0  0  0
 -128.6417   31.7442  127.4998 C   0  0  0  0  0  0  0  0  0  0  0  0
 -130.5009   32.3142  124.1758 O   0  0  0  0  0  0  0  0  0  0  0  0
 -130.3513   31.4371  123.7896 H   0  0  0  0  0  0  0  0  0  0  0  0
 -126.2547   32.4562  128.1432 C   0  0  0  0  0  0  0  0  0  0  0  0
 -125.1744   32.8645  127.7385 O   0  0  0  0  0  0  0  0  0  0  0  0
 -126.4647   32.1452  129.3116 O   0  0  0  0  0  0  0  0  0  0  0  0
 -127.3114   31.8377  129.5696 H   0  0  0  0  0  0  0  0  0  0  0  0
 -127.9597   31.1503  123.9296 O   0  0  0  0  0  0  0  0  0  0  0  0
 -127.0101   30.9092  122.7010 P   0  0  0  0  0  0  0  0  0  0  0  0
 -126.8975   29.4424  122.4885 O   0  0  0  0  0  0  0  0  0  0  0  0
 -125.6894   31.4875  123.0355 O   0  0  0  0  0  0  0  0  0  0  0  0
 -127.5828   31.5398  121.4871 O   0  0  0  0  0  0  0  0  0  0  0  0
 -125.3401   31.0570  123.8315 H   0  0  0  0  0  0  0  0  0  0  0  0
 -128.4458   31.1421  121.2926 H   0  0  0  0  0  0  0  0  0  0  0  0
 -131.0535   31.5544  126.9551 O   0  0  0  0  0  0  0  0  0  0  0  0
 -131.7299   30.2476  126.7049 C   0  0  0  0  0  0  0  0  0  0  0  0
 -132.0918   29.8960  125.2506 C   0  0  0  0  0  0  0  0  0  0  0  0
 -133.2135   30.4823  127.7197 P   0  0  0  0  0  0  0  0  0  0  0  0
 -133.3614   29.2984  128.6857 O   0  0  0  0  0  0  0  0  0  0  0  0
 -134.4596   30.6138  126.8532 O   0  0  0  0  0  0  0  0  0  0  0  0
 -132.8710   31.7496  128.5063 O   0  0  0  0  0  0  0  0  0  0  0  0
 -133.5784   28.4970  128.1841 H   0  0  0  0  0  0  0  0  0  0  0  0
 -132.0713   31.5967  129.0335 H   0  0  0  0  0  0  0  0  0  0  0  0
 -130.9148   29.0550  127.3017 C   0  0  0  0  0  0  0  0  0  0  0  0
 -130.5384   28.1226  126.5430 O   0  0  0  0  0  0  0  0  0  0  0  0
 -130.6584   29.0732  128.5115 O   0  0  0  0  0  0  0  0  0  0  0  0
 -130.9564   29.7850  129.0429 H   0  0  0  0  0  0  0  0  0  0  0  0
  1  2  2  0  0  0
  1  6  1  0  0  0
  1  9  1  0  0  0
  2  3  1  0  0  0
  3  4  1  0  0  0
  3 13  1  0  0  0
  4  5  1  0  0  0
  4  7  1  0  0  0
  5  6  1  0  0  0
  5 20  1  0  0  0
  9 10  2  0  0  0
  9 11  1  0  0  0
 13 14  1  0  0  0
 20 21  1  0  0  0
 14 15  2  0  0  0
 14 16  1  0  0  0
 14 17  1  0  0  0
 21 22  1  0  0  0
 21 29  1  0  0  0
 21 23  1  0  0  0
 29 30  2  0  0  0
 29 31  1  0  0  0
 23 24  1  0  0  0
 23 25  2  0  0  0
 23 26  1  0  0  0
  7  8  1  0  0  0
 11 12  1  0  0  0
 16 18  1  0  0  0
 17 19  1  0  0  0
 31 32  1  0  0  0
 24 27  1  0  0  0
 26 28  1  0  0  0
M  END
> <minimizedAffinity>
-11.59291

$$$$
2PQC_RC1_A_601


 32 32  0  0  0  0  0  0  0  0999 V2000
 -127.7093   32.2238  127.6724 C   0  0  0  0  0  0  0  0  0  0  0  0
 -127.1591   32.5871  126.3719 C   0  0  0  0  0  0  0  0  0  0  0  0
 -128.0367   32.4740  125.1000 C   0  0  0  0  0  0  0  0  0  0  0  0
 -129.5355   32.6112  125.4378 C   0  0  0  0  0  0  0  0  0  0  0  0
 -129.9332   31.5643  126.5114 C   0  0  0  0  0  0  0  0  0  0  0  0
 -129.0747   31.7379  127.8074 C   0  0  0  0  0  0  0  0  0  0  0  0
 -130.2876   32.4405  124.2205 O   0  0  0  0  0  0  0  0  0  0  0  0
 -130.1007   31.5659  123.8450 H   0  0  0  0  0  0  0  0  0  0  0  0
 -126.8193   32.3474  128.8845 C   0  0  0  0  0  0  0  0  0  0  0  0
 -125.7991   33.0106  128.7545 O   0  0  0  0  0  0  0  0  0  0  0  0
 -127.1091   31.7488  129.9159 O   0  0  0  0  0  0  0  0  0  0  0  0
 -127.9037   31.2545  129.9632 H   0  0  0  0  0  0  0  0  0  0  0  0
 -127.7839   31.1869  124.4024 O   0  0  0  0  0  0  0  0  0  0  0  0
 -127.1367   31.0415  122.9779 P   0  0  0  0  0  0  0  0  0  0  0  0
 -127.2437   29.6167  122.5681 O   0  0  0  0  0  0  0  0  0  0  0  0
 -125.7166   31.4440  123.0880 O   0  0  0  0  0  0  0  0  0  0  0  0
 -127.8633   31.8900  122.0025 O   0  0  0  0  0  0  0  0  0  0  0  0
 -125.2677   30.8733  123.7311 H   0  0  0  0  0  0  0  0  0  0  0  0
 -128.7888   31.6039  121.9515 H   0  0  0  0  0  0  0  0  0  0  0  0
 -131.3548   31.6492  126.8363 O   0  0  0  0  0  0  0  0  0  0  0  0
 -131.8532   30.2859  127.1837 C   0  0  0  0  0  0  0  0  0  0  0  0
 -131.0639   29.4810  128.2318 C   0  0  0  0  0  0  0  0  0  0  0  0
 -131.7641   29.5114  125.5472 P   0  0  0  0  0  0  0  0  0  0  0  0
 -132.5013   28.1653  125.5809 O   0  0  0  0  0  0  0  0  0  0  0  0
 -130.3187   29.3095  125.1103 O   0  0  0  0  0  0  0  0  0  0  0  0
 -132.5403   30.5025  124.6769 O   0  0  0  0  0  0  0  0  0  0  0  0
 -132.0069   27.5396  126.1331 H   0  0  0  0  0  0  0  0  0  0  0  0
 -133.4480   30.5828  125.0094 H   0  0  0  0  0  0  0  0  0  0  0  0
 -133.3517   30.3175  127.6270 C   0  0  0  0  0  0  0  0  0  0  0  0
 -134.2431   30.5748  126.7749 O   0  0  0  0  0  0  0  0  0  0  0  0
 -133.6131   30.0781  128.8120 O   0  0  0  0  0  0  0  0  0  0  0  0
 -132.9214   29.8911  129.4158 H   0  0  0  0  0  0  0  0  0  0  0  0
  1  2  2  0  0  0
  1  6  1  0  0  0
  1  9  1  0  0  0
  2  3  1  0  0  0
  3  4  1  0  0  0
  3 13  1  0  0  0
  4  5  1  0  0  0
  4  7  1  0  0  0
  5  6  1  0  0  0
  5 20  1  0  0  0
  9 10  2  0  0  0
  9 11  1  0  0  0
 13 14  1  0  0  0
 20 21  1  0  0  0
 14 15  2  0  0  0
 14 16  1  0  0  0
 14 17  1  0  0  0
 21 22  1  0  0  0
 21 29  1  0  0  0
 21 23  1  0  0  0
 29 30  2  0  0  0
 29 31  1  0  0  0
 23 24  1  0  0  0
 23 25  2  0  0  0
 23 26  1  0  0  0
  7  8  1  0  0  0
 11 12  1  0  0  0
 16 18  1  0  0  0
 17 19  1  0  0  0
 31 32  1  0  0  0
 24 27  1  0  0  0
 26 28  1  0  0  0
M  END
> <minimizedAffinity>
-10.07559

$$$$
2PQC_RC1_A_601


 32 32  0  0  0  0  0  0  0  0999 V2000
 -130.6747   30.2881  126.0434 C   0  0  0  0  0  0  0  0  0  0  0  0
 -130.2095   30.8234  127.3174 C   0  0  0  0  0  0  0  0  0  0  0  0
 -129.1101   31.9148  127.3443 C   0  0  0  0  0  0  0  0  0  0  0  0
 -129.1086   32.7428  126.0428 C   0  0  0  0  0  0  0  0  0  0  0  0
 -128.9615   31.8020  124.8181 C   0  0  0  0  0  0  0  0  0  0  0  0
 -130.1165   30.7479  124.7803 C   0  0  0  0  0  0  0  0  0  0  0  0
 -128.0299   33.6952  126.1177 O   0  0  0  0  0  0  0  0  0  0  0  0
 -127.1889   33.2235  126.2234 H   0  0  0  0  0  0  0  0  0  0  0  0
 -131.7455   29.2252  126.0634 C   0  0  0  0  0  0  0  0  0  0  0  0
 -131.3926   28.0923  126.3626 O   0  0  0  0  0  0  0  0  0  0  0  0
 -132.8924   29.5104  125.7329 O   0  0  0  0  0  0  0  0  0  0  0  0
 -133.1104   30.3948  125.5131 H   0  0  0  0  0  0  0  0  0  0  0  0
 -127.7732   31.3059  127.5662 O   0  0  0  0  0  0  0  0  0  0  0  0
 -126.6974   31.8307  128.5842 P   0  0  0  0  0  0  0  0  0  0  0  0
 -125.4886   30.9751  128.4568 O   0  0  0  0  0  0  0  0  0  0  0  0
 -127.2729   31.7157  129.9430 O   0  0  0  0  0  0  0  0  0  0  0  0
 -126.3421   33.2350  128.2664 O   0  0  0  0  0  0  0  0  0  0  0  0
 -127.4951   30.7888  130.1227 H   0  0  0  0  0  0  0  0  0  0  0  0
 -125.9684   33.2795  127.3724 H   0  0  0  0  0  0  0  0  0  0  0  0
 -128.9302   32.5570  123.5681 O   0  0  0  0  0  0  0  0  0  0  0  0
 -127.5256   32.6006  123.0651 C   0  0  0  0  0  0  0  0  0  0  0  0
 -126.4085   32.1460  124.0217 C   0  0  0  0  0  0  0  0  0  0  0  0
 -127.3993   34.3698  122.6907 P   0  0  0  0  0  0  0  0  0  0  0  0
 -125.9381   34.7201  122.3766 O   0  0  0  0  0  0  0  0  0  0  0  0
 -127.9065   35.2169  123.8508 O   0  0  0  0  0  0  0  0  0  0  0  0
 -128.2434   34.4931  121.4200 O   0  0  0  0  0  0  0  0  0  0  0  0
 -125.4060   34.6410  123.1838 H   0  0  0  0  0  0  0  0  0  0  0  0
 -127.8663   33.9307  120.7255 H   0  0  0  0  0  0  0  0  0  0  0  0
 -127.3691   31.8070  121.7277 C   0  0  0  0  0  0  0  0  0  0  0  0
 -127.5499   30.5604  121.7240 O   0  0  0  0  0  0  0  0  0  0  0  0
 -127.0772   32.4402  120.7062 O   0  0  0  0  0  0  0  0  0  0  0  0
 -126.9506   33.3676  120.7499 H   0  0  0  0  0  0  0  0  0  0  0  0
  1  2  2  0  0  0
  1  6  1  0  0  0
  1  9  1  0  0  0
  2  3  1  0  0  0
  3  4  1  0  0  0
  3 13  1  0  0  0
  4  5  1  0  0  0
  4  7  1  0  0  0
  5  6  1  0  0  0
  5 20  1  0  0  0
  9 10  2  0  0  0
  9 11  1  0  0  0
 13 14  1  0  0  0
 20 21  1  0  0  0
 14 15  2  0  0  0
 14 16  1  0  0  0
 14 17  1  0  0  0
 21 22  1  0  0  0
 21 29  1  0  0  0
 21 23  1  0  0  0
 29 30  2  0  0  0
 29 31  1  0  0  0
 23 24  1  0  0  0
 23 25  2  0  0  0
 23 26  1  0  0  0
  7  8  1  0  0  0
 11 12  1  0  0  0
 16 18  1  0  0  0
 17 19  1  0  0  0
 31 32  1  0  0  0
 24 27  1  0  0  0
 26 28  1  0  0  0
M  END
> <minimizedAffinity>
-8.63308

$$$$
