3OWJ_1EL_A_332


 23 26  0  0  0  0  0  0  0  0999 V2000
   23.1109    8.7607   11.1288 C   0  0  0  0  0  0  0  0  0  0  0  0
   23.1547   10.0862   10.8058 O   0  0  0  0  0  0  0  0  0  0  0  0
   23.2079    7.7980   10.1192 C   0  0  0  0  0  0  0  0  0  0  0  0
   23.1636    6.4363   10.4203 C   0  0  0  0  0  0  0  0  0  0  0  0
   23.0208    6.0446   11.7498 C   0  0  0  0  0  0  0  0  0  0  0  0
   22.9264    7.0093   12.7362 C   0  0  0  0  0  0  0  0  0  0  0  0
   22.9665    8.3739   12.4617 C   0  0  0  0  0  0  0  0  0  0  0  0
   22.9428    4.8338   12.3898 N   0  0  0  0  0  0  0  0  0  0  0  0
   22.7990    4.9618   13.7511 C   0  0  0  0  0  0  0  0  0  0  0  0
   22.7843    6.3173   14.0219 C   0  0  0  0  0  0  0  0  0  0  0  0
   22.6759    4.0550   14.7991 C   0  0  0  0  0  0  0  0  0  0  0  0
   22.6937    2.5731   14.5004 C   0  0  0  0  0  0  0  0  0  0  0  0
   22.5423    4.5344   16.1100 C   0  0  0  0  0  0  0  0  0  0  0  0
   22.5305    5.9203   16.3800 C   0  0  0  0  0  0  0  0  0  0  0  0
   22.6530    6.8370   15.3145 C   0  0  0  0  0  0  0  0  0  0  0  0
   22.6501    8.3365   15.5320 C   0  0  0  0  0  0  0  0  0  0  0  0
   22.4236    3.6308   17.1698 C   0  0  0  0  0  0  0  0  0  0  0  0
   22.2911    4.1012   18.4744 C   0  0  0  0  0  0  0  0  0  0  0  0
   22.2778    5.4241   18.7148 N   0  0  0  0  0  0  0  0  0  0  0  0
   22.3932    6.3284   17.7229 C   0  0  0  0  0  0  0  0  0  0  0  0
   22.3678    7.6489   18.0636 O   0  0  0  0  0  0  0  0  0  0  0  0
   23.2516   10.3475    9.9112 H   0  0  0  0  0  0  0  0  0  0  0  0
   22.9851    3.9671   11.9248 H   0  0  0  0  0  0  0  0  0  0  0  0
  2  1  1  0  0  0
  3  1  2  0  0  0
  1  7  1  0  0  0
  3  4  1  0  0  0
  4  5  2  0  0  0
  5  6  1  0  0  0
  5  8  1  0  0  0
  7  6  2  0  0  0
  6 10  1  0  0  0
  8  9  1  0  0  0
 10  9  2  0  0  0
  9 11  1  0  0  0
 10 15  1  0  0  0
 11 12  1  0  0  0
 11 13  2  0  0  0
 14 13  1  0  0  0
 13 17  1  0  0  0
 15 14  2  0  0  0
 14 20  1  0  0  0
 16 15  1  0  0  0
 17 18  1  0  0  0
 19 18  2  0  0  0
 20 19  1  0  0  0
 21 20  2  0  0  0
  2 22  1  0  0  0
  8 23  1  0  0  0
M  END
> <minimizedAffinity>
-11.15465

$$$$
3OWJ_1EL_A_332


 23 26  0  0  0  0  0  0  0  0999 V2000
   23.1127    8.0521   10.7337 C   0  0  0  0  0  0  0  0  0  0  0  0
   23.2061    7.6555    9.4310 O   0  0  0  0  0  0  0  0  0  0  0  0
   23.1470    9.4144   11.0474 C   0  0  0  0  0  0  0  0  0  0  0  0
   23.0561    9.8481   12.3706 C   0  0  0  0  0  0  0  0  0  0  0  0
   22.9291    8.8994   13.3831 C   0  0  0  0  0  0  0  0  0  0  0  0
   22.8966    7.5561   13.0559 C   0  0  0  0  0  0  0  0  0  0  0  0
   22.9870    7.0979   11.7441 C   0  0  0  0  0  0  0  0  0  0  0  0
   22.8177    8.9635   14.7489 N   0  0  0  0  0  0  0  0  0  0  0  0
   22.7162    7.7223   15.3315 C   0  0  0  0  0  0  0  0  0  0  0  0
   22.7596    6.7982   14.3044 C   0  0  0  0  0  0  0  0  0  0  0  0
   22.5917    7.2786   16.6443 C   0  0  0  0  0  0  0  0  0  0  0  0
   22.5430    8.2915   17.7656 C   0  0  0  0  0  0  0  0  0  0  0  0
   22.5098    5.9023   16.8991 C   0  0  0  0  0  0  0  0  0  0  0  0
   22.5524    4.9635   15.8452 C   0  0  0  0  0  0  0  0  0  0  0  0
   22.6811    5.4170   14.5154 C   0  0  0  0  0  0  0  0  0  0  0  0
   22.7312    4.4661   13.3368 C   0  0  0  0  0  0  0  0  0  0  0  0
   22.3791    5.4473   18.2144 C   0  0  0  0  0  0  0  0  0  0  0  0
   22.2968    4.0811   18.4736 C   0  0  0  0  0  0  0  0  0  0  0  0
   22.3426    3.1995   17.4593 N   0  0  0  0  0  0  0  0  0  0  0  0
   22.4641    3.5959   16.1775 C   0  0  0  0  0  0  0  0  0  0  0  0
   22.5031    2.6287   15.2165 O   0  0  0  0  0  0  0  0  0  0  0  0
   23.2906    8.2951    8.7515 H   0  0  0  0  0  0  0  0  0  0  0  0
   22.8113    9.8068   15.2568 H   0  0  0  0  0  0  0  0  0  0  0  0
  2  1  1  0  0  0
  3  1  2  0  0  0
  1  7  1  0  0  0
  3  4  1  0  0  0
  4  5  2  0  0  0
  5  6  1  0  0  0
  5  8  1  0  0  0
  7  6  2  0  0  0
  6 10  1  0  0  0
  8  9  1  0  0  0
 10  9  2  0  0  0
  9 11  1  0  0  0
 10 15  1  0  0  0
 11 12  1  0  0  0
 11 13  2  0  0  0
 14 13  1  0  0  0
 13 17  1  0  0  0
 15 14  2  0  0  0
 14 20  1  0  0  0
 16 15  1  0  0  0
 17 18  1  0  0  0
 19 18  2  0  0  0
 20 19  1  0  0  0
 21 20  2  0  0  0
  2 22  1  0  0  0
  8 23  1  0  0  0
M  END
> <minimizedAffinity>
-11.03712

$$$$
3OWJ_1EL_A_332


 23 26  0  0  0  0  0  0  0  0999 V2000
   23.0797   10.2577   16.5349 C   0  0  0  0  0  0  0  0  0  0  0  0
   23.0939   10.7747   17.7980 O   0  0  0  0  0  0  0  0  0  0  0  0
   23.1836   11.1142   15.4344 C   0  0  0  0  0  0  0  0  0  0  0  0
   23.1692   10.6134   14.1321 C   0  0  0  0  0  0  0  0  0  0  0  0
   23.0497    9.2386   13.9404 C   0  0  0  0  0  0  0  0  0  0  0  0
   22.9480    8.4052   15.0394 C   0  0  0  0  0  0  0  0  0  0  0  0
   22.9584    8.8801   16.3484 C   0  0  0  0  0  0  0  0  0  0  0  0
   23.0026    8.4245   12.8372 N   0  0  0  0  0  0  0  0  0  0  0  0
   22.8723    7.0955   13.1640 C   0  0  0  0  0  0  0  0  0  0  0  0
   22.8344    7.0291   14.5441 C   0  0  0  0  0  0  0  0  0  0  0  0
   22.7792    5.9227   12.4213 C   0  0  0  0  0  0  0  0  0  0  0  0
   22.8222    5.9980   10.9120 C   0  0  0  0  0  0  0  0  0  0  0  0
   22.6516    4.6958   13.0881 C   0  0  0  0  0  0  0  0  0  0  0  0
   22.6160    4.6347   14.4983 C   0  0  0  0  0  0  0  0  0  0  0  0
   22.7082    5.8263   15.2482 C   0  0  0  0  0  0  0  0  0  0  0  0
   22.6787    5.8341   16.7631 C   0  0  0  0  0  0  0  0  0  0  0  0
   22.5628    3.5118   12.3505 C   0  0  0  0  0  0  0  0  0  0  0  0
   22.4364    2.2900   13.0075 C   0  0  0  0  0  0  0  0  0  0  0  0
   22.4002    2.2487   14.3510 N   0  0  0  0  0  0  0  0  0  0  0  0
   22.4865    3.3656   15.0995 C   0  0  0  0  0  0  0  0  0  0  0  0
   22.4394    3.2246   16.4553 O   0  0  0  0  0  0  0  0  0  0  0  0
   23.1752   11.6995   17.9248 H   0  0  0  0  0  0  0  0  0  0  0  0
   23.0564    8.7561   11.9118 H   0  0  0  0  0  0  0  0  0  0  0  0
  2  1  1  0  0  0
  3  1  2  0  0  0
  1  7  1  0  0  0
  3  4  1  0  0  0
  4  5  2  0  0  0
  5  6  1  0  0  0
  5  8  1  0  0  0
  7  6  2  0  0  0
  6 10  1  0  0  0
  8  9  1  0  0  0
 10  9  2  0  0  0
  9 11  1  0  0  0
 10 15  1  0  0  0
 11 12  1  0  0  0
 11 13  2  0  0  0
 14 13  1  0  0  0
 13 17  1  0  0  0
 15 14  2  0  0  0
 14 20  1  0  0  0
 16 15  1  0  0  0
 17 18  1  0  0  0
 19 18  2  0  0  0
 20 19  1  0  0  0
 21 20  2  0  0  0
  2 22  1  0  0  0
  8 23  1  0  0  0
M  END
> <minimizedAffinity>
-11.02413

$$$$
3OWJ_1EL_A_332


 23 26  0  0  0  0  0  0  0  0999 V2000
   22.3569    2.8800   13.2455 C   0  0  0  0  0  0  0  0  0  0  0  0
   22.1329    1.5507   13.4598 O   0  0  0  0  0  0  0  0  0  0  0  0
   22.5542    3.3482   11.9426 C   0  0  0  0  0  0  0  0  0  0  0  0
   22.7875    4.7014   11.6946 C   0  0  0  0  0  0  0  0  0  0  0  0
   22.8213    5.5872   12.7695 C   0  0  0  0  0  0  0  0  0  0  0  0
   22.6242    5.1080   14.0517 C   0  0  0  0  0  0  0  0  0  0  0  0
   22.3910    3.7628   14.3257 C   0  0  0  0  0  0  0  0  0  0  0  0
   23.0186    6.9392   12.8923 N   0  0  0  0  0  0  0  0  0  0  0  0
   22.9620    7.3670   14.1976 C   0  0  0  0  0  0  0  0  0  0  0  0
   22.7135    6.2482   14.9705 C   0  0  0  0  0  0  0  0  0  0  0  0
   23.0994    8.6063   14.8150 C   0  0  0  0  0  0  0  0  0  0  0  0
   23.3697    9.8285   13.9673 C   0  0  0  0  0  0  0  0  0  0  0  0
   22.9803    8.6960   16.2092 C   0  0  0  0  0  0  0  0  0  0  0  0
   22.7241    7.5496   16.9926 C   0  0  0  0  0  0  0  0  0  0  0  0
   22.5876    6.2941   16.3634 C   0  0  0  0  0  0  0  0  0  0  0  0
   22.3103    5.0241   17.1418 C   0  0  0  0  0  0  0  0  0  0  0  0
   23.1115    9.9377   16.8376 C   0  0  0  0  0  0  0  0  0  0  0  0
   22.9936   10.0330   18.2225 C   0  0  0  0  0  0  0  0  0  0  0  0
   22.7532    8.9314   18.9550 N   0  0  0  0  0  0  0  0  0  0  0  0
   22.6163    7.7166   18.3887 C   0  0  0  0  0  0  0  0  0  0  0  0
   22.3752    6.6571   19.2132 O   0  0  0  0  0  0  0  0  0  0  0  0
   22.1097    0.9568   12.7355 H   0  0  0  0  0  0  0  0  0  0  0  0
   23.1829    7.5382   12.1285 H   0  0  0  0  0  0  0  0  0  0  0  0
  2  1  1  0  0  0
  3  1  2  0  0  0
  1  7  1  0  0  0
  3  4  1  0  0  0
  4  5  2  0  0  0
  5  6  1  0  0  0
  5  8  1  0  0  0
  7  6  2  0  0  0
  6 10  1  0  0  0
  8  9  1  0  0  0
 10  9  2  0  0  0
  9 11  1  0  0  0
 10 15  1  0  0  0
 11 12  1  0  0  0
 11 13  2  0  0  0
 14 13  1  0  0  0
 13 17  1  0  0  0
 15 14  2  0  0  0
 14 20  1  0  0  0
 16 15  1  0  0  0
 17 18  1  0  0  0
 19 18  2  0  0  0
 20 19  1  0  0  0
 21 20  2  0  0  0
  2 22  1  0  0  0
  8 23  1  0  0  0
M  END
> <minimizedAffinity>
-10.82349

$$$$
3OWJ_1EL_A_332


 23 26  0  0  0  0  0  0  0  0999 V2000
   22.9980   11.4316   14.8431 C   0  0  0  0  0  0  0  0  0  0  0  0
   22.9418   12.3631   15.8392 O   0  0  0  0  0  0  0  0  0  0  0  0
   23.1400   11.8452   13.5148 C   0  0  0  0  0  0  0  0  0  0  0  0
   23.1976   10.9150   12.4764 C   0  0  0  0  0  0  0  0  0  0  0  0
   23.1118    9.5583   12.7818 C   0  0  0  0  0  0  0  0  0  0  0  0
   22.9717    9.1659   14.1005 C   0  0  0  0  0  0  0  0  0  0  0  0
   22.9103   10.0741   15.1542 C   0  0  0  0  0  0  0  0  0  0  0  0
   23.1327    8.4049   12.0394 N   0  0  0  0  0  0  0  0  0  0  0  0
   23.0102    7.2745   12.8123 C   0  0  0  0  0  0  0  0  0  0  0  0
   22.9066    7.7006   14.1232 C   0  0  0  0  0  0  0  0  0  0  0  0
   22.9739    5.9121   12.5324 C   0  0  0  0  0  0  0  0  0  0  0  0
   23.0888    5.4487   11.0979 C   0  0  0  0  0  0  0  0  0  0  0  0
   22.8358    4.9979   13.5865 C   0  0  0  0  0  0  0  0  0  0  0  0
   22.7330    5.4396   14.9237 C   0  0  0  0  0  0  0  0  0  0  0  0
   22.7677    6.8220   15.2036 C   0  0  0  0  0  0  0  0  0  0  0  0
   22.6647    7.3655   16.6142 C   0  0  0  0  0  0  0  0  0  0  0  0
   22.8039    3.6270   13.3155 C   0  0  0  0  0  0  0  0  0  0  0  0
   22.6674    2.7140   14.3588 C   0  0  0  0  0  0  0  0  0  0  0  0
   22.5668    3.1506   15.6266 N   0  0  0  0  0  0  0  0  0  0  0  0
   22.5970    4.4625   15.9314 C   0  0  0  0  0  0  0  0  0  0  0  0
   22.4867    4.8099   17.2458 O   0  0  0  0  0  0  0  0  0  0  0  0
   23.0006   13.2749   15.6317 H   0  0  0  0  0  0  0  0  0  0  0  0
   23.2254    8.3884   11.0594 H   0  0  0  0  0  0  0  0  0  0  0  0
  2  1  1  0  0  0
  3  1  2  0  0  0
  1  7  1  0  0  0
  3  4  1  0  0  0
  4  5  2  0  0  0
  5  6  1  0  0  0
  5  8  1  0  0  0
  7  6  2  0  0  0
  6 10  1  0  0  0
  8  9  1  0  0  0
 10  9  2  0  0  0
  9 11  1  0  0  0
 10 15  1  0  0  0
 11 12  1  0  0  0
 11 13  2  0  0  0
 14 13  1  0  0  0
 13 17  1  0  0  0
 15 14  2  0  0  0
 14 20  1  0  0  0
 16 15  1  0  0  0
 17 18  1  0  0  0
 19 18  2  0  0  0
 20 19  1  0  0  0
 21 20  2  0  0  0
  2 22  1  0  0  0
  8 23  1  0  0  0
M  END
> <minimizedAffinity>
-10.78182

$$$$
3OWJ_1EL_A_332


 23 26  0  0  0  0  0  0  0  0999 V2000
   22.5074    3.0277   14.7992 C   0  0  0  0  0  0  0  0  0  0  0  0
   22.4150    1.7848   14.2426 O   0  0  0  0  0  0  0  0  0  0  0  0
   22.4417    3.1712   16.1887 C   0  0  0  0  0  0  0  0  0  0  0  0
   22.5309    4.4298   16.7846 C   0  0  0  0  0  0  0  0  0  0  0  0
   22.6878    5.5504   15.9716 C   0  0  0  0  0  0  0  0  0  0  0  0
   22.7510    5.3912   14.5993 C   0  0  0  0  0  0  0  0  0  0  0  0
   22.6632    4.1469   13.9805 C   0  0  0  0  0  0  0  0  0  0  0  0
   22.8067    6.8967   16.2066 N   0  0  0  0  0  0  0  0  0  0  0  0
   22.9426    7.6270   15.0498 C   0  0  0  0  0  0  0  0  0  0  0  0
   22.9149    6.7223   14.0050 C   0  0  0  0  0  0  0  0  0  0  0  0
   23.0867    8.9832   14.7748 C   0  0  0  0  0  0  0  0  0  0  0  0
   23.1180    9.9704   15.9193 C   0  0  0  0  0  0  0  0  0  0  0  0
   23.2040    9.4052   13.4428 C   0  0  0  0  0  0  0  0  0  0  0  0
   23.1775    8.4756   12.3802 C   0  0  0  0  0  0  0  0  0  0  0  0
   23.0287    7.1013   12.6627 C   0  0  0  0  0  0  0  0  0  0  0  0
   22.9941    6.0496   11.5725 C   0  0  0  0  0  0  0  0  0  0  0  0
   23.3547   10.7652   13.1571 C   0  0  0  0  0  0  0  0  0  0  0  0
   23.4722   11.1903   11.8357 C   0  0  0  0  0  0  0  0  0  0  0  0
   23.4413   10.2930   10.8347 N   0  0  0  0  0  0  0  0  0  0  0  0
   23.3015    8.9733   11.0666 C   0  0  0  0  0  0  0  0  0  0  0  0
   23.2798    8.1395    9.9874 O   0  0  0  0  0  0  0  0  0  0  0  0
   22.3103    1.0324   14.7911 H   0  0  0  0  0  0  0  0  0  0  0  0
   22.7959    7.2965   17.1062 H   0  0  0  0  0  0  0  0  0  0  0  0
  2  1  1  0  0  0
  3  1  2  0  0  0
  1  7  1  0  0  0
  3  4  1  0  0  0
  4  5  2  0  0  0
  5  6  1  0  0  0
  5  8  1  0  0  0
  7  6  2  0  0  0
  6 10  1  0  0  0
  8  9  1  0  0  0
 10  9  2  0  0  0
  9 11  1  0  0  0
 10 15  1  0  0  0
 11 12  1  0  0  0
 11 13  2  0  0  0
 14 13  1  0  0  0
 13 17  1  0  0  0
 15 14  2  0  0  0
 14 20  1  0  0  0
 16 15  1  0  0  0
 17 18  1  0  0  0
 19 18  2  0  0  0
 20 19  1  0  0  0
 21 20  2  0  0  0
  2 22  1  0  0  0
  8 23  1  0  0  0
M  END
> <minimizedAffinity>
-10.76024

$$$$
3OWJ_1EL_A_332


 23 26  0  0  0  0  0  0  0  0999 V2000
   22.1154    4.3271   19.3077 C   0  0  0  0  0  0  0  0  0  0  0  0
   21.9070    3.1922   20.0367 O   0  0  0  0  0  0  0  0  0  0  0  0
   22.2022    5.5621   19.9580 C   0  0  0  0  0  0  0  0  0  0  0  0
   22.4123    6.7385   19.2376 C   0  0  0  0  0  0  0  0  0  0  0  0
   22.5359    6.6668   17.8517 C   0  0  0  0  0  0  0  0  0  0  0  0
   22.4478    5.4376   17.2240 C   0  0  0  0  0  0  0  0  0  0  0  0
   22.2373    4.2499   17.9198 C   0  0  0  0  0  0  0  0  0  0  0  0
   22.7419    7.5900   16.8581 N   0  0  0  0  0  0  0  0  0  0  0  0
   22.7903    7.0211   15.6074 C   0  0  0  0  0  0  0  0  0  0  0  0
   22.6111    5.6619   15.7836 C   0  0  0  0  0  0  0  0  0  0  0  0
   22.9686    7.5254   14.3230 C   0  0  0  0  0  0  0  0  0  0  0  0
   23.1658    9.0122   14.1333 C   0  0  0  0  0  0  0  0  0  0  0  0
   22.9657    6.6439   13.2326 C   0  0  0  0  0  0  0  0  0  0  0  0
   22.7845    5.2561   13.4196 C   0  0  0  0  0  0  0  0  0  0  0  0
   22.6016    4.7486   14.7233 C   0  0  0  0  0  0  0  0  0  0  0  0
   22.4039    3.2715   14.9969 C   0  0  0  0  0  0  0  0  0  0  0  0
   23.1495    7.1407   11.9390 C   0  0  0  0  0  0  0  0  0  0  0  0
   23.1481    6.2696   10.8519 C   0  0  0  0  0  0  0  0  0  0  0  0
   22.9705    4.9510   11.0461 N   0  0  0  0  0  0  0  0  0  0  0  0
   22.7938    4.4307   12.2762 C   0  0  0  0  0  0  0  0  0  0  0  0
   22.6202    3.0814   12.3742 O   0  0  0  0  0  0  0  0  0  0  0  0
   21.8250    3.2425   20.9688 H   0  0  0  0  0  0  0  0  0  0  0  0
   22.8440    8.5552   17.0228 H   0  0  0  0  0  0  0  0  0  0  0  0
  2  1  1  0  0  0
  3  1  2  0  0  0
  1  7  1  0  0  0
  3  4  1  0  0  0
  4  5  2  0  0  0
  5  6  1  0  0  0
  5  8  1  0  0  0
  7  6  2  0  0  0
  6 10  1  0  0  0
  8  9  1  0  0  0
 10  9  2  0  0  0
  9 11  1  0  0  0
 10 15  1  0  0  0
 11 12  1  0  0  0
 11 13  2  0  0  0
 14 13  1  0  0  0
 13 17  1  0  0  0
 15 14  2  0  0  0
 14 20  1  0  0  0
 16 15  1  0  0  0
 17 18  1  0  0  0
 19 18  2  0  0  0
 20 19  1  0  0  0
 21 20  2  0  0  0
  2 22  1  0  0  0
  8 23  1  0  0  0
M  END
> <minimizedAffinity>
-10.65711

$$$$
3OWJ_1EL_A_332


 23 26  0  0  0  0  0  0  0  0999 V2000
   23.2918    7.1254   10.9826 C   0  0  0  0  0  0  0  0  0  0  0  0
   23.4507    8.0323    9.9749 O   0  0  0  0  0  0  0  0  0  0  0  0
   23.2647    5.7589   10.6871 C   0  0  0  0  0  0  0  0  0  0  0  0
   23.1011    4.8100   11.6969 C   0  0  0  0  0  0  0  0  0  0  0  0
   22.9645    5.2444   13.0137 C   0  0  0  0  0  0  0  0  0  0  0  0
   22.9936    6.5993   13.2890 C   0  0  0  0  0  0  0  0  0  0  0  0
   23.1541    7.5658   12.2995 C   0  0  0  0  0  0  0  0  0  0  0  0
   22.7925    4.6125   14.2191 N   0  0  0  0  0  0  0  0  0  0  0  0
   22.7052    5.4927   15.2716 C   0  0  0  0  0  0  0  0  0  0  0  0
   22.8277    6.7618   14.7375 C   0  0  0  0  0  0  0  0  0  0  0  0
   22.5303    5.3436   16.6438 C   0  0  0  0  0  0  0  0  0  0  0  0
   22.3979    3.9545   17.2256 C   0  0  0  0  0  0  0  0  0  0  0  0
   22.4848    6.4840   17.4583 C   0  0  0  0  0  0  0  0  0  0  0  0
   22.6131    7.7774   16.9067 C   0  0  0  0  0  0  0  0  0  0  0  0
   22.7878    7.9250   15.5144 C   0  0  0  0  0  0  0  0  0  0  0  0
   22.9341    9.2818   14.8560 C   0  0  0  0  0  0  0  0  0  0  0  0
   22.3149    6.3437   18.8387 C   0  0  0  0  0  0  0  0  0  0  0  0
   22.2695    7.4731   19.6529 C   0  0  0  0  0  0  0  0  0  0  0  0
   22.3894    8.6983   19.1120 N   0  0  0  0  0  0  0  0  0  0  0  0
   22.5582    8.8774   17.7874 C   0  0  0  0  0  0  0  0  0  0  0  0
   22.6691   10.1578   17.3306 O   0  0  0  0  0  0  0  0  0  0  0  0
   23.5432    7.7380    9.0901 H   0  0  0  0  0  0  0  0  0  0  0  0
   22.7375    3.6347   14.3196 H   0  0  0  0  0  0  0  0  0  0  0  0
  2  1  1  0  0  0
  3  1  2  0  0  0
  1  7  1  0  0  0
  3  4  1  0  0  0
  4  5  2  0  0  0
  5  6  1  0  0  0
  5  8  1  0  0  0
  7  6  2  0  0  0
  6 10  1  0  0  0
  8  9  1  0  0  0
 10  9  2  0  0  0
  9 11  1  0  0  0
 10 15  1  0  0  0
 11 12  1  0  0  0
 11 13  2  0  0  0
 14 13  1  0  0  0
 13 17  1  0  0  0
 15 14  2  0  0  0
 14 20  1  0  0  0
 16 15  1  0  0  0
 17 18  1  0  0  0
 19 18  2  0  0  0
 20 19  1  0  0  0
 21 20  2  0  0  0
  2 22  1  0  0  0
  8 23  1  0  0  0
M  END
> <minimizedAffinity>
-10.63749

$$$$
3OWJ_1EL_A_332


 23 26  0  0  0  0  0  0  0  0999 V2000
   22.4477    5.7343   18.6115 C   0  0  0  0  0  0  0  0  0  0  0  0
   22.4272    6.4345   19.7830 O   0  0  0  0  0  0  0  0  0  0  0  0
   22.3616    4.3388   18.6369 C   0  0  0  0  0  0  0  0  0  0  0  0
   22.3826    3.5975   17.4549 C   0  0  0  0  0  0  0  0  0  0  0  0
   22.4909    4.2703   16.2396 C   0  0  0  0  0  0  0  0  0  0  0  0
   22.5751    5.6506   16.2320 C   0  0  0  0  0  0  0  0  0  0  0  0
   22.5576    6.4129   17.3972 C   0  0  0  0  0  0  0  0  0  0  0  0
   22.5400    3.8766   14.9265 N   0  0  0  0  0  0  0  0  0  0  0  0
   22.6550    4.9368   14.0589 C   0  0  0  0  0  0  0  0  0  0  0  0
   22.6801    6.0813   14.8336 C   0  0  0  0  0  0  0  0  0  0  0  0
   22.7436    5.0473   12.6748 C   0  0  0  0  0  0  0  0  0  0  0  0
   22.7145    3.7941   11.8297 C   0  0  0  0  0  0  0  0  0  0  0  0
   22.8538    6.3183   12.0930 C   0  0  0  0  0  0  0  0  0  0  0  0
   22.8764    7.4837   12.8900 C   0  0  0  0  0  0  0  0  0  0  0  0
   22.7888    7.3676   14.2934 C   0  0  0  0  0  0  0  0  0  0  0  0
   22.8051    8.5753   15.2083 C   0  0  0  0  0  0  0  0  0  0  0  0
   22.9379    6.4395   10.7030 C   0  0  0  0  0  0  0  0  0  0  0  0
   23.0470    7.6997   10.1193 C   0  0  0  0  0  0  0  0  0  0  0  0
   23.0711    8.7997   10.8921 N   0  0  0  0  0  0  0  0  0  0  0  0
   22.9887    8.7274   12.2349 C   0  0  0  0  0  0  0  0  0  0  0  0
   23.0225    9.8973   12.9353 O   0  0  0  0  0  0  0  0  0  0  0  0
   22.3535    5.9802   20.5991 H   0  0  0  0  0  0  0  0  0  0  0  0
   22.4975    2.9366   14.6368 H   0  0  0  0  0  0  0  0  0  0  0  0
  2  1  1  0  0  0
  3  1  2  0  0  0
  1  7  1  0  0  0
  3  4  1  0  0  0
  4  5  2  0  0  0
  5  6  1  0  0  0
  5  8  1  0  0  0
  7  6  2  0  0  0
  6 10  1  0  0  0
  8  9  1  0  0  0
 10  9  2  0  0  0
  9 11  1  0  0  0
 10 15  1  0  0  0
 11 12  1  0  0  0
 11 13  2  0  0  0
 14 13  1  0  0  0
 13 17  1  0  0  0
 15 14  2  0  0  0
 14 20  1  0  0  0
 16 15  1  0  0  0
 17 18  1  0  0  0
 19 18  2  0  0  0
 20 19  1  0  0  0
 21 20  2  0  0  0
  2 22  1  0  0  0
  8 23  1  0  0  0
M  END
> <minimizedAffinity>
-10.61697

$$$$
3OWJ_1EL_A_332


 23 26  0  0  0  0  0  0  0  0999 V2000
   22.5857    3.4381   14.1732 C   0  0  0  0  0  0  0  0  0  0  0  0
   22.5087    2.3960   15.0513 O   0  0  0  0  0  0  0  0  0  0  0  0
   22.5962    3.1858   12.7978 C   0  0  0  0  0  0  0  0  0  0  0  0
   22.6767    4.2316   11.8775 C   0  0  0  0  0  0  0  0  0  0  0  0
   22.7465    5.5406   12.3498 C   0  0  0  0  0  0  0  0  0  0  0  0
   22.7349    5.7729   13.7130 C   0  0  0  0  0  0  0  0  0  0  0  0
   22.6567    4.7471   14.6514 C   0  0  0  0  0  0  0  0  0  0  0  0
   22.8318    6.7725   11.7523 N   0  0  0  0  0  0  0  0  0  0  0  0
   22.8790    7.8014   12.6629 C   0  0  0  0  0  0  0  0  0  0  0  0
   22.8194    7.2232   13.9170 C   0  0  0  0  0  0  0  0  0  0  0  0
   22.9693    9.1855   12.5529 C   0  0  0  0  0  0  0  0  0  0  0  0
   23.0328    9.8154   11.1800 C   0  0  0  0  0  0  0  0  0  0  0  0
   22.9952    9.9667   13.7169 C   0  0  0  0  0  0  0  0  0  0  0  0
   22.9315    9.3698   14.9950 C   0  0  0  0  0  0  0  0  0  0  0  0
   22.8425    7.9659   15.1028 C   0  0  0  0  0  0  0  0  0  0  0  0
   22.7688    7.2595   16.4412 C   0  0  0  0  0  0  0  0  0  0  0  0
   23.0802   11.3582   13.6162 C   0  0  0  0  0  0  0  0  0  0  0  0
   23.1058   12.1395   14.7693 C   0  0  0  0  0  0  0  0  0  0  0  0
   23.0483   11.5559   15.9793 N   0  0  0  0  0  0  0  0  0  0  0  0
   22.9619   10.2189   16.1206 C   0  0  0  0  0  0  0  0  0  0  0  0
   22.9098    9.7182   17.3882 O   0  0  0  0  0  0  0  0  0  0  0  0
   22.4610    1.5165   14.7317 H   0  0  0  0  0  0  0  0  0  0  0  0
   22.8565    6.9053   10.7771 H   0  0  0  0  0  0  0  0  0  0  0  0
  2  1  1  0  0  0
  3  1  2  0  0  0
  1  7  1  0  0  0
  3  4  1  0  0  0
  4  5  2  0  0  0
  5  6  1  0  0  0
  5  8  1  0  0  0
  7  6  2  0  0  0
  6 10  1  0  0  0
  8  9  1  0  0  0
 10  9  2  0  0  0
  9 11  1  0  0  0
 10 15  1  0  0  0
 11 12  1  0  0  0
 11 13  2  0  0  0
 14 13  1  0  0  0
 13 17  1  0  0  0
 15 14  2  0  0  0
 14 20  1  0  0  0
 16 15  1  0  0  0
 17 18  1  0  0  0
 19 18  2  0  0  0
 20 19  1  0  0  0
 21 20  2  0  0  0
  2 22  1  0  0  0
  8 23  1  0  0  0
M  END
> <minimizedAffinity>
-10.55450

$$$$
