4M12_1YZ_A_701


 30 32  0  0  0  0  0  0  0  0999 V2000
   -4.9546    8.3531   13.3909 N   0  0  0  0  0  0  0  0  0  0  0  0
   -5.9992    7.5906   13.7701 N   0  0  0  0  0  0  0  0  0  0  0  0
   -5.4785    6.6851   14.6554 C   0  0  0  0  0  0  0  0  0  0  0  0
   -4.0676    6.8978   14.8163 C   0  0  0  0  0  0  0  0  0  0  0  0
   -3.7422    7.9759   13.9850 C   0  0  0  0  0  0  0  0  0  0  0  0
   -5.1292    9.4796   12.5183 C   0  0  0  0  0  0  0  0  0  0  0  0
   -4.5286    9.4429   11.2857 C   0  0  0  0  0  0  0  0  0  0  0  0
   -4.6955   10.5354   10.4063 C   0  0  0  0  0  0  0  0  0  0  0  0
   -5.4464   11.6145   10.7801 C   0  0  0  0  0  0  0  0  0  0  0  0
   -5.9008   10.5972   12.9570 C   0  0  0  0  0  0  0  0  0  0  0  0
   -6.0373   11.6749   12.0674 C   0  0  0  0  0  0  0  0  0  0  0  0
   -6.7506   12.8348   12.4822 C   0  0  0  0  0  0  0  0  0  0  0  0
   -7.3046   12.9106   13.7239 C   0  0  0  0  0  0  0  0  0  0  0  0
   -7.1693   11.7989   14.6084 C   0  0  0  0  0  0  0  0  0  0  0  0
   -6.4878   10.6665   14.2430 C   0  0  0  0  0  0  0  0  0  0  0  0
   -7.7529   12.0048   15.8209 O   0  0  0  0  0  0  0  0  0  0  0  0
   -8.4868   10.9258   16.3760 C   0  0  0  0  0  0  0  0  0  0  0  0
   -8.0757   10.8772   17.8422 C   0  0  0  0  0  0  0  0  0  0  0  0
   -3.2686    6.1360   15.6617 N   0  0  0  0  0  0  0  0  0  0  0  0
   -1.9015    5.9493   15.4056 C   0  0  0  0  0  0  0  0  0  0  0  0
   -1.1816    5.2727   16.3821 N   0  0  0  0  0  0  0  0  0  0  0  0
   -1.3483    6.3511   14.3759 O   0  0  0  0  0  0  0  0  0  0  0  0
   -3.6707    5.7185   16.4574 H   0  0  0  0  0  0  0  0  0  0  0  0
   -0.2182    5.1107   16.2600 H   0  0  0  0  0  0  0  0  0  0  0  0
   -1.6348    4.9551   17.1964 H   0  0  0  0  0  0  0  0  0  0  0  0
   -6.2821    5.6718   15.3390 C   0  0  0  0  0  0  0  0  0  0  0  0
   -7.6418    5.7022   15.1517 N   0  0  0  0  0  0  0  0  0  0  0  0
   -5.7656    4.8172   16.0681 O   0  0  0  0  0  0  0  0  0  0  0  0
   -8.0432    6.3869   14.5692 H   0  0  0  0  0  0  0  0  0  0  0  0
   -8.2154    5.0394   15.6000 H   0  0  0  0  0  0  0  0  0  0  0  0
  8  9  2  0  0  0
  8  7  1  0  0  0
  9 11  1  0  0  0
  7  6  2  0  0  0
 11 12  2  0  0  0
 11 10  1  0  0  0
 12 13  1  0  0  0
  6 10  1  0  0  0
  6  1  1  0  0  0
 10 15  2  0  0  0
  1  2  1  0  0  0
  1  5  1  0  0  0
 13 14  2  0  0  0
  2  3  2  0  0  0
  5  4  2  0  0  0
 15 14  1  0  0  0
 14 16  1  0  0  0
  3  4  1  0  0  0
  3 26  1  0  0  0
  4 19  1  0  0  0
 27 26  1  0  0  0
 22 20  2  0  0  0
 26 28  2  0  0  0
 16 17  1  0  0  0
 19 20  1  0  0  0
 20 21  1  0  0  0
 17 18  1  0  0  0
 19 23  1  0  0  0
 21 24  1  0  0  0
 21 25  1  0  0  0
 27 29  1  0  0  0
 27 30  1  0  0  0
M  END
> <minimizedAffinity>
-11.41925

$$$$
4M12_1YZ_A_701


 30 32  0  0  0  0  0  0  0  0999 V2000
   -4.5997    8.5359   13.4931 N   0  0  0  0  0  0  0  0  0  0  0  0
   -3.3279    8.1935   13.7790 N   0  0  0  0  0  0  0  0  0  0  0  0
   -3.4271    7.0988   14.5956 C   0  0  0  0  0  0  0  0  0  0  0  0
   -4.8057    6.7665   14.8210 C   0  0  0  0  0  0  0  0  0  0  0  0
   -5.5524    7.7110   14.1071 C   0  0  0  0  0  0  0  0  0  0  0  0
   -4.8994    9.6039   12.5818 C   0  0  0  0  0  0  0  0  0  0  0  0
   -4.3291    9.5701   11.3348 C   0  0  0  0  0  0  0  0  0  0  0  0
   -4.6182   10.6048   10.4179 C   0  0  0  0  0  0  0  0  0  0  0  0
   -5.4559   11.6257   10.7701 C   0  0  0  0  0  0  0  0  0  0  0  0
   -5.7597   10.6639   12.9978 C   0  0  0  0  0  0  0  0  0  0  0  0
   -6.0174   11.6862   12.0704 C   0  0  0  0  0  0  0  0  0  0  0  0
   -6.8241   12.7927   12.4592 C   0  0  0  0  0  0  0  0  0  0  0  0
   -7.3514   12.8699   13.7124 C   0  0  0  0  0  0  0  0  0  0  0  0
   -7.0919   11.8136   14.6360 C   0  0  0  0  0  0  0  0  0  0  0  0
   -6.3182   10.7337   14.2964 C   0  0  0  0  0  0  0  0  0  0  0  0
   -7.6614   12.0164   15.8557 O   0  0  0  0  0  0  0  0  0  0  0  0
   -8.5288   11.0043   16.3399 C   0  0  0  0  0  0  0  0  0  0  0  0
   -8.2081   10.8815   17.8242 C   0  0  0  0  0  0  0  0  0  0  0  0
   -5.2180    5.6934   15.6032 N   0  0  0  0  0  0  0  0  0  0  0  0
   -6.2229    4.8149   15.1699 C   0  0  0  0  0  0  0  0  0  0  0  0
   -6.4646    3.7125   15.9798 N   0  0  0  0  0  0  0  0  0  0  0  0
   -6.8718    4.9929   14.1330 O   0  0  0  0  0  0  0  0  0  0  0  0
   -4.7956    5.5467   16.4804 H   0  0  0  0  0  0  0  0  0  0  0  0
   -7.1577    3.0598   15.7289 H   0  0  0  0  0  0  0  0  0  0  0  0
   -5.9428    3.5839   16.8047 H   0  0  0  0  0  0  0  0  0  0  0  0
   -2.2682    6.3810   15.1264 C   0  0  0  0  0  0  0  0  0  0  0  0
   -2.2807    6.0440   16.4572 N   0  0  0  0  0  0  0  0  0  0  0  0
   -1.3026    6.0890   14.4116 O   0  0  0  0  0  0  0  0  0  0  0  0
   -3.0545    6.2811   17.0178 H   0  0  0  0  0  0  0  0  0  0  0  0
   -1.5159    5.5652   16.8509 H   0  0  0  0  0  0  0  0  0  0  0  0
  8  9  2  0  0  0
  8  7  1  0  0  0
  9 11  1  0  0  0
  7  6  2  0  0  0
 11 12  2  0  0  0
 11 10  1  0  0  0
 12 13  1  0  0  0
  6 10  1  0  0  0
  6  1  1  0  0  0
 10 15  2  0  0  0
  1  2  1  0  0  0
  1  5  1  0  0  0
 13 14  2  0  0  0
  2  3  2  0  0  0
  5  4  2  0  0  0
 15 14  1  0  0  0
 14 16  1  0  0  0
  3  4  1  0  0  0
  3 26  1  0  0  0
  4 19  1  0  0  0
 27 26  1  0  0  0
 22 20  2  0  0  0
 26 28  2  0  0  0
 16 17  1  0  0  0
 19 20  1  0  0  0
 20 21  1  0  0  0
 17 18  1  0  0  0
 19 23  1  0  0  0
 21 24  1  0  0  0
 21 25  1  0  0  0
 27 29  1  0  0  0
 27 30  1  0  0  0
M  END
> <minimizedAffinity>
-10.22578

$$$$
4M12_1YZ_A_701


 30 32  0  0  0  0  0  0  0  0999 V2000
   -5.9141    8.6084   14.4937 N   0  0  0  0  0  0  0  0  0  0  0  0
   -6.8104    7.7442   15.0096 N   0  0  0  0  0  0  0  0  0  0  0  0
   -6.0808    6.6411   15.3643 C   0  0  0  0  0  0  0  0  0  0  0  0
   -4.6939    6.8363   15.0478 C   0  0  0  0  0  0  0  0  0  0  0  0
   -4.6035    8.1113   14.4774 C   0  0  0  0  0  0  0  0  0  0  0  0
   -6.2997    9.9287   14.0828 C   0  0  0  0  0  0  0  0  0  0  0  0
   -7.1144   10.6536   14.9148 C   0  0  0  0  0  0  0  0  0  0  0  0
   -7.4979   11.9591   14.5360 C   0  0  0  0  0  0  0  0  0  0  0  0
   -7.0618   12.4919   13.3554 C   0  0  0  0  0  0  0  0  0  0  0  0
   -5.8423   10.4383   12.8306 C   0  0  0  0  0  0  0  0  0  0  0  0
   -6.2515   11.7331   12.4737 C   0  0  0  0  0  0  0  0  0  0  0  0
   -5.8665   12.2619   11.2094 C   0  0  0  0  0  0  0  0  0  0  0  0
   -5.1051   11.5332   10.3470 C   0  0  0  0  0  0  0  0  0  0  0  0
   -4.6852   10.2254   10.7339 C   0  0  0  0  0  0  0  0  0  0  0  0
   -5.0387    9.6837   11.9430 C   0  0  0  0  0  0  0  0  0  0  0  0
   -3.9440    9.5967    9.7808 O   0  0  0  0  0  0  0  0  0  0  0  0
   -4.3428    9.7736    8.4314 C   0  0  0  0  0  0  0  0  0  0  0  0
   -4.0067    8.4577    7.7411 C   0  0  0  0  0  0  0  0  0  0  0  0
   -3.7082    5.8894   15.3035 N   0  0  0  0  0  0  0  0  0  0  0  0
   -2.3609    6.2554   15.4467 C   0  0  0  0  0  0  0  0  0  0  0  0
   -1.4869    5.2424   15.8203 N   0  0  0  0  0  0  0  0  0  0  0  0
   -1.9513    7.4053   15.2530 O   0  0  0  0  0  0  0  0  0  0  0  0
   -3.9610    4.9415   15.3860 H   0  0  0  0  0  0  0  0  0  0  0  0
   -0.5289    5.4370   15.9369 H   0  0  0  0  0  0  0  0  0  0  0  0
   -1.8255    4.3299   15.9686 H   0  0  0  0  0  0  0  0  0  0  0  0
   -6.6638    5.4574   15.9957 C   0  0  0  0  0  0  0  0  0  0  0  0
   -7.9373    5.5633   16.4973 N   0  0  0  0  0  0  0  0  0  0  0  0
   -6.0374    4.3952   16.0860 O   0  0  0  0  0  0  0  0  0  0  0  0
   -8.4275    6.4136   16.4203 H   0  0  0  0  0  0  0  0  0  0  0  0
   -8.3603    4.7890   16.9340 H   0  0  0  0  0  0  0  0  0  0  0  0
  8  9  2  0  0  0
  8  7  1  0  0  0
  9 11  1  0  0  0
  7  6  2  0  0  0
 11 12  2  0  0  0
 11 10  1  0  0  0
 12 13  1  0  0  0
  6 10  1  0  0  0
  6  1  1  0  0  0
 10 15  2  0  0  0
  1  2  1  0  0  0
  1  5  1  0  0  0
 13 14  2  0  0  0
  2  3  2  0  0  0
  5  4  2  0  0  0
 15 14  1  0  0  0
 14 16  1  0  0  0
  3  4  1  0  0  0
  3 26  1  0  0  0
  4 19  1  0  0  0
 27 26  1  0  0  0
 22 20  2  0  0  0
 26 28  2  0  0  0
 16 17  1  0  0  0
 19 20  1  0  0  0
 20 21  1  0  0  0
 17 18  1  0  0  0
 19 23  1  0  0  0
 21 24  1  0  0  0
 21 25  1  0  0  0
 27 29  1  0  0  0
 27 30  1  0  0  0
M  END
> <minimizedAffinity>
-8.59052

$$$$
