6D5E_FVG_B_2001


 36 40  0  0  0  0  0  0  0  0999 V2000
   36.0387   28.3758   23.8166 N   0  0  0  0  0  0  0  0  0  0  0  0
   35.2506   28.3736   22.7352 C   0  0  0  0  0  0  0  0  0  0  0  0
   35.2431   28.9444   24.8371 C   0  0  0  0  0  0  0  0  0  0  0  0
   35.5285   29.1438   26.1946 C   0  0  0  0  0  0  0  0  0  0  0  0
   34.4903   29.6740   26.9859 C   0  0  0  0  0  0  0  0  0  0  0  0
   32.9473   29.8300   25.0989 C   0  0  0  0  0  0  0  0  0  0  0  0
   33.9870   28.9009   22.9669 N   0  0  0  0  0  0  0  0  0  0  0  0
   33.9801   29.2810   24.3277 C   0  0  0  0  0  0  0  0  0  0  0  0
   33.2487   29.9841   26.4213 C   0  0  0  0  0  0  0  0  0  0  0  0
   31.9254   30.5372   27.4575 Cl  0  0  0  0  0  0  0  0  0  0  0  0
   36.6830   26.8202   21.5244 C   0  0  0  0  0  0  0  0  0  0  0  0
   35.6104   28.6579   20.3009 C   0  0  0  0  0  0  0  0  0  0  0  0
   36.4924   25.9326   20.2777 C   0  0  0  0  0  0  0  0  0  0  0  0
   35.4931   27.7737   19.0480 C   0  0  0  0  0  0  0  0  0  0  0  0
   35.6320   27.8547   21.5152 N   0  0  0  0  0  0  0  0  0  0  0  0
   36.5545   26.7582   19.0559 N   0  0  0  0  0  0  0  0  0  0  0  0
   37.4611   27.2238   19.0144 H   0  0  0  0  0  0  0  0  0  0  0  0
   38.1454   27.8134   28.4724 C   0  0  0  0  0  0  0  0  0  0  0  0
   37.8279   29.8247   27.1705 C   0  0  0  0  0  0  0  0  0  0  0  0
   36.8300   27.6100   27.6892 C   0  0  0  0  0  0  0  0  0  0  0  0
   38.2848   29.3314   28.5539 C   0  0  0  0  0  0  0  0  0  0  0  0
   36.8304   28.7577   26.7065 N   0  0  0  0  0  0  0  0  0  0  0  0
   38.6530   30.0894   24.7712 N   0  0  0  0  0  0  0  0  0  0  0  0
   39.0160   29.7218   26.1758 C   0  0  0  0  0  0  0  0  0  0  0  0
   39.4746   30.0005   24.1734 H   0  0  0  0  0  0  0  0  0  0  0  0
   38.3179   31.0525   24.7475 H   0  0  0  0  0  0  0  0  0  0  0  0
   32.7960   28.9603   22.1454 C   0  0  0  0  0  0  0  0  0  0  0  0
   31.8740   30.0201   20.1309 C   0  0  0  0  0  0  0  0  0  0  0  0
   31.6508   31.1132   19.3040 C   0  0  0  0  0  0  0  0  0  0  0  0
   32.2703   32.3266   19.6280 C   0  0  0  0  0  0  0  0  0  0  0  0
   33.6775   33.8155   21.0455 C   0  0  0  0  0  0  0  0  0  0  0  0
   33.0734   32.4861   20.7366 C   0  0  0  0  0  0  0  0  0  0  0  0
   33.2922   31.3952   21.5549 C   0  0  0  0  0  0  0  0  0  0  0  0
   30.7563   31.0422   18.1109 C   0  0  0  0  0  0  0  0  0  0  0  0
   32.6854   30.1687   21.2520 C   0  0  0  0  0  0  0  0  0  0  0  0
   32.0711   33.3528   18.8147 F   0  0  0  0  0  0  0  0  0  0  0  0
 34 29  1  0  0  0
 16 14  1  0  0  0
 16 13  1  0  0  0
 14 12  1  0  0  0
 36 30  1  0  0  0
 29 30  2  0  0  0
 29 28  1  0  0  0
 30 32  1  0  0  0
 13 11  1  0  0  0
 12 15  1  0  0  0
 28 35  2  0  0  0
 32 31  1  0  0  0
 32 33  2  0  0  0
 11 15  1  0  0  0
 15  2  1  0  0  0
 35 33  1  0  0  0
 35 27  1  0  0  0
 27  7  1  0  0  0
  2  7  1  0  0  0
  2  1  2  0  0  0
  7  8  1  0  0  0
  1  3  1  0  0  0
  8  3  2  0  0  0
  8  6  1  0  0  0
  3  4  1  0  0  0
 24 23  1  0  0  0
 24 19  1  0  0  0
  6  9  2  0  0  0
 19 22  1  0  0  0
 19 21  1  0  0  0
  4 22  1  0  0  0
  4  5  2  0  0  0
  9  5  1  0  0  0
  9 10  1  0  0  0
 22 20  1  0  0  0
 21 18  1  0  0  0
 20 18  1  0  0  0
 23 25  1  0  0  0
 23 26  1  0  0  0
 16 17  1  0  0  0
M  END
> <minimizedAffinity>
-10.86440

$$$$
6D5E_FVG_B_2001


 36 40  0  0  0  0  0  0  0  0999 V2000
   36.1400   28.6328   23.8055 N   0  0  0  0  0  0  0  0  0  0  0  0
   35.3724   28.6114   22.7096 C   0  0  0  0  0  0  0  0  0  0  0  0
   35.2811   29.0819   24.8343 C   0  0  0  0  0  0  0  0  0  0  0  0
   35.5262   29.2428   26.2046 C   0  0  0  0  0  0  0  0  0  0  0  0
   34.4327   29.6430   26.9980 C   0  0  0  0  0  0  0  0  0  0  0  0
   32.9122   29.7500   25.0896 C   0  0  0  0  0  0  0  0  0  0  0  0
   34.0637   29.0148   22.9394 N   0  0  0  0  0  0  0  0  0  0  0  0
   34.0015   29.3297   24.3154 C   0  0  0  0  0  0  0  0  0  0  0  0
   33.1777   29.8688   26.4232 C   0  0  0  0  0  0  0  0  0  0  0  0
   31.7944   30.2555   27.4565 Cl  0  0  0  0  0  0  0  0  0  0  0  0
   34.8457   27.4816   20.6175 C   0  0  0  0  0  0  0  0  0  0  0  0
   37.1969   27.7709   21.2601 C   0  0  0  0  0  0  0  0  0  0  0  0
   35.2632   27.6932   19.1480 C   0  0  0  0  0  0  0  0  0  0  0  0
   37.5979   27.9113   19.7820 C   0  0  0  0  0  0  0  0  0  0  0  0
   35.8175   28.1846   21.4756 N   0  0  0  0  0  0  0  0  0  0  0  0
   36.6355   27.1930   18.9361 N   0  0  0  0  0  0  0  0  0  0  0  0
   36.6669   26.1996   19.1656 H   0  0  0  0  0  0  0  0  0  0  0  0
   38.2151   28.0771   28.4888 C   0  0  0  0  0  0  0  0  0  0  0  0
   37.7561   30.0813   27.2185 C   0  0  0  0  0  0  0  0  0  0  0  0
   36.9274   27.7871   27.6872 C   0  0  0  0  0  0  0  0  0  0  0  0
   38.2358   29.5996   28.5982 C   0  0  0  0  0  0  0  0  0  0  0  0
   36.8489   28.9491   26.7246 N   0  0  0  0  0  0  0  0  0  0  0  0
   38.5699   30.3685   24.8180 N   0  0  0  0  0  0  0  0  0  0  0  0
   38.9585   30.0885   26.2359 C   0  0  0  0  0  0  0  0  0  0  0  0
   39.4026   30.3586   24.2289 H   0  0  0  0  0  0  0  0  0  0  0  0
   38.1247   31.2845   24.7620 H   0  0  0  0  0  0  0  0  0  0  0  0
   32.8853   29.0074   22.0978 C   0  0  0  0  0  0  0  0  0  0  0  0
   33.3481   31.3876   21.7080 C   0  0  0  0  0  0  0  0  0  0  0  0
   33.2696   32.5529   20.9567 C   0  0  0  0  0  0  0  0  0  0  0  0
   32.4893   32.5402   19.7940 C   0  0  0  0  0  0  0  0  0  0  0  0
   31.0263   31.4636   18.0890 C   0  0  0  0  0  0  0  0  0  0  0  0
   31.8140   31.4215   19.3560 C   0  0  0  0  0  0  0  0  0  0  0  0
   31.8954   30.2657   20.1077 C   0  0  0  0  0  0  0  0  0  0  0  0
   34.0079   33.7952   21.3309 C   0  0  0  0  0  0  0  0  0  0  0  0
   32.6682   30.2522   21.2769 C   0  0  0  0  0  0  0  0  0  0  0  0
   32.4010   33.6667   19.1030 F   0  0  0  0  0  0  0  0  0  0  0  0
 34 29  1  0  0  0
 16 14  1  0  0  0
 16 13  1  0  0  0
 14 12  1  0  0  0
 36 30  1  0  0  0
 29 30  2  0  0  0
 29 28  1  0  0  0
 30 32  1  0  0  0
 13 11  1  0  0  0
 12 15  1  0  0  0
 28 35  2  0  0  0
 32 31  1  0  0  0
 32 33  2  0  0  0
 11 15  1  0  0  0
 15  2  1  0  0  0
 35 33  1  0  0  0
 35 27  1  0  0  0
 27  7  1  0  0  0
  2  7  1  0  0  0
  2  1  2  0  0  0
  7  8  1  0  0  0
  1  3  1  0  0  0
  8  3  2  0  0  0
  8  6  1  0  0  0
  3  4  1  0  0  0
 24 23  1  0  0  0
 24 19  1  0  0  0
  6  9  2  0  0  0
 19 22  1  0  0  0
 19 21  1  0  0  0
  4 22  1  0  0  0
  4  5  2  0  0  0
  9  5  1  0  0  0
  9 10  1  0  0  0
 22 20  1  0  0  0
 21 18  1  0  0  0
 20 18  1  0  0  0
 23 25  1  0  0  0
 23 26  1  0  0  0
 16 17  1  0  0  0
M  END
> <minimizedAffinity>
-10.30961

$$$$
6D5E_FVG_B_2001


 36 40  0  0  0  0  0  0  0  0999 V2000
   36.4750   28.9733   23.8628 N   0  0  0  0  0  0  0  0  0  0  0  0
   35.1512   29.1668   23.8943 C   0  0  0  0  0  0  0  0  0  0  0  0
   36.7462   28.5756   22.5339 C   0  0  0  0  0  0  0  0  0  0  0  0
   37.9697   28.2952   21.9107 C   0  0  0  0  0  0  0  0  0  0  0  0
   37.9220   27.9921   20.5355 C   0  0  0  0  0  0  0  0  0  0  0  0
   35.4915   28.2107   20.4326 C   0  0  0  0  0  0  0  0  0  0  0  0
   34.5250   28.9255   22.6786 N   0  0  0  0  0  0  0  0  0  0  0  0
   35.5548   28.5329   21.7945 C   0  0  0  0  0  0  0  0  0  0  0  0
   36.7027   27.9716   19.8504 C   0  0  0  0  0  0  0  0  0  0  0  0
   36.6817   27.7046   18.1014 Cl  0  0  0  0  0  0  0  0  0  0  0  0
   35.2745   29.9040   26.2121 C   0  0  0  0  0  0  0  0  0  0  0  0
   33.1143   29.1740   25.3038 C   0  0  0  0  0  0  0  0  0  0  0  0
   34.5216   30.9620   27.0440 C   0  0  0  0  0  0  0  0  0  0  0  0
   32.3806   30.1912   26.1939 C   0  0  0  0  0  0  0  0  0  0  0  0
   34.4721   29.6103   25.0101 N   0  0  0  0  0  0  0  0  0  0  0  0
   33.1779   30.4639   27.3971 N   0  0  0  0  0  0  0  0  0  0  0  0
   33.2729   29.6030   27.9358 H   0  0  0  0  0  0  0  0  0  0  0  0
   41.5858   28.4775   22.7457 C   0  0  0  0  0  0  0  0  0  0  0  0
   39.6940   27.1619   23.4745 C   0  0  0  0  0  0  0  0  0  0  0  0
   40.3599   29.0437   21.9963 C   0  0  0  0  0  0  0  0  0  0  0  0
   41.1752   27.0450   23.0769 C   0  0  0  0  0  0  0  0  0  0  0  0
   39.1929   28.3776   22.6873 N   0  0  0  0  0  0  0  0  0  0  0  0
   38.3142   27.1836   25.6200 N   0  0  0  0  0  0  0  0  0  0  0  0
   39.5994   27.5838   24.9660 C   0  0  0  0  0  0  0  0  0  0  0  0
   38.3180   27.4897   26.5930 H   0  0  0  0  0  0  0  0  0  0  0  0
   38.2155   26.1690   25.5832 H   0  0  0  0  0  0  0  0  0  0  0  0
   33.1659   29.1429   22.2285 C   0  0  0  0  0  0  0  0  0  0  0  0
   32.1712   30.1169   20.2053 C   0  0  0  0  0  0  0  0  0  0  0  0
   31.8667   31.1849   19.3715 C   0  0  0  0  0  0  0  0  0  0  0  0
   32.3893   32.4444   19.6903 C   0  0  0  0  0  0  0  0  0  0  0  0
   33.6723   34.0456   21.1031 C   0  0  0  0  0  0  0  0  0  0  0  0
   33.1739   32.6717   20.8002 C   0  0  0  0  0  0  0  0  0  0  0  0
   33.4738   31.6056   21.6254 C   0  0  0  0  0  0  0  0  0  0  0  0
   30.9843   31.0382   18.1763 C   0  0  0  0  0  0  0  0  0  0  0  0
   32.9649   30.3341   21.3279 C   0  0  0  0  0  0  0  0  0  0  0  0
   32.1138   33.4475   18.8704 F   0  0  0  0  0  0  0  0  0  0  0  0
 34 29  1  0  0  0
 16 14  1  0  0  0
 16 13  1  0  0  0
 14 12  1  0  0  0
 36 30  1  0  0  0
 29 30  2  0  0  0
 29 28  1  0  0  0
 30 32  1  0  0  0
 13 11  1  0  0  0
 12 15  1  0  0  0
 28 35  2  0  0  0
 32 31  1  0  0  0
 32 33  2  0  0  0
 11 15  1  0  0  0
 15  2  1  0  0  0
 35 33  1  0  0  0
 35 27  1  0  0  0
 27  7  1  0  0  0
  2  7  1  0  0  0
  2  1  2  0  0  0
  7  8  1  0  0  0
  1  3  1  0  0  0
  8  3  2  0  0  0
  8  6  1  0  0  0
  3  4  1  0  0  0
 24 23  1  0  0  0
 24 19  1  0  0  0
  6  9  2  0  0  0
 19 22  1  0  0  0
 19 21  1  0  0  0
  4 22  1  0  0  0
  4  5  2  0  0  0
  9  5  1  0  0  0
  9 10  1  0  0  0
 22 20  1  0  0  0
 21 18  1  0  0  0
 20 18  1  0  0  0
 23 25  1  0  0  0
 23 26  1  0  0  0
 16 17  1  0  0  0
M  END
> <minimizedAffinity>
-9.38800

$$$$
6D5E_FVG_B_2001


 36 40  0  0  0  0  0  0  0  0999 V2000
   36.5672   28.9447   23.7159 N   0  0  0  0  0  0  0  0  0  0  0  0
   35.2417   29.1242   23.7543 C   0  0  0  0  0  0  0  0  0  0  0  0
   36.8357   28.5495   22.3857 C   0  0  0  0  0  0  0  0  0  0  0  0
   38.0588   28.2819   21.7562 C   0  0  0  0  0  0  0  0  0  0  0  0
   38.0071   27.9778   20.3814 C   0  0  0  0  0  0  0  0  0  0  0  0
   35.5739   28.1705   20.2911 C   0  0  0  0  0  0  0  0  0  0  0  0
   34.6117   28.8758   22.5419 N   0  0  0  0  0  0  0  0  0  0  0  0
   35.6410   28.4939   21.6526 C   0  0  0  0  0  0  0  0  0  0  0  0
   36.7845   27.9441   19.7027 C   0  0  0  0  0  0  0  0  0  0  0  0
   36.7572   27.6761   17.9539 Cl  0  0  0  0  0  0  0  0  0  0  0  0
   35.3675   29.8476   26.0763 C   0  0  0  0  0  0  0  0  0  0  0  0
   33.2063   29.1225   25.1661 C   0  0  0  0  0  0  0  0  0  0  0  0
   34.6153   30.9005   26.9153 C   0  0  0  0  0  0  0  0  0  0  0  0
   32.4735   30.1342   26.0631 C   0  0  0  0  0  0  0  0  0  0  0  0
   34.5637   29.5609   24.8735 N   0  0  0  0  0  0  0  0  0  0  0  0
   33.2721   30.4000   27.2670 N   0  0  0  0  0  0  0  0  0  0  0  0
   33.3679   29.5358   27.8004 H   0  0  0  0  0  0  0  0  0  0  0  0
   40.4505   28.0082   24.5867 C   0  0  0  0  0  0  0  0  0  0  0  0
   39.7742   29.7366   23.0387 C   0  0  0  0  0  0  0  0  0  0  0  0
   39.4547   27.3411   23.6127 C   0  0  0  0  0  0  0  0  0  0  0  0
   40.0774   29.4872   24.5258 C   0  0  0  0  0  0  0  0  0  0  0  0
   39.2851   28.3775   22.5263 N   0  0  0  0  0  0  0  0  0  0  0  0
   41.3392   31.4345   21.9546 N   0  0  0  0  0  0  0  0  0  0  0  0
   41.1068   29.9932   22.2838 C   0  0  0  0  0  0  0  0  0  0  0  0
   42.2271   31.5319   21.4621 H   0  0  0  0  0  0  0  0  0  0  0  0
   41.3668   31.9799   22.8162 H   0  0  0  0  0  0  0  0  0  0  0  0
   33.2480   29.0785   22.0989 C   0  0  0  0  0  0  0  0  0  0  0  0
   32.2139   30.1063   20.1226 C   0  0  0  0  0  0  0  0  0  0  0  0
   31.8851   31.1972   19.3288 C   0  0  0  0  0  0  0  0  0  0  0  0
   32.3967   32.4520   19.6822 C   0  0  0  0  0  0  0  0  0  0  0  0
   33.6795   34.0217   21.1301 C   0  0  0  0  0  0  0  0  0  0  0  0
   33.1937   32.6524   20.7884 C   0  0  0  0  0  0  0  0  0  0  0  0
   33.5178   31.5635   21.5738 C   0  0  0  0  0  0  0  0  0  0  0  0
   30.9882   31.0790   18.1412 C   0  0  0  0  0  0  0  0  0  0  0  0
   33.0202   30.2963   21.2411 C   0  0  0  0  0  0  0  0  0  0  0  0
   32.0979   33.4781   18.8998 F   0  0  0  0  0  0  0  0  0  0  0  0
 34 29  1  0  0  0
 16 14  1  0  0  0
 16 13  1  0  0  0
 14 12  1  0  0  0
 36 30  1  0  0  0
 29 30  2  0  0  0
 29 28  1  0  0  0
 30 32  1  0  0  0
 13 11  1  0  0  0
 12 15  1  0  0  0
 28 35  2  0  0  0
 32 31  1  0  0  0
 32 33  2  0  0  0
 11 15  1  0  0  0
 15  2  1  0  0  0
 35 33  1  0  0  0
 35 27  1  0  0  0
 27  7  1  0  0  0
  2  7  1  0  0  0
  2  1  2  0  0  0
  7  8  1  0  0  0
  1  3  1  0  0  0
  8  3  2  0  0  0
  8  6  1  0  0  0
  3  4  1  0  0  0
 24 23  1  0  0  0
 24 19  1  0  0  0
  6  9  2  0  0  0
 19 22  1  0  0  0
 19 21  1  0  0  0
  4 22  1  0  0  0
  4  5  2  0  0  0
  9  5  1  0  0  0
  9 10  1  0  0  0
 22 20  1  0  0  0
 21 18  1  0  0  0
 20 18  1  0  0  0
 23 25  1  0  0  0
 23 26  1  0  0  0
 16 17  1  0  0  0
M  END
> <minimizedAffinity>
-9.08615

$$$$
6D5E_FVG_B_2001


 36 40  0  0  0  0  0  0  0  0999 V2000
   35.7990   26.9484   27.3328 N   0  0  0  0  0  0  0  0  0  0  0  0
   35.7298   28.2491   27.0263 C   0  0  0  0  0  0  0  0  0  0  0  0
   37.0570   26.7955   27.9588 C   0  0  0  0  0  0  0  0  0  0  0  0
   37.6419   25.6612   28.5377 C   0  0  0  0  0  0  0  0  0  0  0  0
   38.8939   25.8440   29.1574 C   0  0  0  0  0  0  0  0  0  0  0  0
   38.9775   28.2197   28.5962 C   0  0  0  0  0  0  0  0  0  0  0  0
   36.8542   28.9703   27.4055 N   0  0  0  0  0  0  0  0  0  0  0  0
   37.7225   28.0296   28.0034 C   0  0  0  0  0  0  0  0  0  0  0  0
   39.5053   27.1020   29.1752 C   0  0  0  0  0  0  0  0  0  0  0  0
   41.0199   27.3306   30.0611 Cl  0  0  0  0  0  0  0  0  0  0  0  0
   34.6593   28.9884   24.9675 C   0  0  0  0  0  0  0  0  0  0  0  0
   33.8472   29.8566   27.1149 C   0  0  0  0  0  0  0  0  0  0  0  0
   33.2037   29.0000   24.4582 C   0  0  0  0  0  0  0  0  0  0  0  0
   32.4138   29.9230   26.5617 C   0  0  0  0  0  0  0  0  0  0  0  0
   34.6304   28.8352   26.4340 N   0  0  0  0  0  0  0  0  0  0  0  0
   32.4519   30.0942   25.1032 N   0  0  0  0  0  0  0  0  0  0  0  0
   32.9029   30.9824   24.8839 H   0  0  0  0  0  0  0  0  0  0  0  0
   35.7180   22.6966   29.6853 C   0  0  0  0  0  0  0  0  0  0  0  0
   37.6748   23.0814   28.3199 C   0  0  0  0  0  0  0  0  0  0  0  0
   35.8671   24.2300   29.5781 C   0  0  0  0  0  0  0  0  0  0  0  0
   37.1335   22.1795   29.4421 C   0  0  0  0  0  0  0  0  0  0  0  0
   36.9206   24.4022   28.5087 N   0  0  0  0  0  0  0  0  0  0  0  0
   37.6967   23.3194   25.7802 N   0  0  0  0  0  0  0  0  0  0  0  0
   37.1893   22.5353   26.9497 C   0  0  0  0  0  0  0  0  0  0  0  0
   37.3420   22.9092   24.9162 H   0  0  0  0  0  0  0  0  0  0  0  0
   38.7164   23.2980   25.7731 H   0  0  0  0  0  0  0  0  0  0  0  0
   37.1417   30.3896   27.4030 C   0  0  0  0  0  0  0  0  0  0  0  0
   36.7724   31.7259   25.3758 C   0  0  0  0  0  0  0  0  0  0  0  0
   37.2043   32.3428   24.2090 C   0  0  0  0  0  0  0  0  0  0  0  0
   38.5276   32.1352   23.8005 C   0  0  0  0  0  0  0  0  0  0  0  0
   40.8277   31.2091   24.0412 C   0  0  0  0  0  0  0  0  0  0  0  0
   39.4200   31.3634   24.5127 C   0  0  0  0  0  0  0  0  0  0  0  0
   38.9845   30.7519   25.6720 C   0  0  0  0  0  0  0  0  0  0  0  0
   36.3193   33.2348   23.4029 C   0  0  0  0  0  0  0  0  0  0  0  0
   37.6642   30.9420   26.1020 C   0  0  0  0  0  0  0  0  0  0  0  0
   38.9170   32.7069   22.6710 F   0  0  0  0  0  0  0  0  0  0  0  0
 34 29  1  0  0  0
 16 14  1  0  0  0
 16 13  1  0  0  0
 14 12  1  0  0  0
 36 30  1  0  0  0
 29 30  2  0  0  0
 29 28  1  0  0  0
 30 32  1  0  0  0
 13 11  1  0  0  0
 12 15  1  0  0  0
 28 35  2  0  0  0
 32 31  1  0  0  0
 32 33  2  0  0  0
 11 15  1  0  0  0
 15  2  1  0  0  0
 35 33  1  0  0  0
 35 27  1  0  0  0
 27  7  1  0  0  0
  2  7  1  0  0  0
  2  1  2  0  0  0
  7  8  1  0  0  0
  1  3  1  0  0  0
  8  3  2  0  0  0
  8  6  1  0  0  0
  3  4  1  0  0  0
 24 23  1  0  0  0
 24 19  1  0  0  0
  6  9  2  0  0  0
 19 22  1  0  0  0
 19 21  1  0  0  0
  4 22  1  0  0  0
  4  5  2  0  0  0
  9  5  1  0  0  0
  9 10  1  0  0  0
 22 20  1  0  0  0
 21 18  1  0  0  0
 20 18  1  0  0  0
 23 25  1  0  0  0
 23 26  1  0  0  0
 16 17  1  0  0  0
M  END
> <minimizedAffinity>
-8.41991

$$$$
6D5E_FVG_B_2001


 36 40  0  0  0  0  0  0  0  0999 V2000
   36.5460   30.2063   23.6335 N   0  0  0  0  0  0  0  0  0  0  0  0
   37.4321   30.2380   24.6357 C   0  0  0  0  0  0  0  0  0  0  0  0
   35.2893   30.0975   24.2712 C   0  0  0  0  0  0  0  0  0  0  0  0
   34.0002   30.0802   23.7219 C   0  0  0  0  0  0  0  0  0  0  0  0
   32.9268   30.0358   24.6336 C   0  0  0  0  0  0  0  0  0  0  0  0
   34.4029   29.9905   26.5791 C   0  0  0  0  0  0  0  0  0  0  0  0
   36.8510   30.1580   25.8944 N   0  0  0  0  0  0  0  0  0  0  0  0
   35.4607   30.0578   25.6630 C   0  0  0  0  0  0  0  0  0  0  0  0
   33.1613   30.0044   26.0122 C   0  0  0  0  0  0  0  0  0  0  0  0
   31.7972   30.0680   27.1374 Cl  0  0  0  0  0  0  0  0  0  0  0  0
   39.2297   31.4414   23.5171 C   0  0  0  0  0  0  0  0  0  0  0  0
   39.7004   29.2498   24.5171 C   0  0  0  0  0  0  0  0  0  0  0  0
   40.6440   31.8914   23.9360 C   0  0  0  0  0  0  0  0  0  0  0  0
   41.1296   29.6996   24.8640 C   0  0  0  0  0  0  0  0  0  0  0  0
   38.7908   30.3847   24.4475 N   0  0  0  0  0  0  0  0  0  0  0  0
   41.5656   30.7386   23.9214 N   0  0  0  0  0  0  0  0  0  0  0  0
   41.5916   30.3451   22.9808 H   0  0  0  0  0  0  0  0  0  0  0  0
   32.6326   30.9770   20.3854 C   0  0  0  0  0  0  0  0  0  0  0  0
   33.3315   28.9456   21.4928 C   0  0  0  0  0  0  0  0  0  0  0  0
   33.1848   31.4107   21.7609 C   0  0  0  0  0  0  0  0  0  0  0  0
   32.2161   29.5251   20.6062 C   0  0  0  0  0  0  0  0  0  0  0  0
   33.8457   30.1553   22.2808 N   0  0  0  0  0  0  0  0  0  0  0  0
   34.8811   27.0692   20.7278 N   0  0  0  0  0  0  0  0  0  0  0  0
   34.5236   28.5164   20.5950 C   0  0  0  0  0  0  0  0  0  0  0  0
   35.6676   26.8556   20.1144 H   0  0  0  0  0  0  0  0  0  0  0  0
   34.0796   26.4955   20.4654 H   0  0  0  0  0  0  0  0  0  0  0  0
   37.4010   30.2988   27.2266 C   0  0  0  0  0  0  0  0  0  0  0  0
   39.3168   29.2350   28.3355 C   0  0  0  0  0  0  0  0  0  0  0  0
   39.9436   28.1625   28.9563 C   0  0  0  0  0  0  0  0  0  0  0  0
   39.2701   26.9354   28.9985 C   0  0  0  0  0  0  0  0  0  0  0  0
   37.3328   25.4271   28.5765 C   0  0  0  0  0  0  0  0  0  0  0  0
   38.0111   26.7523   28.4688 C   0  0  0  0  0  0  0  0  0  0  0  0
   37.3930   27.8224   27.8522 C   0  0  0  0  0  0  0  0  0  0  0  0
   41.2853   28.2852   29.5993 C   0  0  0  0  0  0  0  0  0  0  0  0
   38.0461   29.0612   27.7947 C   0  0  0  0  0  0  0  0  0  0  0  0
   39.8921   25.9145   29.5687 F   0  0  0  0  0  0  0  0  0  0  0  0
 34 29  1  0  0  0
 16 14  1  0  0  0
 16 13  1  0  0  0
 14 12  1  0  0  0
 36 30  1  0  0  0
 29 30  2  0  0  0
 29 28  1  0  0  0
 30 32  1  0  0  0
 13 11  1  0  0  0
 12 15  1  0  0  0
 28 35  2  0  0  0
 32 31  1  0  0  0
 32 33  2  0  0  0
 11 15  1  0  0  0
 15  2  1  0  0  0
 35 33  1  0  0  0
 35 27  1  0  0  0
 27  7  1  0  0  0
  2  7  1  0  0  0
  2  1  2  0  0  0
  7  8  1  0  0  0
  1  3  1  0  0  0
  8  3  2  0  0  0
  8  6  1  0  0  0
  3  4  1  0  0  0
 24 23  1  0  0  0
 24 19  1  0  0  0
  6  9  2  0  0  0
 19 22  1  0  0  0
 19 21  1  0  0  0
  4 22  1  0  0  0
  4  5  2  0  0  0
  9  5  1  0  0  0
  9 10  1  0  0  0
 22 20  1  0  0  0
 21 18  1  0  0  0
 20 18  1  0  0  0
 23 25  1  0  0  0
 23 26  1  0  0  0
 16 17  1  0  0  0
M  END
> <minimizedAffinity>
-8.34151

$$$$
6D5E_FVG_B_2001


 36 40  0  0  0  0  0  0  0  0999 V2000
   36.9421   26.8741   26.6595 N   0  0  0  0  0  0  0  0  0  0  0  0
   36.8515   27.9539   25.8743 C   0  0  0  0  0  0  0  0  0  0  0  0
   37.7417   25.9667   25.9280 C   0  0  0  0  0  0  0  0  0  0  0  0
   38.2137   24.6957   26.2824 C   0  0  0  0  0  0  0  0  0  0  0  0
   39.0627   24.0576   25.3565 C   0  0  0  0  0  0  0  0  0  0  0  0
   38.9323   25.9014   23.7598 C   0  0  0  0  0  0  0  0  0  0  0  0
   37.5355   27.8264   24.6725 N   0  0  0  0  0  0  0  0  0  0  0  0
   38.1078   26.5348   24.6987 C   0  0  0  0  0  0  0  0  0  0  0  0
   39.3975   24.6785   24.1486 C   0  0  0  0  0  0  0  0  0  0  0  0
   40.5578   23.9087   23.0568 Cl  0  0  0  0  0  0  0  0  0  0  0  0
   37.0049   30.3068   26.4833 C   0  0  0  0  0  0  0  0  0  0  0  0
   34.9543   29.0666   27.0138 C   0  0  0  0  0  0  0  0  0  0  0  0
   36.1336   31.5478   26.2023 C   0  0  0  0  0  0  0  0  0  0  0  0
   34.1135   30.3354   26.7937 C   0  0  0  0  0  0  0  0  0  0  0  0
   36.1850   29.1060   26.2366 N   0  0  0  0  0  0  0  0  0  0  0  0
   34.9322   31.5258   27.0594 N   0  0  0  0  0  0  0  0  0  0  0  0
   35.2211   31.5195   28.0376 H   0  0  0  0  0  0  0  0  0  0  0  0
   38.0702   22.3906   29.1932 C   0  0  0  0  0  0  0  0  0  0  0  0
   36.4633   23.5223   27.7867 C   0  0  0  0  0  0  0  0  0  0  0  0
   38.8948   23.2685   28.2266 C   0  0  0  0  0  0  0  0  0  0  0  0
   36.7595   22.1637   28.4441 C   0  0  0  0  0  0  0  0  0  0  0  0
   37.8489   24.1416   27.5731 N   0  0  0  0  0  0  0  0  0  0  0  0
   34.8792   25.4789   28.1987 N   0  0  0  0  0  0  0  0  0  0  0  0
   35.7665   24.4471   28.8214 C   0  0  0  0  0  0  0  0  0  0  0  0
   34.4553   26.0492   28.9305 H   0  0  0  0  0  0  0  0  0  0  0  0
   34.1464   25.0169   27.6603 H   0  0  0  0  0  0  0  0  0  0  0  0
   37.8217   28.7734   23.6151 C   0  0  0  0  0  0  0  0  0  0  0  0
   37.5675   28.2164   21.2367 C   0  0  0  0  0  0  0  0  0  0  0  0
   36.8085   28.0088   20.0924 C   0  0  0  0  0  0  0  0  0  0  0  0
   35.4358   28.2796   20.1496 C   0  0  0  0  0  0  0  0  0  0  0  0
   33.3326   28.9619   21.2973 C   0  0  0  0  0  0  0  0  0  0  0  0
   34.8060   28.7239   21.2921 C   0  0  0  0  0  0  0  0  0  0  0  0
   35.5661   28.9291   22.4269 C   0  0  0  0  0  0  0  0  0  0  0  0
   37.4001   27.4828   18.8266 C   0  0  0  0  0  0  0  0  0  0  0  0
   36.9426   28.6674   22.3958 C   0  0  0  0  0  0  0  0  0  0  0  0
   34.7299   28.1041   19.0427 F   0  0  0  0  0  0  0  0  0  0  0  0
 34 29  1  0  0  0
 16 14  1  0  0  0
 16 13  1  0  0  0
 14 12  1  0  0  0
 36 30  1  0  0  0
 29 30  2  0  0  0
 29 28  1  0  0  0
 30 32  1  0  0  0
 13 11  1  0  0  0
 12 15  1  0  0  0
 28 35  2  0  0  0
 32 31  1  0  0  0
 32 33  2  0  0  0
 11 15  1  0  0  0
 15  2  1  0  0  0
 35 33  1  0  0  0
 35 27  1  0  0  0
 27  7  1  0  0  0
  2  7  1  0  0  0
  2  1  2  0  0  0
  7  8  1  0  0  0
  1  3  1  0  0  0
  8  3  2  0  0  0
  8  6  1  0  0  0
  3  4  1  0  0  0
 24 23  1  0  0  0
 24 19  1  0  0  0
  6  9  2  0  0  0
 19 22  1  0  0  0
 19 21  1  0  0  0
  4 22  1  0  0  0
  4  5  2  0  0  0
  9  5  1  0  0  0
  9 10  1  0  0  0
 22 20  1  0  0  0
 21 18  1  0  0  0
 20 18  1  0  0  0
 23 25  1  0  0  0
 23 26  1  0  0  0
 16 17  1  0  0  0
M  END
> <minimizedAffinity>
-8.14373

$$$$
6D5E_FVG_B_2001


 36 40  0  0  0  0  0  0  0  0999 V2000
   36.7951   26.8883   26.8029 N   0  0  0  0  0  0  0  0  0  0  0  0
   36.6538   27.9604   26.0147 C   0  0  0  0  0  0  0  0  0  0  0  0
   37.6177   26.0078   26.0640 C   0  0  0  0  0  0  0  0  0  0  0  0
   38.1414   24.7568   26.4168 C   0  0  0  0  0  0  0  0  0  0  0  0
   39.0006   24.1464   25.4818 C   0  0  0  0  0  0  0  0  0  0  0  0
   38.7801   25.9769   23.8797 C   0  0  0  0  0  0  0  0  0  0  0  0
   37.3255   27.8529   24.8040 N   0  0  0  0  0  0  0  0  0  0  0  0
   37.9456   26.5835   24.8275 C   0  0  0  0  0  0  0  0  0  0  0  0
   39.2956   24.7737   24.2669 C   0  0  0  0  0  0  0  0  0  0  0  0
   40.4686   24.0426   23.1622 Cl  0  0  0  0  0  0  0  0  0  0  0  0
   36.7367   30.2794   26.7535 C   0  0  0  0  0  0  0  0  0  0  0  0
   34.6624   29.0026   27.0559 C   0  0  0  0  0  0  0  0  0  0  0  0
   35.8786   31.5287   26.4683 C   0  0  0  0  0  0  0  0  0  0  0  0
   33.8296   30.2766   26.8352 C   0  0  0  0  0  0  0  0  0  0  0  0
   35.9501   29.0887   26.3816 N   0  0  0  0  0  0  0  0  0  0  0  0
   34.6137   31.4559   27.2254 N   0  0  0  0  0  0  0  0  0  0  0  0
   34.8248   31.4007   28.2218 H   0  0  0  0  0  0  0  0  0  0  0  0
   38.1661   22.4924   29.3629 C   0  0  0  0  0  0  0  0  0  0  0  0
   36.4818   23.4717   27.9327 C   0  0  0  0  0  0  0  0  0  0  0  0
   38.9235   23.4179   28.3857 C   0  0  0  0  0  0  0  0  0  0  0  0
   36.8813   22.1510   28.6125 C   0  0  0  0  0  0  0  0  0  0  0  0
   37.8150   24.1953   27.7147 N   0  0  0  0  0  0  0  0  0  0  0  0
   34.8266   25.3766   28.3053 N   0  0  0  0  0  0  0  0  0  0  0  0
   35.7088   24.3541   28.9502 C   0  0  0  0  0  0  0  0  0  0  0  0
   34.3510   25.9188   29.0266 H   0  0  0  0  0  0  0  0  0  0  0  0
   34.1346   24.9083   27.7203 H   0  0  0  0  0  0  0  0  0  0  0  0
   37.5618   28.8050   23.7389 C   0  0  0  0  0  0  0  0  0  0  0  0
   35.3764   29.5194   22.8757 C   0  0  0  0  0  0  0  0  0  0  0  0
   34.4252   29.6367   21.8708 C   0  0  0  0  0  0  0  0  0  0  0  0
   34.6754   29.0076   20.6449 C   0  0  0  0  0  0  0  0  0  0  0  0
   36.0493   27.6772   19.0485 C   0  0  0  0  0  0  0  0  0  0  0  0
   35.8273   28.2960   20.3885 C   0  0  0  0  0  0  0  0  0  0  0  0
   36.7695   28.1823   21.3920 C   0  0  0  0  0  0  0  0  0  0  0  0
   33.1723   30.4294   22.0460 C   0  0  0  0  0  0  0  0  0  0  0  0
   36.5427   28.8009   22.6290 C   0  0  0  0  0  0  0  0  0  0  0  0
   33.7465   29.1044   19.7057 F   0  0  0  0  0  0  0  0  0  0  0  0
 34 29  1  0  0  0
 16 14  1  0  0  0
 16 13  1  0  0  0
 14 12  1  0  0  0
 36 30  1  0  0  0
 29 30  2  0  0  0
 29 28  1  0  0  0
 30 32  1  0  0  0
 13 11  1  0  0  0
 12 15  1  0  0  0
 28 35  2  0  0  0
 32 31  1  0  0  0
 32 33  2  0  0  0
 11 15  1  0  0  0
 15  2  1  0  0  0
 35 33  1  0  0  0
 35 27  1  0  0  0
 27  7  1  0  0  0
  2  7  1  0  0  0
  2  1  2  0  0  0
  7  8  1  0  0  0
  1  3  1  0  0  0
  8  3  2  0  0  0
  8  6  1  0  0  0
  3  4  1  0  0  0
 24 23  1  0  0  0
 24 19  1  0  0  0
  6  9  2  0  0  0
 19 22  1  0  0  0
 19 21  1  0  0  0
  4 22  1  0  0  0
  4  5  2  0  0  0
  9  5  1  0  0  0
  9 10  1  0  0  0
 22 20  1  0  0  0
 21 18  1  0  0  0
 20 18  1  0  0  0
 23 25  1  0  0  0
 23 26  1  0  0  0
 16 17  1  0  0  0
M  END
> <minimizedAffinity>
-8.09997

$$$$
6D5E_FVG_B_2001


 36 40  0  0  0  0  0  0  0  0999 V2000
   37.8198   29.2575   25.6638 N   0  0  0  0  0  0  0  0  0  0  0  0
   37.8480   30.2856   24.8078 C   0  0  0  0  0  0  0  0  0  0  0  0
   36.5313   29.3097   26.2425 C   0  0  0  0  0  0  0  0  0  0  0  0
   35.9234   28.4470   27.1644 C   0  0  0  0  0  0  0  0  0  0  0  0
   34.5836   28.7254   27.5000 C   0  0  0  0  0  0  0  0  0  0  0  0
   34.4882   30.6933   26.0564 C   0  0  0  0  0  0  0  0  0  0  0  0
   36.6676   31.0165   24.7777 N   0  0  0  0  0  0  0  0  0  0  0  0
   35.8128   30.3924   25.7137 C   0  0  0  0  0  0  0  0  0  0  0  0
   33.9174   29.8172   26.9338 C   0  0  0  0  0  0  0  0  0  0  0  0
   32.2017   30.0761   27.2806 Cl  0  0  0  0  0  0  0  0  0  0  0  0
   39.7243   29.4279   23.5137 C   0  0  0  0  0  0  0  0  0  0  0  0
   39.6884   31.8017   24.1370 C   0  0  0  0  0  0  0  0  0  0  0  0
   40.3803   29.8303   22.1772 C   0  0  0  0  0  0  0  0  0  0  0  0
   40.4045   32.1708   22.8269 C   0  0  0  0  0  0  0  0  0  0  0  0
   38.9246   30.5703   23.9937 N   0  0  0  0  0  0  0  0  0  0  0  0
   41.2130   31.0342   22.3658 N   0  0  0  0  0  0  0  0  0  0  0  0
   41.9338   30.8352   23.0595 H   0  0  0  0  0  0  0  0  0  0  0  0
   38.7881   26.3427   28.2474 C   0  0  0  0  0  0  0  0  0  0  0  0
   36.8636   26.0603   26.8128 C   0  0  0  0  0  0  0  0  0  0  0  0
   37.9776   27.6524   28.3601 C   0  0  0  0  0  0  0  0  0  0  0  0
   38.3737   25.7787   26.8907 C   0  0  0  0  0  0  0  0  0  0  0  0
   36.6749   27.3144   27.6732 N   0  0  0  0  0  0  0  0  0  0  0  0
   34.8622   25.4213   28.2596 N   0  0  0  0  0  0  0  0  0  0  0  0
   36.0974   24.9390   27.5657 C   0  0  0  0  0  0  0  0  0  0  0  0
   34.4098   24.6384   28.7316 H   0  0  0  0  0  0  0  0  0  0  0  0
   34.2214   25.8213   27.5741 H   0  0  0  0  0  0  0  0  0  0  0  0
   36.2146   32.0908   23.9188 C   0  0  0  0  0  0  0  0  0  0  0  0
   34.5290   32.7847   22.2729 C   0  0  0  0  0  0  0  0  0  0  0  0
   33.5874   32.5237   21.2862 C   0  0  0  0  0  0  0  0  0  0  0  0
   33.2753   31.1879   21.0049 C   0  0  0  0  0  0  0  0  0  0  0  0
   33.5204   28.7240   21.2795 C   0  0  0  0  0  0  0  0  0  0  0  0
   33.8726   30.1264   21.6497 C   0  0  0  0  0  0  0  0  0  0  0  0
   34.8079   30.3922   22.6305 C   0  0  0  0  0  0  0  0  0  0  0  0
   32.9280   33.6112   20.5044 C   0  0  0  0  0  0  0  0  0  0  0  0
   35.1371   31.7206   22.9326 C   0  0  0  0  0  0  0  0  0  0  0  0
   32.3549   30.9550   20.0814 F   0  0  0  0  0  0  0  0  0  0  0  0
 34 29  1  0  0  0
 16 14  1  0  0  0
 16 13  1  0  0  0
 14 12  1  0  0  0
 36 30  1  0  0  0
 29 30  2  0  0  0
 29 28  1  0  0  0
 30 32  1  0  0  0
 13 11  1  0  0  0
 12 15  1  0  0  0
 28 35  2  0  0  0
 32 31  1  0  0  0
 32 33  2  0  0  0
 11 15  1  0  0  0
 15  2  1  0  0  0
 35 33  1  0  0  0
 35 27  1  0  0  0
 27  7  1  0  0  0
  2  7  1  0  0  0
  2  1  2  0  0  0
  7  8  1  0  0  0
  1  3  1  0  0  0
  8  3  2  0  0  0
  8  6  1  0  0  0
  3  4  1  0  0  0
 24 23  1  0  0  0
 24 19  1  0  0  0
  6  9  2  0  0  0
 19 22  1  0  0  0
 19 21  1  0  0  0
  4 22  1  0  0  0
  4  5  2  0  0  0
  9  5  1  0  0  0
  9 10  1  0  0  0
 22 20  1  0  0  0
 21 18  1  0  0  0
 20 18  1  0  0  0
 23 25  1  0  0  0
 23 26  1  0  0  0
 16 17  1  0  0  0
M  END
> <minimizedAffinity>
-7.88907

$$$$
