2RKE_SAT_A_704


 10  9  0  0  0  0  0  0  0  0999 V2000
    4.7342   -6.0134    9.8937 O   0  0  0  0  0  0  0  0  0  0  0  0
    3.4668   -6.4524    9.2797 S   0  0  0  0  0  0  0  0  0  0  0  0
    3.7540   -7.1744    8.0227 O   0  0  0  0  0  0  0  0  0  0  0  0
    2.7777   -7.3584   10.2035 O   0  0  0  0  0  0  0  0  0  0  0  0
    3.3464   -8.1210   10.3930 H   0  0  0  0  0  0  0  0  0  0  0  0
    2.4815   -5.1378    8.9557 C   0  0  0  0  0  0  0  0  0  0  0  0
    1.1125   -5.5129    8.4201 C   0  0  0  0  0  0  0  0  0  0  0  0
    0.1004   -5.2100    9.0852 O   0  0  0  0  0  0  0  0  0  0  0  0
    1.0342   -6.1509    7.3505 O   0  0  0  0  0  0  0  0  0  0  0  0
    1.8123   -6.3634    6.8737 H   0  0  0  0  0  0  0  0  0  0  0  0
  1  2  2  0  0  0
  2  3  2  0  0  0
  2  4  1  0  0  0
  2  6  1  0  0  0
  6  7  1  0  0  0
  7  8  2  0  0  0
  7  9  1  0  0  0
  4  5  1  0  0  0
  9 10  1  0  0  0
M  END
> <minimizedAffinity>
-5.11495

$$$$
2RKE_SAT_A_704


 10  9  0  0  0  0  0  0  0  0999 V2000
    2.7314   -7.4553   10.0368 O   0  0  0  0  0  0  0  0  0  0  0  0
    3.4488   -6.4446    9.2370 S   0  0  0  0  0  0  0  0  0  0  0  0
    4.6736   -6.0305    9.9526 O   0  0  0  0  0  0  0  0  0  0  0  0
    3.8252   -7.0347    7.9489 O   0  0  0  0  0  0  0  0  0  0  0  0
    4.3873   -7.8105    8.1006 H   0  0  0  0  0  0  0  0  0  0  0  0
    2.4788   -5.1060    8.9701 C   0  0  0  0  0  0  0  0  0  0  0  0
    1.0975   -5.4434    8.4410 C   0  0  0  0  0  0  0  0  0  0  0  0
    0.0962   -5.0147    9.0511 O   0  0  0  0  0  0  0  0  0  0  0  0
    0.9959   -6.1748    7.4351 O   0  0  0  0  0  0  0  0  0  0  0  0
    1.7664   -6.4808    6.9985 H   0  0  0  0  0  0  0  0  0  0  0  0
  1  2  2  0  0  0
  2  3  2  0  0  0
  2  4  1  0  0  0
  2  6  1  0  0  0
  6  7  1  0  0  0
  7  8  2  0  0  0
  7  9  1  0  0  0
  4  5  1  0  0  0
  9 10  1  0  0  0
M  END
> <minimizedAffinity>
-5.03973

$$$$
2RKE_SAT_A_704


 10  9  0  0  0  0  0  0  0  0999 V2000
    2.5337   -7.5787    9.9111 O   0  0  0  0  0  0  0  0  0  0  0  0
    2.8001   -6.6894    8.7647 S   0  0  0  0  0  0  0  0  0  0  0  0
    3.9748   -7.1875    8.0191 O   0  0  0  0  0  0  0  0  0  0  0  0
    1.6340   -6.6939    7.8763 O   0  0  0  0  0  0  0  0  0  0  0  0
    1.4625   -7.5990    7.5724 H   0  0  0  0  0  0  0  0  0  0  0  0
    3.0922   -5.1254    9.2865 C   0  0  0  0  0  0  0  0  0  0  0  0
    4.1304   -5.0288   10.3885 C   0  0  0  0  0  0  0  0  0  0  0  0
    3.9686   -4.1892   11.2982 O   0  0  0  0  0  0  0  0  0  0  0  0
    5.1398   -5.7606   10.3360 O   0  0  0  0  0  0  0  0  0  0  0  0
    5.2326   -6.3816    9.6405 H   0  0  0  0  0  0  0  0  0  0  0  0
  1  2  2  0  0  0
  2  3  2  0  0  0
  2  4  1  0  0  0
  2  6  1  0  0  0
  6  7  1  0  0  0
  7  8  2  0  0  0
  7  9  1  0  0  0
  4  5  1  0  0  0
  9 10  1  0  0  0
M  END
> <minimizedAffinity>
-4.91648

$$$$
2RKE_SAT_A_704


 10  9  0  0  0  0  0  0  0  0999 V2000
    0.4053   -4.5532    9.3764 O   0  0  0  0  0  0  0  0  0  0  0  0
    1.7797   -4.7907    8.8963 S   0  0  0  0  0  0  0  0  0  0  0  0
    1.8824   -4.3843    7.4793 O   0  0  0  0  0  0  0  0  0  0  0  0
    2.7093   -3.9839    9.6926 O   0  0  0  0  0  0  0  0  0  0  0  0
    2.4767   -3.0459    9.6090 H   0  0  0  0  0  0  0  0  0  0  0  0
    2.1851   -6.4087    9.0438 C   0  0  0  0  0  0  0  0  0  0  0  0
    3.6521   -6.7005    8.7899 C   0  0  0  0  0  0  0  0  0  0  0  0
    4.4892   -6.3890    9.6622 O   0  0  0  0  0  0  0  0  0  0  0  0
    3.9898   -7.2052    7.6998 O   0  0  0  0  0  0  0  0  0  0  0  0
    3.3379   -7.4284    7.0649 H   0  0  0  0  0  0  0  0  0  0  0  0
  1  2  2  0  0  0
  2  3  2  0  0  0
  2  4  1  0  0  0
  2  6  1  0  0  0
  6  7  1  0  0  0
  7  8  2  0  0  0
  7  9  1  0  0  0
  4  5  1  0  0  0
  9 10  1  0  0  0
M  END
> <minimizedAffinity>
-4.86081

$$$$
2RKE_SAT_A_704


 10  9  0  0  0  0  0  0  0  0999 V2000
    2.9426   -4.0934   10.5836 O   0  0  0  0  0  0  0  0  0  0  0  0
    1.8112   -4.0755    9.6374 S   0  0  0  0  0  0  0  0  0  0  0  0
    0.5534   -3.8496   10.3795 O   0  0  0  0  0  0  0  0  0  0  0  0
    2.0050   -2.9802    8.6825 O   0  0  0  0  0  0  0  0  0  0  0  0
    2.0609   -2.1391    9.1623 H   0  0  0  0  0  0  0  0  0  0  0  0
    1.7153   -5.5252    8.8047 C   0  0  0  0  0  0  0  0  0  0  0  0
    2.8556   -6.4809    9.1011 C   0  0  0  0  0  0  0  0  0  0  0  0
    3.6660   -6.7542    8.1915 O   0  0  0  0  0  0  0  0  0  0  0  0
    2.9310   -7.0021   10.2324 O   0  0  0  0  0  0  0  0  0  0  0  0
    2.3076   -6.7766   10.8946 H   0  0  0  0  0  0  0  0  0  0  0  0
  1  2  2  0  0  0
  2  3  2  0  0  0
  2  4  1  0  0  0
  2  6  1  0  0  0
  6  7  1  0  0  0
  7  8  2  0  0  0
  7  9  1  0  0  0
  4  5  1  0  0  0
  9 10  1  0  0  0
M  END
> <minimizedAffinity>
-4.65292

$$$$
2RKE_SAT_A_704


 10  9  0  0  0  0  0  0  0  0999 V2000
    0.3031   -5.2781    9.0537 O   0  0  0  0  0  0  0  0  0  0  0  0
    1.5427   -4.4817    9.1245 S   0  0  0  0  0  0  0  0  0  0  0  0
    2.5646   -5.2299    9.8859 O   0  0  0  0  0  0  0  0  0  0  0  0
    2.0376   -4.2474    7.7646 O   0  0  0  0  0  0  0  0  0  0  0  0
    2.2040   -5.0984    7.3300 H   0  0  0  0  0  0  0  0  0  0  0  0
    1.2569   -3.0101    9.8706 C   0  0  0  0  0  0  0  0  0  0  0  0
   -0.0514   -2.9531   10.6366 C   0  0  0  0  0  0  0  0  0  0  0  0
   -0.0324   -3.1046   11.8757 O   0  0  0  0  0  0  0  0  0  0  0  0
   -1.1168   -2.7984   10.0056 O   0  0  0  0  0  0  0  0  0  0  0  0
   -1.0985   -2.6871    9.0755 H   0  0  0  0  0  0  0  0  0  0  0  0
  1  2  2  0  0  0
  2  3  2  0  0  0
  2  4  1  0  0  0
  2  6  1  0  0  0
  6  7  1  0  0  0
  7  8  2  0  0  0
  7  9  1  0  0  0
  4  5  1  0  0  0
  9 10  1  0  0  0
M  END
> <minimizedAffinity>
-4.40677

$$$$
2RKE_SAT_A_704


 10  9  0  0  0  0  0  0  0  0999 V2000
    0.8505   -3.8402   10.5350 O   0  0  0  0  0  0  0  0  0  0  0  0
    0.0174   -2.6400   10.7389 S   0  0  0  0  0  0  0  0  0  0  0  0
    0.7481   -1.4477   10.2610 O   0  0  0  0  0  0  0  0  0  0  0  0
   -1.2208   -2.7819    9.9669 O   0  0  0  0  0  0  0  0  0  0  0  0
   -1.0054   -2.8913    9.0275 H   0  0  0  0  0  0  0  0  0  0  0  0
   -0.3594   -2.4515   12.3595 C   0  0  0  0  0  0  0  0  0  0  0  0
   -1.0637   -1.1463   12.6791 C   0  0  0  0  0  0  0  0  0  0  0  0
   -0.5641   -0.3841   13.5323 O   0  0  0  0  0  0  0  0  0  0  0  0
   -2.1451   -0.8868   12.1129 O   0  0  0  0  0  0  0  0  0  0  0  0
   -2.4946   -1.4790   11.4765 H   0  0  0  0  0  0  0  0  0  0  0  0
  1  2  2  0  0  0
  2  3  2  0  0  0
  2  4  1  0  0  0
  2  6  1  0  0  0
  6  7  1  0  0  0
  7  8  2  0  0  0
  7  9  1  0  0  0
  4  5  1  0  0  0
  9 10  1  0  0  0
M  END
> <minimizedAffinity>
-4.29703

$$$$
2RKE_SAT_A_704


 10  9  0  0  0  0  0  0  0  0999 V2000
    0.6250   -4.5628    9.8608 O   0  0  0  0  0  0  0  0  0  0  0  0
    1.9767   -3.9796    9.7682 S   0  0  0  0  0  0  0  0  0  0  0  0
    2.0087   -2.9846    8.6759 O   0  0  0  0  0  0  0  0  0  0  0  0
    2.2952   -3.3101   11.0329 O   0  0  0  0  0  0  0  0  0  0  0  0
    1.6373   -2.6190   11.2075 H   0  0  0  0  0  0  0  0  0  0  0  0
    3.1147   -5.1715    9.4711 C   0  0  0  0  0  0  0  0  0  0  0  0
    2.5154   -6.5331    9.1736 C   0  0  0  0  0  0  0  0  0  0  0  0
    2.5948   -7.4295   10.0389 O   0  0  0  0  0  0  0  0  0  0  0  0
    1.9961   -6.7359    8.0572 O   0  0  0  0  0  0  0  0  0  0  0  0
    1.9513   -6.0426    7.4284 H   0  0  0  0  0  0  0  0  0  0  0  0
  1  2  2  0  0  0
  2  3  2  0  0  0
  2  4  1  0  0  0
  2  6  1  0  0  0
  6  7  1  0  0  0
  7  8  2  0  0  0
  7  9  1  0  0  0
  4  5  1  0  0  0
  9 10  1  0  0  0
M  END
> <minimizedAffinity>
-4.28219

$$$$
2RKE_SAT_A_704


 10  9  0  0  0  0  0  0  0  0999 V2000
    0.5968   -3.7543   10.2798 O   0  0  0  0  0  0  0  0  0  0  0  0
    1.0936   -2.5633   10.9944 S   0  0  0  0  0  0  0  0  0  0  0  0
    2.5452   -2.7038   11.2335 O   0  0  0  0  0  0  0  0  0  0  0  0
    0.8593   -1.3772   10.1653 O   0  0  0  0  0  0  0  0  0  0  0  0
    1.3170   -1.4805    9.3164 H   0  0  0  0  0  0  0  0  0  0  0  0
    0.3019   -2.3803   12.4585 C   0  0  0  0  0  0  0  0  0  0  0  0
   -1.1818   -2.6914   12.3980 C   0  0  0  0  0  0  0  0  0  0  0  0
   -1.6752   -3.4489   13.2591 O   0  0  0  0  0  0  0  0  0  0  0  0
   -1.8630   -2.2171   11.4663 O   0  0  0  0  0  0  0  0  0  0  0  0
   -1.4638   -1.6512   10.8351 H   0  0  0  0  0  0  0  0  0  0  0  0
  1  2  2  0  0  0
  2  3  2  0  0  0
  2  4  1  0  0  0
  2  6  1  0  0  0
  6  7  1  0  0  0
  7  8  2  0  0  0
  7  9  1  0  0  0
  4  5  1  0  0  0
  9 10  1  0  0  0
M  END
> <minimizedAffinity>
-4.25598

$$$$
2RKE_SAT_A_704


 10  9  0  0  0  0  0  0  0  0999 V2000
   -1.1043   -2.8537   10.6071 O   0  0  0  0  0  0  0  0  0  0  0  0
   -0.1698   -2.4543   11.6763 S   0  0  0  0  0  0  0  0  0  0  0  0
   -0.4016   -1.0378   12.0276 O   0  0  0  0  0  0  0  0  0  0  0  0
   -0.4146   -3.2854   12.8589 O   0  0  0  0  0  0  0  0  0  0  0  0
   -1.3330   -3.1719   13.1494 H   0  0  0  0  0  0  0  0  0  0  0  0
    1.4165   -2.6537   11.1785 C   0  0  0  0  0  0  0  0  0  0  0  0
    1.5615   -3.4310    9.8838 C   0  0  0  0  0  0  0  0  0  0  0  0
    2.0667   -2.8641    8.8928 O   0  0  0  0  0  0  0  0  0  0  0  0
    1.1345   -4.6023    9.8290 O   0  0  0  0  0  0  0  0  0  0  0  0
    0.7605   -5.0006   10.5902 H   0  0  0  0  0  0  0  0  0  0  0  0
  1  2  2  0  0  0
  2  3  2  0  0  0
  2  4  1  0  0  0
  2  6  1  0  0  0
  6  7  1  0  0  0
  7  8  2  0  0  0
  7  9  1  0  0  0
  4  5  1  0  0  0
  9 10  1  0  0  0
M  END
> <minimizedAffinity>
-4.11547

$$$$
