1O2J_656_A_246


 29 31  0  0  0  0  0  0  0  0999 V2000
   44.2638   -2.8952   26.1614 C   0  0  0  0  0  0  0  0  0  0  0  0
   44.5984   -1.5220   26.1509 C   0  0  0  0  0  0  0  0  0  0  0  0
   44.2864   -0.6891   27.2259 C   0  0  0  0  0  0  0  0  0  0  0  0
   43.6476   -1.2452   28.2929 C   0  0  0  0  0  0  0  0  0  0  0  0
   43.3105   -2.5379   28.3549 C   0  0  0  0  0  0  0  0  0  0  0  0
   43.6066   -3.4065   27.2983 C   0  0  0  0  0  0  0  0  0  0  0  0
   43.2501   -0.7297   29.3959 N   0  0  0  0  0  0  0  0  0  0  0  0
   42.7039   -2.8469   29.4852 N   0  0  0  0  0  0  0  0  0  0  0  0
   42.6995   -1.6719   30.0879 C   0  0  0  0  0  0  0  0  0  0  0  0
   43.3463    0.2118   29.6668 H   0  0  0  0  0  0  0  0  0  0  0  0
   44.5918   -3.7085   25.0481 C   0  0  0  0  0  0  0  0  0  0  0  0
   44.7375   -5.0107   25.1796 N   0  0  0  0  0  0  0  0  0  0  0  0
   44.7339   -3.1328   23.8700 N   0  0  0  0  0  0  0  0  0  0  0  0
   44.6295   -5.4313   26.0632 H   0  0  0  0  0  0  0  0  0  0  0  0
   44.9545   -5.5635   24.3944 H   0  0  0  0  0  0  0  0  0  0  0  0
   44.6231   -2.1586   23.7816 H   0  0  0  0  0  0  0  0  0  0  0  0
   44.9509   -3.6774   23.0790 H   0  0  0  0  0  0  0  0  0  0  0  0
   42.1778   -1.4344   31.3620 C   0  0  0  0  0  0  0  0  0  0  0  0
   40.8263   -1.6505   31.6137 C   0  0  0  0  0  0  0  0  0  0  0  0
   40.2997   -1.4309   32.8823 C   0  0  0  0  0  0  0  0  0  0  0  0
   41.1166   -0.9984   33.9022 C   0  0  0  0  0  0  0  0  0  0  0  0
   42.4686   -0.7797   33.6691 C   0  0  0  0  0  0  0  0  0  0  0  0
   42.9986   -0.9918   32.4085 C   0  0  0  0  0  0  0  0  0  0  0  0
   44.3468   -0.7408   32.2143 O   0  0  0  0  0  0  0  0  0  0  0  0
   43.3297   -0.3735   34.6703 O   0  0  0  0  0  0  0  0  0  0  0  0
   43.3595    0.8946   35.2954 C   0  0  0  0  0  0  0  0  0  0  0  0
   44.8020    1.4460   35.1294 C   0  0  0  0  0  0  0  0  0  0  0  0
   45.0607    2.3897   36.2796 C   0  0  0  0  0  0  0  0  0  0  0  0
   45.8093    0.2828   35.2885 C   0  0  0  0  0  0  0  0  0  0  0  0
  1  2  2  0  0  0
  1  6  1  0  0  0
  1 11  1  0  0  0
  2  3  1  0  0  0
  3  4  2  0  0  0
  4  5  1  0  0  0
  4  7  1  0  0  0
  5  6  2  0  0  0
  5  8  1  0  0  0
 11 12  1  0  0  0
 11 13  2  0  0  0
  7  9  1  0  0  0
  8  9  2  0  0  0
  9 18  1  0  0  0
 18 19  2  0  0  0
 18 23  1  0  0  0
 19 20  1  0  0  0
 20 21  2  0  0  0
 21 22  1  0  0  0
 22 23  2  0  0  0
 22 25  1  0  0  0
 23 24  1  0  0  0
 25 26  1  0  0  0
 26 27  1  0  0  0
 27 28  1  0  0  0
 27 29  1  0  0  0
 12 14  1  0  0  0
 12 15  1  0  0  0
 13 16  1  0  0  0
 13 17  1  0  0  0
  7 10  1  0  0  0
M  CHG 1  13   1
M  CHG 1  24  -1
M  END
> <minimizedAffinity>
-8.14843

$$$$
1O2J_656_A_246


 29 31  0  0  0  0  0  0  0  0999 V2000
   44.1315   -3.2287   27.1351 C   0  0  0  0  0  0  0  0  0  0  0  0
   44.2763   -4.3765   27.9472 C   0  0  0  0  0  0  0  0  0  0  0  0
   44.1038   -4.3154   29.3303 C   0  0  0  0  0  0  0  0  0  0  0  0
   43.7871   -3.1081   29.8760 C   0  0  0  0  0  0  0  0  0  0  0  0
   43.6361   -1.9926   29.1537 C   0  0  0  0  0  0  0  0  0  0  0  0
   43.7995   -2.0121   27.7639 C   0  0  0  0  0  0  0  0  0  0  0  0
   43.5719   -2.7661   31.0914 N   0  0  0  0  0  0  0  0  0  0  0  0
   43.3276   -0.9479   29.8983 N   0  0  0  0  0  0  0  0  0  0  0  0
   43.3037   -1.5021   31.0968 C   0  0  0  0  0  0  0  0  0  0  0  0
   43.6048   -3.3579   31.8775 H   0  0  0  0  0  0  0  0  0  0  0  0
   44.3205   -3.3288   25.7342 C   0  0  0  0  0  0  0  0  0  0  0  0
   44.4779   -4.5003   25.1536 N   0  0  0  0  0  0  0  0  0  0  0  0
   44.3205   -2.2203   25.0197 N   0  0  0  0  0  0  0  0  0  0  0  0
   44.4765   -5.3223   25.6954 H   0  0  0  0  0  0  0  0  0  0  0  0
   44.5970   -4.5541   24.1778 H   0  0  0  0  0  0  0  0  0  0  0  0
   44.2022   -1.3491   25.4627 H   0  0  0  0  0  0  0  0  0  0  0  0
   44.4389   -2.2639   24.0433 H   0  0  0  0  0  0  0  0  0  0  0  0
   43.0005   -0.8238   32.2799 C   0  0  0  0  0  0  0  0  0  0  0  0
   41.6830   -0.7455   32.7210 C   0  0  0  0  0  0  0  0  0  0  0  0
   41.3721   -0.0849   33.9050 C   0  0  0  0  0  0  0  0  0  0  0  0
   42.3709    0.4966   34.6525 C   0  0  0  0  0  0  0  0  0  0  0  0
   43.6919    0.4261   34.2282 C   0  0  0  0  0  0  0  0  0  0  0  0
   44.0082   -0.2256   33.0491 C   0  0  0  0  0  0  0  0  0  0  0  0
   45.3348   -0.2536   32.6519 O   0  0  0  0  0  0  0  0  0  0  0  0
   44.7285    0.9704   34.9617 O   0  0  0  0  0  0  0  0  0  0  0  0
   44.8813    0.9291   36.3670 C   0  0  0  0  0  0  0  0  0  0  0  0
   45.3745    2.3340   36.8090 C   0  0  0  0  0  0  0  0  0  0  0  0
   44.3175    3.3330   36.4027 C   0  0  0  0  0  0  0  0  0  0  0  0
   45.4453    2.3821   38.3535 C   0  0  0  0  0  0  0  0  0  0  0  0
  1  2  2  0  0  0
  1  6  1  0  0  0
  1 11  1  0  0  0
  2  3  1  0  0  0
  3  4  2  0  0  0
  4  5  1  0  0  0
  4  7  1  0  0  0
  5  6  2  0  0  0
  5  8  1  0  0  0
 11 12  1  0  0  0
 11 13  2  0  0  0
  7  9  1  0  0  0
  8  9  2  0  0  0
  9 18  1  0  0  0
 18 19  2  0  0  0
 18 23  1  0  0  0
 19 20  1  0  0  0
 20 21  2  0  0  0
 21 22  1  0  0  0
 22 23  2  0  0  0
 22 25  1  0  0  0
 23 24  1  0  0  0
 25 26  1  0  0  0
 26 27  1  0  0  0
 27 28  1  0  0  0
 27 29  1  0  0  0
 12 14  1  0  0  0
 12 15  1  0  0  0
 13 16  1  0  0  0
 13 17  1  0  0  0
  7 10  1  0  0  0
M  CHG 1  13   1
M  CHG 1  24  -1
M  END
> <minimizedAffinity>
-7.75181

$$$$
1O2J_656_A_246


 29 31  0  0  0  0  0  0  0  0999 V2000
   44.3255   -3.0065   26.2524 C   0  0  0  0  0  0  0  0  0  0  0  0
   44.9994   -1.7898   26.5038 C   0  0  0  0  0  0  0  0  0  0  0  0
   44.9683   -1.1875   27.7619 C   0  0  0  0  0  0  0  0  0  0  0  0
   44.2658   -1.8142   28.7465 C   0  0  0  0  0  0  0  0  0  0  0  0
   43.6128   -2.9669   28.5630 C   0  0  0  0  0  0  0  0  0  0  0  0
   43.6204   -3.6034   27.3166 C   0  0  0  0  0  0  0  0  0  0  0  0
   44.0724   -1.4974   29.9723 N   0  0  0  0  0  0  0  0  0  0  0  0
   43.0080   -3.3836   29.6591 N   0  0  0  0  0  0  0  0  0  0  0  0
   43.3365   -2.4194   30.4996 C   0  0  0  0  0  0  0  0  0  0  0  0
   44.4207   -0.6979   30.4291 H   0  0  0  0  0  0  0  0  0  0  0  0
   44.3750   -3.5850   24.9596 C   0  0  0  0  0  0  0  0  0  0  0  0
   44.4646   -2.8317   23.8832 N   0  0  0  0  0  0  0  0  0  0  0  0
   44.3443   -4.8996   24.8582 N   0  0  0  0  0  0  0  0  0  0  0  0
   44.4869   -1.8512   23.9690 H   0  0  0  0  0  0  0  0  0  0  0  0
   44.5093   -3.2490   22.9926 H   0  0  0  0  0  0  0  0  0  0  0  0
   44.2771   -5.4544   25.6687 H   0  0  0  0  0  0  0  0  0  0  0  0
   44.3884   -5.3261   23.9720 H   0  0  0  0  0  0  0  0  0  0  0  0
   42.9611   -2.3757   31.8446 C   0  0  0  0  0  0  0  0  0  0  0  0
   42.7800   -3.5574   32.5570 C   0  0  0  0  0  0  0  0  0  0  0  0
   42.4204   -3.5248   33.9002 C   0  0  0  0  0  0  0  0  0  0  0  0
   42.2426   -2.3176   34.5370 C   0  0  0  0  0  0  0  0  0  0  0  0
   42.4214   -1.1282   33.8417 C   0  0  0  0  0  0  0  0  0  0  0  0
   42.7749   -1.1529   32.5040 C   0  0  0  0  0  0  0  0  0  0  0  0
   42.9218    0.0555   31.8432 O   0  0  0  0  0  0  0  0  0  0  0  0
   42.2816    0.1050   34.4487 O   0  0  0  0  0  0  0  0  0  0  0  0
   41.0885    0.6616   34.9650 C   0  0  0  0  0  0  0  0  0  0  0  0
   41.2651    0.7587   36.5051 C   0  0  0  0  0  0  0  0  0  0  0  0
   41.7136    2.1656   36.8211 C   0  0  0  0  0  0  0  0  0  0  0  0
   39.8868    0.5805   37.1843 C   0  0  0  0  0  0  0  0  0  0  0  0
  1  2  2  0  0  0
  1  6  1  0  0  0
  1 11  1  0  0  0
  2  3  1  0  0  0
  3  4  2  0  0  0
  4  5  1  0  0  0
  4  7  1  0  0  0
  5  6  2  0  0  0
  5  8  1  0  0  0
 11 12  1  0  0  0
 11 13  2  0  0  0
  7  9  1  0  0  0
  8  9  2  0  0  0
  9 18  1  0  0  0
 18 19  2  0  0  0
 18 23  1  0  0  0
 19 20  1  0  0  0
 20 21  2  0  0  0
 21 22  1  0  0  0
 22 23  2  0  0  0
 22 25  1  0  0  0
 23 24  1  0  0  0
 25 26  1  0  0  0
 26 27  1  0  0  0
 27 28  1  0  0  0
 27 29  1  0  0  0
 12 14  1  0  0  0
 12 15  1  0  0  0
 13 16  1  0  0  0
 13 17  1  0  0  0
  7 10  1  0  0  0
M  CHG 1  13   1
M  CHG 1  24  -1
M  END
> <minimizedAffinity>
-7.31985

$$$$
1O2J_656_A_246


 29 31  0  0  0  0  0  0  0  0999 V2000
   44.4449    1.7173   35.2382 C   0  0  0  0  0  0  0  0  0  0  0  0
   45.6677    1.1154   34.8637 C   0  0  0  0  0  0  0  0  0  0  0  0
   45.7231    0.1388   33.8689 C   0  0  0  0  0  0  0  0  0  0  0  0
   44.5549   -0.2166   33.2649 C   0  0  0  0  0  0  0  0  0  0  0  0
   43.3720    0.3226   33.5794 C   0  0  0  0  0  0  0  0  0  0  0  0
   43.2741    1.3057   34.5706 C   0  0  0  0  0  0  0  0  0  0  0  0
   44.3134   -1.0655   32.3369 N   0  0  0  0  0  0  0  0  0  0  0  0
   42.3840   -0.1756   32.8606 N   0  0  0  0  0  0  0  0  0  0  0  0
   43.0425   -1.0361   32.1056 C   0  0  0  0  0  0  0  0  0  0  0  0
   44.9749   -1.6361   31.8829 H   0  0  0  0  0  0  0  0  0  0  0  0
   44.4276    2.7016   36.2576 C   0  0  0  0  0  0  0  0  0  0  0  0
   43.5563    3.6887   36.2317 N   0  0  0  0  0  0  0  0  0  0  0  0
   45.2966    2.5991   37.2444 N   0  0  0  0  0  0  0  0  0  0  0  0
   42.9116    3.7569   35.4909 H   0  0  0  0  0  0  0  0  0  0  0  0
   43.5497    4.3585   36.9532 H   0  0  0  0  0  0  0  0  0  0  0  0
   45.9441    1.8576   37.2551 H   0  0  0  0  0  0  0  0  0  0  0  0
   45.2977    3.2641   37.9704 H   0  0  0  0  0  0  0  0  0  0  0  0
   42.4588   -1.8407   31.1239 C   0  0  0  0  0  0  0  0  0  0  0  0
   41.2950   -2.5503   31.4047 C   0  0  0  0  0  0  0  0  0  0  0  0
   40.6979   -3.3429   30.4301 C   0  0  0  0  0  0  0  0  0  0  0  0
   41.2560   -3.4291   29.1748 C   0  0  0  0  0  0  0  0  0  0  0  0
   42.4163   -2.7257   28.8765 C   0  0  0  0  0  0  0  0  0  0  0  0
   43.0183   -1.9388   29.8425 C   0  0  0  0  0  0  0  0  0  0  0  0
   44.1856   -1.2717   29.5095 O   0  0  0  0  0  0  0  0  0  0  0  0
   42.9938   -2.7608   27.6219 O   0  0  0  0  0  0  0  0  0  0  0  0
   43.8790   -3.7463   27.1270 C   0  0  0  0  0  0  0  0  0  0  0  0
   44.7491   -3.0646   26.0357 C   0  0  0  0  0  0  0  0  0  0  0  0
   44.2480   -3.5425   24.6938 C   0  0  0  0  0  0  0  0  0  0  0  0
   44.5013   -1.5381   26.0721 C   0  0  0  0  0  0  0  0  0  0  0  0
  1  2  2  0  0  0
  1  6  1  0  0  0
  1 11  1  0  0  0
  2  3  1  0  0  0
  3  4  2  0  0  0
  4  5  1  0  0  0
  4  7  1  0  0  0
  5  6  2  0  0  0
  5  8  1  0  0  0
 11 12  1  0  0  0
 11 13  2  0  0  0
  7  9  1  0  0  0
  8  9  2  0  0  0
  9 18  1  0  0  0
 18 19  2  0  0  0
 18 23  1  0  0  0
 19 20  1  0  0  0
 20 21  2  0  0  0
 21 22  1  0  0  0
 22 23  2  0  0  0
 22 25  1  0  0  0
 23 24  1  0  0  0
 25 26  1  0  0  0
 26 27  1  0  0  0
 27 28  1  0  0  0
 27 29  1  0  0  0
 12 14  1  0  0  0
 12 15  1  0  0  0
 13 16  1  0  0  0
 13 17  1  0  0  0
  7 10  1  0  0  0
M  CHG 1  13   1
M  CHG 1  24  -1
M  END
> <minimizedAffinity>
-7.09449

$$$$
1O2J_656_A_246


 29 31  0  0  0  0  0  0  0  0999 V2000
   44.3326   -2.6485   26.4182 C   0  0  0  0  0  0  0  0  0  0  0  0
   44.2753   -4.0039   26.8150 C   0  0  0  0  0  0  0  0  0  0  0  0
   44.1112   -4.3638   28.1529 C   0  0  0  0  0  0  0  0  0  0  0  0
   44.0048   -3.3617   29.0696 C   0  0  0  0  0  0  0  0  0  0  0  0
   44.0502   -2.0643   28.7478 C   0  0  0  0  0  0  0  0  0  0  0  0
   44.2126   -1.6619   27.4173 C   0  0  0  0  0  0  0  0  0  0  0  0
   43.8475   -3.3986   30.3401 N   0  0  0  0  0  0  0  0  0  0  0  0
   43.9233   -1.2792   29.8007 N   0  0  0  0  0  0  0  0  0  0  0  0
   43.8005   -2.1778   30.7606 C   0  0  0  0  0  0  0  0  0  0  0  0
   43.7755   -4.2089   30.8947 H   0  0  0  0  0  0  0  0  0  0  0  0
   44.5064   -2.3219   25.0502 C   0  0  0  0  0  0  0  0  0  0  0  0
   44.3515   -1.0857   24.6236 N   0  0  0  0  0  0  0  0  0  0  0  0
   44.8425   -3.2838   24.2127 N   0  0  0  0  0  0  0  0  0  0  0  0
   44.1005   -0.3745   25.2563 H   0  0  0  0  0  0  0  0  0  0  0  0
   44.4867   -0.8728   23.6720 H   0  0  0  0  0  0  0  0  0  0  0  0
   44.9560   -4.2049   24.5410 H   0  0  0  0  0  0  0  0  0  0  0  0
   44.9799   -3.0806   23.2593 H   0  0  0  0  0  0  0  0  0  0  0  0
   43.6144   -1.8763   32.1120 C   0  0  0  0  0  0  0  0  0  0  0  0
   44.3703   -0.8747   32.7138 C   0  0  0  0  0  0  0  0  0  0  0  0
   44.1828   -0.5569   34.0549 C   0  0  0  0  0  0  0  0  0  0  0  0
   43.2421   -1.2329   34.7984 C   0  0  0  0  0  0  0  0  0  0  0  0
   42.4771   -2.2340   34.2131 C   0  0  0  0  0  0  0  0  0  0  0  0
   42.6613   -2.5587   32.8806 C   0  0  0  0  0  0  0  0  0  0  0  0
   41.8927   -3.5777   32.3426 O   0  0  0  0  0  0  0  0  0  0  0  0
   41.5025   -2.9177   34.9142 O   0  0  0  0  0  0  0  0  0  0  0  0
   41.6814   -3.6561   36.1070 C   0  0  0  0  0  0  0  0  0  0  0  0
   41.4657   -5.1519   35.7487 C   0  0  0  0  0  0  0  0  0  0  0  0
   41.2120   -5.8941   37.0391 C   0  0  0  0  0  0  0  0  0  0  0  0
   40.1740   -5.2894   34.9087 C   0  0  0  0  0  0  0  0  0  0  0  0
  1  2  2  0  0  0
  1  6  1  0  0  0
  1 11  1  0  0  0
  2  3  1  0  0  0
  3  4  2  0  0  0
  4  5  1  0  0  0
  4  7  1  0  0  0
  5  6  2  0  0  0
  5  8  1  0  0  0
 11 12  1  0  0  0
 11 13  2  0  0  0
  7  9  1  0  0  0
  8  9  2  0  0  0
  9 18  1  0  0  0
 18 19  2  0  0  0
 18 23  1  0  0  0
 19 20  1  0  0  0
 20 21  2  0  0  0
 21 22  1  0  0  0
 22 23  2  0  0  0
 22 25  1  0  0  0
 23 24  1  0  0  0
 25 26  1  0  0  0
 26 27  1  0  0  0
 27 28  1  0  0  0
 27 29  1  0  0  0
 12 14  1  0  0  0
 12 15  1  0  0  0
 13 16  1  0  0  0
 13 17  1  0  0  0
  7 10  1  0  0  0
M  CHG 1  13   1
M  CHG 1  24  -1
M  END
> <minimizedAffinity>
-6.64079

$$$$
1O2J_656_A_246


 29 31  0  0  0  0  0  0  0  0999 V2000
   44.2550   -3.0041   27.1148 C   0  0  0  0  0  0  0  0  0  0  0  0
   44.1383   -4.2840   27.7030 C   0  0  0  0  0  0  0  0  0  0  0  0
   43.9286   -4.4383   29.0737 C   0  0  0  0  0  0  0  0  0  0  0  0
   43.8370   -3.3096   29.8310 C   0  0  0  0  0  0  0  0  0  0  0  0
   43.9378   -2.0757   29.3251 C   0  0  0  0  0  0  0  0  0  0  0  0
   44.1471   -1.8783   27.9555 C   0  0  0  0  0  0  0  0  0  0  0  0
   43.6475   -3.1547   31.0881 N   0  0  0  0  0  0  0  0  0  0  0  0
   43.8143   -1.1409   30.2481 N   0  0  0  0  0  0  0  0  0  0  0  0
   43.6353   -1.8844   31.3247 C   0  0  0  0  0  0  0  0  0  0  0  0
   43.5324   -3.8720   31.7525 H   0  0  0  0  0  0  0  0  0  0  0  0
   44.4739   -2.8876   25.7195 C   0  0  0  0  0  0  0  0  0  0  0  0
   44.6326   -3.9565   24.9668 N   0  0  0  0  0  0  0  0  0  0  0  0
   44.5004   -1.6815   25.1865 N   0  0  0  0  0  0  0  0  0  0  0  0
   44.6113   -4.8527   25.3738 H   0  0  0  0  0  0  0  0  0  0  0  0
   44.7727   -3.8594   23.9972 H   0  0  0  0  0  0  0  0  0  0  0  0
   44.3808   -0.8884   25.7573 H   0  0  0  0  0  0  0  0  0  0  0  0
   44.6399   -1.5744   24.2178 H   0  0  0  0  0  0  0  0  0  0  0  0
   43.4276   -1.3821   32.6117 C   0  0  0  0  0  0  0  0  0  0  0  0
   44.5037   -0.9143   33.3600 C   0  0  0  0  0  0  0  0  0  0  0  0
   44.3059   -0.3989   34.6367 C   0  0  0  0  0  0  0  0  0  0  0  0
   43.0380   -0.3460   35.1698 C   0  0  0  0  0  0  0  0  0  0  0  0
   41.9520   -0.8066   34.4358 C   0  0  0  0  0  0  0  0  0  0  0  0
   42.1417   -1.3248   33.1668 C   0  0  0  0  0  0  0  0  0  0  0  0
   41.0347   -1.7928   32.4784 O   0  0  0  0  0  0  0  0  0  0  0  0
   40.6597   -0.7458   34.9206 O   0  0  0  0  0  0  0  0  0  0  0  0
   40.2145   -0.0197   36.0495 C   0  0  0  0  0  0  0  0  0  0  0  0
   40.1795    1.4777   35.6382 C   0  0  0  0  0  0  0  0  0  0  0  0
   38.7444    1.9386   35.7306 C   0  0  0  0  0  0  0  0  0  0  0  0
   40.9686    2.3064   36.6790 C   0  0  0  0  0  0  0  0  0  0  0  0
  1  2  2  0  0  0
  1  6  1  0  0  0
  1 11  1  0  0  0
  2  3  1  0  0  0
  3  4  2  0  0  0
  4  5  1  0  0  0
  4  7  1  0  0  0
  5  6  2  0  0  0
  5  8  1  0  0  0
 11 12  1  0  0  0
 11 13  2  0  0  0
  7  9  1  0  0  0
  8  9  2  0  0  0
  9 18  1  0  0  0
 18 19  2  0  0  0
 18 23  1  0  0  0
 19 20  1  0  0  0
 20 21  2  0  0  0
 21 22  1  0  0  0
 22 23  2  0  0  0
 22 25  1  0  0  0
 23 24  1  0  0  0
 25 26  1  0  0  0
 26 27  1  0  0  0
 27 28  1  0  0  0
 27 29  1  0  0  0
 12 14  1  0  0  0
 12 15  1  0  0  0
 13 16  1  0  0  0
 13 17  1  0  0  0
  7 10  1  0  0  0
M  CHG 1  13   1
M  CHG 1  24  -1
M  END
> <minimizedAffinity>
-6.27785

$$$$
1O2J_656_A_246


 29 31  0  0  0  0  0  0  0  0999 V2000
   44.0472   -2.9940   26.6277 C   0  0  0  0  0  0  0  0  0  0  0  0
   43.6521   -4.2319   27.1837 C   0  0  0  0  0  0  0  0  0  0  0  0
   43.2766   -4.3411   28.5230 C   0  0  0  0  0  0  0  0  0  0  0  0
   43.3007   -3.2097   29.2814 C   0  0  0  0  0  0  0  0  0  0  0  0
   43.6638   -2.0139   28.8050 C   0  0  0  0  0  0  0  0  0  0  0  0
   44.0461   -1.8622   27.4673 C   0  0  0  0  0  0  0  0  0  0  0  0
   43.0100   -3.0183   30.5139 N   0  0  0  0  0  0  0  0  0  0  0  0
   43.6062   -1.0673   29.7223 N   0  0  0  0  0  0  0  0  0  0  0  0
   43.1907   -1.7637   30.7646 C   0  0  0  0  0  0  0  0  0  0  0  0
   42.7047   -3.7020   31.1533 H   0  0  0  0  0  0  0  0  0  0  0  0
   44.4277   -2.9237   25.2644 C   0  0  0  0  0  0  0  0  0  0  0  0
   44.7346   -4.0120   24.5895 N   0  0  0  0  0  0  0  0  0  0  0  0
   44.4536   -1.7418   24.6797 N   0  0  0  0  0  0  0  0  0  0  0  0
   44.7124   -4.8899   25.0346 H   0  0  0  0  0  0  0  0  0  0  0  0
   44.9862   -3.9478   23.6399 H   0  0  0  0  0  0  0  0  0  0  0  0
   44.2225   -0.9337   25.1926 H   0  0  0  0  0  0  0  0  0  0  0  0
   44.7039   -1.6675   23.7305 H   0  0  0  0  0  0  0  0  0  0  0  0
   42.9384   -1.2268   32.0295 C   0  0  0  0  0  0  0  0  0  0  0  0
   43.9771   -1.0770   32.9435 C   0  0  0  0  0  0  0  0  0  0  0  0
   43.7393   -0.5303   34.2002 C   0  0  0  0  0  0  0  0  0  0  0  0
   42.4693   -0.1299   34.5486 C   0  0  0  0  0  0  0  0  0  0  0  0
   41.4211   -0.2700   33.6476 C   0  0  0  0  0  0  0  0  0  0  0  0
   41.6493   -0.8172   32.3973 C   0  0  0  0  0  0  0  0  0  0  0  0
   40.5722   -0.9588   31.5380 O   0  0  0  0  0  0  0  0  0  0  0  0
   40.1372    0.1448   33.9450 O   0  0  0  0  0  0  0  0  0  0  0  0
   39.1592   -0.5832   34.6614 C   0  0  0  0  0  0  0  0  0  0  0  0
   39.7361   -2.0065   34.8938 C   0  0  0  0  0  0  0  0  0  0  0  0
   39.6802   -2.2804   36.3778 C   0  0  0  0  0  0  0  0  0  0  0  0
   38.8041   -3.0450   34.2262 C   0  0  0  0  0  0  0  0  0  0  0  0
  1  2  2  0  0  0
  1  6  1  0  0  0
  1 11  1  0  0  0
  2  3  1  0  0  0
  3  4  2  0  0  0
  4  5  1  0  0  0
  4  7  1  0  0  0
  5  6  2  0  0  0
  5  8  1  0  0  0
 11 12  1  0  0  0
 11 13  2  0  0  0
  7  9  1  0  0  0
  8  9  2  0  0  0
  9 18  1  0  0  0
 18 19  2  0  0  0
 18 23  1  0  0  0
 19 20  1  0  0  0
 20 21  2  0  0  0
 21 22  1  0  0  0
 22 23  2  0  0  0
 22 25  1  0  0  0
 23 24  1  0  0  0
 25 26  1  0  0  0
 26 27  1  0  0  0
 27 28  1  0  0  0
 27 29  1  0  0  0
 12 14  1  0  0  0
 12 15  1  0  0  0
 13 16  1  0  0  0
 13 17  1  0  0  0
  7 10  1  0  0  0
M  CHG 1  13   1
M  CHG 1  24  -1
M  END
> <minimizedAffinity>
-6.26789

$$$$
1O2J_656_A_246


 29 31  0  0  0  0  0  0  0  0999 V2000
   44.3799   -2.6302   26.4520 C   0  0  0  0  0  0  0  0  0  0  0  0
   44.5287   -1.5162   27.3090 C   0  0  0  0  0  0  0  0  0  0  0  0
   44.4087   -1.6423   28.6933 C   0  0  0  0  0  0  0  0  0  0  0  0
   44.1445   -2.8807   29.1956 C   0  0  0  0  0  0  0  0  0  0  0  0
   43.9969   -3.9674   28.4302 C   0  0  0  0  0  0  0  0  0  0  0  0
   44.1108   -3.8833   27.0379 C   0  0  0  0  0  0  0  0  0  0  0  0
   43.9890   -3.2822   30.4018 N   0  0  0  0  0  0  0  0  0  0  0  0
   43.7497   -5.0529   29.1384 N   0  0  0  0  0  0  0  0  0  0  0  0
   43.7587   -4.5530   30.3607 C   0  0  0  0  0  0  0  0  0  0  0  0
   44.0362   -2.7248   31.2119 H   0  0  0  0  0  0  0  0  0  0  0  0
   44.5027   -2.4617   25.0502 C   0  0  0  0  0  0  0  0  0  0  0  0
   44.7365   -3.4904   24.2620 N   0  0  0  0  0  0  0  0  0  0  0  0
   44.3625   -1.2501   24.5487 N   0  0  0  0  0  0  0  0  0  0  0  0
   44.8397   -4.3912   24.6457 H   0  0  0  0  0  0  0  0  0  0  0  0
   44.8081   -3.3587   23.2889 H   0  0  0  0  0  0  0  0  0  0  0  0
   44.1879   -0.4872   25.1460 H   0  0  0  0  0  0  0  0  0  0  0  0
   44.4325   -1.1084   23.5769 H   0  0  0  0  0  0  0  0  0  0  0  0
   43.5632   -5.2990   31.5256 C   0  0  0  0  0  0  0  0  0  0  0  0
   44.0255   -6.6095   31.6006 C   0  0  0  0  0  0  0  0  0  0  0  0
   43.8488   -7.3561   32.7608 C   0  0  0  0  0  0  0  0  0  0  0  0
   43.2143   -6.7999   33.8483 C   0  0  0  0  0  0  0  0  0  0  0  0
   42.7484   -5.4923   33.7916 C   0  0  0  0  0  0  0  0  0  0  0  0
   42.9167   -4.7450   32.6392 C   0  0  0  0  0  0  0  0  0  0  0  0
   42.4180   -3.4530   32.6178 O   0  0  0  0  0  0  0  0  0  0  0  0
   42.1320   -4.8854   34.8690 O   0  0  0  0  0  0  0  0  0  0  0  0
   40.7484   -4.8872   35.1612 C   0  0  0  0  0  0  0  0  0  0  0  0
   40.5543   -5.7739   36.4216 C   0  0  0  0  0  0  0  0  0  0  0  0
   39.3635   -5.2328   37.1763 C   0  0  0  0  0  0  0  0  0  0  0  0
   40.1721   -7.2058   35.9784 C   0  0  0  0  0  0  0  0  0  0  0  0
  1  2  2  0  0  0
  1  6  1  0  0  0
  1 11  1  0  0  0
  2  3  1  0  0  0
  3  4  2  0  0  0
  4  5  1  0  0  0
  4  7  1  0  0  0
  5  6  2  0  0  0
  5  8  1  0  0  0
 11 12  1  0  0  0
 11 13  2  0  0  0
  7  9  1  0  0  0
  8  9  2  0  0  0
  9 18  1  0  0  0
 18 19  2  0  0  0
 18 23  1  0  0  0
 19 20  1  0  0  0
 20 21  2  0  0  0
 21 22  1  0  0  0
 22 23  2  0  0  0
 22 25  1  0  0  0
 23 24  1  0  0  0
 25 26  1  0  0  0
 26 27  1  0  0  0
 27 28  1  0  0  0
 27 29  1  0  0  0
 12 14  1  0  0  0
 12 15  1  0  0  0
 13 16  1  0  0  0
 13 17  1  0  0  0
  7 10  1  0  0  0
M  CHG 1  13   1
M  CHG 1  24  -1
M  END
> <minimizedAffinity>
-6.18034

$$$$
1O2J_656_A_246


 29 31  0  0  0  0  0  0  0  0999 V2000
   42.7146    1.6373   35.4641 C   0  0  0  0  0  0  0  0  0  0  0  0
   41.3570    1.2781   35.3040 C   0  0  0  0  0  0  0  0  0  0  0  0
   40.9779    0.2131   34.4863 C   0  0  0  0  0  0  0  0  0  0  0  0
   41.9636   -0.4750   33.8455 C   0  0  0  0  0  0  0  0  0  0  0  0
   43.2624   -0.1786   33.9640 C   0  0  0  0  0  0  0  0  0  0  0  0
   43.6838    0.8812   34.7750 C   0  0  0  0  0  0  0  0  0  0  0  0
   41.9078   -1.4783   33.0514 N   0  0  0  0  0  0  0  0  0  0  0  0
   44.0298   -0.9833   33.2536 N   0  0  0  0  0  0  0  0  0  0  0  0
   43.1193   -1.7701   32.7096 C   0  0  0  0  0  0  0  0  0  0  0  0
   41.0914   -1.9423   32.7556 H   0  0  0  0  0  0  0  0  0  0  0  0
   43.0604    2.7293   36.2986 C   0  0  0  0  0  0  0  0  0  0  0  0
   42.1615    3.3030   37.0713 N   0  0  0  0  0  0  0  0  0  0  0  0
   44.3102    3.1507   36.2957 N   0  0  0  0  0  0  0  0  0  0  0  0
   41.2311    2.9814   37.0665 H   0  0  0  0  0  0  0  0  0  0  0  0
   42.4200    4.0534   37.6537 H   0  0  0  0  0  0  0  0  0  0  0  0
   44.9750    2.7154   35.7145 H   0  0  0  0  0  0  0  0  0  0  0  0
   44.5781    3.9005   36.8747 H   0  0  0  0  0  0  0  0  0  0  0  0
   43.4012   -2.8405   31.8572 C   0  0  0  0  0  0  0  0  0  0  0  0
   43.2221   -4.1485   32.2974 C   0  0  0  0  0  0  0  0  0  0  0  0
   43.4861   -5.2211   31.4520 C   0  0  0  0  0  0  0  0  0  0  0  0
   43.9262   -4.9943   30.1677 C   0  0  0  0  0  0  0  0  0  0  0  0
   44.1082   -3.6949   29.7111 C   0  0  0  0  0  0  0  0  0  0  0  0
   43.8519   -2.6230   30.5479 C   0  0  0  0  0  0  0  0  0  0  0  0
   44.0673   -1.3449   30.0596 O   0  0  0  0  0  0  0  0  0  0  0  0
   44.5205   -3.4212   28.4211 O   0  0  0  0  0  0  0  0  0  0  0  0
   43.9468   -3.9182   27.2279 C   0  0  0  0  0  0  0  0  0  0  0  0
   44.0405   -2.7809   26.1741 C   0  0  0  0  0  0  0  0  0  0  0  0
   45.1490   -1.8520   26.6085 C   0  0  0  0  0  0  0  0  0  0  0  0
   44.4847   -3.3820   24.8198 C   0  0  0  0  0  0  0  0  0  0  0  0
  1  2  2  0  0  0
  1  6  1  0  0  0
  1 11  1  0  0  0
  2  3  1  0  0  0
  3  4  2  0  0  0
  4  5  1  0  0  0
  4  7  1  0  0  0
  5  6  2  0  0  0
  5  8  1  0  0  0
 11 12  1  0  0  0
 11 13  2  0  0  0
  7  9  1  0  0  0
  8  9  2  0  0  0
  9 18  1  0  0  0
 18 19  2  0  0  0
 18 23  1  0  0  0
 19 20  1  0  0  0
 20 21  2  0  0  0
 21 22  1  0  0  0
 22 23  2  0  0  0
 22 25  1  0  0  0
 23 24  1  0  0  0
 25 26  1  0  0  0
 26 27  1  0  0  0
 27 28  1  0  0  0
 27 29  1  0  0  0
 12 14  1  0  0  0
 12 15  1  0  0  0
 13 16  1  0  0  0
 13 17  1  0  0  0
  7 10  1  0  0  0
M  CHG 1  13   1
M  CHG 1  24  -1
M  END
> <minimizedAffinity>
-6.10678

$$$$
1O2J_656_A_246


 29 31  0  0  0  0  0  0  0  0999 V2000
   43.7619    1.7926   35.2351 C   0  0  0  0  0  0  0  0  0  0  0  0
   42.4080    1.4088   35.3667 C   0  0  0  0  0  0  0  0  0  0  0  0
   41.8645    0.3824   34.5937 C   0  0  0  0  0  0  0  0  0  0  0  0
   42.6855   -0.2433   33.7048 C   0  0  0  0  0  0  0  0  0  0  0  0
   43.9734    0.0787   33.5423 C   0  0  0  0  0  0  0  0  0  0  0  0
   44.5566    1.1014   34.2989 C   0  0  0  0  0  0  0  0  0  0  0  0
   42.4614   -1.2014   32.8849 N   0  0  0  0  0  0  0  0  0  0  0  0
   44.5674   -0.6650   32.6285 N   0  0  0  0  0  0  0  0  0  0  0  0
   43.5660   -1.4427   32.2592 C   0  0  0  0  0  0  0  0  0  0  0  0
   41.6045   -1.6684   32.7551 H   0  0  0  0  0  0  0  0  0  0  0  0
   44.2766    2.8443   36.0336 C   0  0  0  0  0  0  0  0  0  0  0  0
   43.5239    3.8718   36.3682 N   0  0  0  0  0  0  0  0  0  0  0  0
   45.5259    2.7641   36.4484 N   0  0  0  0  0  0  0  0  0  0  0  0
   42.5924    3.9227   36.0537 H   0  0  0  0  0  0  0  0  0  0  0  0
   43.8928    4.5890   36.9329 H   0  0  0  0  0  0  0  0  0  0  0  0
   46.0808    1.9920   36.1931 H   0  0  0  0  0  0  0  0  0  0  0  0
   45.9036    3.4764   37.0134 H   0  0  0  0  0  0  0  0  0  0  0  0
   43.6580   -2.4558   31.3017 C   0  0  0  0  0  0  0  0  0  0  0  0
   43.9795   -2.1434   29.9843 C   0  0  0  0  0  0  0  0  0  0  0  0
   44.0878   -3.1461   29.0263 C   0  0  0  0  0  0  0  0  0  0  0  0
   43.8788   -4.4604   29.3777 C   0  0  0  0  0  0  0  0  0  0  0  0
   43.5592   -4.7904   30.6888 C   0  0  0  0  0  0  0  0  0  0  0  0
   43.4453   -3.7978   31.6462 C   0  0  0  0  0  0  0  0  0  0  0  0
   43.1038   -4.1685   32.9363 O   0  0  0  0  0  0  0  0  0  0  0  0
   43.3695   -6.0986   31.0910 O   0  0  0  0  0  0  0  0  0  0  0  0
   43.8545   -7.2593   30.4451 C   0  0  0  0  0  0  0  0  0  0  0  0
   44.5116   -8.1439   31.5398 C   0  0  0  0  0  0  0  0  0  0  0  0
   45.9930   -7.8511   31.5289 C   0  0  0  0  0  0  0  0  0  0  0  0
   43.9925   -7.6998   32.9276 C   0  0  0  0  0  0  0  0  0  0  0  0
  1  2  2  0  0  0
  1  6  1  0  0  0
  1 11  1  0  0  0
  2  3  1  0  0  0
  3  4  2  0  0  0
  4  5  1  0  0  0
  4  7  1  0  0  0
  5  6  2  0  0  0
  5  8  1  0  0  0
 11 12  1  0  0  0
 11 13  2  0  0  0
  7  9  1  0  0  0
  8  9  2  0  0  0
  9 18  1  0  0  0
 18 19  2  0  0  0
 18 23  1  0  0  0
 19 20  1  0  0  0
 20 21  2  0  0  0
 21 22  1  0  0  0
 22 23  2  0  0  0
 22 25  1  0  0  0
 23 24  1  0  0  0
 25 26  1  0  0  0
 26 27  1  0  0  0
 27 28  1  0  0  0
 27 29  1  0  0  0
 12 14  1  0  0  0
 12 15  1  0  0  0
 13 16  1  0  0  0
 13 17  1  0  0  0
  7 10  1  0  0  0
M  CHG 1  13   1
M  CHG 1  24  -1
M  END
> <minimizedAffinity>
-6.00173

$$$$
