1X8J_AOI_A_400


 22 25  0  0  0  0  0  0  0  0999 V2000
   18.2618   -8.1246   40.6911 C   0  0  0  0  0  0  0  0  0  0  0  0
   16.7607   -7.8492   40.9447 C   0  0  0  0  0  0  0  0  0  0  0  0
   16.1760   -8.8405   41.9772 C   0  0  0  0  0  0  0  0  0  0  0  0
   16.1015  -10.1300   41.3247 O   0  0  0  0  0  0  0  0  0  0  0  0
   16.9925   -8.9180   43.2427 C   0  0  0  0  0  0  0  0  0  0  0  0
   18.4995   -9.1942   42.9829 C   0  0  0  0  0  0  0  0  0  0  0  0
   19.3217   -9.2626   44.3069 C   0  0  0  0  0  0  0  0  0  0  0  0
   20.7831   -9.5403   44.0278 C   0  0  0  0  0  0  0  0  0  0  0  0
   21.4375   -8.5012   43.0838 C   0  0  0  0  0  0  0  0  0  0  0  0
   20.6365   -8.4443   41.7397 C   0  0  0  0  0  0  0  0  0  0  0  0
   19.1116   -8.0993   42.0070 C   0  0  0  0  0  0  0  0  0  0  0  0
   21.3166   -7.4090   40.7798 C   0  0  0  0  0  0  0  0  0  0  0  0
   22.8308   -7.7224   40.5078 C   0  0  0  0  0  0  0  0  0  0  0  0
   23.6083   -7.8017   41.8286 C   0  0  0  0  0  0  0  0  0  0  0  0
   22.9072   -8.8341   42.7805 C   0  0  0  0  0  0  0  0  0  0  0  0
   23.9440   -8.9653   43.9205 C   0  0  0  0  0  0  0  0  0  0  0  0
   25.2354   -9.1424   43.1180 C   0  0  0  0  0  0  0  0  0  0  0  0
   25.0035   -8.4267   41.7790 C   0  0  0  0  0  0  0  0  0  0  0  0
   25.7933   -8.3858   40.8832 O   0  0  0  0  0  0  0  0  0  0  0  0
   23.7859   -6.3703   42.4554 C   0  0  0  0  0  0  0  0  0  0  0  0
   18.9944   -6.6547   42.6190 C   0  0  0  0  0  0  0  0  0  0  0  0
   16.9908  -10.4075   41.0545 H   0  0  0  0  0  0  0  0  0  0  0  0
 21 11  1  0  0  0
 20 14  1  0  0  0
  2  1  1  0  0  0
  2  3  1  0  0  0
 12 13  1  0  0  0
 12 10  1  0  0  0
  1 11  1  0  0  0
 13 14  1  0  0  0
 11 10  1  0  0  0
 11  6  1  0  0  0
 14 18  1  0  0  0
 14 15  1  0  0  0
  3  5  1  0  0  0
  3  4  1  0  0  0
 10  9  1  0  0  0
 19 18  2  0  0  0
 18 17  1  0  0  0
  5  6  1  0  0  0
  9 15  1  0  0  0
  9  8  1  0  0  0
  6  7  1  0  0  0
 15 16  1  0  0  0
  7  8  1  0  0  0
 17 16  1  0  0  0
  4 22  1  0  0  0
M  END
> <minimizedAffinity>
-10.17332

$$$$
1X8J_AOI_A_400


 22 25  0  0  0  0  0  0  0  0999 V2000
   24.0001   -7.2257   42.8588 C   0  0  0  0  0  0  0  0  0  0  0  0
   25.4146   -6.9776   42.2833 C   0  0  0  0  0  0  0  0  0  0  0  0
   26.0796   -8.3017   41.8413 C   0  0  0  0  0  0  0  0  0  0  0  0
   26.4093   -9.0285   43.0484 O   0  0  0  0  0  0  0  0  0  0  0  0
   25.2001   -9.1249   40.9341 C   0  0  0  0  0  0  0  0  0  0  0  0
   23.7804   -9.3709   41.5162 C   0  0  0  0  0  0  0  0  0  0  0  0
   22.8897  -10.2183   40.5559 C   0  0  0  0  0  0  0  0  0  0  0  0
   21.5165  -10.4507   41.1483 C   0  0  0  0  0  0  0  0  0  0  0  0
   20.7689   -9.1409   41.5011 C   0  0  0  0  0  0  0  0  0  0  0  0
   21.6420   -8.2946   42.4874 C   0  0  0  0  0  0  0  0  0  0  0  0
   23.0675   -7.9929   41.8608 C   0  0  0  0  0  0  0  0  0  0  0  0
   20.8709   -6.9820   42.8593 C   0  0  0  0  0  0  0  0  0  0  0  0
   19.4510   -7.2534   43.4720 C   0  0  0  0  0  0  0  0  0  0  0  0
   18.6064   -8.1037   42.5135 C   0  0  0  0  0  0  0  0  0  0  0  0
   19.3983   -9.4074   42.1438 C   0  0  0  0  0  0  0  0  0  0  0  0
   18.3195  -10.2312   41.4023 C   0  0  0  0  0  0  0  0  0  0  0  0
   17.1338  -10.0825   42.3590 C   0  0  0  0  0  0  0  0  0  0  0  0
   17.3390   -8.7435   43.0828 C   0  0  0  0  0  0  0  0  0  0  0  0
   16.6178   -8.3111   43.9319 O   0  0  0  0  0  0  0  0  0  0  0  0
   18.1538   -7.2545   41.2696 C   0  0  0  0  0  0  0  0  0  0  0  0
   22.9040   -7.0948   40.5795 C   0  0  0  0  0  0  0  0  0  0  0  0
   25.5984   -9.2074   43.5497 H   0  0  0  0  0  0  0  0  0  0  0  0
 21 11  1  0  0  0
 20 14  1  0  0  0
  2  1  1  0  0  0
  2  3  1  0  0  0
 12 13  1  0  0  0
 12 10  1  0  0  0
  1 11  1  0  0  0
 13 14  1  0  0  0
 11 10  1  0  0  0
 11  6  1  0  0  0
 14 18  1  0  0  0
 14 15  1  0  0  0
  3  5  1  0  0  0
  3  4  1  0  0  0
 10  9  1  0  0  0
 19 18  2  0  0  0
 18 17  1  0  0  0
  5  6  1  0  0  0
  9 15  1  0  0  0
  9  8  1  0  0  0
  6  7  1  0  0  0
 15 16  1  0  0  0
  7  8  1  0  0  0
 17 16  1  0  0  0
  4 22  1  0  0  0
M  END
> <minimizedAffinity>
-9.95442

$$$$
1X8J_AOI_A_400


 22 25  0  0  0  0  0  0  0  0999 V2000
   23.9548   -7.9370   41.0459 C   0  0  0  0  0  0  0  0  0  0  0  0
   25.4344   -8.3578   40.8807 C   0  0  0  0  0  0  0  0  0  0  0  0
   26.1262   -8.5236   42.2536 C   0  0  0  0  0  0  0  0  0  0  0  0
   26.2892   -7.1953   42.8040 O   0  0  0  0  0  0  0  0  0  0  0  0
   25.3530   -9.4115   43.1959 C   0  0  0  0  0  0  0  0  0  0  0  0
   23.8674   -8.9851   43.3582 C   0  0  0  0  0  0  0  0  0  0  0  0
   23.0893   -9.9232   44.3320 C   0  0  0  0  0  0  0  0  0  0  0  0
   21.6488   -9.4829   44.4792 C   0  0  0  0  0  0  0  0  0  0  0  0
   20.8861   -9.4131   43.1330 C   0  0  0  0  0  0  0  0  0  0  0  0
   21.6434   -8.4515   42.1567 C   0  0  0  0  0  0  0  0  0  0  0  0
   23.1413   -8.9286   41.9456 C   0  0  0  0  0  0  0  0  0  0  0  0
   20.8550   -8.3663   40.8051 C   0  0  0  0  0  0  0  0  0  0  0  0
   19.3650   -7.9065   40.9882 C   0  0  0  0  0  0  0  0  0  0  0  0
   18.6323   -8.8365   41.9646 C   0  0  0  0  0  0  0  0  0  0  0  0
   19.4412   -8.9182   43.3071 C   0  0  0  0  0  0  0  0  0  0  0  0
   18.4496   -9.6684   44.2268 C   0  0  0  0  0  0  0  0  0  0  0  0
   17.1562   -8.8995   43.9457 C   0  0  0  0  0  0  0  0  0  0  0  0
   17.2925   -8.3488   42.5184 C   0  0  0  0  0  0  0  0  0  0  0  0
   16.4783   -7.6662   41.9714 O   0  0  0  0  0  0  0  0  0  0  0  0
   18.3542  -10.2336   41.2981 C   0  0  0  0  0  0  0  0  0  0  0  0
   23.1554  -10.3326   41.2360 C   0  0  0  0  0  0  0  0  0  0  0  0
   25.4189   -6.7806   42.9110 H   0  0  0  0  0  0  0  0  0  0  0  0
 21 11  1  0  0  0
 20 14  1  0  0  0
  2  1  1  0  0  0
  2  3  1  0  0  0
 12 13  1  0  0  0
 12 10  1  0  0  0
  1 11  1  0  0  0
 13 14  1  0  0  0
 11 10  1  0  0  0
 11  6  1  0  0  0
 14 18  1  0  0  0
 14 15  1  0  0  0
  3  5  1  0  0  0
  3  4  1  0  0  0
 10  9  1  0  0  0
 19 18  2  0  0  0
 18 17  1  0  0  0
  5  6  1  0  0  0
  9 15  1  0  0  0
  9  8  1  0  0  0
  6  7  1  0  0  0
 15 16  1  0  0  0
  7  8  1  0  0  0
 17 16  1  0  0  0
  4 22  1  0  0  0
M  END
> <minimizedAffinity>
-9.66741

$$$$
1X8J_AOI_A_400


 22 25  0  0  0  0  0  0  0  0999 V2000
   19.2901   -9.5927   44.0812 C   0  0  0  0  0  0  0  0  0  0  0  0
   17.8636  -10.0899   43.7476 C   0  0  0  0  0  0  0  0  0  0  0  0
   17.0567   -9.0098   42.9905 C   0  0  0  0  0  0  0  0  0  0  0  0
   16.7558   -7.9651   43.9456 O   0  0  0  0  0  0  0  0  0  0  0  0
   17.7931   -8.4583   41.7956 C   0  0  0  0  0  0  0  0  0  0  0  0
   19.2255   -7.9606   42.1356 C   0  0  0  0  0  0  0  0  0  0  0  0
   19.9670   -7.4020   40.8819 C   0  0  0  0  0  0  0  0  0  0  0  0
   21.3551   -6.9169   41.2402 C   0  0  0  0  0  0  0  0  0  0  0  0
   22.2363   -8.0062   41.9004 C   0  0  0  0  0  0  0  0  0  0  0  0
   21.5141   -8.5547   43.1767 C   0  0  0  0  0  0  0  0  0  0  0  0
   20.0774   -9.1193   42.8120 C   0  0  0  0  0  0  0  0  0  0  0  0
   22.4202   -9.6394   43.8536 C   0  0  0  0  0  0  0  0  0  0  0  0
   23.8529   -9.1082   44.2148 C   0  0  0  0  0  0  0  0  0  0  0  0
   24.5485   -8.5489   42.9664 C   0  0  0  0  0  0  0  0  0  0  0  0
   23.6227   -7.4732   42.2962 C   0  0  0  0  0  0  0  0  0  0  0  0
   24.5692   -6.8580   41.2390 C   0  0  0  0  0  0  0  0  0  0  0  0
   25.8305   -6.6325   42.0765 C   0  0  0  0  0  0  0  0  0  0  0  0
   25.7949   -7.6907   43.1892 C   0  0  0  0  0  0  0  0  0  0  0  0
   26.6111   -7.7951   44.0558 O   0  0  0  0  0  0  0  0  0  0  0  0
   24.9793   -9.7139   42.0017 C   0  0  0  0  0  0  0  0  0  0  0  0
   20.2225  -10.3593   41.8547 C   0  0  0  0  0  0  0  0  0  0  0  0
   17.5831   -7.5921   44.2881 H   0  0  0  0  0  0  0  0  0  0  0  0
 21 11  1  0  0  0
 20 14  1  0  0  0
  2  1  1  0  0  0
  2  3  1  0  0  0
 12 13  1  0  0  0
 12 10  1  0  0  0
  1 11  1  0  0  0
 13 14  1  0  0  0
 11 10  1  0  0  0
 11  6  1  0  0  0
 14 18  1  0  0  0
 14 15  1  0  0  0
  3  5  1  0  0  0
  3  4  1  0  0  0
 10  9  1  0  0  0
 19 18  2  0  0  0
 18 17  1  0  0  0
  5  6  1  0  0  0
  9 15  1  0  0  0
  9  8  1  0  0  0
  6  7  1  0  0  0
 15 16  1  0  0  0
  7  8  1  0  0  0
 17 16  1  0  0  0
  4 22  1  0  0  0
M  END
> <minimizedAffinity>
-9.52471

$$$$
1X8J_AOI_A_400


 22 25  0  0  0  0  0  0  0  0999 V2000
   23.1775   -8.8840   43.5317 C   0  0  0  0  0  0  0  0  0  0  0  0
   24.7066   -8.7127   43.6924 C   0  0  0  0  0  0  0  0  0  0  0  0
   25.4408   -8.9503   42.3526 C   0  0  0  0  0  0  0  0  0  0  0  0
   25.3614  -10.3686   42.0768 O   0  0  0  0  0  0  0  0  0  0  0  0
   24.8641   -8.1426   41.2171 C   0  0  0  0  0  0  0  0  0  0  0  0
   23.3280   -8.3176   41.0599 C   0  0  0  0  0  0  0  0  0  0  0  0
   22.7565   -7.4669   39.8838 C   0  0  0  0  0  0  0  0  0  0  0  0
   21.2617   -7.6605   39.7464 C   0  0  0  0  0  0  0  0  0  0  0  0
   20.4763   -7.3228   41.0379 C   0  0  0  0  0  0  0  0  0  0  0  0
   21.0230   -8.1919   42.2200 C   0  0  0  0  0  0  0  0  0  0  0  0
   22.5799   -7.9606   42.4159 C   0  0  0  0  0  0  0  0  0  0  0  0
   20.2093   -7.8634   43.5183 C   0  0  0  0  0  0  0  0  0  0  0  0
   18.6629   -8.0739   43.3469 C   0  0  0  0  0  0  0  0  0  0  0  0
   18.1345   -7.2397   42.1722 C   0  0  0  0  0  0  0  0  0  0  0  0
   18.9675   -7.5735   40.8845 C   0  0  0  0  0  0  0  0  0  0  0  0
   18.1501   -6.8545   39.7859 C   0  0  0  0  0  0  0  0  0  0  0  0
   16.7308   -7.3061   40.1392 C   0  0  0  0  0  0  0  0  0  0  0  0
   16.7368   -7.5778   41.6509 C   0  0  0  0  0  0  0  0  0  0  0  0
   15.7998   -7.9799   42.2741 O   0  0  0  0  0  0  0  0  0  0  0  0
   18.1118   -5.7113   42.5422 C   0  0  0  0  0  0  0  0  0  0  0  0
   22.8447   -6.4697   42.8426 C   0  0  0  0  0  0  0  0  0  0  0  0
   24.4307  -10.6324   42.0047 H   0  0  0  0  0  0  0  0  0  0  0  0
 21 11  1  0  0  0
 20 14  1  0  0  0
  2  1  1  0  0  0
  2  3  1  0  0  0
 12 13  1  0  0  0
 12 10  1  0  0  0
  1 11  1  0  0  0
 13 14  1  0  0  0
 11 10  1  0  0  0
 11  6  1  0  0  0
 14 18  1  0  0  0
 14 15  1  0  0  0
  3  5  1  0  0  0
  3  4  1  0  0  0
 10  9  1  0  0  0
 19 18  2  0  0  0
 18 17  1  0  0  0
  5  6  1  0  0  0
  9 15  1  0  0  0
  9  8  1  0  0  0
  6  7  1  0  0  0
 15 16  1  0  0  0
  7  8  1  0  0  0
 17 16  1  0  0  0
  4 22  1  0  0  0
M  END
> <minimizedAffinity>
-9.45393

$$$$
1X8J_AOI_A_400


 22 25  0  0  0  0  0  0  0  0999 V2000
   17.2218  -10.2278   42.5710 C   0  0  0  0  0  0  0  0  0  0  0  0
   15.7026   -9.9916   42.3985 C   0  0  0  0  0  0  0  0  0  0  0  0
   15.2312   -8.7621   43.2090 C   0  0  0  0  0  0  0  0  0  0  0  0
   15.2835   -9.1358   44.6060 O   0  0  0  0  0  0  0  0  0  0  0  0
   16.0621   -7.5319   42.9438 C   0  0  0  0  0  0  0  0  0  0  0  0
   17.5872   -7.7741   43.1179 C   0  0  0  0  0  0  0  0  0  0  0  0
   18.4234   -6.4887   42.8314 C   0  0  0  0  0  0  0  0  0  0  0  0
   19.9031   -6.7481   43.0153 C   0  0  0  0  0  0  0  0  0  0  0  0
   20.4396   -7.9027   42.1332 C   0  0  0  0  0  0  0  0  0  0  0  0
   19.6256   -9.2061   42.4330 C   0  0  0  0  0  0  0  0  0  0  0  0
   18.0757   -8.9701   42.1922 C   0  0  0  0  0  0  0  0  0  0  0  0
   20.1879  -10.3763   41.5554 C   0  0  0  0  0  0  0  0  0  0  0  0
   21.7239  -10.6232   41.7674 C   0  0  0  0  0  0  0  0  0  0  0  0
   22.5166   -9.3373   41.4966 C   0  0  0  0  0  0  0  0  0  0  0  0
   21.9330   -8.1749   42.3751 C   0  0  0  0  0  0  0  0  0  0  0  0
   22.9876   -7.0629   42.1664 C   0  0  0  0  0  0  0  0  0  0  0  0
   24.2834   -7.8501   42.3768 C   0  0  0  0  0  0  0  0  0  0  0  0
   23.9680   -9.2995   41.9780 C   0  0  0  0  0  0  0  0  0  0  0  0
   24.7418  -10.2076   42.0446 O   0  0  0  0  0  0  0  0  0  0  0  0
   22.5521   -9.0206   39.9565 C   0  0  0  0  0  0  0  0  0  0  0  0
   17.8166   -8.6620   40.6714 C   0  0  0  0  0  0  0  0  0  0  0  0
   16.1942   -9.3699   44.8442 H   0  0  0  0  0  0  0  0  0  0  0  0
 21 11  1  0  0  0
 20 14  1  0  0  0
  2  1  1  0  0  0
  2  3  1  0  0  0
 12 13  1  0  0  0
 12 10  1  0  0  0
  1 11  1  0  0  0
 13 14  1  0  0  0
 11 10  1  0  0  0
 11  6  1  0  0  0
 14 18  1  0  0  0
 14 15  1  0  0  0
  3  5  1  0  0  0
  3  4  1  0  0  0
 10  9  1  0  0  0
 19 18  2  0  0  0
 18 17  1  0  0  0
  5  6  1  0  0  0
  9 15  1  0  0  0
  9  8  1  0  0  0
  6  7  1  0  0  0
 15 16  1  0  0  0
  7  8  1  0  0  0
 17 16  1  0  0  0
  4 22  1  0  0  0
M  END
> <minimizedAffinity>
-9.19113

$$$$
1X8J_AOI_A_400


 22 25  0  0  0  0  0  0  0  0999 V2000
   23.1374   -6.9091   41.3158 C   0  0  0  0  0  0  0  0  0  0  0  0
   24.6039   -7.2340   40.9452 C   0  0  0  0  0  0  0  0  0  0  0  0
   25.3492   -7.8894   42.1309 C   0  0  0  0  0  0  0  0  0  0  0  0
   25.5502   -6.8551   43.1228 O   0  0  0  0  0  0  0  0  0  0  0  0
   24.6047   -9.0642   42.7137 C   0  0  0  0  0  0  0  0  0  0  0  0
   23.1322   -8.7331   43.0838 C   0  0  0  0  0  0  0  0  0  0  0  0
   22.3835   -9.9663   43.6776 C   0  0  0  0  0  0  0  0  0  0  0  0
   20.9555   -9.6164   44.0370 C   0  0  0  0  0  0  0  0  0  0  0  0
   20.1393   -9.0605   42.8438 C   0  0  0  0  0  0  0  0  0  0  0  0
   20.8674   -7.8047   42.2572 C   0  0  0  0  0  0  0  0  0  0  0  0
   22.3497   -8.1650   41.8226 C   0  0  0  0  0  0  0  0  0  0  0  0
   20.0254   -7.2326   41.0658 C   0  0  0  0  0  0  0  0  0  0  0  0
   18.5497   -6.8780   41.4677 C   0  0  0  0  0  0  0  0  0  0  0  0
   17.8466   -8.1044   42.0649 C   0  0  0  0  0  0  0  0  0  0  0  0
   18.7087   -8.6699   43.2483 C   0  0  0  0  0  0  0  0  0  0  0  0
   17.7466   -9.7092   43.8699 C   0  0  0  0  0  0  0  0  0  0  0  0
   16.4520   -8.8960   43.9455 C   0  0  0  0  0  0  0  0  0  0  0  0
   16.5364   -7.8594   42.8153 C   0  0  0  0  0  0  0  0  0  0  0  0
   15.7087   -7.0270   42.5918 O   0  0  0  0  0  0  0  0  0  0  0  0
   17.5250   -9.1605   40.9448 C   0  0  0  0  0  0  0  0  0  0  0  0
   22.3181   -9.2105   40.6474 C   0  0  0  0  0  0  0  0  0  0  0  0
   24.6900   -6.5121   43.4112 H   0  0  0  0  0  0  0  0  0  0  0  0
 21 11  1  0  0  0
 20 14  1  0  0  0
  2  1  1  0  0  0
  2  3  1  0  0  0
 12 13  1  0  0  0
 12 10  1  0  0  0
  1 11  1  0  0  0
 13 14  1  0  0  0
 11 10  1  0  0  0
 11  6  1  0  0  0
 14 18  1  0  0  0
 14 15  1  0  0  0
  3  5  1  0  0  0
  3  4  1  0  0  0
 10  9  1  0  0  0
 19 18  2  0  0  0
 18 17  1  0  0  0
  5  6  1  0  0  0
  9 15  1  0  0  0
  9  8  1  0  0  0
  6  7  1  0  0  0
 15 16  1  0  0  0
  7  8  1  0  0  0
 17 16  1  0  0  0
  4 22  1  0  0  0
M  END
> <minimizedAffinity>
-9.18493

$$$$
1X8J_AOI_A_400


 22 25  0  0  0  0  0  0  0  0999 V2000
   21.5539  -10.0236   43.1405 C   0  0  0  0  0  0  0  0  0  0  0  0
   22.6275   -9.9792   44.2535 C   0  0  0  0  0  0  0  0  0  0  0  0
   23.9117   -9.2699   43.7651 C   0  0  0  0  0  0  0  0  0  0  0  0
   24.5486  -10.1607   42.8191 O   0  0  0  0  0  0  0  0  0  0  0  0
   23.6373   -7.9234   43.1439 C   0  0  0  0  0  0  0  0  0  0  0  0
   22.5580   -7.9731   42.0270 C   0  0  0  0  0  0  0  0  0  0  0  0
   22.2886   -6.5673   41.4065 C   0  0  0  0  0  0  0  0  0  0  0  0
   21.2408   -6.6435   40.3170 C   0  0  0  0  0  0  0  0  0  0  0  0
   19.8971   -7.2462   40.7967 C   0  0  0  0  0  0  0  0  0  0  0  0
   20.1516   -8.6701   41.3962 C   0  0  0  0  0  0  0  0  0  0  0  0
   21.2071   -8.6030   42.5783 C   0  0  0  0  0  0  0  0  0  0  0  0
   18.7860   -9.2846   41.8582 C   0  0  0  0  0  0  0  0  0  0  0  0
   17.7195   -9.3519   40.7080 C   0  0  0  0  0  0  0  0  0  0  0  0
   17.4904   -7.9589   40.1061 C   0  0  0  0  0  0  0  0  0  0  0  0
   18.8686   -7.3551   39.6596 C   0  0  0  0  0  0  0  0  0  0  0  0
   18.4222   -6.1030   38.8690 C   0  0  0  0  0  0  0  0  0  0  0  0
   17.3179   -6.6947   37.9895 C   0  0  0  0  0  0  0  0  0  0  0  0
   16.7514   -7.8911   38.7685 C   0  0  0  0  0  0  0  0  0  0  0  0
   15.8888   -8.6159   38.3704 O   0  0  0  0  0  0  0  0  0  0  0  0
   16.6851   -7.0483   41.1040 C   0  0  0  0  0  0  0  0  0  0  0  0
   20.6200   -7.7540   43.7655 C   0  0  0  0  0  0  0  0  0  0  0  0
   23.9483  -10.3250   42.0751 H   0  0  0  0  0  0  0  0  0  0  0  0
 21 11  1  0  0  0
 20 14  1  0  0  0
  2  1  1  0  0  0
  2  3  1  0  0  0
 12 13  1  0  0  0
 12 10  1  0  0  0
  1 11  1  0  0  0
 13 14  1  0  0  0
 11 10  1  0  0  0
 11  6  1  0  0  0
 14 18  1  0  0  0
 14 15  1  0  0  0
  3  5  1  0  0  0
  3  4  1  0  0  0
 10  9  1  0  0  0
 19 18  2  0  0  0
 18 17  1  0  0  0
  5  6  1  0  0  0
  9 15  1  0  0  0
  9  8  1  0  0  0
  6  7  1  0  0  0
 15 16  1  0  0  0
  7  8  1  0  0  0
 17 16  1  0  0  0
  4 22  1  0  0  0
M  END
> <minimizedAffinity>
-8.29774

$$$$
1X8J_AOI_A_400


 22 25  0  0  0  0  0  0  0  0999 V2000
   21.7840   -8.1309   40.7472 C   0  0  0  0  0  0  0  0  0  0  0  0
   23.2258   -8.4087   40.2597 C   0  0  0  0  0  0  0  0  0  0  0  0
   24.1854   -8.6377   41.4502 C   0  0  0  0  0  0  0  0  0  0  0  0
   24.3671   -7.3550   42.0950 O   0  0  0  0  0  0  0  0  0  0  0  0
   23.6740   -9.6686   42.4250 C   0  0  0  0  0  0  0  0  0  0  0  0
   22.2255   -9.3855   42.9115 C   0  0  0  0  0  0  0  0  0  0  0  0
   21.7190  -10.4694   43.9126 C   0  0  0  0  0  0  0  0  0  0  0  0
   20.3106  -10.1672   44.3773 C   0  0  0  0  0  0  0  0  0  0  0  0
   19.2932  -10.0419   43.2162 C   0  0  0  0  0  0  0  0  0  0  0  0
   19.7774   -8.9362   42.2190 C   0  0  0  0  0  0  0  0  0  0  0  0
   21.2317   -9.2642   41.6772 C   0  0  0  0  0  0  0  0  0  0  0  0
   18.7328   -8.7973   41.0592 C   0  0  0  0  0  0  0  0  0  0  0  0
   17.2819   -8.4832   41.5703 C   0  0  0  0  0  0  0  0  0  0  0  0
   16.8197   -9.5555   42.5662 C   0  0  0  0  0  0  0  0  0  0  0  0
   17.8823   -9.6885   43.7136 C   0  0  0  0  0  0  0  0  0  0  0  0
   17.1439  -10.5991   44.7223 C   0  0  0  0  0  0  0  0  0  0  0  0
   15.7730   -9.9201   44.7751 C   0  0  0  0  0  0  0  0  0  0  0  0
   15.5874   -9.2343   43.4134 C   0  0  0  0  0  0  0  0  0  0  0  0
   14.6381   -8.5767   43.1062 O   0  0  0  0  0  0  0  0  0  0  0  0
   16.5069  -10.9058   41.8230 C   0  0  0  0  0  0  0  0  0  0  0  0
   21.1965  -10.5928   40.8355 C   0  0  0  0  0  0  0  0  0  0  0  0
   23.5100   -7.0266   42.4088 H   0  0  0  0  0  0  0  0  0  0  0  0
 21 11  1  0  0  0
 20 14  1  0  0  0
  2  1  1  0  0  0
  2  3  1  0  0  0
 12 13  1  0  0  0
 12 10  1  0  0  0
  1 11  1  0  0  0
 13 14  1  0  0  0
 11 10  1  0  0  0
 11  6  1  0  0  0
 14 18  1  0  0  0
 14 15  1  0  0  0
  3  5  1  0  0  0
  3  4  1  0  0  0
 10  9  1  0  0  0
 19 18  2  0  0  0
 18 17  1  0  0  0
  5  6  1  0  0  0
  9 15  1  0  0  0
  9  8  1  0  0  0
  6  7  1  0  0  0
 15 16  1  0  0  0
  7  8  1  0  0  0
 17 16  1  0  0  0
  4 22  1  0  0  0
M  END
> <minimizedAffinity>
-8.11041

$$$$
1X8J_AOI_A_400


 22 25  0  0  0  0  0  0  0  0999 V2000
   21.3381  -10.2587   41.8048 C   0  0  0  0  0  0  0  0  0  0  0  0
   22.8544  -10.5650   41.7852 C   0  0  0  0  0  0  0  0  0  0  0  0
   23.5003  -10.1112   40.4556 C   0  0  0  0  0  0  0  0  0  0  0  0
   23.0339  -11.0206   39.4312 O   0  0  0  0  0  0  0  0  0  0  0  0
   23.1737   -8.6817   40.1034 C   0  0  0  0  0  0  0  0  0  0  0  0
   21.6496   -8.3789   40.1249 C   0  0  0  0  0  0  0  0  0  0  0  0
   21.3400   -6.8932   39.7639 C   0  0  0  0  0  0  0  0  0  0  0  0
   19.8504   -6.6259   39.7839 C   0  0  0  0  0  0  0  0  0  0  0  0
   19.1831   -6.9622   41.1406 C   0  0  0  0  0  0  0  0  0  0  0  0
   19.4638   -8.4601   41.4997 C   0  0  0  0  0  0  0  0  0  0  0  0
   21.0232   -8.7473   41.5383 C   0  0  0  0  0  0  0  0  0  0  0  0
   18.7668   -8.8013   42.8612 C   0  0  0  0  0  0  0  0  0  0  0  0
   17.2231   -8.5151   42.8525 C   0  0  0  0  0  0  0  0  0  0  0  0
   16.9504   -7.0525   42.4762 C   0  0  0  0  0  0  0  0  0  0  0  0
   17.6644   -6.7261   41.1171 C   0  0  0  0  0  0  0  0  0  0  0  0
   17.0818   -5.3331   40.7822 C   0  0  0  0  0  0  0  0  0  0  0  0
   15.5915   -5.5746   41.0350 C   0  0  0  0  0  0  0  0  0  0  0  0
   15.5158   -6.6887   42.0896 C   0  0  0  0  0  0  0  0  0  0  0  0
   14.5017   -7.1612   42.5092 O   0  0  0  0  0  0  0  0  0  0  0  0
   17.3486   -6.0919   43.6561 C   0  0  0  0  0  0  0  0  0  0  0  0
   21.6872   -7.9138   42.6956 C   0  0  0  0  0  0  0  0  0  0  0  0
   22.0669  -10.9724   39.3720 H   0  0  0  0  0  0  0  0  0  0  0  0
 21 11  1  0  0  0
 20 14  1  0  0  0
  2  1  1  0  0  0
  2  3  1  0  0  0
 12 13  1  0  0  0
 12 10  1  0  0  0
  1 11  1  0  0  0
 13 14  1  0  0  0
 11 10  1  0  0  0
 11  6  1  0  0  0
 14 18  1  0  0  0
 14 15  1  0  0  0
  3  5  1  0  0  0
  3  4  1  0  0  0
 10  9  1  0  0  0
 19 18  2  0  0  0
 18 17  1  0  0  0
  5  6  1  0  0  0
  9 15  1  0  0  0
  9  8  1  0  0  0
  6  7  1  0  0  0
 15 16  1  0  0  0
  7  8  1  0  0  0
 17 16  1  0  0  0
  4 22  1  0  0  0
M  END
> <minimizedAffinity>
-7.99675

$$$$
