3VEH_0GA_A_501


 20 20  0  0  0  0  0  0  0  0999 V2000
   -4.6101    1.2207   31.0601 C   0  0  0  0  0  0  0  0  0  0  0  0
   -4.9273    2.5509   30.8003 C   0  0  0  0  0  0  0  0  0  0  0  0
   -4.9181    3.5325   31.7982 C   0  0  0  0  0  0  0  0  0  0  0  0
   -4.6018    3.1565   33.1498 C   0  0  0  0  0  0  0  0  0  0  0  0
   -4.2805    0.8216   32.4233 C   0  0  0  0  0  0  0  0  0  0  0  0
   -3.9068   -0.4466   32.6943 O   0  0  0  0  0  0  0  0  0  0  0  0
   -4.2605    1.8408   33.4750 C   0  0  0  0  0  0  0  0  0  0  0  0
   -3.6965   -0.6955   33.5728 H   0  0  0  0  0  0  0  0  0  0  0  0
   -3.8989    1.3640   34.8692 C   0  0  0  0  0  0  0  0  0  0  0  0
   -2.6962    1.5211   35.2832 O   0  0  0  0  0  0  0  0  0  0  0  0
   -4.8208    0.8220   35.5027 O   0  0  0  0  0  0  0  0  0  0  0  0
   -2.0636    1.9430   34.7357 H   0  0  0  0  0  0  0  0  0  0  0  0
   -4.5454    0.2016   30.1253 O   0  0  0  0  0  0  0  0  0  0  0  0
   -3.3892    0.0900   29.2357 C   0  0  0  0  0  0  0  0  0  0  0  0
   -3.6100    0.2353   27.9087 C   0  0  0  0  0  0  0  0  0  0  0  0
   -5.0278    0.4873   27.4732 C   0  0  0  0  0  0  0  0  0  0  0  0
   -1.2086    0.6754   29.9326 O   0  0  0  0  0  0  0  0  0  0  0  0
   -2.0716   -0.2210   29.8470 C   0  0  0  0  0  0  0  0  0  0  0  0
   -1.9016   -1.2933   30.4487 O   0  0  0  0  0  0  0  0  0  0  0  0
   -2.5457   -1.9712   30.3890 H   0  0  0  0  0  0  0  0  0  0  0  0
 11  9  2  0  0  0
 10  9  1  0  0  0
  9  7  1  0  0  0
  7  4  2  0  0  0
  7  5  1  0  0  0
  6  5  1  0  0  0
  4  3  1  0  0  0
  5  1  2  0  0  0
  3  2  2  0  0  0
  1  2  1  0  0  0
  1 13  1  0  0  0
 13 14  1  0  0  0
 16 15  1  0  0  0
 14 15  2  0  0  0
 14 18  1  0  0  0
 17 18  2  0  0  0
 18 19  1  0  0  0
 19 20  1  0  0  0
  6  8  1  0  0  0
 10 12  1  0  0  0
M  END
> <minimizedAffinity>
-8.28666

$$$$
3VEH_0GA_A_501


 20 20  0  0  0  0  0  0  0  0999 V2000
   -3.8024    1.1199   30.9387 C   0  0  0  0  0  0  0  0  0  0  0  0
   -4.9439    1.8538   30.6291 C   0  0  0  0  0  0  0  0  0  0  0  0
   -5.5790    1.7632   29.3849 C   0  0  0  0  0  0  0  0  0  0  0  0
   -5.0208    0.9077   28.3726 C   0  0  0  0  0  0  0  0  0  0  0  0
   -3.2255    0.2422   29.9272 C   0  0  0  0  0  0  0  0  0  0  0  0
   -2.1575   -0.5297   30.2188 O   0  0  0  0  0  0  0  0  0  0  0  0
   -3.8849    0.1333   28.6239 C   0  0  0  0  0  0  0  0  0  0  0  0
   -1.7924   -1.0912   29.5635 H   0  0  0  0  0  0  0  0  0  0  0  0
   -3.2423   -0.8050   27.6195 C   0  0  0  0  0  0  0  0  0  0  0  0
   -1.9672   -0.9339   27.6227 O   0  0  0  0  0  0  0  0  0  0  0  0
   -4.0280   -1.3677   26.8379 O   0  0  0  0  0  0  0  0  0  0  0  0
   -1.4509   -0.4693   28.2516 H   0  0  0  0  0  0  0  0  0  0  0  0
   -3.1450    1.1121   32.1571 O   0  0  0  0  0  0  0  0  0  0  0  0
   -3.7233    0.4080   33.3019 C   0  0  0  0  0  0  0  0  0  0  0  0
   -4.3954    1.1496   34.2124 C   0  0  0  0  0  0  0  0  0  0  0  0
   -4.4745    2.6316   33.9659 C   0  0  0  0  0  0  0  0  0  0  0  0
   -2.3861   -1.5258   33.0665 O   0  0  0  0  0  0  0  0  0  0  0  0
   -3.4903   -1.0553   33.4055 C   0  0  0  0  0  0  0  0  0  0  0  0
   -4.3019   -1.7740   34.0101 O   0  0  0  0  0  0  0  0  0  0  0  0
   -5.1334   -1.4273   34.2679 H   0  0  0  0  0  0  0  0  0  0  0  0
 11  9  2  0  0  0
 10  9  1  0  0  0
  9  7  1  0  0  0
  7  4  2  0  0  0
  7  5  1  0  0  0
  6  5  1  0  0  0
  4  3  1  0  0  0
  5  1  2  0  0  0
  3  2  2  0  0  0
  1  2  1  0  0  0
  1 13  1  0  0  0
 13 14  1  0  0  0
 16 15  1  0  0  0
 14 15  2  0  0  0
 14 18  1  0  0  0
 17 18  2  0  0  0
 18 19  1  0  0  0
 19 20  1  0  0  0
  6  8  1  0  0  0
 10 12  1  0  0  0
M  END
> <minimizedAffinity>
-7.86184

$$$$
3VEH_0GA_A_501


 20 20  0  0  0  0  0  0  0  0999 V2000
   -3.0806    0.8000   32.0988 C   0  0  0  0  0  0  0  0  0  0  0  0
   -4.3828    1.1995   31.8119 C   0  0  0  0  0  0  0  0  0  0  0  0
   -4.9401    1.0773   30.5336 C   0  0  0  0  0  0  0  0  0  0  0  0
   -4.1353    0.5506   29.4644 C   0  0  0  0  0  0  0  0  0  0  0  0
   -2.2514    0.2576   31.0290 C   0  0  0  0  0  0  0  0  0  0  0  0
   -1.0079   -0.1972   31.2899 O   0  0  0  0  0  0  0  0  0  0  0  0
   -2.8254    0.1181   29.6887 C   0  0  0  0  0  0  0  0  0  0  0  0
   -0.4810   -0.5443   30.5972 H   0  0  0  0  0  0  0  0  0  0  0  0
   -1.9156   -0.4633   28.6228 C   0  0  0  0  0  0  0  0  0  0  0  0
   -2.4275   -1.2039   27.7106 O   0  0  0  0  0  0  0  0  0  0  0  0
   -0.7102   -0.1846   28.7415 O   0  0  0  0  0  0  0  0  0  0  0  0
   -3.3512   -1.3608   27.6981 H   0  0  0  0  0  0  0  0  0  0  0  0
   -2.4724    0.8384   33.3419 O   0  0  0  0  0  0  0  0  0  0  0  0
   -2.5046   -0.3354   34.2146 C   0  0  0  0  0  0  0  0  0  0  0  0
   -1.9006   -0.2295   35.4207 C   0  0  0  0  0  0  0  0  0  0  0  0
   -1.2428    1.0839   35.7452 C   0  0  0  0  0  0  0  0  0  0  0  0
   -2.4528   -2.4494   33.1603 O   0  0  0  0  0  0  0  0  0  0  0  0
   -3.1530   -1.5672   33.6961 C   0  0  0  0  0  0  0  0  0  0  0  0
   -4.3382   -1.8109   33.9726 O   0  0  0  0  0  0  0  0  0  0  0  0
   -4.8702   -1.1530   34.3753 H   0  0  0  0  0  0  0  0  0  0  0  0
 11  9  2  0  0  0
 10  9  1  0  0  0
  9  7  1  0  0  0
  7  4  2  0  0  0
  7  5  1  0  0  0
  6  5  1  0  0  0
  4  3  1  0  0  0
  5  1  2  0  0  0
  3  2  2  0  0  0
  1  2  1  0  0  0
  1 13  1  0  0  0
 13 14  1  0  0  0
 16 15  1  0  0  0
 14 15  2  0  0  0
 14 18  1  0  0  0
 17 18  2  0  0  0
 18 19  1  0  0  0
 19 20  1  0  0  0
  6  8  1  0  0  0
 10 12  1  0  0  0
M  END
> <minimizedAffinity>
-7.44505

$$$$
3VEH_0GA_A_501


 20 20  0  0  0  0  0  0  0  0999 V2000
   -1.9381   -1.8761   35.7596 C   0  0  0  0  0  0  0  0  0  0  0  0
   -1.4863   -0.8591   36.5958 C   0  0  0  0  0  0  0  0  0  0  0  0
   -1.4409    0.4800   36.1907 C   0  0  0  0  0  0  0  0  0  0  0  0
   -1.8436    0.8229   34.8533 C   0  0  0  0  0  0  0  0  0  0  0  0
   -2.3567   -1.5469   34.4022 C   0  0  0  0  0  0  0  0  0  0  0  0
   -2.8595   -2.5006   33.5903 O   0  0  0  0  0  0  0  0  0  0  0  0
   -2.3207   -0.1483   33.9688 C   0  0  0  0  0  0  0  0  0  0  0  0
   -3.1263   -2.2814   32.7192 H   0  0  0  0  0  0  0  0  0  0  0  0
   -2.7797    0.1299   32.5496 C   0  0  0  0  0  0  0  0  0  0  0  0
   -1.9049    0.4472   31.6685 O   0  0  0  0  0  0  0  0  0  0  0  0
   -4.0056    0.0487   32.3608 O   0  0  0  0  0  0  0  0  0  0  0  0
   -0.9978    0.4836   31.9008 H   0  0  0  0  0  0  0  0  0  0  0  0
   -2.0630   -3.2128   36.0975 O   0  0  0  0  0  0  0  0  0  0  0  0
   -3.1277   -3.6479   37.0018 C   0  0  0  0  0  0  0  0  0  0  0  0
   -2.7656   -4.3778   38.0820 C   0  0  0  0  0  0  0  0  0  0  0  0
   -1.3013   -4.6820   38.2444 C   0  0  0  0  0  0  0  0  0  0  0  0
   -5.1369   -2.4450   37.3172 O   0  0  0  0  0  0  0  0  0  0  0  0
   -4.5266   -3.2994   36.6440 C   0  0  0  0  0  0  0  0  0  0  0  0
   -5.0129   -3.6960   35.5731 O   0  0  0  0  0  0  0  0  0  0  0  0
   -4.5602   -4.3377   35.0621 H   0  0  0  0  0  0  0  0  0  0  0  0
 11  9  2  0  0  0
 10  9  1  0  0  0
  9  7  1  0  0  0
  7  4  2  0  0  0
  7  5  1  0  0  0
  6  5  1  0  0  0
  4  3  1  0  0  0
  5  1  2  0  0  0
  3  2  2  0  0  0
  1  2  1  0  0  0
  1 13  1  0  0  0
 13 14  1  0  0  0
 16 15  1  0  0  0
 14 15  2  0  0  0
 14 18  1  0  0  0
 17 18  2  0  0  0
 18 19  1  0  0  0
 19 20  1  0  0  0
  6  8  1  0  0  0
 10 12  1  0  0  0
M  END
> <minimizedAffinity>
-7.40013

$$$$
3VEH_0GA_A_501


 20 20  0  0  0  0  0  0  0  0999 V2000
   -3.6844    0.8094   30.6294 C   0  0  0  0  0  0  0  0  0  0  0  0
   -2.3685    0.6059   31.0349 C   0  0  0  0  0  0  0  0  0  0  0  0
   -1.3975    0.0630   30.1852 C   0  0  0  0  0  0  0  0  0  0  0  0
   -1.7713   -0.3312   28.8536 C   0  0  0  0  0  0  0  0  0  0  0  0
   -4.0807    0.4218   29.2807 C   0  0  0  0  0  0  0  0  0  0  0  0
   -5.3321    0.6655   28.8379 O   0  0  0  0  0  0  0  0  0  0  0  0
   -3.0722   -0.1407   28.3797 C   0  0  0  0  0  0  0  0  0  0  0  0
   -5.5793    0.4135   27.9699 H   0  0  0  0  0  0  0  0  0  0  0  0
   -3.5449   -0.5128   26.9868 C   0  0  0  0  0  0  0  0  0  0  0  0
   -4.8035   -0.6206   26.7700 O   0  0  0  0  0  0  0  0  0  0  0  0
   -2.6440   -0.7123   26.1541 O   0  0  0  0  0  0  0  0  0  0  0  0
   -5.4141   -0.4502   27.4600 H   0  0  0  0  0  0  0  0  0  0  0  0
   -4.6899    1.3857   31.3868 O   0  0  0  0  0  0  0  0  0  0  0  0
   -4.4730    1.6699   32.8055 C   0  0  0  0  0  0  0  0  0  0  0  0
   -4.5288    2.9644   33.1953 C   0  0  0  0  0  0  0  0  0  0  0  0
   -4.7982    3.9906   32.1287 C   0  0  0  0  0  0  0  0  0  0  0  0
   -3.6062    0.7415   34.7980 O   0  0  0  0  0  0  0  0  0  0  0  0
   -4.1610    0.5271   33.7017 C   0  0  0  0  0  0  0  0  0  0  0  0
   -4.6266   -0.5980   33.4614 O   0  0  0  0  0  0  0  0  0  0  0  0
   -5.0448   -0.7664   32.6400 H   0  0  0  0  0  0  0  0  0  0  0  0
 11  9  2  0  0  0
 10  9  1  0  0  0
  9  7  1  0  0  0
  7  4  2  0  0  0
  7  5  1  0  0  0
  6  5  1  0  0  0
  4  3  1  0  0  0
  5  1  2  0  0  0
  3  2  2  0  0  0
  1  2  1  0  0  0
  1 13  1  0  0  0
 13 14  1  0  0  0
 16 15  1  0  0  0
 14 15  2  0  0  0
 14 18  1  0  0  0
 17 18  2  0  0  0
 18 19  1  0  0  0
 19 20  1  0  0  0
  6  8  1  0  0  0
 10 12  1  0  0  0
M  END
> <minimizedAffinity>
-7.35501

$$$$
3VEH_0GA_A_501


 20 20  0  0  0  0  0  0  0  0999 V2000
   -2.6888    0.4361   31.4283 C   0  0  0  0  0  0  0  0  0  0  0  0
   -1.7280   -0.2612   30.7016 C   0  0  0  0  0  0  0  0  0  0  0  0
   -1.8653   -0.5207   29.3329 C   0  0  0  0  0  0  0  0  0  0  0  0
   -3.0534   -0.0825   28.6511 C   0  0  0  0  0  0  0  0  0  0  0  0
   -3.8973    0.8939   30.7528 C   0  0  0  0  0  0  0  0  0  0  0  0
   -4.8162    1.6274   31.4154 O   0  0  0  0  0  0  0  0  0  0  0  0
   -4.0495    0.6349   29.3193 C   0  0  0  0  0  0  0  0  0  0  0  0
   -5.5903    1.9180   30.9746 H   0  0  0  0  0  0  0  0  0  0  0  0
   -5.3233    1.1466   28.6731 C   0  0  0  0  0  0  0  0  0  0  0  0
   -5.9372    0.3939   27.8369 O   0  0  0  0  0  0  0  0  0  0  0  0
   -5.6612    2.2973   28.9997 O   0  0  0  0  0  0  0  0  0  0  0  0
   -5.6093   -0.4637   27.6501 H   0  0  0  0  0  0  0  0  0  0  0  0
   -2.6073    0.7783   32.7673 O   0  0  0  0  0  0  0  0  0  0  0  0
   -2.9206   -0.2090   33.8006 C   0  0  0  0  0  0  0  0  0  0  0  0
   -3.7868    0.1618   34.7717 C   0  0  0  0  0  0  0  0  0  0  0  0
   -4.3373    1.5601   34.7021 C   0  0  0  0  0  0  0  0  0  0  0  0
   -1.0401   -1.6091   34.0943 O   0  0  0  0  0  0  0  0  0  0  0  0
   -2.2315   -1.5232   33.7354 C   0  0  0  0  0  0  0  0  0  0  0  0
   -2.8830   -2.5584   33.5246 O   0  0  0  0  0  0  0  0  0  0  0  0
   -3.7785   -2.5016   33.2547 H   0  0  0  0  0  0  0  0  0  0  0  0
 11  9  2  0  0  0
 10  9  1  0  0  0
  9  7  1  0  0  0
  7  4  2  0  0  0
  7  5  1  0  0  0
  6  5  1  0  0  0
  4  3  1  0  0  0
  5  1  2  0  0  0
  3  2  2  0  0  0
  1  2  1  0  0  0
  1 13  1  0  0  0
 13 14  1  0  0  0
 16 15  1  0  0  0
 14 15  2  0  0  0
 14 18  1  0  0  0
 17 18  2  0  0  0
 18 19  1  0  0  0
 19 20  1  0  0  0
  6  8  1  0  0  0
 10 12  1  0  0  0
M  END
> <minimizedAffinity>
-7.25407

$$$$
3VEH_0GA_A_501


 20 20  0  0  0  0  0  0  0  0999 V2000
   -2.6282   -0.4222   34.2859 C   0  0  0  0  0  0  0  0  0  0  0  0
   -1.4779    0.0398   34.9191 C   0  0  0  0  0  0  0  0  0  0  0  0
   -0.8009   -0.7124   35.8863 C   0  0  0  0  0  0  0  0  0  0  0  0
   -1.3233   -1.9965   36.2691 C   0  0  0  0  0  0  0  0  0  0  0  0
   -3.1692   -1.7246   34.6562 C   0  0  0  0  0  0  0  0  0  0  0  0
   -4.2453   -2.2267   34.0149 O   0  0  0  0  0  0  0  0  0  0  0  0
   -2.4659   -2.5244   35.6617 C   0  0  0  0  0  0  0  0  0  0  0  0
   -4.5872   -3.0644   34.2585 H   0  0  0  0  0  0  0  0  0  0  0  0
   -3.0728   -3.8746   35.9944 C   0  0  0  0  0  0  0  0  0  0  0  0
   -2.9944   -4.8170   35.1294 O   0  0  0  0  0  0  0  0  0  0  0  0
   -3.6340   -3.9483   37.1010 O   0  0  0  0  0  0  0  0  0  0  0  0
   -2.5498   -4.6719   34.3174 H   0  0  0  0  0  0  0  0  0  0  0  0
   -3.3264    0.2334   33.2862 O   0  0  0  0  0  0  0  0  0  0  0  0
   -2.7884    0.2896   31.9268 C   0  0  0  0  0  0  0  0  0  0  0  0
   -3.3614    1.1637   31.0676 C   0  0  0  0  0  0  0  0  0  0  0  0
   -4.5063    1.9880   31.5900 C   0  0  0  0  0  0  0  0  0  0  0  0
   -1.8586   -1.8734   31.7263 O   0  0  0  0  0  0  0  0  0  0  0  0
   -1.6896   -0.6467   31.5769 C   0  0  0  0  0  0  0  0  0  0  0  0
   -0.6969   -0.2373   30.9544 O   0  0  0  0  0  0  0  0  0  0  0  0
   -0.5635    0.6828   30.8383 H   0  0  0  0  0  0  0  0  0  0  0  0
 11  9  2  0  0  0
 10  9  1  0  0  0
  9  7  1  0  0  0
  7  4  2  0  0  0
  7  5  1  0  0  0
  6  5  1  0  0  0
  4  3  1  0  0  0
  5  1  2  0  0  0
  3  2  2  0  0  0
  1  2  1  0  0  0
  1 13  1  0  0  0
 13 14  1  0  0  0
 16 15  1  0  0  0
 14 15  2  0  0  0
 14 18  1  0  0  0
 17 18  2  0  0  0
 18 19  1  0  0  0
 19 20  1  0  0  0
  6  8  1  0  0  0
 10 12  1  0  0  0
M  END
> <minimizedAffinity>
-6.93119

$$$$
3VEH_0GA_A_501


 20 20  0  0  0  0  0  0  0  0999 V2000
   -2.7959   -1.0788   34.3529 C   0  0  0  0  0  0  0  0  0  0  0  0
   -1.5232   -0.5490   34.5457 C   0  0  0  0  0  0  0  0  0  0  0  0
   -0.6378   -1.0551   35.5046 C   0  0  0  0  0  0  0  0  0  0  0  0
   -1.0613   -2.1409   36.3473 C   0  0  0  0  0  0  0  0  0  0  0  0
   -3.2406   -2.1842   35.1934 C   0  0  0  0  0  0  0  0  0  0  0  0
   -4.4436   -2.7602   34.9874 O   0  0  0  0  0  0  0  0  0  0  0  0
   -2.3208   -2.7273   36.1956 C   0  0  0  0  0  0  0  0  0  0  0  0
   -4.7225   -3.4701   35.5317 H   0  0  0  0  0  0  0  0  0  0  0  0
   -2.8389   -3.8838   37.0298 C   0  0  0  0  0  0  0  0  0  0  0  0
   -2.2450   -5.0167   36.9515 O   0  0  0  0  0  0  0  0  0  0  0  0
   -3.8414   -3.6347   37.7211 O   0  0  0  0  0  0  0  0  0  0  0  0
   -1.4921   -5.1140   36.4022 H   0  0  0  0  0  0  0  0  0  0  0  0
   -3.7104   -0.6726   33.3962 O   0  0  0  0  0  0  0  0  0  0  0  0
   -3.9945    0.7499   33.2053 C   0  0  0  0  0  0  0  0  0  0  0  0
   -3.6756    1.2917   32.0072 C   0  0  0  0  0  0  0  0  0  0  0  0
   -3.0481    0.3805   30.9878 C   0  0  0  0  0  0  0  0  0  0  0  0
   -4.7211    2.7367   34.2579 O   0  0  0  0  0  0  0  0  0  0  0  0
   -4.5649    1.5028   34.3517 C   0  0  0  0  0  0  0  0  0  0  0  0
   -5.0691    0.8934   35.3082 O   0  0  0  0  0  0  0  0  0  0  0  0
   -4.9560   -0.0336   35.3851 H   0  0  0  0  0  0  0  0  0  0  0  0
 11  9  2  0  0  0
 10  9  1  0  0  0
  9  7  1  0  0  0
  7  4  2  0  0  0
  7  5  1  0  0  0
  6  5  1  0  0  0
  4  3  1  0  0  0
  5  1  2  0  0  0
  3  2  2  0  0  0
  1  2  1  0  0  0
  1 13  1  0  0  0
 13 14  1  0  0  0
 16 15  1  0  0  0
 14 15  2  0  0  0
 14 18  1  0  0  0
 17 18  2  0  0  0
 18 19  1  0  0  0
 19 20  1  0  0  0
  6  8  1  0  0  0
 10 12  1  0  0  0
M  END
> <minimizedAffinity>
-6.89019

$$$$
3VEH_0GA_A_501


 20 20  0  0  0  0  0  0  0  0999 V2000
   -3.3337    0.5802   33.9111 C   0  0  0  0  0  0  0  0  0  0  0  0
   -2.5618   -0.1557   33.0166 C   0  0  0  0  0  0  0  0  0  0  0  0
   -2.5389    0.1183   31.6441 C   0  0  0  0  0  0  0  0  0  0  0  0
   -3.3640    1.1760   31.1257 C   0  0  0  0  0  0  0  0  0  0  0  0
   -4.1719    1.6608   33.4049 C   0  0  0  0  0  0  0  0  0  0  0  0
   -4.8814    2.4326   34.2547 O   0  0  0  0  0  0  0  0  0  0  0  0
   -4.1512    1.9620   31.9717 C   0  0  0  0  0  0  0  0  0  0  0  0
   -5.4178    3.1251   33.9219 H   0  0  0  0  0  0  0  0  0  0  0  0
   -5.0361    3.1047   31.5101 C   0  0  0  0  0  0  0  0  0  0  0  0
   -5.9403    2.8702   30.6326 O   0  0  0  0  0  0  0  0  0  0  0  0
   -4.7858    4.2110   32.0184 O   0  0  0  0  0  0  0  0  0  0  0  0
   -6.0594    2.0011   30.3033 H   0  0  0  0  0  0  0  0  0  0  0  0
   -3.3741    0.4088   35.2843 O   0  0  0  0  0  0  0  0  0  0  0  0
   -2.2053   -0.1073   35.9971 C   0  0  0  0  0  0  0  0  0  0  0  0
   -2.3430   -1.2886   36.6425 C   0  0  0  0  0  0  0  0  0  0  0  0
   -3.6904   -1.9542   36.5744 C   0  0  0  0  0  0  0  0  0  0  0  0
    0.1294    0.1834   35.7788 O   0  0  0  0  0  0  0  0  0  0  0  0
   -0.9733    0.7224   36.0006 C   0  0  0  0  0  0  0  0  0  0  0  0
   -1.0563    1.9607   36.0188 O   0  0  0  0  0  0  0  0  0  0  0  0
   -1.8814    2.3726   36.1848 H   0  0  0  0  0  0  0  0  0  0  0  0
 11  9  2  0  0  0
 10  9  1  0  0  0
  9  7  1  0  0  0
  7  4  2  0  0  0
  7  5  1  0  0  0
  6  5  1  0  0  0
  4  3  1  0  0  0
  5  1  2  0  0  0
  3  2  2  0  0  0
  1  2  1  0  0  0
  1 13  1  0  0  0
 13 14  1  0  0  0
 16 15  1  0  0  0
 14 15  2  0  0  0
 14 18  1  0  0  0
 17 18  2  0  0  0
 18 19  1  0  0  0
 19 20  1  0  0  0
  6  8  1  0  0  0
 10 12  1  0  0  0
M  END
> <minimizedAffinity>
-6.85914

$$$$
3VEH_0GA_A_501


 20 20  0  0  0  0  0  0  0  0999 V2000
   -3.3552   -1.0455   35.1399 C   0  0  0  0  0  0  0  0  0  0  0  0
   -2.3380   -1.5794   34.3539 C   0  0  0  0  0  0  0  0  0  0  0  0
   -1.9187   -0.9790   33.1609 C   0  0  0  0  0  0  0  0  0  0  0  0
   -2.5785    0.2153   32.7065 C   0  0  0  0  0  0  0  0  0  0  0  0
   -4.0316    0.1686   34.6988 C   0  0  0  0  0  0  0  0  0  0  0  0
   -4.9769    0.7450   35.4706 O   0  0  0  0  0  0  0  0  0  0  0  0
   -3.5973    0.8103   33.4558 C   0  0  0  0  0  0  0  0  0  0  0  0
   -5.4072    1.5251   35.1803 H   0  0  0  0  0  0  0  0  0  0  0  0
   -4.3328    2.0762   33.0577 C   0  0  0  0  0  0  0  0  0  0  0  0
   -4.5616    2.9648   33.9524 O   0  0  0  0  0  0  0  0  0  0  0  0
   -4.6844    2.1359   31.8670 O   0  0  0  0  0  0  0  0  0  0  0  0
   -4.2578    2.8359   34.8293 H   0  0  0  0  0  0  0  0  0  0  0  0
   -3.7937   -1.5457   36.3541 O   0  0  0  0  0  0  0  0  0  0  0  0
   -3.3205   -2.8460   36.8295 C   0  0  0  0  0  0  0  0  0  0  0  0
   -2.3961   -2.8472   37.8176 C   0  0  0  0  0  0  0  0  0  0  0  0
   -1.9344   -1.5089   38.3262 C   0  0  0  0  0  0  0  0  0  0  0  0
   -5.0785   -4.2837   36.1771 O   0  0  0  0  0  0  0  0  0  0  0  0
   -3.8510   -4.0628   36.1630 C   0  0  0  0  0  0  0  0  0  0  0  0
   -3.1158   -4.7414   35.4285 O   0  0  0  0  0  0  0  0  0  0  0  0
   -2.1927   -4.5811   35.4127 H   0  0  0  0  0  0  0  0  0  0  0  0
 11  9  2  0  0  0
 10  9  1  0  0  0
  9  7  1  0  0  0
  7  4  2  0  0  0
  7  5  1  0  0  0
  6  5  1  0  0  0
  4  3  1  0  0  0
  5  1  2  0  0  0
  3  2  2  0  0  0
  1  2  1  0  0  0
  1 13  1  0  0  0
 13 14  1  0  0  0
 16 15  1  0  0  0
 14 15  2  0  0  0
 14 18  1  0  0  0
 17 18  2  0  0  0
 18 19  1  0  0  0
 19 20  1  0  0  0
  6  8  1  0  0  0
 10 12  1  0  0  0
M  END
> <minimizedAffinity>
-6.82887

$$$$
