4W9O_3JQ_A_201


 41 44  0  0  0  0  0  0  0  0999 V2000
   13.8774    4.0173   14.0224 N   0  0  0  0  0  0  0  0  0  0  0  0
   13.7998    4.0165   12.6654 C   0  0  0  0  0  0  0  0  0  0  0  0
   13.4142    2.9799   12.1004 O   0  0  0  0  0  0  0  0  0  0  0  0
   14.2884    5.1898   14.8275 C   0  0  0  0  0  0  0  0  0  0  0  0
   15.7358    5.6117   14.4751 C   0  0  0  0  0  0  0  0  0  0  0  0
   15.7544    6.4321   13.1688 C   0  0  0  0  0  0  0  0  0  0  0  0
   16.8347    5.9824   12.1847 C   0  0  0  0  0  0  0  0  0  0  0  0
   16.5352    4.7032   11.5186 C   0  0  0  0  0  0  0  0  0  0  0  0
   15.1811    4.7932   10.8222 C   0  0  0  0  0  0  0  0  0  0  0  0
   14.0444    5.1629   11.8163 C   0  0  0  0  0  0  0  0  0  0  0  0
   14.3929    6.3997   12.5517 N   0  0  0  0  0  0  0  0  0  0  0  0
   16.4396    6.4121   15.6034 C   0  0  0  0  0  0  0  0  0  0  0  0
   16.0476    7.7674   15.4427 O   0  0  0  0  0  0  0  0  0  0  0  0
   15.0813    7.8330   15.4963 H   0  0  0  0  0  0  0  0  0  0  0  0
   15.9948    5.9010   16.9477 C   0  0  0  0  0  0  0  0  0  0  0  0
   17.1683    5.6234   17.6852 O   0  0  0  0  0  0  0  0  0  0  0  0
   17.7023    4.9686   17.2087 H   0  0  0  0  0  0  0  0  0  0  0  0
   13.8328    7.8349   11.9717 S   0  0  0  0  0  0  0  0  0  0  0  0
   12.9719    7.5463   10.7813 O   0  0  0  0  0  0  0  0  0  0  0  0
   14.9122    8.8378   11.8394 O   0  0  0  0  0  0  0  0  0  0  0  0
   12.7919    8.3829   13.2521 C   0  0  0  0  0  0  0  0  0  0  0  0
   13.1187    9.5577   13.9204 C   0  0  0  0  0  0  0  0  0  0  0  0
   12.2871   10.0512   14.9195 C   0  0  0  0  0  0  0  0  0  0  0  0
   12.6940   11.4901   15.7309 Cl  0  0  0  0  0  0  0  0  0  0  0  0
   11.1406    9.3723   15.2802 C   0  0  0  0  0  0  0  0  0  0  0  0
   10.8111    8.2012   14.6121 C   0  0  0  0  0  0  0  0  0  0  0  0
    9.3939    7.3713   15.0364 Cl  0  0  0  0  0  0  0  0  0  0  0  0
   11.6286    7.7148   13.5959 C   0  0  0  0  0  0  0  0  0  0  0  0
   13.6646    2.7718   14.7814 C   0  0  0  0  0  0  0  0  0  0  0  0
   12.3106    2.7531   15.4874 C   0  0  0  0  0  0  0  0  0  0  0  0
   11.2326    2.4360   14.5870 O   0  0  0  0  0  0  0  0  0  0  0  0
   10.1899   -0.1661   12.3197 C   0  0  0  0  0  0  0  0  0  0  0  0
   10.3604    1.0585   12.9100 C   0  0  0  0  0  0  0  0  0  0  0  0
   10.7444   -1.3063   12.8824 C   0  0  0  0  0  0  0  0  0  0  0  0
   11.5291   -1.2022   14.0433 C   0  0  0  0  0  0  0  0  0  0  0  0
   11.7184    0.0356   14.6436 C   0  0  0  0  0  0  0  0  0  0  0  0
   11.1209    1.1796   14.0753 C   0  0  0  0  0  0  0  0  0  0  0  0
    8.1502    0.2849   11.1729 C   0  0  0  0  0  0  0  0  0  0  0  0
    9.4333   -0.3543   11.1966 O   0  0  0  0  0  0  0  0  0  0  0  0
   10.5029   -2.4657   12.2183 O   0  0  0  0  0  0  0  0  0  0  0  0
    9.7321   -3.4812   12.8422 C   0  0  0  0  0  0  0  0  0  0  0  0
  9  8  1  0  0  0
  9 10  1  0  0  0
 19 18  2  0  0  0
 38 39  1  0  0  0
 39 32  1  0  0  0
 20 18  2  0  0  0
  8  7  1  0  0  0
 10 11  1  0  0  0
 10  2  1  0  0  0
 40 41  1  0  0  0
 40 34  1  0  0  0
 18 11  1  0  0  0
 18 21  1  0  0  0
  3  2  2  0  0  0
 32 34  2  0  0  0
 32 33  1  0  0  0
  7  6  1  0  0  0
 34 35  1  0  0  0
 11  6  1  0  0  0
  2  1  1  0  0  0
 33 37  2  0  0  0
 35 36  2  0  0  0
  6  5  1  0  0  0
 21 22  2  0  0  0
 21 28  1  0  0  0
 22 23  1  0  0  0
 37 36  1  0  0  0
 37 31  1  0  0  0
  1 29  1  0  0  0
  1  4  1  0  0  0
 28 26  2  0  0  0
 31 30  1  0  0  0
  5  4  1  0  0  0
  5 12  1  0  0  0
 29 30  1  0  0  0
 23 24  1  0  0  0
 23 25  2  0  0  0
 26 25  1  0  0  0
 26 27  1  0  0  0
 12 13  1  0  0  0
 12 15  1  0  0  0
 15 16  1  0  0  0
 13 14  1  0  0  0
 16 17  1  0  0  0
M  END
> <minimizedAffinity>
-9.21558

$$$$
4W9O_3JQ_A_201


 41 44  0  0  0  0  0  0  0  0999 V2000
   13.8749    3.9846   14.0025 N   0  0  0  0  0  0  0  0  0  0  0  0
   13.8083    3.9883   12.6449 C   0  0  0  0  0  0  0  0  0  0  0  0
   13.4380    2.9501   12.0728 O   0  0  0  0  0  0  0  0  0  0  0  0
   14.2673    5.1580   14.8154 C   0  0  0  0  0  0  0  0  0  0  0  0
   15.7131    5.5961   14.4764 C   0  0  0  0  0  0  0  0  0  0  0  0
   15.7338    6.4218   13.1735 C   0  0  0  0  0  0  0  0  0  0  0  0
   16.8266    5.9871   12.1965 C   0  0  0  0  0  0  0  0  0  0  0  0
   16.5456    4.7076   11.5231 C   0  0  0  0  0  0  0  0  0  0  0  0
   15.1964    4.7864   10.8160 C   0  0  0  0  0  0  0  0  0  0  0  0
   14.0479    5.1405   11.8022 C   0  0  0  0  0  0  0  0  0  0  0  0
   14.3778    6.3779   12.5452 N   0  0  0  0  0  0  0  0  0  0  0  0
   16.3995    6.3993   15.6134 C   0  0  0  0  0  0  0  0  0  0  0  0
   16.0468    7.7606   15.4168 O   0  0  0  0  0  0  0  0  0  0  0  0
   15.0812    7.8506   15.4374 H   0  0  0  0  0  0  0  0  0  0  0  0
   15.8986    5.9232   16.9509 C   0  0  0  0  0  0  0  0  0  0  0  0
   17.0021    5.3386   17.6132 O   0  0  0  0  0  0  0  0  0  0  0  0
   17.3510    4.6089   17.0777 H   0  0  0  0  0  0  0  0  0  0  0  0
   13.8077    7.8096   11.9662 S   0  0  0  0  0  0  0  0  0  0  0  0
   12.9379    7.5148   10.7838 O   0  0  0  0  0  0  0  0  0  0  0  0
   14.8823    8.8160   11.8223 O   0  0  0  0  0  0  0  0  0  0  0  0
   12.7755    8.3572   13.2538 C   0  0  0  0  0  0  0  0  0  0  0  0
   13.0880    9.5496   13.8975 C   0  0  0  0  0  0  0  0  0  0  0  0
   12.2619   10.0423   14.9015 C   0  0  0  0  0  0  0  0  0  0  0  0
   12.6510   11.5027   15.6826 Cl  0  0  0  0  0  0  0  0  0  0  0  0
   11.1356    9.3459   15.2915 C   0  0  0  0  0  0  0  0  0  0  0  0
   10.8204    8.1572   14.6480 C   0  0  0  0  0  0  0  0  0  0  0  0
    9.4277    7.3053   15.1084 Cl  0  0  0  0  0  0  0  0  0  0  0  0
   11.6320    7.6709   13.6270 C   0  0  0  0  0  0  0  0  0  0  0  0
   13.6688    2.7340   14.7549 C   0  0  0  0  0  0  0  0  0  0  0  0
   12.3520    2.7388   15.5282 C   0  0  0  0  0  0  0  0  0  0  0  0
   11.2129    2.5757   14.6626 O   0  0  0  0  0  0  0  0  0  0  0  0
   10.9598   -1.0188   14.5440 C   0  0  0  0  0  0  0  0  0  0  0  0
   11.2224    0.2570   14.9690 C   0  0  0  0  0  0  0  0  0  0  0  0
   10.4119   -1.2485   13.2905 C   0  0  0  0  0  0  0  0  0  0  0  0
   10.0775   -0.1624   12.4641 C   0  0  0  0  0  0  0  0  0  0  0  0
   10.3284    1.1354   12.8894 C   0  0  0  0  0  0  0  0  0  0  0  0
   10.9151    1.3488   14.1539 C   0  0  0  0  0  0  0  0  0  0  0  0
   12.4343   -2.0493   16.1070 C   0  0  0  0  0  0  0  0  0  0  0  0
   11.2644   -2.1287   15.2819 O   0  0  0  0  0  0  0  0  0  0  0  0
   10.2036   -2.5516   12.9707 O   0  0  0  0  0  0  0  0  0  0  0  0
   10.4514   -2.9942   11.6450 C   0  0  0  0  0  0  0  0  0  0  0  0
  9  8  1  0  0  0
  9 10  1  0  0  0
 19 18  2  0  0  0
 38 39  1  0  0  0
 39 32  1  0  0  0
 20 18  2  0  0  0
  8  7  1  0  0  0
 10 11  1  0  0  0
 10  2  1  0  0  0
 40 41  1  0  0  0
 40 34  1  0  0  0
 18 11  1  0  0  0
 18 21  1  0  0  0
  3  2  2  0  0  0
 32 34  2  0  0  0
 32 33  1  0  0  0
  7  6  1  0  0  0
 34 35  1  0  0  0
 11  6  1  0  0  0
  2  1  1  0  0  0
 33 37  2  0  0  0
 35 36  2  0  0  0
  6  5  1  0  0  0
 21 22  2  0  0  0
 21 28  1  0  0  0
 22 23  1  0  0  0
 37 36  1  0  0  0
 37 31  1  0  0  0
  1 29  1  0  0  0
  1  4  1  0  0  0
 28 26  2  0  0  0
 31 30  1  0  0  0
  5  4  1  0  0  0
  5 12  1  0  0  0
 29 30  1  0  0  0
 23 24  1  0  0  0
 23 25  2  0  0  0
 26 25  1  0  0  0
 26 27  1  0  0  0
 12 13  1  0  0  0
 12 15  1  0  0  0
 15 16  1  0  0  0
 13 14  1  0  0  0
 16 17  1  0  0  0
M  END
> <minimizedAffinity>
-8.96733

$$$$
4W9O_3JQ_A_201


 41 44  0  0  0  0  0  0  0  0999 V2000
   14.0202    4.0633   14.2107 N   0  0  0  0  0  0  0  0  0  0  0  0
   13.8863    4.0024   12.8595 C   0  0  0  0  0  0  0  0  0  0  0  0
   13.4814    2.9413   12.3571 O   0  0  0  0  0  0  0  0  0  0  0  0
   14.4600    5.2708   14.9456 C   0  0  0  0  0  0  0  0  0  0  0  0
   15.8901    5.6792   14.5151 C   0  0  0  0  0  0  0  0  0  0  0  0
   15.8516    6.4412   13.1744 C   0  0  0  0  0  0  0  0  0  0  0  0
   16.8917    5.9504   12.1670 C   0  0  0  0  0  0  0  0  0  0  0  0
   16.5694    4.6426   11.5709 C   0  0  0  0  0  0  0  0  0  0  0  0
   15.1873    4.6994   10.9281 C   0  0  0  0  0  0  0  0  0  0  0  0
   14.0915    5.1107   11.9513 C   0  0  0  0  0  0  0  0  0  0  0  0
   14.4658    6.3793   12.6164 N   0  0  0  0  0  0  0  0  0  0  0  0
   16.6372    6.5298   15.5769 C   0  0  0  0  0  0  0  0  0  0  0  0
   16.0581    7.8257   15.5372 O   0  0  0  0  0  0  0  0  0  0  0  0
   15.1082    7.7613   15.7232 H   0  0  0  0  0  0  0  0  0  0  0  0
   16.4525    5.9224   16.9419 C   0  0  0  0  0  0  0  0  0  0  0  0
   17.6372    6.1851   17.6669 O   0  0  0  0  0  0  0  0  0  0  0  0
   18.3946    5.7993   17.1995 H   0  0  0  0  0  0  0  0  0  0  0  0
   13.8771    7.7866   11.9976 S   0  0  0  0  0  0  0  0  0  0  0  0
   13.0306    7.4490   10.8097 O   0  0  0  0  0  0  0  0  0  0  0  0
   14.9342    8.8103   11.8467 O   0  0  0  0  0  0  0  0  0  0  0  0
   12.8157    8.3421   13.2577 C   0  0  0  0  0  0  0  0  0  0  0  0
   13.2148    9.4220   14.0377 C   0  0  0  0  0  0  0  0  0  0  0  0
   12.3740    9.9229   15.0254 C   0  0  0  0  0  0  0  0  0  0  0  0
   12.8699   11.2453   15.9739 Cl  0  0  0  0  0  0  0  0  0  0  0  0
   11.1443    9.3429   15.2637 C   0  0  0  0  0  0  0  0  0  0  0  0
   10.7429    8.2669   14.4841 C   0  0  0  0  0  0  0  0  0  0  0  0
    9.2251    7.5608   14.7581 Cl  0  0  0  0  0  0  0  0  0  0  0  0
   11.5715    7.7758   13.4792 C   0  0  0  0  0  0  0  0  0  0  0  0
   13.8434    2.8521   15.0320 C   0  0  0  0  0  0  0  0  0  0  0  0
   12.5069    2.8485   15.7708 C   0  0  0  0  0  0  0  0  0  0  0  0
   11.6333    3.9001   15.3187 O   0  0  0  0  0  0  0  0  0  0  0  0
    8.6556    4.7416   17.1690 C   0  0  0  0  0  0  0  0  0  0  0  0
    9.5227    4.1349   16.2988 C   0  0  0  0  0  0  0  0  0  0  0  0
    9.0713    5.8062   17.9551 C   0  0  0  0  0  0  0  0  0  0  0  0
   10.4065    6.2394   17.8959 C   0  0  0  0  0  0  0  0  0  0  0  0
   11.2972    5.6242   17.0261 C   0  0  0  0  0  0  0  0  0  0  0  0
   10.8490    4.5639   16.2114 C   0  0  0  0  0  0  0  0  0  0  0  0
    6.8418    3.4579   16.3083 C   0  0  0  0  0  0  0  0  0  0  0  0
    7.3396    4.3878   17.2793 O   0  0  0  0  0  0  0  0  0  0  0  0
    8.1258    6.3364   18.7729 O   0  0  0  0  0  0  0  0  0  0  0  0
    8.1435    7.7280   19.0519 C   0  0  0  0  0  0  0  0  0  0  0  0
  9  8  1  0  0  0
  9 10  1  0  0  0
 19 18  2  0  0  0
 38 39  1  0  0  0
 39 32  1  0  0  0
 20 18  2  0  0  0
  8  7  1  0  0  0
 10 11  1  0  0  0
 10  2  1  0  0  0
 40 41  1  0  0  0
 40 34  1  0  0  0
 18 11  1  0  0  0
 18 21  1  0  0  0
  3  2  2  0  0  0
 32 34  2  0  0  0
 32 33  1  0  0  0
  7  6  1  0  0  0
 34 35  1  0  0  0
 11  6  1  0  0  0
  2  1  1  0  0  0
 33 37  2  0  0  0
 35 36  2  0  0  0
  6  5  1  0  0  0
 21 22  2  0  0  0
 21 28  1  0  0  0
 22 23  1  0  0  0
 37 36  1  0  0  0
 37 31  1  0  0  0
  1 29  1  0  0  0
  1  4  1  0  0  0
 28 26  2  0  0  0
 31 30  1  0  0  0
  5  4  1  0  0  0
  5 12  1  0  0  0
 29 30  1  0  0  0
 23 24  1  0  0  0
 23 25  2  0  0  0
 26 25  1  0  0  0
 26 27  1  0  0  0
 12 13  1  0  0  0
 12 15  1  0  0  0
 15 16  1  0  0  0
 13 14  1  0  0  0
 16 17  1  0  0  0
M  END
> <minimizedAffinity>
-8.88476

$$$$
4W9O_3JQ_A_201


 41 44  0  0  0  0  0  0  0  0999 V2000
   13.8400    3.9818   14.0148 N   0  0  0  0  0  0  0  0  0  0  0  0
   13.7874    3.9703   12.6566 C   0  0  0  0  0  0  0  0  0  0  0  0
   13.4279    2.9241   12.0922 O   0  0  0  0  0  0  0  0  0  0  0  0
   14.2185    5.1659   14.8187 C   0  0  0  0  0  0  0  0  0  0  0  0
   15.6657    5.6071   14.4899 C   0  0  0  0  0  0  0  0  0  0  0  0
   15.6961    6.4185   13.1782 C   0  0  0  0  0  0  0  0  0  0  0  0
   16.8010    5.9783   12.2174 C   0  0  0  0  0  0  0  0  0  0  0  0
   16.5329    4.6902   11.5552 C   0  0  0  0  0  0  0  0  0  0  0  0
   15.1907    4.7549   10.8335 C   0  0  0  0  0  0  0  0  0  0  0  0
   14.0305    5.1143   11.8038 C   0  0  0  0  0  0  0  0  0  0  0  0
   14.3469    6.3613   12.5365 N   0  0  0  0  0  0  0  0  0  0  0  0
   16.3366    6.4259   15.6250 C   0  0  0  0  0  0  0  0  0  0  0  0
   16.0383    7.7905   15.3699 O   0  0  0  0  0  0  0  0  0  0  0  0
   15.0762    7.9130   15.3506 H   0  0  0  0  0  0  0  0  0  0  0  0
   15.7703    6.0131   16.9574 C   0  0  0  0  0  0  0  0  0  0  0  0
   16.7939    5.3110   17.6337 O   0  0  0  0  0  0  0  0  0  0  0  0
   17.0652    4.5452   17.1038 H   0  0  0  0  0  0  0  0  0  0  0  0
   13.7762    7.7839   11.9359 S   0  0  0  0  0  0  0  0  0  0  0  0
   12.8609    7.4677   10.7941 O   0  0  0  0  0  0  0  0  0  0  0  0
   14.8587    8.7697   11.7246 O   0  0  0  0  0  0  0  0  0  0  0  0
   12.7982    8.3837   13.2424 C   0  0  0  0  0  0  0  0  0  0  0  0
   11.6664    7.6654   13.6123 C   0  0  0  0  0  0  0  0  0  0  0  0
   10.8845    8.0895   14.6809 C   0  0  0  0  0  0  0  0  0  0  0  0
    9.5023    7.2037   15.1274 Cl  0  0  0  0  0  0  0  0  0  0  0  0
   11.2036    9.2399   15.3739 C   0  0  0  0  0  0  0  0  0  0  0  0
   12.3347    9.9564   15.0082 C   0  0  0  0  0  0  0  0  0  0  0  0
   12.7444   11.3606   15.8671 Cl  0  0  0  0  0  0  0  0  0  0  0  0
   13.1334    9.5239   13.9533 C   0  0  0  0  0  0  0  0  0  0  0  0
   13.6319    2.7385   14.7788 C   0  0  0  0  0  0  0  0  0  0  0  0
   12.1559    2.4909   15.0826 C   0  0  0  0  0  0  0  0  0  0  0  0
   11.7381    1.1658   14.7042 O   0  0  0  0  0  0  0  0  0  0  0  0
    9.3346    0.1872   12.2014 C   0  0  0  0  0  0  0  0  0  0  0  0
   10.5163    0.4182   12.8553 C   0  0  0  0  0  0  0  0  0  0  0  0
    8.1237    0.5256   12.7873 C   0  0  0  0  0  0  0  0  0  0  0  0
    8.1015    1.0674   14.0835 C   0  0  0  0  0  0  0  0  0  0  0  0
    9.2925    1.2949   14.7604 C   0  0  0  0  0  0  0  0  0  0  0  0
   10.5159    0.9740   14.1367 C   0  0  0  0  0  0  0  0  0  0  0  0
    9.6790   -1.6907   10.7753 C   0  0  0  0  0  0  0  0  0  0  0  0
    9.2701   -0.3260   10.9358 O   0  0  0  0  0  0  0  0  0  0  0  0
    7.0181    0.2612   12.0448 O   0  0  0  0  0  0  0  0  0  0  0  0
    5.9693    1.2159   11.9879 C   0  0  0  0  0  0  0  0  0  0  0  0
  9  8  1  0  0  0
  9 10  1  0  0  0
 19 18  2  0  0  0
 38 39  1  0  0  0
 39 32  1  0  0  0
 20 18  2  0  0  0
  8  7  1  0  0  0
 10 11  1  0  0  0
 10  2  1  0  0  0
 40 41  1  0  0  0
 40 34  1  0  0  0
 18 11  1  0  0  0
 18 21  1  0  0  0
  3  2  2  0  0  0
 32 34  2  0  0  0
 32 33  1  0  0  0
  7  6  1  0  0  0
 34 35  1  0  0  0
 11  6  1  0  0  0
  2  1  1  0  0  0
 33 37  2  0  0  0
 35 36  2  0  0  0
  6  5  1  0  0  0
 21 22  2  0  0  0
 21 28  1  0  0  0
 22 23  1  0  0  0
 37 36  1  0  0  0
 37 31  1  0  0  0
  1 29  1  0  0  0
  1  4  1  0  0  0
 28 26  2  0  0  0
 31 30  1  0  0  0
  5  4  1  0  0  0
  5 12  1  0  0  0
 29 30  1  0  0  0
 23 24  1  0  0  0
 23 25  2  0  0  0
 26 25  1  0  0  0
 26 27  1  0  0  0
 12 13  1  0  0  0
 12 15  1  0  0  0
 15 16  1  0  0  0
 13 14  1  0  0  0
 16 17  1  0  0  0
M  END
> <minimizedAffinity>
-8.85063

$$$$
4W9O_3JQ_A_201


 41 44  0  0  0  0  0  0  0  0999 V2000
   13.8831    4.0645   14.0947 N   0  0  0  0  0  0  0  0  0  0  0  0
   13.7902    4.0294   12.7391 C   0  0  0  0  0  0  0  0  0  0  0  0
   13.3814    2.9850   12.2058 O   0  0  0  0  0  0  0  0  0  0  0  0
   14.3223    5.2505   14.8642 C   0  0  0  0  0  0  0  0  0  0  0  0
   15.7724    5.6388   14.4852 C   0  0  0  0  0  0  0  0  0  0  0  0
   15.7898    6.4243   13.1576 C   0  0  0  0  0  0  0  0  0  0  0  0
   16.8514    5.9310   12.1742 C   0  0  0  0  0  0  0  0  0  0  0  0
   16.5235    4.6401   11.5452 C   0  0  0  0  0  0  0  0  0  0  0  0
   15.1633    4.7345   10.8613 C   0  0  0  0  0  0  0  0  0  0  0  0
   14.0441    5.1490   11.8575 C   0  0  0  0  0  0  0  0  0  0  0  0
   14.4211    6.3986   12.5563 N   0  0  0  0  0  0  0  0  0  0  0  0
   16.5018    6.4565   15.5844 C   0  0  0  0  0  0  0  0  0  0  0  0
   16.0996    7.8080   15.4168 O   0  0  0  0  0  0  0  0  0  0  0  0
   15.1348    7.8702   15.4950 H   0  0  0  0  0  0  0  0  0  0  0  0
   16.0947    5.9608   16.9463 C   0  0  0  0  0  0  0  0  0  0  0  0
   17.2868    5.6397   17.6346 O   0  0  0  0  0  0  0  0  0  0  0  0
   17.7763    4.9663   17.1367 H   0  0  0  0  0  0  0  0  0  0  0  0
   13.8782    7.8273   11.9448 S   0  0  0  0  0  0  0  0  0  0  0  0
   12.9973    7.5220   10.7734 O   0  0  0  0  0  0  0  0  0  0  0  0
   14.9727    8.8074   11.7722 O   0  0  0  0  0  0  0  0  0  0  0  0
   12.8632    8.4273   13.2227 C   0  0  0  0  0  0  0  0  0  0  0  0
   11.6251    7.8283   13.4277 C   0  0  0  0  0  0  0  0  0  0  0  0
   10.8048    8.2510   14.4678 C   0  0  0  0  0  0  0  0  0  0  0  0
    9.2923    7.5114   14.7122 Cl  0  0  0  0  0  0  0  0  0  0  0  0
   11.1938    9.2850   15.2955 C   0  0  0  0  0  0  0  0  0  0  0  0
   12.4306    9.8819   15.0943 C   0  0  0  0  0  0  0  0  0  0  0  0
   12.9240   11.1404   16.1191 Cl  0  0  0  0  0  0  0  0  0  0  0  0
   13.2651    9.4476   14.0684 C   0  0  0  0  0  0  0  0  0  0  0  0
   13.6584    2.8429   14.8885 C   0  0  0  0  0  0  0  0  0  0  0  0
   12.6083    3.0502   15.9777 C   0  0  0  0  0  0  0  0  0  0  0  0
   11.5068    3.8590   15.5237 O   0  0  0  0  0  0  0  0  0  0  0  0
   10.9999    6.5689   17.8472 C   0  0  0  0  0  0  0  0  0  0  0  0
   11.5812    5.7093   16.9526 C   0  0  0  0  0  0  0  0  0  0  0  0
    9.6813    6.3950   18.2412 C   0  0  0  0  0  0  0  0  0  0  0  0
    8.9164    5.3565   17.6840 C   0  0  0  0  0  0  0  0  0  0  0  0
    9.4918    4.4863   16.7675 C   0  0  0  0  0  0  0  0  0  0  0  0
   10.8429    4.6591   16.4023 C   0  0  0  0  0  0  0  0  0  0  0  0
   13.0705    7.7150   18.1265 C   0  0  0  0  0  0  0  0  0  0  0  0
   11.6771    7.5966   18.4426 O   0  0  0  0  0  0  0  0  0  0  0  0
    9.2128    7.2995   19.1390 O   0  0  0  0  0  0  0  0  0  0  0  0
    8.1658    8.1808   18.7621 C   0  0  0  0  0  0  0  0  0  0  0  0
  9  8  1  0  0  0
  9 10  1  0  0  0
 19 18  2  0  0  0
 38 39  1  0  0  0
 39 32  1  0  0  0
 20 18  2  0  0  0
  8  7  1  0  0  0
 10 11  1  0  0  0
 10  2  1  0  0  0
 40 41  1  0  0  0
 40 34  1  0  0  0
 18 11  1  0  0  0
 18 21  1  0  0  0
  3  2  2  0  0  0
 32 34  2  0  0  0
 32 33  1  0  0  0
  7  6  1  0  0  0
 34 35  1  0  0  0
 11  6  1  0  0  0
  2  1  1  0  0  0
 33 37  2  0  0  0
 35 36  2  0  0  0
  6  5  1  0  0  0
 21 22  2  0  0  0
 21 28  1  0  0  0
 22 23  1  0  0  0
 37 36  1  0  0  0
 37 31  1  0  0  0
  1 29  1  0  0  0
  1  4  1  0  0  0
 28 26  2  0  0  0
 31 30  1  0  0  0
  5  4  1  0  0  0
  5 12  1  0  0  0
 29 30  1  0  0  0
 23 24  1  0  0  0
 23 25  2  0  0  0
 26 25  1  0  0  0
 26 27  1  0  0  0
 12 13  1  0  0  0
 12 15  1  0  0  0
 15 16  1  0  0  0
 13 14  1  0  0  0
 16 17  1  0  0  0
M  END
> <minimizedAffinity>
-8.84090

$$$$
4W9O_3JQ_A_201


 41 44  0  0  0  0  0  0  0  0999 V2000
   13.9311    4.0222   14.1139 N   0  0  0  0  0  0  0  0  0  0  0  0
   13.8261    3.9945   12.7590 C   0  0  0  0  0  0  0  0  0  0  0  0
   13.4298    2.9469   12.2225 O   0  0  0  0  0  0  0  0  0  0  0  0
   14.3575    5.2104   14.8872 C   0  0  0  0  0  0  0  0  0  0  0  0
   15.7973    5.6255   14.4975 C   0  0  0  0  0  0  0  0  0  0  0  0
   15.7890    6.4200   13.1751 C   0  0  0  0  0  0  0  0  0  0  0  0
   16.8496    5.9511   12.1786 C   0  0  0  0  0  0  0  0  0  0  0  0
   16.5374    4.6590   11.5440 C   0  0  0  0  0  0  0  0  0  0  0  0
   15.1695    4.7350   10.8734 C   0  0  0  0  0  0  0  0  0  0  0  0
   14.0529    5.1240   11.8827 C   0  0  0  0  0  0  0  0  0  0  0  0
   14.4154    6.3751   12.5864 N   0  0  0  0  0  0  0  0  0  0  0  0
   16.5232    6.4482   15.5953 C   0  0  0  0  0  0  0  0  0  0  0  0
   16.0434    7.7802   15.4861 O   0  0  0  0  0  0  0  0  0  0  0  0
   15.0803    7.7874   15.6010 H   0  0  0  0  0  0  0  0  0  0  0  0
   16.1949    5.8901   16.9544 C   0  0  0  0  0  0  0  0  0  0  0  0
   15.7068    6.9673   17.7287 O   0  0  0  0  0  0  0  0  0  0  0  0
   16.3816    7.6624   17.7772 H   0  0  0  0  0  0  0  0  0  0  0  0
   13.8429    7.7985   11.9895 S   0  0  0  0  0  0  0  0  0  0  0  0
   12.9819    7.4882   10.8047 O   0  0  0  0  0  0  0  0  0  0  0  0
   14.9141    8.8081   11.8423 O   0  0  0  0  0  0  0  0  0  0  0  0
   12.8003    8.3544   13.2651 C   0  0  0  0  0  0  0  0  0  0  0  0
   13.1176    9.5417   13.9158 C   0  0  0  0  0  0  0  0  0  0  0  0
   12.2841   10.0412   14.9104 C   0  0  0  0  0  0  0  0  0  0  0  0
   12.6793   11.4953   15.7001 Cl  0  0  0  0  0  0  0  0  0  0  0  0
   11.1452    9.3564   15.2840 C   0  0  0  0  0  0  0  0  0  0  0  0
   10.8253    8.1728   14.6335 C   0  0  0  0  0  0  0  0  0  0  0  0
    9.4174    7.3353   15.0736 Cl  0  0  0  0  0  0  0  0  0  0  0  0
   11.6446    7.6800   13.6218 C   0  0  0  0  0  0  0  0  0  0  0  0
   13.7343    2.7918   14.9015 C   0  0  0  0  0  0  0  0  0  0  0  0
   13.7099    3.0683   16.4031 C   0  0  0  0  0  0  0  0  0  0  0  0
   14.9061    2.6087   17.0599 O   0  0  0  0  0  0  0  0  0  0  0  0
   16.7093   -0.4927   17.4184 C   0  0  0  0  0  0  0  0  0  0  0  0
   16.4175    0.8305   17.2156 C   0  0  0  0  0  0  0  0  0  0  0  0
   15.6982   -1.4117   17.6577 C   0  0  0  0  0  0  0  0  0  0  0  0
   14.3644   -0.9778   17.7406 C   0  0  0  0  0  0  0  0  0  0  0  0
   14.0582    0.3629   17.5483 C   0  0  0  0  0  0  0  0  0  0  0  0
   15.0957    1.2780   17.2748 C   0  0  0  0  0  0  0  0  0  0  0  0
   18.9329   -0.2247   16.6043 C   0  0  0  0  0  0  0  0  0  0  0  0
   17.9779   -0.9970   17.3440 O   0  0  0  0  0  0  0  0  0  0  0  0
   16.1020   -2.6960   17.8341 O   0  0  0  0  0  0  0  0  0  0  0  0
   15.5899   -3.4462   18.9248 C   0  0  0  0  0  0  0  0  0  0  0  0
  9  8  1  0  0  0
  9 10  1  0  0  0
 19 18  2  0  0  0
 38 39  1  0  0  0
 39 32  1  0  0  0
 20 18  2  0  0  0
  8  7  1  0  0  0
 10 11  1  0  0  0
 10  2  1  0  0  0
 40 41  1  0  0  0
 40 34  1  0  0  0
 18 11  1  0  0  0
 18 21  1  0  0  0
  3  2  2  0  0  0
 32 34  2  0  0  0
 32 33  1  0  0  0
  7  6  1  0  0  0
 34 35  1  0  0  0
 11  6  1  0  0  0
  2  1  1  0  0  0
 33 37  2  0  0  0
 35 36  2  0  0  0
  6  5  1  0  0  0
 21 22  2  0  0  0
 21 28  1  0  0  0
 22 23  1  0  0  0
 37 36  1  0  0  0
 37 31  1  0  0  0
  1 29  1  0  0  0
  1  4  1  0  0  0
 28 26  2  0  0  0
 31 30  1  0  0  0
  5  4  1  0  0  0
  5 12  1  0  0  0
 29 30  1  0  0  0
 23 24  1  0  0  0
 23 25  2  0  0  0
 26 25  1  0  0  0
 26 27  1  0  0  0
 12 13  1  0  0  0
 12 15  1  0  0  0
 15 16  1  0  0  0
 13 14  1  0  0  0
 16 17  1  0  0  0
M  END
> <minimizedAffinity>
-8.52912

$$$$
4W9O_3JQ_A_201


 41 44  0  0  0  0  0  0  0  0999 V2000
   13.8006    3.9590   13.9878 N   0  0  0  0  0  0  0  0  0  0  0  0
   13.7856    3.9798   12.6288 C   0  0  0  0  0  0  0  0  0  0  0  0
   13.4430    2.9473   12.0299 O   0  0  0  0  0  0  0  0  0  0  0  0
   14.1554    5.1238   14.8299 C   0  0  0  0  0  0  0  0  0  0  0  0
   15.6107    5.5733   14.5518 C   0  0  0  0  0  0  0  0  0  0  0  0
   15.6764    6.4158   13.2612 C   0  0  0  0  0  0  0  0  0  0  0  0
   16.8079    5.9991   12.3211 C   0  0  0  0  0  0  0  0  0  0  0  0
   16.5597    4.7270   11.6213 C   0  0  0  0  0  0  0  0  0  0  0  0
   15.2379    4.8082   10.8644 C   0  0  0  0  0  0  0  0  0  0  0  0
   14.0509    5.1440   11.8105 C   0  0  0  0  0  0  0  0  0  0  0  0
   14.3455    6.3733   12.5812 N   0  0  0  0  0  0  0  0  0  0  0  0
   16.2489    6.3651   15.7242 C   0  0  0  0  0  0  0  0  0  0  0  0
   17.5296    6.7861   15.2781 O   0  0  0  0  0  0  0  0  0  0  0  0
   17.4316    7.3297   14.4808 H   0  0  0  0  0  0  0  0  0  0  0  0
   15.3981    7.5617   16.0571 C   0  0  0  0  0  0  0  0  0  0  0  0
   16.2808    8.5846   16.4725 O   0  0  0  0  0  0  0  0  0  0  0  0
   16.7909    8.2799   17.2392 H   0  0  0  0  0  0  0  0  0  0  0  0
   13.7901    7.8095   11.9990 S   0  0  0  0  0  0  0  0  0  0  0  0
   12.8742    7.5181   10.8512 O   0  0  0  0  0  0  0  0  0  0  0  0
   14.8826    8.7875   11.8036 O   0  0  0  0  0  0  0  0  0  0  0  0
   12.8152    8.4009   13.3116 C   0  0  0  0  0  0  0  0  0  0  0  0
   11.7294    7.6401   13.7311 C   0  0  0  0  0  0  0  0  0  0  0  0
   10.9532    8.0582   14.8063 C   0  0  0  0  0  0  0  0  0  0  0  0
    9.6275    7.1204   15.3137 Cl  0  0  0  0  0  0  0  0  0  0  0  0
   11.2316    9.2435   15.4568 C   0  0  0  0  0  0  0  0  0  0  0  0
   12.3169   10.0026   15.0415 C   0  0  0  0  0  0  0  0  0  0  0  0
   12.6771   11.4508   15.8480 Cl  0  0  0  0  0  0  0  0  0  0  0  0
   13.1105    9.5773   13.9799 C   0  0  0  0  0  0  0  0  0  0  0  0
   13.5728    2.6978   14.7159 C   0  0  0  0  0  0  0  0  0  0  0  0
   14.1421    2.7408   16.1323 C   0  0  0  0  0  0  0  0  0  0  0  0
   15.2564    1.8439   16.2976 O   0  0  0  0  0  0  0  0  0  0  0  0
   17.2763    3.9498   18.4151 C   0  0  0  0  0  0  0  0  0  0  0  0
   16.2593    3.4929   17.6188 C   0  0  0  0  0  0  0  0  0  0  0  0
   18.3852    3.1569   18.6714 C   0  0  0  0  0  0  0  0  0  0  0  0
   18.4484    1.8538   18.1498 C   0  0  0  0  0  0  0  0  0  0  0  0
   17.4179    1.3759   17.3510 C   0  0  0  0  0  0  0  0  0  0  0  0
   16.3128    2.2074   17.0751 C   0  0  0  0  0  0  0  0  0  0  0  0
   16.1392    5.6043   19.6991 C   0  0  0  0  0  0  0  0  0  0  0  0
   17.2965    5.2071   18.9518 O   0  0  0  0  0  0  0  0  0  0  0  0
   19.3354    3.7152   19.4646 O   0  0  0  0  0  0  0  0  0  0  0  0
   19.6217    3.1338   20.7274 C   0  0  0  0  0  0  0  0  0  0  0  0
  9  8  1  0  0  0
  9 10  1  0  0  0
 19 18  2  0  0  0
 38 39  1  0  0  0
 39 32  1  0  0  0
 20 18  2  0  0  0
  8  7  1  0  0  0
 10 11  1  0  0  0
 10  2  1  0  0  0
 40 41  1  0  0  0
 40 34  1  0  0  0
 18 11  1  0  0  0
 18 21  1  0  0  0
  3  2  2  0  0  0
 32 34  2  0  0  0
 32 33  1  0  0  0
  7  6  1  0  0  0
 34 35  1  0  0  0
 11  6  1  0  0  0
  2  1  1  0  0  0
 33 37  2  0  0  0
 35 36  2  0  0  0
  6  5  1  0  0  0
 21 22  2  0  0  0
 21 28  1  0  0  0
 22 23  1  0  0  0
 37 36  1  0  0  0
 37 31  1  0  0  0
  1 29  1  0  0  0
  1  4  1  0  0  0
 28 26  2  0  0  0
 31 30  1  0  0  0
  5  4  1  0  0  0
  5 12  1  0  0  0
 29 30  1  0  0  0
 23 24  1  0  0  0
 23 25  2  0  0  0
 26 25  1  0  0  0
 26 27  1  0  0  0
 12 13  1  0  0  0
 12 15  1  0  0  0
 15 16  1  0  0  0
 13 14  1  0  0  0
 16 17  1  0  0  0
M  END
> <minimizedAffinity>
-8.47698

$$$$
4W9O_3JQ_A_201


 41 44  0  0  0  0  0  0  0  0999 V2000
   13.7738    3.9917   13.8866 N   0  0  0  0  0  0  0  0  0  0  0  0
   13.7756    4.0129   12.5275 C   0  0  0  0  0  0  0  0  0  0  0  0
   13.4409    2.9804   11.9241 O   0  0  0  0  0  0  0  0  0  0  0  0
   14.1176    5.1563   14.7334 C   0  0  0  0  0  0  0  0  0  0  0  0
   15.5760    5.6067   14.4734 C   0  0  0  0  0  0  0  0  0  0  0  0
   15.6572    6.4497   13.1840 C   0  0  0  0  0  0  0  0  0  0  0  0
   16.8004    6.0338   12.2578 C   0  0  0  0  0  0  0  0  0  0  0  0
   16.5615    4.7619   11.5545 C   0  0  0  0  0  0  0  0  0  0  0  0
   15.2491    4.8427   10.7814 C   0  0  0  0  0  0  0  0  0  0  0  0
   14.0503    5.1775   11.7130 C   0  0  0  0  0  0  0  0  0  0  0  0
   14.3348    6.4067   12.4876 N   0  0  0  0  0  0  0  0  0  0  0  0
   16.1993    6.3985   15.6539 C   0  0  0  0  0  0  0  0  0  0  0  0
   15.8897    7.7663   15.4316 O   0  0  0  0  0  0  0  0  0  0  0  0
   14.9271    7.8766   15.3856 H   0  0  0  0  0  0  0  0  0  0  0  0
   15.5977    5.9367   16.9543 C   0  0  0  0  0  0  0  0  0  0  0  0
   16.1985    4.6946   17.2614 O   0  0  0  0  0  0  0  0  0  0  0  0
   16.0285    4.0667   16.5419 H   0  0  0  0  0  0  0  0  0  0  0  0
   13.7858    7.8428   11.8992 S   0  0  0  0  0  0  0  0  0  0  0  0
   12.8810    7.5511   10.7426 O   0  0  0  0  0  0  0  0  0  0  0  0
   14.8807    8.8201   11.7137 O   0  0  0  0  0  0  0  0  0  0  0  0
   12.7985    8.4356   13.2018 C   0  0  0  0  0  0  0  0  0  0  0  0
   11.6527    7.7266   13.5459 C   0  0  0  0  0  0  0  0  0  0  0  0
   10.8622    8.1447   14.6106 C   0  0  0  0  0  0  0  0  0  0  0  0
    9.4630    7.2704   15.0256 Cl  0  0  0  0  0  0  0  0  0  0  0  0
   11.1870    9.2802   15.3253 C   0  0  0  0  0  0  0  0  0  0  0  0
   12.3320    9.9873   14.9853 C   0  0  0  0  0  0  0  0  0  0  0  0
   12.7484   11.3728   15.8708 Cl  0  0  0  0  0  0  0  0  0  0  0  0
   13.1389    9.5604   13.9344 C   0  0  0  0  0  0  0  0  0  0  0  0
   13.5377    2.7300   14.6114 C   0  0  0  0  0  0  0  0  0  0  0  0
   12.0504    2.4044   14.7290 C   0  0  0  0  0  0  0  0  0  0  0  0
   11.5440    2.6478   16.0548 O   0  0  0  0  0  0  0  0  0  0  0  0
    8.6575    4.5110   17.1483 C   0  0  0  0  0  0  0  0  0  0  0  0
    9.9530    4.1301   16.9164 C   0  0  0  0  0  0  0  0  0  0  0  0
    7.6006    3.7116   16.7382 C   0  0  0  0  0  0  0  0  0  0  0  0
    7.8557    2.5217   16.0359 C   0  0  0  0  0  0  0  0  0  0  0  0
    9.1646    2.1316   15.7849 C   0  0  0  0  0  0  0  0  0  0  0  0
   10.2273    2.9410   16.2369 C   0  0  0  0  0  0  0  0  0  0  0  0
    8.7355    5.7125   19.2048 C   0  0  0  0  0  0  0  0  0  0  0  0
    8.3248    5.6468   17.8327 O   0  0  0  0  0  0  0  0  0  0  0  0
    6.3609    4.1827   17.0294 O   0  0  0  0  0  0  0  0  0  0  0  0
    5.5292    3.4569   17.9217 C   0  0  0  0  0  0  0  0  0  0  0  0
  9  8  1  0  0  0
  9 10  1  0  0  0
 19 18  2  0  0  0
 38 39  1  0  0  0
 39 32  1  0  0  0
 20 18  2  0  0  0
  8  7  1  0  0  0
 10 11  1  0  0  0
 10  2  1  0  0  0
 40 41  1  0  0  0
 40 34  1  0  0  0
 18 11  1  0  0  0
 18 21  1  0  0  0
  3  2  2  0  0  0
 32 34  2  0  0  0
 32 33  1  0  0  0
  7  6  1  0  0  0
 34 35  1  0  0  0
 11  6  1  0  0  0
  2  1  1  0  0  0
 33 37  2  0  0  0
 35 36  2  0  0  0
  6  5  1  0  0  0
 21 22  2  0  0  0
 21 28  1  0  0  0
 22 23  1  0  0  0
 37 36  1  0  0  0
 37 31  1  0  0  0
  1 29  1  0  0  0
  1  4  1  0  0  0
 28 26  2  0  0  0
 31 30  1  0  0  0
  5  4  1  0  0  0
  5 12  1  0  0  0
 29 30  1  0  0  0
 23 24  1  0  0  0
 23 25  2  0  0  0
 26 25  1  0  0  0
 26 27  1  0  0  0
 12 13  1  0  0  0
 12 15  1  0  0  0
 15 16  1  0  0  0
 13 14  1  0  0  0
 16 17  1  0  0  0
M  END
> <minimizedAffinity>
-8.33021

$$$$
4W9O_3JQ_A_201


 41 44  0  0  0  0  0  0  0  0999 V2000
   14.0671    4.1146   14.2428 N   0  0  0  0  0  0  0  0  0  0  0  0
   13.8949    4.0345   12.8969 C   0  0  0  0  0  0  0  0  0  0  0  0
   13.4899    2.9617   12.4200 O   0  0  0  0  0  0  0  0  0  0  0  0
   14.5117    5.3371   14.9494 C   0  0  0  0  0  0  0  0  0  0  0  0
   15.9230    5.7587   14.4722 C   0  0  0  0  0  0  0  0  0  0  0  0
   15.8354    6.5027   13.1237 C   0  0  0  0  0  0  0  0  0  0  0  0
   16.8524    6.0126   12.0927 C   0  0  0  0  0  0  0  0  0  0  0  0
   16.5306    4.6931   11.5226 C   0  0  0  0  0  0  0  0  0  0  0  0
   15.1298    4.7235   10.9198 C   0  0  0  0  0  0  0  0  0  0  0  0
   14.0586    5.1335   11.9693 C   0  0  0  0  0  0  0  0  0  0  0  0
   14.4349    6.4154   12.6073 N   0  0  0  0  0  0  0  0  0  0  0  0
   16.6891    6.6327   15.5010 C   0  0  0  0  0  0  0  0  0  0  0  0
   16.0426    7.8968   15.5185 O   0  0  0  0  0  0  0  0  0  0  0  0
   15.1106    7.7800   15.7606 H   0  0  0  0  0  0  0  0  0  0  0  0
   16.6203    5.9977   16.8642 C   0  0  0  0  0  0  0  0  0  0  0  0
   17.7859    6.3965   17.5572 O   0  0  0  0  0  0  0  0  0  0  0  0
   18.5699    6.1084   17.0639 H   0  0  0  0  0  0  0  0  0  0  0  0
   13.8096    7.8067   11.9882 S   0  0  0  0  0  0  0  0  0  0  0  0
   12.9396    7.4433   10.8253 O   0  0  0  0  0  0  0  0  0  0  0  0
   14.8468    8.8446   11.8005 O   0  0  0  0  0  0  0  0  0  0  0  0
   12.7711    8.3600   13.2683 C   0  0  0  0  0  0  0  0  0  0  0  0
   13.1009    9.5359   13.9333 C   0  0  0  0  0  0  0  0  0  0  0  0
   12.2714   10.0335   14.9320 C   0  0  0  0  0  0  0  0  0  0  0  0
   12.6819   11.4737   15.7393 Cl  0  0  0  0  0  0  0  0  0  0  0  0
   11.1239    9.3578   15.2957 C   0  0  0  0  0  0  0  0  0  0  0  0
   10.7914    8.1856   14.6309 C   0  0  0  0  0  0  0  0  0  0  0  0
    9.3730    7.3596   15.0588 Cl  0  0  0  0  0  0  0  0  0  0  0  0
   11.6069    7.6950   13.6150 C   0  0  0  0  0  0  0  0  0  0  0  0
   13.9306    2.9118   15.0840 C   0  0  0  0  0  0  0  0  0  0  0  0
   15.2743    2.2318   15.3369 C   0  0  0  0  0  0  0  0  0  0  0  0
   15.3918    1.7457   16.6872 O   0  0  0  0  0  0  0  0  0  0  0  0
   17.9662    0.8640   19.0524 C   0  0  0  0  0  0  0  0  0  0  0  0
   16.7991    1.3332   18.5093 C   0  0  0  0  0  0  0  0  0  0  0  0
   18.9582    0.3292   18.2437 C   0  0  0  0  0  0  0  0  0  0  0  0
   18.7489    0.2224   16.8585 C   0  0  0  0  0  0  0  0  0  0  0  0
   17.5650    0.6840   16.2985 C   0  0  0  0  0  0  0  0  0  0  0  0
   16.5804    1.2536   17.1321 C   0  0  0  0  0  0  0  0  0  0  0  0
   17.1333    1.0533   21.2771 C   0  0  0  0  0  0  0  0  0  0  0  0
   18.2518    0.9406   20.3872 O   0  0  0  0  0  0  0  0  0  0  0  0
   20.0755   -0.0951   18.8881 O   0  0  0  0  0  0  0  0  0  0  0  0
   20.1855   -1.4566   19.2739 C   0  0  0  0  0  0  0  0  0  0  0  0
  9  8  1  0  0  0
  9 10  1  0  0  0
 19 18  2  0  0  0
 38 39  1  0  0  0
 39 32  1  0  0  0
 20 18  2  0  0  0
  8  7  1  0  0  0
 10 11  1  0  0  0
 10  2  1  0  0  0
 40 41  1  0  0  0
 40 34  1  0  0  0
 18 11  1  0  0  0
 18 21  1  0  0  0
  3  2  2  0  0  0
 32 34  2  0  0  0
 32 33  1  0  0  0
  7  6  1  0  0  0
 34 35  1  0  0  0
 11  6  1  0  0  0
  2  1  1  0  0  0
 33 37  2  0  0  0
 35 36  2  0  0  0
  6  5  1  0  0  0
 21 22  2  0  0  0
 21 28  1  0  0  0
 22 23  1  0  0  0
 37 36  1  0  0  0
 37 31  1  0  0  0
  1 29  1  0  0  0
  1  4  1  0  0  0
 28 26  2  0  0  0
 31 30  1  0  0  0
  5  4  1  0  0  0
  5 12  1  0  0  0
 29 30  1  0  0  0
 23 24  1  0  0  0
 23 25  2  0  0  0
 26 25  1  0  0  0
 26 27  1  0  0  0
 12 13  1  0  0  0
 12 15  1  0  0  0
 15 16  1  0  0  0
 13 14  1  0  0  0
 16 17  1  0  0  0
M  END
> <minimizedAffinity>
-8.17651

$$$$
4W9O_3JQ_A_201


 41 44  0  0  0  0  0  0  0  0999 V2000
   13.9504    4.0945   14.1800 N   0  0  0  0  0  0  0  0  0  0  0  0
   13.8362    4.0366   12.8269 C   0  0  0  0  0  0  0  0  0  0  0  0
   13.4188    2.9836   12.3177 O   0  0  0  0  0  0  0  0  0  0  0  0
   14.4019    5.2931   14.9224 C   0  0  0  0  0  0  0  0  0  0  0  0
   15.8460    5.6742   14.5143 C   0  0  0  0  0  0  0  0  0  0  0  0
   15.8428    6.4372   13.1736 C   0  0  0  0  0  0  0  0  0  0  0  0
   16.8888    5.9269   12.1820 C   0  0  0  0  0  0  0  0  0  0  0  0
   16.5506    4.6257   11.5802 C   0  0  0  0  0  0  0  0  0  0  0  0
   15.1800    4.7092   10.9162 C   0  0  0  0  0  0  0  0  0  0  0  0
   14.0766    5.1411   11.9226 C   0  0  0  0  0  0  0  0  0  0  0  0
   14.4648    6.4021   12.5943 N   0  0  0  0  0  0  0  0  0  0  0  0
   16.5928    6.5100   15.5879 C   0  0  0  0  0  0  0  0  0  0  0  0
   16.0848    7.8328   15.4961 O   0  0  0  0  0  0  0  0  0  0  0  0
   15.1261    7.8219   15.6433 H   0  0  0  0  0  0  0  0  0  0  0  0
   16.3208    5.9454   16.9567 C   0  0  0  0  0  0  0  0  0  0  0  0
   17.4646    6.2157   17.7421 O   0  0  0  0  0  0  0  0  0  0  0  0
   18.2427    5.8074   17.3312 H   0  0  0  0  0  0  0  0  0  0  0  0
   13.9128    7.8206   11.9673 S   0  0  0  0  0  0  0  0  0  0  0  0
   13.0349    7.4970   10.7986 O   0  0  0  0  0  0  0  0  0  0  0  0
   15.0008    8.8061   11.7851 O   0  0  0  0  0  0  0  0  0  0  0  0
   12.8929    8.4272   13.2381 C   0  0  0  0  0  0  0  0  0  0  0  0
   11.7080    7.7560   13.5197 C   0  0  0  0  0  0  0  0  0  0  0  0
   10.8884    8.1848   14.5578 C   0  0  0  0  0  0  0  0  0  0  0  0
    9.4412    7.3568   14.8963 Cl  0  0  0  0  0  0  0  0  0  0  0  0
   11.2238    9.2945   15.3072 C   0  0  0  0  0  0  0  0  0  0  0  0
   12.4077    9.9638   15.0297 C   0  0  0  0  0  0  0  0  0  0  0  0
   12.8365   11.3169   15.9584 Cl  0  0  0  0  0  0  0  0  0  0  0  0
   13.2427    9.5253   14.0059 C   0  0  0  0  0  0  0  0  0  0  0  0
   13.7378    2.8866   14.9977 C   0  0  0  0  0  0  0  0  0  0  0  0
   14.9601    2.5450   15.8470 C   0  0  0  0  0  0  0  0  0  0  0  0
   14.5958    2.0327   17.1425 O   0  0  0  0  0  0  0  0  0  0  0  0
   12.9910   -1.1754   17.5054 C   0  0  0  0  0  0  0  0  0  0  0  0
   13.1975    0.1660   17.3176 C   0  0  0  0  0  0  0  0  0  0  0  0
   14.0579   -2.0287   17.7460 C   0  0  0  0  0  0  0  0  0  0  0  0
   15.3692   -1.5241   17.7511 C   0  0  0  0  0  0  0  0  0  0  0  0
   15.5912   -0.1682   17.5502 C   0  0  0  0  0  0  0  0  0  0  0  0
   14.4922    0.6897   17.3384 C   0  0  0  0  0  0  0  0  0  0  0  0
   10.7332   -1.0949   16.7474 C   0  0  0  0  0  0  0  0  0  0  0  0
   11.7476   -1.7433   17.5259 O   0  0  0  0  0  0  0  0  0  0  0  0
   13.7353   -3.3351   17.9273 O   0  0  0  0  0  0  0  0  0  0  0  0
   14.0991   -4.2884   16.9406 C   0  0  0  0  0  0  0  0  0  0  0  0
  9  8  1  0  0  0
  9 10  1  0  0  0
 19 18  2  0  0  0
 38 39  1  0  0  0
 39 32  1  0  0  0
 20 18  2  0  0  0
  8  7  1  0  0  0
 10 11  1  0  0  0
 10  2  1  0  0  0
 40 41  1  0  0  0
 40 34  1  0  0  0
 18 11  1  0  0  0
 18 21  1  0  0  0
  3  2  2  0  0  0
 32 34  2  0  0  0
 32 33  1  0  0  0
  7  6  1  0  0  0
 34 35  1  0  0  0
 11  6  1  0  0  0
  2  1  1  0  0  0
 33 37  2  0  0  0
 35 36  2  0  0  0
  6  5  1  0  0  0
 21 22  2  0  0  0
 21 28  1  0  0  0
 22 23  1  0  0  0
 37 36  1  0  0  0
 37 31  1  0  0  0
  1 29  1  0  0  0
  1  4  1  0  0  0
 28 26  2  0  0  0
 31 30  1  0  0  0
  5  4  1  0  0  0
  5 12  1  0  0  0
 29 30  1  0  0  0
 23 24  1  0  0  0
 23 25  2  0  0  0
 26 25  1  0  0  0
 26 27  1  0  0  0
 12 13  1  0  0  0
 12 15  1  0  0  0
 15 16  1  0  0  0
 13 14  1  0  0  0
 16 17  1  0  0  0
M  END
> <minimizedAffinity>
-7.97566

$$$$
