2QBU_SAH_B_501


 33 35  0  0  0  0  0  0  0  0999 V2000
  -21.4771   36.8651   -4.5001 C   0  0  0  0  0  0  0  0  0  0  0  0
  -22.8167   37.2734   -4.3178 O   0  0  0  0  0  0  0  0  0  0  0  0
  -20.9882   37.5079   -5.7913 C   0  0  0  0  0  0  0  0  0  0  0  0
  -19.9733   36.7558   -6.4255 O   0  0  0  0  0  0  0  0  0  0  0  0
  -22.2720   37.5213   -6.6072 C   0  0  0  0  0  0  0  0  0  0  0  0
  -22.4853   36.2930   -7.3079 O   0  0  0  0  0  0  0  0  0  0  0  0
  -23.3599   37.7105   -5.5461 C   0  0  0  0  0  0  0  0  0  0  0  0
  -20.2954   35.8568   -6.5953 H   0  0  0  0  0  0  0  0  0  0  0  0
  -22.5099   35.5592   -6.6739 H   0  0  0  0  0  0  0  0  0  0  0  0
  -23.8020   39.1286   -5.3810 N   0  0  0  0  0  0  0  0  0  0  0  0
  -23.7112   39.9039   -4.2496 C   0  0  0  0  0  0  0  0  0  0  0  0
  -24.2529   41.1250   -4.4930 N   0  0  0  0  0  0  0  0  0  0  0  0
  -24.6560   41.1441   -5.7703 C   0  0  0  0  0  0  0  0  0  0  0  0
  -25.2658   42.1273   -6.5272 C   0  0  0  0  0  0  0  0  0  0  0  0
  -25.5397   43.3163   -5.9846 N   0  0  0  0  0  0  0  0  0  0  0  0
  -25.5923   41.8308   -7.8273 N   0  0  0  0  0  0  0  0  0  0  0  0
  -25.3284   40.6059   -8.3950 C   0  0  0  0  0  0  0  0  0  0  0  0
  -24.7238   39.6335   -7.6404 N   0  0  0  0  0  0  0  0  0  0  0  0
  -24.3985   39.9000   -6.3416 C   0  0  0  0  0  0  0  0  0  0  0  0
  -25.2931   43.4991   -5.0492 H   0  0  0  0  0  0  0  0  0  0  0  0
  -25.9883   44.0101   -6.5200 H   0  0  0  0  0  0  0  0  0  0  0  0
  -20.7224   37.2056   -3.2300 C   0  0  0  0  0  0  0  0  0  0  0  0
  -21.3486   36.1323   -1.9046 S   0  0  0  0  0  0  0  0  0  0  0  0
  -21.5606   37.4485   -0.6692 C   0  0  0  0  0  0  0  0  0  0  0  0
  -22.9988   37.9607   -0.6506 C   0  0  0  0  0  0  0  0  0  0  0  0
  -24.6894   36.9094   -2.1461 N   0  0  0  0  0  0  0  0  0  0  0  0
  -24.1072   36.9073   -0.7765 C   0  0  0  0  0  0  0  0  0  0  0  0
  -23.9550   36.7196   -2.8280 H   0  0  0  0  0  0  0  0  0  0  0  0
  -25.1040   37.8214   -2.3378 H   0  0  0  0  0  0  0  0  0  0  0  0
  -25.2207   37.1931    0.2316 C   0  0  0  0  0  0  0  0  0  0  0  0
  -26.3496   37.4510   -0.1221 O   0  0  0  0  0  0  0  0  0  0  0  0
  -25.0195   37.1868    1.4337 O   0  0  0  0  0  0  0  0  0  0  0  0
  -24.1644   36.9937    1.7645 H   0  0  0  0  0  0  0  0  0  0  0  0
 26 27  1  0  0  0
 27 25  1  0  0  0
 27 30  1  0  0  0
 25 24  1  0  0  0
 24 23  1  0  0  0
 23 22  1  0  0  0
 30 31  2  0  0  0
 30 32  1  0  0  0
 22  1  1  0  0  0
  1  2  1  0  0  0
  1  3  1  0  0  0
  2  7  1  0  0  0
  3  4  1  0  0  0
  3  5  1  0  0  0
  5  6  1  0  0  0
  5  7  1  0  0  0
  7 10  1  0  0  0
 10 11  1  0  0  0
 10 19  1  0  0  0
 11 12  2  0  0  0
 12 13  1  0  0  0
 13 14  1  0  0  0
 13 19  2  0  0  0
 14 15  1  0  0  0
 14 16  2  0  0  0
 16 17  1  0  0  0
 17 18  2  0  0  0
 18 19  1  0  0  0
 26 28  1  0  0  0
 26 29  1  0  0  0
 32 33  1  0  0  0
  4  8  1  0  0  0
  6  9  1  0  0  0
 15 20  1  0  0  0
 15 21  1  0  0  0
M  END
> <minimizedAffinity>
-10.52716

$$$$
2QBU_SAH_B_501


 33 35  0  0  0  0  0  0  0  0999 V2000
  -21.3460   36.9408   -4.6112 C   0  0  0  0  0  0  0  0  0  0  0  0
  -22.6660   37.3428   -4.3104 O   0  0  0  0  0  0  0  0  0  0  0  0
  -21.0021   37.5281   -5.9738 C   0  0  0  0  0  0  0  0  0  0  0  0
  -20.0460   36.7582   -6.6746 O   0  0  0  0  0  0  0  0  0  0  0  0
  -22.3628   37.4897   -6.6527 C   0  0  0  0  0  0  0  0  0  0  0  0
  -22.6278   36.2279   -7.2713 O   0  0  0  0  0  0  0  0  0  0  0  0
  -23.3389   37.7165   -5.4946 C   0  0  0  0  0  0  0  0  0  0  0  0
  -20.3699   35.8488   -6.7695 H   0  0  0  0  0  0  0  0  0  0  0  0
  -22.5760   35.5242   -6.6058 H   0  0  0  0  0  0  0  0  0  0  0  0
  -23.7836   39.1359   -5.3490 N   0  0  0  0  0  0  0  0  0  0  0  0
  -23.6903   39.9282   -4.2297 C   0  0  0  0  0  0  0  0  0  0  0  0
  -24.2356   41.1443   -4.4893 N   0  0  0  0  0  0  0  0  0  0  0  0
  -24.6436   41.1435   -5.7651 C   0  0  0  0  0  0  0  0  0  0  0  0
  -25.2585   42.1140   -6.5343 C   0  0  0  0  0  0  0  0  0  0  0  0
  -25.5330   43.3103   -6.0085 N   0  0  0  0  0  0  0  0  0  0  0  0
  -25.5891   41.7973   -7.8286 N   0  0  0  0  0  0  0  0  0  0  0  0
  -25.3246   40.5646   -8.3790 C   0  0  0  0  0  0  0  0  0  0  0  0
  -24.7150   39.6049   -7.6122 N   0  0  0  0  0  0  0  0  0  0  0  0
  -24.3855   39.8915   -6.3187 C   0  0  0  0  0  0  0  0  0  0  0  0
  -25.2832   43.5076   -5.0769 H   0  0  0  0  0  0  0  0  0  0  0  0
  -25.9851   43.9950   -6.5525 H   0  0  0  0  0  0  0  0  0  0  0  0
  -20.4704   37.3481   -3.4425 C   0  0  0  0  0  0  0  0  0  0  0  0
  -21.3763   36.9785   -1.9117 S   0  0  0  0  0  0  0  0  0  0  0  0
  -20.4300   38.1063   -0.8458 C   0  0  0  0  0  0  0  0  0  0  0  0
  -20.8338   37.9498    0.6183 C   0  0  0  0  0  0  0  0  0  0  0  0
  -18.8776   37.1495    1.9347 N   0  0  0  0  0  0  0  0  0  0  0  0
  -19.7733   38.3077    1.6677 C   0  0  0  0  0  0  0  0  0  0  0  0
  -18.4217   36.8653    1.0676 H   0  0  0  0  0  0  0  0  0  0  0  0
  -19.4272   36.3720    2.3006 H   0  0  0  0  0  0  0  0  0  0  0  0
  -20.4475   38.7198    2.9767 C   0  0  0  0  0  0  0  0  0  0  0  0
  -19.8782   38.6321    4.0417 O   0  0  0  0  0  0  0  0  0  0  0  0
  -21.5903   39.1421    3.0083 O   0  0  0  0  0  0  0  0  0  0  0  0
  -22.0791   39.2309    2.2139 H   0  0  0  0  0  0  0  0  0  0  0  0
 26 27  1  0  0  0
 27 25  1  0  0  0
 27 30  1  0  0  0
 25 24  1  0  0  0
 24 23  1  0  0  0
 23 22  1  0  0  0
 30 31  2  0  0  0
 30 32  1  0  0  0
 22  1  1  0  0  0
  1  2  1  0  0  0
  1  3  1  0  0  0
  2  7  1  0  0  0
  3  4  1  0  0  0
  3  5  1  0  0  0
  5  6  1  0  0  0
  5  7  1  0  0  0
  7 10  1  0  0  0
 10 11  1  0  0  0
 10 19  1  0  0  0
 11 12  2  0  0  0
 12 13  1  0  0  0
 13 14  1  0  0  0
 13 19  2  0  0  0
 14 15  1  0  0  0
 14 16  2  0  0  0
 16 17  1  0  0  0
 17 18  2  0  0  0
 18 19  1  0  0  0
 26 28  1  0  0  0
 26 29  1  0  0  0
 32 33  1  0  0  0
  4  8  1  0  0  0
  6  9  1  0  0  0
 15 20  1  0  0  0
 15 21  1  0  0  0
M  END
> <minimizedAffinity>
-9.25044

$$$$
2QBU_SAH_B_501


 33 35  0  0  0  0  0  0  0  0999 V2000
  -21.6647   37.6088   -2.1750 C   0  0  0  0  0  0  0  0  0  0  0  0
  -21.7263   38.7082   -3.0593 O   0  0  0  0  0  0  0  0  0  0  0  0
  -23.0837   37.0750   -2.0299 C   0  0  0  0  0  0  0  0  0  0  0  0
  -23.3045   36.4427   -0.7852 O   0  0  0  0  0  0  0  0  0  0  0  0
  -23.8866   38.3606   -2.1583 C   0  0  0  0  0  0  0  0  0  0  0  0
  -24.0238   39.0446   -0.9100 O   0  0  0  0  0  0  0  0  0  0  0  0
  -23.0475   39.2031   -3.1235 C   0  0  0  0  0  0  0  0  0  0  0  0
  -23.1003   37.0620   -0.0671 H   0  0  0  0  0  0  0  0  0  0  0  0
  -23.1446   39.2441   -0.5522 H   0  0  0  0  0  0  0  0  0  0  0  0
  -23.5042   39.1273   -4.5446 N   0  0  0  0  0  0  0  0  0  0  0  0
  -23.3436   38.0774   -5.4172 C   0  0  0  0  0  0  0  0  0  0  0  0
  -23.8668   38.4090   -6.6255 N   0  0  0  0  0  0  0  0  0  0  0  0
  -24.3840   39.6402   -6.5210 C   0  0  0  0  0  0  0  0  0  0  0  0
  -25.0295   40.4471   -7.4395 C   0  0  0  0  0  0  0  0  0  0  0  0
  -25.2343   40.0120   -8.6853 N   0  0  0  0  0  0  0  0  0  0  0  0
  -25.4243   41.6979   -7.0339 N   0  0  0  0  0  0  0  0  0  0  0  0
  -25.2078   42.1641   -5.7579 C   0  0  0  0  0  0  0  0  0  0  0  0
  -24.5667   41.3606   -4.8503 N   0  0  0  0  0  0  0  0  0  0  0  0
  -24.1547   40.1162   -5.2320 C   0  0  0  0  0  0  0  0  0  0  0  0
  -24.9397   39.1096   -8.9462 H   0  0  0  0  0  0  0  0  0  0  0  0
  -25.6800   40.5936   -9.3428 H   0  0  0  0  0  0  0  0  0  0  0  0
  -20.6184   36.6523   -2.7128 C   0  0  0  0  0  0  0  0  0  0  0  0
  -19.4247   36.3264   -1.3826 S   0  0  0  0  0  0  0  0  0  0  0  0
  -19.6858   37.8915   -0.4961 C   0  0  0  0  0  0  0  0  0  0  0  0
  -19.4432   37.7236    1.0020 C   0  0  0  0  0  0  0  0  0  0  0  0
  -21.7826   38.5604    1.1653 N   0  0  0  0  0  0  0  0  0  0  0  0
  -20.6354   37.9974    1.9281 C   0  0  0  0  0  0  0  0  0  0  0  0
  -22.0585   37.9056    0.4335 H   0  0  0  0  0  0  0  0  0  0  0  0
  -21.5074   39.4468    0.7423 H   0  0  0  0  0  0  0  0  0  0  0  0
  -20.2357   38.9909    3.0194 C   0  0  0  0  0  0  0  0  0  0  0  0
  -19.8316   38.6222    4.0996 O   0  0  0  0  0  0  0  0  0  0  0  0
  -20.3179   40.1959    2.8560 O   0  0  0  0  0  0  0  0  0  0  0  0
  -20.6246   40.5381    2.0394 H   0  0  0  0  0  0  0  0  0  0  0  0
 26 27  1  0  0  0
 27 25  1  0  0  0
 27 30  1  0  0  0
 25 24  1  0  0  0
 24 23  1  0  0  0
 23 22  1  0  0  0
 30 31  2  0  0  0
 30 32  1  0  0  0
 22  1  1  0  0  0
  1  2  1  0  0  0
  1  3  1  0  0  0
  2  7  1  0  0  0
  3  4  1  0  0  0
  3  5  1  0  0  0
  5  6  1  0  0  0
  5  7  1  0  0  0
  7 10  1  0  0  0
 10 11  1  0  0  0
 10 19  1  0  0  0
 11 12  2  0  0  0
 12 13  1  0  0  0
 13 14  1  0  0  0
 13 19  2  0  0  0
 14 15  1  0  0  0
 14 16  2  0  0  0
 16 17  1  0  0  0
 17 18  2  0  0  0
 18 19  1  0  0  0
 26 28  1  0  0  0
 26 29  1  0  0  0
 32 33  1  0  0  0
  4  8  1  0  0  0
  6  9  1  0  0  0
 15 20  1  0  0  0
 15 21  1  0  0  0
M  END
> <minimizedAffinity>
-8.47368

$$$$
2QBU_SAH_B_501


 33 35  0  0  0  0  0  0  0  0999 V2000
  -23.3559   37.9709   -2.7352 C   0  0  0  0  0  0  0  0  0  0  0  0
  -22.0280   37.6296   -2.3966 O   0  0  0  0  0  0  0  0  0  0  0  0
  -23.9906   38.5758   -1.4898 C   0  0  0  0  0  0  0  0  0  0  0  0
  -25.3913   38.3913   -1.4464 O   0  0  0  0  0  0  0  0  0  0  0  0
  -23.2848   37.7864   -0.3978 C   0  0  0  0  0  0  0  0  0  0  0  0
  -23.9346   36.5439   -0.1168 O   0  0  0  0  0  0  0  0  0  0  0  0
  -21.8986   37.5253   -0.9941 C   0  0  0  0  0  0  0  0  0  0  0  0
  -25.5947   37.4446   -1.5047 H   0  0  0  0  0  0  0  0  0  0  0  0
  -23.9787   36.0117   -0.9265 H   0  0  0  0  0  0  0  0  0  0  0  0
  -20.8566   38.5001   -0.5493 N   0  0  0  0  0  0  0  0  0  0  0  0
  -19.9959   39.2205   -1.3427 C   0  0  0  0  0  0  0  0  0  0  0  0
  -19.1788   39.9706   -0.5594 N   0  0  0  0  0  0  0  0  0  0  0  0
  -19.5310   39.7594    0.7156 C   0  0  0  0  0  0  0  0  0  0  0  0
  -19.0339   40.2652    1.9025 C   0  0  0  0  0  0  0  0  0  0  0  0
  -18.0236   41.1383    1.8870 N   0  0  0  0  0  0  0  0  0  0  0  0
  -19.5949   39.8257    3.0759 N   0  0  0  0  0  0  0  0  0  0  0  0
  -20.6268   38.9166    3.1073 C   0  0  0  0  0  0  0  0  0  0  0  0
  -21.1163   38.4171    1.9277 N   0  0  0  0  0  0  0  0  0  0  0  0
  -20.5685   38.8304    0.7474 C   0  0  0  0  0  0  0  0  0  0  0  0
  -17.6423   41.4347    1.0291 H   0  0  0  0  0  0  0  0  0  0  0  0
  -17.6602   41.4856    2.7334 H   0  0  0  0  0  0  0  0  0  0  0  0
  -23.2982   38.8429   -3.9742 C   0  0  0  0  0  0  0  0  0  0  0  0
  -22.9788   37.7642   -5.4007 S   0  0  0  0  0  0  0  0  0  0  0  0
  -23.9123   38.7521   -6.6074 C   0  0  0  0  0  0  0  0  0  0  0  0
  -24.0485   40.2012   -6.1460 C   0  0  0  0  0  0  0  0  0  0  0  0
  -25.1453   41.5105   -7.9578 N   0  0  0  0  0  0  0  0  0  0  0  0
  -25.3122   40.9497   -6.5894 C   0  0  0  0  0  0  0  0  0  0  0  0
  -24.9452   40.7547   -8.6128 H   0  0  0  0  0  0  0  0  0  0  0  0
  -24.3725   42.1762   -7.9604 H   0  0  0  0  0  0  0  0  0  0  0  0
  -25.6112   42.0952   -5.6218 C   0  0  0  0  0  0  0  0  0  0  0  0
  -25.3634   42.0117   -4.4395 O   0  0  0  0  0  0  0  0  0  0  0  0
  -26.1229   43.1369   -5.9941 O   0  0  0  0  0  0  0  0  0  0  0  0
  -26.3364   43.2569   -6.8985 H   0  0  0  0  0  0  0  0  0  0  0  0
 26 27  1  0  0  0
 27 25  1  0  0  0
 27 30  1  0  0  0
 25 24  1  0  0  0
 24 23  1  0  0  0
 23 22  1  0  0  0
 30 31  2  0  0  0
 30 32  1  0  0  0
 22  1  1  0  0  0
  1  2  1  0  0  0
  1  3  1  0  0  0
  2  7  1  0  0  0
  3  4  1  0  0  0
  3  5  1  0  0  0
  5  6  1  0  0  0
  5  7  1  0  0  0
  7 10  1  0  0  0
 10 11  1  0  0  0
 10 19  1  0  0  0
 11 12  2  0  0  0
 12 13  1  0  0  0
 13 14  1  0  0  0
 13 19  2  0  0  0
 14 15  1  0  0  0
 14 16  2  0  0  0
 16 17  1  0  0  0
 17 18  2  0  0  0
 18 19  1  0  0  0
 26 28  1  0  0  0
 26 29  1  0  0  0
 32 33  1  0  0  0
  4  8  1  0  0  0
  6  9  1  0  0  0
 15 20  1  0  0  0
 15 21  1  0  0  0
M  END
> <minimizedAffinity>
-7.95040

$$$$
2QBU_SAH_B_501


 33 35  0  0  0  0  0  0  0  0999 V2000
  -21.4604   38.4123    0.1955 C   0  0  0  0  0  0  0  0  0  0  0  0
  -21.4482   39.1113   -1.0315 O   0  0  0  0  0  0  0  0  0  0  0  0
  -22.3266   37.1758   -0.0060 C   0  0  0  0  0  0  0  0  0  0  0  0
  -22.9382   36.7368    1.1903 O   0  0  0  0  0  0  0  0  0  0  0  0
  -23.3497   37.7032   -1.0005 C   0  0  0  0  0  0  0  0  0  0  0  0
  -24.4467   38.3583   -0.3583 O   0  0  0  0  0  0  0  0  0  0  0  0
  -22.5486   38.7161   -1.8237 C   0  0  0  0  0  0  0  0  0  0  0  0
  -23.4623   37.4595    1.5696 H   0  0  0  0  0  0  0  0  0  0  0  0
  -24.1135   39.0896    0.1848 H   0  0  0  0  0  0  0  0  0  0  0  0
  -22.0224   38.1671   -3.1104 N   0  0  0  0  0  0  0  0  0  0  0  0
  -20.9103   37.3791   -3.2878 C   0  0  0  0  0  0  0  0  0  0  0  0
  -20.7481   37.1161   -4.6100 N   0  0  0  0  0  0  0  0  0  0  0  0
  -21.7586   37.6995   -5.2679 C   0  0  0  0  0  0  0  0  0  0  0  0
  -22.0743   37.7464   -6.6131 C   0  0  0  0  0  0  0  0  0  0  0  0
  -21.3008   37.1215   -7.5043 N   0  0  0  0  0  0  0  0  0  0  0  0
  -23.1810   38.4656   -6.9910 N   0  0  0  0  0  0  0  0  0  0  0  0
  -23.9790   39.1253   -6.0853 C   0  0  0  0  0  0  0  0  0  0  0  0
  -23.6618   39.0765   -4.7521 N   0  0  0  0  0  0  0  0  0  0  0  0
  -22.5602   38.3766   -4.3515 C   0  0  0  0  0  0  0  0  0  0  0  0
  -20.5136   36.6134   -7.2023 H   0  0  0  0  0  0  0  0  0  0  0  0
  -21.5179   37.1689   -8.4634 H   0  0  0  0  0  0  0  0  0  0  0  0
  -20.0177   38.1861    0.6031 C   0  0  0  0  0  0  0  0  0  0  0  0
  -19.0791   39.6847    0.1861 S   0  0  0  0  0  0  0  0  0  0  0  0
  -18.3526   39.9268    1.8345 C   0  0  0  0  0  0  0  0  0  0  0  0
  -17.5265   41.2097    1.8898 C   0  0  0  0  0  0  0  0  0  0  0  0
  -19.5305   42.1116    3.0604 N   0  0  0  0  0  0  0  0  0  0  0  0
  -18.2361   42.4641    2.4163 C   0  0  0  0  0  0  0  0  0  0  0  0
  -19.3621   41.4630    3.8295 H   0  0  0  0  0  0  0  0  0  0  0  0
  -20.1437   41.6727    2.3736 H   0  0  0  0  0  0  0  0  0  0  0  0
  -18.5072   43.4357    1.2673 C   0  0  0  0  0  0  0  0  0  0  0  0
  -17.6126   44.0413    0.7205 O   0  0  0  0  0  0  0  0  0  0  0  0
  -19.6349   43.6534    0.8594 O   0  0  0  0  0  0  0  0  0  0  0  0
  -20.3660   43.2126    1.2457 H   0  0  0  0  0  0  0  0  0  0  0  0
 26 27  1  0  0  0
 27 25  1  0  0  0
 27 30  1  0  0  0
 25 24  1  0  0  0
 24 23  1  0  0  0
 23 22  1  0  0  0
 30 31  2  0  0  0
 30 32  1  0  0  0
 22  1  1  0  0  0
  1  2  1  0  0  0
  1  3  1  0  0  0
  2  7  1  0  0  0
  3  4  1  0  0  0
  3  5  1  0  0  0
  5  6  1  0  0  0
  5  7  1  0  0  0
  7 10  1  0  0  0
 10 11  1  0  0  0
 10 19  1  0  0  0
 11 12  2  0  0  0
 12 13  1  0  0  0
 13 14  1  0  0  0
 13 19  2  0  0  0
 14 15  1  0  0  0
 14 16  2  0  0  0
 16 17  1  0  0  0
 17 18  2  0  0  0
 18 19  1  0  0  0
 26 28  1  0  0  0
 26 29  1  0  0  0
 32 33  1  0  0  0
  4  8  1  0  0  0
  6  9  1  0  0  0
 15 20  1  0  0  0
 15 21  1  0  0  0
M  END
> <minimizedAffinity>
-7.85441

$$$$
2QBU_SAH_B_501


 33 35  0  0  0  0  0  0  0  0999 V2000
  -21.0026   37.6317    0.0874 C   0  0  0  0  0  0  0  0  0  0  0  0
  -22.2463   37.3975   -0.5393 O   0  0  0  0  0  0  0  0  0  0  0  0
  -19.9408   37.5939   -1.0039 C   0  0  0  0  0  0  0  0  0  0  0  0
  -18.6753   37.1904   -0.5206 O   0  0  0  0  0  0  0  0  0  0  0  0
  -20.5384   36.5613   -1.9476 C   0  0  0  0  0  0  0  0  0  0  0  0
  -20.1961   35.2228   -1.5782 O   0  0  0  0  0  0  0  0  0  0  0  0
  -22.0468   36.7746   -1.7911 C   0  0  0  0  0  0  0  0  0  0  0  0
  -18.7537   36.3229   -0.0939 H   0  0  0  0  0  0  0  0  0  0  0  0
  -20.4983   35.0500   -0.6728 H   0  0  0  0  0  0  0  0  0  0  0  0
  -22.6457   37.6477   -2.8460 N   0  0  0  0  0  0  0  0  0  0  0  0
  -23.2999   38.8432   -2.6664 C   0  0  0  0  0  0  0  0  0  0  0  0
  -23.7253   39.3113   -3.8679 N   0  0  0  0  0  0  0  0  0  0  0  0
  -23.3225   38.4459   -4.8076 C   0  0  0  0  0  0  0  0  0  0  0  0
  -23.4845   38.4385   -6.1806 C   0  0  0  0  0  0  0  0  0  0  0  0
  -24.1398   39.4341   -6.7826 N   0  0  0  0  0  0  0  0  0  0  0  0
  -22.9740   37.3760   -6.8845 N   0  0  0  0  0  0  0  0  0  0  0  0
  -22.3088   36.3370   -6.2760 C   0  0  0  0  0  0  0  0  0  0  0  0
  -22.1508   36.3482   -4.9139 N   0  0  0  0  0  0  0  0  0  0  0  0
  -22.6585   37.3884   -4.1899 C   0  0  0  0  0  0  0  0  0  0  0  0
  -24.4944   40.1827   -6.2505 H   0  0  0  0  0  0  0  0  0  0  0  0
  -24.2682   39.4196   -7.7586 H   0  0  0  0  0  0  0  0  0  0  0  0
  -21.1303   38.9161    0.8828 C   0  0  0  0  0  0  0  0  0  0  0  0
  -20.3005   38.6679    2.4798 S   0  0  0  0  0  0  0  0  0  0  0  0
  -18.7485   39.4980    2.0262 C   0  0  0  0  0  0  0  0  0  0  0  0
  -19.0184   40.8384    1.3465 C   0  0  0  0  0  0  0  0  0  0  0  0
  -19.5575   42.2070    3.3555 N   0  0  0  0  0  0  0  0  0  0  0  0
  -18.6859   42.0998    2.1540 C   0  0  0  0  0  0  0  0  0  0  0  0
  -19.4330   41.3809    3.9407 H   0  0  0  0  0  0  0  0  0  0  0  0
  -20.5326   42.2729    3.0633 H   0  0  0  0  0  0  0  0  0  0  0  0
  -18.8852   43.3450    1.2893 C   0  0  0  0  0  0  0  0  0  0  0  0
  -17.9744   44.1052    1.0474 O   0  0  0  0  0  0  0  0  0  0  0  0
  -19.9705   43.6344    0.8162 O   0  0  0  0  0  0  0  0  0  0  0  0
  -20.7114   43.0820    0.9708 H   0  0  0  0  0  0  0  0  0  0  0  0
 26 27  1  0  0  0
 27 25  1  0  0  0
 27 30  1  0  0  0
 25 24  1  0  0  0
 24 23  1  0  0  0
 23 22  1  0  0  0
 30 31  2  0  0  0
 30 32  1  0  0  0
 22  1  1  0  0  0
  1  2  1  0  0  0
  1  3  1  0  0  0
  2  7  1  0  0  0
  3  4  1  0  0  0
  3  5  1  0  0  0
  5  6  1  0  0  0
  5  7  1  0  0  0
  7 10  1  0  0  0
 10 11  1  0  0  0
 10 19  1  0  0  0
 11 12  2  0  0  0
 12 13  1  0  0  0
 13 14  1  0  0  0
 13 19  2  0  0  0
 14 15  1  0  0  0
 14 16  2  0  0  0
 16 17  1  0  0  0
 17 18  2  0  0  0
 18 19  1  0  0  0
 26 28  1  0  0  0
 26 29  1  0  0  0
 32 33  1  0  0  0
  4  8  1  0  0  0
  6  9  1  0  0  0
 15 20  1  0  0  0
 15 21  1  0  0  0
M  END
> <minimizedAffinity>
-7.77453

$$$$
2QBU_SAH_B_501


 33 35  0  0  0  0  0  0  0  0999 V2000
  -22.8948   38.1935    0.2764 C   0  0  0  0  0  0  0  0  0  0  0  0
  -22.5867   38.8160   -0.9532 O   0  0  0  0  0  0  0  0  0  0  0  0
  -23.9776   37.1606   -0.0073 C   0  0  0  0  0  0  0  0  0  0  0  0
  -24.8067   36.9175    1.1114 O   0  0  0  0  0  0  0  0  0  0  0  0
  -24.7375   37.8457   -1.1329 C   0  0  0  0  0  0  0  0  0  0  0  0
  -25.7352   38.7476   -0.6469 O   0  0  0  0  0  0  0  0  0  0  0  0
  -23.6449   38.6263   -1.8692 C   0  0  0  0  0  0  0  0  0  0  0  0
  -25.2034   37.7518    1.4072 H   0  0  0  0  0  0  0  0  0  0  0  0
  -25.3186   39.4163   -0.0811 H   0  0  0  0  0  0  0  0  0  0  0  0
  -23.1012   37.9188   -3.0683 N   0  0  0  0  0  0  0  0  0  0  0  0
  -22.3280   36.7826   -3.0865 C   0  0  0  0  0  0  0  0  0  0  0  0
  -22.0088   36.4728   -4.3694 N   0  0  0  0  0  0  0  0  0  0  0  0
  -22.5948   37.3776   -5.1644 C   0  0  0  0  0  0  0  0  0  0  0  0
  -22.5983   37.5288   -6.5387 C   0  0  0  0  0  0  0  0  0  0  0  0
  -21.9344   36.6633   -7.3089 N   0  0  0  0  0  0  0  0  0  0  0  0
  -23.2801   38.5963   -7.0683 N   0  0  0  0  0  0  0  0  0  0  0  0
  -23.9569   39.5031   -6.2861 C   0  0  0  0  0  0  0  0  0  0  0  0
  -23.9504   39.3496   -4.9234 N   0  0  0  0  0  0  0  0  0  0  0  0
  -23.2710   38.3020   -4.3713 C   0  0  0  0  0  0  0  0  0  0  0  0
  -21.4547   35.9073   -6.8994 H   0  0  0  0  0  0  0  0  0  0  0  0
  -21.9245   36.7812   -8.2863 H   0  0  0  0  0  0  0  0  0  0  0  0
  -21.5936   37.6862    0.8665 C   0  0  0  0  0  0  0  0  0  0  0  0
  -20.2276   38.4688   -0.0402 S   0  0  0  0  0  0  0  0  0  0  0  0
  -19.8926   39.7650    1.1891 C   0  0  0  0  0  0  0  0  0  0  0  0
  -18.4147   39.7932    1.5716 C   0  0  0  0  0  0  0  0  0  0  0  0
  -18.0754   37.5576    2.6141 N   0  0  0  0  0  0  0  0  0  0  0  0
  -18.0165   39.0274    2.8401 C   0  0  0  0  0  0  0  0  0  0  0  0
  -17.4494   37.3059    1.8492 H   0  0  0  0  0  0  0  0  0  0  0  0
  -19.0298   37.2884    2.3751 H   0  0  0  0  0  0  0  0  0  0  0  0
  -18.9598   39.3865    3.9886 C   0  0  0  0  0  0  0  0  0  0  0  0
  -18.9863   40.4983    4.4674 O   0  0  0  0  0  0  0  0  0  0  0  0
  -19.7167   38.5681    4.4812 O   0  0  0  0  0  0  0  0  0  0  0  0
  -19.7387   37.6917    4.1505 H   0  0  0  0  0  0  0  0  0  0  0  0
 26 27  1  0  0  0
 27 25  1  0  0  0
 27 30  1  0  0  0
 25 24  1  0  0  0
 24 23  1  0  0  0
 23 22  1  0  0  0
 30 31  2  0  0  0
 30 32  1  0  0  0
 22  1  1  0  0  0
  1  2  1  0  0  0
  1  3  1  0  0  0
  2  7  1  0  0  0
  3  4  1  0  0  0
  3  5  1  0  0  0
  5  6  1  0  0  0
  5  7  1  0  0  0
  7 10  1  0  0  0
 10 11  1  0  0  0
 10 19  1  0  0  0
 11 12  2  0  0  0
 12 13  1  0  0  0
 13 14  1  0  0  0
 13 19  2  0  0  0
 14 15  1  0  0  0
 14 16  2  0  0  0
 16 17  1  0  0  0
 17 18  2  0  0  0
 18 19  1  0  0  0
 26 28  1  0  0  0
 26 29  1  0  0  0
 32 33  1  0  0  0
  4  8  1  0  0  0
  6  9  1  0  0  0
 15 20  1  0  0  0
 15 21  1  0  0  0
M  END
> <minimizedAffinity>
-7.75067

$$$$
2QBU_SAH_B_501


 33 35  0  0  0  0  0  0  0  0999 V2000
  -21.8753   37.6096   -1.9047 C   0  0  0  0  0  0  0  0  0  0  0  0
  -21.8724   38.7078   -2.7927 O   0  0  0  0  0  0  0  0  0  0  0  0
  -23.3051   37.0880   -1.8477 C   0  0  0  0  0  0  0  0  0  0  0  0
  -23.6085   36.4598   -0.6184 O   0  0  0  0  0  0  0  0  0  0  0  0
  -24.0875   38.3799   -2.0279 C   0  0  0  0  0  0  0  0  0  0  0  0
  -24.2967   39.0674   -0.7914 O   0  0  0  0  0  0  0  0  0  0  0  0
  -23.1828   39.2135   -2.9400 C   0  0  0  0  0  0  0  0  0  0  0  0
  -23.4443   37.0788    0.1102 H   0  0  0  0  0  0  0  0  0  0  0  0
  -23.4398   39.2603   -0.3798 H   0  0  0  0  0  0  0  0  0  0  0  0
  -23.5505   39.1388   -4.3867 N   0  0  0  0  0  0  0  0  0  0  0  0
  -23.2919   38.1098   -5.2606 C   0  0  0  0  0  0  0  0  0  0  0  0
  -23.7567   38.4360   -6.4940 N   0  0  0  0  0  0  0  0  0  0  0  0
  -24.3332   39.6419   -6.4059 C   0  0  0  0  0  0  0  0  0  0  0  0
  -24.9582   40.4333   -7.3517 C   0  0  0  0  0  0  0  0  0  0  0  0
  -25.0693   40.0080   -8.6126 N   0  0  0  0  0  0  0  0  0  0  0  0
  -25.4315   41.6596   -6.9554 N   0  0  0  0  0  0  0  0  0  0  0  0
  -25.3120   42.1160   -5.6632 C   0  0  0  0  0  0  0  0  0  0  0  0
  -24.6908   41.3279   -4.7286 N   0  0  0  0  0  0  0  0  0  0  0  0
  -24.2022   40.1084   -5.0999 C   0  0  0  0  0  0  0  0  0  0  0  0
  -24.7199   39.1233   -8.8663 H   0  0  0  0  0  0  0  0  0  0  0  0
  -25.5005   40.5793   -9.2886 H   0  0  0  0  0  0  0  0  0  0  0  0
  -20.8057   36.6434   -2.3747 C   0  0  0  0  0  0  0  0  0  0  0  0
  -19.4887   36.6177   -1.1235 S   0  0  0  0  0  0  0  0  0  0  0  0
  -18.6593   35.1231   -1.7414 C   0  0  0  0  0  0  0  0  0  0  0  0
  -17.3961   34.8217   -0.9385 C   0  0  0  0  0  0  0  0  0  0  0  0
  -16.3662   33.1330   -2.4509 N   0  0  0  0  0  0  0  0  0  0  0  0
  -16.8238   33.4035   -1.0608 C   0  0  0  0  0  0  0  0  0  0  0  0
  -15.6547   33.8151   -2.7133 H   0  0  0  0  0  0  0  0  0  0  0  0
  -17.1582   33.2049   -3.0896 H   0  0  0  0  0  0  0  0  0  0  0  0
  -17.8887   32.3728   -0.6846 C   0  0  0  0  0  0  0  0  0  0  0  0
  -18.2428   32.2121    0.4621 O   0  0  0  0  0  0  0  0  0  0  0  0
  -18.4188   31.6594   -1.5186 O   0  0  0  0  0  0  0  0  0  0  0  0
  -18.1833   31.7402   -2.4219 H   0  0  0  0  0  0  0  0  0  0  0  0
 26 27  1  0  0  0
 27 25  1  0  0  0
 27 30  1  0  0  0
 25 24  1  0  0  0
 24 23  1  0  0  0
 23 22  1  0  0  0
 30 31  2  0  0  0
 30 32  1  0  0  0
 22  1  1  0  0  0
  1  2  1  0  0  0
  1  3  1  0  0  0
  2  7  1  0  0  0
  3  4  1  0  0  0
  3  5  1  0  0  0
  5  6  1  0  0  0
  5  7  1  0  0  0
  7 10  1  0  0  0
 10 11  1  0  0  0
 10 19  1  0  0  0
 11 12  2  0  0  0
 12 13  1  0  0  0
 13 14  1  0  0  0
 13 19  2  0  0  0
 14 15  1  0  0  0
 14 16  2  0  0  0
 16 17  1  0  0  0
 17 18  2  0  0  0
 18 19  1  0  0  0
 26 28  1  0  0  0
 26 29  1  0  0  0
 32 33  1  0  0  0
  4  8  1  0  0  0
  6  9  1  0  0  0
 15 20  1  0  0  0
 15 21  1  0  0  0
M  END
> <minimizedAffinity>
-7.53300

$$$$
