3C56_PH4_A_309


 23 22  0  0  0  0  0  0  0  0999 V2000
   -0.6166   -2.0622   -7.8001 N   0  0  0  0  0  0  0  0  0  0  0  0
    0.6775   -1.5408   -7.6305 O   0  0  0  0  0  0  0  0  0  0  0  0
   -1.5679   -1.3817   -8.6790 C   0  0  0  0  0  0  0  0  0  0  0  0
   -1.2466   -0.3882   -9.2478 O   0  0  0  0  0  0  0  0  0  0  0  0
    1.1769   -2.1067   -7.0211 H   0  0  0  0  0  0  0  0  0  0  0  0
   -1.0099   -3.2848   -7.0999 C   0  0  0  0  0  0  0  0  0  0  0  0
   -2.0519   -2.9472   -6.0114 C   0  0  0  0  0  0  0  0  0  0  0  0
   -2.8038   -4.2266   -5.5987 C   0  0  0  0  0  0  0  0  0  0  0  0
   -4.1760   -3.9495   -5.5132 O   0  0  0  0  0  0  0  0  0  0  0  0
   -6.2704   -5.5030   -6.1725 O   0  0  0  0  0  0  0  0  0  0  0  0
   -5.1759   -4.4073   -6.7384 P   0  0  0  0  0  0  0  0  0  0  0  0
   -4.2880   -5.0907   -7.9452 O   0  0  0  0  0  0  0  0  0  0  0  0
   -5.8801   -3.2385   -7.2556 O   0  0  0  0  0  0  0  0  0  0  0  0
   -6.8599   -5.7732   -6.8939 H   0  0  0  0  0  0  0  0  0  0  0  0
   -6.4690   -3.5090   -7.9774 H   0  0  0  0  0  0  0  0  0  0  0  0
   -2.9843   -1.9505   -8.8670 C   0  0  0  0  0  0  0  0  0  0  0  0
   -3.5199   -1.4798  -10.0741 O   0  0  0  0  0  0  0  0  0  0  0  0
   -4.2237   -2.5457  -11.1257 P   0  0  0  0  0  0  0  0  0  0  0  0
   -5.1018   -1.7137  -12.2457 O   0  0  0  0  0  0  0  0  0  0  0  0
   -5.2174   -3.5650  -10.2924 O   0  0  0  0  0  0  0  0  0  0  0  0
   -3.1895   -3.3212  -11.8002 O   0  0  0  0  0  0  0  0  0  0  0  0
   -5.9058   -3.0499   -9.8433 H   0  0  0  0  0  0  0  0  0  0  0  0
   -2.6046   -2.7226  -12.2905 H   0  0  0  0  0  0  0  0  0  0  0  0
  6  1  1  0  0  0
  3  1  1  0  0  0
  1  2  1  0  0  0
  6  7  1  0  0  0
  8  7  1  0  0  0
  9  8  1  0  0  0
 10 11  1  0  0  0
 12 11  2  0  0  0
 11 13  1  0  0  0
 11  9  1  0  0  0
 16  3  1  0  0  0
  3  4  2  0  0  0
 16 17  1  0  0  0
 18 17  1  0  0  0
 19 18  2  0  0  0
 20 18  1  0  0  0
 18 21  1  0  0  0
 10 14  1  0  0  0
 13 15  1  0  0  0
  2  5  1  0  0  0
 20 22  1  0  0  0
 21 23  1  0  0  0
M  END
> <minimizedAffinity>
-8.02528

$$$$
3C56_PH4_A_309


 23 22  0  0  0  0  0  0  0  0999 V2000
   -4.5432   -4.7307   -7.8638 N   0  0  0  0  0  0  0  0  0  0  0  0
   -4.2619   -5.9918   -7.3106 O   0  0  0  0  0  0  0  0  0  0  0  0
   -5.5704   -4.6002   -8.8975 C   0  0  0  0  0  0  0  0  0  0  0  0
   -6.1651   -5.5602   -9.2697 O   0  0  0  0  0  0  0  0  0  0  0  0
   -3.5618   -5.9040   -6.6450 H   0  0  0  0  0  0  0  0  0  0  0  0
   -3.8108   -3.5509   -7.4044 C   0  0  0  0  0  0  0  0  0  0  0  0
   -2.5963   -3.9908   -6.5582 C   0  0  0  0  0  0  0  0  0  0  0  0
   -1.6741   -2.7828   -6.3076 C   0  0  0  0  0  0  0  0  0  0  0  0
   -2.0312   -1.7402   -7.1751 O   0  0  0  0  0  0  0  0  0  0  0  0
   -1.1868   -2.4951   -9.6147 O   0  0  0  0  0  0  0  0  0  0  0  0
   -1.0419   -1.3542   -8.4331 P   0  0  0  0  0  0  0  0  0  0  0  0
    0.5182   -1.3017   -7.9084 O   0  0  0  0  0  0  0  0  0  0  0  0
   -1.4188   -0.0496   -8.9674 O   0  0  0  0  0  0  0  0  0  0  0  0
   -0.6041   -2.2683  -10.3563 H   0  0  0  0  0  0  0  0  0  0  0  0
   -0.8355    0.1771   -9.7085 H   0  0  0  0  0  0  0  0  0  0  0  0
   -5.8806   -3.2214   -9.5040 C   0  0  0  0  0  0  0  0  0  0  0  0
   -5.6192   -3.2479  -10.8811 O   0  0  0  0  0  0  0  0  0  0  0  0
   -4.2609   -2.5081  -11.4686 P   0  0  0  0  0  0  0  0  0  0  0  0
   -3.7827   -1.3267  -10.4229 O   0  0  0  0  0  0  0  0  0  0  0  0
   -4.5911   -1.8411  -12.9405 O   0  0  0  0  0  0  0  0  0  0  0  0
   -3.1925   -3.4902  -11.6104 O   0  0  0  0  0  0  0  0  0  0  0  0
   -5.3018   -1.1875  -12.8472 H   0  0  0  0  0  0  0  0  0  0  0  0
   -2.9976   -3.8831  -10.7452 H   0  0  0  0  0  0  0  0  0  0  0  0
  6  1  1  0  0  0
  3  1  1  0  0  0
  1  2  1  0  0  0
  6  7  1  0  0  0
  8  7  1  0  0  0
  9  8  1  0  0  0
 10 11  1  0  0  0
 12 11  2  0  0  0
 11 13  1  0  0  0
 11  9  1  0  0  0
 16  3  1  0  0  0
  3  4  2  0  0  0
 16 17  1  0  0  0
 18 17  1  0  0  0
 19 18  2  0  0  0
 20 18  1  0  0  0
 18 21  1  0  0  0
 10 14  1  0  0  0
 13 15  1  0  0  0
  2  5  1  0  0  0
 20 22  1  0  0  0
 21 23  1  0  0  0
M  END
> <minimizedAffinity>
-7.48939

$$$$
3C56_PH4_A_309


 23 22  0  0  0  0  0  0  0  0999 V2000
   -1.7558   -1.3681   -8.6382 N   0  0  0  0  0  0  0  0  0  0  0  0
   -1.5169   -0.1718   -9.3361 O   0  0  0  0  0  0  0  0  0  0  0  0
   -0.6727   -2.0034   -7.8872 C   0  0  0  0  0  0  0  0  0  0  0  0
    0.4083   -1.5084   -7.8687 O   0  0  0  0  0  0  0  0  0  0  0  0
   -2.3324    0.1137   -9.7770 H   0  0  0  0  0  0  0  0  0  0  0  0
   -3.0864   -1.9753   -8.6619 C   0  0  0  0  0  0  0  0  0  0  0  0
   -3.3574   -2.5775  -10.0578 C   0  0  0  0  0  0  0  0  0  0  0  0
   -4.7882   -3.1456  -10.1085 C   0  0  0  0  0  0  0  0  0  0  0  0
   -4.8241   -4.3703   -9.4259 O   0  0  0  0  0  0  0  0  0  0  0  0
   -6.6852   -4.5615   -7.4935 O   0  0  0  0  0  0  0  0  0  0  0  0
   -6.2756   -5.0325   -9.0196 P   0  0  0  0  0  0  0  0  0  0  0  0
   -6.1651   -6.6745   -9.0768 O   0  0  0  0  0  0  0  0  0  0  0  0
   -7.2973   -4.5814   -9.9589 O   0  0  0  0  0  0  0  0  0  0  0  0
   -7.5404   -4.9512   -7.2533 H   0  0  0  0  0  0  0  0  0  0  0  0
   -8.1522   -4.9719   -9.7189 H   0  0  0  0  0  0  0  0  0  0  0  0
   -0.9315   -3.3122   -7.1222 C   0  0  0  0  0  0  0  0  0  0  0  0
   -2.0984   -3.1819   -6.3561 O   0  0  0  0  0  0  0  0  0  0  0  0
   -3.0404   -4.5118   -6.0708 P   0  0  0  0  0  0  0  0  0  0  0  0
   -4.5351   -4.0292   -5.5700 O   0  0  0  0  0  0  0  0  0  0  0  0
   -2.3404   -5.4407   -4.9014 O   0  0  0  0  0  0  0  0  0  0  0  0
   -3.1690   -5.2912   -7.2964 O   0  0  0  0  0  0  0  0  0  0  0  0
   -2.2545   -4.9230   -4.0856 H   0  0  0  0  0  0  0  0  0  0  0  0
   -3.5806   -4.7457   -7.9848 H   0  0  0  0  0  0  0  0  0  0  0  0
  6  1  1  0  0  0
  3  1  1  0  0  0
  1  2  1  0  0  0
  6  7  1  0  0  0
  8  7  1  0  0  0
  9  8  1  0  0  0
 10 11  1  0  0  0
 12 11  2  0  0  0
 11 13  1  0  0  0
 11  9  1  0  0  0
 16  3  1  0  0  0
  3  4  2  0  0  0
 16 17  1  0  0  0
 18 17  1  0  0  0
 19 18  2  0  0  0
 20 18  1  0  0  0
 18 21  1  0  0  0
 10 14  1  0  0  0
 13 15  1  0  0  0
  2  5  1  0  0  0
 20 22  1  0  0  0
 21 23  1  0  0  0
M  END
> <minimizedAffinity>
-7.42559

$$$$
3C56_PH4_A_309


 23 22  0  0  0  0  0  0  0  0999 V2000
   -6.9764   -6.0487   -8.8816 N   0  0  0  0  0  0  0  0  0  0  0  0
   -7.5479   -7.0192   -9.7223 O   0  0  0  0  0  0  0  0  0  0  0  0
   -5.7547   -6.3562   -8.1374 C   0  0  0  0  0  0  0  0  0  0  0  0
   -5.2474   -7.4264   -8.2431 O   0  0  0  0  0  0  0  0  0  0  0  0
   -8.3464   -6.6575  -10.1376 H   0  0  0  0  0  0  0  0  0  0  0  0
   -7.6017   -4.7326   -8.7532 C   0  0  0  0  0  0  0  0  0  0  0  0
   -7.5545   -4.0007  -10.1121 C   0  0  0  0  0  0  0  0  0  0  0  0
   -6.4307   -2.9475  -10.0950 C   0  0  0  0  0  0  0  0  0  0  0  0
   -5.1974   -3.5835  -10.2992 O   0  0  0  0  0  0  0  0  0  0  0  0
   -2.9396   -2.2945   -9.6101 O   0  0  0  0  0  0  0  0  0  0  0  0
   -3.9192   -2.7155  -10.8678 P   0  0  0  0  0  0  0  0  0  0  0  0
   -4.4687   -1.3551  -11.6156 O   0  0  0  0  0  0  0  0  0  0  0  0
   -3.1665   -3.5237  -11.8216 O   0  0  0  0  0  0  0  0  0  0  0  0
   -2.1862   -1.7830   -9.9443 H   0  0  0  0  0  0  0  0  0  0  0  0
   -2.4136   -3.0117  -12.1560 H   0  0  0  0  0  0  0  0  0  0  0  0
   -5.1269   -5.2959   -7.2174 C   0  0  0  0  0  0  0  0  0  0  0  0
   -3.7307   -5.4192   -7.2481 O   0  0  0  0  0  0  0  0  0  0  0  0
   -2.8066   -4.4901   -6.2380 P   0  0  0  0  0  0  0  0  0  0  0  0
   -2.7332   -2.9500   -6.8216 O   0  0  0  0  0  0  0  0  0  0  0  0
   -1.2846   -5.1197   -6.1507 O   0  0  0  0  0  0  0  0  0  0  0  0
   -3.4019   -4.4753   -4.9071 O   0  0  0  0  0  0  0  0  0  0  0  0
   -0.8877   -5.1299   -7.0358 H   0  0  0  0  0  0  0  0  0  0  0  0
   -4.2971   -4.1052   -4.9573 H   0  0  0  0  0  0  0  0  0  0  0  0
  6  1  1  0  0  0
  3  1  1  0  0  0
  1  2  1  0  0  0
  6  7  1  0  0  0
  8  7  1  0  0  0
  9  8  1  0  0  0
 10 11  1  0  0  0
 12 11  2  0  0  0
 11 13  1  0  0  0
 11  9  1  0  0  0
 16  3  1  0  0  0
  3  4  2  0  0  0
 16 17  1  0  0  0
 18 17  1  0  0  0
 19 18  2  0  0  0
 20 18  1  0  0  0
 18 21  1  0  0  0
 10 14  1  0  0  0
 13 15  1  0  0  0
  2  5  1  0  0  0
 20 22  1  0  0  0
 21 23  1  0  0  0
M  END
> <minimizedAffinity>
-7.21419

$$$$
3C56_PH4_A_309


 23 22  0  0  0  0  0  0  0  0999 V2000
   -4.2414   -4.2783   -6.5210 N   0  0  0  0  0  0  0  0  0  0  0  0
   -5.4202   -4.5907   -5.8223 O   0  0  0  0  0  0  0  0  0  0  0  0
   -3.0390   -3.8871   -5.7849 C   0  0  0  0  0  0  0  0  0  0  0  0
   -3.0600   -3.8324   -4.5972 O   0  0  0  0  0  0  0  0  0  0  0  0
   -6.1172   -4.8278   -6.4539 H   0  0  0  0  0  0  0  0  0  0  0  0
   -4.2173   -4.3466   -7.9819 C   0  0  0  0  0  0  0  0  0  0  0  0
   -4.8521   -3.0684   -8.5718 C   0  0  0  0  0  0  0  0  0  0  0  0
   -6.1571   -3.4290   -9.3063 C   0  0  0  0  0  0  0  0  0  0  0  0
   -6.1888   -4.8114   -9.5413 O   0  0  0  0  0  0  0  0  0  0  0  0
   -7.4474   -7.1765   -9.7792 O   0  0  0  0  0  0  0  0  0  0  0  0
   -7.5060   -5.6845   -9.0797 P   0  0  0  0  0  0  0  0  0  0  0  0
   -8.8759   -4.9064   -9.5591 O   0  0  0  0  0  0  0  0  0  0  0  0
   -7.5117   -5.8278   -7.6275 O   0  0  0  0  0  0  0  0  0  0  0  0
   -8.2232   -7.6916   -9.5077 H   0  0  0  0  0  0  0  0  0  0  0  0
   -8.2880   -6.3423   -7.3563 H   0  0  0  0  0  0  0  0  0  0  0  0
   -1.7476   -3.5454   -6.5468 C   0  0  0  0  0  0  0  0  0  0  0  0
   -1.7210   -2.1722   -6.8279 O   0  0  0  0  0  0  0  0  0  0  0  0
   -0.9121   -1.6279   -8.1646 P   0  0  0  0  0  0  0  0  0  0  0  0
   -1.3514   -2.5253   -9.4759 O   0  0  0  0  0  0  0  0  0  0  0  0
    0.7128   -1.7691   -7.9192 O   0  0  0  0  0  0  0  0  0  0  0  0
   -1.2465   -0.2287   -8.4018 O   0  0  0  0  0  0  0  0  0  0  0  0
    0.9363   -2.6998   -7.7613 H   0  0  0  0  0  0  0  0  0  0  0  0
   -2.2020   -0.1446   -8.5462 H   0  0  0  0  0  0  0  0  0  0  0  0
  6  1  1  0  0  0
  3  1  1  0  0  0
  1  2  1  0  0  0
  6  7  1  0  0  0
  8  7  1  0  0  0
  9  8  1  0  0  0
 10 11  1  0  0  0
 12 11  2  0  0  0
 11 13  1  0  0  0
 11  9  1  0  0  0
 16  3  1  0  0  0
  3  4  2  0  0  0
 16 17  1  0  0  0
 18 17  1  0  0  0
 19 18  2  0  0  0
 20 18  1  0  0  0
 18 21  1  0  0  0
 10 14  1  0  0  0
 13 15  1  0  0  0
  2  5  1  0  0  0
 20 22  1  0  0  0
 21 23  1  0  0  0
M  END
> <minimizedAffinity>
-7.05499

$$$$
3C56_PH4_A_309


 23 22  0  0  0  0  0  0  0  0999 V2000
   -4.1534   -4.2020   -6.3052 N   0  0  0  0  0  0  0  0  0  0  0  0
   -5.2861   -4.4049   -5.4983 O   0  0  0  0  0  0  0  0  0  0  0  0
   -2.9060   -3.7275   -5.7056 C   0  0  0  0  0  0  0  0  0  0  0  0
   -2.8516   -3.5128   -4.5373 O   0  0  0  0  0  0  0  0  0  0  0  0
   -6.0222   -4.7178   -6.0471 H   0  0  0  0  0  0  0  0  0  0  0  0
   -4.2222   -4.4671   -7.7421 C   0  0  0  0  0  0  0  0  0  0  0  0
   -5.6734   -4.8182   -8.1362 C   0  0  0  0  0  0  0  0  0  0  0  0
   -6.2803   -3.6665   -8.9594 C   0  0  0  0  0  0  0  0  0  0  0  0
   -5.2614   -2.7779   -9.3330 O   0  0  0  0  0  0  0  0  0  0  0  0
   -6.3133   -2.9161  -11.8046 O   0  0  0  0  0  0  0  0  0  0  0  0
   -4.9855   -2.4817  -10.9288 P   0  0  0  0  0  0  0  0  0  0  0  0
   -3.6846   -3.3567  -11.4326 O   0  0  0  0  0  0  0  0  0  0  0  0
   -4.7189   -1.0600  -11.1219 O   0  0  0  0  0  0  0  0  0  0  0  0
   -6.1515   -2.7419  -12.7450 H   0  0  0  0  0  0  0  0  0  0  0  0
   -4.5564   -0.8863  -12.0623 H   0  0  0  0  0  0  0  0  0  0  0  0
   -1.6649   -3.5053   -6.5862 C   0  0  0  0  0  0  0  0  0  0  0  0
   -1.4632   -2.1301   -6.7697 O   0  0  0  0  0  0  0  0  0  0  0  0
   -0.7010   -1.5920   -8.1361 P   0  0  0  0  0  0  0  0  0  0  0  0
   -1.2281   -2.4576   -9.4364 O   0  0  0  0  0  0  0  0  0  0  0  0
    0.9285   -1.7854   -7.9689 O   0  0  0  0  0  0  0  0  0  0  0  0
   -1.0030   -0.1802   -8.3399 O   0  0  0  0  0  0  0  0  0  0  0  0
    1.1304   -2.7244   -7.8333 H   0  0  0  0  0  0  0  0  0  0  0  0
   -1.9611   -0.0654   -8.4383 H   0  0  0  0  0  0  0  0  0  0  0  0
  6  1  1  0  0  0
  3  1  1  0  0  0
  1  2  1  0  0  0
  6  7  1  0  0  0
  8  7  1  0  0  0
  9  8  1  0  0  0
 10 11  1  0  0  0
 12 11  2  0  0  0
 11 13  1  0  0  0
 11  9  1  0  0  0
 16  3  1  0  0  0
  3  4  2  0  0  0
 16 17  1  0  0  0
 18 17  1  0  0  0
 19 18  2  0  0  0
 20 18  1  0  0  0
 18 21  1  0  0  0
 10 14  1  0  0  0
 13 15  1  0  0  0
  2  5  1  0  0  0
 20 22  1  0  0  0
 21 23  1  0  0  0
M  END
> <minimizedAffinity>
-6.90012

$$$$
3C56_PH4_A_309


 23 22  0  0  0  0  0  0  0  0999 V2000
   -4.6673   -1.9854  -10.4339 N   0  0  0  0  0  0  0  0  0  0  0  0
   -4.3466   -1.4145  -11.6776 O   0  0  0  0  0  0  0  0  0  0  0  0
   -3.6099   -2.5540   -9.5977 C   0  0  0  0  0  0  0  0  0  0  0  0
   -2.4810   -2.5340   -9.9708 O   0  0  0  0  0  0  0  0  0  0  0  0
   -5.1554   -1.0869  -12.1012 H   0  0  0  0  0  0  0  0  0  0  0  0
   -6.0565   -2.0086   -9.9764 C   0  0  0  0  0  0  0  0  0  0  0  0
   -6.9145   -2.8290  -10.9641 C   0  0  0  0  0  0  0  0  0  0  0  0
   -7.5254   -4.0416  -10.2368 C   0  0  0  0  0  0  0  0  0  0  0  0
   -6.4967   -4.8042   -9.6646 O   0  0  0  0  0  0  0  0  0  0  0  0
   -8.0065   -5.8549   -7.7022 O   0  0  0  0  0  0  0  0  0  0  0  0
   -6.8662   -6.1844   -8.8467 P   0  0  0  0  0  0  0  0  0  0  0  0
   -5.5104   -6.7708   -8.1188 O   0  0  0  0  0  0  0  0  0  0  0  0
   -7.3859   -7.1794   -9.7792 O   0  0  0  0  0  0  0  0  0  0  0  0
   -8.2247   -6.6677   -7.2199 H   0  0  0  0  0  0  0  0  0  0  0  0
   -7.6034   -7.9923   -9.2966 H   0  0  0  0  0  0  0  0  0  0  0  0
   -3.9580   -3.1786   -8.2362 C   0  0  0  0  0  0  0  0  0  0  0  0
   -2.8289   -3.1465   -7.4057 O   0  0  0  0  0  0  0  0  0  0  0  0
   -2.5639   -4.3839   -6.3399 P   0  0  0  0  0  0  0  0  0  0  0  0
   -2.9399   -3.8851   -4.8143 O   0  0  0  0  0  0  0  0  0  0  0  0
   -0.9770   -4.8298   -6.3988 O   0  0  0  0  0  0  0  0  0  0  0  0
   -3.4009   -5.5233   -6.6966 O   0  0  0  0  0  0  0  0  0  0  0  0
   -0.4193   -4.0724   -6.1616 H   0  0  0  0  0  0  0  0  0  0  0  0
   -4.3344   -5.2620   -6.6623 H   0  0  0  0  0  0  0  0  0  0  0  0
  6  1  1  0  0  0
  3  1  1  0  0  0
  1  2  1  0  0  0
  6  7  1  0  0  0
  8  7  1  0  0  0
  9  8  1  0  0  0
 10 11  1  0  0  0
 12 11  2  0  0  0
 11 13  1  0  0  0
 11  9  1  0  0  0
 16  3  1  0  0  0
  3  4  2  0  0  0
 16 17  1  0  0  0
 18 17  1  0  0  0
 19 18  2  0  0  0
 20 18  1  0  0  0
 18 21  1  0  0  0
 10 14  1  0  0  0
 13 15  1  0  0  0
  2  5  1  0  0  0
 20 22  1  0  0  0
 21 23  1  0  0  0
M  END
> <minimizedAffinity>
-6.84030

$$$$
3C56_PH4_A_309


 23 22  0  0  0  0  0  0  0  0999 V2000
   -4.0707   -4.2176   -6.1520 N   0  0  0  0  0  0  0  0  0  0  0  0
   -5.1089   -4.4586   -5.2357 O   0  0  0  0  0  0  0  0  0  0  0  0
   -2.8196   -3.6124   -5.6944 C   0  0  0  0  0  0  0  0  0  0  0  0
   -2.6824   -3.3240   -4.5490 O   0  0  0  0  0  0  0  0  0  0  0  0
   -5.8612   -4.8602   -5.6979 H   0  0  0  0  0  0  0  0  0  0  0  0
   -4.2412   -4.5735   -7.5605 C   0  0  0  0  0  0  0  0  0  0  0  0
   -5.2546   -5.7321   -7.6841 C   0  0  0  0  0  0  0  0  0  0  0  0
   -6.4552   -5.2820   -8.5376 C   0  0  0  0  0  0  0  0  0  0  0  0
   -7.3851   -6.3290   -8.6167 O   0  0  0  0  0  0  0  0  0  0  0  0
   -9.8047   -5.1710   -8.8133 O   0  0  0  0  0  0  0  0  0  0  0  0
   -8.7206   -6.1605   -9.5645 P   0  0  0  0  0  0  0  0  0  0  0  0
   -9.4058   -7.6368   -9.8149 O   0  0  0  0  0  0  0  0  0  0  0  0
   -8.3381   -5.5787  -10.8470 O   0  0  0  0  0  0  0  0  0  0  0  0
  -10.5920   -5.0713   -9.3712 H   0  0  0  0  0  0  0  0  0  0  0  0
   -9.1254   -5.4798  -11.4049 H   0  0  0  0  0  0  0  0  0  0  0  0
   -1.6818   -3.3483   -6.6947 C   0  0  0  0  0  0  0  0  0  0  0  0
   -1.6965   -1.9982   -7.0723 O   0  0  0  0  0  0  0  0  0  0  0  0
   -1.4036   -1.5880   -8.6481 P   0  0  0  0  0  0  0  0  0  0  0  0
   -1.6104    0.0362   -8.8407 O   0  0  0  0  0  0  0  0  0  0  0  0
   -2.4520   -2.3976   -9.6310 O   0  0  0  0  0  0  0  0  0  0  0  0
   -0.0347   -1.9465   -8.9998 O   0  0  0  0  0  0  0  0  0  0  0  0
   -3.3630   -2.1597   -9.3978 H   0  0  0  0  0  0  0  0  0  0  0  0
    0.5826   -1.4709   -8.4223 H   0  0  0  0  0  0  0  0  0  0  0  0
  6  1  1  0  0  0
  3  1  1  0  0  0
  1  2  1  0  0  0
  6  7  1  0  0  0
  8  7  1  0  0  0
  9  8  1  0  0  0
 10 11  1  0  0  0
 12 11  2  0  0  0
 11 13  1  0  0  0
 11  9  1  0  0  0
 16  3  1  0  0  0
  3  4  2  0  0  0
 16 17  1  0  0  0
 18 17  1  0  0  0
 19 18  2  0  0  0
 20 18  1  0  0  0
 18 21  1  0  0  0
 10 14  1  0  0  0
 13 15  1  0  0  0
  2  5  1  0  0  0
 20 22  1  0  0  0
 21 23  1  0  0  0
M  END
> <minimizedAffinity>
-6.82049

$$$$
3C56_PH4_A_309


 23 22  0  0  0  0  0  0  0  0999 V2000
   -1.2832   -2.7900   -7.2591 N   0  0  0  0  0  0  0  0  0  0  0  0
    0.0618   -2.5298   -7.5731 O   0  0  0  0  0  0  0  0  0  0  0  0
   -1.6534   -4.0576   -6.6292 C   0  0  0  0  0  0  0  0  0  0  0  0
   -0.8171   -4.8668   -6.3847 O   0  0  0  0  0  0  0  0  0  0  0  0
    0.1347   -1.6532   -7.9820 H   0  0  0  0  0  0  0  0  0  0  0  0
   -2.3104   -1.7931   -7.5604 C   0  0  0  0  0  0  0  0  0  0  0  0
   -2.3265   -1.5066   -9.0777 C   0  0  0  0  0  0  0  0  0  0  0  0
   -3.5035   -2.2527   -9.7338 C   0  0  0  0  0  0  0  0  0  0  0  0
   -4.1136   -1.4146  -10.6786 O   0  0  0  0  0  0  0  0  0  0  0  0
   -6.0468   -3.2846  -10.6912 O   0  0  0  0  0  0  0  0  0  0  0  0
   -5.5573   -1.8497  -11.3394 P   0  0  0  0  0  0  0  0  0  0  0  0
   -5.3883   -2.0123  -12.9693 O   0  0  0  0  0  0  0  0  0  0  0  0
   -6.5535   -0.8220  -11.0545 O   0  0  0  0  0  0  0  0  0  0  0  0
   -6.8975   -3.5416  -11.0800 H   0  0  0  0  0  0  0  0  0  0  0  0
   -7.4038   -1.0790  -11.4441 H   0  0  0  0  0  0  0  0  0  0  0  0
   -3.1243   -4.3446   -6.2841 C   0  0  0  0  0  0  0  0  0  0  0  0
   -3.6929   -5.1396   -7.2891 O   0  0  0  0  0  0  0  0  0  0  0  0
   -5.3201   -5.0529   -7.5759 P   0  0  0  0  0  0  0  0  0  0  0  0
   -5.6535   -5.7074   -9.0518 O   0  0  0  0  0  0  0  0  0  0  0  0
   -5.7993   -3.4749   -7.5516 O   0  0  0  0  0  0  0  0  0  0  0  0
   -6.0378   -5.7932   -6.5450 O   0  0  0  0  0  0  0  0  0  0  0  0
   -5.3223   -2.9815   -8.2372 H   0  0  0  0  0  0  0  0  0  0  0  0
   -5.7566   -6.7215   -6.5585 H   0  0  0  0  0  0  0  0  0  0  0  0
  6  1  1  0  0  0
  3  1  1  0  0  0
  1  2  1  0  0  0
  6  7  1  0  0  0
  8  7  1  0  0  0
  9  8  1  0  0  0
 10 11  1  0  0  0
 12 11  2  0  0  0
 11 13  1  0  0  0
 11  9  1  0  0  0
 16  3  1  0  0  0
  3  4  2  0  0  0
 16 17  1  0  0  0
 18 17  1  0  0  0
 19 18  2  0  0  0
 20 18  1  0  0  0
 18 21  1  0  0  0
 10 14  1  0  0  0
 13 15  1  0  0  0
  2  5  1  0  0  0
 20 22  1  0  0  0
 21 23  1  0  0  0
M  END
> <minimizedAffinity>
-6.69702

$$$$
3C56_PH4_A_309


 23 22  0  0  0  0  0  0  0  0999 V2000
   -2.9711   -4.5497   -6.6361 N   0  0  0  0  0  0  0  0  0  0  0  0
   -2.3165   -5.3329   -5.6699 O   0  0  0  0  0  0  0  0  0  0  0  0
   -2.3929   -3.2720   -7.0534 C   0  0  0  0  0  0  0  0  0  0  0  0
   -1.3713   -2.8967   -6.5744 O   0  0  0  0  0  0  0  0  0  0  0  0
   -2.8279   -6.1412   -5.5084 H   0  0  0  0  0  0  0  0  0  0  0  0
   -4.2274   -5.0133   -7.2245 C   0  0  0  0  0  0  0  0  0  0  0  0
   -5.4154   -4.5033   -6.3800 C   0  0  0  0  0  0  0  0  0  0  0  0
   -6.7405   -4.9478   -7.0274 C   0  0  0  0  0  0  0  0  0  0  0  0
   -6.4649   -5.6521   -8.2086 O   0  0  0  0  0  0  0  0  0  0  0  0
   -9.0928   -6.2079   -8.3472 O   0  0  0  0  0  0  0  0  0  0  0  0
   -7.6996   -6.0632   -9.2170 P   0  0  0  0  0  0  0  0  0  0  0  0
   -7.3566   -7.4984   -9.9480 O   0  0  0  0  0  0  0  0  0  0  0  0
   -7.8650   -5.0283  -10.2324 O   0  0  0  0  0  0  0  0  0  0  0  0
   -9.8208   -6.4502   -8.9407 H   0  0  0  0  0  0  0  0  0  0  0  0
   -8.5926   -5.2712  -10.8262 H   0  0  0  0  0  0  0  0  0  0  0  0
   -3.1067   -2.4134   -8.1109 C   0  0  0  0  0  0  0  0  0  0  0  0
   -2.6861   -2.8037   -9.3901 O   0  0  0  0  0  0  0  0  0  0  0  0
   -3.7810   -2.8535  -10.6296 P   0  0  0  0  0  0  0  0  0  0  0  0
   -4.2958   -1.3248  -10.9698 O   0  0  0  0  0  0  0  0  0  0  0  0
   -5.0695   -3.7837  -10.1879 O   0  0  0  0  0  0  0  0  0  0  0  0
   -3.1525   -3.4272  -11.8136 O   0  0  0  0  0  0  0  0  0  0  0  0
   -5.4883   -3.4028   -9.4002 H   0  0  0  0  0  0  0  0  0  0  0  0
   -2.3945   -2.8808  -12.0742 H   0  0  0  0  0  0  0  0  0  0  0  0
  6  1  1  0  0  0
  3  1  1  0  0  0
  1  2  1  0  0  0
  6  7  1  0  0  0
  8  7  1  0  0  0
  9  8  1  0  0  0
 10 11  1  0  0  0
 12 11  2  0  0  0
 11 13  1  0  0  0
 11  9  1  0  0  0
 16  3  1  0  0  0
  3  4  2  0  0  0
 16 17  1  0  0  0
 18 17  1  0  0  0
 19 18  2  0  0  0
 20 18  1  0  0  0
 18 21  1  0  0  0
 10 14  1  0  0  0
 13 15  1  0  0  0
  2  5  1  0  0  0
 20 22  1  0  0  0
 21 23  1  0  0  0
M  END
> <minimizedAffinity>
-6.63315

$$$$
