1O2N_762_A_246


 31 34  0  0  0  0  0  0  0  0999 V2000
   44.0189   -2.9979   25.9667 C   0  0  0  0  0  0  0  0  0  0  0  0
   43.9057   -1.5711   25.9491 C   0  0  0  0  0  0  0  0  0  0  0  0
   43.8978   -0.5635   24.4656 Cl  0  0  0  0  0  0  0  0  0  0  0  0
   43.7278   -0.8820   27.1707 C   0  0  0  0  0  0  0  0  0  0  0  0
   43.6666   -1.6037   28.3525 C   0  0  0  0  0  0  0  0  0  0  0  0
   43.7649   -2.9362   28.3824 C   0  0  0  0  0  0  0  0  0  0  0  0
   43.9460   -3.6705   27.1996 C   0  0  0  0  0  0  0  0  0  0  0  0
   43.4964   -1.2673   29.5941 N   0  0  0  0  0  0  0  0  0  0  0  0
   43.6595   -3.4431   29.6010 N   0  0  0  0  0  0  0  0  0  0  0  0
   43.5190   -2.3507   30.3376 C   0  0  0  0  0  0  0  0  0  0  0  0
   43.3706   -0.3489   29.9256 H   0  0  0  0  0  0  0  0  0  0  0  0
   44.2356   -3.7431   24.7793 C   0  0  0  0  0  0  0  0  0  0  0  0
   44.9933   -3.3152   23.7927 N   0  0  0  0  0  0  0  0  0  0  0  0
   43.6177   -4.8930   24.7030 N   0  0  0  0  0  0  0  0  0  0  0  0
   45.4520   -2.4471   23.8651 H   0  0  0  0  0  0  0  0  0  0  0  0
   45.1017   -3.8631   22.9819 H   0  0  0  0  0  0  0  0  0  0  0  0
   43.0541   -5.1995   25.4498 H   0  0  0  0  0  0  0  0  0  0  0  0
   43.7161   -5.4524   23.8988 H   0  0  0  0  0  0  0  0  0  0  0  0
   43.2840   -2.3369   31.7309 C   0  0  0  0  0  0  0  0  0  0  0  0
   42.6687   -3.4177   32.3877 C   0  0  0  0  0  0  0  0  0  0  0  0
   42.4323   -3.3740   33.7656 C   0  0  0  0  0  0  0  0  0  0  0  0
   42.7913   -2.2596   34.4970 C   0  0  0  0  0  0  0  0  0  0  0  0
   43.4155   -1.1834   33.8676 C   0  0  0  0  0  0  0  0  0  0  0  0
   43.6546   -1.2193   32.4873 C   0  0  0  0  0  0  0  0  0  0  0  0
   44.2457   -0.1371   31.8491 O   0  0  0  0  0  0  0  0  0  0  0  0
   43.7904   -0.0749   34.6247 C   0  0  0  0  0  0  0  0  0  0  0  0
   42.8765    0.9636   34.8045 C   0  0  0  0  0  0  0  0  0  0  0  0
   43.2373    2.0877   35.5497 C   0  0  0  0  0  0  0  0  0  0  0  0
   44.4937    2.1734   36.1238 C   0  0  0  0  0  0  0  0  0  0  0  0
   45.3875    1.1405   35.9625 C   0  0  0  0  0  0  0  0  0  0  0  0
   45.0459    0.0179   35.2097 C   0  0  0  0  0  0  0  0  0  0  0  0
  1  2  2  0  0  0
  1  7  1  0  0  0
  1 12  1  0  0  0
  2  3  1  0  0  0
  2  4  1  0  0  0
  4  5  2  0  0  0
  5  6  1  0  0  0
  5  8  1  0  0  0
  6  7  2  0  0  0
  6  9  1  0  0  0
 12 13  1  0  0  0
 12 14  2  0  0  0
  8 10  1  0  0  0
  9 10  2  0  0  0
 10 19  1  0  0  0
 19 20  2  0  0  0
 19 24  1  0  0  0
 20 21  1  0  0  0
 21 22  2  0  0  0
 22 23  1  0  0  0
 23 24  2  0  0  0
 23 26  1  0  0  0
 24 25  1  0  0  0
 26 27  2  0  0  0
 26 31  1  0  0  0
 27 28  1  0  0  0
 28 29  2  0  0  0
 29 30  1  0  0  0
 30 31  2  0  0  0
 13 15  1  0  0  0
 13 16  1  0  0  0
 14 17  1  0  0  0
 14 18  1  0  0  0
  8 11  1  0  0  0
M  CHG 1  14   1
M  CHG 1  25  -1
M  END
> <minimizedAffinity>
-9.54078

$$$$
1O2N_762_A_246


 31 34  0  0  0  0  0  0  0  0999 V2000
   42.0475    1.4114   35.0327 C   0  0  0  0  0  0  0  0  0  0  0  0
   43.3440    1.9435   34.7415 C   0  0  0  0  0  0  0  0  0  0  0  0
   44.1191    3.2941   35.6308 Cl  0  0  0  0  0  0  0  0  0  0  0  0
   44.1181    1.3441   33.7216 C   0  0  0  0  0  0  0  0  0  0  0  0
   43.6038    0.2577   33.0312 C   0  0  0  0  0  0  0  0  0  0  0  0
   42.3977   -0.2526   33.2971 C   0  0  0  0  0  0  0  0  0  0  0  0
   41.5854    0.3056   34.2969 C   0  0  0  0  0  0  0  0  0  0  0  0
   44.0685   -0.4964   32.0829 N   0  0  0  0  0  0  0  0  0  0  0  0
   42.0946   -1.3015   32.5480 N   0  0  0  0  0  0  0  0  0  0  0  0
   43.1672   -1.4023   31.7766 C   0  0  0  0  0  0  0  0  0  0  0  0
   44.9533   -0.4047   31.6611 H   0  0  0  0  0  0  0  0  0  0  0  0
   41.2081    1.9912   36.0184 C   0  0  0  0  0  0  0  0  0  0  0  0
   41.3946    1.8203   37.3094 N   0  0  0  0  0  0  0  0  0  0  0  0
   40.2072    2.7046   35.5719 N   0  0  0  0  0  0  0  0  0  0  0  0
   42.1529    1.2804   37.6300 H   0  0  0  0  0  0  0  0  0  0  0  0
   40.7759    2.2323   37.9549 H   0  0  0  0  0  0  0  0  0  0  0  0
   40.0810    2.8232   34.6027 H   0  0  0  0  0  0  0  0  0  0  0  0
   39.5799    3.1230   36.2049 H   0  0  0  0  0  0  0  0  0  0  0  0
   43.3932   -2.4291   30.8324 C   0  0  0  0  0  0  0  0  0  0  0  0
   43.5381   -3.7728   31.2216 C   0  0  0  0  0  0  0  0  0  0  0  0
   43.7771   -4.7694   30.2697 C   0  0  0  0  0  0  0  0  0  0  0  0
   43.8855   -4.4416   28.9331 C   0  0  0  0  0  0  0  0  0  0  0  0
   43.7306   -3.1176   28.5247 C   0  0  0  0  0  0  0  0  0  0  0  0
   43.4922   -2.1134   29.4726 C   0  0  0  0  0  0  0  0  0  0  0  0
   43.3701   -0.7885   29.0757 O   0  0  0  0  0  0  0  0  0  0  0  0
   43.8221   -2.8072   27.1691 C   0  0  0  0  0  0  0  0  0  0  0  0
   43.7938   -3.8416   26.2334 C   0  0  0  0  0  0  0  0  0  0  0  0
   43.8960   -3.5519   24.8716 C   0  0  0  0  0  0  0  0  0  0  0  0
   44.0123   -2.2416   24.4413 C   0  0  0  0  0  0  0  0  0  0  0  0
   44.0205   -1.2208   25.3630 C   0  0  0  0  0  0  0  0  0  0  0  0
   43.9328   -1.4959   26.7269 C   0  0  0  0  0  0  0  0  0  0  0  0
  1  2  2  0  0  0
  1  7  1  0  0  0
  1 12  1  0  0  0
  2  3  1  0  0  0
  2  4  1  0  0  0
  4  5  2  0  0  0
  5  6  1  0  0  0
  5  8  1  0  0  0
  6  7  2  0  0  0
  6  9  1  0  0  0
 12 13  1  0  0  0
 12 14  2  0  0  0
  8 10  1  0  0  0
  9 10  2  0  0  0
 10 19  1  0  0  0
 19 20  2  0  0  0
 19 24  1  0  0  0
 20 21  1  0  0  0
 21 22  2  0  0  0
 22 23  1  0  0  0
 23 24  2  0  0  0
 23 26  1  0  0  0
 24 25  1  0  0  0
 26 27  2  0  0  0
 26 31  1  0  0  0
 27 28  1  0  0  0
 28 29  2  0  0  0
 29 30  1  0  0  0
 30 31  2  0  0  0
 13 15  1  0  0  0
 13 16  1  0  0  0
 14 17  1  0  0  0
 14 18  1  0  0  0
  8 11  1  0  0  0
M  CHG 1  14   1
M  CHG 1  25  -1
M  END
> <minimizedAffinity>
-7.90981

$$$$
1O2N_762_A_246


 31 34  0  0  0  0  0  0  0  0999 V2000
   43.8669    1.9082   35.9769 C   0  0  0  0  0  0  0  0  0  0  0  0
   45.0342    1.0860   35.8758 C   0  0  0  0  0  0  0  0  0  0  0  0
   46.4161    1.1262   37.0180 Cl  0  0  0  0  0  0  0  0  0  0  0  0
   45.1069    0.1219   34.8443 C   0  0  0  0  0  0  0  0  0  0  0  0
   44.0478   -0.0036   33.9590 C   0  0  0  0  0  0  0  0  0  0  0  0
   42.9498    0.7533   34.0458 C   0  0  0  0  0  0  0  0  0  0  0  0
   42.8262    1.7284   35.0482 C   0  0  0  0  0  0  0  0  0  0  0  0
   43.8182   -0.7861   32.9496 N   0  0  0  0  0  0  0  0  0  0  0  0
   42.0415    0.4681   33.1256 N   0  0  0  0  0  0  0  0  0  0  0  0
   42.6442   -0.4910   32.4382 C   0  0  0  0  0  0  0  0  0  0  0  0
   44.4254   -1.4875   32.6202 H   0  0  0  0  0  0  0  0  0  0  0  0
   43.7499    2.9179   36.9663 C   0  0  0  0  0  0  0  0  0  0  0  0
   43.4131    2.6647   38.2126 N   0  0  0  0  0  0  0  0  0  0  0  0
   43.9801    4.1417   36.5671 N   0  0  0  0  0  0  0  0  0  0  0  0
   43.2430    1.7379   38.4979 H   0  0  0  0  0  0  0  0  0  0  0  0
   43.3313    3.4019   38.8599 H   0  0  0  0  0  0  0  0  0  0  0  0
   44.2311    4.3151   35.6310 H   0  0  0  0  0  0  0  0  0  0  0  0
   43.9023    4.8896   37.2025 H   0  0  0  0  0  0  0  0  0  0  0  0
   42.0618   -1.2132   31.3723 C   0  0  0  0  0  0  0  0  0  0  0  0
   40.7408   -1.6915   31.4379 C   0  0  0  0  0  0  0  0  0  0  0  0
   40.1917   -2.4178   30.3762 C   0  0  0  0  0  0  0  0  0  0  0  0
   40.9477   -2.6843   29.2523 C   0  0  0  0  0  0  0  0  0  0  0  0
   42.2545   -2.2068   29.1613 C   0  0  0  0  0  0  0  0  0  0  0  0
   42.8120   -1.4794   30.2214 C   0  0  0  0  0  0  0  0  0  0  0  0
   44.1237   -1.0297   30.1505 O   0  0  0  0  0  0  0  0  0  0  0  0
   42.9967   -2.4669   28.0107 C   0  0  0  0  0  0  0  0  0  0  0  0
   43.4712   -1.3957   27.2534 C   0  0  0  0  0  0  0  0  0  0  0  0
   44.2065   -1.6358   26.0913 C   0  0  0  0  0  0  0  0  0  0  0  0
   44.4799   -2.9321   25.6911 C   0  0  0  0  0  0  0  0  0  0  0  0
   44.0285   -3.9877   26.4485 C   0  0  0  0  0  0  0  0  0  0  0  0
   43.2816   -3.7633   27.6041 C   0  0  0  0  0  0  0  0  0  0  0  0
  1  2  2  0  0  0
  1  7  1  0  0  0
  1 12  1  0  0  0
  2  3  1  0  0  0
  2  4  1  0  0  0
  4  5  2  0  0  0
  5  6  1  0  0  0
  5  8  1  0  0  0
  6  7  2  0  0  0
  6  9  1  0  0  0
 12 13  1  0  0  0
 12 14  2  0  0  0
  8 10  1  0  0  0
  9 10  2  0  0  0
 10 19  1  0  0  0
 19 20  2  0  0  0
 19 24  1  0  0  0
 20 21  1  0  0  0
 21 22  2  0  0  0
 22 23  1  0  0  0
 23 24  2  0  0  0
 23 26  1  0  0  0
 24 25  1  0  0  0
 26 27  2  0  0  0
 26 31  1  0  0  0
 27 28  1  0  0  0
 28 29  2  0  0  0
 29 30  1  0  0  0
 30 31  2  0  0  0
 13 15  1  0  0  0
 13 16  1  0  0  0
 14 17  1  0  0  0
 14 18  1  0  0  0
  8 11  1  0  0  0
M  CHG 1  14   1
M  CHG 1  25  -1
M  END
> <minimizedAffinity>
-7.55916

$$$$
1O2N_762_A_246


 31 34  0  0  0  0  0  0  0  0999 V2000
   42.3205   -1.9557   29.9282 C   0  0  0  0  0  0  0  0  0  0  0  0
   41.0521   -1.6665   30.5250 C   0  0  0  0  0  0  0  0  0  0  0  0
   39.4682   -2.1890   29.8659 Cl  0  0  0  0  0  0  0  0  0  0  0  0
   41.0154   -0.9695   31.7545 C   0  0  0  0  0  0  0  0  0  0  0  0
   42.2064   -0.5852   32.3506 C   0  0  0  0  0  0  0  0  0  0  0  0
   43.3973   -0.8541   31.8072 C   0  0  0  0  0  0  0  0  0  0  0  0
   43.4920   -1.5402   30.5861 C   0  0  0  0  0  0  0  0  0  0  0  0
   42.4908    0.0324   33.4558 N   0  0  0  0  0  0  0  0  0  0  0  0
   44.4159   -0.4269   32.5373 N   0  0  0  0  0  0  0  0  0  0  0  0
   43.7957    0.1514   33.5555 C   0  0  0  0  0  0  0  0  0  0  0  0
   41.8350    0.3591   34.1134 H   0  0  0  0  0  0  0  0  0  0  0  0
   42.4223   -2.6188   28.6783 C   0  0  0  0  0  0  0  0  0  0  0  0
   41.9112   -3.8103   28.4553 N   0  0  0  0  0  0  0  0  0  0  0  0
   43.0788   -1.9826   27.7433 N   0  0  0  0  0  0  0  0  0  0  0  0
   41.4196   -4.2766   29.1695 H   0  0  0  0  0  0  0  0  0  0  0  0
   42.0204   -4.2357   27.5742 H   0  0  0  0  0  0  0  0  0  0  0  0
   43.4555   -1.0915   27.9256 H   0  0  0  0  0  0  0  0  0  0  0  0
   43.1965   -2.3948   26.8570 H   0  0  0  0  0  0  0  0  0  0  0  0
   44.4370    0.7101   34.6840 C   0  0  0  0  0  0  0  0  0  0  0  0
   45.7083    0.2773   35.1017 C   0  0  0  0  0  0  0  0  0  0  0  0
   46.3159    0.8346   36.2316 C   0  0  0  0  0  0  0  0  0  0  0  0
   45.6661    1.8115   36.9591 C   0  0  0  0  0  0  0  0  0  0  0  0
   44.4115    2.2648   36.5536 C   0  0  0  0  0  0  0  0  0  0  0  0
   43.7959    1.7104   35.4234 C   0  0  0  0  0  0  0  0  0  0  0  0
   42.5323    2.1341   35.0338 O   0  0  0  0  0  0  0  0  0  0  0  0
   43.7787    3.2665   37.2874 C   0  0  0  0  0  0  0  0  0  0  0  0
   43.0581    2.9175   38.4299 C   0  0  0  0  0  0  0  0  0  0  0  0
   42.4075    3.9051   39.1717 C   0  0  0  0  0  0  0  0  0  0  0  0
   42.4834    5.2328   38.7884 C   0  0  0  0  0  0  0  0  0  0  0  0
   43.2101    5.5786   37.6730 C   0  0  0  0  0  0  0  0  0  0  0  0
   43.8539    4.6017   36.9149 C   0  0  0  0  0  0  0  0  0  0  0  0
  1  2  2  0  0  0
  1  7  1  0  0  0
  1 12  1  0  0  0
  2  3  1  0  0  0
  2  4  1  0  0  0
  4  5  2  0  0  0
  5  6  1  0  0  0
  5  8  1  0  0  0
  6  7  2  0  0  0
  6  9  1  0  0  0
 12 13  1  0  0  0
 12 14  2  0  0  0
  8 10  1  0  0  0
  9 10  2  0  0  0
 10 19  1  0  0  0
 19 20  2  0  0  0
 19 24  1  0  0  0
 20 21  1  0  0  0
 21 22  2  0  0  0
 22 23  1  0  0  0
 23 24  2  0  0  0
 23 26  1  0  0  0
 24 25  1  0  0  0
 26 27  2  0  0  0
 26 31  1  0  0  0
 27 28  1  0  0  0
 28 29  2  0  0  0
 29 30  1  0  0  0
 30 31  2  0  0  0
 13 15  1  0  0  0
 13 16  1  0  0  0
 14 17  1  0  0  0
 14 18  1  0  0  0
  8 11  1  0  0  0
M  CHG 1  14   1
M  CHG 1  25  -1
M  END
> <minimizedAffinity>
-7.44091

$$$$
1O2N_762_A_246


 31 34  0  0  0  0  0  0  0  0999 V2000
   43.8809   -2.1204   26.3849 C   0  0  0  0  0  0  0  0  0  0  0  0
   43.9501   -3.4479   26.9157 C   0  0  0  0  0  0  0  0  0  0  0  0
   44.5212   -4.8846   26.0072 Cl  0  0  0  0  0  0  0  0  0  0  0  0
   43.6044   -3.6642   28.2694 C   0  0  0  0  0  0  0  0  0  0  0  0
   43.2088   -2.5874   29.0475 C   0  0  0  0  0  0  0  0  0  0  0  0
   43.1457   -1.3423   28.5662 C   0  0  0  0  0  0  0  0  0  0  0  0
   43.4743   -1.0712   27.2285 C   0  0  0  0  0  0  0  0  0  0  0  0
   42.8584   -2.4680   30.2912 N   0  0  0  0  0  0  0  0  0  0  0  0
   42.7696   -0.4492   29.4684 N   0  0  0  0  0  0  0  0  0  0  0  0
   42.5720   -1.2090   30.5357 C   0  0  0  0  0  0  0  0  0  0  0  0
   42.8142   -3.2020   30.9458 H   0  0  0  0  0  0  0  0  0  0  0  0
   44.1791   -1.8446   25.0257 C   0  0  0  0  0  0  0  0  0  0  0  0
   43.8736   -0.7062   24.4415 N   0  0  0  0  0  0  0  0  0  0  0  0
   44.7690   -2.8045   24.3618 N   0  0  0  0  0  0  0  0  0  0  0  0
   43.4296    0.0069   24.9548 H   0  0  0  0  0  0  0  0  0  0  0  0
   44.0890   -0.5674   23.4909 H   0  0  0  0  0  0  0  0  0  0  0  0
   44.9913   -3.6507   24.8131 H   0  0  0  0  0  0  0  0  0  0  0  0
   44.9909   -2.6808   23.4106 H   0  0  0  0  0  0  0  0  0  0  0  0
   42.2296   -0.7296   31.8202 C   0  0  0  0  0  0  0  0  0  0  0  0
   40.8949   -0.6863   32.2617 C   0  0  0  0  0  0  0  0  0  0  0  0
   40.5795   -0.1925   33.5318 C   0  0  0  0  0  0  0  0  0  0  0  0
   41.5782    0.2707   34.3647 C   0  0  0  0  0  0  0  0  0  0  0  0
   42.9090    0.2230   33.9518 C   0  0  0  0  0  0  0  0  0  0  0  0
   43.2328   -0.2692   32.6804 C   0  0  0  0  0  0  0  0  0  0  0  0
   44.5529   -0.2883   32.2506 O   0  0  0  0  0  0  0  0  0  0  0  0
   43.9067    0.6752   34.8136 C   0  0  0  0  0  0  0  0  0  0  0  0
   44.1041    2.0484   34.9609 C   0  0  0  0  0  0  0  0  0  0  0  0
   45.1061    2.5208   35.8104 C   0  0  0  0  0  0  0  0  0  0  0  0
   45.8984    1.6347   36.5192 C   0  0  0  0  0  0  0  0  0  0  0  0
   45.6905    0.2814   36.3885 C   0  0  0  0  0  0  0  0  0  0  0  0
   44.7026   -0.2052   35.5337 C   0  0  0  0  0  0  0  0  0  0  0  0
  1  2  2  0  0  0
  1  7  1  0  0  0
  1 12  1  0  0  0
  2  3  1  0  0  0
  2  4  1  0  0  0
  4  5  2  0  0  0
  5  6  1  0  0  0
  5  8  1  0  0  0
  6  7  2  0  0  0
  6  9  1  0  0  0
 12 13  1  0  0  0
 12 14  2  0  0  0
  8 10  1  0  0  0
  9 10  2  0  0  0
 10 19  1  0  0  0
 19 20  2  0  0  0
 19 24  1  0  0  0
 20 21  1  0  0  0
 21 22  2  0  0  0
 22 23  1  0  0  0
 23 24  2  0  0  0
 23 26  1  0  0  0
 24 25  1  0  0  0
 26 27  2  0  0  0
 26 31  1  0  0  0
 27 28  1  0  0  0
 28 29  2  0  0  0
 29 30  1  0  0  0
 30 31  2  0  0  0
 13 15  1  0  0  0
 13 16  1  0  0  0
 14 17  1  0  0  0
 14 18  1  0  0  0
  8 11  1  0  0  0
M  CHG 1  14   1
M  CHG 1  25  -1
M  END
> <minimizedAffinity>
-7.34225

$$$$
1O2N_762_A_246


 31 34  0  0  0  0  0  0  0  0999 V2000
   42.1991   -2.1322   30.0159 C   0  0  0  0  0  0  0  0  0  0  0  0
   40.9009   -2.0706   30.6156 C   0  0  0  0  0  0  0  0  0  0  0  0
   39.4603   -2.9643   30.0311 Cl  0  0  0  0  0  0  0  0  0  0  0  0
   40.7235   -1.3031   31.7897 C   0  0  0  0  0  0  0  0  0  0  0  0
   41.8090   -0.6317   32.3301 C   0  0  0  0  0  0  0  0  0  0  0  0
   43.0274   -0.6856   31.7837 C   0  0  0  0  0  0  0  0  0  0  0  0
   43.2593   -1.4296   30.6159 C   0  0  0  0  0  0  0  0  0  0  0  0
   41.9616    0.1162   33.3795 N   0  0  0  0  0  0  0  0  0  0  0  0
   43.9361    0.0018   32.4581 N   0  0  0  0  0  0  0  0  0  0  0  0
   43.2124    0.5144   33.4426 C   0  0  0  0  0  0  0  0  0  0  0  0
   41.2546    0.3479   34.0242 H   0  0  0  0  0  0  0  0  0  0  0  0
   42.4330   -2.8545   28.8176 C   0  0  0  0  0  0  0  0  0  0  0  0
   42.0826   -4.1126   28.6589 N   0  0  0  0  0  0  0  0  0  0  0  0
   43.0435   -2.2008   27.8637 N   0  0  0  0  0  0  0  0  0  0  0  0
   41.6235   -4.5912   29.3866 H   0  0  0  0  0  0  0  0  0  0  0  0
   42.2794   -4.5754   27.8126 H   0  0  0  0  0  0  0  0  0  0  0  0
   43.2994   -1.2596   27.9977 H   0  0  0  0  0  0  0  0  0  0  0  0
   43.2473   -2.6498   27.0116 H   0  0  0  0  0  0  0  0  0  0  0  0
   43.7262    1.2817   34.5122 C   0  0  0  0  0  0  0  0  0  0  0  0
   43.4091    2.6434   34.6646 C   0  0  0  0  0  0  0  0  0  0  0  0
   43.9430    3.3860   35.7228 C   0  0  0  0  0  0  0  0  0  0  0  0
   44.8002    2.7905   36.6264 C   0  0  0  0  0  0  0  0  0  0  0  0
   45.1159    1.4382   36.5015 C   0  0  0  0  0  0  0  0  0  0  0  0
   44.5859    0.6880   35.4433 C   0  0  0  0  0  0  0  0  0  0  0  0
   44.9228   -0.6508   35.2945 O   0  0  0  0  0  0  0  0  0  0  0  0
   45.9663    0.8478   37.4346 C   0  0  0  0  0  0  0  0  0  0  0  0
   47.3197    0.7093   37.1261 C   0  0  0  0  0  0  0  0  0  0  0  0
   48.1853    0.1099   38.0429 C   0  0  0  0  0  0  0  0  0  0  0  0
   47.7116   -0.3372   39.2640 C   0  0  0  0  0  0  0  0  0  0  0  0
   46.3809   -0.1829   39.5756 C   0  0  0  0  0  0  0  0  0  0  0  0
   45.5022    0.4017   38.6646 C   0  0  0  0  0  0  0  0  0  0  0  0
  1  2  2  0  0  0
  1  7  1  0  0  0
  1 12  1  0  0  0
  2  3  1  0  0  0
  2  4  1  0  0  0
  4  5  2  0  0  0
  5  6  1  0  0  0
  5  8  1  0  0  0
  6  7  2  0  0  0
  6  9  1  0  0  0
 12 13  1  0  0  0
 12 14  2  0  0  0
  8 10  1  0  0  0
  9 10  2  0  0  0
 10 19  1  0  0  0
 19 20  2  0  0  0
 19 24  1  0  0  0
 20 21  1  0  0  0
 21 22  2  0  0  0
 22 23  1  0  0  0
 23 24  2  0  0  0
 23 26  1  0  0  0
 24 25  1  0  0  0
 26 27  2  0  0  0
 26 31  1  0  0  0
 27 28  1  0  0  0
 28 29  2  0  0  0
 29 30  1  0  0  0
 30 31  2  0  0  0
 13 15  1  0  0  0
 13 16  1  0  0  0
 14 17  1  0  0  0
 14 18  1  0  0  0
  8 11  1  0  0  0
M  CHG 1  14   1
M  CHG 1  25  -1
M  END
> <minimizedAffinity>
-6.96608

$$$$
1O2N_762_A_246


 31 34  0  0  0  0  0  0  0  0999 V2000
   43.5717   -2.0054   27.2162 C   0  0  0  0  0  0  0  0  0  0  0  0
   43.0823   -3.2864   27.6264 C   0  0  0  0  0  0  0  0  0  0  0  0
   43.2215   -4.7917   26.6616 Cl  0  0  0  0  0  0  0  0  0  0  0  0
   42.4930   -3.4185   28.9047 C   0  0  0  0  0  0  0  0  0  0  0  0
   42.4048   -2.3066   29.7277 C   0  0  0  0  0  0  0  0  0  0  0  0
   42.8630   -1.1064   29.3595 C   0  0  0  0  0  0  0  0  0  0  0  0
   43.4540   -0.9178   28.1001 C   0  0  0  0  0  0  0  0  0  0  0  0
   41.9476   -2.1203   30.9277 N   0  0  0  0  0  0  0  0  0  0  0  0
   42.7091   -0.1775   30.2904 N   0  0  0  0  0  0  0  0  0  0  0  0
   42.1015   -0.8564   31.2526 C   0  0  0  0  0  0  0  0  0  0  0  0
   41.5496   -2.8139   31.5019 H   0  0  0  0  0  0  0  0  0  0  0  0
   44.1393   -1.8004   25.9325 C   0  0  0  0  0  0  0  0  0  0  0  0
   45.0742   -2.5775   25.4297 N   0  0  0  0  0  0  0  0  0  0  0  0
   43.6918   -0.7685   25.2655 N   0  0  0  0  0  0  0  0  0  0  0  0
   45.4008   -3.3508   25.9442 H   0  0  0  0  0  0  0  0  0  0  0  0
   45.4472   -2.3859   24.5390 H   0  0  0  0  0  0  0  0  0  0  0  0
   42.9918   -0.1963   25.6553 H   0  0  0  0  0  0  0  0  0  0  0  0
   44.0548   -0.5637   24.3736 H   0  0  0  0  0  0  0  0  0  0  0  0
   41.7754   -0.3407   32.5271 C   0  0  0  0  0  0  0  0  0  0  0  0
   40.4444   -0.2624   32.9747 C   0  0  0  0  0  0  0  0  0  0  0  0
   40.1453    0.2668   34.2344 C   0  0  0  0  0  0  0  0  0  0  0  0
   41.1571    0.7310   35.0508 C   0  0  0  0  0  0  0  0  0  0  0  0
   42.4844    0.6492   34.6320 C   0  0  0  0  0  0  0  0  0  0  0  0
   42.7918    0.1214   33.3708 C   0  0  0  0  0  0  0  0  0  0  0  0
   44.1089    0.0678   32.9346 O   0  0  0  0  0  0  0  0  0  0  0  0
   43.4952    1.1031   35.4774 C   0  0  0  0  0  0  0  0  0  0  0  0
   44.0844    0.2083   36.3709 C   0  0  0  0  0  0  0  0  0  0  0  0
   45.0904    0.6466   37.2340 C   0  0  0  0  0  0  0  0  0  0  0  0
   45.5173    1.9627   37.2005 C   0  0  0  0  0  0  0  0  0  0  0  0
   44.9497    2.8397   36.3060 C   0  0  0  0  0  0  0  0  0  0  0  0
   43.9349    2.4195   35.4473 C   0  0  0  0  0  0  0  0  0  0  0  0
  1  2  2  0  0  0
  1  7  1  0  0  0
  1 12  1  0  0  0
  2  3  1  0  0  0
  2  4  1  0  0  0
  4  5  2  0  0  0
  5  6  1  0  0  0
  5  8  1  0  0  0
  6  7  2  0  0  0
  6  9  1  0  0  0
 12 13  1  0  0  0
 12 14  2  0  0  0
  8 10  1  0  0  0
  9 10  2  0  0  0
 10 19  1  0  0  0
 19 20  2  0  0  0
 19 24  1  0  0  0
 20 21  1  0  0  0
 21 22  2  0  0  0
 22 23  1  0  0  0
 23 24  2  0  0  0
 23 26  1  0  0  0
 24 25  1  0  0  0
 26 27  2  0  0  0
 26 31  1  0  0  0
 27 28  1  0  0  0
 28 29  2  0  0  0
 29 30  1  0  0  0
 30 31  2  0  0  0
 13 15  1  0  0  0
 13 16  1  0  0  0
 14 17  1  0  0  0
 14 18  1  0  0  0
  8 11  1  0  0  0
M  CHG 1  14   1
M  CHG 1  25  -1
M  END
> <minimizedAffinity>
-6.69141

$$$$
1O2N_762_A_246


 31 34  0  0  0  0  0  0  0  0999 V2000
   43.9046   -2.1709   25.7885 C   0  0  0  0  0  0  0  0  0  0  0  0
   43.8548   -3.5752   26.0609 C   0  0  0  0  0  0  0  0  0  0  0  0
   44.0672   -4.8640   24.8322 Cl  0  0  0  0  0  0  0  0  0  0  0  0
   43.6848   -4.0094   27.3956 C   0  0  0  0  0  0  0  0  0  0  0  0
   43.5718   -3.0664   28.4052 C   0  0  0  0  0  0  0  0  0  0  0  0
   43.6226   -1.7527   28.1654 C   0  0  0  0  0  0  0  0  0  0  0  0
   43.7863   -1.2662   26.8587 C   0  0  0  0  0  0  0  0  0  0  0  0
   43.4305   -3.1517   29.6922 N   0  0  0  0  0  0  0  0  0  0  0  0
   43.5199   -1.0149   29.2600 N   0  0  0  0  0  0  0  0  0  0  0  0
   43.3722   -1.9399   30.1972 C   0  0  0  0  0  0  0  0  0  0  0  0
   43.3758   -3.9889   30.2072 H   0  0  0  0  0  0  0  0  0  0  0  0
   44.0360   -1.6722   24.4670 C   0  0  0  0  0  0  0  0  0  0  0  0
   43.6867   -0.4513   24.1236 N   0  0  0  0  0  0  0  0  0  0  0  0
   44.5148   -2.5087   23.5833 N   0  0  0  0  0  0  0  0  0  0  0  0
   43.3278    0.1669   24.8005 H   0  0  0  0  0  0  0  0  0  0  0  0
   43.7841   -0.1558   23.1895 H   0  0  0  0  0  0  0  0  0  0  0  0
   44.7718   -3.4191   23.8559 H   0  0  0  0  0  0  0  0  0  0  0  0
   44.6183   -2.2281   22.6453 H   0  0  0  0  0  0  0  0  0  0  0  0
   43.2978   -1.6835   31.5849 C   0  0  0  0  0  0  0  0  0  0  0  0
   44.0438   -0.6548   32.1878 C   0  0  0  0  0  0  0  0  0  0  0  0
   43.9654   -0.4306   33.5662 C   0  0  0  0  0  0  0  0  0  0  0  0
   43.1605   -1.2279   34.3550 C   0  0  0  0  0  0  0  0  0  0  0  0
   42.4018   -2.2437   33.7749 C   0  0  0  0  0  0  0  0  0  0  0  0
   42.4759   -2.4752   32.3948 C   0  0  0  0  0  0  0  0  0  0  0  0
   41.7483   -3.5065   31.8163 O   0  0  0  0  0  0  0  0  0  0  0  0
   41.5783   -3.0257   34.5830 C   0  0  0  0  0  0  0  0  0  0  0  0
   42.1060   -4.1689   35.1837 C   0  0  0  0  0  0  0  0  0  0  0  0
   41.2940   -4.9715   35.9871 C   0  0  0  0  0  0  0  0  0  0  0  0
   39.9695   -4.6332   36.2029 C   0  0  0  0  0  0  0  0  0  0  0  0
   39.4550   -3.4955   35.6262 C   0  0  0  0  0  0  0  0  0  0  0  0
   40.2503   -2.6917   34.8108 C   0  0  0  0  0  0  0  0  0  0  0  0
  1  2  2  0  0  0
  1  7  1  0  0  0
  1 12  1  0  0  0
  2  3  1  0  0  0
  2  4  1  0  0  0
  4  5  2  0  0  0
  5  6  1  0  0  0
  5  8  1  0  0  0
  6  7  2  0  0  0
  6  9  1  0  0  0
 12 13  1  0  0  0
 12 14  2  0  0  0
  8 10  1  0  0  0
  9 10  2  0  0  0
 10 19  1  0  0  0
 19 20  2  0  0  0
 19 24  1  0  0  0
 20 21  1  0  0  0
 21 22  2  0  0  0
 22 23  1  0  0  0
 23 24  2  0  0  0
 23 26  1  0  0  0
 24 25  1  0  0  0
 26 27  2  0  0  0
 26 31  1  0  0  0
 27 28  1  0  0  0
 28 29  2  0  0  0
 29 30  1  0  0  0
 30 31  2  0  0  0
 13 15  1  0  0  0
 13 16  1  0  0  0
 14 17  1  0  0  0
 14 18  1  0  0  0
  8 11  1  0  0  0
M  CHG 1  14   1
M  CHG 1  25  -1
M  END
> <minimizedAffinity>
-6.68329

$$$$
1O2N_762_A_246


 31 34  0  0  0  0  0  0  0  0999 V2000
   42.1586    1.5806   35.2583 C   0  0  0  0  0  0  0  0  0  0  0  0
   43.4872    2.0588   35.0244 C   0  0  0  0  0  0  0  0  0  0  0  0
   44.2996    3.3351   35.9872 Cl  0  0  0  0  0  0  0  0  0  0  0  0
   44.2617    1.4610   34.0038 C   0  0  0  0  0  0  0  0  0  0  0  0
   43.7166    0.4280   33.2574 C   0  0  0  0  0  0  0  0  0  0  0  0
   42.4799   -0.0320   33.4693 C   0  0  0  0  0  0  0  0  0  0  0  0
   41.6659    0.5274   34.4672 C   0  0  0  0  0  0  0  0  0  0  0  0
   44.1725   -0.3118   32.2937 N   0  0  0  0  0  0  0  0  0  0  0  0
   42.1492   -1.0357   32.6717 N   0  0  0  0  0  0  0  0  0  0  0  0
   43.2382   -1.1601   31.9271 C   0  0  0  0  0  0  0  0  0  0  0  0
   45.0729   -0.2479   31.9007 H   0  0  0  0  0  0  0  0  0  0  0  0
   41.3190    2.1634   36.2421 C   0  0  0  0  0  0  0  0  0  0  0  0
   40.3932    3.0538   35.9581 N   0  0  0  0  0  0  0  0  0  0  0  0
   41.5263    1.7780   37.4744 N   0  0  0  0  0  0  0  0  0  0  0  0
   40.2492    3.3338   35.0253 H   0  0  0  0  0  0  0  0  0  0  0  0
   39.8445    3.4402   36.6784 H   0  0  0  0  0  0  0  0  0  0  0  0
   42.2230    1.1107   37.6709 H   0  0  0  0  0  0  0  0  0  0  0  0
   40.9857    2.1552   38.2056 H   0  0  0  0  0  0  0  0  0  0  0  0
   43.4426   -2.1604   30.9502 C   0  0  0  0  0  0  0  0  0  0  0  0
   43.5967   -1.8436   29.5885 C   0  0  0  0  0  0  0  0  0  0  0  0
   43.7821   -2.8527   28.6379 C   0  0  0  0  0  0  0  0  0  0  0  0
   43.8039   -4.1773   29.0263 C   0  0  0  0  0  0  0  0  0  0  0  0
   43.6674   -4.5118   30.3729 C   0  0  0  0  0  0  0  0  0  0  0  0
   43.4802   -3.5064   31.3310 C   0  0  0  0  0  0  0  0  0  0  0  0
   43.3105   -3.8353   32.6692 O   0  0  0  0  0  0  0  0  0  0  0  0
   43.7129   -5.8527   30.7502 C   0  0  0  0  0  0  0  0  0  0  0  0
   42.5847   -6.6501   30.5564 C   0  0  0  0  0  0  0  0  0  0  0  0
   42.6067   -7.9927   30.9386 C   0  0  0  0  0  0  0  0  0  0  0  0
   43.7469   -8.5429   31.4977 C   0  0  0  0  0  0  0  0  0  0  0  0
   44.8653   -7.7613   31.6705 C   0  0  0  0  0  0  0  0  0  0  0  0
   44.8536   -6.4157   31.3060 C   0  0  0  0  0  0  0  0  0  0  0  0
  1  2  2  0  0  0
  1  7  1  0  0  0
  1 12  1  0  0  0
  2  3  1  0  0  0
  2  4  1  0  0  0
  4  5  2  0  0  0
  5  6  1  0  0  0
  5  8  1  0  0  0
  6  7  2  0  0  0
  6  9  1  0  0  0
 12 13  1  0  0  0
 12 14  2  0  0  0
  8 10  1  0  0  0
  9 10  2  0  0  0
 10 19  1  0  0  0
 19 20  2  0  0  0
 19 24  1  0  0  0
 20 21  1  0  0  0
 21 22  2  0  0  0
 22 23  1  0  0  0
 23 24  2  0  0  0
 23 26  1  0  0  0
 24 25  1  0  0  0
 26 27  2  0  0  0
 26 31  1  0  0  0
 27 28  1  0  0  0
 28 29  2  0  0  0
 29 30  1  0  0  0
 30 31  2  0  0  0
 13 15  1  0  0  0
 13 16  1  0  0  0
 14 17  1  0  0  0
 14 18  1  0  0  0
  8 11  1  0  0  0
M  CHG 1  14   1
M  CHG 1  25  -1
M  END
> <minimizedAffinity>
-6.62052

$$$$
