4NVP_7CH_A_800


 26 29  0  0  0  0  0  0  0  0999 V2000
    3.7331   23.0932   15.3893 O   0  0  0  0  0  0  0  0  0  0  0  0
    4.2500   21.6807   15.4353 P   0  0  0  0  0  0  0  0  0  0  0  0
    5.1045   21.2085   16.5719 O   0  0  0  0  0  0  0  0  0  0  0  0
    3.0183   20.6509   15.2287 O   0  0  0  0  0  0  0  0  0  0  0  0
    3.5047   19.3397   15.0828 C   0  0  0  0  0  0  0  0  0  0  0  0
    4.3998   19.2537   13.8695 C   0  0  0  0  0  0  0  0  0  0  0  0
    5.6344   20.1211   13.8641 C   0  0  0  0  0  0  0  0  0  0  0  0
    5.1442   21.4387   14.0966 O   0  0  0  0  0  0  0  0  0  0  0  0
    2.5000   18.2534   14.7889 C   0  0  0  0  0  0  0  0  0  0  0  0
    1.4698   18.7447   13.9152 O   0  0  0  0  0  0  0  0  0  0  0  0
    3.3779   17.2408   14.0873 C   0  0  0  0  0  0  0  0  0  0  0  0
    4.6528   17.8554   13.8883 O   0  0  0  0  0  0  0  0  0  0  0  0
    5.3421   20.2784   16.4331 H   0  0  0  0  0  0  0  0  0  0  0  0
    1.8736   19.1095   13.1122 H   0  0  0  0  0  0  0  0  0  0  0  0
    3.5567   16.0245   14.8851 N   0  0  0  0  0  0  0  0  0  0  0  0
    2.8932   14.9073   14.6644 C   0  0  0  0  0  0  0  0  0  0  0  0
    3.3642   13.9381   15.6497 C   0  0  0  0  0  0  0  0  0  0  0  0
    4.3248   14.5327   16.3724 C   0  0  0  0  0  0  0  0  0  0  0  0
    4.4325   15.8076   15.8968 C   0  0  0  0  0  0  0  0  0  0  0  0
    1.9635   14.5507   13.7703 N   0  0  0  0  0  0  0  0  0  0  0  0
    1.4072   13.3207   13.8018 C   0  0  0  0  0  0  0  0  0  0  0  0
    1.7734   12.3586   14.6711 N   0  0  0  0  0  0  0  0  0  0  0  0
    2.7174   12.5916   15.6136 C   0  0  0  0  0  0  0  0  0  0  0  0
    3.0967   11.6161   16.4991 N   0  0  0  0  0  0  0  0  0  0  0  0
    2.6668   10.7309   16.4703 H   0  0  0  0  0  0  0  0  0  0  0  0
    3.7991   11.8008   17.1638 H   0  0  0  0  0  0  0  0  0  0  0  0
 21 20  2  0  0  0
 21 22  1  0  0  0
 20 16  1  0  0  0
 10  9  1  0  0  0
  6 12  1  0  0  0
  6  7  1  0  0  0
  6  5  1  0  0  0
 12 11  1  0  0  0
  7  8  1  0  0  0
 11  9  1  0  0  0
 11 15  1  0  0  0
  8  2  1  0  0  0
 22 23  2  0  0  0
 16 15  1  0  0  0
 16 17  2  0  0  0
  9  5  1  0  0  0
 15 19  1  0  0  0
  5  4  1  0  0  0
  4  2  1  0  0  0
  1  2  2  0  0  0
  2  3  1  0  0  0
 23 17  1  0  0  0
 23 24  1  0  0  0
 17 18  1  0  0  0
 19 18  2  0  0  0
  3 13  1  0  0  0
 10 14  1  0  0  0
 24 25  1  0  0  0
 24 26  1  0  0  0
M  END
> <minimizedAffinity>
-11.73782

$$$$
