3GR2_GF4_A_1


 16 17  0  0  0  0  0  0  0  0999 V2000
  -33.2707    5.7645   13.8903 O   0  0  0  0  0  0  0  0  0  0  0  0
  -34.5352    5.9079   14.0898 C   0  0  0  0  0  0  0  0  0  0  0  0
  -35.5535    5.9188   13.0267 C   0  0  0  0  0  0  0  0  0  0  0  0
  -36.8268    6.1141   13.7948 C   0  0  0  0  0  0  0  0  0  0  0  0
  -38.2162    6.2058   13.2152 C   0  0  0  0  0  0  0  0  0  0  0  0
  -36.5295    6.1898   15.1175 N   0  0  0  0  0  0  0  0  0  0  0  0
  -35.1389    6.0618   15.2578 N   0  0  0  0  0  0  0  0  0  0  0  0
  -37.1760    6.3128   15.8497 H   0  0  0  0  0  0  0  0  0  0  0  0
  -34.5155    6.0970   16.4446 C   0  0  0  0  0  0  0  0  0  0  0  0
  -33.5775    7.0182   16.7257 N   0  0  0  0  0  0  0  0  0  0  0  0
  -33.1821    6.7151   18.0405 N   0  0  0  0  0  0  0  0  0  0  0  0
  -33.9249    5.5985   18.4757 N   0  0  0  0  0  0  0  0  0  0  0  0
  -34.7788    5.2176   17.4283 N   0  0  0  0  0  0  0  0  0  0  0  0
  -33.2440    7.7394   16.1444 H   0  0  0  0  0  0  0  0  0  0  0  0
  -35.3559    5.7896   11.5389 C   0  0  0  0  0  0  0  0  0  0  0  0
  -34.9662    7.1715   11.0418 C   0  0  0  0  0  0  0  0  0  0  0  0
  2  1  2  0  0  0
  3  2  1  0  0  0
  3 15  1  0  0  0
 15 16  1  0  0  0
  4  3  2  0  0  0
  4  6  1  0  0  0
  5  4  1  0  0  0
  6  7  1  0  0  0
  7  2  1  0  0  0
  7  9  1  0  0  0
  9 13  2  0  0  0
 10  9  1  0  0  0
 10 11  1  0  0  0
 11 12  2  0  0  0
 12 13  1  0  0  0
  6  8  1  0  0  0
 10 14  1  0  0  0
M  END
> <minimizedAffinity>
-6.06459

$$$$
3GR2_GF4_A_1


 16 17  0  0  0  0  0  0  0  0999 V2000
  -33.9746    7.9297   10.8262 O   0  0  0  0  0  0  0  0  0  0  0  0
  -34.9051    7.0588   10.6399 C   0  0  0  0  0  0  0  0  0  0  0  0
  -35.2407    5.9791   11.5828 C   0  0  0  0  0  0  0  0  0  0  0  0
  -36.3682    5.2758   10.8874 C   0  0  0  0  0  0  0  0  0  0  0  0
  -37.1194    4.0704   11.3948 C   0  0  0  0  0  0  0  0  0  0  0  0
  -36.6168    5.9088    9.7122 N   0  0  0  0  0  0  0  0  0  0  0  0
  -35.7156    6.9784    9.5963 N   0  0  0  0  0  0  0  0  0  0  0  0
  -37.3079    5.6609    9.0564 H   0  0  0  0  0  0  0  0  0  0  0  0
  -35.6935    7.8076    8.5426 C   0  0  0  0  0  0  0  0  0  0  0  0
  -36.0819    9.0909    8.6419 N   0  0  0  0  0  0  0  0  0  0  0  0
  -35.9108    9.6027    7.3436 N   0  0  0  0  0  0  0  0  0  0  0  0
  -35.4213    8.5651    6.5240 N   0  0  0  0  0  0  0  0  0  0  0  0
  -35.2892    7.4164    7.3203 N   0  0  0  0  0  0  0  0  0  0  0  0
  -36.4106    9.5638    9.4405 H   0  0  0  0  0  0  0  0  0  0  0  0
  -34.5930    5.6536   12.9033 C   0  0  0  0  0  0  0  0  0  0  0  0
  -35.3813    6.4096   13.9595 C   0  0  0  0  0  0  0  0  0  0  0  0
  2  1  2  0  0  0
  3  2  1  0  0  0
  3 15  1  0  0  0
 15 16  1  0  0  0
  4  3  2  0  0  0
  4  6  1  0  0  0
  5  4  1  0  0  0
  6  7  1  0  0  0
  7  2  1  0  0  0
  7  9  1  0  0  0
  9 13  2  0  0  0
 10  9  1  0  0  0
 10 11  1  0  0  0
 11 12  2  0  0  0
 12 13  1  0  0  0
  6  8  1  0  0  0
 10 14  1  0  0  0
M  END
> <minimizedAffinity>
-5.81777

$$$$
3GR2_GF4_A_1


 16 17  0  0  0  0  0  0  0  0999 V2000
  -34.4960    8.0085   11.2558 O   0  0  0  0  0  0  0  0  0  0  0  0
  -35.0982    6.9222   11.5968 C   0  0  0  0  0  0  0  0  0  0  0  0
  -35.9705    6.1356   10.7091 C   0  0  0  0  0  0  0  0  0  0  0  0
  -36.3994    5.0018   11.5921 C   0  0  0  0  0  0  0  0  0  0  0  0
  -37.3158    3.8667   11.2091 C   0  0  0  0  0  0  0  0  0  0  0  0
  -35.8184    5.1549   12.8097 N   0  0  0  0  0  0  0  0  0  0  0  0
  -35.0415    6.3233   12.7759 N   0  0  0  0  0  0  0  0  0  0  0  0
  -35.9236    4.5521   13.5809 H   0  0  0  0  0  0  0  0  0  0  0  0
  -34.3348    6.7643   13.8269 C   0  0  0  0  0  0  0  0  0  0  0  0
  -34.6351    7.9174   14.4496 N   0  0  0  0  0  0  0  0  0  0  0  0
  -33.6766    8.0140   15.4737 N   0  0  0  0  0  0  0  0  0  0  0  0
  -32.8364    6.8844   15.3962 N   0  0  0  0  0  0  0  0  0  0  0  0
  -33.2810    6.0925   14.3256 N   0  0  0  0  0  0  0  0  0  0  0  0
  -35.3598    8.5491   14.2373 H   0  0  0  0  0  0  0  0  0  0  0  0
  -36.3515    6.4183    9.2794 C   0  0  0  0  0  0  0  0  0  0  0  0
  -37.6756    7.1617    9.3329 C   0  0  0  0  0  0  0  0  0  0  0  0
  2  1  2  0  0  0
  3  2  1  0  0  0
  3 15  1  0  0  0
 15 16  1  0  0  0
  4  3  2  0  0  0
  4  6  1  0  0  0
  5  4  1  0  0  0
  6  7  1  0  0  0
  7  2  1  0  0  0
  7  9  1  0  0  0
  9 13  2  0  0  0
 10  9  1  0  0  0
 10 11  1  0  0  0
 11 12  2  0  0  0
 12 13  1  0  0  0
  6  8  1  0  0  0
 10 14  1  0  0  0
M  END
> <minimizedAffinity>
-5.69566

$$$$
3GR2_GF4_A_1


 16 17  0  0  0  0  0  0  0  0999 V2000
  -37.5638    6.9454    9.4645 O   0  0  0  0  0  0  0  0  0  0  0  0
  -36.4175    7.3096    9.0037 C   0  0  0  0  0  0  0  0  0  0  0  0
  -35.2448    7.6277    9.8349 C   0  0  0  0  0  0  0  0  0  0  0  0
  -34.2065    7.9854    8.8134 C   0  0  0  0  0  0  0  0  0  0  0  0
  -32.7845    8.4040    9.0918 C   0  0  0  0  0  0  0  0  0  0  0  0
  -34.7536    7.8647    7.5767 N   0  0  0  0  0  0  0  0  0  0  0  0
  -36.0874    7.4560    7.7301 N   0  0  0  0  0  0  0  0  0  0  0  0
  -34.2951    8.0342    6.7221 H   0  0  0  0  0  0  0  0  0  0  0  0
  -36.9138    7.2467    6.6948 C   0  0  0  0  0  0  0  0  0  0  0  0
  -38.2130    7.5890    6.7442 N   0  0  0  0  0  0  0  0  0  0  0  0
  -38.7157    7.2099    5.4870 N   0  0  0  0  0  0  0  0  0  0  0  0
  -37.6589    6.6449    4.7441 N   0  0  0  0  0  0  0  0  0  0  0  0
  -36.5061    6.6798    5.5447 N   0  0  0  0  0  0  0  0  0  0  0  0
  -38.7004    8.0088    7.4894 H   0  0  0  0  0  0  0  0  0  0  0  0
  -35.1307    7.6173   11.3370 C   0  0  0  0  0  0  0  0  0  0  0  0
  -35.0203    6.1574   11.7434 C   0  0  0  0  0  0  0  0  0  0  0  0
  2  1  2  0  0  0
  3  2  1  0  0  0
  3 15  1  0  0  0
 15 16  1  0  0  0
  4  3  2  0  0  0
  4  6  1  0  0  0
  5  4  1  0  0  0
  6  7  1  0  0  0
  7  2  1  0  0  0
  7  9  1  0  0  0
  9 13  2  0  0  0
 10  9  1  0  0  0
 10 11  1  0  0  0
 11 12  2  0  0  0
 12 13  1  0  0  0
  6  8  1  0  0  0
 10 14  1  0  0  0
M  END
> <minimizedAffinity>
-5.53845

$$$$
3GR2_GF4_A_1


 16 17  0  0  0  0  0  0  0  0999 V2000
  -34.4659    8.5912   14.0110 O   0  0  0  0  0  0  0  0  0  0  0  0
  -34.8929    7.4198   13.6877 C   0  0  0  0  0  0  0  0  0  0  0  0
  -35.4683    7.0716   12.3780 C   0  0  0  0  0  0  0  0  0  0  0  0
  -35.7934    5.6164   12.5396 C   0  0  0  0  0  0  0  0  0  0  0  0
  -36.4158    4.7180   11.5002 C   0  0  0  0  0  0  0  0  0  0  0  0
  -35.4271    5.2249   13.7870 N   0  0  0  0  0  0  0  0  0  0  0  0
  -34.8885    6.3380   14.4506 N   0  0  0  0  0  0  0  0  0  0  0  0
  -35.5225    4.3190   14.1604 H   0  0  0  0  0  0  0  0  0  0  0  0
  -34.4313    6.2900   15.7105 C   0  0  0  0  0  0  0  0  0  0  0  0
  -33.3902    7.0380   16.1159 N   0  0  0  0  0  0  0  0  0  0  0  0
  -33.2324    6.7001   17.4716 N   0  0  0  0  0  0  0  0  0  0  0  0
  -34.2126    5.7419   17.8019 N   0  0  0  0  0  0  0  0  0  0  0  0
  -34.9743    5.4934   16.6490 N   0  0  0  0  0  0  0  0  0  0  0  0
  -32.8601    7.6757   15.5854 H   0  0  0  0  0  0  0  0  0  0  0  0
  -35.6932    7.9651   11.1862 C   0  0  0  0  0  0  0  0  0  0  0  0
  -34.4933    7.7665   10.2755 C   0  0  0  0  0  0  0  0  0  0  0  0
  2  1  2  0  0  0
  3  2  1  0  0  0
  3 15  1  0  0  0
 15 16  1  0  0  0
  4  3  2  0  0  0
  4  6  1  0  0  0
  5  4  1  0  0  0
  6  7  1  0  0  0
  7  2  1  0  0  0
  7  9  1  0  0  0
  9 13  2  0  0  0
 10  9  1  0  0  0
 10 11  1  0  0  0
 11 12  2  0  0  0
 12 13  1  0  0  0
  6  8  1  0  0  0
 10 14  1  0  0  0
M  END
> <minimizedAffinity>
-5.49122

$$$$
3GR2_GF4_A_1


 16 17  0  0  0  0  0  0  0  0999 V2000
  -36.8678    4.1718   11.8153 O   0  0  0  0  0  0  0  0  0  0  0  0
  -36.4080    5.1650   11.1361 C   0  0  0  0  0  0  0  0  0  0  0  0
  -36.8782    5.5503    9.7953 C   0  0  0  0  0  0  0  0  0  0  0  0
  -36.0237    6.7413    9.4783 C   0  0  0  0  0  0  0  0  0  0  0  0
  -36.0653    7.5609    8.2128 C   0  0  0  0  0  0  0  0  0  0  0  0
  -35.1969    6.9755   10.5295 N   0  0  0  0  0  0  0  0  0  0  0  0
  -35.4562    6.0056   11.5101 N   0  0  0  0  0  0  0  0  0  0  0  0
  -34.5320    7.6988   10.5927 H   0  0  0  0  0  0  0  0  0  0  0  0
  -34.8031    5.9532   12.6803 C   0  0  0  0  0  0  0  0  0  0  0  0
  -34.6526    4.8014   13.3573 N   0  0  0  0  0  0  0  0  0  0  0  0
  -33.9280    5.1700   14.5045 N   0  0  0  0  0  0  0  0  0  0  0  0
  -33.6865    6.5578   14.4438 N   0  0  0  0  0  0  0  0  0  0  0  0
  -34.2608    7.0410   13.2573 N   0  0  0  0  0  0  0  0  0  0  0  0
  -34.9756    3.9057   13.1072 H   0  0  0  0  0  0  0  0  0  0  0  0
  -37.9372    4.8929    8.9493 C   0  0  0  0  0  0  0  0  0  0  0  0
  -39.2221    5.6623    9.2055 C   0  0  0  0  0  0  0  0  0  0  0  0
  2  1  2  0  0  0
  3  2  1  0  0  0
  3 15  1  0  0  0
 15 16  1  0  0  0
  4  3  2  0  0  0
  4  6  1  0  0  0
  5  4  1  0  0  0
  6  7  1  0  0  0
  7  2  1  0  0  0
  7  9  1  0  0  0
  9 13  2  0  0  0
 10  9  1  0  0  0
 10 11  1  0  0  0
 11 12  2  0  0  0
 12 13  1  0  0  0
  6  8  1  0  0  0
 10 14  1  0  0  0
M  END
> <minimizedAffinity>
-5.45270

$$$$
3GR2_GF4_A_1


 16 17  0  0  0  0  0  0  0  0999 V2000
  -37.2673    7.4426   14.8625 O   0  0  0  0  0  0  0  0  0  0  0  0
  -36.8728    6.5214   14.0532 C   0  0  0  0  0  0  0  0  0  0  0  0
  -37.7190    5.8920   13.0261 C   0  0  0  0  0  0  0  0  0  0  0  0
  -36.7826    4.9103   12.3867 C   0  0  0  0  0  0  0  0  0  0  0  0
  -37.1093    3.9697   11.2539 C   0  0  0  0  0  0  0  0  0  0  0  0
  -35.5713    5.0069   12.9925 N   0  0  0  0  0  0  0  0  0  0  0  0
  -35.6629    5.9876   13.9922 N   0  0  0  0  0  0  0  0  0  0  0  0
  -34.7694    4.4811   12.7695 H   0  0  0  0  0  0  0  0  0  0  0  0
  -34.6343    6.3267   14.7830 C   0  0  0  0  0  0  0  0  0  0  0  0
  -34.7386    6.3210   16.1234 N   0  0  0  0  0  0  0  0  0  0  0  0
  -33.4688    6.7295   16.5681 N   0  0  0  0  0  0  0  0  0  0  0  0
  -32.6622    6.9648   15.4358 N   0  0  0  0  0  0  0  0  0  0  0  0
  -33.4365    6.6980   14.2954 N   0  0  0  0  0  0  0  0  0  0  0  0
  -35.5238    6.0851   16.6684 H   0  0  0  0  0  0  0  0  0  0  0  0
  -39.1694    6.1563   12.7165 C   0  0  0  0  0  0  0  0  0  0  0  0
  -39.1830    7.1301   11.5503 C   0  0  0  0  0  0  0  0  0  0  0  0
  2  1  2  0  0  0
  3  2  1  0  0  0
  3 15  1  0  0  0
 15 16  1  0  0  0
  4  3  2  0  0  0
  4  6  1  0  0  0
  5  4  1  0  0  0
  6  7  1  0  0  0
  7  2  1  0  0  0
  7  9  1  0  0  0
  9 13  2  0  0  0
 10  9  1  0  0  0
 10 11  1  0  0  0
 11 12  2  0  0  0
 12 13  1  0  0  0
  6  8  1  0  0  0
 10 14  1  0  0  0
M  END
> <minimizedAffinity>
-5.26668

$$$$
3GR2_GF4_A_1


 16 17  0  0  0  0  0  0  0  0999 V2000
  -36.4166    9.9689    7.2964 O   0  0  0  0  0  0  0  0  0  0  0  0
  -36.2513    9.3273    8.4010 C   0  0  0  0  0  0  0  0  0  0  0  0
  -37.2049    9.3337    9.5226 C   0  0  0  0  0  0  0  0  0  0  0  0
  -36.5333    8.4469   10.5285 C   0  0  0  0  0  0  0  0  0  0  0  0
  -37.0598    8.0850   11.8948 C   0  0  0  0  0  0  0  0  0  0  0  0
  -35.3599    8.0071   10.0058 N   0  0  0  0  0  0  0  0  0  0  0  0
  -35.2229    8.5582    8.7224 N   0  0  0  0  0  0  0  0  0  0  0  0
  -34.7179    7.4068   10.4493 H   0  0  0  0  0  0  0  0  0  0  0  0
  -34.1651    8.3225    7.9325 C   0  0  0  0  0  0  0  0  0  0  0  0
  -34.3033    7.8145    6.6954 N   0  0  0  0  0  0  0  0  0  0  0  0
  -32.9857    7.7219    6.2134 N   0  0  0  0  0  0  0  0  0  0  0  0
  -32.1163    8.1890    7.2203 N   0  0  0  0  0  0  0  0  0  0  0  0
  -32.9009    8.5710    8.3202 N   0  0  0  0  0  0  0  0  0  0  0  0
  -35.1359    7.5646    6.2331 H   0  0  0  0  0  0  0  0  0  0  0  0
  -38.5150   10.0689    9.6341 C   0  0  0  0  0  0  0  0  0  0  0  0
  -39.5561    9.1822    8.9721 C   0  0  0  0  0  0  0  0  0  0  0  0
  2  1  2  0  0  0
  3  2  1  0  0  0
  3 15  1  0  0  0
 15 16  1  0  0  0
  4  3  2  0  0  0
  4  6  1  0  0  0
  5  4  1  0  0  0
  6  7  1  0  0  0
  7  2  1  0  0  0
  7  9  1  0  0  0
  9 13  2  0  0  0
 10  9  1  0  0  0
 10 11  1  0  0  0
 11 12  2  0  0  0
 12 13  1  0  0  0
  6  8  1  0  0  0
 10 14  1  0  0  0
M  END
> <minimizedAffinity>
-5.08164

$$$$
3GR2_GF4_A_1


 16 17  0  0  0  0  0  0  0  0999 V2000
  -38.1917    6.5514    8.0058 O   0  0  0  0  0  0  0  0  0  0  0  0
  -38.0381    5.7804    9.0262 C   0  0  0  0  0  0  0  0  0  0  0  0
  -36.8917    5.8323    9.9484 C   0  0  0  0  0  0  0  0  0  0  0  0
  -37.2099    4.7423   10.9282 C   0  0  0  0  0  0  0  0  0  0  0  0
  -36.3725    4.3326   12.1138 C   0  0  0  0  0  0  0  0  0  0  0  0
  -38.3938    4.1764   10.5797 N   0  0  0  0  0  0  0  0  0  0  0  0
  -38.8638    4.8272    9.4285 N   0  0  0  0  0  0  0  0  0  0  0  0
  -38.8437    3.4388   11.0517 H   0  0  0  0  0  0  0  0  0  0  0  0
  -40.0153    4.5037    8.8219 C   0  0  0  0  0  0  0  0  0  0  0  0
  -40.7479    5.4154    8.1589 N   0  0  0  0  0  0  0  0  0  0  0  0
  -41.8520    4.6872    7.6817 N   0  0  0  0  0  0  0  0  0  0  0  0
  -41.7104    3.3492    8.1034 N   0  0  0  0  0  0  0  0  0  0  0  0
  -40.5174    3.2555    8.8376 N   0  0  0  0  0  0  0  0  0  0  0  0
  -40.5555    6.3730    8.0357 H   0  0  0  0  0  0  0  0  0  0  0  0
  -35.6906    6.7404    9.8997 C   0  0  0  0  0  0  0  0  0  0  0  0
  -36.0210    7.9276   10.7884 C   0  0  0  0  0  0  0  0  0  0  0  0
  2  1  2  0  0  0
  3  2  1  0  0  0
  3 15  1  0  0  0
 15 16  1  0  0  0
  4  3  2  0  0  0
  4  6  1  0  0  0
  5  4  1  0  0  0
  6  7  1  0  0  0
  7  2  1  0  0  0
  7  9  1  0  0  0
  9 13  2  0  0  0
 10  9  1  0  0  0
 10 11  1  0  0  0
 11 12  2  0  0  0
 12 13  1  0  0  0
  6  8  1  0  0  0
 10 14  1  0  0  0
M  END
> <minimizedAffinity>
-4.94738

$$$$
3GR2_GF4_A_1


 16 17  0  0  0  0  0  0  0  0999 V2000
  -36.8925    5.4888    7.8264 O   0  0  0  0  0  0  0  0  0  0  0  0
  -36.9934    6.0170    8.9968 C   0  0  0  0  0  0  0  0  0  0  0  0
  -36.1346    7.1008    9.5019 C   0  0  0  0  0  0  0  0  0  0  0  0
  -36.6704    7.3259   10.8845 C   0  0  0  0  0  0  0  0  0  0  0  0
  -36.1662    8.3346   11.8861 C   0  0  0  0  0  0  0  0  0  0  0  0
  -37.7030    6.4700   11.0954 N   0  0  0  0  0  0  0  0  0  0  0  0
  -37.8690    5.6962    9.9364 N   0  0  0  0  0  0  0  0  0  0  0  0
  -38.2410    6.4038   11.9173 H   0  0  0  0  0  0  0  0  0  0  0  0
  -38.8087    4.7469    9.8170 C   0  0  0  0  0  0  0  0  0  0  0  0
  -39.4341    4.5111    8.6504 N   0  0  0  0  0  0  0  0  0  0  0  0
  -40.3251    3.4639    8.9443 N   0  0  0  0  0  0  0  0  0  0  0  0
  -40.1771    3.1312   10.3064 N   0  0  0  0  0  0  0  0  0  0  0  0
  -39.1927    3.9729   10.8484 N   0  0  0  0  0  0  0  0  0  0  0  0
  -39.2991    4.9670    7.7883 H   0  0  0  0  0  0  0  0  0  0  0  0
  -34.9898    7.7902    8.8065 C   0  0  0  0  0  0  0  0  0  0  0  0
  -35.6048    8.9165    7.9930 C   0  0  0  0  0  0  0  0  0  0  0  0
  2  1  2  0  0  0
  3  2  1  0  0  0
  3 15  1  0  0  0
 15 16  1  0  0  0
  4  3  2  0  0  0
  4  6  1  0  0  0
  5  4  1  0  0  0
  6  7  1  0  0  0
  7  2  1  0  0  0
  7  9  1  0  0  0
  9 13  2  0  0  0
 10  9  1  0  0  0
 10 11  1  0  0  0
 11 12  2  0  0  0
 12 13  1  0  0  0
  6  8  1  0  0  0
 10 14  1  0  0  0
M  END
> <minimizedAffinity>
-4.90948

$$$$
