3G32_3G3_A_1


 19 21  0  0  0  0  0  0  0  0999 V2000
   -3.0427   54.2035   12.2689 O   0  0  0  0  0  0  0  0  0  0  0  0
   -2.6564   52.9783   12.1716 C   0  0  0  0  0  0  0  0  0  0  0  0
   -1.5854   52.5960   11.3651 C   0  0  0  0  0  0  0  0  0  0  0  0
   -0.7215   53.2918   10.5252 C   0  0  0  0  0  0  0  0  0  0  0  0
    0.2644   52.5597    9.8528 C   0  0  0  0  0  0  0  0  0  0  0  0
    0.3729   51.1707   10.0165 C   0  0  0  0  0  0  0  0  0  0  0  0
   -0.5009   50.4789   10.8616 C   0  0  0  0  0  0  0  0  0  0  0  0
   -1.4702   51.2279   11.5209 C   0  0  0  0  0  0  0  0  0  0  0  0
   -3.2554   51.9775   12.8461 N   0  0  0  0  0  0  0  0  0  0  0  0
   -2.5577   50.9035   12.4700 C   0  0  0  0  0  0  0  0  0  0  0  0
   -2.7996   49.7154   12.8907 O   0  0  0  0  0  0  0  0  0  0  0  0
   -4.3851   52.0371   13.7719 C   0  0  0  0  0  0  0  0  0  0  0  0
   -5.6420   52.3998   12.9966 C   0  0  0  0  0  0  0  0  0  0  0  0
   -6.1553   53.7377   13.4628 C   0  0  0  0  0  0  0  0  0  0  0  0
   -7.3574   54.2410   13.1408 N   0  0  0  0  0  0  0  0  0  0  0  0
   -7.5046   55.4870   13.7523 N   0  0  0  0  0  0  0  0  0  0  0  0
   -6.3321   55.7452   14.4584 N   0  0  0  0  0  0  0  0  0  0  0  0
   -5.5167   54.6219   14.2656 N   0  0  0  0  0  0  0  0  0  0  0  0
   -4.6205   54.4954   14.6530 H   0  0  0  0  0  0  0  0  0  0  0  0
  1  2  2  0  0  0
  2  3  1  0  0  0
  2  9  1  0  0  0
  3  4  2  0  0  0
  3  8  1  0  0  0
  4  5  1  0  0  0
  5  6  2  0  0  0
  6  7  1  0  0  0
  7  8  2  0  0  0
  8 10  1  0  0  0
  9 10  1  0  0  0
  9 12  1  0  0  0
 10 11  2  0  0  0
 12 13  1  0  0  0
 13 14  1  0  0  0
 14 15  2  0  0  0
 14 18  1  0  0  0
 15 16  1  0  0  0
 16 17  2  0  0  0
 17 18  1  0  0  0
 18 19  1  0  0  0
M  END
> <minimizedAffinity>
-8.19800

$$$$
3G32_3G3_A_1


 19 21  0  0  0  0  0  0  0  0999 V2000
   -3.2923   49.7461   12.1875 O   0  0  0  0  0  0  0  0  0  0  0  0
   -2.8742   50.9550   12.0345 C   0  0  0  0  0  0  0  0  0  0  0  0
   -1.8334   51.2797   11.1658 C   0  0  0  0  0  0  0  0  0  0  0  0
   -1.0228   50.5307   10.3185 C   0  0  0  0  0  0  0  0  0  0  0  0
   -0.0520   51.2119    9.5744 C   0  0  0  0  0  0  0  0  0  0  0  0
    0.1016   52.6020    9.6849 C   0  0  0  0  0  0  0  0  0  0  0  0
   -0.7165   53.3470   10.5405 C   0  0  0  0  0  0  0  0  0  0  0  0
   -1.6755   52.6487   11.2672 C   0  0  0  0  0  0  0  0  0  0  0  0
   -3.4158   51.9949   12.6985 N   0  0  0  0  0  0  0  0  0  0  0  0
   -2.7077   53.0353   12.2539 C   0  0  0  0  0  0  0  0  0  0  0  0
   -2.9040   54.2446   12.6364 O   0  0  0  0  0  0  0  0  0  0  0  0
   -4.5137   52.0008   13.6637 C   0  0  0  0  0  0  0  0  0  0  0  0
   -5.7943   52.4119   12.9543 C   0  0  0  0  0  0  0  0  0  0  0  0
   -6.2355   53.7646   13.4507 C   0  0  0  0  0  0  0  0  0  0  0  0
   -7.4051   54.3423   13.1341 N   0  0  0  0  0  0  0  0  0  0  0  0
   -7.4870   55.5791   13.7756 N   0  0  0  0  0  0  0  0  0  0  0  0
   -6.3072   55.7538   14.4950 N   0  0  0  0  0  0  0  0  0  0  0  0
   -5.5545   54.5917   14.2792 N   0  0  0  0  0  0  0  0  0  0  0  0
   -4.6696   54.4056   14.6686 H   0  0  0  0  0  0  0  0  0  0  0  0
  1  2  2  0  0  0
  2  3  1  0  0  0
  2  9  1  0  0  0
  3  4  2  0  0  0
  3  8  1  0  0  0
  4  5  1  0  0  0
  5  6  2  0  0  0
  6  7  1  0  0  0
  7  8  2  0  0  0
  8 10  1  0  0  0
  9 10  1  0  0  0
  9 12  1  0  0  0
 10 11  2  0  0  0
 12 13  1  0  0  0
 13 14  1  0  0  0
 14 15  2  0  0  0
 14 18  1  0  0  0
 15 16  1  0  0  0
 16 17  2  0  0  0
 17 18  1  0  0  0
 18 19  1  0  0  0
M  END
> <minimizedAffinity>
-7.89884

$$$$
3G32_3G3_A_1


 19 21  0  0  0  0  0  0  0  0999 V2000
   -6.4550   53.3807   10.2136 O   0  0  0  0  0  0  0  0  0  0  0  0
   -7.1784   54.2120   10.8809 C   0  0  0  0  0  0  0  0  0  0  0  0
   -7.9687   55.1781   10.2600 C   0  0  0  0  0  0  0  0  0  0  0  0
   -8.1979   55.5199    8.9309 C   0  0  0  0  0  0  0  0  0  0  0  0
   -9.0797   56.5763    8.6721 C   0  0  0  0  0  0  0  0  0  0  0  0
   -9.7057   57.2698    9.7185 C   0  0  0  0  0  0  0  0  0  0  0  0
   -9.4683   56.9206   11.0519 C   0  0  0  0  0  0  0  0  0  0  0  0
   -8.5909   55.8663   11.2840 C   0  0  0  0  0  0  0  0  0  0  0  0
   -7.2283   54.2054   12.2273 N   0  0  0  0  0  0  0  0  0  0  0  0
   -8.0766   55.1991   12.5002 C   0  0  0  0  0  0  0  0  0  0  0  0
   -8.4159   55.5376   13.6908 O   0  0  0  0  0  0  0  0  0  0  0  0
   -6.5379   53.3278   13.1708 C   0  0  0  0  0  0  0  0  0  0  0  0
   -5.3571   54.0758   13.7695 C   0  0  0  0  0  0  0  0  0  0  0  0
   -4.1054   53.7455   12.9982 C   0  0  0  0  0  0  0  0  0  0  0  0
   -2.8826   54.2048   13.3074 N   0  0  0  0  0  0  0  0  0  0  0  0
   -1.9619   53.6917   12.3926 N   0  0  0  0  0  0  0  0  0  0  0  0
   -2.6692   52.9030   11.4882 N   0  0  0  0  0  0  0  0  0  0  0  0
   -4.0055   52.9489   11.9074 N   0  0  0  0  0  0  0  0  0  0  0  0
   -4.7541   52.4764   11.4767 H   0  0  0  0  0  0  0  0  0  0  0  0
  1  2  2  0  0  0
  2  3  1  0  0  0
  2  9  1  0  0  0
  3  4  2  0  0  0
  3  8  1  0  0  0
  4  5  1  0  0  0
  5  6  2  0  0  0
  6  7  1  0  0  0
  7  8  2  0  0  0
  8 10  1  0  0  0
  9 10  1  0  0  0
  9 12  1  0  0  0
 10 11  2  0  0  0
 12 13  1  0  0  0
 13 14  1  0  0  0
 14 15  2  0  0  0
 14 18  1  0  0  0
 15 16  1  0  0  0
 16 17  2  0  0  0
 17 18  1  0  0  0
 18 19  1  0  0  0
M  END
> <minimizedAffinity>
-7.17659

$$$$
3G32_3G3_A_1


 19 21  0  0  0  0  0  0  0  0999 V2000
   -5.1107   51.7225   11.2031 O   0  0  0  0  0  0  0  0  0  0  0  0
   -3.8817   52.0389   11.4250 C   0  0  0  0  0  0  0  0  0  0  0  0
   -2.8586   51.7285   10.5303 C   0  0  0  0  0  0  0  0  0  0  0  0
   -2.8239   51.0729    9.3035 C   0  0  0  0  0  0  0  0  0  0  0  0
   -1.5822   50.9392    8.6707 C   0  0  0  0  0  0  0  0  0  0  0  0
   -0.4123   51.4442    9.2574 C   0  0  0  0  0  0  0  0  0  0  0  0
   -0.4561   52.1005   10.4918 C   0  0  0  0  0  0  0  0  0  0  0  0
   -1.7012   52.2237   11.0999 C   0  0  0  0  0  0  0  0  0  0  0  0
   -3.4957   52.6975   12.5352 N   0  0  0  0  0  0  0  0  0  0  0  0
   -2.1776   52.8226   12.3660 C   0  0  0  0  0  0  0  0  0  0  0  0
   -1.4047   53.4053   13.2087 O   0  0  0  0  0  0  0  0  0  0  0  0
   -4.3079   53.1730   13.6538 C   0  0  0  0  0  0  0  0  0  0  0  0
   -4.8135   54.5721   13.3390 C   0  0  0  0  0  0  0  0  0  0  0  0
   -6.3191   54.5636   13.2764 C   0  0  0  0  0  0  0  0  0  0  0  0
   -7.0966   55.6029   13.6187 N   0  0  0  0  0  0  0  0  0  0  0  0
   -8.4333   55.2502   13.4271 N   0  0  0  0  0  0  0  0  0  0  0  0
   -8.4550   53.9367   12.9640 N   0  0  0  0  0  0  0  0  0  0  0  0
   -7.1130   53.5449   12.8685 N   0  0  0  0  0  0  0  0  0  0  0  0
   -6.7969   52.6671   12.5543 H   0  0  0  0  0  0  0  0  0  0  0  0
  1  2  2  0  0  0
  2  3  1  0  0  0
  2  9  1  0  0  0
  3  4  2  0  0  0
  3  8  1  0  0  0
  4  5  1  0  0  0
  5  6  2  0  0  0
  6  7  1  0  0  0
  7  8  2  0  0  0
  8 10  1  0  0  0
  9 10  1  0  0  0
  9 12  1  0  0  0
 10 11  2  0  0  0
 12 13  1  0  0  0
 13 14  1  0  0  0
 14 15  2  0  0  0
 14 18  1  0  0  0
 15 16  1  0  0  0
 16 17  2  0  0  0
 17 18  1  0  0  0
 18 19  1  0  0  0
M  END
> <minimizedAffinity>
-7.10535

$$$$
3G32_3G3_A_1


 19 21  0  0  0  0  0  0  0  0999 V2000
   -3.6237   55.2372   13.1670 O   0  0  0  0  0  0  0  0  0  0  0  0
   -4.1477   54.1025   12.8543 C   0  0  0  0  0  0  0  0  0  0  0  0
   -5.5227   53.9341   12.6977 C   0  0  0  0  0  0  0  0  0  0  0  0
   -6.6131   54.7903   12.8158 C   0  0  0  0  0  0  0  0  0  0  0  0
   -7.8872   54.2598   12.5803 C   0  0  0  0  0  0  0  0  0  0  0  0
   -8.0579   52.9090   12.2426 C   0  0  0  0  0  0  0  0  0  0  0  0
   -6.9563   52.0548   12.1276 C   0  0  0  0  0  0  0  0  0  0  0  0
   -5.7007   52.6053   12.3634 C   0  0  0  0  0  0  0  0  0  0  0  0
   -3.4052   52.9969   12.6504 N   0  0  0  0  0  0  0  0  0  0  0  0
   -4.3206   52.0724   12.3521 C   0  0  0  0  0  0  0  0  0  0  0  0
   -4.0351   50.8514   12.0786 O   0  0  0  0  0  0  0  0  0  0  0  0
   -1.9542   52.8347   12.7243 C   0  0  0  0  0  0  0  0  0  0  0  0
   -1.3465   53.1954   11.3779 C   0  0  0  0  0  0  0  0  0  0  0  0
   -0.8833   51.9425   10.6802 C   0  0  0  0  0  0  0  0  0  0  0  0
    0.4005   51.6564   10.4120 N   0  0  0  0  0  0  0  0  0  0  0  0
    0.4636   50.4178    9.7717 N   0  0  0  0  0  0  0  0  0  0  0  0
   -0.8420   49.9511    9.6386 N   0  0  0  0  0  0  0  0  0  0  0  0
   -1.6565   50.9252   10.2315 N   0  0  0  0  0  0  0  0  0  0  0  0
   -2.6367   50.8775   10.3095 H   0  0  0  0  0  0  0  0  0  0  0  0
  1  2  2  0  0  0
  2  3  1  0  0  0
  2  9  1  0  0  0
  3  4  2  0  0  0
  3  8  1  0  0  0
  4  5  1  0  0  0
  5  6  2  0  0  0
  6  7  1  0  0  0
  7  8  2  0  0  0
  8 10  1  0  0  0
  9 10  1  0  0  0
  9 12  1  0  0  0
 10 11  2  0  0  0
 12 13  1  0  0  0
 13 14  1  0  0  0
 14 15  2  0  0  0
 14 18  1  0  0  0
 15 16  1  0  0  0
 16 17  2  0  0  0
 17 18  1  0  0  0
 18 19  1  0  0  0
M  END
> <minimizedAffinity>
-6.87127

$$$$
3G32_3G3_A_1


 19 21  0  0  0  0  0  0  0  0999 V2000
   -7.4630   55.5378   13.7919 O   0  0  0  0  0  0  0  0  0  0  0  0
   -7.3374   55.0909   12.5902 C   0  0  0  0  0  0  0  0  0  0  0  0
   -7.9749   55.6864   11.5027 C   0  0  0  0  0  0  0  0  0  0  0  0
   -8.8279   56.7778   11.3713 C   0  0  0  0  0  0  0  0  0  0  0  0
   -9.2881   57.0947   10.0876 C   0  0  0  0  0  0  0  0  0  0  0  0
   -8.9062   56.3333    8.9730 C   0  0  0  0  0  0  0  0  0  0  0  0
   -8.0496   55.2367    9.1144 C   0  0  0  0  0  0  0  0  0  0  0  0
   -7.6033   54.9430   10.3988 C   0  0  0  0  0  0  0  0  0  0  0  0
   -6.5766   54.0187   12.2953 N   0  0  0  0  0  0  0  0  0  0  0  0
   -6.7197   53.9046   10.9731 C   0  0  0  0  0  0  0  0  0  0  0  0
   -6.1475   52.9947   10.2719 O   0  0  0  0  0  0  0  0  0  0  0  0
   -5.7781   53.1815   13.1889 C   0  0  0  0  0  0  0  0  0  0  0  0
   -4.5720   53.9758   13.6652 C   0  0  0  0  0  0  0  0  0  0  0  0
   -3.3596   53.5860   12.8597 C   0  0  0  0  0  0  0  0  0  0  0  0
   -2.0938   53.7108   13.2888 N   0  0  0  0  0  0  0  0  0  0  0  0
   -1.2313   53.2450   12.2953 N   0  0  0  0  0  0  0  0  0  0  0  0
   -2.0169   52.8380   11.2195 N   0  0  0  0  0  0  0  0  0  0  0  0
   -3.3440   53.0530   11.6147 N   0  0  0  0  0  0  0  0  0  0  0  0
   -4.1400   52.8486   11.0726 H   0  0  0  0  0  0  0  0  0  0  0  0
  1  2  2  0  0  0
  2  3  1  0  0  0
  2  9  1  0  0  0
  3  4  2  0  0  0
  3  8  1  0  0  0
  4  5  1  0  0  0
  5  6  2  0  0  0
  6  7  1  0  0  0
  7  8  2  0  0  0
  8 10  1  0  0  0
  9 10  1  0  0  0
  9 12  1  0  0  0
 10 11  2  0  0  0
 12 13  1  0  0  0
 13 14  1  0  0  0
 14 15  2  0  0  0
 14 18  1  0  0  0
 15 16  1  0  0  0
 16 17  2  0  0  0
 17 18  1  0  0  0
 18 19  1  0  0  0
M  END
> <minimizedAffinity>
-6.85863

$$$$
3G32_3G3_A_1


 19 21  0  0  0  0  0  0  0  0999 V2000
   -4.7136   49.6466   11.1293 O   0  0  0  0  0  0  0  0  0  0  0  0
   -4.9854   50.6658   11.8689 C   0  0  0  0  0  0  0  0  0  0  0  0
   -6.2106   51.3279   11.8049 C   0  0  0  0  0  0  0  0  0  0  0  0
   -7.3593   51.1471   11.0409 C   0  0  0  0  0  0  0  0  0  0  0  0
   -8.4270   52.0282   11.2505 C   0  0  0  0  0  0  0  0  0  0  0  0
   -8.3383   53.0617   12.1949 C   0  0  0  0  0  0  0  0  0  0  0  0
   -7.1790   53.2373   12.9575 C   0  0  0  0  0  0  0  0  0  0  0  0
   -6.1328   52.3481   12.7336 C   0  0  0  0  0  0  0  0  0  0  0  0
   -4.1078   51.1634   12.7620 N   0  0  0  0  0  0  0  0  0  0  0  0
   -4.7762   52.1854   13.3009 C   0  0  0  0  0  0  0  0  0  0  0  0
   -4.2965   52.9442   14.2181 O   0  0  0  0  0  0  0  0  0  0  0  0
   -2.7573   50.7039   13.0812 C   0  0  0  0  0  0  0  0  0  0  0  0
   -1.7503   51.6787   12.4912 C   0  0  0  0  0  0  0  0  0  0  0  0
   -1.1274   51.0776   11.2577 C   0  0  0  0  0  0  0  0  0  0  0  0
    0.1630   51.2190   10.9160 N   0  0  0  0  0  0  0  0  0  0  0  0
    0.3950   50.5247    9.7277 N   0  0  0  0  0  0  0  0  0  0  0  0
   -0.8144   49.9562    9.3350 N   0  0  0  0  0  0  0  0  0  0  0  0
   -1.7409   50.3117   10.3243 N   0  0  0  0  0  0  0  0  0  0  0  0
   -2.6888   50.0464   10.3387 H   0  0  0  0  0  0  0  0  0  0  0  0
  1  2  2  0  0  0
  2  3  1  0  0  0
  2  9  1  0  0  0
  3  4  2  0  0  0
  3  8  1  0  0  0
  4  5  1  0  0  0
  5  6  2  0  0  0
  6  7  1  0  0  0
  7  8  2  0  0  0
  8 10  1  0  0  0
  9 10  1  0  0  0
  9 12  1  0  0  0
 10 11  2  0  0  0
 12 13  1  0  0  0
 13 14  1  0  0  0
 14 15  2  0  0  0
 14 18  1  0  0  0
 15 16  1  0  0  0
 16 17  2  0  0  0
 17 18  1  0  0  0
 18 19  1  0  0  0
M  END
> <minimizedAffinity>
-6.63145

$$$$
3G32_3G3_A_1


 19 21  0  0  0  0  0  0  0  0999 V2000
   -5.0920   52.1071   10.6206 O   0  0  0  0  0  0  0  0  0  0  0  0
   -6.2680   52.2410   11.1293 C   0  0  0  0  0  0  0  0  0  0  0  0
   -7.3118   51.3649   10.8350 C   0  0  0  0  0  0  0  0  0  0  0  0
   -7.4202   50.2420   10.0206 C   0  0  0  0  0  0  0  0  0  0  0  0
   -8.6596   49.5929    9.9668 C   0  0  0  0  0  0  0  0  0  0  0  0
   -9.7559   50.0632   10.7048 C   0  0  0  0  0  0  0  0  0  0  0  0
   -9.6385   51.1939   11.5198 C   0  0  0  0  0  0  0  0  0  0  0  0
   -8.3970   51.8201   11.5593 C   0  0  0  0  0  0  0  0  0  0  0  0
   -6.5741   53.2340   11.9869 N   0  0  0  0  0  0  0  0  0  0  0  0
   -7.8595   53.0047   12.2638 C   0  0  0  0  0  0  0  0  0  0  0  0
   -8.5556   53.7307   13.0611 O   0  0  0  0  0  0  0  0  0  0  0  0
   -5.7193   54.3013   12.5038 C   0  0  0  0  0  0  0  0  0  0  0  0
   -5.0234   53.8117   13.7641 C   0  0  0  0  0  0  0  0  0  0  0  0
   -3.6022   53.4289   13.4408 C   0  0  0  0  0  0  0  0  0  0  0  0
   -2.5717   54.2890   13.4248 N   0  0  0  0  0  0  0  0  0  0  0  0
   -1.4068   53.5932   13.0983 N   0  0  0  0  0  0  0  0  0  0  0  0
   -1.7604   52.2612   12.8957 N   0  0  0  0  0  0  0  0  0  0  0  0
   -3.1399   52.1937   13.1329 N   0  0  0  0  0  0  0  0  0  0  0  0
   -3.6869   51.3767   13.0835 H   0  0  0  0  0  0  0  0  0  0  0  0
  1  2  2  0  0  0
  2  3  1  0  0  0
  2  9  1  0  0  0
  3  4  2  0  0  0
  3  8  1  0  0  0
  4  5  1  0  0  0
  5  6  2  0  0  0
  6  7  1  0  0  0
  7  8  2  0  0  0
  8 10  1  0  0  0
  9 10  1  0  0  0
  9 12  1  0  0  0
 10 11  2  0  0  0
 12 13  1  0  0  0
 13 14  1  0  0  0
 14 15  2  0  0  0
 14 18  1  0  0  0
 15 16  1  0  0  0
 16 17  2  0  0  0
 17 18  1  0  0  0
 18 19  1  0  0  0
M  END
> <minimizedAffinity>
-6.60137

$$$$
3G32_3G3_A_1


 19 21  0  0  0  0  0  0  0  0999 V2000
   -5.9675   50.6244   11.8528 O   0  0  0  0  0  0  0  0  0  0  0  0
   -5.5337   51.7247   12.3635 C   0  0  0  0  0  0  0  0  0  0  0  0
   -6.3220   52.8718   12.4427 C   0  0  0  0  0  0  0  0  0  0  0  0
   -7.6243   53.1689   12.0531 C   0  0  0  0  0  0  0  0  0  0  0  0
   -8.0983   54.4636   12.2965 C   0  0  0  0  0  0  0  0  0  0  0  0
   -7.2848   55.4297   12.9071 C   0  0  0  0  0  0  0  0  0  0  0  0
   -5.9761   55.1229   13.2940 C   0  0  0  0  0  0  0  0  0  0  0  0
   -5.5285   53.8296   13.0445 C   0  0  0  0  0  0  0  0  0  0  0  0
   -4.2883   51.8462   12.8633 N   0  0  0  0  0  0  0  0  0  0  0  0
   -4.2563   53.1130   13.2826 C   0  0  0  0  0  0  0  0  0  0  0  0
   -3.2331   53.6522   13.8388 O   0  0  0  0  0  0  0  0  0  0  0  0
   -3.2257   50.8455   12.9428 C   0  0  0  0  0  0  0  0  0  0  0  0
   -2.6962   50.5733   11.5436 C   0  0  0  0  0  0  0  0  0  0  0  0
   -1.8846   51.7521   11.0718 C   0  0  0  0  0  0  0  0  0  0  0  0
   -1.9613   52.2790    9.8396 N   0  0  0  0  0  0  0  0  0  0  0  0
   -1.0830   53.3604    9.7546 N   0  0  0  0  0  0  0  0  0  0  0  0
   -0.4428   53.4745   10.9863 N   0  0  0  0  0  0  0  0  0  0  0  0
   -0.9805   52.4601   11.7898 N   0  0  0  0  0  0  0  0  0  0  0  0
   -0.7390   52.2890   12.7288 H   0  0  0  0  0  0  0  0  0  0  0  0
  1  2  2  0  0  0
  2  3  1  0  0  0
  2  9  1  0  0  0
  3  4  2  0  0  0
  3  8  1  0  0  0
  4  5  1  0  0  0
  5  6  2  0  0  0
  6  7  1  0  0  0
  7  8  2  0  0  0
  8 10  1  0  0  0
  9 10  1  0  0  0
  9 12  1  0  0  0
 10 11  2  0  0  0
 12 13  1  0  0  0
 13 14  1  0  0  0
 14 15  2  0  0  0
 14 18  1  0  0  0
 15 16  1  0  0  0
 16 17  2  0  0  0
 17 18  1  0  0  0
 18 19  1  0  0  0
M  END
> <minimizedAffinity>
-6.48392

$$$$
3G32_3G3_A_1


 19 21  0  0  0  0  0  0  0  0999 V2000
   -5.4882   52.5573   10.5866 O   0  0  0  0  0  0  0  0  0  0  0  0
   -6.7712   52.4646   10.6571 C   0  0  0  0  0  0  0  0  0  0  0  0
   -7.4424   51.2560   10.4775 C   0  0  0  0  0  0  0  0  0  0  0  0
   -7.0234   49.9588   10.1986 C   0  0  0  0  0  0  0  0  0  0  0  0
   -8.0051   48.9673   10.0826 C   0  0  0  0  0  0  0  0  0  0  0  0
   -9.3654   49.2736   10.2367 C   0  0  0  0  0  0  0  0  0  0  0  0
   -9.7779   50.5807   10.5154 C   0  0  0  0  0  0  0  0  0  0  0  0
   -8.7845   51.5479   10.6288 C   0  0  0  0  0  0  0  0  0  0  0  0
   -7.5580   53.5275   10.9149 N   0  0  0  0  0  0  0  0  0  0  0  0
   -8.7848   53.0018   10.9027 C   0  0  0  0  0  0  0  0  0  0  0  0
   -9.8523   53.6827   11.1119 O   0  0  0  0  0  0  0  0  0  0  0  0
   -7.1778   54.9178   11.1591 C   0  0  0  0  0  0  0  0  0  0  0  0
   -7.1276   55.1611   12.6593 C   0  0  0  0  0  0  0  0  0  0  0  0
   -5.8297   54.6331   13.2141 C   0  0  0  0  0  0  0  0  0  0  0  0
   -5.7170   53.9718   14.3767 N   0  0  0  0  0  0  0  0  0  0  0  0
   -4.3797   53.6230   14.5710 N   0  0  0  0  0  0  0  0  0  0  0  0
   -3.6599   54.1111   13.4829 N   0  0  0  0  0  0  0  0  0  0  0  0
   -4.6029   54.7248   12.6476 N   0  0  0  0  0  0  0  0  0  0  0  0
   -4.4048   55.1550   11.7845 H   0  0  0  0  0  0  0  0  0  0  0  0
  1  2  2  0  0  0
  2  3  1  0  0  0
  2  9  1  0  0  0
  3  4  2  0  0  0
  3  8  1  0  0  0
  4  5  1  0  0  0
  5  6  2  0  0  0
  6  7  1  0  0  0
  7  8  2  0  0  0
  8 10  1  0  0  0
  9 10  1  0  0  0
  9 12  1  0  0  0
 10 11  2  0  0  0
 12 13  1  0  0  0
 13 14  1  0  0  0
 14 15  2  0  0  0
 14 18  1  0  0  0
 15 16  1  0  0  0
 16 17  2  0  0  0
 17 18  1  0  0  0
 18 19  1  0  0  0
M  END
> <minimizedAffinity>
-6.39040

$$$$
