6GE7_EW8_A_201


 22 21  0  0  0  0  0  0  0  0999 V2000
   14.9787   50.0844   57.1624 C   0  0  0  0  0  0  0  0  0  0  0  0
   14.4745   51.4887   56.7808 C   0  0  0  0  0  0  0  0  0  0  0  0
   13.1367   51.4420   56.0317 C   0  0  0  0  0  0  0  0  0  0  0  0
   12.4039   52.7845   56.0842 C   0  0  0  0  0  0  0  0  0  0  0  0
   10.9206   52.6515   55.7184 C   0  0  0  0  0  0  0  0  0  0  0  0
   10.6413   51.3641   54.9395 C   0  0  0  0  0  0  0  0  0  0  0  0
    9.1427   51.1508   54.7015 C   0  0  0  0  0  0  0  0  0  0  0  0
    8.3701   52.4296   52.8045 O   0  0  0  0  0  0  0  0  0  0  0  0
    8.8160   51.3146   53.1743 C   0  0  0  0  0  0  0  0  0  0  0  0
    9.0350   50.3338   52.4310 O   0  0  0  0  0  0  0  0  0  0  0  0
    9.3696   49.5370   52.7931 H   0  0  0  0  0  0  0  0  0  0  0  0
   14.4072   48.9657   56.2607 C   0  0  0  0  0  0  0  0  0  0  0  0
   15.3629   48.5580   55.0978 C   0  0  0  0  0  0  0  0  0  0  0  0
   16.7360   49.2488   55.2160 C   0  0  0  0  0  0  0  0  0  0  0  0
   17.9432   48.2794   55.1516 C   0  0  0  0  0  0  0  0  0  0  0  0
   19.0092   48.7091   56.1360 C   0  0  0  0  0  0  0  0  0  0  0  0
   18.8509   48.1542   57.5378 C   0  0  0  0  0  0  0  0  0  0  0  0
   20.0534   47.4185   58.0048 C   0  0  0  0  0  0  0  0  0  0  0  0
   21.3361   47.8125   57.3126 C   0  0  0  0  0  0  0  0  0  0  0  0
   22.2315   48.6500   58.1885 C   0  0  0  0  0  0  0  0  0  0  0  0
   22.2739   50.0813   57.6937 C   0  0  0  0  0  0  0  0  0  0  0  0
   22.4634   50.1519   56.1827 C   0  0  0  0  0  0  0  0  0  0  0  0
 22 21  1  0  0  0
  8  9  2  0  0  0
 21 20  1  0  0  0
  9 10  1  0  0  0
  9  7  1  0  0  0
 20 19  1  0  0  0
  7  6  1  0  0  0
 19 18  1  0  0  0
 17 16  1  0  0  0
 17 18  1  0  0  0
  6  5  1  0  0  0
 16 15  1  0  0  0
 14 15  1  0  0  0
 14 13  1  0  0  0
  1 12  1  0  0  0
  1  2  1  0  0  0
 12 13  1  0  0  0
  4  5  1  0  0  0
  4  3  1  0  0  0
  2  3  1  0  0  0
 10 11  1  0  0  0
M  END
> <minimizedAffinity>
-6.53304

$$$$
6GE7_EW8_A_201


 22 21  0  0  0  0  0  0  0  0999 V2000
   15.3794   50.5365   56.0041 C   0  0  0  0  0  0  0  0  0  0  0  0
   16.1131   50.2508   57.3277 C   0  0  0  0  0  0  0  0  0  0  0  0
   16.9016   48.9358   57.2829 C   0  0  0  0  0  0  0  0  0  0  0  0
   17.8533   48.8792   56.0858 C   0  0  0  0  0  0  0  0  0  0  0  0
   17.8319   47.5125   55.3906 C   0  0  0  0  0  0  0  0  0  0  0  0
   19.2449   46.9987   55.1049 C   0  0  0  0  0  0  0  0  0  0  0  0
   19.7224   46.0083   56.1720 C   0  0  0  0  0  0  0  0  0  0  0  0
   19.8551   44.1699   54.6121 O   0  0  0  0  0  0  0  0  0  0  0  0
   19.3960   44.5397   55.7217 C   0  0  0  0  0  0  0  0  0  0  0  0
   18.7172   43.8367   56.5011 O   0  0  0  0  0  0  0  0  0  0  0  0
   18.4143   44.1953   57.3120 H   0  0  0  0  0  0  0  0  0  0  0  0
   13.9058   50.9608   56.2034 C   0  0  0  0  0  0  0  0  0  0  0  0
   12.8857   49.9938   55.5281 C   0  0  0  0  0  0  0  0  0  0  0  0
   11.4966   50.6442   55.3723 C   0  0  0  0  0  0  0  0  0  0  0  0
   11.4638   52.1591   55.6965 C   0  0  0  0  0  0  0  0  0  0  0  0
   10.0571   52.6947   55.5402 C   0  0  0  0  0  0  0  0  0  0  0  0
    9.0984   51.7787   54.8055 C   0  0  0  0  0  0  0  0  0  0  0  0
    8.5281   52.4023   53.5844 C   0  0  0  0  0  0  0  0  0  0  0  0
    8.3711   51.4597   52.4155 C   0  0  0  0  0  0  0  0  0  0  0  0
    9.0707   50.1436   52.6366 C   0  0  0  0  0  0  0  0  0  0  0  0
   10.0316   49.8535   51.5018 C   0  0  0  0  0  0  0  0  0  0  0  0
   11.4720   49.7554   51.9914 C   0  0  0  0  0  0  0  0  0  0  0  0
 22 21  1  0  0  0
  8  9  2  0  0  0
 21 20  1  0  0  0
  9 10  1  0  0  0
  9  7  1  0  0  0
 20 19  1  0  0  0
  7  6  1  0  0  0
 19 18  1  0  0  0
 17 16  1  0  0  0
 17 18  1  0  0  0
  6  5  1  0  0  0
 16 15  1  0  0  0
 14 15  1  0  0  0
 14 13  1  0  0  0
  1 12  1  0  0  0
  1  2  1  0  0  0
 12 13  1  0  0  0
  4  5  1  0  0  0
  4  3  1  0  0  0
  2  3  1  0  0  0
 10 11  1  0  0  0
M  END
> <minimizedAffinity>
-6.27011

$$$$
6GE7_EW8_A_201


 22 21  0  0  0  0  0  0  0  0999 V2000
   14.7924   50.4021   56.6192 C   0  0  0  0  0  0  0  0  0  0  0  0
   13.8682   49.5271   55.7520 C   0  0  0  0  0  0  0  0  0  0  0  0
   12.5561   50.2392   55.3999 C   0  0  0  0  0  0  0  0  0  0  0  0
   12.5689   51.7083   55.8283 C   0  0  0  0  0  0  0  0  0  0  0  0
   11.2590   52.4262   55.4814 C   0  0  0  0  0  0  0  0  0  0  0  0
   10.1692   51.4420   55.0502 C   0  0  0  0  0  0  0  0  0  0  0  0
    8.8655   52.1559   54.6781 C   0  0  0  0  0  0  0  0  0  0  0  0
    7.8486   52.7710   52.5761 O   0  0  0  0  0  0  0  0  0  0  0  0
    8.5250   51.8929   53.1678 C   0  0  0  0  0  0  0  0  0  0  0  0
    8.9610   50.8395   52.6552 O   0  0  0  0  0  0  0  0  0  0  0  0
    9.4590   50.2378   53.1727 H   0  0  0  0  0  0  0  0  0  0  0  0
   16.2396   49.8634   56.7028 C   0  0  0  0  0  0  0  0  0  0  0  0
   16.8349   49.4682   55.3167 C   0  0  0  0  0  0  0  0  0  0  0  0
   17.3360   48.0103   55.3032 C   0  0  0  0  0  0  0  0  0  0  0  0
   18.8699   47.8666   55.1366 C   0  0  0  0  0  0  0  0  0  0  0  0
   19.5854   48.8690   56.0160 C   0  0  0  0  0  0  0  0  0  0  0  0
   19.8372   48.4113   57.4390 C   0  0  0  0  0  0  0  0  0  0  0  0
   19.5331   46.9721   57.6431 C   0  0  0  0  0  0  0  0  0  0  0  0
   20.7480   46.0771   57.6954 C   0  0  0  0  0  0  0  0  0  0  0  0
   20.5415   44.7792   56.9583 C   0  0  0  0  0  0  0  0  0  0  0  0
   19.0692   44.5501   56.6845 C   0  0  0  0  0  0  0  0  0  0  0  0
   18.8114   44.2183   55.2190 C   0  0  0  0  0  0  0  0  0  0  0  0
 22 21  1  0  0  0
  8  9  2  0  0  0
 21 20  1  0  0  0
  9 10  1  0  0  0
  9  7  1  0  0  0
 20 19  1  0  0  0
  7  6  1  0  0  0
 19 18  1  0  0  0
 17 16  1  0  0  0
 17 18  1  0  0  0
  6  5  1  0  0  0
 16 15  1  0  0  0
 14 15  1  0  0  0
 14 13  1  0  0  0
  1 12  1  0  0  0
  1  2  1  0  0  0
 12 13  1  0  0  0
  4  5  1  0  0  0
  4  3  1  0  0  0
  2  3  1  0  0  0
 10 11  1  0  0  0
M  END
> <minimizedAffinity>
-6.20781

$$$$
6GE7_EW8_A_201


 22 21  0  0  0  0  0  0  0  0999 V2000
   13.9063   49.5042   55.7502 C   0  0  0  0  0  0  0  0  0  0  0  0
   14.2307   50.4598   56.9135 C   0  0  0  0  0  0  0  0  0  0  0  0
   14.1818   51.9324   56.4869 C   0  0  0  0  0  0  0  0  0  0  0  0
   13.0252   52.2116   55.5243 C   0  0  0  0  0  0  0  0  0  0  0  0
   11.8240   52.8527   56.2299 C   0  0  0  0  0  0  0  0  0  0  0  0
   10.5023   52.4738   55.5578 C   0  0  0  0  0  0  0  0  0  0  0  0
   10.7145   51.5494   54.3543 C   0  0  0  0  0  0  0  0  0  0  0  0
    8.3147   51.7572   54.1857 O   0  0  0  0  0  0  0  0  0  0  0  0
    9.3319   51.2089   53.6923 C   0  0  0  0  0  0  0  0  0  0  0  0
    9.3388   50.4307   52.7141 O   0  0  0  0  0  0  0  0  0  0  0  0
   10.1471   50.0660   52.4113 H   0  0  0  0  0  0  0  0  0  0  0  0
   15.0654   48.5371   55.4146 C   0  0  0  0  0  0  0  0  0  0  0  0
   16.3597   49.2634   54.9360 C   0  0  0  0  0  0  0  0  0  0  0  0
   17.6302   48.6134   55.5191 C   0  0  0  0  0  0  0  0  0  0  0  0
   17.8157   48.8335   57.0417 C   0  0  0  0  0  0  0  0  0  0  0  0
   19.2792   48.7199   57.4098 C   0  0  0  0  0  0  0  0  0  0  0  0
   20.2420   48.7704   56.2400 C   0  0  0  0  0  0  0  0  0  0  0  0
   21.3399   49.7502   56.4401 C   0  0  0  0  0  0  0  0  0  0  0  0
   22.0846   49.5977   57.7446 C   0  0  0  0  0  0  0  0  0  0  0  0
   23.5761   49.7322   57.5774 C   0  0  0  0  0  0  0  0  0  0  0  0
   24.2754   48.4503   57.9811 C   0  0  0  0  0  0  0  0  0  0  0  0
   23.2865   47.3101   58.1963 C   0  0  0  0  0  0  0  0  0  0  0  0
 22 21  1  0  0  0
  8  9  2  0  0  0
 21 20  1  0  0  0
  9 10  1  0  0  0
  9  7  1  0  0  0
 20 19  1  0  0  0
  7  6  1  0  0  0
 19 18  1  0  0  0
 17 16  1  0  0  0
 17 18  1  0  0  0
  6  5  1  0  0  0
 16 15  1  0  0  0
 14 15  1  0  0  0
 14 13  1  0  0  0
  1 12  1  0  0  0
  1  2  1  0  0  0
 12 13  1  0  0  0
  4  5  1  0  0  0
  4  3  1  0  0  0
  2  3  1  0  0  0
 10 11  1  0  0  0
M  END
> <minimizedAffinity>
-6.17449

$$$$
6GE7_EW8_A_201


 22 21  0  0  0  0  0  0  0  0999 V2000
   15.7738   49.7953   57.3712 C   0  0  0  0  0  0  0  0  0  0  0  0
   17.1590   49.1405   57.2165 C   0  0  0  0  0  0  0  0  0  0  0  0
   17.1374   47.9590   56.2384 C   0  0  0  0  0  0  0  0  0  0  0  0
   18.1201   48.1550   55.0818 C   0  0  0  0  0  0  0  0  0  0  0  0
   19.2948   47.1713   55.1443 C   0  0  0  0  0  0  0  0  0  0  0  0
   19.8362   47.0234   56.5681 C   0  0  0  0  0  0  0  0  0  0  0  0
   21.3488   47.2588   56.6345 C   0  0  0  0  0  0  0  0  0  0  0  0
   22.6128   48.5903   58.2030 O   0  0  0  0  0  0  0  0  0  0  0  0
   21.6477   48.5978   57.3984 C   0  0  0  0  0  0  0  0  0  0  0  0
   20.9178   49.5801   57.1442 O   0  0  0  0  0  0  0  0  0  0  0  0
   20.2172   49.4961   56.5277 H   0  0  0  0  0  0  0  0  0  0  0  0
   15.2298   50.3897   56.0513 C   0  0  0  0  0  0  0  0  0  0  0  0
   13.9925   49.6241   55.4903 C   0  0  0  0  0  0  0  0  0  0  0  0
   12.7104   50.4772   55.5615 C   0  0  0  0  0  0  0  0  0  0  0  0
   12.9360   51.9228   56.0721 C   0  0  0  0  0  0  0  0  0  0  0  0
   11.6938   52.7559   55.8423 C   0  0  0  0  0  0  0  0  0  0  0  0
   10.7620   52.2371   54.7650 C   0  0  0  0  0  0  0  0  0  0  0  0
    9.4702   51.7461   55.3087 C   0  0  0  0  0  0  0  0  0  0  0  0
    8.4390   51.4054   54.2599 C   0  0  0  0  0  0  0  0  0  0  0  0
    8.9763   51.5344   52.8581 C   0  0  0  0  0  0  0  0  0  0  0  0
    9.0152   50.1824   52.1756 C   0  0  0  0  0  0  0  0  0  0  0  0
   10.4397   49.7648   51.8285 C   0  0  0  0  0  0  0  0  0  0  0  0
 22 21  1  0  0  0
  8  9  2  0  0  0
 21 20  1  0  0  0
  9 10  1  0  0  0
  9  7  1  0  0  0
 20 19  1  0  0  0
  7  6  1  0  0  0
 19 18  1  0  0  0
 17 16  1  0  0  0
 17 18  1  0  0  0
  6  5  1  0  0  0
 16 15  1  0  0  0
 14 15  1  0  0  0
 14 13  1  0  0  0
  1 12  1  0  0  0
  1  2  1  0  0  0
 12 13  1  0  0  0
  4  5  1  0  0  0
  4  3  1  0  0  0
  2  3  1  0  0  0
 10 11  1  0  0  0
M  END
> <minimizedAffinity>
-6.05506

$$$$
6GE7_EW8_A_201


 22 21  0  0  0  0  0  0  0  0999 V2000
   17.9946   48.8766   55.3440 C   0  0  0  0  0  0  0  0  0  0  0  0
   17.8769   47.3473   55.2060 C   0  0  0  0  0  0  0  0  0  0  0  0
   19.2315   46.6440   55.3588 C   0  0  0  0  0  0  0  0  0  0  0  0
   19.3060   45.8179   56.6449 C   0  0  0  0  0  0  0  0  0  0  0  0
   20.5996   46.0757   57.4270 C   0  0  0  0  0  0  0  0  0  0  0  0
   20.4704   47.2858   58.3550 C   0  0  0  0  0  0  0  0  0  0  0  0
   21.8213   47.9643   58.6051 C   0  0  0  0  0  0  0  0  0  0  0  0
   20.9508   49.6734   57.1381 O   0  0  0  0  0  0  0  0  0  0  0  0
   21.9980   49.1791   57.6258 C   0  0  0  0  0  0  0  0  0  0  0  0
   23.1623   49.5796   57.4106 O   0  0  0  0  0  0  0  0  0  0  0  0
   23.8884   49.1498   57.8182 H   0  0  0  0  0  0  0  0  0  0  0  0
   16.7011   49.5427   55.8678 C   0  0  0  0  0  0  0  0  0  0  0  0
   15.3994   48.9127   55.2841 C   0  0  0  0  0  0  0  0  0  0  0  0
   14.1336   49.5915   55.8440 C   0  0  0  0  0  0  0  0  0  0  0  0
   14.3856   50.9828   56.4781 C   0  0  0  0  0  0  0  0  0  0  0  0
   13.2362   51.9150   56.1619 C   0  0  0  0  0  0  0  0  0  0  0  0
   12.0179   51.2499   55.5527 C   0  0  0  0  0  0  0  0  0  0  0  0
   11.1027   52.2168   54.8948 C   0  0  0  0  0  0  0  0  0  0  0  0
    9.6595   52.1034   55.3236 C   0  0  0  0  0  0  0  0  0  0  0  0
    8.9117   51.0414   54.5597 C   0  0  0  0  0  0  0  0  0  0  0  0
    8.8599   51.3826   53.0845 C   0  0  0  0  0  0  0  0  0  0  0  0
    9.1489   50.1662   52.2122 C   0  0  0  0  0  0  0  0  0  0  0  0
 22 21  1  0  0  0
  8  9  2  0  0  0
 21 20  1  0  0  0
  9 10  1  0  0  0
  9  7  1  0  0  0
 20 19  1  0  0  0
  7  6  1  0  0  0
 19 18  1  0  0  0
 17 16  1  0  0  0
 17 18  1  0  0  0
  6  5  1  0  0  0
 16 15  1  0  0  0
 14 15  1  0  0  0
 14 13  1  0  0  0
  1 12  1  0  0  0
  1  2  1  0  0  0
 12 13  1  0  0  0
  4  5  1  0  0  0
  4  3  1  0  0  0
  2  3  1  0  0  0
 10 11  1  0  0  0
M  END
> <minimizedAffinity>
-6.04000

$$$$
6GE7_EW8_A_201


 22 21  0  0  0  0  0  0  0  0999 V2000
   13.3955   51.9550   56.0529 C   0  0  0  0  0  0  0  0  0  0  0  0
   12.0067   52.6175   55.9899 C   0  0  0  0  0  0  0  0  0  0  0  0
   11.0448   51.8637   55.0628 C   0  0  0  0  0  0  0  0  0  0  0  0
    9.5826   52.2147   55.3470 C   0  0  0  0  0  0  0  0  0  0  0  0
    8.6176   51.5000   54.3933 C   0  0  0  0  0  0  0  0  0  0  0  0
    8.5487   52.1933   53.0306 C   0  0  0  0  0  0  0  0  0  0  0  0
    8.2997   51.1984   51.8922 C   0  0  0  0  0  0  0  0  0  0  0  0
   10.4381   50.0828   52.0071 O   0  0  0  0  0  0  0  0  0  0  0  0
    9.1946   49.9236   52.0919 C   0  0  0  0  0  0  0  0  0  0  0  0
    8.6124   48.8447   52.3355 O   0  0  0  0  0  0  0  0  0  0  0  0
    7.6769   48.8170   52.3807 H   0  0  0  0  0  0  0  0  0  0  0  0
   13.3467   50.4193   55.8781 C   0  0  0  0  0  0  0  0  0  0  0  0
   14.6712   49.7063   56.2895 C   0  0  0  0  0  0  0  0  0  0  0  0
   15.0694   48.6109   55.2804 C   0  0  0  0  0  0  0  0  0  0  0  0
   16.5000   48.0506   55.4816 C   0  0  0  0  0  0  0  0  0  0  0  0
   17.4847   49.1866   55.6548 C   0  0  0  0  0  0  0  0  0  0  0  0
   18.3516   49.1024   56.8955 C   0  0  0  0  0  0  0  0  0  0  0  0
   19.1657   47.8614   56.9457 C   0  0  0  0  0  0  0  0  0  0  0  0
   20.2439   47.7774   55.8921 C   0  0  0  0  0  0  0  0  0  0  0  0
   20.1411   46.5261   55.0589 C   0  0  0  0  0  0  0  0  0  0  0  0
   19.6994   45.3535   55.9104 C   0  0  0  0  0  0  0  0  0  0  0  0
   18.6143   44.5323   55.2231 C   0  0  0  0  0  0  0  0  0  0  0  0
 22 21  1  0  0  0
  8  9  2  0  0  0
 21 20  1  0  0  0
  9 10  1  0  0  0
  9  7  1  0  0  0
 20 19  1  0  0  0
  7  6  1  0  0  0
 19 18  1  0  0  0
 17 16  1  0  0  0
 17 18  1  0  0  0
  6  5  1  0  0  0
 16 15  1  0  0  0
 14 15  1  0  0  0
 14 13  1  0  0  0
  1 12  1  0  0  0
  1  2  1  0  0  0
 12 13  1  0  0  0
  4  5  1  0  0  0
  4  3  1  0  0  0
  2  3  1  0  0  0
 10 11  1  0  0  0
M  END
> <minimizedAffinity>
-5.91252

$$$$
6GE7_EW8_A_201


 22 21  0  0  0  0  0  0  0  0999 V2000
   18.7998   48.5256   57.4261 C   0  0  0  0  0  0  0  0  0  0  0  0
   20.2589   48.4232   56.9443 C   0  0  0  0  0  0  0  0  0  0  0  0
   21.0534   49.7060   57.2203 C   0  0  0  0  0  0  0  0  0  0  0  0
   22.2643   49.8401   56.2940 C   0  0  0  0  0  0  0  0  0  0  0  0
   23.5823   49.5234   57.0111 C   0  0  0  0  0  0  0  0  0  0  0  0
   23.8555   48.0183   57.0581 C   0  0  0  0  0  0  0  0  0  0  0  0
   24.5556   47.6022   58.3560 C   0  0  0  0  0  0  0  0  0  0  0  0
   24.2037   45.6210   59.6909 O   0  0  0  0  0  0  0  0  0  0  0  0
   23.6411   46.6125   59.1623 C   0  0  0  0  0  0  0  0  0  0  0  0
   22.4235   46.8851   59.2358 O   0  0  0  0  0  0  0  0  0  0  0  0
   22.0877   47.6485   58.8088 H   0  0  0  0  0  0  0  0  0  0  0  0
   17.8176   47.6841   56.5784 C   0  0  0  0  0  0  0  0  0  0  0  0
   17.6792   48.1870   55.1088 C   0  0  0  0  0  0  0  0  0  0  0  0
   16.3283   48.8900   54.8688 C   0  0  0  0  0  0  0  0  0  0  0  0
   16.2569   50.3361   55.4212 C   0  0  0  0  0  0  0  0  0  0  0  0
   15.1105   50.4632   56.4008 C   0  0  0  0  0  0  0  0  0  0  0  0
   13.9102   49.5866   56.1030 C   0  0  0  0  0  0  0  0  0  0  0  0
   12.8473   50.3017   55.3519 C   0  0  0  0  0  0  0  0  0  0  0  0
   12.7145   51.7656   55.6965 C   0  0  0  0  0  0  0  0  0  0  0  0
   11.2828   52.2352   55.6809 C   0  0  0  0  0  0  0  0  0  0  0  0
   10.3849   51.1872   55.0558 C   0  0  0  0  0  0  0  0  0  0  0  0
    9.0305   51.7653   54.6614 C   0  0  0  0  0  0  0  0  0  0  0  0
 22 21  1  0  0  0
  8  9  2  0  0  0
 21 20  1  0  0  0
  9 10  1  0  0  0
  9  7  1  0  0  0
 20 19  1  0  0  0
  7  6  1  0  0  0
 19 18  1  0  0  0
 17 16  1  0  0  0
 17 18  1  0  0  0
  6  5  1  0  0  0
 16 15  1  0  0  0
 14 15  1  0  0  0
 14 13  1  0  0  0
  1 12  1  0  0  0
  1  2  1  0  0  0
 12 13  1  0  0  0
  4  5  1  0  0  0
  4  3  1  0  0  0
  2  3  1  0  0  0
 10 11  1  0  0  0
M  END
> <minimizedAffinity>
-5.88087

$$$$
6GE7_EW8_A_201


 22 21  0  0  0  0  0  0  0  0999 V2000
   13.8808   52.1521   56.1263 C   0  0  0  0  0  0  0  0  0  0  0  0
   12.4681   52.6590   55.7814 C   0  0  0  0  0  0  0  0  0  0  0  0
   11.5105   51.5144   55.4269 C   0  0  0  0  0  0  0  0  0  0  0  0
   10.0486   51.9671   55.4361 C   0  0  0  0  0  0  0  0  0  0  0  0
    9.1882   51.1730   54.4458 C   0  0  0  0  0  0  0  0  0  0  0  0
    8.6679   52.0569   53.3099 C   0  0  0  0  0  0  0  0  0  0  0  0
    8.5223   51.2791   51.9978 C   0  0  0  0  0  0  0  0  0  0  0  0
   10.5162   49.9178   51.9503 O   0  0  0  0  0  0  0  0  0  0  0  0
    9.2696   49.9024   52.1075 C   0  0  0  0  0  0  0  0  0  0  0  0
    8.5785   48.8913   52.3576 O   0  0  0  0  0  0  0  0  0  0  0  0
    7.6505   48.9717   52.4597 H   0  0  0  0  0  0  0  0  0  0  0  0
   13.9506   50.6179   56.3069 C   0  0  0  0  0  0  0  0  0  0  0  0
   14.9060   50.1720   57.4559 C   0  0  0  0  0  0  0  0  0  0  0  0
   15.3115   48.6907   57.3213 C   0  0  0  0  0  0  0  0  0  0  0  0
   16.8119   48.4683   57.0044 C   0  0  0  0  0  0  0  0  0  0  0  0
   16.9949   48.1738   55.5314 C   0  0  0  0  0  0  0  0  0  0  0  0
   18.4322   47.9892   55.0865 C   0  0  0  0  0  0  0  0  0  0  0  0
   19.3706   48.9129   55.7733 C   0  0  0  0  0  0  0  0  0  0  0  0
   20.5542   48.2351   56.4207 C   0  0  0  0  0  0  0  0  0  0  0  0
   21.3327   49.1635   57.3165 C   0  0  0  0  0  0  0  0  0  0  0  0
   22.0332   50.2297   56.4993 C   0  0  0  0  0  0  0  0  0  0  0  0
   23.2149   49.6611   55.7219 C   0  0  0  0  0  0  0  0  0  0  0  0
 22 21  1  0  0  0
  8  9  2  0  0  0
 21 20  1  0  0  0
  9 10  1  0  0  0
  9  7  1  0  0  0
 20 19  1  0  0  0
  7  6  1  0  0  0
 19 18  1  0  0  0
 17 16  1  0  0  0
 17 18  1  0  0  0
  6  5  1  0  0  0
 16 15  1  0  0  0
 14 15  1  0  0  0
 14 13  1  0  0  0
  1 12  1  0  0  0
  1  2  1  0  0  0
 12 13  1  0  0  0
  4  5  1  0  0  0
  4  3  1  0  0  0
  2  3  1  0  0  0
 10 11  1  0  0  0
M  END
> <minimizedAffinity>
-5.83622

$$$$
6GE7_EW8_A_201


 22 21  0  0  0  0  0  0  0  0999 V2000
   16.6006   49.4157   57.0293 C   0  0  0  0  0  0  0  0  0  0  0  0
   15.4181   50.3620   57.3083 C   0  0  0  0  0  0  0  0  0  0  0  0
   14.7096   50.8020   56.0209 C   0  0  0  0  0  0  0  0  0  0  0  0
   13.4529   51.6256   56.3115 C   0  0  0  0  0  0  0  0  0  0  0  0
   12.2164   51.0720   55.5931 C   0  0  0  0  0  0  0  0  0  0  0  0
   11.4221   52.1788   54.8956 C   0  0  0  0  0  0  0  0  0  0  0  0
    9.9283   52.1112   55.2299 C   0  0  0  0  0  0  0  0  0  0  0  0
    9.6025   50.8881   53.1734 O   0  0  0  0  0  0  0  0  0  0  0  0
    9.1082   51.7527   53.9395 C   0  0  0  0  0  0  0  0  0  0  0  0
    8.0169   52.3384   53.7706 O   0  0  0  0  0  0  0  0  0  0  0  0
    7.7238   52.9723   54.3953 H   0  0  0  0  0  0  0  0  0  0  0  0
   16.4437   48.6151   55.7155 C   0  0  0  0  0  0  0  0  0  0  0  0
   17.8012   48.3013   55.0151 C   0  0  0  0  0  0  0  0  0  0  0  0
   19.0006   48.8266   55.8289 C   0  0  0  0  0  0  0  0  0  0  0  0
   20.1988   47.8466   55.9004 C   0  0  0  0  0  0  0  0  0  0  0  0
   20.1929   47.1126   57.2238 C   0  0  0  0  0  0  0  0  0  0  0  0
   19.0301   46.1615   57.4262 C   0  0  0  0  0  0  0  0  0  0  0  0
   19.3207   44.7866   56.9459 C   0  0  0  0  0  0  0  0  0  0  0  0
   18.6724   44.4338   55.6287 C   0  0  0  0  0  0  0  0  0  0  0  0
   19.6134   43.7167   54.6955 C   0  0  0  0  0  0  0  0  0  0  0  0
   21.0480   44.1154   54.9750 C   0  0  0  0  0  0  0  0  0  0  0  0
   21.5740   45.0998   53.9366 C   0  0  0  0  0  0  0  0  0  0  0  0
 22 21  1  0  0  0
  8  9  2  0  0  0
 21 20  1  0  0  0
  9 10  1  0  0  0
  9  7  1  0  0  0
 20 19  1  0  0  0
  7  6  1  0  0  0
 19 18  1  0  0  0
 17 16  1  0  0  0
 17 18  1  0  0  0
  6  5  1  0  0  0
 16 15  1  0  0  0
 14 15  1  0  0  0
 14 13  1  0  0  0
  1 12  1  0  0  0
  1  2  1  0  0  0
 12 13  1  0  0  0
  4  5  1  0  0  0
  4  3  1  0  0  0
  2  3  1  0  0  0
 10 11  1  0  0  0
M  END
> <minimizedAffinity>
-5.80539

$$$$
