1AZM_AZM_A_262


 16 16  0  0  0  0  0  0  0  0999 V2000
   34.7575   16.6832  -18.0392 C   0  0  0  0  0  0  0  0  0  0  0  0
   33.6784   15.1772  -19.4882 C   0  0  0  0  0  0  0  0  0  0  0  0
   33.4754   14.9379  -18.1853 N   0  0  0  0  0  0  0  0  0  0  0  0
   34.1564   15.7763  -17.3647 N   0  0  0  0  0  0  0  0  0  0  0  0
   34.6815   16.5387  -19.7259 S   0  0  0  0  0  0  0  0  0  0  0  0
   34.6591   18.4582  -16.0580 N   0  0  0  0  0  0  0  0  0  0  0  0
   35.4346   19.0898  -18.2918 O   0  0  0  0  0  0  0  0  0  0  0  0
   36.8657   17.7015  -16.8530 O   0  0  0  0  0  0  0  0  0  0  0  0
   35.5765   18.0438  -17.2700 S   0  0  0  0  0  0  0  0  0  0  0  0
   33.7299   18.7000  -16.4022 H   0  0  0  0  0  0  0  0  0  0  0  0
   35.0662   19.2640  -15.5834 H   0  0  0  0  0  0  0  0  0  0  0  0
   32.5053   14.5855  -21.5009 C   0  0  0  0  0  0  0  0  0  0  0  0
   32.2216   13.5827  -22.5277 C   0  0  0  0  0  0  0  0  0  0  0  0
   33.5253   14.3658  -20.6268 N   0  0  0  0  0  0  0  0  0  0  0  0
   31.8091   15.6043  -21.4682 O   0  0  0  0  0  0  0  0  0  0  0  0
   34.1612   13.6328  -20.7930 H   0  0  0  0  0  0  0  0  0  0  0  0
  1  4  2  0  0  0
  1  9  1  0  0  0
  1  5  1  0  0  0
  2  3  2  0  0  0
  2 14  1  0  0  0
  2  5  1  0  0  0
 12 13  1  0  0  0
 12 14  1  0  0  0
 12 15  2  0  0  0
  6  9  1  0  0  0
  3  4  1  0  0  0
  7  9  2  0  0  0
  8  9  2  0  0  0
  6 10  1  0  0  0
  6 11  1  0  0  0
 14 16  1  0  0  0
M  END
> <minimizedAffinity>
-5.95932

$$$$
1AZM_AZM_A_262


 16 16  0  0  0  0  0  0  0  0999 V2000
   34.6258   16.3766  -17.4734 C   0  0  0  0  0  0  0  0  0  0  0  0
   35.0082   14.9681  -19.3179 C   0  0  0  0  0  0  0  0  0  0  0  0
   35.9075   15.9511  -19.1727 N   0  0  0  0  0  0  0  0  0  0  0  0
   35.6353   16.7910  -18.1427 N   0  0  0  0  0  0  0  0  0  0  0  0
   33.8196   15.0209  -18.0928 S   0  0  0  0  0  0  0  0  0  0  0  0
   35.1305   18.3207  -15.7266 N   0  0  0  0  0  0  0  0  0  0  0  0
   34.4616   16.0871  -14.9828 O   0  0  0  0  0  0  0  0  0  0  0  0
   32.7998   17.5746  -16.0177 O   0  0  0  0  0  0  0  0  0  0  0  0
   34.1238   17.1313  -15.9594 S   0  0  0  0  0  0  0  0  0  0  0  0
   36.0830   17.9577  -15.6901 H   0  0  0  0  0  0  0  0  0  0  0  0
   34.9098   18.7855  -14.8460 H   0  0  0  0  0  0  0  0  0  0  0  0
   33.8127   14.6189  -21.3737 C   0  0  0  0  0  0  0  0  0  0  0  0
   33.2840   13.6789  -22.3623 C   0  0  0  0  0  0  0  0  0  0  0  0
   34.6685   14.1616  -20.4190 N   0  0  0  0  0  0  0  0  0  0  0  0
   33.4666   15.8015  -21.4454 O   0  0  0  0  0  0  0  0  0  0  0  0
   35.0529   13.2588  -20.4999 H   0  0  0  0  0  0  0  0  0  0  0  0
  1  4  2  0  0  0
  1  9  1  0  0  0
  1  5  1  0  0  0
  2  3  2  0  0  0
  2 14  1  0  0  0
  2  5  1  0  0  0
 12 13  1  0  0  0
 12 14  1  0  0  0
 12 15  2  0  0  0
  6  9  1  0  0  0
  3  4  1  0  0  0
  7  9  2  0  0  0
  8  9  2  0  0  0
  6 10  1  0  0  0
  6 11  1  0  0  0
 14 16  1  0  0  0
M  END
> <minimizedAffinity>
-5.85979

$$$$
1AZM_AZM_A_262


 16 16  0  0  0  0  0  0  0  0999 V2000
   34.1708   16.1882  -17.4968 C   0  0  0  0  0  0  0  0  0  0  0  0
   34.4494   15.4213  -19.7028 C   0  0  0  0  0  0  0  0  0  0  0  0
   33.8603   14.5436  -18.8789 N   0  0  0  0  0  0  0  0  0  0  0  0
   33.7661   14.9779  -17.5972 N   0  0  0  0  0  0  0  0  0  0  0  0
   34.8333   16.8768  -18.8962 S   0  0  0  0  0  0  0  0  0  0  0  0
   35.0866   18.2589  -16.0972 N   0  0  0  0  0  0  0  0  0  0  0  0
   34.4792   16.1556  -15.0033 O   0  0  0  0  0  0  0  0  0  0  0  0
   32.7138   17.6356  -15.8626 O   0  0  0  0  0  0  0  0  0  0  0  0
   34.0039   17.1179  -16.0063 S   0  0  0  0  0  0  0  0  0  0  0  0
   36.0117   17.8422  -16.2011 H   0  0  0  0  0  0  0  0  0  0  0  0
   35.0604   18.8210  -15.2464 H   0  0  0  0  0  0  0  0  0  0  0  0
   36.4213   14.9528  -20.9948 C   0  0  0  0  0  0  0  0  0  0  0  0
   37.1183   15.0382  -22.2784 C   0  0  0  0  0  0  0  0  0  0  0  0
   35.0959   15.2584  -20.9412 N   0  0  0  0  0  0  0  0  0  0  0  0
   37.0629   14.5982  -20.0017 O   0  0  0  0  0  0  0  0  0  0  0  0
   34.5857   15.3663  -21.7762 H   0  0  0  0  0  0  0  0  0  0  0  0
  1  4  2  0  0  0
  1  9  1  0  0  0
  1  5  1  0  0  0
  2  3  2  0  0  0
  2 14  1  0  0  0
  2  5  1  0  0  0
 12 13  1  0  0  0
 12 14  1  0  0  0
 12 15  2  0  0  0
  6  9  1  0  0  0
  3  4  1  0  0  0
  7  9  2  0  0  0
  8  9  2  0  0  0
  6 10  1  0  0  0
  6 11  1  0  0  0
 14 16  1  0  0  0
M  END
> <minimizedAffinity>
-5.41525

$$$$
1AZM_AZM_A_262


 16 16  0  0  0  0  0  0  0  0999 V2000
   35.8498   15.1140  -20.8588 C   0  0  0  0  0  0  0  0  0  0  0  0
   35.3057   16.2126  -18.8516 C   0  0  0  0  0  0  0  0  0  0  0  0
   36.5663   15.7620  -18.9151 N   0  0  0  0  0  0  0  0  0  0  0  0
   36.8430   15.0758  -20.0521 N   0  0  0  0  0  0  0  0  0  0  0  0
   34.4399   15.8540  -20.2793 S   0  0  0  0  0  0  0  0  0  0  0  0
   36.1461   12.9293  -22.3505 N   0  0  0  0  0  0  0  0  0  0  0  0
   37.2300   15.0381  -22.9572 O   0  0  0  0  0  0  0  0  0  0  0  0
   34.8004   14.7911  -23.2428 O   0  0  0  0  0  0  0  0  0  0  0  0
   35.9467   14.4845  -22.5045 S   0  0  0  0  0  0  0  0  0  0  0  0
   36.9902   12.7469  -21.8076 H   0  0  0  0  0  0  0  0  0  0  0  0
   36.2373   12.5051  -23.2736 H   0  0  0  0  0  0  0  0  0  0  0  0
   34.7681   17.7237  -17.0614 C   0  0  0  0  0  0  0  0  0  0  0  0
   34.0743   17.9566  -15.7946 C   0  0  0  0  0  0  0  0  0  0  0  0
   34.4972   16.5899  -17.7642 N   0  0  0  0  0  0  0  0  0  0  0  0
   35.5745   18.5723  -17.4529 O   0  0  0  0  0  0  0  0  0  0  0  0
   33.7291   16.0294  -17.5094 H   0  0  0  0  0  0  0  0  0  0  0  0
  1  4  2  0  0  0
  1  9  1  0  0  0
  1  5  1  0  0  0
  2  3  2  0  0  0
  2 14  1  0  0  0
  2  5  1  0  0  0
 12 13  1  0  0  0
 12 14  1  0  0  0
 12 15  2  0  0  0
  6  9  1  0  0  0
  3  4  1  0  0  0
  7  9  2  0  0  0
  8  9  2  0  0  0
  6 10  1  0  0  0
  6 11  1  0  0  0
 14 16  1  0  0  0
M  END
> <minimizedAffinity>
-5.15370

$$$$
1AZM_AZM_A_262


 16 16  0  0  0  0  0  0  0  0999 V2000
   34.9207   16.7359  -19.1765 C   0  0  0  0  0  0  0  0  0  0  0  0
   34.6377   15.1613  -20.9006 C   0  0  0  0  0  0  0  0  0  0  0  0
   34.6239   16.4386  -21.3060 N   0  0  0  0  0  0  0  0  0  0  0  0
   34.7240   17.3335  -20.2914 N   0  0  0  0  0  0  0  0  0  0  0  0
   34.8651   15.0427  -19.2122 S   0  0  0  0  0  0  0  0  0  0  0  0
   35.6480   19.0770  -18.1394 N   0  0  0  0  0  0  0  0  0  0  0  0
   36.5382   16.9704  -17.2679 O   0  0  0  0  0  0  0  0  0  0  0  0
   34.2059   17.5929  -16.8010 O   0  0  0  0  0  0  0  0  0  0  0  0
   35.2852   17.6116  -17.6885 S   0  0  0  0  0  0  0  0  0  0  0  0
   36.4377   19.0486  -18.7843 H   0  0  0  0  0  0  0  0  0  0  0  0
   35.8972   19.6326  -17.3211 H   0  0  0  0  0  0  0  0  0  0  0  0
   35.0522   13.1005  -22.0662 C   0  0  0  0  0  0  0  0  0  0  0  0
   34.5350   12.0175  -22.9029 C   0  0  0  0  0  0  0  0  0  0  0  0
   34.1759   13.9790  -21.5065 N   0  0  0  0  0  0  0  0  0  0  0  0
   36.2718   13.1752  -21.8915 O   0  0  0  0  0  0  0  0  0  0  0  0
   33.2108   13.7851  -21.5259 H   0  0  0  0  0  0  0  0  0  0  0  0
  1  4  2  0  0  0
  1  9  1  0  0  0
  1  5  1  0  0  0
  2  3  2  0  0  0
  2 14  1  0  0  0
  2  5  1  0  0  0
 12 13  1  0  0  0
 12 14  1  0  0  0
 12 15  2  0  0  0
  6  9  1  0  0  0
  3  4  1  0  0  0
  7  9  2  0  0  0
  8  9  2  0  0  0
  6 10  1  0  0  0
  6 11  1  0  0  0
 14 16  1  0  0  0
M  END
> <minimizedAffinity>
-5.09522

$$$$
1AZM_AZM_A_262


 16 16  0  0  0  0  0  0  0  0999 V2000
   35.1490   14.6041  -20.7310 C   0  0  0  0  0  0  0  0  0  0  0  0
   35.1222   15.9032  -18.7704 C   0  0  0  0  0  0  0  0  0  0  0  0
   36.3465   15.6499  -19.2533 N   0  0  0  0  0  0  0  0  0  0  0  0
   36.3457   14.8468  -20.3465 N   0  0  0  0  0  0  0  0  0  0  0  0
   33.9078   15.1968  -19.7412 S   0  0  0  0  0  0  0  0  0  0  0  0
   33.2265   13.6291  -22.2925 N   0  0  0  0  0  0  0  0  0  0  0  0
   35.3178   12.4078  -21.9400 O   0  0  0  0  0  0  0  0  0  0  0  0
   35.3078   14.4258  -23.3447 O   0  0  0  0  0  0  0  0  0  0  0  0
   34.7963   13.7494  -22.2339 S   0  0  0  0  0  0  0  0  0  0  0  0
   32.8925   13.1311  -21.4674 H   0  0  0  0  0  0  0  0  0  0  0  0
   32.9558   13.1164  -23.1317 H   0  0  0  0  0  0  0  0  0  0  0  0
   34.8838   17.5924  -17.0772 C   0  0  0  0  0  0  0  0  0  0  0  0
   34.6453   17.9217  -15.6718 C   0  0  0  0  0  0  0  0  0  0  0  0
   34.6807   16.3145  -17.4999 N   0  0  0  0  0  0  0  0  0  0  0  0
   35.2566   18.4924  -17.8351 O   0  0  0  0  0  0  0  0  0  0  0  0
   34.2209   15.6729  -16.9115 H   0  0  0  0  0  0  0  0  0  0  0  0
  1  4  2  0  0  0
  1  9  1  0  0  0
  1  5  1  0  0  0
  2  3  2  0  0  0
  2 14  1  0  0  0
  2  5  1  0  0  0
 12 13  1  0  0  0
 12 14  1  0  0  0
 12 15  2  0  0  0
  6  9  1  0  0  0
  3  4  1  0  0  0
  7  9  2  0  0  0
  8  9  2  0  0  0
  6 10  1  0  0  0
  6 11  1  0  0  0
 14 16  1  0  0  0
M  END
> <minimizedAffinity>
-4.95109

$$$$
1AZM_AZM_A_262


 16 16  0  0  0  0  0  0  0  0999 V2000
   33.8749   14.3280  -20.6967 C   0  0  0  0  0  0  0  0  0  0  0  0
   33.3298   14.4897  -18.4144 C   0  0  0  0  0  0  0  0  0  0  0  0
   32.3151   14.7546  -19.2489 N   0  0  0  0  0  0  0  0  0  0  0  0
   32.6638   14.7193  -20.5594 N   0  0  0  0  0  0  0  0  0  0  0  0
   34.7566   14.0993  -19.2678 S   0  0  0  0  0  0  0  0  0  0  0  0
   35.1018   12.5032  -22.1968 N   0  0  0  0  0  0  0  0  0  0  0  0
   35.7676   14.8573  -22.2624 O   0  0  0  0  0  0  0  0  0  0  0  0
   33.6537   14.1599  -23.3066 O   0  0  0  0  0  0  0  0  0  0  0  0
   34.5830   13.9886  -22.2770 S   0  0  0  0  0  0  0  0  0  0  0  0
   35.7758   12.4191  -21.4358 H   0  0  0  0  0  0  0  0  0  0  0  0
   35.5504   12.2516  -23.0776 H   0  0  0  0  0  0  0  0  0  0  0  0
   34.0130   16.0149  -16.6870 C   0  0  0  0  0  0  0  0  0  0  0  0
   34.4503   16.2164  -15.3054 C   0  0  0  0  0  0  0  0  0  0  0  0
   33.5332   14.7959  -17.0568 N   0  0  0  0  0  0  0  0  0  0  0  0
   34.0892   16.9654  -17.4706 O   0  0  0  0  0  0  0  0  0  0  0  0
   33.3270   14.1230  -16.3684 H   0  0  0  0  0  0  0  0  0  0  0  0
  1  4  2  0  0  0
  1  9  1  0  0  0
  1  5  1  0  0  0
  2  3  2  0  0  0
  2 14  1  0  0  0
  2  5  1  0  0  0
 12 13  1  0  0  0
 12 14  1  0  0  0
 12 15  2  0  0  0
  6  9  1  0  0  0
  3  4  1  0  0  0
  7  9  2  0  0  0
  8  9  2  0  0  0
  6 10  1  0  0  0
  6 11  1  0  0  0
 14 16  1  0  0  0
M  END
> <minimizedAffinity>
-4.68339

$$$$
1AZM_AZM_A_262


 16 16  0  0  0  0  0  0  0  0999 V2000
   35.2959   15.4271  -21.2738 C   0  0  0  0  0  0  0  0  0  0  0  0
   34.9339   16.3176  -19.1272 C   0  0  0  0  0  0  0  0  0  0  0  0
   34.6322   17.1502  -20.1330 N   0  0  0  0  0  0  0  0  0  0  0  0
   34.9075   16.6437  -21.3610 N   0  0  0  0  0  0  0  0  0  0  0  0
   35.5036   14.8157  -19.7071 S   0  0  0  0  0  0  0  0  0  0  0  0
   36.0471   13.0254  -22.1417 N   0  0  0  0  0  0  0  0  0  0  0  0
   36.7120   15.0661  -23.3179 O   0  0  0  0  0  0  0  0  0  0  0  0
   34.3845   14.2851  -23.4542 O   0  0  0  0  0  0  0  0  0  0  0  0
   35.5514   14.4144  -22.6961 S   0  0  0  0  0  0  0  0  0  0  0  0
   36.8979   13.1613  -21.5957 H   0  0  0  0  0  0  0  0  0  0  0  0
   36.2404   12.3973  -22.9218 H   0  0  0  0  0  0  0  0  0  0  0  0
   34.2557   16.2512  -16.8222 C   0  0  0  0  0  0  0  0  0  0  0  0
   34.4492   16.7295  -15.4531 C   0  0  0  0  0  0  0  0  0  0  0  0
   35.1930   16.5471  -17.7639 N   0  0  0  0  0  0  0  0  0  0  0  0
   33.2465   15.5867  -17.0740 O   0  0  0  0  0  0  0  0  0  0  0  0
   36.0594   16.9250  -17.4886 H   0  0  0  0  0  0  0  0  0  0  0  0
  1  4  2  0  0  0
  1  9  1  0  0  0
  1  5  1  0  0  0
  2  3  2  0  0  0
  2 14  1  0  0  0
  2  5  1  0  0  0
 12 13  1  0  0  0
 12 14  1  0  0  0
 12 15  2  0  0  0
  6  9  1  0  0  0
  3  4  1  0  0  0
  7  9  2  0  0  0
  8  9  2  0  0  0
  6 10  1  0  0  0
  6 11  1  0  0  0
 14 16  1  0  0  0
M  END
> <minimizedAffinity>
-4.64544

$$$$
1AZM_AZM_A_262


 16 16  0  0  0  0  0  0  0  0999 V2000
   34.1581   15.9591  -20.1794 C   0  0  0  0  0  0  0  0  0  0  0  0
   33.1243   15.7917  -22.2855 C   0  0  0  0  0  0  0  0  0  0  0  0
   32.5942   15.0022  -21.3412 N   0  0  0  0  0  0  0  0  0  0  0  0
   33.2431   15.0643  -20.1515 N   0  0  0  0  0  0  0  0  0  0  0  0
   34.4242   16.7144  -21.6728 S   0  0  0  0  0  0  0  0  0  0  0  0
   35.1949   17.9969  -18.8165 N   0  0  0  0  0  0  0  0  0  0  0  0
   36.3902   15.8718  -19.0286 O   0  0  0  0  0  0  0  0  0  0  0  0
   34.4175   16.0192  -17.5683 O   0  0  0  0  0  0  0  0  0  0  0  0
   35.0621   16.4289  -18.7386 S   0  0  0  0  0  0  0  0  0  0  0  0
   35.6690   18.2554  -19.6818 H   0  0  0  0  0  0  0  0  0  0  0  0
   35.7357   18.3323  -18.0193 H   0  0  0  0  0  0  0  0  0  0  0  0
   32.0086   16.3294  -24.3454 C   0  0  0  0  0  0  0  0  0  0  0  0
   31.8298   16.0587  -25.7720 C   0  0  0  0  0  0  0  0  0  0  0  0
   33.0533   15.7536  -23.6896 N   0  0  0  0  0  0  0  0  0  0  0  0
   31.2044   17.0801  -23.7857 O   0  0  0  0  0  0  0  0  0  0  0  0
   33.7651   15.3068  -24.2025 H   0  0  0  0  0  0  0  0  0  0  0  0
  1  4  2  0  0  0
  1  9  1  0  0  0
  1  5  1  0  0  0
  2  3  2  0  0  0
  2 14  1  0  0  0
  2  5  1  0  0  0
 12 13  1  0  0  0
 12 14  1  0  0  0
 12 15  2  0  0  0
  6  9  1  0  0  0
  3  4  1  0  0  0
  7  9  2  0  0  0
  8  9  2  0  0  0
  6 10  1  0  0  0
  6 11  1  0  0  0
 14 16  1  0  0  0
M  END
> <minimizedAffinity>
-4.49873

$$$$
1AZM_AZM_A_262


 16 16  0  0  0  0  0  0  0  0999 V2000
   35.4772   15.6340  -21.3487 C   0  0  0  0  0  0  0  0  0  0  0  0
   34.1973   16.1957  -23.2404 C   0  0  0  0  0  0  0  0  0  0  0  0
   35.4204   15.7227  -23.5167 N   0  0  0  0  0  0  0  0  0  0  0  0
   36.1670   15.4649  -22.4138 N   0  0  0  0  0  0  0  0  0  0  0  0
   33.9133   16.2522  -21.5574 S   0  0  0  0  0  0  0  0  0  0  0  0
   35.1829   14.0061  -19.2633 N   0  0  0  0  0  0  0  0  0  0  0  0
   35.7059   16.3776  -18.9594 O   0  0  0  0  0  0  0  0  0  0  0  0
   37.4387   14.8454  -19.7933 O   0  0  0  0  0  0  0  0  0  0  0  0
   36.0876   15.2003  -19.7509 S   0  0  0  0  0  0  0  0  0  0  0  0
   34.2075   14.3037  -19.2460 H   0  0  0  0  0  0  0  0  0  0  0  0
   35.4690   13.7236  -18.3259 H   0  0  0  0  0  0  0  0  0  0  0  0
   32.2803   16.3228  -24.6848 C   0  0  0  0  0  0  0  0  0  0  0  0
   31.5086   17.0867  -25.6653 C   0  0  0  0  0  0  0  0  0  0  0  0
   33.2845   16.9428  -24.0064 N   0  0  0  0  0  0  0  0  0  0  0  0
   31.9868   15.1379  -24.5021 O   0  0  0  0  0  0  0  0  0  0  0  0
   33.3726   17.9223  -24.0524 H   0  0  0  0  0  0  0  0  0  0  0  0
  1  4  2  0  0  0
  1  9  1  0  0  0
  1  5  1  0  0  0
  2  3  2  0  0  0
  2 14  1  0  0  0
  2  5  1  0  0  0
 12 13  1  0  0  0
 12 14  1  0  0  0
 12 15  2  0  0  0
  6  9  1  0  0  0
  3  4  1  0  0  0
  7  9  2  0  0  0
  8  9  2  0  0  0
  6 10  1  0  0  0
  6 11  1  0  0  0
 14 16  1  0  0  0
M  END
> <minimizedAffinity>
-4.43241

$$$$
