6H8S_FSZ_A_601


 25 26  0  0  0  0  0  0  0  0999 V2000
    3.1295   16.3467   10.3933 C   0  0  0  0  0  0  0  0  0  0  0  0
    4.4910   14.3810   10.7724 C   0  0  0  0  0  0  0  0  0  0  0  0
    3.1701   16.1312    9.0225 C   0  0  0  0  0  0  0  0  0  0  0  0
    4.5218   14.1707    9.3951 C   0  0  0  0  0  0  0  0  0  0  0  0
    3.8661   15.0328    8.5199 C   0  0  0  0  0  0  0  0  0  0  0  0
    3.8044   15.4926   11.2561 C   0  0  0  0  0  0  0  0  0  0  0  0
    7.5022   12.1947   13.0146 N   0  0  0  0  0  0  0  0  0  0  0  0
    6.6347   13.1388   13.7722 C   0  0  0  0  0  0  0  0  0  0  0  0
    5.9864   14.1367   12.8296 C   0  0  0  0  0  0  0  0  0  0  0  0
    5.1857   13.4278   11.7274 C   0  0  0  0  0  0  0  0  0  0  0  0
    6.0900   12.4212   11.0020 C   0  0  0  0  0  0  0  0  0  0  0  0
    6.7315   11.4523   11.9786 C   0  0  0  0  0  0  0  0  0  0  0  0
    7.9107   11.5250   13.6665 H   0  0  0  0  0  0  0  0  0  0  0  0
    3.9482   14.8021    7.0436 C   0  0  0  0  0  0  0  0  0  0  0  0
    4.8237   13.8513    6.7154 F   0  0  0  0  0  0  0  0  0  0  0  0
    2.7988   14.4289    6.5074 F   0  0  0  0  0  0  0  0  0  0  0  0
    4.3107   15.8848    6.3743 F   0  0  0  0  0  0  0  0  0  0  0  0
    2.3952   17.4378   10.9448 N   0  0  0  0  0  0  0  0  0  0  0  0
    2.0258   17.3368   11.8518 H   0  0  0  0  0  0  0  0  0  0  0  0
    2.1754   18.6108   10.2898 C   0  0  0  0  0  0  0  0  0  0  0  0
    3.1508   19.4798   10.1100 N   0  0  0  0  0  0  0  0  0  0  0  0
    0.9649   18.8587    9.8380 N   0  0  0  0  0  0  0  0  0  0  0  0
    4.0531   19.2847   10.4520 H   0  0  0  0  0  0  0  0  0  0  0  0
    0.2436   18.2033    9.9774 H   0  0  0  0  0  0  0  0  0  0  0  0
    0.7803   19.6996    9.3604 H   0  0  0  0  0  0  0  0  0  0  0  0
  8  7  1  0  0  0
  8  9  1  0  0  0
  7 12  1  0  0  0
  9 10  1  0  0  0
 12 11  1  0  0  0
 10 11  1  0  0  0
 10  2  1  0  0  0
  2  4  2  0  0  0
  2  6  1  0  0  0
  4  5  1  0  0  0
 15 14  1  0  0  0
 17 14  1  0  0  0
  6  1  2  0  0  0
  5 14  1  0  0  0
  5  3  2  0  0  0
 14 16  1  0  0  0
  1  3  1  0  0  0
  1 18  1  0  0  0
 18 20  1  0  0  0
 21 20  2  0  0  0
 20 22  1  0  0  0
  7 13  1  0  0  0
 21 23  1  0  0  0
 22 24  1  0  0  0
 22 25  1  0  0  0
 18 19  1  0  0  0
M  END
> <minimizedAffinity>
-7.39089

$$$$
6H8S_FSZ_A_601


 25 26  0  0  0  0  0  0  0  0999 V2000
    4.5081   15.2417    8.2163 C   0  0  0  0  0  0  0  0  0  0  0  0
    4.8911   14.6280   10.5267 C   0  0  0  0  0  0  0  0  0  0  0  0
    3.9867   16.4666    8.6103 C   0  0  0  0  0  0  0  0  0  0  0  0
    4.3704   15.8621   10.9119 C   0  0  0  0  0  0  0  0  0  0  0  0
    3.9226   16.7815    9.9669 C   0  0  0  0  0  0  0  0  0  0  0  0
    4.9328   14.3233    9.1679 C   0  0  0  0  0  0  0  0  0  0  0  0
    7.4518   12.3155   13.1667 N   0  0  0  0  0  0  0  0  0  0  0  0
    6.4936   13.2641   13.7991 C   0  0  0  0  0  0  0  0  0  0  0  0
    6.0281   14.2992   12.7910 C   0  0  0  0  0  0  0  0  0  0  0  0
    5.4013   13.6361   11.5557 C   0  0  0  0  0  0  0  0  0  0  0  0
    6.3893   12.6233   10.9593 C   0  0  0  0  0  0  0  0  0  0  0  0
    6.8431   11.6166   12.0006 C   0  0  0  0  0  0  0  0  0  0  0  0
    7.7348   11.6209   13.8580 H   0  0  0  0  0  0  0  0  0  0  0  0
    3.3341   18.0834   10.4126 C   0  0  0  0  0  0  0  0  0  0  0  0
    3.9223   19.1385    9.8477 F   0  0  0  0  0  0  0  0  0  0  0  0
    2.0475   18.1996   10.1317 F   0  0  0  0  0  0  0  0  0  0  0  0
    3.4243   18.2664   11.7202 F   0  0  0  0  0  0  0  0  0  0  0  0
    4.6248   14.9019    6.8362 N   0  0  0  0  0  0  0  0  0  0  0  0
    5.5018   14.6008    6.5053 H   0  0  0  0  0  0  0  0  0  0  0  0
    3.5937   14.9697    5.9498 C   0  0  0  0  0  0  0  0  0  0  0  0
    2.5231   14.2140    6.0963 N   0  0  0  0  0  0  0  0  0  0  0  0
    3.6889   15.8091    4.9411 N   0  0  0  0  0  0  0  0  0  0  0  0
    2.4617   13.5891    6.8545 H   0  0  0  0  0  0  0  0  0  0  0  0
    4.4926   16.3689    4.8407 H   0  0  0  0  0  0  0  0  0  0  0  0
    2.9566   15.8774    4.2867 H   0  0  0  0  0  0  0  0  0  0  0  0
  8  7  1  0  0  0
  8  9  1  0  0  0
  7 12  1  0  0  0
  9 10  1  0  0  0
 12 11  1  0  0  0
 10 11  1  0  0  0
 10  2  1  0  0  0
  2  4  2  0  0  0
  2  6  1  0  0  0
  4  5  1  0  0  0
 15 14  1  0  0  0
 17 14  1  0  0  0
  6  1  2  0  0  0
  5 14  1  0  0  0
  5  3  2  0  0  0
 14 16  1  0  0  0
  1  3  1  0  0  0
  1 18  1  0  0  0
 18 20  1  0  0  0
 21 20  2  0  0  0
 20 22  1  0  0  0
  7 13  1  0  0  0
 21 23  1  0  0  0
 22 24  1  0  0  0
 22 25  1  0  0  0
 18 19  1  0  0  0
M  END
> <minimizedAffinity>
-7.31162

$$$$
6H8S_FSZ_A_601


 25 26  0  0  0  0  0  0  0  0999 V2000
    5.3262   14.8826   10.6663 C   0  0  0  0  0  0  0  0  0  0  0  0
    4.0372   14.9398    8.6178 C   0  0  0  0  0  0  0  0  0  0  0  0
    4.8171   16.1186   11.0411 C   0  0  0  0  0  0  0  0  0  0  0  0
    3.5282   16.1780    9.0052 C   0  0  0  0  0  0  0  0  0  0  0  0
    3.9076   16.7684   10.2080 C   0  0  0  0  0  0  0  0  0  0  0  0
    4.9572   14.3122    9.4548 C   0  0  0  0  0  0  0  0  0  0  0  0
    1.9850   14.0249    4.8994 N   0  0  0  0  0  0  0  0  0  0  0  0
    3.4077   14.4557    4.8091 C   0  0  0  0  0  0  0  0  0  0  0  0
    3.8283   15.1685    6.0817 C   0  0  0  0  0  0  0  0  0  0  0  0
    3.6051   14.2857    7.3184 C   0  0  0  0  0  0  0  0  0  0  0  0
    2.1454   13.8109    7.3540 C   0  0  0  0  0  0  0  0  0  0  0  0
    1.7588   13.1187    6.0597 C   0  0  0  0  0  0  0  0  0  0  0  0
    1.7328   13.5338    4.0418 H   0  0  0  0  0  0  0  0  0  0  0  0
    3.3726   18.1157   10.5795 C   0  0  0  0  0  0  0  0  0  0  0  0
    3.9098   19.1028    9.8614 F   0  0  0  0  0  0  0  0  0  0  0  0
    2.0656   18.2241   10.4128 F   0  0  0  0  0  0  0  0  0  0  0  0
    3.5896   18.4220   11.8486 F   0  0  0  0  0  0  0  0  0  0  0  0
    6.2283   14.1719   11.5117 N   0  0  0  0  0  0  0  0  0  0  0  0
    7.1386   14.0002   11.1783 H   0  0  0  0  0  0  0  0  0  0  0  0
    5.9037   13.7170   12.7532 C   0  0  0  0  0  0  0  0  0  0  0  0
    6.6457   14.0181   13.8008 N   0  0  0  0  0  0  0  0  0  0  0  0
    4.8296   12.9687   12.8851 N   0  0  0  0  0  0  0  0  0  0  0  0
    7.4475   14.5788   13.6914 H   0  0  0  0  0  0  0  0  0  0  0  0
    4.2824   12.7497   12.0965 H   0  0  0  0  0  0  0  0  0  0  0  0
    4.5731   12.6279   13.7724 H   0  0  0  0  0  0  0  0  0  0  0  0
  8  7  1  0  0  0
  8  9  1  0  0  0
  7 12  1  0  0  0
  9 10  1  0  0  0
 12 11  1  0  0  0
 10 11  1  0  0  0
 10  2  1  0  0  0
  2  4  2  0  0  0
  2  6  1  0  0  0
  4  5  1  0  0  0
 15 14  1  0  0  0
 17 14  1  0  0  0
  6  1  2  0  0  0
  5 14  1  0  0  0
  5  3  2  0  0  0
 14 16  1  0  0  0
  1  3  1  0  0  0
  1 18  1  0  0  0
 18 20  1  0  0  0
 21 20  2  0  0  0
 20 22  1  0  0  0
  7 13  1  0  0  0
 21 23  1  0  0  0
 22 24  1  0  0  0
 22 25  1  0  0  0
 18 19  1  0  0  0
M  END
> <minimizedAffinity>
-7.30262

$$$$
6H8S_FSZ_A_601


 25 26  0  0  0  0  0  0  0  0999 V2000
    3.5457   17.2086   10.8144 C   0  0  0  0  0  0  0  0  0  0  0  0
    3.5773   15.4496    9.1511 C   0  0  0  0  0  0  0  0  0  0  0  0
    4.3850   16.4692   11.6368 C   0  0  0  0  0  0  0  0  0  0  0  0
    4.4234   14.7172    9.9819 C   0  0  0  0  0  0  0  0  0  0  0  0
    4.8316   15.2176   11.2155 C   0  0  0  0  0  0  0  0  0  0  0  0
    3.1277   16.6914    9.5949 C   0  0  0  0  0  0  0  0  0  0  0  0
    3.4597   13.3156    5.3687 N   0  0  0  0  0  0  0  0  0  0  0  0
    2.4723   12.9188    6.4105 C   0  0  0  0  0  0  0  0  0  0  0  0
    2.9241   13.3957    7.7791 C   0  0  0  0  0  0  0  0  0  0  0  0
    3.1519   14.9144    7.7963 C   0  0  0  0  0  0  0  0  0  0  0  0
    4.1290   15.3000    6.6765 C   0  0  0  0  0  0  0  0  0  0  0  0
    3.6512   14.7922    5.3283 C   0  0  0  0  0  0  0  0  0  0  0  0
    3.1249   13.0003    4.4582 H   0  0  0  0  0  0  0  0  0  0  0  0
    5.7106   14.3921   12.1019 C   0  0  0  0  0  0  0  0  0  0  0  0
    6.5065   15.1309   12.8759 F   0  0  0  0  0  0  0  0  0  0  0  0
    5.0354   13.6109   12.9275 F   0  0  0  0  0  0  0  0  0  0  0  0
    6.5054   13.5798   11.4237 F   0  0  0  0  0  0  0  0  0  0  0  0
    3.1008   18.5087   11.1958 N   0  0  0  0  0  0  0  0  0  0  0  0
    3.4158   18.8733   12.0543 H   0  0  0  0  0  0  0  0  0  0  0  0
    2.2656   19.2748   10.4416 C   0  0  0  0  0  0  0  0  0  0  0  0
    2.6933   20.3843    9.8714 N   0  0  0  0  0  0  0  0  0  0  0  0
    1.0187   18.8823   10.2929 N   0  0  0  0  0  0  0  0  0  0  0  0
    3.6283   20.6692    9.9889 H   0  0  0  0  0  0  0  0  0  0  0  0
    0.7093   18.0524   10.7228 H   0  0  0  0  0  0  0  0  0  0  0  0
    0.3950   19.4184    9.7518 H   0  0  0  0  0  0  0  0  0  0  0  0
  8  7  1  0  0  0
  8  9  1  0  0  0
  7 12  1  0  0  0
  9 10  1  0  0  0
 12 11  1  0  0  0
 10 11  1  0  0  0
 10  2  1  0  0  0
  2  4  2  0  0  0
  2  6  1  0  0  0
  4  5  1  0  0  0
 15 14  1  0  0  0
 17 14  1  0  0  0
  6  1  2  0  0  0
  5 14  1  0  0  0
  5  3  2  0  0  0
 14 16  1  0  0  0
  1  3  1  0  0  0
  1 18  1  0  0  0
 18 20  1  0  0  0
 21 20  2  0  0  0
 20 22  1  0  0  0
  7 13  1  0  0  0
 21 23  1  0  0  0
 22 24  1  0  0  0
 22 25  1  0  0  0
 18 19  1  0  0  0
M  END
> <minimizedAffinity>
-7.13192

$$$$
6H8S_FSZ_A_601


 25 26  0  0  0  0  0  0  0  0999 V2000
    3.7739   16.6657    9.9359 C   0  0  0  0  0  0  0  0  0  0  0  0
    3.5357   14.7208    8.5140 C   0  0  0  0  0  0  0  0  0  0  0  0
    4.0704   15.8553   11.0234 C   0  0  0  0  0  0  0  0  0  0  0  0
    3.8390   13.9161    9.6107 C   0  0  0  0  0  0  0  0  0  0  0  0
    4.1090   14.4715   10.8588 C   0  0  0  0  0  0  0  0  0  0  0  0
    3.4856   16.1006    8.7002 C   0  0  0  0  0  0  0  0  0  0  0  0
    1.9297   13.9331    4.5548 N   0  0  0  0  0  0  0  0  0  0  0  0
    3.3437   14.3922    4.6420 C   0  0  0  0  0  0  0  0  0  0  0  0
    3.6045   15.0561    5.9820 C   0  0  0  0  0  0  0  0  0  0  0  0
    3.2651   14.1165    7.1484 C   0  0  0  0  0  0  0  0  0  0  0  0
    1.8214   13.6151    7.0009 C   0  0  0  0  0  0  0  0  0  0  0  0
    1.5963   12.9733    5.6439 C   0  0  0  0  0  0  0  0  0  0  0  0
    1.7853   13.4754    3.6547 H   0  0  0  0  0  0  0  0  0  0  0  0
    4.3950   13.5800   12.0263 C   0  0  0  0  0  0  0  0  0  0  0  0
    3.3291   13.3862   12.8039 F   0  0  0  0  0  0  0  0  0  0  0  0
    4.8045   12.3730   11.6752 F   0  0  0  0  0  0  0  0  0  0  0  0
    5.3456   14.0560   12.8147 F   0  0  0  0  0  0  0  0  0  0  0  0
    3.7637   18.0865   10.0586 N   0  0  0  0  0  0  0  0  0  0  0  0
    4.5603   18.5833    9.7619 H   0  0  0  0  0  0  0  0  0  0  0  0
    2.7164   18.7956   10.5622 C   0  0  0  0  0  0  0  0  0  0  0  0
    1.4740   18.3962   10.3734 N   0  0  0  0  0  0  0  0  0  0  0  0
    2.9720   19.8913   11.2444 N   0  0  0  0  0  0  0  0  0  0  0  0
    1.2935   17.5749    9.8614 H   0  0  0  0  0  0  0  0  0  0  0  0
    3.9032   20.1809   11.3797 H   0  0  0  0  0  0  0  0  0  0  0  0
    2.2322   20.4215   11.6195 H   0  0  0  0  0  0  0  0  0  0  0  0
  8  7  1  0  0  0
  8  9  1  0  0  0
  7 12  1  0  0  0
  9 10  1  0  0  0
 12 11  1  0  0  0
 10 11  1  0  0  0
 10  2  1  0  0  0
  2  4  2  0  0  0
  2  6  1  0  0  0
  4  5  1  0  0  0
 15 14  1  0  0  0
 17 14  1  0  0  0
  6  1  2  0  0  0
  5 14  1  0  0  0
  5  3  2  0  0  0
 14 16  1  0  0  0
  1  3  1  0  0  0
  1 18  1  0  0  0
 18 20  1  0  0  0
 21 20  2  0  0  0
 20 22  1  0  0  0
  7 13  1  0  0  0
 21 23  1  0  0  0
 22 24  1  0  0  0
 22 25  1  0  0  0
 18 19  1  0  0  0
M  END
> <minimizedAffinity>
-6.77853

$$$$
6H8S_FSZ_A_601


 25 26  0  0  0  0  0  0  0  0999 V2000
    5.1495   14.6105   10.4730 C   0  0  0  0  0  0  0  0  0  0  0  0
    3.6488   14.9745    8.6083 C   0  0  0  0  0  0  0  0  0  0  0  0
    4.7964   15.8373   11.0186 C   0  0  0  0  0  0  0  0  0  0  0  0
    3.2975   16.2022    9.1666 C   0  0  0  0  0  0  0  0  0  0  0  0
    3.8599   16.6362   10.3642 C   0  0  0  0  0  0  0  0  0  0  0  0
    4.5982   14.1963    9.2672 C   0  0  0  0  0  0  0  0  0  0  0  0
    2.8563   12.8466    4.9045 N   0  0  0  0  0  0  0  0  0  0  0  0
    1.9379   12.5950    6.0495 C   0  0  0  0  0  0  0  0  0  0  0  0
    2.5885   13.0171    7.3545 C   0  0  0  0  0  0  0  0  0  0  0  0
    3.0178   14.4911    7.3156 C   0  0  0  0  0  0  0  0  0  0  0  0
    3.9165   14.7324    6.0943 C   0  0  0  0  0  0  0  0  0  0  0  0
    3.2382   14.2834    4.8129 C   0  0  0  0  0  0  0  0  0  0  0  0
    2.3900   12.5723    4.0398 H   0  0  0  0  0  0  0  0  0  0  0  0
    3.4907   17.9758   10.9199 C   0  0  0  0  0  0  0  0  0  0  0  0
    3.7691   18.0928   12.2189 F   0  0  0  0  0  0  0  0  0  0  0  0
    4.1179   18.9785   10.3291 F   0  0  0  0  0  0  0  0  0  0  0  0
    2.2014   18.2466   10.7928 F   0  0  0  0  0  0  0  0  0  0  0  0
    6.0747   13.7503   11.1346 N   0  0  0  0  0  0  0  0  0  0  0  0
    7.0221   13.7977   10.8710 H   0  0  0  0  0  0  0  0  0  0  0  0
    5.7238   12.8674   12.1097 C   0  0  0  0  0  0  0  0  0  0  0  0
    5.3287   11.6460   11.8080 N   0  0  0  0  0  0  0  0  0  0  0  0
    5.7885   13.2605   13.3636 N   0  0  0  0  0  0  0  0  0  0  0  0
    5.2838   11.3617   10.8665 H   0  0  0  0  0  0  0  0  0  0  0  0
    6.0847   14.1746   13.5783 H   0  0  0  0  0  0  0  0  0  0  0  0
    5.5407   12.6407   14.0873 H   0  0  0  0  0  0  0  0  0  0  0  0
  8  7  1  0  0  0
  8  9  1  0  0  0
  7 12  1  0  0  0
  9 10  1  0  0  0
 12 11  1  0  0  0
 10 11  1  0  0  0
 10  2  1  0  0  0
  2  4  2  0  0  0
  2  6  1  0  0  0
  4  5  1  0  0  0
 15 14  1  0  0  0
 17 14  1  0  0  0
  6  1  2  0  0  0
  5 14  1  0  0  0
  5  3  2  0  0  0
 14 16  1  0  0  0
  1  3  1  0  0  0
  1 18  1  0  0  0
 18 20  1  0  0  0
 21 20  2  0  0  0
 20 22  1  0  0  0
  7 13  1  0  0  0
 21 23  1  0  0  0
 22 24  1  0  0  0
 22 25  1  0  0  0
 18 19  1  0  0  0
M  END
> <minimizedAffinity>
-6.71556

$$$$
6H8S_FSZ_A_601


 25 26  0  0  0  0  0  0  0  0999 V2000
    3.4473   14.3023   11.1257 C   0  0  0  0  0  0  0  0  0  0  0  0
    3.9402   14.7856    8.8052 C   0  0  0  0  0  0  0  0  0  0  0  0
    3.2324   15.6504   11.3784 C   0  0  0  0  0  0  0  0  0  0  0  0
    3.7178   16.1361    9.0680 C   0  0  0  0  0  0  0  0  0  0  0  0
    3.3629   16.5732   10.3416 C   0  0  0  0  0  0  0  0  0  0  0  0
    3.8213   13.8793    9.8566 C   0  0  0  0  0  0  0  0  0  0  0  0
    4.2279   12.4628    5.1451 N   0  0  0  0  0  0  0  0  0  0  0  0
    3.5274   13.7749    5.0709 C   0  0  0  0  0  0  0  0  0  0  0  0
    3.1038   14.2296    6.4559 C   0  0  0  0  0  0  0  0  0  0  0  0
    4.3035   14.3070    7.4116 C   0  0  0  0  0  0  0  0  0  0  0  0
    5.0384   12.9589    7.4239 C   0  0  0  0  0  0  0  0  0  0  0  0
    5.4305   12.5316    6.0213 C   0  0  0  0  0  0  0  0  0  0  0  0
    4.5176   12.1888    4.2063 H   0  0  0  0  0  0  0  0  0  0  0  0
    3.1669   18.0338   10.6018 C   0  0  0  0  0  0  0  0  0  0  0  0
    1.8958   18.4169   10.4754 F   0  0  0  0  0  0  0  0  0  0  0  0
    3.5311   18.4022   11.8181 F   0  0  0  0  0  0  0  0  0  0  0  0
    3.8669   18.7999    9.7803 F   0  0  0  0  0  0  0  0  0  0  0  0
    3.2849   13.3265   12.1529 N   0  0  0  0  0  0  0  0  0  0  0  0
    4.0492   13.1470   12.7470 H   0  0  0  0  0  0  0  0  0  0  0  0
    2.1342   12.6290   12.3597 C   0  0  0  0  0  0  0  0  0  0  0  0
    1.6520   11.8263   11.4313 N   0  0  0  0  0  0  0  0  0  0  0  0
    1.5124   12.7732   13.5102 N   0  0  0  0  0  0  0  0  0  0  0  0
    2.1250   11.7254   10.5738 H   0  0  0  0  0  0  0  0  0  0  0  0
    1.8808   13.3750   14.1968 H   0  0  0  0  0  0  0  0  0  0  0  0
    0.6788   12.2793   13.6845 H   0  0  0  0  0  0  0  0  0  0  0  0
  8  7  1  0  0  0
  8  9  1  0  0  0
  7 12  1  0  0  0
  9 10  1  0  0  0
 12 11  1  0  0  0
 10 11  1  0  0  0
 10  2  1  0  0  0
  2  4  2  0  0  0
  2  6  1  0  0  0
  4  5  1  0  0  0
 15 14  1  0  0  0
 17 14  1  0  0  0
  6  1  2  0  0  0
  5 14  1  0  0  0
  5  3  2  0  0  0
 14 16  1  0  0  0
  1  3  1  0  0  0
  1 18  1  0  0  0
 18 20  1  0  0  0
 21 20  2  0  0  0
 20 22  1  0  0  0
  7 13  1  0  0  0
 21 23  1  0  0  0
 22 24  1  0  0  0
 22 25  1  0  0  0
 18 19  1  0  0  0
M  END
> <minimizedAffinity>
-6.61742

$$$$
6H8S_FSZ_A_601


 25 26  0  0  0  0  0  0  0  0999 V2000
    4.3377   15.9903    9.7006 C   0  0  0  0  0  0  0  0  0  0  0  0
    5.4770   13.8565    9.5994 C   0  0  0  0  0  0  0  0  0  0  0  0
    3.9177   15.8476    8.3851 C   0  0  0  0  0  0  0  0  0  0  0  0
    5.0465   13.7205    8.2808 C   0  0  0  0  0  0  0  0  0  0  0  0
    4.2695   14.7026    7.6719 C   0  0  0  0  0  0  0  0  0  0  0  0
    5.1299   15.0145   10.2919 C   0  0  0  0  0  0  0  0  0  0  0  0
    6.7237   10.4646   12.0109 N   0  0  0  0  0  0  0  0  0  0  0  0
    6.7828   10.3118   10.5307 C   0  0  0  0  0  0  0  0  0  0  0  0
    5.9066   11.3509    9.8545 C   0  0  0  0  0  0  0  0  0  0  0  0
    6.3036   12.7749   10.2703 C   0  0  0  0  0  0  0  0  0  0  0  0
    6.2888   12.8860   11.8016 C   0  0  0  0  0  0  0  0  0  0  0  0
    7.1624   11.8217   12.4404 C   0  0  0  0  0  0  0  0  0  0  0  0
    7.3334    9.7685   12.4401 H   0  0  0  0  0  0  0  0  0  0  0  0
    3.8536   14.5457    6.2429 C   0  0  0  0  0  0  0  0  0  0  0  0
    4.5809   13.6402    5.5877 F   0  0  0  0  0  0  0  0  0  0  0  0
    2.5961   14.1621    6.1030 F   0  0  0  0  0  0  0  0  0  0  0  0
    3.9547   15.6703    5.5525 F   0  0  0  0  0  0  0  0  0  0  0  0
    3.9642   17.1298   10.4724 N   0  0  0  0  0  0  0  0  0  0  0  0
    4.6509   17.8109   10.6560 H   0  0  0  0  0  0  0  0  0  0  0  0
    2.7129   17.3305   10.9699 C   0  0  0  0  0  0  0  0  0  0  0  0
    1.9974   18.3757   10.6036 N   0  0  0  0  0  0  0  0  0  0  0  0
    2.2315   16.4553   11.8263 N   0  0  0  0  0  0  0  0  0  0  0  0
    2.3668   19.0248    9.9622 H   0  0  0  0  0  0  0  0  0  0  0  0
    2.7739   15.6782   12.0933 H   0  0  0  0  0  0  0  0  0  0  0  0
    1.3290   16.5774   12.2001 H   0  0  0  0  0  0  0  0  0  0  0  0
  8  7  1  0  0  0
  8  9  1  0  0  0
  7 12  1  0  0  0
  9 10  1  0  0  0
 12 11  1  0  0  0
 10 11  1  0  0  0
 10  2  1  0  0  0
  2  4  2  0  0  0
  2  6  1  0  0  0
  4  5  1  0  0  0
 15 14  1  0  0  0
 17 14  1  0  0  0
  6  1  2  0  0  0
  5 14  1  0  0  0
  5  3  2  0  0  0
 14 16  1  0  0  0
  1  3  1  0  0  0
  1 18  1  0  0  0
 18 20  1  0  0  0
 21 20  2  0  0  0
 20 22  1  0  0  0
  7 13  1  0  0  0
 21 23  1  0  0  0
 22 24  1  0  0  0
 22 25  1  0  0  0
 18 19  1  0  0  0
M  END
> <minimizedAffinity>
-6.38627

$$$$
6H8S_FSZ_A_601


 25 26  0  0  0  0  0  0  0  0999 V2000
    3.6411   14.2268    5.8848 C   0  0  0  0  0  0  0  0  0  0  0  0
    4.3313   14.4675    8.1928 C   0  0  0  0  0  0  0  0  0  0  0  0
    4.6954   13.3565    5.6426 C   0  0  0  0  0  0  0  0  0  0  0  0
    5.3837   13.5892    7.9408 C   0  0  0  0  0  0  0  0  0  0  0  0
    5.5693   13.0309    6.6788 C   0  0  0  0  0  0  0  0  0  0  0  0
    3.4772   14.7945    7.1419 C   0  0  0  0  0  0  0  0  0  0  0  0
    4.3534   17.1111   11.6405 N   0  0  0  0  0  0  0  0  0  0  0  0
    3.0431   16.8569   10.9800 C   0  0  0  0  0  0  0  0  0  0  0  0
    3.2518   16.3272    9.5728 C   0  0  0  0  0  0  0  0  0  0  0  0
    4.1152   15.0571    9.5745 C   0  0  0  0  0  0  0  0  0  0  0  0
    5.4339   15.3333   10.3107 C   0  0  0  0  0  0  0  0  0  0  0  0
    5.1836   15.8761   11.7059 C   0  0  0  0  0  0  0  0  0  0  0  0
    4.1863   17.4481   12.5885 H   0  0  0  0  0  0  0  0  0  0  0  0
    6.7302   12.1201    6.4290 C   0  0  0  0  0  0  0  0  0  0  0  0
    6.8483   11.7701    5.1476 F   0  0  0  0  0  0  0  0  0  0  0  0
    7.8939   12.6520    6.7620 F   0  0  0  0  0  0  0  0  0  0  0  0
    6.6533   10.9907    7.1147 F   0  0  0  0  0  0  0  0  0  0  0  0
    2.7053   14.5518    4.8590 N   0  0  0  0  0  0  0  0  0  0  0  0
    1.7767   14.2421    4.9634 H   0  0  0  0  0  0  0  0  0  0  0  0
    3.0218   15.2655    3.7437 C   0  0  0  0  0  0  0  0  0  0  0  0
    2.9006   14.7352    2.5425 N   0  0  0  0  0  0  0  0  0  0  0  0
    3.4517   16.5002    3.8912 N   0  0  0  0  0  0  0  0  0  0  0  0
    2.5779   13.8104    2.4430 H   0  0  0  0  0  0  0  0  0  0  0  0
    3.5386   16.8869    4.7924 H   0  0  0  0  0  0  0  0  0  0  0  0
    3.6865   17.0375    3.1003 H   0  0  0  0  0  0  0  0  0  0  0  0
  8  7  1  0  0  0
  8  9  1  0  0  0
  7 12  1  0  0  0
  9 10  1  0  0  0
 12 11  1  0  0  0
 10 11  1  0  0  0
 10  2  1  0  0  0
  2  4  2  0  0  0
  2  6  1  0  0  0
  4  5  1  0  0  0
 15 14  1  0  0  0
 17 14  1  0  0  0
  6  1  2  0  0  0
  5 14  1  0  0  0
  5  3  2  0  0  0
 14 16  1  0  0  0
  1  3  1  0  0  0
  1 18  1  0  0  0
 18 20  1  0  0  0
 21 20  2  0  0  0
 20 22  1  0  0  0
  7 13  1  0  0  0
 21 23  1  0  0  0
 22 24  1  0  0  0
 22 25  1  0  0  0
 18 19  1  0  0  0
M  END
> <minimizedAffinity>
-6.13389

$$$$
6H8S_FSZ_A_601


 25 26  0  0  0  0  0  0  0  0999 V2000
    4.5586   15.6261    9.7676 C   0  0  0  0  0  0  0  0  0  0  0  0
    5.8120   13.7430    8.9049 C   0  0  0  0  0  0  0  0  0  0  0  0
    4.9499   15.3149   11.0628 C   0  0  0  0  0  0  0  0  0  0  0  0
    6.2032   13.4417   10.2082 C   0  0  0  0  0  0  0  0  0  0  0  0
    5.7824   14.2188   11.2843 C   0  0  0  0  0  0  0  0  0  0  0  0
    4.9669   14.8322    8.7035 C   0  0  0  0  0  0  0  0  0  0  0  0
    6.2896   10.5797    5.9654 N   0  0  0  0  0  0  0  0  0  0  0  0
    5.7585   11.8860    5.4864 C   0  0  0  0  0  0  0  0  0  0  0  0
    5.2191   12.6984    6.6498 C   0  0  0  0  0  0  0  0  0  0  0  0
    6.2903   12.9102    7.7298 C   0  0  0  0  0  0  0  0  0  0  0  0
    6.8590   11.5513    8.1627 C   0  0  0  0  0  0  0  0  0  0  0  0
    7.3727   10.7635    6.9714 C   0  0  0  0  0  0  0  0  0  0  0  0
    6.6617   10.0618    5.1694 H   0  0  0  0  0  0  0  0  0  0  0  0
    6.1886   13.8485   12.6763 C   0  0  0  0  0  0  0  0  0  0  0  0
    6.6467   14.8870   13.3762 F   0  0  0  0  0  0  0  0  0  0  0  0
    5.1992   13.3438   13.3934 F   0  0  0  0  0  0  0  0  0  0  0  0
    7.1439   12.9330   12.7057 F   0  0  0  0  0  0  0  0  0  0  0  0
    3.7395   16.7623    9.4998 N   0  0  0  0  0  0  0  0  0  0  0  0
    3.5284   16.9710    8.5611 H   0  0  0  0  0  0  0  0  0  0  0  0
    3.2324   17.5752   10.4671 C   0  0  0  0  0  0  0  0  0  0  0  0
    2.2655   17.1611   11.2623 N   0  0  0  0  0  0  0  0  0  0  0  0
    3.7305   18.7866   10.5919 N   0  0  0  0  0  0  0  0  0  0  0  0
    1.8997   16.2527   11.1607 H   0  0  0  0  0  0  0  0  0  0  0  0
    4.4523   19.0861    9.9931 H   0  0  0  0  0  0  0  0  0  0  0  0
    3.3815   19.3935   11.2840 H   0  0  0  0  0  0  0  0  0  0  0  0
  8  7  1  0  0  0
  8  9  1  0  0  0
  7 12  1  0  0  0
  9 10  1  0  0  0
 12 11  1  0  0  0
 10 11  1  0  0  0
 10  2  1  0  0  0
  2  4  2  0  0  0
  2  6  1  0  0  0
  4  5  1  0  0  0
 15 14  1  0  0  0
 17 14  1  0  0  0
  6  1  2  0  0  0
  5 14  1  0  0  0
  5  3  2  0  0  0
 14 16  1  0  0  0
  1  3  1  0  0  0
  1 18  1  0  0  0
 18 20  1  0  0  0
 21 20  2  0  0  0
 20 22  1  0  0  0
  7 13  1  0  0  0
 21 23  1  0  0  0
 22 24  1  0  0  0
 22 25  1  0  0  0
 18 19  1  0  0  0
M  END
> <minimizedAffinity>
-6.09017

$$$$
