1VZQ_SHY_H_1256


 37 42  0  0  0  0  0  0  0  0999 V2000
   16.1875  -11.0804   19.8457 C   0  0  0  0  0  0  0  0  0  0  0  0
   16.1830  -12.1814   18.8438 N   0  0  0  0  0  0  0  0  0  0  0  0
   15.3713  -11.7867   17.6467 C   0  0  0  0  0  0  0  0  0  0  0  0
   16.3217  -11.6183   16.4438 C   0  0  0  0  0  0  0  0  0  0  0  0
   17.6445  -11.2931   17.1538 C   0  0  0  0  0  0  0  0  0  0  0  0
   17.5966  -12.1990   18.3589 C   0  0  0  0  0  0  0  0  0  0  0  0
   18.5303  -11.6631   19.4680 C   0  0  0  0  0  0  0  0  0  0  0  0
   19.2866  -12.7709   20.0948 C   0  0  0  0  0  0  0  0  0  0  0  0
   18.6538  -13.2706   21.2267 N   0  0  0  0  0  0  0  0  0  0  0  0
   17.5237  -12.4681   21.5238 C   0  0  0  0  0  0  0  0  0  0  0  0
   16.7523  -12.7314   22.4354 O   0  0  0  0  0  0  0  0  0  0  0  0
   17.5138  -11.2620   20.6036 C   0  0  0  0  0  0  0  0  0  0  0  0
   16.5163  -12.8460   15.7290 O   0  0  0  0  0  0  0  0  0  0  0  0
   20.3072  -13.3101   19.6915 O   0  0  0  0  0  0  0  0  0  0  0  0
   16.8458  -13.5257   16.3376 H   0  0  0  0  0  0  0  0  0  0  0  0
   12.6501  -11.0172   22.3501 C   0  0  0  0  0  0  0  0  0  0  0  0
   13.4441   -9.8893   22.2032 C   0  0  0  0  0  0  0  0  0  0  0  0
   14.5699   -9.9290   21.3772 C   0  0  0  0  0  0  0  0  0  0  0  0
   14.9163  -11.1100   20.6790 C   0  0  0  0  0  0  0  0  0  0  0  0
   14.0780  -12.2171   20.8067 C   0  0  0  0  0  0  0  0  0  0  0  0
   12.9665  -12.1842   21.6200 C   0  0  0  0  0  0  0  0  0  0  0  0
   11.1795   -9.8664   23.9459 N   0  0  0  0  0  0  0  0  0  0  0  0
   11.5077  -10.9769   23.2274 C   0  0  0  0  0  0  0  0  0  0  0  0
   10.7383  -12.0913   23.4396 N   0  0  0  0  0  0  0  0  0  0  0  0
   10.3909   -9.8767   24.5353 H   0  0  0  0  0  0  0  0  0  0  0  0
    9.9612  -12.0456   24.0423 H   0  0  0  0  0  0  0  0  0  0  0  0
   10.9628  -12.9375   22.9892 H   0  0  0  0  0  0  0  0  0  0  0  0
   19.0091  -14.4395   22.0426 C   0  0  0  0  0  0  0  0  0  0  0  0
   20.0811  -14.1961   23.0445 C   0  0  0  0  0  0  0  0  0  0  0  0
   19.6932  -13.7324   24.2935 C   0  0  0  0  0  0  0  0  0  0  0  0
   20.5944  -13.4123   25.2887 C   0  0  0  0  0  0  0  0  0  0  0  0
   21.9440  -13.5672   24.9533 C   0  0  0  0  0  0  0  0  0  0  0  0
   22.9946  -13.3388   25.7529 O   0  0  0  0  0  0  0  0  0  0  0  0
   24.1611  -13.6682   24.9533 C   0  0  0  0  0  0  0  0  0  0  0  0
   23.7039  -14.1814   23.6577 O   0  0  0  0  0  0  0  0  0  0  0  0
   22.3514  -14.0164   23.7136 C   0  0  0  0  0  0  0  0  0  0  0  0
   21.4353  -14.3479   22.7281 C   0  0  0  0  0  0  0  0  0  0  0  0
 22 23  2  0  0  0
 23 24  1  0  0  0
 23 16  1  0  0  0
 16 17  2  0  0  0
 16 21  1  0  0  0
 17 18  1  0  0  0
 18 19  2  0  0  0
 19 20  1  0  0  0
 19  1  1  0  0  0
 20 21  2  0  0  0
  1  2  1  0  0  0
  1 12  1  0  0  0
  2  3  1  0  0  0
  2  6  1  0  0  0
  3  4  1  0  0  0
  4  5  1  0  0  0
  4 13  1  0  0  0
  5  6  1  0  0  0
  6  7  1  0  0  0
  7  8  1  0  0  0
  7 12  1  0  0  0
  8  9  1  0  0  0
  8 14  2  0  0  0
  9 10  1  0  0  0
  9 28  1  0  0  0
 10 11  2  0  0  0
 10 12  1  0  0  0
 28 29  1  0  0  0
 29 30  2  0  0  0
 29 37  1  0  0  0
 30 31  1  0  0  0
 31 32  2  0  0  0
 32 33  1  0  0  0
 32 36  1  0  0  0
 33 34  1  0  0  0
 34 35  1  0  0  0
 35 36  1  0  0  0
 36 37  2  0  0  0
 22 25  1  0  0  0
 24 26  1  0  0  0
 24 27  1  0  0  0
 13 15  1  0  0  0
M  END
> <minimizedAffinity>
-11.96385

$$$$
1VZQ_SHY_H_1256


 37 42  0  0  0  0  0  0  0  0999 V2000
   14.2048  -13.1060   20.1213 C   0  0  0  0  0  0  0  0  0  0  0  0
   13.5694  -14.4212   20.4087 N   0  0  0  0  0  0  0  0  0  0  0  0
   12.2155  -14.4912   19.7685 C   0  0  0  0  0  0  0  0  0  0  0  0
   12.2633  -15.5343   18.6334 C   0  0  0  0  0  0  0  0  0  0  0  0
   13.7573  -15.5165   18.2765 C   0  0  0  0  0  0  0  0  0  0  0  0
   14.4117  -15.3779   19.6284 C   0  0  0  0  0  0  0  0  0  0  0  0
   15.8388  -14.8041   19.4751 C   0  0  0  0  0  0  0  0  0  0  0  0
   16.7860  -15.5150   20.3638 C   0  0  0  0  0  0  0  0  0  0  0  0
   16.9403  -14.8799   21.5901 N   0  0  0  0  0  0  0  0  0  0  0  0
   16.2366  -13.6495   21.5719 C   0  0  0  0  0  0  0  0  0  0  0  0
   16.1553  -12.9244   22.5533 O   0  0  0  0  0  0  0  0  0  0  0  0
   15.7150  -13.3951   20.1702 C   0  0  0  0  0  0  0  0  0  0  0  0
   11.9552  -16.8559   19.0968 O   0  0  0  0  0  0  0  0  0  0  0  0
   17.3466  -16.5838   20.1675 O   0  0  0  0  0  0  0  0  0  0  0  0
   12.5624  -17.0969   19.8138 H   0  0  0  0  0  0  0  0  0  0  0  0
   12.9034   -9.9637   22.8086 C   0  0  0  0  0  0  0  0  0  0  0  0
   13.7901   -9.7006   21.7749 C   0  0  0  0  0  0  0  0  0  0  0  0
   14.1820  -10.7262   20.9112 C   0  0  0  0  0  0  0  0  0  0  0  0
   13.6834  -12.0406   21.0723 C   0  0  0  0  0  0  0  0  0  0  0  0
   12.7585  -12.2710   22.0903 C   0  0  0  0  0  0  0  0  0  0  0  0
   12.3685  -11.2638   22.9454 C   0  0  0  0  0  0  0  0  0  0  0  0
   13.4092   -7.9536   24.1268 N   0  0  0  0  0  0  0  0  0  0  0  0
   12.5275   -8.9070   23.7133 C   0  0  0  0  0  0  0  0  0  0  0  0
   11.2735   -8.8598   24.2649 N   0  0  0  0  0  0  0  0  0  0  0  0
   13.1154   -7.2468   24.7459 H   0  0  0  0  0  0  0  0  0  0  0  0
   11.0339   -8.1304   24.8811 H   0  0  0  0  0  0  0  0  0  0  0  0
   10.6125   -9.5554   24.0448 H   0  0  0  0  0  0  0  0  0  0  0  0
   17.6774  -15.3323   22.7777 C   0  0  0  0  0  0  0  0  0  0  0  0
   19.0578  -14.7914   22.8965 C   0  0  0  0  0  0  0  0  0  0  0  0
   19.6356  -14.2611   21.7517 C   0  0  0  0  0  0  0  0  0  0  0  0
   20.9297  -13.7827   21.7163 C   0  0  0  0  0  0  0  0  0  0  0  0
   21.6429  -13.8823   22.9160 C   0  0  0  0  0  0  0  0  0  0  0  0
   22.9000  -13.4718   23.1316 O   0  0  0  0  0  0  0  0  0  0  0  0
   23.1652  -13.7724   24.5274 C   0  0  0  0  0  0  0  0  0  0  0  0
   21.9402  -14.3139   25.1248 O   0  0  0  0  0  0  0  0  0  0  0  0
   21.0909  -14.4162   24.0627 C   0  0  0  0  0  0  0  0  0  0  0  0
   19.7853  -14.8799   24.0881 C   0  0  0  0  0  0  0  0  0  0  0  0
 22 23  2  0  0  0
 23 24  1  0  0  0
 23 16  1  0  0  0
 16 17  2  0  0  0
 16 21  1  0  0  0
 17 18  1  0  0  0
 18 19  2  0  0  0
 19 20  1  0  0  0
 19  1  1  0  0  0
 20 21  2  0  0  0
  1  2  1  0  0  0
  1 12  1  0  0  0
  2  3  1  0  0  0
  2  6  1  0  0  0
  3  4  1  0  0  0
  4  5  1  0  0  0
  4 13  1  0  0  0
  5  6  1  0  0  0
  6  7  1  0  0  0
  7  8  1  0  0  0
  7 12  1  0  0  0
  8  9  1  0  0  0
  8 14  2  0  0  0
  9 10  1  0  0  0
  9 28  1  0  0  0
 10 11  2  0  0  0
 10 12  1  0  0  0
 28 29  1  0  0  0
 29 30  2  0  0  0
 29 37  1  0  0  0
 30 31  1  0  0  0
 31 32  2  0  0  0
 32 33  1  0  0  0
 32 36  1  0  0  0
 33 34  1  0  0  0
 34 35  1  0  0  0
 35 36  1  0  0  0
 36 37  2  0  0  0
 22 25  1  0  0  0
 24 26  1  0  0  0
 24 27  1  0  0  0
 13 15  1  0  0  0
M  END
> <minimizedAffinity>
-9.51473

$$$$
1VZQ_SHY_H_1256


 37 42  0  0  0  0  0  0  0  0999 V2000
   13.1178  -12.6970   20.4250 C   0  0  0  0  0  0  0  0  0  0  0  0
   14.0203  -13.7557   20.9547 N   0  0  0  0  0  0  0  0  0  0  0  0
   13.2672  -14.6577   21.8858 C   0  0  0  0  0  0  0  0  0  0  0  0
   13.1459  -16.0483   21.2301 C   0  0  0  0  0  0  0  0  0  0  0  0
   13.2544  -15.6851   19.7414 C   0  0  0  0  0  0  0  0  0  0  0  0
   14.2966  -14.5948   19.7491 C   0  0  0  0  0  0  0  0  0  0  0  0
   14.1720  -13.7272   18.4760 C   0  0  0  0  0  0  0  0  0  0  0  0
   15.5093  -13.4216   17.9189 C   0  0  0  0  0  0  0  0  0  0  0  0
   16.0125  -12.2120   18.3823 N   0  0  0  0  0  0  0  0  0  0  0  0
   15.0212  -11.5585   19.1567 C   0  0  0  0  0  0  0  0  0  0  0  0
   15.2312  -10.5032   19.7378 O   0  0  0  0  0  0  0  0  0  0  0  0
   13.7208  -12.3335   19.0572 C   0  0  0  0  0  0  0  0  0  0  0  0
   14.2609  -16.8947   21.5409 O   0  0  0  0  0  0  0  0  0  0  0  0
   16.2059  -14.1250   17.2012 O   0  0  0  0  0  0  0  0  0  0  0  0
   15.0839  -16.4566   21.2732 H   0  0  0  0  0  0  0  0  0  0  0  0
   12.4949   -9.4986   23.2834 C   0  0  0  0  0  0  0  0  0  0  0  0
   11.6239  -10.5759   23.2127 C   0  0  0  0  0  0  0  0  0  0  0  0
   11.8548  -11.6031   22.2947 C   0  0  0  0  0  0  0  0  0  0  0  0
   12.9737  -11.5649   21.4293 C   0  0  0  0  0  0  0  0  0  0  0  0
   13.8598  -10.4948   21.5499 C   0  0  0  0  0  0  0  0  0  0  0  0
   13.6373   -9.4786   22.4530 C   0  0  0  0  0  0  0  0  0  0  0  0
   13.2270   -7.6514   24.7276 N   0  0  0  0  0  0  0  0  0  0  0  0
   12.2331   -8.4284   24.2123 C   0  0  0  0  0  0  0  0  0  0  0  0
   10.9675   -8.1937   24.6835 N   0  0  0  0  0  0  0  0  0  0  0  0
   13.0093   -6.9290   25.3601 H   0  0  0  0  0  0  0  0  0  0  0  0
   10.8070   -7.4580   25.3177 H   0  0  0  0  0  0  0  0  0  0  0  0
   10.2191   -8.7607   24.3877 H   0  0  0  0  0  0  0  0  0  0  0  0
   17.3428  -11.6246   18.1730 C   0  0  0  0  0  0  0  0  0  0  0  0
   18.3913  -12.1100   19.1095 C   0  0  0  0  0  0  0  0  0  0  0  0
   19.7016  -12.1146   18.6528 C   0  0  0  0  0  0  0  0  0  0  0  0
   20.7563  -12.5953   19.4021 C   0  0  0  0  0  0  0  0  0  0  0  0
   20.4197  -13.1031   20.6617 C   0  0  0  0  0  0  0  0  0  0  0  0
   21.2668  -13.6046   21.5706 O   0  0  0  0  0  0  0  0  0  0  0  0
   20.4371  -13.9680   22.7057 C   0  0  0  0  0  0  0  0  0  0  0  0
   19.0567  -13.5651   22.4173 O   0  0  0  0  0  0  0  0  0  0  0  0
   19.1217  -13.1180   21.1306 C   0  0  0  0  0  0  0  0  0  0  0  0
   18.0740  -12.6190   20.3734 C   0  0  0  0  0  0  0  0  0  0  0  0
 22 23  2  0  0  0
 23 24  1  0  0  0
 23 16  1  0  0  0
 16 17  2  0  0  0
 16 21  1  0  0  0
 17 18  1  0  0  0
 18 19  2  0  0  0
 19 20  1  0  0  0
 19  1  1  0  0  0
 20 21  2  0  0  0
  1  2  1  0  0  0
  1 12  1  0  0  0
  2  3  1  0  0  0
  2  6  1  0  0  0
  3  4  1  0  0  0
  4  5  1  0  0  0
  4 13  1  0  0  0
  5  6  1  0  0  0
  6  7  1  0  0  0
  7  8  1  0  0  0
  7 12  1  0  0  0
  8  9  1  0  0  0
  8 14  2  0  0  0
  9 10  1  0  0  0
  9 28  1  0  0  0
 10 11  2  0  0  0
 10 12  1  0  0  0
 28 29  1  0  0  0
 29 30  2  0  0  0
 29 37  1  0  0  0
 30 31  1  0  0  0
 31 32  2  0  0  0
 32 33  1  0  0  0
 32 36  1  0  0  0
 33 34  1  0  0  0
 34 35  1  0  0  0
 35 36  1  0  0  0
 36 37  2  0  0  0
 22 25  1  0  0  0
 24 26  1  0  0  0
 24 27  1  0  0  0
 13 15  1  0  0  0
M  END
> <minimizedAffinity>
-9.39914

$$$$
1VZQ_SHY_H_1256


 37 42  0  0  0  0  0  0  0  0999 V2000
   15.4049  -16.0082   19.0479 C   0  0  0  0  0  0  0  0  0  0  0  0
   14.8245  -15.9526   20.4177 N   0  0  0  0  0  0  0  0  0  0  0  0
   14.6932  -17.3365   20.9791 C   0  0  0  0  0  0  0  0  0  0  0  0
   15.6879  -17.4879   22.1480 C   0  0  0  0  0  0  0  0  0  0  0  0
   16.7503  -16.4444   21.7708 C   0  0  0  0  0  0  0  0  0  0  0  0
   15.9149  -15.3168   21.2180 C   0  0  0  0  0  0  0  0  0  0  0  0
   16.7725  -14.4165   20.2998 C   0  0  0  0  0  0  0  0  0  0  0  0
   16.4773  -12.9867   20.5463 C   0  0  0  0  0  0  0  0  0  0  0  0
   15.5022  -12.4915   19.6889 N   0  0  0  0  0  0  0  0  0  0  0  0
   15.1735  -13.4836   18.7311 C   0  0  0  0  0  0  0  0  0  0  0  0
   14.2916  -13.3265   17.8986 O   0  0  0  0  0  0  0  0  0  0  0  0
   16.1224  -14.6573   18.8845 C   0  0  0  0  0  0  0  0  0  0  0  0
   15.1208  -17.0799   23.4003 O   0  0  0  0  0  0  0  0  0  0  0  0
   16.9202  -12.2668   21.4298 O   0  0  0  0  0  0  0  0  0  0  0  0
   14.8062  -16.1650   23.3300 H   0  0  0  0  0  0  0  0  0  0  0  0
   12.2156  -17.0147   16.2903 C   0  0  0  0  0  0  0  0  0  0  0  0
   11.9399  -16.6198   17.5911 C   0  0  0  0  0  0  0  0  0  0  0  0
   12.9838  -16.2840   18.4565 C   0  0  0  0  0  0  0  0  0  0  0  0
   14.3301  -16.3377   18.0244 C   0  0  0  0  0  0  0  0  0  0  0  0
   14.5800  -16.6938   16.6994 C   0  0  0  0  0  0  0  0  0  0  0  0
   13.5548  -17.0263   15.8414 C   0  0  0  0  0  0  0  0  0  0  0  0
    9.9049  -17.7411   15.8817 N   0  0  0  0  0  0  0  0  0  0  0  0
   11.1351  -17.3882   15.4132 C   0  0  0  0  0  0  0  0  0  0  0  0
   11.3228  -17.4816   14.0586 N   0  0  0  0  0  0  0  0  0  0  0  0
    9.1910  -17.9904   15.2513 H   0  0  0  0  0  0  0  0  0  0  0  0
   10.5731  -17.7382   13.4743 H   0  0  0  0  0  0  0  0  0  0  0  0
   12.2072  -17.2921   13.6699 H   0  0  0  0  0  0  0  0  0  0  0  0
   14.8451  -11.1776   19.6988 C   0  0  0  0  0  0  0  0  0  0  0  0
   13.9112  -10.9577   20.8353 C   0  0  0  0  0  0  0  0  0  0  0  0
   12.8888  -11.8799   21.0080 C   0  0  0  0  0  0  0  0  0  0  0  0
   11.9236  -11.7563   21.9869 C   0  0  0  0  0  0  0  0  0  0  0  0
   12.0266  -10.6192   22.7958 C   0  0  0  0  0  0  0  0  0  0  0  0
   11.2229  -10.2928   23.8169 O   0  0  0  0  0  0  0  0  0  0  0  0
   11.7592   -9.0497   24.3421 C   0  0  0  0  0  0  0  0  0  0  0  0
   12.9809   -8.7228   23.5996 O   0  0  0  0  0  0  0  0  0  0  0  0
   13.0289   -9.6844   22.6338 C   0  0  0  0  0  0  0  0  0  0  0  0
   14.0001   -9.8282   21.6559 C   0  0  0  0  0  0  0  0  0  0  0  0
 22 23  2  0  0  0
 23 24  1  0  0  0
 23 16  1  0  0  0
 16 17  2  0  0  0
 16 21  1  0  0  0
 17 18  1  0  0  0
 18 19  2  0  0  0
 19 20  1  0  0  0
 19  1  1  0  0  0
 20 21  2  0  0  0
  1  2  1  0  0  0
  1 12  1  0  0  0
  2  3  1  0  0  0
  2  6  1  0  0  0
  3  4  1  0  0  0
  4  5  1  0  0  0
  4 13  1  0  0  0
  5  6  1  0  0  0
  6  7  1  0  0  0
  7  8  1  0  0  0
  7 12  1  0  0  0
  8  9  1  0  0  0
  8 14  2  0  0  0
  9 10  1  0  0  0
  9 28  1  0  0  0
 10 11  2  0  0  0
 10 12  1  0  0  0
 28 29  1  0  0  0
 29 30  2  0  0  0
 29 37  1  0  0  0
 30 31  1  0  0  0
 31 32  2  0  0  0
 32 33  1  0  0  0
 32 36  1  0  0  0
 33 34  1  0  0  0
 34 35  1  0  0  0
 35 36  1  0  0  0
 36 37  2  0  0  0
 22 25  1  0  0  0
 24 26  1  0  0  0
 24 27  1  0  0  0
 13 15  1  0  0  0
M  END
> <minimizedAffinity>
-9.25810

$$$$
