6H5X_FT8_A_709


 30 32  0  0  0  0  0  0  0  0999 V2000
  -54.3589   96.2956   22.8874 C   0  0  0  0  0  0  0  0  0  0  0  0
  -51.9407   95.4623   23.1773 C   0  0  0  0  0  0  0  0  0  0  0  0
  -51.9974   96.0676   24.5734 C   0  0  0  0  0  0  0  0  0  0  0  0
  -51.6265   97.5487   24.6427 C   0  0  0  0  0  0  0  0  0  0  0  0
  -52.2579   98.3861   23.5339 C   0  0  0  0  0  0  0  0  0  0  0  0
  -55.5867   96.2177   21.9750 C   0  0  0  0  0  0  0  0  0  0  0  0
  -55.2311   96.2068   20.5515 C   0  0  0  0  0  0  0  0  0  0  0  0
  -54.3883   95.0530   20.1862 C   0  0  0  0  0  0  0  0  0  0  0  0
  -53.0787   95.0247   20.9712 C   0  0  0  0  0  0  0  0  0  0  0  0
  -53.1204   95.5875   22.3645 N   0  0  0  0  0  0  0  0  0  0  0  0
  -50.9944   94.9035   22.7513 O   0  0  0  0  0  0  0  0  0  0  0  0
  -54.0321   98.0703   23.2851 S   0  0  0  0  0  0  0  0  0  0  0  0
  -52.0173   95.8243   20.2562 C   0  0  0  0  0  0  0  0  0  0  0  0
  -51.0356   95.2496   19.6988 O   0  0  0  0  0  0  0  0  0  0  0  0
  -52.1136   97.0782   20.1931 O   0  0  0  0  0  0  0  0  0  0  0  0
  -50.9539   94.3171   19.7394 H   0  0  0  0  0  0  0  0  0  0  0  0
  -51.6535   94.0914   26.0025 C   0  0  0  0  0  0  0  0  0  0  0  0
  -51.1428   95.3262   25.4882 N   0  0  0  0  0  0  0  0  0  0  0  0
  -52.7244   93.6801   25.7064 O   0  0  0  0  0  0  0  0  0  0  0  0
  -50.2520   95.6592   25.7426 H   0  0  0  0  0  0  0  0  0  0  0  0
  -50.7838   93.3609   26.9958 C   0  0  0  0  0  0  0  0  0  0  0  0
  -51.9374   93.2062   28.3915 S   0  0  0  0  0  0  0  0  0  0  0  0
  -53.0772   92.5944   27.9718 H   0  0  0  0  0  0  0  0  0  0  0  0
  -50.3194   92.0345   26.4083 C   0  0  0  0  0  0  0  0  0  0  0  0
  -49.4003   91.2410   27.3411 C   0  0  0  0  0  0  0  0  0  0  0  0
  -49.7982   90.0206   27.8677 C   0  0  0  0  0  0  0  0  0  0  0  0
  -48.9453   89.3256   28.7143 C   0  0  0  0  0  0  0  0  0  0  0  0
  -47.7069   89.8520   29.0378 C   0  0  0  0  0  0  0  0  0  0  0  0
  -47.3154   91.0742   28.5143 C   0  0  0  0  0  0  0  0  0  0  0  0
  -48.1639   91.7684   27.6681 C   0  0  0  0  0  0  0  0  0  0  0  0
 15 13  2  0  0  0
  8  7  1  0  0  0
  8  9  1  0  0  0
  7  6  1  0  0  0
 13 14  1  0  0  0
 13  9  1  0  0  0
  9 10  1  0  0  0
  6  1  1  0  0  0
 10  1  1  0  0  0
 10  2  1  0  0  0
  1 12  1  0  0  0
 12  5  1  0  0  0
 11  2  2  0  0  0
  2  3  1  0  0  0
  5  4  1  0  0  0
  4  3  1  0  0  0
  3 18  1  0  0  0
 19 17  2  0  0  0
 18 17  1  0  0  0
 17 21  1  0  0  0
 24 21  1  0  0  0
 24 25  1  0  0  0
 21 22  1  0  0  0
 25 26  2  0  0  0
 25 30  1  0  0  0
 26 27  1  0  0  0
 30 29  2  0  0  0
 27 28  2  0  0  0
 29 28  1  0  0  0
 18 20  1  0  0  0
 14 16  1  0  0  0
 22 23  1  0  0  0
M  END
> <minimizedAffinity>
-10.11320

$$$$
6H5X_FT8_A_709


 30 32  0  0  0  0  0  0  0  0999 V2000
  -47.3653   99.8127   21.1956 C   0  0  0  0  0  0  0  0  0  0  0  0
  -48.8314   99.2263   23.2285 C   0  0  0  0  0  0  0  0  0  0  0  0
  -49.9973   99.1579   22.2514 C   0  0  0  0  0  0  0  0  0  0  0  0
  -50.6860  100.4960   21.9847 C   0  0  0  0  0  0  0  0  0  0  0  0
  -49.7104  101.6496   21.7687 C   0  0  0  0  0  0  0  0  0  0  0  0
  -45.9159   99.9928   20.7342 C   0  0  0  0  0  0  0  0  0  0  0  0
  -45.0775  100.6397   21.7498 C   0  0  0  0  0  0  0  0  0  0  0  0
  -45.0044   99.8646   23.0025 C   0  0  0  0  0  0  0  0  0  0  0  0
  -46.3802   99.6541   23.6308 C   0  0  0  0  0  0  0  0  0  0  0  0
  -47.5414   99.5507   22.6819 N   0  0  0  0  0  0  0  0  0  0  0  0
  -48.9416   99.0216   24.3841 O   0  0  0  0  0  0  0  0  0  0  0  0
  -48.3513  101.2663   20.6219 S   0  0  0  0  0  0  0  0  0  0  0  0
  -46.7231  100.8025   24.5476 C   0  0  0  0  0  0  0  0  0  0  0  0
  -46.7845  100.6370   25.8021 O   0  0  0  0  0  0  0  0  0  0  0  0
  -46.9331  101.9471   24.0666 O   0  0  0  0  0  0  0  0  0  0  0  0
  -46.6300   99.7897   26.1709 H   0  0  0  0  0  0  0  0  0  0  0  0
  -51.6540   97.4187   21.7071 C   0  0  0  0  0  0  0  0  0  0  0  0
  -50.9929   98.2002   22.7081 N   0  0  0  0  0  0  0  0  0  0  0  0
  -51.4126   97.5376   20.5532 O   0  0  0  0  0  0  0  0  0  0  0  0
  -51.2028   98.0941   23.6641 H   0  0  0  0  0  0  0  0  0  0  0  0
  -52.7262   96.4715   22.1868 C   0  0  0  0  0  0  0  0  0  0  0  0
  -51.7149   95.0287   22.6321 S   0  0  0  0  0  0  0  0  0  0  0  0
  -50.7540   95.4046   23.5181 H   0  0  0  0  0  0  0  0  0  0  0  0
  -53.4904   97.0920   23.3492 C   0  0  0  0  0  0  0  0  0  0  0  0
  -54.7130   97.9041   22.9130 C   0  0  0  0  0  0  0  0  0  0  0  0
  -55.6515   97.3701   22.0417 C   0  0  0  0  0  0  0  0  0  0  0  0
  -56.7478   98.1316   21.6603 C   0  0  0  0  0  0  0  0  0  0  0  0
  -56.8993   99.4205   22.1410 C   0  0  0  0  0  0  0  0  0  0  0  0
  -55.9566   99.9524   23.0067 C   0  0  0  0  0  0  0  0  0  0  0  0
  -54.8631   99.1939   23.3899 C   0  0  0  0  0  0  0  0  0  0  0  0
 15 13  2  0  0  0
  8  7  1  0  0  0
  8  9  1  0  0  0
  7  6  1  0  0  0
 13 14  1  0  0  0
 13  9  1  0  0  0
  9 10  1  0  0  0
  6  1  1  0  0  0
 10  1  1  0  0  0
 10  2  1  0  0  0
  1 12  1  0  0  0
 12  5  1  0  0  0
 11  2  2  0  0  0
  2  3  1  0  0  0
  5  4  1  0  0  0
  4  3  1  0  0  0
  3 18  1  0  0  0
 19 17  2  0  0  0
 18 17  1  0  0  0
 17 21  1  0  0  0
 24 21  1  0  0  0
 24 25  1  0  0  0
 21 22  1  0  0  0
 25 26  2  0  0  0
 25 30  1  0  0  0
 26 27  1  0  0  0
 30 29  2  0  0  0
 27 28  2  0  0  0
 29 28  1  0  0  0
 18 20  1  0  0  0
 14 16  1  0  0  0
 22 23  1  0  0  0
M  END
> <minimizedAffinity>
-9.53890

$$$$
6H5X_FT8_A_709


 30 32  0  0  0  0  0  0  0  0999 V2000
  -47.7338   99.9282   21.0919 C   0  0  0  0  0  0  0  0  0  0  0  0
  -48.9381   98.9021   23.1224 C   0  0  0  0  0  0  0  0  0  0  0  0
  -50.1028   98.6329   22.1790 C   0  0  0  0  0  0  0  0  0  0  0  0
  -51.0839   99.7949   22.0281 C   0  0  0  0  0  0  0  0  0  0  0  0
  -50.4009  101.1499   21.8639 C   0  0  0  0  0  0  0  0  0  0  0  0
  -46.3837  100.4586   20.6003 C   0  0  0  0  0  0  0  0  0  0  0  0
  -45.6653  101.2141   21.6327 C   0  0  0  0  0  0  0  0  0  0  0  0
  -45.3642  100.3999   22.8250 C   0  0  0  0  0  0  0  0  0  0  0  0
  -46.6284   99.8462   23.4787 C   0  0  0  0  0  0  0  0  0  0  0  0
  -47.7793   99.5421   22.5608 N   0  0  0  0  0  0  0  0  0  0  0  0
  -48.9472   98.6072   24.2636 O   0  0  0  0  0  0  0  0  0  0  0  0
  -49.0443  101.1544   20.6520 S   0  0  0  0  0  0  0  0  0  0  0  0
  -47.1767  100.8290   24.4840 C   0  0  0  0  0  0  0  0  0  0  0  0
  -47.0204  100.6428   25.7272 O   0  0  0  0  0  0  0  0  0  0  0  0
  -47.7816  101.8595   24.0870 O   0  0  0  0  0  0  0  0  0  0  0  0
  -46.5717   99.8795   26.0338 H   0  0  0  0  0  0  0  0  0  0  0  0
  -51.0821   96.4475   21.6039 C   0  0  0  0  0  0  0  0  0  0  0  0
  -50.8378   97.4490   22.5975 N   0  0  0  0  0  0  0  0  0  0  0  0
  -50.7098   96.5652   20.4853 O   0  0  0  0  0  0  0  0  0  0  0  0
  -51.1535   97.3413   23.5238 H   0  0  0  0  0  0  0  0  0  0  0  0
  -51.8962   95.2520   22.0342 C   0  0  0  0  0  0  0  0  0  0  0  0
  -52.4435   95.8013   23.6777 S   0  0  0  0  0  0  0  0  0  0  0  0
  -53.0792   96.9985   23.5672 H   0  0  0  0  0  0  0  0  0  0  0  0
  -53.0244   95.0029   21.0417 C   0  0  0  0  0  0  0  0  0  0  0  0
  -54.1615   96.0236   21.1398 C   0  0  0  0  0  0  0  0  0  0  0  0
  -54.1149   97.2155   20.4309 C   0  0  0  0  0  0  0  0  0  0  0  0
  -55.1585   98.1239   20.5430 C   0  0  0  0  0  0  0  0  0  0  0  0
  -56.2368   97.8452   21.3645 C   0  0  0  0  0  0  0  0  0  0  0  0
  -56.2770   96.6561   22.0754 C   0  0  0  0  0  0  0  0  0  0  0  0
  -55.2378   95.7475   21.9639 C   0  0  0  0  0  0  0  0  0  0  0  0
 15 13  2  0  0  0
  8  7  1  0  0  0
  8  9  1  0  0  0
  7  6  1  0  0  0
 13 14  1  0  0  0
 13  9  1  0  0  0
  9 10  1  0  0  0
  6  1  1  0  0  0
 10  1  1  0  0  0
 10  2  1  0  0  0
  1 12  1  0  0  0
 12  5  1  0  0  0
 11  2  2  0  0  0
  2  3  1  0  0  0
  5  4  1  0  0  0
  4  3  1  0  0  0
  3 18  1  0  0  0
 19 17  2  0  0  0
 18 17  1  0  0  0
 17 21  1  0  0  0
 24 21  1  0  0  0
 24 25  1  0  0  0
 21 22  1  0  0  0
 25 26  2  0  0  0
 25 30  1  0  0  0
 26 27  1  0  0  0
 30 29  2  0  0  0
 27 28  2  0  0  0
 29 28  1  0  0  0
 18 20  1  0  0  0
 14 16  1  0  0  0
 22 23  1  0  0  0
M  END
> <minimizedAffinity>
-9.43201

$$$$
6H5X_FT8_A_709


 30 32  0  0  0  0  0  0  0  0999 V2000
  -54.0458   98.8544   18.8401 C   0  0  0  0  0  0  0  0  0  0  0  0
  -52.6417  100.2541   20.4818 C   0  0  0  0  0  0  0  0  0  0  0  0
  -51.6600   99.0901   20.4904 C   0  0  0  0  0  0  0  0  0  0  0  0
  -51.9794   97.9931   21.5056 C   0  0  0  0  0  0  0  0  0  0  0  0
  -53.4566   97.6113   21.5437 C   0  0  0  0  0  0  0  0  0  0  0  0
  -55.2494   98.9075   17.8942 C   0  0  0  0  0  0  0  0  0  0  0  0
  -56.3534   99.7105   18.4317 C   0  0  0  0  0  0  0  0  0  0  0  0
  -55.9701  101.1147   18.6693 C   0  0  0  0  0  0  0  0  0  0  0  0
  -54.8112  101.2364   19.6562 C   0  0  0  0  0  0  0  0  0  0  0  0
  -53.8119  100.1135   19.6579 N   0  0  0  0  0  0  0  0  0  0  0  0
  -52.4798  101.2429   21.1027 O   0  0  0  0  0  0  0  0  0  0  0  0
  -54.1975   97.3505   19.9029 S   0  0  0  0  0  0  0  0  0  0  0  0
  -55.3284  101.3042   21.0721 C   0  0  0  0  0  0  0  0  0  0  0  0
  -55.1973  102.3582   21.7625 O   0  0  0  0  0  0  0  0  0  0  0  0
  -55.9161  100.3094   21.5727 O   0  0  0  0  0  0  0  0  0  0  0  0
  -54.7617  103.1044   21.4001 H   0  0  0  0  0  0  0  0  0  0  0  0
  -49.4576   99.7077   19.5774 C   0  0  0  0  0  0  0  0  0  0  0  0
  -50.3045   99.5649   20.7230 N   0  0  0  0  0  0  0  0  0  0  0  0
  -49.8302   99.4519   18.4822 O   0  0  0  0  0  0  0  0  0  0  0  0
  -49.9836   99.7788   21.6288 H   0  0  0  0  0  0  0  0  0  0  0  0
  -48.0365  100.1438   19.8368 C   0  0  0  0  0  0  0  0  0  0  0  0
  -47.9552  101.6333   18.7988 S   0  0  0  0  0  0  0  0  0  0  0  0
  -48.9566  102.4845   19.1482 H   0  0  0  0  0  0  0  0  0  0  0  0
  -47.8303  100.3969   21.3245 C   0  0  0  0  0  0  0  0  0  0  0  0
  -46.4931   99.8717   21.8545 C   0  0  0  0  0  0  0  0  0  0  0  0
  -46.0224  100.2485   23.1041 C   0  0  0  0  0  0  0  0  0  0  0  0
  -44.8043   99.7598   23.5565 C   0  0  0  0  0  0  0  0  0  0  0  0
  -44.0593   98.9071   22.7608 C   0  0  0  0  0  0  0  0  0  0  0  0
  -44.5303   98.5376   21.5107 C   0  0  0  0  0  0  0  0  0  0  0  0
  -45.7460   99.0225   21.0581 C   0  0  0  0  0  0  0  0  0  0  0  0
 15 13  2  0  0  0
  8  7  1  0  0  0
  8  9  1  0  0  0
  7  6  1  0  0  0
 13 14  1  0  0  0
 13  9  1  0  0  0
  9 10  1  0  0  0
  6  1  1  0  0  0
 10  1  1  0  0  0
 10  2  1  0  0  0
  1 12  1  0  0  0
 12  5  1  0  0  0
 11  2  2  0  0  0
  2  3  1  0  0  0
  5  4  1  0  0  0
  4  3  1  0  0  0
  3 18  1  0  0  0
 19 17  2  0  0  0
 18 17  1  0  0  0
 17 21  1  0  0  0
 24 21  1  0  0  0
 24 25  1  0  0  0
 21 22  1  0  0  0
 25 26  2  0  0  0
 25 30  1  0  0  0
 26 27  1  0  0  0
 30 29  2  0  0  0
 27 28  2  0  0  0
 29 28  1  0  0  0
 18 20  1  0  0  0
 14 16  1  0  0  0
 22 23  1  0  0  0
M  END
> <minimizedAffinity>
-9.25748

$$$$
6H5X_FT8_A_709


 30 32  0  0  0  0  0  0  0  0999 V2000
  -49.4762  101.3273   21.7294 C   0  0  0  0  0  0  0  0  0  0  0  0
  -51.0884   99.4687   20.9727 C   0  0  0  0  0  0  0  0  0  0  0  0
  -51.8269   99.7029   22.2837 C   0  0  0  0  0  0  0  0  0  0  0  0
  -51.2804   98.9150   23.4738 C   0  0  0  0  0  0  0  0  0  0  0  0
  -49.7568   98.9270   23.5630 C   0  0  0  0  0  0  0  0  0  0  0  0
  -48.3260  102.2245   21.2625 C   0  0  0  0  0  0  0  0  0  0  0  0
  -47.3862  101.5228   20.3809 C   0  0  0  0  0  0  0  0  0  0  0  0
  -48.0279  101.0234   19.1505 C   0  0  0  0  0  0  0  0  0  0  0  0
  -49.1672  100.0513   19.4487 C   0  0  0  0  0  0  0  0  0  0  0  0
  -49.9310  100.2845   20.7221 N   0  0  0  0  0  0  0  0  0  0  0  0
  -51.4246   98.6704   20.1733 O   0  0  0  0  0  0  0  0  0  0  0  0
  -49.0148  100.5745   23.3526 S   0  0  0  0  0  0  0  0  0  0  0  0
  -48.6425   98.6406   19.5580 C   0  0  0  0  0  0  0  0  0  0  0  0
  -49.0189   97.7423   18.7480 O   0  0  0  0  0  0  0  0  0  0  0  0
  -47.8046   98.3515   20.4523 O   0  0  0  0  0  0  0  0  0  0  0  0
  -49.6421   97.9463   18.0786 H   0  0  0  0  0  0  0  0  0  0  0  0
  -54.0601  100.4102   21.5232 C   0  0  0  0  0  0  0  0  0  0  0  0
  -53.2432   99.4054   22.1340 N   0  0  0  0  0  0  0  0  0  0  0  0
  -53.6161  101.4444   21.1531 O   0  0  0  0  0  0  0  0  0  0  0  0
  -53.6233   98.5501   22.4394 H   0  0  0  0  0  0  0  0  0  0  0  0
  -55.5368  100.1152   21.4270 C   0  0  0  0  0  0  0  0  0  0  0  0
  -56.2086  101.8037   21.4076 S   0  0  0  0  0  0  0  0  0  0  0  0
  -55.6328  102.5091   20.3975 H   0  0  0  0  0  0  0  0  0  0  0  0
  -55.8274   99.3037   20.1712 C   0  0  0  0  0  0  0  0  0  0  0  0
  -55.4659   97.8218   20.3036 C   0  0  0  0  0  0  0  0  0  0  0  0
  -55.9919   97.0467   21.3272 C   0  0  0  0  0  0  0  0  0  0  0  0
  -55.6426   95.7067   21.4247 C   0  0  0  0  0  0  0  0  0  0  0  0
  -54.7671   95.1488   20.5095 C   0  0  0  0  0  0  0  0  0  0  0  0
  -54.2393   95.9277   19.4918 C   0  0  0  0  0  0  0  0  0  0  0  0
  -54.5877   97.2643   19.3916 C   0  0  0  0  0  0  0  0  0  0  0  0
 15 13  2  0  0  0
  8  7  1  0  0  0
  8  9  1  0  0  0
  7  6  1  0  0  0
 13 14  1  0  0  0
 13  9  1  0  0  0
  9 10  1  0  0  0
  6  1  1  0  0  0
 10  1  1  0  0  0
 10  2  1  0  0  0
  1 12  1  0  0  0
 12  5  1  0  0  0
 11  2  2  0  0  0
  2  3  1  0  0  0
  5  4  1  0  0  0
  4  3  1  0  0  0
  3 18  1  0  0  0
 19 17  2  0  0  0
 18 17  1  0  0  0
 17 21  1  0  0  0
 24 21  1  0  0  0
 24 25  1  0  0  0
 21 22  1  0  0  0
 25 26  2  0  0  0
 25 30  1  0  0  0
 26 27  1  0  0  0
 30 29  2  0  0  0
 27 28  2  0  0  0
 29 28  1  0  0  0
 18 20  1  0  0  0
 14 16  1  0  0  0
 22 23  1  0  0  0
M  END
> <minimizedAffinity>
-8.99516

$$$$
6H5X_FT8_A_709


 30 32  0  0  0  0  0  0  0  0999 V2000
  -48.5029   99.5171   20.5550 C   0  0  0  0  0  0  0  0  0  0  0  0
  -50.6324   99.9502   21.9348 C   0  0  0  0  0  0  0  0  0  0  0  0
  -51.3847   99.9219   20.6112 C   0  0  0  0  0  0  0  0  0  0  0  0
  -51.4380  101.2620   19.8783 C   0  0  0  0  0  0  0  0  0  0  0  0
  -50.1022  102.0001   19.8629 C   0  0  0  0  0  0  0  0  0  0  0  0
  -47.0169   99.1624   20.6635 C   0  0  0  0  0  0  0  0  0  0  0  0
  -46.3615   99.8219   21.7984 C   0  0  0  0  0  0  0  0  0  0  0  0
  -46.9573   99.4461   23.0941 C   0  0  0  0  0  0  0  0  0  0  0  0
  -48.4407   99.8006   23.1706 C   0  0  0  0  0  0  0  0  0  0  0  0
  -49.2099   99.7468   21.8802 N   0  0  0  0  0  0  0  0  0  0  0  0
  -51.1587  100.1208   22.9756 O   0  0  0  0  0  0  0  0  0  0  0  0
  -48.6832  100.9559   19.4097 S   0  0  0  0  0  0  0  0  0  0  0  0
  -48.6209  101.2107   23.6769 C   0  0  0  0  0  0  0  0  0  0  0  0
  -49.0872  101.4315   24.8338 O   0  0  0  0  0  0  0  0  0  0  0  0
  -48.2872  102.1843   22.9514 O   0  0  0  0  0  0  0  0  0  0  0  0
  -49.3388  100.7146   25.3822 H   0  0  0  0  0  0  0  0  0  0  0  0
  -53.4317   98.9478   19.6486 C   0  0  0  0  0  0  0  0  0  0  0  0
  -52.7431   99.4379   20.8043 N   0  0  0  0  0  0  0  0  0  0  0  0
  -52.9303   98.9329   18.5752 O   0  0  0  0  0  0  0  0  0  0  0  0
  -53.1703   99.4471   21.6912 H   0  0  0  0  0  0  0  0  0  0  0  0
  -54.8598   98.5038   19.8495 C   0  0  0  0  0  0  0  0  0  0  0  0
  -55.6993   99.5215   18.5996 S   0  0  0  0  0  0  0  0  0  0  0  0
  -55.1304   99.3062   17.3832 H   0  0  0  0  0  0  0  0  0  0  0  0
  -54.9770   97.0018   19.6258 C   0  0  0  0  0  0  0  0  0  0  0  0
  -54.0496   96.1759   20.5216 C   0  0  0  0  0  0  0  0  0  0  0  0
  -53.1803   95.2400   19.9800 C   0  0  0  0  0  0  0  0  0  0  0  0
  -52.3542   94.5027   20.8173 C   0  0  0  0  0  0  0  0  0  0  0  0
  -52.4038   94.6949   22.1869 C   0  0  0  0  0  0  0  0  0  0  0  0
  -53.2776   95.6267   22.7247 C   0  0  0  0  0  0  0  0  0  0  0  0
  -54.1014   96.3647   21.8911 C   0  0  0  0  0  0  0  0  0  0  0  0
 15 13  2  0  0  0
  8  7  1  0  0  0
  8  9  1  0  0  0
  7  6  1  0  0  0
 13 14  1  0  0  0
 13  9  1  0  0  0
  9 10  1  0  0  0
  6  1  1  0  0  0
 10  1  1  0  0  0
 10  2  1  0  0  0
  1 12  1  0  0  0
 12  5  1  0  0  0
 11  2  2  0  0  0
  2  3  1  0  0  0
  5  4  1  0  0  0
  4  3  1  0  0  0
  3 18  1  0  0  0
 19 17  2  0  0  0
 18 17  1  0  0  0
 17 21  1  0  0  0
 24 21  1  0  0  0
 24 25  1  0  0  0
 21 22  1  0  0  0
 25 26  2  0  0  0
 25 30  1  0  0  0
 26 27  1  0  0  0
 30 29  2  0  0  0
 27 28  2  0  0  0
 29 28  1  0  0  0
 18 20  1  0  0  0
 14 16  1  0  0  0
 22 23  1  0  0  0
M  END
> <minimizedAffinity>
-8.91414

$$$$
6H5X_FT8_A_709


 30 32  0  0  0  0  0  0  0  0999 V2000
  -53.5692   96.8580   21.6882 C   0  0  0  0  0  0  0  0  0  0  0  0
  -52.4598   99.1721   21.8891 C   0  0  0  0  0  0  0  0  0  0  0  0
  -51.1943   98.4279   22.2934 C   0  0  0  0  0  0  0  0  0  0  0  0
  -51.0890   98.1108   23.7848 C   0  0  0  0  0  0  0  0  0  0  0  0
  -52.3874   97.5808   24.3869 C   0  0  0  0  0  0  0  0  0  0  0  0
  -54.8270   96.1344   21.1980 C   0  0  0  0  0  0  0  0  0  0  0  0
  -56.0533   96.8967   21.4582 C   0  0  0  0  0  0  0  0  0  0  0  0
  -56.0592   98.2086   20.7844 C   0  0  0  0  0  0  0  0  0  0  0  0
  -54.8891   99.0866   21.2225 C   0  0  0  0  0  0  0  0  0  0  0  0
  -53.6190   98.3737   21.5944 N   0  0  0  0  0  0  0  0  0  0  0  0
  -52.5218  100.3460   21.8037 O   0  0  0  0  0  0  0  0  0  0  0  0
  -53.1846   96.2772   23.3996 S   0  0  0  0  0  0  0  0  0  0  0  0
  -55.2608   99.8903   22.4444 C   0  0  0  0  0  0  0  0  0  0  0  0
  -55.4898  101.1334   22.3600 O   0  0  0  0  0  0  0  0  0  0  0  0
  -55.3650   99.3195   23.5619 O   0  0  0  0  0  0  0  0  0  0  0  0
  -55.4152  101.5685   21.5335 H   0  0  0  0  0  0  0  0  0  0  0  0
  -49.4394   98.8422   20.6157 C   0  0  0  0  0  0  0  0  0  0  0  0
  -50.0112   99.1707   21.8866 N   0  0  0  0  0  0  0  0  0  0  0  0
  -49.8977   98.0028   19.9163 O   0  0  0  0  0  0  0  0  0  0  0  0
  -49.6208   99.8690   22.4603 H   0  0  0  0  0  0  0  0  0  0  0  0
  -48.1790   99.5770   20.2306 C   0  0  0  0  0  0  0  0  0  0  0  0
  -48.8278  100.6958   18.9539 S   0  0  0  0  0  0  0  0  0  0  0  0
  -49.8567  101.4217   19.4677 H   0  0  0  0  0  0  0  0  0  0  0  0
  -47.5901  100.2787   21.4474 C   0  0  0  0  0  0  0  0  0  0  0  0
  -46.2379   99.7099   21.8864 C   0  0  0  0  0  0  0  0  0  0  0  0
  -45.6100   98.7135   21.1529 C   0  0  0  0  0  0  0  0  0  0  0  0
  -44.3864   98.2139   21.5777 C   0  0  0  0  0  0  0  0  0  0  0  0
  -43.7998   98.7020   22.7322 C   0  0  0  0  0  0  0  0  0  0  0  0
  -44.4330   99.6934   23.4652 C   0  0  0  0  0  0  0  0  0  0  0  0
  -45.6528  100.1946   23.0424 C   0  0  0  0  0  0  0  0  0  0  0  0
 15 13  2  0  0  0
  8  7  1  0  0  0
  8  9  1  0  0  0
  7  6  1  0  0  0
 13 14  1  0  0  0
 13  9  1  0  0  0
  9 10  1  0  0  0
  6  1  1  0  0  0
 10  1  1  0  0  0
 10  2  1  0  0  0
  1 12  1  0  0  0
 12  5  1  0  0  0
 11  2  2  0  0  0
  2  3  1  0  0  0
  5  4  1  0  0  0
  4  3  1  0  0  0
  3 18  1  0  0  0
 19 17  2  0  0  0
 18 17  1  0  0  0
 17 21  1  0  0  0
 24 21  1  0  0  0
 24 25  1  0  0  0
 21 22  1  0  0  0
 25 26  2  0  0  0
 25 30  1  0  0  0
 26 27  1  0  0  0
 30 29  2  0  0  0
 27 28  2  0  0  0
 29 28  1  0  0  0
 18 20  1  0  0  0
 14 16  1  0  0  0
 22 23  1  0  0  0
M  END
> <minimizedAffinity>
-8.75900

$$$$
6H5X_FT8_A_709


 30 32  0  0  0  0  0  0  0  0999 V2000
  -47.4418  100.1723   20.9772 C   0  0  0  0  0  0  0  0  0  0  0  0
  -49.4058   99.9946   22.6317 C   0  0  0  0  0  0  0  0  0  0  0  0
  -50.3174  100.0647   21.4140 C   0  0  0  0  0  0  0  0  0  0  0  0
  -50.6672  101.4813   20.9591 C   0  0  0  0  0  0  0  0  0  0  0  0
  -49.4700  102.4278   20.9430 C   0  0  0  0  0  0  0  0  0  0  0  0
  -45.9187  100.0626   20.8584 C   0  0  0  0  0  0  0  0  0  0  0  0
  -45.2211  100.6208   22.0221 C   0  0  0  0  0  0  0  0  0  0  0  0
  -45.5740   99.9335   23.2784 C   0  0  0  0  0  0  0  0  0  0  0  0
  -47.0695  100.0120   23.5775 C   0  0  0  0  0  0  0  0  0  0  0  0
  -47.9894  100.0487   22.3892 N   0  0  0  0  0  0  0  0  0  0  0  0
  -49.8060   99.8930   23.7357 O   0  0  0  0  0  0  0  0  0  0  0  0
  -47.9864  101.7332   20.1519 S   0  0  0  0  0  0  0  0  0  0  0  0
  -47.3866  101.2634   24.3587 C   0  0  0  0  0  0  0  0  0  0  0  0
  -47.7670  101.1978   25.5653 O   0  0  0  0  0  0  0  0  0  0  0  0
  -47.2547  102.3916   23.8152 O   0  0  0  0  0  0  0  0  0  0  0  0
  -47.8686  100.3636   25.9798 H   0  0  0  0  0  0  0  0  0  0  0  0
  -51.6885   98.0587   21.0119 C   0  0  0  0  0  0  0  0  0  0  0  0
  -51.5505   99.3308   21.6543 N   0  0  0  0  0  0  0  0  0  0  0  0
  -50.8445   97.6118   20.3107 O   0  0  0  0  0  0  0  0  0  0  0  0
  -52.2592   99.6932   22.2336 H   0  0  0  0  0  0  0  0  0  0  0  0
  -52.9952   97.3336   21.2204 C   0  0  0  0  0  0  0  0  0  0  0  0
  -52.5905   96.3427   22.6890 S   0  0  0  0  0  0  0  0  0  0  0  0
  -52.1511   97.1619   23.6817 H   0  0  0  0  0  0  0  0  0  0  0  0
  -54.1232   98.3366   21.4246 C   0  0  0  0  0  0  0  0  0  0  0  0
  -54.8085   98.7595   20.1223 C   0  0  0  0  0  0  0  0  0  0  0  0
  -54.6193   98.0422   18.9498 C   0  0  0  0  0  0  0  0  0  0  0  0
  -55.2502   98.4519   17.7831 C   0  0  0  0  0  0  0  0  0  0  0  0
  -56.0579   99.5758   17.7881 C   0  0  0  0  0  0  0  0  0  0  0  0
  -56.2398  100.2930   18.9601 C   0  0  0  0  0  0  0  0  0  0  0  0
  -55.6128   99.8850   20.1256 C   0  0  0  0  0  0  0  0  0  0  0  0
 15 13  2  0  0  0
  8  7  1  0  0  0
  8  9  1  0  0  0
  7  6  1  0  0  0
 13 14  1  0  0  0
 13  9  1  0  0  0
  9 10  1  0  0  0
  6  1  1  0  0  0
 10  1  1  0  0  0
 10  2  1  0  0  0
  1 12  1  0  0  0
 12  5  1  0  0  0
 11  2  2  0  0  0
  2  3  1  0  0  0
  5  4  1  0  0  0
  4  3  1  0  0  0
  3 18  1  0  0  0
 19 17  2  0  0  0
 18 17  1  0  0  0
 17 21  1  0  0  0
 24 21  1  0  0  0
 24 25  1  0  0  0
 21 22  1  0  0  0
 25 26  2  0  0  0
 25 30  1  0  0  0
 26 27  1  0  0  0
 30 29  2  0  0  0
 27 28  2  0  0  0
 29 28  1  0  0  0
 18 20  1  0  0  0
 14 16  1  0  0  0
 22 23  1  0  0  0
M  END
> <minimizedAffinity>
-8.74383

$$$$
6H5X_FT8_A_709


 30 32  0  0  0  0  0  0  0  0999 V2000
  -51.6773   90.6130   27.2175 C   0  0  0  0  0  0  0  0  0  0  0  0
  -52.1399   93.0668   27.8425 C   0  0  0  0  0  0  0  0  0  0  0  0
  -51.2268   93.4381   26.6818 C   0  0  0  0  0  0  0  0  0  0  0  0
  -49.7406   93.4996   27.0331 C   0  0  0  0  0  0  0  0  0  0  0  0
  -49.2708   92.3310   27.8950 C   0  0  0  0  0  0  0  0  0  0  0  0
  -52.1096   89.1698   27.4939 C   0  0  0  0  0  0  0  0  0  0  0  0
  -52.4226   88.9364   28.9081 C   0  0  0  0  0  0  0  0  0  0  0  0
  -53.5284   89.7840   29.3917 C   0  0  0  0  0  0  0  0  0  0  0  0
  -53.2200   91.2724   29.2449 C   0  0  0  0  0  0  0  0  0  0  0  0
  -52.3470   91.6647   28.0858 N   0  0  0  0  0  0  0  0  0  0  0  0
  -52.6750   93.8637   28.5265 O   0  0  0  0  0  0  0  0  0  0  0  0
  -49.8340   90.7036   27.3086 S   0  0  0  0  0  0  0  0  0  0  0  0
  -52.5022   91.7859   30.4689 C   0  0  0  0  0  0  0  0  0  0  0  0
  -51.2395   91.8868   30.4876 O   0  0  0  0  0  0  0  0  0  0  0  0
  -53.1631   92.1386   31.4810 O   0  0  0  0  0  0  0  0  0  0  0  0
  -50.7377   91.6273   29.7401 H   0  0  0  0  0  0  0  0  0  0  0  0
  -51.6713   94.7948   24.6750 C   0  0  0  0  0  0  0  0  0  0  0  0
  -51.6258   94.7122   26.1036 N   0  0  0  0  0  0  0  0  0  0  0  0
  -51.3967   93.8744   23.9813 O   0  0  0  0  0  0  0  0  0  0  0  0
  -51.8545   95.4842   26.6702 H   0  0  0  0  0  0  0  0  0  0  0  0
  -52.0287   96.1373   24.0859 C   0  0  0  0  0  0  0  0  0  0  0  0
  -50.9080   97.2169   25.0245 S   0  0  0  0  0  0  0  0  0  0  0  0
  -49.6289   96.7779   24.8800 H   0  0  0  0  0  0  0  0  0  0  0  0
  -51.7880   96.1293   22.5819 C   0  0  0  0  0  0  0  0  0  0  0  0
  -53.0459   95.8270   21.7629 C   0  0  0  0  0  0  0  0  0  0  0  0
  -52.9655   95.1547   20.5518 C   0  0  0  0  0  0  0  0  0  0  0  0
  -54.1226   94.8985   19.8290 C   0  0  0  0  0  0  0  0  0  0  0  0
  -55.3500   95.3190   20.3108 C   0  0  0  0  0  0  0  0  0  0  0  0
  -55.4255   95.9953   21.5182 C   0  0  0  0  0  0  0  0  0  0  0  0
  -54.2727   96.2505   22.2419 C   0  0  0  0  0  0  0  0  0  0  0  0
 15 13  2  0  0  0
  8  7  1  0  0  0
  8  9  1  0  0  0
  7  6  1  0  0  0
 13 14  1  0  0  0
 13  9  1  0  0  0
  9 10  1  0  0  0
  6  1  1  0  0  0
 10  1  1  0  0  0
 10  2  1  0  0  0
  1 12  1  0  0  0
 12  5  1  0  0  0
 11  2  2  0  0  0
  2  3  1  0  0  0
  5  4  1  0  0  0
  4  3  1  0  0  0
  3 18  1  0  0  0
 19 17  2  0  0  0
 18 17  1  0  0  0
 17 21  1  0  0  0
 24 21  1  0  0  0
 24 25  1  0  0  0
 21 22  1  0  0  0
 25 26  2  0  0  0
 25 30  1  0  0  0
 26 27  1  0  0  0
 30 29  2  0  0  0
 27 28  2  0  0  0
 29 28  1  0  0  0
 18 20  1  0  0  0
 14 16  1  0  0  0
 22 23  1  0  0  0
M  END
> <minimizedAffinity>
-8.51187

$$$$
6H5X_FT8_A_709


 30 32  0  0  0  0  0  0  0  0999 V2000
  -54.9476   99.0188   19.6941 C   0  0  0  0  0  0  0  0  0  0  0  0
  -53.8855   99.1011   22.0374 C   0  0  0  0  0  0  0  0  0  0  0  0
  -52.7580   98.2594   21.4549 C   0  0  0  0  0  0  0  0  0  0  0  0
  -53.0059   96.7516   21.4849 C   0  0  0  0  0  0  0  0  0  0  0  0
  -54.4153   96.3584   21.0510 C   0  0  0  0  0  0  0  0  0  0  0  0
  -56.0664   99.6060   18.8284 C   0  0  0  0  0  0  0  0  0  0  0  0
  -57.3096   99.8139   19.5792 C   0  0  0  0  0  0  0  0  0  0  0  0
  -57.1422  100.7515   20.7053 C   0  0  0  0  0  0  0  0  0  0  0  0
  -56.0946  100.2687   21.7059 C   0  0  0  0  0  0  0  0  0  0  0  0
  -54.9548   99.4638   21.1469 N   0  0  0  0  0  0  0  0  0  0  0  0
  -53.9109   99.4632   23.1588 O   0  0  0  0  0  0  0  0  0  0  0  0
  -54.9782   97.1787   19.5280 S   0  0  0  0  0  0  0  0  0  0  0  0
  -56.7293   99.3802   22.7474 C   0  0  0  0  0  0  0  0  0  0  0  0
  -56.7505   98.1218   22.6030 O   0  0  0  0  0  0  0  0  0  0  0  0
  -57.2291   99.8893   23.7849 O   0  0  0  0  0  0  0  0  0  0  0  0
  -56.3815   97.7321   21.8349 H   0  0  0  0  0  0  0  0  0  0  0  0
  -50.6732   99.5653   21.5738 C   0  0  0  0  0  0  0  0  0  0  0  0
  -51.5034   98.5427   22.1351 N   0  0  0  0  0  0  0  0  0  0  0  0
  -50.9808  100.1615   20.5972 O   0  0  0  0  0  0  0  0  0  0  0  0
  -51.2369   98.0524   22.9461 H   0  0  0  0  0  0  0  0  0  0  0  0
  -49.3480   99.8094   22.2528 C   0  0  0  0  0  0  0  0  0  0  0  0
  -49.7782   99.3999   23.9703 S   0  0  0  0  0  0  0  0  0  0  0  0
  -50.2978   98.1441   24.0203 H   0  0  0  0  0  0  0  0  0  0  0  0
  -48.2744   98.9197   21.6397 C   0  0  0  0  0  0  0  0  0  0  0  0
  -46.8913   99.5749   21.5919 C   0  0  0  0  0  0  0  0  0  0  0  0
  -46.4599  100.2513   20.4598 C   0  0  0  0  0  0  0  0  0  0  0  0
  -45.1989  100.8316   20.4439 C   0  0  0  0  0  0  0  0  0  0  0  0
  -44.3729  100.7288   21.5495 C   0  0  0  0  0  0  0  0  0  0  0  0
  -44.8052  100.0474   22.6764 C   0  0  0  0  0  0  0  0  0  0  0  0
  -46.0635   99.4691   22.6952 C   0  0  0  0  0  0  0  0  0  0  0  0
 15 13  2  0  0  0
  8  7  1  0  0  0
  8  9  1  0  0  0
  7  6  1  0  0  0
 13 14  1  0  0  0
 13  9  1  0  0  0
  9 10  1  0  0  0
  6  1  1  0  0  0
 10  1  1  0  0  0
 10  2  1  0  0  0
  1 12  1  0  0  0
 12  5  1  0  0  0
 11  2  2  0  0  0
  2  3  1  0  0  0
  5  4  1  0  0  0
  4  3  1  0  0  0
  3 18  1  0  0  0
 19 17  2  0  0  0
 18 17  1  0  0  0
 17 21  1  0  0  0
 24 21  1  0  0  0
 24 25  1  0  0  0
 21 22  1  0  0  0
 25 26  2  0  0  0
 25 30  1  0  0  0
 26 27  1  0  0  0
 30 29  2  0  0  0
 27 28  2  0  0  0
 29 28  1  0  0  0
 18 20  1  0  0  0
 14 16  1  0  0  0
 22 23  1  0  0  0
M  END
> <minimizedAffinity>
-8.46092

$$$$
