6DH1_K13_A_102


 43 46  0  0  0  0  0  0  0  0999 V2000
  122.7178   55.7159   18.2090 C   0  0  0  0  0  0  0  0  0  0  0  0
  123.1472   54.7766   19.1566 O   0  0  0  0  0  0  0  0  0  0  0  0
  123.4759   53.9855   18.7017 H   0  0  0  0  0  0  0  0  0  0  0  0
  121.5874   55.1180   17.3703 C   0  0  0  0  0  0  0  0  0  0  0  0
  120.7546   56.1757   16.8237 N   0  0  0  0  0  0  0  0  0  0  0  0
  120.4390   56.0462   15.1502 S   0  0  0  0  0  0  0  0  0  0  0  0
  121.5249   56.6026   14.3414 O   0  0  0  0  0  0  0  0  0  0  0  0
  119.2881   56.8503   14.7418 O   0  0  0  0  0  0  0  0  0  0  0  0
  119.8236   49.8772   14.1429 N   0  0  0  0  0  0  0  0  0  0  0  0
  119.9448   51.2974   14.3864 C   0  0  0  0  0  0  0  0  0  0  0  0
  121.1835   52.0337   13.9051 C   0  0  0  0  0  0  0  0  0  0  0  0
  121.3301   53.5239   14.1462 C   0  0  0  0  0  0  0  0  0  0  0  0
  120.2205   54.2787   14.8619 C   0  0  0  0  0  0  0  0  0  0  0  0
  118.9779   53.5530   15.3573 C   0  0  0  0  0  0  0  0  0  0  0  0
  118.8411   52.0587   15.1108 C   0  0  0  0  0  0  0  0  0  0  0  0
  120.5426   49.3950   13.6740 H   0  0  0  0  0  0  0  0  0  0  0  0
  119.0221   49.3924   14.4460 H   0  0  0  0  0  0  0  0  0  0  0  0
  119.5991   56.5894   17.6068 C   0  0  0  0  0  0  0  0  0  0  0  0
  119.5124   58.1050   17.7536 C   0  0  0  0  0  0  0  0  0  0  0  0
  118.3829   58.4683   18.7168 C   0  0  0  0  0  0  0  0  0  0  0  0
  120.8606   58.6247   18.2673 C   0  0  0  0  0  0  0  0  0  0  0  0
  120.9709   58.5355   19.7929 C   0  0  0  0  0  0  0  0  0  0  0  0
  123.8920   56.0992   17.3127 C   0  0  0  0  0  0  0  0  0  0  0  0
  124.4987   57.2749   17.8948 N   0  0  0  0  0  0  0  0  0  0  0  0
  124.5583   58.5469   17.2128 C   0  0  0  0  0  0  0  0  0  0  0  0
  124.1344   58.6852   16.1130 O   0  0  0  0  0  0  0  0  0  0  0  0
  124.8886   57.2058   18.7962 H   0  0  0  0  0  0  0  0  0  0  0  0
  125.1404   59.5903   17.9340 O   0  0  0  0  0  0  0  0  0  0  0  0
  125.9962   59.2804   19.1267 C   0  0  0  0  0  0  0  0  0  0  0  0
  127.1682   59.6635   18.8335 C   0  0  0  0  0  0  0  0  0  0  0  0
  127.1020   61.2947   19.0189 O   0  0  0  0  0  0  0  0  0  0  0  0
  126.3199   61.5225   20.0212 C   0  0  0  0  0  0  0  0  0  0  0  0
  125.1693   62.5401   19.6635 O   0  0  0  0  0  0  0  0  0  0  0  0
  124.0636   61.8384   19.5572 C   0  0  0  0  0  0  0  0  0  0  0  0
  124.3076   60.4594   20.3836 C   0  0  0  0  0  0  0  0  0  0  0  0
  125.6227   60.1895   20.3290 C   0  0  0  0  0  0  0  0  0  0  0  0
  124.9652   55.0084   17.2937 C   0  0  0  0  0  0  0  0  0  0  0  0
  124.9917   55.1149   14.6509 C   0  0  0  0  0  0  0  0  0  0  0  0
  124.9716   54.4130   13.2934 C   0  0  0  0  0  0  0  0  0  0  0  0
  124.9014   52.8903   13.2242 C   0  0  0  0  0  0  0  0  0  0  0  0
  124.8496   52.0681   14.5093 C   0  0  0  0  0  0  0  0  0  0  0  0
  124.8710   52.7729   15.8665 C   0  0  0  0  0  0  0  0  0  0  0  0
  124.9427   54.2972   15.9398 C   0  0  0  0  0  0  0  0  0  0  0  0
  9 10  1  0  0  0
 10 11  2  0  0  0
 10 15  1  0  0  0
 11 12  1  0  0  0
 12 13  2  0  0  0
 13 14  1  0  0  0
 13  6  1  0  0  0
 14 15  2  0  0  0
  6  7  2  0  0  0
  6  8  2  0  0  0
  6  5  1  0  0  0
  5 18  1  0  0  0
  5  4  1  0  0  0
 18 19  1  0  0  0
 19 20  1  0  0  0
 19 21  1  0  0  0
 21 22  1  0  0  0
  4  1  1  0  0  0
  1  2  1  0  0  0
  1 23  1  0  0  0
 23 24  1  0  0  0
 23 37  1  0  0  0
 24 25  1  0  0  0
 25 26  2  0  0  0
 25 28  1  0  0  0
 28 29  1  0  0  0
 29 30  1  0  0  0
 29 36  1  0  0  0
 30 31  1  0  0  0
 31 32  1  0  0  0
 32 33  1  0  0  0
 32 36  1  0  0  0
 33 34  1  0  0  0
 34 35  1  0  0  0
 35 36  1  0  0  0
 37 43  1  0  0  0
 38 39  2  0  0  0
 38 43  1  0  0  0
 39 40  1  0  0  0
 40 41  2  0  0  0
 41 42  1  0  0  0
 42 43  2  0  0  0
  9 16  1  0  0  0
  9 17  1  0  0  0
  2  3  1  0  0  0
 24 27  1  0  0  0
M  END
> <minimizedAffinity>
-9.62015

$$$$
6DH1_K13_A_102


 43 46  0  0  0  0  0  0  0  0999 V2000
  122.7754   55.5981   17.7777 C   0  0  0  0  0  0  0  0  0  0  0  0
  123.1745   54.8258   18.8771 O   0  0  0  0  0  0  0  0  0  0  0  0
  123.6762   54.0560   18.5664 H   0  0  0  0  0  0  0  0  0  0  0  0
  121.8844   54.7608   16.8592 C   0  0  0  0  0  0  0  0  0  0  0  0
  120.5301   55.2868   16.8579 N   0  0  0  0  0  0  0  0  0  0  0  0
  120.3663   56.8416   16.1702 S   0  0  0  0  0  0  0  0  0  0  0  0
  119.1375   56.9685   15.3847 O   0  0  0  0  0  0  0  0  0  0  0  0
  121.4094   57.1217   15.1846 O   0  0  0  0  0  0  0  0  0  0  0  0
  120.4093   60.8772   20.9829 N   0  0  0  0  0  0  0  0  0  0  0  0
  120.3919   59.9312   19.8894 C   0  0  0  0  0  0  0  0  0  0  0  0
  120.7579   60.4001   18.4915 C   0  0  0  0  0  0  0  0  0  0  0  0
  120.7501   59.4244   17.3303 C   0  0  0  0  0  0  0  0  0  0  0  0
  120.3860   57.9687   17.5788 C   0  0  0  0  0  0  0  0  0  0  0  0
  120.0088   57.4863   18.9720 C   0  0  0  0  0  0  0  0  0  0  0  0
  120.0195   58.4730   20.1292 C   0  0  0  0  0  0  0  0  0  0  0  0
  120.6513   61.8169   20.8170 H   0  0  0  0  0  0  0  0  0  0  0  0
  120.1792   60.5815   21.8933 H   0  0  0  0  0  0  0  0  0  0  0  0
  119.4573   54.3713   16.4967 C   0  0  0  0  0  0  0  0  0  0  0  0
  119.9705   53.1451   15.7489 C   0  0  0  0  0  0  0  0  0  0  0  0
  119.4145   51.8755   16.3928 C   0  0  0  0  0  0  0  0  0  0  0  0
  119.5386   53.2509   14.2814 C   0  0  0  0  0  0  0  0  0  0  0  0
  118.0895   53.7276   14.1384 C   0  0  0  0  0  0  0  0  0  0  0  0
  124.0125   56.0731   17.0209 C   0  0  0  0  0  0  0  0  0  0  0  0
  124.5088   57.2390   17.7164 N   0  0  0  0  0  0  0  0  0  0  0  0
  124.5187   58.5585   17.1287 C   0  0  0  0  0  0  0  0  0  0  0  0
  124.1437   58.7498   16.0191 O   0  0  0  0  0  0  0  0  0  0  0  0
  124.8555   57.1289   18.6312 H   0  0  0  0  0  0  0  0  0  0  0  0
  124.9920   59.5811   17.9521 O   0  0  0  0  0  0  0  0  0  0  0  0
  125.8608   59.2441   19.1280 C   0  0  0  0  0  0  0  0  0  0  0  0
  127.0374   59.5952   18.8139 C   0  0  0  0  0  0  0  0  0  0  0  0
  127.0202   61.2271   19.0042 O   0  0  0  0  0  0  0  0  0  0  0  0
  126.2635   61.4738   20.0214 C   0  0  0  0  0  0  0  0  0  0  0  0
  125.1353   62.5241   19.6874 O   0  0  0  0  0  0  0  0  0  0  0  0
  124.0087   61.8537   19.6002 C   0  0  0  0  0  0  0  0  0  0  0  0
  124.2293   60.4662   20.4188 C   0  0  0  0  0  0  0  0  0  0  0  0
  125.5351   60.1599   20.3390 C   0  0  0  0  0  0  0  0  0  0  0  0
  125.1290   55.0270   17.0543 C   0  0  0  0  0  0  0  0  0  0  0  0
  125.1810   54.7544   14.4239 C   0  0  0  0  0  0  0  0  0  0  0  0
  125.0856   53.8743   13.1779 C   0  0  0  0  0  0  0  0  0  0  0  0
  124.8376   52.3756   13.3211 C   0  0  0  0  0  0  0  0  0  0  0  0
  124.6833   51.7552   14.7074 C   0  0  0  0  0  0  0  0  0  0  0  0
  124.7804   52.6378   15.9525 C   0  0  0  0  0  0  0  0  0  0  0  0
  125.0300   54.1386   15.8132 C   0  0  0  0  0  0  0  0  0  0  0  0
  9 10  1  0  0  0
 10 11  2  0  0  0
 10 15  1  0  0  0
 11 12  1  0  0  0
 12 13  2  0  0  0
 13 14  1  0  0  0
 13  6  1  0  0  0
 14 15  2  0  0  0
  6  7  2  0  0  0
  6  8  2  0  0  0
  6  5  1  0  0  0
  5 18  1  0  0  0
  5  4  1  0  0  0
 18 19  1  0  0  0
 19 20  1  0  0  0
 19 21  1  0  0  0
 21 22  1  0  0  0
  4  1  1  0  0  0
  1  2  1  0  0  0
  1 23  1  0  0  0
 23 24  1  0  0  0
 23 37  1  0  0  0
 24 25  1  0  0  0
 25 26  2  0  0  0
 25 28  1  0  0  0
 28 29  1  0  0  0
 29 30  1  0  0  0
 29 36  1  0  0  0
 30 31  1  0  0  0
 31 32  1  0  0  0
 32 33  1  0  0  0
 32 36  1  0  0  0
 33 34  1  0  0  0
 34 35  1  0  0  0
 35 36  1  0  0  0
 37 43  1  0  0  0
 38 39  2  0  0  0
 38 43  1  0  0  0
 39 40  1  0  0  0
 40 41  2  0  0  0
 41 42  1  0  0  0
 42 43  2  0  0  0
  9 16  1  0  0  0
  9 17  1  0  0  0
  2  3  1  0  0  0
 24 27  1  0  0  0
M  END
> <minimizedAffinity>
-9.04060

$$$$
6DH1_K13_A_102


 43 46  0  0  0  0  0  0  0  0999 V2000
  122.3398   56.4800   15.1355 C   0  0  0  0  0  0  0  0  0  0  0  0
  122.5847   57.4566   14.1605 O   0  0  0  0  0  0  0  0  0  0  0  0
  122.1500   57.2021   13.3316 H   0  0  0  0  0  0  0  0  0  0  0  0
  122.9039   55.1372   14.6694 C   0  0  0  0  0  0  0  0  0  0  0  0
  124.2648   54.9705   15.1502 N   0  0  0  0  0  0  0  0  0  0  0  0
  124.4077   54.7693   16.8402 S   0  0  0  0  0  0  0  0  0  0  0  0
  125.5180   53.8843   17.1965 O   0  0  0  0  0  0  0  0  0  0  0  0
  123.2512   54.0826   17.4139 O   0  0  0  0  0  0  0  0  0  0  0  0
  125.1632   60.5428   19.1952 N   0  0  0  0  0  0  0  0  0  0  0  0
  125.0086   59.2166   18.6399 C   0  0  0  0  0  0  0  0  0  0  0  0
  123.8690   58.3346   19.1212 C   0  0  0  0  0  0  0  0  0  0  0  0
  123.6855   56.9416   18.5500 C   0  0  0  0  0  0  0  0  0  0  0  0
  124.6436   56.4393   17.4809 C   0  0  0  0  0  0  0  0  0  0  0  0
  125.7948   57.3081   16.9952 C   0  0  0  0  0  0  0  0  0  0  0  0
  125.9700   58.7031   17.5748 C   0  0  0  0  0  0  0  0  0  0  0  0
  124.5365   60.8647   19.8828 H   0  0  0  0  0  0  0  0  0  0  0  0
  125.8952   61.1238   18.8855 H   0  0  0  0  0  0  0  0  0  0  0  0
  125.1443   54.1018   14.3811 C   0  0  0  0  0  0  0  0  0  0  0  0
  124.4163   52.8768   13.8374 C   0  0  0  0  0  0  0  0  0  0  0  0
  124.8013   52.6520   12.3756 C   0  0  0  0  0  0  0  0  0  0  0  0
  124.7913   51.6635   14.6968 C   0  0  0  0  0  0  0  0  0  0  0  0
  125.1355   50.4368   13.8458 C   0  0  0  0  0  0  0  0  0  0  0  0
  120.8357   56.3668   15.3676 C   0  0  0  0  0  0  0  0  0  0  0  0
  120.3767   55.2300   14.6020 N   0  0  0  0  0  0  0  0  0  0  0  0
  119.0146   54.7513   14.6474 C   0  0  0  0  0  0  0  0  0  0  0  0
  118.1999   55.2544   15.3485 O   0  0  0  0  0  0  0  0  0  0  0  0
  121.0211   54.7611   14.0238 H   0  0  0  0  0  0  0  0  0  0  0  0
  118.7283   53.6692   13.8138 O   0  0  0  0  0  0  0  0  0  0  0  0
  118.2203   52.3889   14.4088 C   0  0  0  0  0  0  0  0  0  0  0  0
  117.2544   52.0153   13.6783 C   0  0  0  0  0  0  0  0  0  0  0  0
  117.9911   51.3752   12.3565 O   0  0  0  0  0  0  0  0  0  0  0  0
  119.0628   50.7894   12.7766 C   0  0  0  0  0  0  0  0  0  0  0  0
  120.3496   51.2665   11.9996 O   0  0  0  0  0  0  0  0  0  0  0  0
  121.0159   52.0501   12.8171 C   0  0  0  0  0  0  0  0  0  0  0  0
  120.5242   51.6775   14.3215 C   0  0  0  0  0  0  0  0  0  0  0  0
  119.2553   51.2451   14.2303 C   0  0  0  0  0  0  0  0  0  0  0  0
  120.5129   56.0742   16.8346 C   0  0  0  0  0  0  0  0  0  0  0  0
  119.8456   57.3718   19.0408 C   0  0  0  0  0  0  0  0  0  0  0  0
  119.5982   58.6824   19.7872 C   0  0  0  0  0  0  0  0  0  0  0  0
  119.7701   60.0150   19.0640 C   0  0  0  0  0  0  0  0  0  0  0  0
  120.1874   60.0398   17.5958 C   0  0  0  0  0  0  0  0  0  0  0  0
  120.4355   58.7270   16.8516 C   0  0  0  0  0  0  0  0  0  0  0  0
  120.2656   57.3908   17.5727 C   0  0  0  0  0  0  0  0  0  0  0  0
  9 10  1  0  0  0
 10 11  2  0  0  0
 10 15  1  0  0  0
 11 12  1  0  0  0
 12 13  2  0  0  0
 13 14  1  0  0  0
 13  6  1  0  0  0
 14 15  2  0  0  0
  6  7  2  0  0  0
  6  8  2  0  0  0
  6  5  1  0  0  0
  5 18  1  0  0  0
  5  4  1  0  0  0
 18 19  1  0  0  0
 19 20  1  0  0  0
 19 21  1  0  0  0
 21 22  1  0  0  0
  4  1  1  0  0  0
  1  2  1  0  0  0
  1 23  1  0  0  0
 23 24  1  0  0  0
 23 37  1  0  0  0
 24 25  1  0  0  0
 25 26  2  0  0  0
 25 28  1  0  0  0
 28 29  1  0  0  0
 29 30  1  0  0  0
 29 36  1  0  0  0
 30 31  1  0  0  0
 31 32  1  0  0  0
 32 33  1  0  0  0
 32 36  1  0  0  0
 33 34  1  0  0  0
 34 35  1  0  0  0
 35 36  1  0  0  0
 37 43  1  0  0  0
 38 39  2  0  0  0
 38 43  1  0  0  0
 39 40  1  0  0  0
 40 41  2  0  0  0
 41 42  1  0  0  0
 42 43  2  0  0  0
  9 16  1  0  0  0
  9 17  1  0  0  0
  2  3  1  0  0  0
 24 27  1  0  0  0
M  END
> <minimizedAffinity>
-8.96095

$$$$
6DH1_K13_A_102


 43 46  0  0  0  0  0  0  0  0999 V2000
  123.7436   58.8367   17.3214 C   0  0  0  0  0  0  0  0  0  0  0  0
  125.0303   58.3281   17.0971 O   0  0  0  0  0  0  0  0  0  0  0  0
  125.0957   57.4365   17.4736 H   0  0  0  0  0  0  0  0  0  0  0  0
  123.4763   58.9104   18.8252 C   0  0  0  0  0  0  0  0  0  0  0  0
  123.9140   60.1924   19.3505 N   0  0  0  0  0  0  0  0  0  0  0  0
  122.6848   61.1222   20.0864 S   0  0  0  0  0  0  0  0  0  0  0  0
  122.6582   62.4961   19.5817 O   0  0  0  0  0  0  0  0  0  0  0  0
  122.9165   61.3091   21.5180 O   0  0  0  0  0  0  0  0  0  0  0  0
  117.3876   58.0690   18.6487 N   0  0  0  0  0  0  0  0  0  0  0  0
  118.6098   58.7581   18.9985 C   0  0  0  0  0  0  0  0  0  0  0  0
  119.1277   59.8637   18.0944 C   0  0  0  0  0  0  0  0  0  0  0  0
  120.4055   60.6026   18.4437 C   0  0  0  0  0  0  0  0  0  0  0  0
  121.1574   60.2370   19.7142 C   0  0  0  0  0  0  0  0  0  0  0  0
  120.6555   59.1259   20.6250 C   0  0  0  0  0  0  0  0  0  0  0  0
  119.3735   58.3912   20.2653 C   0  0  0  0  0  0  0  0  0  0  0  0
  116.9021   58.3138   17.8280 H   0  0  0  0  0  0  0  0  0  0  0  0
  117.0411   57.3550   19.2312 H   0  0  0  0  0  0  0  0  0  0  0  0
  125.1805   60.2241   20.0677 C   0  0  0  0  0  0  0  0  0  0  0  0
  126.0144   61.4515   19.7151 C   0  0  0  0  0  0  0  0  0  0  0  0
  126.1844   62.3346   20.9508 C   0  0  0  0  0  0  0  0  0  0  0  0
  127.3743   60.9829   19.1839 C   0  0  0  0  0  0  0  0  0  0  0  0
  127.5003   59.4558   19.1852 C   0  0  0  0  0  0  0  0  0  0  0  0
  122.7190   57.9275   16.6487 C   0  0  0  0  0  0  0  0  0  0  0  0
  123.4502   56.8159   16.0839 N   0  0  0  0  0  0  0  0  0  0  0  0
  123.3336   56.4222   14.6990 C   0  0  0  0  0  0  0  0  0  0  0  0
  122.5985   56.9791   13.9522 O   0  0  0  0  0  0  0  0  0  0  0  0
  124.0544   56.3043   16.6691 H   0  0  0  0  0  0  0  0  0  0  0  0
  124.1416   55.3541   14.3064 O   0  0  0  0  0  0  0  0  0  0  0  0
  123.6341   53.9493   14.4476 C   0  0  0  0  0  0  0  0  0  0  0  0
  123.9867   53.3358   13.3961 C   0  0  0  0  0  0  0  0  0  0  0  0
  125.5817   53.0272   13.6421 O   0  0  0  0  0  0  0  0  0  0  0  0
  125.7213   52.7791   14.9019 C   0  0  0  0  0  0  0  0  0  0  0  0
  126.8383   53.6716   15.5675 O   0  0  0  0  0  0  0  0  0  0  0  0
  126.2180   54.5772   16.2896 C   0  0  0  0  0  0  0  0  0  0  0  0
  124.7328   53.9900   16.5953 C   0  0  0  0  0  0  0  0  0  0  0  0
  124.4002   53.1924   15.5664 C   0  0  0  0  0  0  0  0  0  0  0  0
  121.7340   57.3420   17.6632 C   0  0  0  0  0  0  0  0  0  0  0  0
  119.6655   56.7230   16.1354 C   0  0  0  0  0  0  0  0  0  0  0  0
  118.7913   55.6773   15.4438 C   0  0  0  0  0  0  0  0  0  0  0  0
  119.1151   54.1938   15.5941 C   0  0  0  0  0  0  0  0  0  0  0  0
  120.3102   53.7536   16.4357 C   0  0  0  0  0  0  0  0  0  0  0  0
  121.1841   54.8020   17.1258 C   0  0  0  0  0  0  0  0  0  0  0  0
  120.8638   56.2883   16.9765 C   0  0  0  0  0  0  0  0  0  0  0  0
  9 10  1  0  0  0
 10 11  2  0  0  0
 10 15  1  0  0  0
 11 12  1  0  0  0
 12 13  2  0  0  0
 13 14  1  0  0  0
 13  6  1  0  0  0
 14 15  2  0  0  0
  6  7  2  0  0  0
  6  8  2  0  0  0
  6  5  1  0  0  0
  5 18  1  0  0  0
  5  4  1  0  0  0
 18 19  1  0  0  0
 19 20  1  0  0  0
 19 21  1  0  0  0
 21 22  1  0  0  0
  4  1  1  0  0  0
  1  2  1  0  0  0
  1 23  1  0  0  0
 23 24  1  0  0  0
 23 37  1  0  0  0
 24 25  1  0  0  0
 25 26  2  0  0  0
 25 28  1  0  0  0
 28 29  1  0  0  0
 29 30  1  0  0  0
 29 36  1  0  0  0
 30 31  1  0  0  0
 31 32  1  0  0  0
 32 33  1  0  0  0
 32 36  1  0  0  0
 33 34  1  0  0  0
 34 35  1  0  0  0
 35 36  1  0  0  0
 37 43  1  0  0  0
 38 39  2  0  0  0
 38 43  1  0  0  0
 39 40  1  0  0  0
 40 41  2  0  0  0
 41 42  1  0  0  0
 42 43  2  0  0  0
  9 16  1  0  0  0
  9 17  1  0  0  0
  2  3  1  0  0  0
 24 27  1  0  0  0
M  END
> <minimizedAffinity>
-8.91493

$$$$
6DH1_K13_A_102


 43 46  0  0  0  0  0  0  0  0999 V2000
  122.8007   57.4248   15.4860 C   0  0  0  0  0  0  0  0  0  0  0  0
  122.7778   58.5229   14.6152 O   0  0  0  0  0  0  0  0  0  0  0  0
  121.8916   58.9173   14.6155 H   0  0  0  0  0  0  0  0  0  0  0  0
  121.7896   56.3776   15.0175 C   0  0  0  0  0  0  0  0  0  0  0  0
  122.1611   55.0638   15.5142 N   0  0  0  0  0  0  0  0  0  0  0  0
  121.0408   54.3645   16.5973 S   0  0  0  0  0  0  0  0  0  0  0  0
  120.4593   55.3567   17.5032 O   0  0  0  0  0  0  0  0  0  0  0  0
  121.6767   53.4220   17.5167 O   0  0  0  0  0  0  0  0  0  0  0  0
  116.7131   51.5971   12.9832 N   0  0  0  0  0  0  0  0  0  0  0  0
  117.6989   52.2550   13.8116 C   0  0  0  0  0  0  0  0  0  0  0  0
  118.7757   51.4258   14.4906 C   0  0  0  0  0  0  0  0  0  0  0  0
  119.8222   52.0951   15.3609 C   0  0  0  0  0  0  0  0  0  0  0  0
  119.7935   53.6055   15.5376 C   0  0  0  0  0  0  0  0  0  0  0  0
  118.7159   54.4481   14.8707 C   0  0  0  0  0  0  0  0  0  0  0  0
  117.6712   53.7670   14.0005 C   0  0  0  0  0  0  0  0  0  0  0  0
  116.7402   50.6198   12.8679 H   0  0  0  0  0  0  0  0  0  0  0  0
  116.0148   52.1266   12.5345 H   0  0  0  0  0  0  0  0  0  0  0  0
  122.7167   54.1189   14.5560 C   0  0  0  0  0  0  0  0  0  0  0  0
  124.2099   53.8916   14.7671 C   0  0  0  0  0  0  0  0  0  0  0  0
  125.0045   54.6484   13.7033 C   0  0  0  0  0  0  0  0  0  0  0  0
  124.5834   54.3701   16.1753 C   0  0  0  0  0  0  0  0  0  0  0  0
  126.0544   54.7875   16.2726 C   0  0  0  0  0  0  0  0  0  0  0  0
  122.4568   57.8942   16.8968 C   0  0  0  0  0  0  0  0  0  0  0  0
  123.4633   58.8602   17.2753 N   0  0  0  0  0  0  0  0  0  0  0  0
  124.6619   58.5028   17.9980 C   0  0  0  0  0  0  0  0  0  0  0  0
  124.8691   57.3883   18.3495 O   0  0  0  0  0  0  0  0  0  0  0  0
  123.3258   59.8036   17.0297 H   0  0  0  0  0  0  0  0  0  0  0  0
  125.5501   59.5500   18.2467 O   0  0  0  0  0  0  0  0  0  0  0  0
  126.4369   59.4989   19.4559 C   0  0  0  0  0  0  0  0  0  0  0  0
  127.5417   60.0145   19.1095 C   0  0  0  0  0  0  0  0  0  0  0  0
  127.2373   61.6291   19.1188 O   0  0  0  0  0  0  0  0  0  0  0  0
  126.4261   61.8479   20.0997 C   0  0  0  0  0  0  0  0  0  0  0  0
  125.1408   62.6424   19.6477 O   0  0  0  0  0  0  0  0  0  0  0  0
  124.1499   61.7799   19.6305 C   0  0  0  0  0  0  0  0  0  0  0  0
  124.5889   60.5487   20.5979 C   0  0  0  0  0  0  0  0  0  0  0  0
  125.9295   60.4688   20.5574 C   0  0  0  0  0  0  0  0  0  0  0  0
  121.1090   58.6181   16.9363 C   0  0  0  0  0  0  0  0  0  0  0  0
  120.9873   58.3703   19.5669 C   0  0  0  0  0  0  0  0  0  0  0  0
  120.7910   58.9877   20.9511 C   0  0  0  0  0  0  0  0  0  0  0  0
  120.5151   60.4824   21.0864 C   0  0  0  0  0  0  0  0  0  0  0  0
  120.4336   61.3605   19.8404 C   0  0  0  0  0  0  0  0  0  0  0  0
  120.6315   60.7404   18.4565 C   0  0  0  0  0  0  0  0  0  0  0  0
  120.9093   59.2446   18.3172 C   0  0  0  0  0  0  0  0  0  0  0  0
  9 10  1  0  0  0
 10 11  2  0  0  0
 10 15  1  0  0  0
 11 12  1  0  0  0
 12 13  2  0  0  0
 13 14  1  0  0  0
 13  6  1  0  0  0
 14 15  2  0  0  0
  6  7  2  0  0  0
  6  8  2  0  0  0
  6  5  1  0  0  0
  5 18  1  0  0  0
  5  4  1  0  0  0
 18 19  1  0  0  0
 19 20  1  0  0  0
 19 21  1  0  0  0
 21 22  1  0  0  0
  4  1  1  0  0  0
  1  2  1  0  0  0
  1 23  1  0  0  0
 23 24  1  0  0  0
 23 37  1  0  0  0
 24 25  1  0  0  0
 25 26  2  0  0  0
 25 28  1  0  0  0
 28 29  1  0  0  0
 29 30  1  0  0  0
 29 36  1  0  0  0
 30 31  1  0  0  0
 31 32  1  0  0  0
 32 33  1  0  0  0
 32 36  1  0  0  0
 33 34  1  0  0  0
 34 35  1  0  0  0
 35 36  1  0  0  0
 37 43  1  0  0  0
 38 39  2  0  0  0
 38 43  1  0  0  0
 39 40  1  0  0  0
 40 41  2  0  0  0
 41 42  1  0  0  0
 42 43  2  0  0  0
  9 16  1  0  0  0
  9 17  1  0  0  0
  2  3  1  0  0  0
 24 27  1  0  0  0
M  END
> <minimizedAffinity>
-8.89630

$$$$
6DH1_K13_A_102


 43 46  0  0  0  0  0  0  0  0999 V2000
  123.6214   58.3844   17.9722 C   0  0  0  0  0  0  0  0  0  0  0  0
  124.4560   59.2850   17.2963 O   0  0  0  0  0  0  0  0  0  0  0  0
  125.3699   59.1695   17.6002 H   0  0  0  0  0  0  0  0  0  0  0  0
  123.6841   58.6567   19.4757 C   0  0  0  0  0  0  0  0  0  0  0  0
  124.0452   60.0426   19.7201 N   0  0  0  0  0  0  0  0  0  0  0  0
  122.7651   61.0294   20.2722 S   0  0  0  0  0  0  0  0  0  0  0  0
  122.8276   62.3782   19.7066 O   0  0  0  0  0  0  0  0  0  0  0  0
  122.8418   61.2792   21.7109 O   0  0  0  0  0  0  0  0  0  0  0  0
  117.5192   57.9679   18.6729 N   0  0  0  0  0  0  0  0  0  0  0  0
  118.7252   58.6857   19.0215 C   0  0  0  0  0  0  0  0  0  0  0  0
  119.4292   58.3699   20.3302 C   0  0  0  0  0  0  0  0  0  0  0  0
  120.6976   59.1075   20.7144 C   0  0  0  0  0  0  0  0  0  0  0  0
  121.2672   60.1569   19.7723 C   0  0  0  0  0  0  0  0  0  0  0  0
  120.5682   60.4900   18.4621 C   0  0  0  0  0  0  0  0  0  0  0  0
  119.2969   59.7448   18.0867 C   0  0  0  0  0  0  0  0  0  0  0  0
  117.1584   57.2856   19.2841 H   0  0  0  0  0  0  0  0  0  0  0  0
  117.0590   58.1616   17.8244 H   0  0  0  0  0  0  0  0  0  0  0  0
  125.3111   60.2954   20.3932 C   0  0  0  0  0  0  0  0  0  0  0  0
  126.0311   61.5169   19.8314 C   0  0  0  0  0  0  0  0  0  0  0  0
  126.2454   62.5470   20.9399 C   0  0  0  0  0  0  0  0  0  0  0  0
  127.3698   61.0647   19.2358 C   0  0  0  0  0  0  0  0  0  0  0  0
  127.4441   59.5433   19.0701 C   0  0  0  0  0  0  0  0  0  0  0  0
  124.0760   56.9580   17.6763 C   0  0  0  0  0  0  0  0  0  0  0  0
  122.9356   56.2584   17.1291 N   0  0  0  0  0  0  0  0  0  0  0  0
  122.3118   55.1360   17.7906 C   0  0  0  0  0  0  0  0  0  0  0  0
  122.7285   54.7058   18.8152 O   0  0  0  0  0  0  0  0  0  0  0  0
  122.5677   56.5603   16.2673 H   0  0  0  0  0  0  0  0  0  0  0  0
  121.1942   54.6027   17.1470 O   0  0  0  0  0  0  0  0  0  0  0  0
  121.3681   53.8499   15.8608 C   0  0  0  0  0  0  0  0  0  0  0  0
  120.7604   52.7475   16.0083 C   0  0  0  0  0  0  0  0  0  0  0  0
  119.1776   53.1484   15.8250 O   0  0  0  0  0  0  0  0  0  0  0  0
  119.1310   54.0723   14.9237 C   0  0  0  0  0  0  0  0  0  0  0  0
  118.3422   55.3471   15.4135 O   0  0  0  0  0  0  0  0  0  0  0  0
  119.2388   56.2764   15.6560 C   0  0  0  0  0  0  0  0  0  0  0  0
  120.5683   55.8704   14.8124 C   0  0  0  0  0  0  0  0  0  0  0  0
  120.5806   54.5308   14.7086 C   0  0  0  0  0  0  0  0  0  0  0  0
  125.1713   56.9264   16.6079 C   0  0  0  0  0  0  0  0  0  0  0  0
  124.5138   55.3778   14.5670 C   0  0  0  0  0  0  0  0  0  0  0  0
  124.5191   54.0122   13.8806 C   0  0  0  0  0  0  0  0  0  0  0  0
  125.1909   52.8216   14.5583 C   0  0  0  0  0  0  0  0  0  0  0  0
  125.8560   52.9931   15.9216 C   0  0  0  0  0  0  0  0  0  0  0  0
  125.8503   54.3609   16.6058 C   0  0  0  0  0  0  0  0  0  0  0  0
  125.1799   55.5556   15.9296 C   0  0  0  0  0  0  0  0  0  0  0  0
  9 10  1  0  0  0
 10 11  2  0  0  0
 10 15  1  0  0  0
 11 12  1  0  0  0
 12 13  2  0  0  0
 13 14  1  0  0  0
 13  6  1  0  0  0
 14 15  2  0  0  0
  6  7  2  0  0  0
  6  8  2  0  0  0
  6  5  1  0  0  0
  5 18  1  0  0  0
  5  4  1  0  0  0
 18 19  1  0  0  0
 19 20  1  0  0  0
 19 21  1  0  0  0
 21 22  1  0  0  0
  4  1  1  0  0  0
  1  2  1  0  0  0
  1 23  1  0  0  0
 23 24  1  0  0  0
 23 37  1  0  0  0
 24 25  1  0  0  0
 25 26  2  0  0  0
 25 28  1  0  0  0
 28 29  1  0  0  0
 29 30  1  0  0  0
 29 36  1  0  0  0
 30 31  1  0  0  0
 31 32  1  0  0  0
 32 33  1  0  0  0
 32 36  1  0  0  0
 33 34  1  0  0  0
 34 35  1  0  0  0
 35 36  1  0  0  0
 37 43  1  0  0  0
 38 39  2  0  0  0
 38 43  1  0  0  0
 39 40  1  0  0  0
 40 41  2  0  0  0
 41 42  1  0  0  0
 42 43  2  0  0  0
  9 16  1  0  0  0
  9 17  1  0  0  0
  2  3  1  0  0  0
 24 27  1  0  0  0
M  END
> <minimizedAffinity>
-8.73350

$$$$
6DH1_K13_A_102


 43 46  0  0  0  0  0  0  0  0999 V2000
  122.7952   56.7104   15.2103 C   0  0  0  0  0  0  0  0  0  0  0  0
  122.4661   57.4964   14.0974 O   0  0  0  0  0  0  0  0  0  0  0  0
  121.7153   57.0975   13.6305 H   0  0  0  0  0  0  0  0  0  0  0  0
  123.1853   55.3057   14.7486 C   0  0  0  0  0  0  0  0  0  0  0  0
  124.5475   55.0044   15.1544 N   0  0  0  0  0  0  0  0  0  0  0  0
  124.7612   54.7795   16.8339 S   0  0  0  0  0  0  0  0  0  0  0  0
  125.8004   53.7913   17.1284 O   0  0  0  0  0  0  0  0  0  0  0  0
  123.5775   54.2012   17.4683 O   0  0  0  0  0  0  0  0  0  0  0  0
  126.2072   60.4319   19.1596 N   0  0  0  0  0  0  0  0  0  0  0  0
  125.8906   59.1335   18.6074 C   0  0  0  0  0  0  0  0  0  0  0  0
  124.8432   58.2687   19.2881 C   0  0  0  0  0  0  0  0  0  0  0  0
  124.4925   56.9051   18.7243 C   0  0  0  0  0  0  0  0  0  0  0  0
  125.1880   56.4155   17.4635 C   0  0  0  0  0  0  0  0  0  0  0  0
  126.2454   57.2669   16.7756 C   0  0  0  0  0  0  0  0  0  0  0  0
  126.5898   58.6324   17.3495 C   0  0  0  0  0  0  0  0  0  0  0  0
  125.7495   60.7459   19.9727 H   0  0  0  0  0  0  0  0  0  0  0  0
  126.8804   61.0019   18.7224 H   0  0  0  0  0  0  0  0  0  0  0  0
  125.2952   54.0592   14.3377 C   0  0  0  0  0  0  0  0  0  0  0  0
  124.4327   52.8927   13.8670 C   0  0  0  0  0  0  0  0  0  0  0  0
  124.7138   52.6023   12.3931 C   0  0  0  0  0  0  0  0  0  0  0  0
  124.7468   51.6698   14.7372 C   0  0  0  0  0  0  0  0  0  0  0  0
  124.6246   50.3576   13.9555 C   0  0  0  0  0  0  0  0  0  0  0  0
  121.5946   56.6411   16.1499 C   0  0  0  0  0  0  0  0  0  0  0  0
  121.5472   57.8966   16.8646 N   0  0  0  0  0  0  0  0  0  0  0  0
  121.2749   57.9840   18.2805 C   0  0  0  0  0  0  0  0  0  0  0  0
  121.0425   57.0194   18.9315 O   0  0  0  0  0  0  0  0  0  0  0  0
  121.7076   58.7291   16.3641 H   0  0  0  0  0  0  0  0  0  0  0  0
  121.3084   59.2699   18.8220 O   0  0  0  0  0  0  0  0  0  0  0  0
  120.0232   59.9622   19.1686 C   0  0  0  0  0  0  0  0  0  0  0  0
  119.6227   59.4469   20.2550 C   0  0  0  0  0  0  0  0  0  0  0  0
  120.5748   60.1514   21.3938 O   0  0  0  0  0  0  0  0  0  0  0  0
  120.7727   61.3687   21.0103 C   0  0  0  0  0  0  0  0  0  0  0  0
  122.3046   61.7407   20.9656 O   0  0  0  0  0  0  0  0  0  0  0  0
  122.6480   61.7770   19.6979 C   0  0  0  0  0  0  0  0  0  0  0  0
  121.2773   61.9989   18.8517 C   0  0  0  0  0  0  0  0  0  0  0  0
  120.2785   61.4435   19.5584 C   0  0  0  0  0  0  0  0  0  0  0  0
  120.2801   56.5205   15.3757 C   0  0  0  0  0  0  0  0  0  0  0  0
  118.6233   54.6304   14.5518 C   0  0  0  0  0  0  0  0  0  0  0  0
  118.1221   53.1876   14.6066 C   0  0  0  0  0  0  0  0  0  0  0  0
  118.7821   52.1873   15.5511 C   0  0  0  0  0  0  0  0  0  0  0  0
  119.9412   52.6270   16.4419 C   0  0  0  0  0  0  0  0  0  0  0  0
  120.4416   54.0710   16.3843 C   0  0  0  0  0  0  0  0  0  0  0  0
  119.7841   55.0750   15.4389 C   0  0  0  0  0  0  0  0  0  0  0  0
  9 10  1  0  0  0
 10 11  2  0  0  0
 10 15  1  0  0  0
 11 12  1  0  0  0
 12 13  2  0  0  0
 13 14  1  0  0  0
 13  6  1  0  0  0
 14 15  2  0  0  0
  6  7  2  0  0  0
  6  8  2  0  0  0
  6  5  1  0  0  0
  5 18  1  0  0  0
  5  4  1  0  0  0
 18 19  1  0  0  0
 19 20  1  0  0  0
 19 21  1  0  0  0
 21 22  1  0  0  0
  4  1  1  0  0  0
  1  2  1  0  0  0
  1 23  1  0  0  0
 23 24  1  0  0  0
 23 37  1  0  0  0
 24 25  1  0  0  0
 25 26  2  0  0  0
 25 28  1  0  0  0
 28 29  1  0  0  0
 29 30  1  0  0  0
 29 36  1  0  0  0
 30 31  1  0  0  0
 31 32  1  0  0  0
 32 33  1  0  0  0
 32 36  1  0  0  0
 33 34  1  0  0  0
 34 35  1  0  0  0
 35 36  1  0  0  0
 37 43  1  0  0  0
 38 39  2  0  0  0
 38 43  1  0  0  0
 39 40  1  0  0  0
 40 41  2  0  0  0
 41 42  1  0  0  0
 42 43  2  0  0  0
  9 16  1  0  0  0
  9 17  1  0  0  0
  2  3  1  0  0  0
 24 27  1  0  0  0
M  END
> <minimizedAffinity>
-8.36365

$$$$
6DH1_K13_A_102


 43 46  0  0  0  0  0  0  0  0999 V2000
  120.7490   57.2599   16.7529 C   0  0  0  0  0  0  0  0  0  0  0  0
  119.6218   57.2502   15.9200 O   0  0  0  0  0  0  0  0  0  0  0  0
  119.8986   57.3829   14.9998 H   0  0  0  0  0  0  0  0  0  0  0  0
  121.4610   58.6083   16.6367 C   0  0  0  0  0  0  0  0  0  0  0  0
  121.5937   59.2204   17.9477 N   0  0  0  0  0  0  0  0  0  0  0  0
  120.1181   59.6688   18.6814 S   0  0  0  0  0  0  0  0  0  0  0  0
  119.1576   58.5643   18.7043 O   0  0  0  0  0  0  0  0  0  0  0  0
  119.4110   60.6951   17.9166 O   0  0  0  0  0  0  0  0  0  0  0  0
  121.7627   61.3779   24.4972 N   0  0  0  0  0  0  0  0  0  0  0  0
  121.3877   61.0065   23.1510 C   0  0  0  0  0  0  0  0  0  0  0  0
  121.0323   59.5609   22.8476 C   0  0  0  0  0  0  0  0  0  0  0  0
  120.6325   59.1494   21.4435 C   0  0  0  0  0  0  0  0  0  0  0  0
  120.5768   60.1987   20.3439 C   0  0  0  0  0  0  0  0  0  0  0  0
  120.9384   61.6488   20.6308 C   0  0  0  0  0  0  0  0  0  0  0  0
  121.3383   62.0506   22.0419 C   0  0  0  0  0  0  0  0  0  0  0  0
  121.7914   60.6954   25.2062 H   0  0  0  0  0  0  0  0  0  0  0  0
  121.9892   62.3132   24.7048 H   0  0  0  0  0  0  0  0  0  0  0  0
  122.5487   58.6240   18.8707 C   0  0  0  0  0  0  0  0  0  0  0  0
  123.9354   59.2477   18.7513 C   0  0  0  0  0  0  0  0  0  0  0  0
  124.1956   60.1643   19.9462 C   0  0  0  0  0  0  0  0  0  0  0  0
  124.9743   58.1217   18.6865 C   0  0  0  0  0  0  0  0  0  0  0  0
  125.8233   58.1914   17.4129 C   0  0  0  0  0  0  0  0  0  0  0  0
  121.6893   56.1311   16.3401 C   0  0  0  0  0  0  0  0  0  0  0  0
  120.9985   55.3549   15.3352 N   0  0  0  0  0  0  0  0  0  0  0  0
  120.7748   53.9331   15.4580 C   0  0  0  0  0  0  0  0  0  0  0  0
  121.1794   53.3163   16.3876 O   0  0  0  0  0  0  0  0  0  0  0  0
  120.6657   55.8158   14.5315 H   0  0  0  0  0  0  0  0  0  0  0  0
  120.0535   53.3449   14.4181 O   0  0  0  0  0  0  0  0  0  0  0  0
  118.6839   52.7934   14.6849 C   0  0  0  0  0  0  0  0  0  0  0  0
  117.8928   53.4171   13.9160 C   0  0  0  0  0  0  0  0  0  0  0  0
  118.1394   52.7147   12.4512 O   0  0  0  0  0  0  0  0  0  0  0  0
  118.3550   51.4606   12.6730 C   0  0  0  0  0  0  0  0  0  0  0  0
  119.6887   50.9545   12.0003 O   0  0  0  0  0  0  0  0  0  0  0  0
  120.5643   50.7989   12.9674 C   0  0  0  0  0  0  0  0  0  0  0  0
  119.7129   50.6379   14.3434 C   0  0  0  0  0  0  0  0  0  0  0  0
  118.5699   51.3267   14.1874 C   0  0  0  0  0  0  0  0  0  0  0  0
  122.9637   56.6705   15.6866 C   0  0  0  0  0  0  0  0  0  0  0  0
  124.3341   55.0162   14.1434 C   0  0  0  0  0  0  0  0  0  0  0  0
  125.3466   53.8829   13.9815 C   0  0  0  0  0  0  0  0  0  0  0  0
  126.0024   53.2656   15.2132 C   0  0  0  0  0  0  0  0  0  0  0  0
  125.6469   53.7782   16.6064 C   0  0  0  0  0  0  0  0  0  0  0  0
  124.6343   54.9132   16.7656 C   0  0  0  0  0  0  0  0  0  0  0  0
  123.9766   55.5346   15.5346 C   0  0  0  0  0  0  0  0  0  0  0  0
  9 10  1  0  0  0
 10 11  2  0  0  0
 10 15  1  0  0  0
 11 12  1  0  0  0
 12 13  2  0  0  0
 13 14  1  0  0  0
 13  6  1  0  0  0
 14 15  2  0  0  0
  6  7  2  0  0  0
  6  8  2  0  0  0
  6  5  1  0  0  0
  5 18  1  0  0  0
  5  4  1  0  0  0
 18 19  1  0  0  0
 19 20  1  0  0  0
 19 21  1  0  0  0
 21 22  1  0  0  0
  4  1  1  0  0  0
  1  2  1  0  0  0
  1 23  1  0  0  0
 23 24  1  0  0  0
 23 37  1  0  0  0
 24 25  1  0  0  0
 25 26  2  0  0  0
 25 28  1  0  0  0
 28 29  1  0  0  0
 29 30  1  0  0  0
 29 36  1  0  0  0
 30 31  1  0  0  0
 31 32  1  0  0  0
 32 33  1  0  0  0
 32 36  1  0  0  0
 33 34  1  0  0  0
 34 35  1  0  0  0
 35 36  1  0  0  0
 37 43  1  0  0  0
 38 39  2  0  0  0
 38 43  1  0  0  0
 39 40  1  0  0  0
 40 41  2  0  0  0
 41 42  1  0  0  0
 42 43  2  0  0  0
  9 16  1  0  0  0
  9 17  1  0  0  0
  2  3  1  0  0  0
 24 27  1  0  0  0
M  END
> <minimizedAffinity>
-8.31163

$$$$
6DH1_K13_A_102


 43 46  0  0  0  0  0  0  0  0999 V2000
  122.6864   57.3738   15.6039 C   0  0  0  0  0  0  0  0  0  0  0  0
  122.8522   58.4619   14.7361 O   0  0  0  0  0  0  0  0  0  0  0  0
  122.0353   58.9844   14.7130 H   0  0  0  0  0  0  0  0  0  0  0  0
  121.5435   56.4891   15.1045 C   0  0  0  0  0  0  0  0  0  0  0  0
  121.8969   55.0866   15.2433 N   0  0  0  0  0  0  0  0  0  0  0  0
  123.5420   54.7306   14.9536 S   0  0  0  0  0  0  0  0  0  0  0  0
  124.3775   55.0018   16.1247 O   0  0  0  0  0  0  0  0  0  0  0  0
  124.1239   55.6020   13.9337 O   0  0  0  0  0  0  0  0  0  0  0  0
  123.6838   48.6217   13.5010 N   0  0  0  0  0  0  0  0  0  0  0  0
  123.6302   50.0299   13.8249 C   0  0  0  0  0  0  0  0  0  0  0  0
  124.7577   50.6537   14.6298 C   0  0  0  0  0  0  0  0  0  0  0  0
  124.7242   52.1296   14.9777 C   0  0  0  0  0  0  0  0  0  0  0  0
  123.5590   52.9839   14.5026 C   0  0  0  0  0  0  0  0  0  0  0  0
  122.4182   52.3713   13.7030 C   0  0  0  0  0  0  0  0  0  0  0  0
  122.4615   50.8904   13.3599 C   0  0  0  0  0  0  0  0  0  0  0  0
  124.4434   48.0749   13.8064 H   0  0  0  0  0  0  0  0  0  0  0  0
  122.9607   48.2097   12.9751 H   0  0  0  0  0  0  0  0  0  0  0  0
  121.3317   54.3631   16.3732 C   0  0  0  0  0  0  0  0  0  0  0  0
  119.8852   53.9466   16.1282 C   0  0  0  0  0  0  0  0  0  0  0  0
  119.4826   54.2912   14.6947 C   0  0  0  0  0  0  0  0  0  0  0  0
  119.7593   52.4403   16.3868 C   0  0  0  0  0  0  0  0  0  0  0  0
  119.1250   51.7019   15.2036 C   0  0  0  0  0  0  0  0  0  0  0  0
  122.3775   57.8910   17.0060 C   0  0  0  0  0  0  0  0  0  0  0  0
  123.4142   58.8408   17.3415 N   0  0  0  0  0  0  0  0  0  0  0  0
  124.6142   58.4731   18.0565 C   0  0  0  0  0  0  0  0  0  0  0  0
  124.7982   57.3642   18.4371 O   0  0  0  0  0  0  0  0  0  0  0  0
  123.2972   59.7800   17.0706 H   0  0  0  0  0  0  0  0  0  0  0  0
  125.5328   59.5035   18.2616 O   0  0  0  0  0  0  0  0  0  0  0  0
  126.4227   59.4742   19.4692 C   0  0  0  0  0  0  0  0  0  0  0  0
  127.5296   59.9751   19.1082 C   0  0  0  0  0  0  0  0  0  0  0  0
  127.2350   61.5913   19.0820 O   0  0  0  0  0  0  0  0  0  0  0  0
  126.4280   61.8371   20.0600 C   0  0  0  0  0  0  0  0  0  0  0  0
  125.1463   62.6290   19.5938 O   0  0  0  0  0  0  0  0  0  0  0  0
  124.1501   61.7724   19.5987 C   0  0  0  0  0  0  0  0  0  0  0  0
  124.5844   60.5607   20.5923 C   0  0  0  0  0  0  0  0  0  0  0  0
  125.9244   60.4717   20.5499 C   0  0  0  0  0  0  0  0  0  0  0  0
  121.0493   58.6502   17.0460 C   0  0  0  0  0  0  0  0  0  0  0  0
  120.6413   60.7839   18.5549 C   0  0  0  0  0  0  0  0  0  0  0  0
  120.4540   61.4205   19.9317 C   0  0  0  0  0  0  0  0  0  0  0  0
  120.4912   60.5505   21.1847 C   0  0  0  0  0  0  0  0  0  0  0  0
  120.7169   59.0455   21.0640 C   0  0  0  0  0  0  0  0  0  0  0  0
  120.9029   58.4108   19.6850 C   0  0  0  0  0  0  0  0  0  0  0  0
  120.8648   59.2786   18.4282 C   0  0  0  0  0  0  0  0  0  0  0  0
  9 10  1  0  0  0
 10 11  2  0  0  0
 10 15  1  0  0  0
 11 12  1  0  0  0
 12 13  2  0  0  0
 13 14  1  0  0  0
 13  6  1  0  0  0
 14 15  2  0  0  0
  6  7  2  0  0  0
  6  8  2  0  0  0
  6  5  1  0  0  0
  5 18  1  0  0  0
  5  4  1  0  0  0
 18 19  1  0  0  0
 19 20  1  0  0  0
 19 21  1  0  0  0
 21 22  1  0  0  0
  4  1  1  0  0  0
  1  2  1  0  0  0
  1 23  1  0  0  0
 23 24  1  0  0  0
 23 37  1  0  0  0
 24 25  1  0  0  0
 25 26  2  0  0  0
 25 28  1  0  0  0
 28 29  1  0  0  0
 29 30  1  0  0  0
 29 36  1  0  0  0
 30 31  1  0  0  0
 31 32  1  0  0  0
 32 33  1  0  0  0
 32 36  1  0  0  0
 33 34  1  0  0  0
 34 35  1  0  0  0
 35 36  1  0  0  0
 37 43  1  0  0  0
 38 39  2  0  0  0
 38 43  1  0  0  0
 39 40  1  0  0  0
 40 41  2  0  0  0
 41 42  1  0  0  0
 42 43  2  0  0  0
  9 16  1  0  0  0
  9 17  1  0  0  0
  2  3  1  0  0  0
 24 27  1  0  0  0
M  END
> <minimizedAffinity>
-8.29915

$$$$
6DH1_K13_A_102


 43 46  0  0  0  0  0  0  0  0999 V2000
  119.3928   56.6057   16.8221 C   0  0  0  0  0  0  0  0  0  0  0  0
  118.1128   56.9007   17.3110 O   0  0  0  0  0  0  0  0  0  0  0  0
  117.6241   57.4141   16.6487 H   0  0  0  0  0  0  0  0  0  0  0  0
  120.1477   57.9062   16.5439 C   0  0  0  0  0  0  0  0  0  0  0  0
  120.6700   58.4581   17.7822 N   0  0  0  0  0  0  0  0  0  0  0  0
  119.7507   59.7387   18.4394 S   0  0  0  0  0  0  0  0  0  0  0  0
  118.3956   59.3155   18.7970 O   0  0  0  0  0  0  0  0  0  0  0  0
  119.5098   60.8018   17.4649 O   0  0  0  0  0  0  0  0  0  0  0  0
  122.9675   61.5193   23.5317 N   0  0  0  0  0  0  0  0  0  0  0  0
  122.2434   61.1192   22.3457 C   0  0  0  0  0  0  0  0  0  0  0  0
  120.9647   60.3114   22.4894 C   0  0  0  0  0  0  0  0  0  0  0  0
  120.1869   59.8842   21.2594 C   0  0  0  0  0  0  0  0  0  0  0  0
  120.6899   60.2829   19.8805 C   0  0  0  0  0  0  0  0  0  0  0  0
  121.9736   61.0844   19.7205 C   0  0  0  0  0  0  0  0  0  0  0  0
  122.7460   61.5073   20.9603 C   0  0  0  0  0  0  0  0  0  0  0  0
  122.6340   61.2633   24.4219 H   0  0  0  0  0  0  0  0  0  0  0  0
  123.7940   62.0478   23.4490 H   0  0  0  0  0  0  0  0  0  0  0  0
  121.1598   57.5174   18.7797 C   0  0  0  0  0  0  0  0  0  0  0  0
  122.6756   57.3566   18.7280 C   0  0  0  0  0  0  0  0  0  0  0  0
  123.0323   55.8989   18.4392 C   0  0  0  0  0  0  0  0  0  0  0  0
  123.2290   58.2834   17.6388 C   0  0  0  0  0  0  0  0  0  0  0  0
  124.5618   58.9209   18.0448 C   0  0  0  0  0  0  0  0  0  0  0  0
  119.2655   55.7867   15.5408 C   0  0  0  0  0  0  0  0  0  0  0  0
  120.4417   54.9505   15.4579 N   0  0  0  0  0  0  0  0  0  0  0  0
  121.5927   55.2922   14.6548 C   0  0  0  0  0  0  0  0  0  0  0  0
  121.6192   56.2743   13.9891 O   0  0  0  0  0  0  0  0  0  0  0  0
  120.4590   54.1108   15.9716 H   0  0  0  0  0  0  0  0  0  0  0  0
  122.6606   54.3961   14.7207 O   0  0  0  0  0  0  0  0  0  0  0  0
  124.0415   54.8603   14.3619 C   0  0  0  0  0  0  0  0  0  0  0  0
  124.6191   55.1384   15.4552 C   0  0  0  0  0  0  0  0  0  0  0  0
  125.0250   53.6679   16.0657 O   0  0  0  0  0  0  0  0  0  0  0  0
  125.3436   52.9237   15.0592 C   0  0  0  0  0  0  0  0  0  0  0  0
  124.5471   51.5626   15.0454 O   0  0  0  0  0  0  0  0  0  0  0  0
  123.6472   51.6610   14.0932 C   0  0  0  0  0  0  0  0  0  0  0  0
  124.1684   52.8206   13.0794 C   0  0  0  0  0  0  0  0  0  0  0  0
  124.8940   53.6877   13.8054 C   0  0  0  0  0  0  0  0  0  0  0  0
  118.0566   54.8496   15.5893 C   0  0  0  0  0  0  0  0  0  0  0  0
  119.0969   52.4232   15.7526 C   0  0  0  0  0  0  0  0  0  0  0  0
  119.4615   51.0883   15.1037 C   0  0  0  0  0  0  0  0  0  0  0  0
  119.1491   50.8474   13.6297 C   0  0  0  0  0  0  0  0  0  0  0  0
  118.4743   51.9389   12.8029 C   0  0  0  0  0  0  0  0  0  0  0  0
  118.1094   53.2733   13.4549 C   0  0  0  0  0  0  0  0  0  0  0  0
  118.4195   53.5177   14.9308 C   0  0  0  0  0  0  0  0  0  0  0  0
  9 10  1  0  0  0
 10 11  2  0  0  0
 10 15  1  0  0  0
 11 12  1  0  0  0
 12 13  2  0  0  0
 13 14  1  0  0  0
 13  6  1  0  0  0
 14 15  2  0  0  0
  6  7  2  0  0  0
  6  8  2  0  0  0
  6  5  1  0  0  0
  5 18  1  0  0  0
  5  4  1  0  0  0
 18 19  1  0  0  0
 19 20  1  0  0  0
 19 21  1  0  0  0
 21 22  1  0  0  0
  4  1  1  0  0  0
  1  2  1  0  0  0
  1 23  1  0  0  0
 23 24  1  0  0  0
 23 37  1  0  0  0
 24 25  1  0  0  0
 25 26  2  0  0  0
 25 28  1  0  0  0
 28 29  1  0  0  0
 29 30  1  0  0  0
 29 36  1  0  0  0
 30 31  1  0  0  0
 31 32  1  0  0  0
 32 33  1  0  0  0
 32 36  1  0  0  0
 33 34  1  0  0  0
 34 35  1  0  0  0
 35 36  1  0  0  0
 37 43  1  0  0  0
 38 39  2  0  0  0
 38 43  1  0  0  0
 39 40  1  0  0  0
 40 41  2  0  0  0
 41 42  1  0  0  0
 42 43  2  0  0  0
  9 16  1  0  0  0
  9 17  1  0  0  0
  2  3  1  0  0  0
 24 27  1  0  0  0
M  END
> <minimizedAffinity>
-8.24886

$$$$
