3WJW_U6M_A_301


 27 28  0  0  0  0  0  0  0  0999 V2000
   17.8349   39.9241   35.8014 C   0  0  0  0  0  0  0  0  0  0  0  0
   18.0518   38.6615   35.1207 O   0  0  0  0  0  0  0  0  0  0  0  0
   18.2057   39.6855   37.2323 C   0  0  0  0  0  0  0  0  0  0  0  0
   18.6871   40.9148   37.7634 O   0  0  0  0  0  0  0  0  0  0  0  0
   19.3222   38.6766   37.1107 C   0  0  0  0  0  0  0  0  0  0  0  0
   20.5259   39.3486   36.6922 O   0  0  0  0  0  0  0  0  0  0  0  0
   18.8678   37.8117   35.9564 C   0  0  0  0  0  0  0  0  0  0  0  0
   19.4093   41.2466   37.2072 H   0  0  0  0  0  0  0  0  0  0  0  0
   20.3579   39.8282   35.8660 H   0  0  0  0  0  0  0  0  0  0  0  0
   15.6263   38.8684   37.1215 O   0  0  0  0  0  0  0  0  0  0  0  0
   15.3897   39.7669   36.2958 C   0  0  0  0  0  0  0  0  0  0  0  0
   14.1091   40.1741   36.1312 N   0  0  0  0  0  0  0  0  0  0  0  0
   13.8101   41.1617   35.2740 C   0  0  0  0  0  0  0  0  0  0  0  0
   12.5865   41.4357   35.1314 O   0  0  0  0  0  0  0  0  0  0  0  0
   14.7513   41.5527   34.3337 C   0  0  0  0  0  0  0  0  0  0  0  0
   16.0550   41.0622   34.3722 C   0  0  0  0  0  0  0  0  0  0  0  0
   16.8390   41.0107   33.0799 C   0  0  0  0  0  0  0  0  0  0  0  0
   16.4211   40.2815   35.5303 N   0  0  0  0  0  0  0  0  0  0  0  0
   13.3901   39.7410   36.6456 H   0  0  0  0  0  0  0  0  0  0  0  0
   18.0210   36.6112   36.3648 C   0  0  0  0  0  0  0  0  0  0  0  0
   18.4697   36.3137   37.7008 O   0  0  0  0  0  0  0  0  0  0  0  0
   18.7414   34.7861   38.1541 P   0  0  0  0  0  0  0  0  0  0  0  0
   17.5850   34.3692   38.9943 O   0  0  0  0  0  0  0  0  0  0  0  0
   19.9993   34.7168   38.9430 O   0  0  0  0  0  0  0  0  0  0  0  0
   18.8273   34.0532   36.8363 O   0  0  0  0  0  0  0  0  0  0  0  0
   19.8862   35.2024   39.7751 H   0  0  0  0  0  0  0  0  0  0  0  0
   17.9822   34.1319   36.3668 H   0  0  0  0  0  0  0  0  0  0  0  0
 17 16  1  0  0  0
 16 15  2  0  0  0
 16 18  1  0  0  0
 15 13  1  0  0  0
  2  1  1  0  0  0
  2  7  1  0  0  0
 14 13  2  0  0  0
 13 12  1  0  0  0
 18  1  1  0  0  0
 18 11  1  0  0  0
  1  3  1  0  0  0
  7 20  1  0  0  0
  7  5  1  0  0  0
 12 11  1  0  0  0
 11 10  2  0  0  0
  6  5  1  0  0  0
 20 21  1  0  0  0
  5  3  1  0  0  0
  3  4  1  0  0  0
 23 22  2  0  0  0
 21 22  1  0  0  0
 22 24  1  0  0  0
 22 25  1  0  0  0
 12 19  1  0  0  0
  4  8  1  0  0  0
  6  9  1  0  0  0
 24 26  1  0  0  0
 25 27  1  0  0  0
M  END
> <minimizedAffinity>
-10.66011

$$$$
3WJW_U6M_A_301


 27 28  0  0  0  0  0  0  0  0999 V2000
   18.2815   40.1985   35.7360 C   0  0  0  0  0  0  0  0  0  0  0  0
   18.4929   38.7637   35.7690 O   0  0  0  0  0  0  0  0  0  0  0  0
   18.8794   40.7285   37.0023 C   0  0  0  0  0  0  0  0  0  0  0  0
   19.3366   42.0509   36.7423 O   0  0  0  0  0  0  0  0  0  0  0  0
   20.0410   39.7907   37.2260 C   0  0  0  0  0  0  0  0  0  0  0  0
   21.1122   40.1386   36.3275 O   0  0  0  0  0  0  0  0  0  0  0  0
   19.4888   38.4588   36.7698 C   0  0  0  0  0  0  0  0  0  0  0  0
   19.9392   42.0411   35.9823 H   0  0  0  0  0  0  0  0  0  0  0  0
   20.7854   40.1250   35.4142 H   0  0  0  0  0  0  0  0  0  0  0  0
   16.3181   39.0511   37.3372 O   0  0  0  0  0  0  0  0  0  0  0  0
   15.9168   39.8359   36.4608 C   0  0  0  0  0  0  0  0  0  0  0  0
   14.5897   40.0895   36.3773 N   0  0  0  0  0  0  0  0  0  0  0  0
   14.1140   40.9530   35.4676 C   0  0  0  0  0  0  0  0  0  0  0  0
   12.8599   41.0829   35.4124 O   0  0  0  0  0  0  0  0  0  0  0  0
   14.9271   41.3471   34.4156 C   0  0  0  0  0  0  0  0  0  0  0  0
   16.2764   41.0013   34.3791 C   0  0  0  0  0  0  0  0  0  0  0  0
   16.9550   40.9070   33.0308 C   0  0  0  0  0  0  0  0  0  0  0  0
   16.8194   40.3787   35.5633 N   0  0  0  0  0  0  0  0  0  0  0  0
   13.9673   39.6356   36.9904 H   0  0  0  0  0  0  0  0  0  0  0  0
   18.8096   37.6493   37.8690 C   0  0  0  0  0  0  0  0  0  0  0  0
   19.3310   38.2178   39.0855 O   0  0  0  0  0  0  0  0  0  0  0  0
   20.2024   37.3157   40.1052 P   0  0  0  0  0  0  0  0  0  0  0  0
   20.1125   35.9085   39.6270 O   0  0  0  0  0  0  0  0  0  0  0  0
   19.6387   37.4280   41.4760 O   0  0  0  0  0  0  0  0  0  0  0  0
   21.5858   37.9092   39.9830 O   0  0  0  0  0  0  0  0  0  0  0  0
   18.7533   37.0323   41.4949 H   0  0  0  0  0  0  0  0  0  0  0  0
   21.9018   37.8079   39.0715 H   0  0  0  0  0  0  0  0  0  0  0  0
 17 16  1  0  0  0
 16 15  2  0  0  0
 16 18  1  0  0  0
 15 13  1  0  0  0
  2  1  1  0  0  0
  2  7  1  0  0  0
 14 13  2  0  0  0
 13 12  1  0  0  0
 18  1  1  0  0  0
 18 11  1  0  0  0
  1  3  1  0  0  0
  7 20  1  0  0  0
  7  5  1  0  0  0
 12 11  1  0  0  0
 11 10  2  0  0  0
  6  5  1  0  0  0
 20 21  1  0  0  0
  5  3  1  0  0  0
  3  4  1  0  0  0
 23 22  2  0  0  0
 21 22  1  0  0  0
 22 24  1  0  0  0
 22 25  1  0  0  0
 12 19  1  0  0  0
  4  8  1  0  0  0
  6  9  1  0  0  0
 24 26  1  0  0  0
 25 27  1  0  0  0
M  END
> <minimizedAffinity>
-9.12069

$$$$
3WJW_U6M_A_301


 27 28  0  0  0  0  0  0  0  0999 V2000
   17.7883   38.2184   36.3927 C   0  0  0  0  0  0  0  0  0  0  0  0
   18.9321   38.9512   35.8834 O   0  0  0  0  0  0  0  0  0  0  0  0
   17.0158   39.1942   37.2249 C   0  0  0  0  0  0  0  0  0  0  0  0
   15.6434   38.8230   37.1614 O   0  0  0  0  0  0  0  0  0  0  0  0
   17.2563   40.4961   36.4995 C   0  0  0  0  0  0  0  0  0  0  0  0
   16.4376   40.5378   35.3147 O   0  0  0  0  0  0  0  0  0  0  0  0
   18.6934   40.3664   36.0464 C   0  0  0  0  0  0  0  0  0  0  0  0
   15.3650   38.7716   36.2336 H   0  0  0  0  0  0  0  0  0  0  0  0
   16.6226   39.7594   34.7663 H   0  0  0  0  0  0  0  0  0  0  0  0
   19.4906   38.3254   38.5895 O   0  0  0  0  0  0  0  0  0  0  0  0
   19.1271   37.1904   38.2364 C   0  0  0  0  0  0  0  0  0  0  0  0
   19.5523   36.1226   38.9517 N   0  0  0  0  0  0  0  0  0  0  0  0
   19.1608   34.8815   38.6266 C   0  0  0  0  0  0  0  0  0  0  0  0
   19.6543   33.9372   39.3029 O   0  0  0  0  0  0  0  0  0  0  0  0
   18.5819   34.6551   37.3869 C   0  0  0  0  0  0  0  0  0  0  0  0
   18.2433   35.7132   36.5459 C   0  0  0  0  0  0  0  0  0  0  0  0
   18.1944   35.4564   35.0563 C   0  0  0  0  0  0  0  0  0  0  0  0
   18.3544   37.0427   37.0980 N   0  0  0  0  0  0  0  0  0  0  0  0
   20.1549   36.2584   39.7183 H   0  0  0  0  0  0  0  0  0  0  0  0
   19.7178   40.8983   37.0427 C   0  0  0  0  0  0  0  0  0  0  0  0
   20.1270   42.1571   36.4746 O   0  0  0  0  0  0  0  0  0  0  0  0
   21.6362   42.6983   36.6804 P   0  0  0  0  0  0  0  0  0  0  0  0
   22.4209   42.2616   35.4926 O   0  0  0  0  0  0  0  0  0  0  0  0
   22.2116   42.1108   37.9187 O   0  0  0  0  0  0  0  0  0  0  0  0
   21.4496   44.1946   36.7657 O   0  0  0  0  0  0  0  0  0  0  0  0
   22.3086   41.1521   37.8069 H   0  0  0  0  0  0  0  0  0  0  0  0
   21.0730   44.5214   35.9337 H   0  0  0  0  0  0  0  0  0  0  0  0
 17 16  1  0  0  0
 16 15  2  0  0  0
 16 18  1  0  0  0
 15 13  1  0  0  0
  2  1  1  0  0  0
  2  7  1  0  0  0
 14 13  2  0  0  0
 13 12  1  0  0  0
 18  1  1  0  0  0
 18 11  1  0  0  0
  1  3  1  0  0  0
  7 20  1  0  0  0
  7  5  1  0  0  0
 12 11  1  0  0  0
 11 10  2  0  0  0
  6  5  1  0  0  0
 20 21  1  0  0  0
  5  3  1  0  0  0
  3  4  1  0  0  0
 23 22  2  0  0  0
 21 22  1  0  0  0
 22 24  1  0  0  0
 22 25  1  0  0  0
 12 19  1  0  0  0
  4  8  1  0  0  0
  6  9  1  0  0  0
 24 26  1  0  0  0
 25 27  1  0  0  0
M  END
> <minimizedAffinity>
-8.84850

$$$$
3WJW_U6M_A_301


 27 28  0  0  0  0  0  0  0  0999 V2000
   19.0742   38.5258   37.8814 C   0  0  0  0  0  0  0  0  0  0  0  0
   17.7086   38.8282   38.2666 O   0  0  0  0  0  0  0  0  0  0  0  0
   19.2607   39.1348   36.5264 C   0  0  0  0  0  0  0  0  0  0  0  0
   20.6310   39.4978   36.4021 O   0  0  0  0  0  0  0  0  0  0  0  0
   18.3827   40.3606   36.6017 C   0  0  0  0  0  0  0  0  0  0  0  0
   19.0483   41.3742   37.3797 O   0  0  0  0  0  0  0  0  0  0  0  0
   17.2014   39.8771   37.4128 C   0  0  0  0  0  0  0  0  0  0  0  0
   20.8818   40.0718   37.1427 H   0  0  0  0  0  0  0  0  0  0  0  0
   19.2734   41.0160   38.2526 H   0  0  0  0  0  0  0  0  0  0  0  0
   20.9273   37.1500   39.4333 O   0  0  0  0  0  0  0  0  0  0  0  0
   20.0912   36.4511   38.8353 C   0  0  0  0  0  0  0  0  0  0  0  0
   20.1271   35.1089   39.0080 N   0  0  0  0  0  0  0  0  0  0  0  0
   19.2257   34.3175   38.4074 C   0  0  0  0  0  0  0  0  0  0  0  0
   19.3691   33.0739   38.5674 O   0  0  0  0  0  0  0  0  0  0  0  0
   18.4573   34.8278   37.3720 C   0  0  0  0  0  0  0  0  0  0  0  0
   18.4803   36.1854   37.0591 C   0  0  0  0  0  0  0  0  0  0  0  0
   18.1480   36.5994   35.6429 C   0  0  0  0  0  0  0  0  0  0  0  0
   19.1922   37.0499   37.9705 N   0  0  0  0  0  0  0  0  0  0  0  0
   20.8218   34.7096   39.5800 H   0  0  0  0  0  0  0  0  0  0  0  0
   16.0652   39.2908   36.5820 C   0  0  0  0  0  0  0  0  0  0  0  0
   15.8217   40.2941   35.5777 O   0  0  0  0  0  0  0  0  0  0  0  0
   14.5389   41.2714   35.6882 P   0  0  0  0  0  0  0  0  0  0  0  0
   14.8427   42.2700   36.7501 O   0  0  0  0  0  0  0  0  0  0  0  0
   13.3384   40.4775   36.0599 O   0  0  0  0  0  0  0  0  0  0  0  0
   14.4491   41.8685   34.3038 O   0  0  0  0  0  0  0  0  0  0  0  0
   13.4514   40.1201   36.9545 H   0  0  0  0  0  0  0  0  0  0  0  0
   15.2560   42.3731   34.1164 H   0  0  0  0  0  0  0  0  0  0  0  0
 17 16  1  0  0  0
 16 15  2  0  0  0
 16 18  1  0  0  0
 15 13  1  0  0  0
  2  1  1  0  0  0
  2  7  1  0  0  0
 14 13  2  0  0  0
 13 12  1  0  0  0
 18  1  1  0  0  0
 18 11  1  0  0  0
  1  3  1  0  0  0
  7 20  1  0  0  0
  7  5  1  0  0  0
 12 11  1  0  0  0
 11 10  2  0  0  0
  6  5  1  0  0  0
 20 21  1  0  0  0
  5  3  1  0  0  0
  3  4  1  0  0  0
 23 22  2  0  0  0
 21 22  1  0  0  0
 22 24  1  0  0  0
 22 25  1  0  0  0
 12 19  1  0  0  0
  4  8  1  0  0  0
  6  9  1  0  0  0
 24 26  1  0  0  0
 25 27  1  0  0  0
M  END
> <minimizedAffinity>
-8.73318

$$$$
3WJW_U6M_A_301


 27 28  0  0  0  0  0  0  0  0999 V2000
   17.8809   38.0885   36.3350 C   0  0  0  0  0  0  0  0  0  0  0  0
   19.0876   38.7570   35.8858 O   0  0  0  0  0  0  0  0  0  0  0  0
   17.0695   39.1358   37.0325 C   0  0  0  0  0  0  0  0  0  0  0  0
   15.6970   38.7970   36.8693 O   0  0  0  0  0  0  0  0  0  0  0  0
   17.4138   40.3814   36.2522 C   0  0  0  0  0  0  0  0  0  0  0  0
   16.7041   40.3677   34.9985 O   0  0  0  0  0  0  0  0  0  0  0  0
   18.8803   40.1856   35.9387 C   0  0  0  0  0  0  0  0  0  0  0  0
   15.4997   38.6930   35.9253 H   0  0  0  0  0  0  0  0  0  0  0  0
   16.9119   39.5510   34.5182 H   0  0  0  0  0  0  0  0  0  0  0  0
   16.8444   35.5094   36.2426 O   0  0  0  0  0  0  0  0  0  0  0  0
   17.8265   35.6758   36.9861 C   0  0  0  0  0  0  0  0  0  0  0  0
   18.3229   34.6067   37.6520 N   0  0  0  0  0  0  0  0  0  0  0  0
   19.4002   34.7323   38.4413 C   0  0  0  0  0  0  0  0  0  0  0  0
   19.7589   33.7027   39.0769 O   0  0  0  0  0  0  0  0  0  0  0  0
   19.8176   35.9982   38.8239 C   0  0  0  0  0  0  0  0  0  0  0  0
   19.2484   37.1427   38.2693 C   0  0  0  0  0  0  0  0  0  0  0  0
   19.2672   38.4177   39.0826 C   0  0  0  0  0  0  0  0  0  0  0  0
   18.3455   36.9466   37.1598 N   0  0  0  0  0  0  0  0  0  0  0  0
   17.8888   33.7283   37.5560 H   0  0  0  0  0  0  0  0  0  0  0  0
   19.8295   40.7539   36.9879 C   0  0  0  0  0  0  0  0  0  0  0  0
   20.0861   42.0945   36.5278 O   0  0  0  0  0  0  0  0  0  0  0  0
   21.5698   42.7277   36.6311 P   0  0  0  0  0  0  0  0  0  0  0  0
   22.3280   42.2563   35.4395 O   0  0  0  0  0  0  0  0  0  0  0  0
   22.2277   42.2543   37.8771 O   0  0  0  0  0  0  0  0  0  0  0  0
   21.3032   44.2143   36.6297 O   0  0  0  0  0  0  0  0  0  0  0  0
   22.3736   41.2969   37.8221 H   0  0  0  0  0  0  0  0  0  0  0  0
   20.8750   44.4652   35.7964 H   0  0  0  0  0  0  0  0  0  0  0  0
 17 16  1  0  0  0
 16 15  2  0  0  0
 16 18  1  0  0  0
 15 13  1  0  0  0
  2  1  1  0  0  0
  2  7  1  0  0  0
 14 13  2  0  0  0
 13 12  1  0  0  0
 18  1  1  0  0  0
 18 11  1  0  0  0
  1  3  1  0  0  0
  7 20  1  0  0  0
  7  5  1  0  0  0
 12 11  1  0  0  0
 11 10  2  0  0  0
  6  5  1  0  0  0
 20 21  1  0  0  0
  5  3  1  0  0  0
  3  4  1  0  0  0
 23 22  2  0  0  0
 21 22  1  0  0  0
 22 24  1  0  0  0
 22 25  1  0  0  0
 12 19  1  0  0  0
  4  8  1  0  0  0
  6  9  1  0  0  0
 24 26  1  0  0  0
 25 27  1  0  0  0
M  END
> <minimizedAffinity>
-8.42768

$$$$
3WJW_U6M_A_301


 27 28  0  0  0  0  0  0  0  0999 V2000
   18.9876   38.7987   37.7885 C   0  0  0  0  0  0  0  0  0  0  0  0
   17.6009   39.1652   38.0059 O   0  0  0  0  0  0  0  0  0  0  0  0
   19.3100   39.2306   36.3916 C   0  0  0  0  0  0  0  0  0  0  0  0
   20.6945   39.5569   36.3502 O   0  0  0  0  0  0  0  0  0  0  0  0
   18.4594   40.4677   36.2336 C   0  0  0  0  0  0  0  0  0  0  0  0
   19.0772   41.5619   36.9385 O   0  0  0  0  0  0  0  0  0  0  0  0
   17.1984   40.1055   36.9859 C   0  0  0  0  0  0  0  0  0  0  0  0
   20.8919   40.2158   37.0342 H   0  0  0  0  0  0  0  0  0  0  0  0
   19.2141   41.3129   37.8659 H   0  0  0  0  0  0  0  0  0  0  0  0
   17.3685   36.8532   36.6359 O   0  0  0  0  0  0  0  0  0  0  0  0
   18.2696   36.4386   37.3850 C   0  0  0  0  0  0  0  0  0  0  0  0
   18.4093   35.1024   37.5517 N   0  0  0  0  0  0  0  0  0  0  0  0
   19.3868   34.6081   38.3260 C   0  0  0  0  0  0  0  0  0  0  0  0
   19.4071   33.3558   38.4809 O   0  0  0  0  0  0  0  0  0  0  0  0
   20.0549   35.4539   39.1986 C   0  0  0  0  0  0  0  0  0  0  0  0
   19.8509   36.8318   39.1642 C   0  0  0  0  0  0  0  0  0  0  0  0
   20.0881   37.6225   40.4314 C   0  0  0  0  0  0  0  0  0  0  0  0
   19.0607   37.3441   38.0697 N   0  0  0  0  0  0  0  0  0  0  0  0
   17.7873   34.4873   37.1001 H   0  0  0  0  0  0  0  0  0  0  0  0
   16.1273   39.4349   36.1329 C   0  0  0  0  0  0  0  0  0  0  0  0
   14.9025   40.0525   36.5724 O   0  0  0  0  0  0  0  0  0  0  0  0
   14.1245   41.1014   35.6198 P   0  0  0  0  0  0  0  0  0  0  0  0
   14.9492   41.2679   34.3913 O   0  0  0  0  0  0  0  0  0  0  0  0
   13.9840   42.4034   36.3229 O   0  0  0  0  0  0  0  0  0  0  0  0
   12.8017   40.4158   35.3724 O   0  0  0  0  0  0  0  0  0  0  0  0
   14.8611   42.7963   36.4542 H   0  0  0  0  0  0  0  0  0  0  0  0
   12.9541   39.5751   34.9131 H   0  0  0  0  0  0  0  0  0  0  0  0
 17 16  1  0  0  0
 16 15  2  0  0  0
 16 18  1  0  0  0
 15 13  1  0  0  0
  2  1  1  0  0  0
  2  7  1  0  0  0
 14 13  2  0  0  0
 13 12  1  0  0  0
 18  1  1  0  0  0
 18 11  1  0  0  0
  1  3  1  0  0  0
  7 20  1  0  0  0
  7  5  1  0  0  0
 12 11  1  0  0  0
 11 10  2  0  0  0
  6  5  1  0  0  0
 20 21  1  0  0  0
  5  3  1  0  0  0
  3  4  1  0  0  0
 23 22  2  0  0  0
 21 22  1  0  0  0
 22 24  1  0  0  0
 22 25  1  0  0  0
 12 19  1  0  0  0
  4  8  1  0  0  0
  6  9  1  0  0  0
 24 26  1  0  0  0
 25 27  1  0  0  0
M  END
> <minimizedAffinity>
-8.26054

$$$$
3WJW_U6M_A_301


 27 28  0  0  0  0  0  0  0  0999 V2000
   18.0469   40.0900   35.4103 C   0  0  0  0  0  0  0  0  0  0  0  0
   18.1149   38.6622   35.1625 O   0  0  0  0  0  0  0  0  0  0  0  0
   18.5783   40.2897   36.7958 C   0  0  0  0  0  0  0  0  0  0  0  0
   19.1823   41.5773   36.8441 O   0  0  0  0  0  0  0  0  0  0  0  0
   19.6193   39.2014   36.9004 C   0  0  0  0  0  0  0  0  0  0  0  0
   20.7947   39.5966   36.1669 O   0  0  0  0  0  0  0  0  0  0  0  0
   18.9837   38.0562   36.1445 C   0  0  0  0  0  0  0  0  0  0  0  0
   19.8463   41.6495   36.1407 H   0  0  0  0  0  0  0  0  0  0  0  0
   20.5506   39.7998   35.2503 H   0  0  0  0  0  0  0  0  0  0  0  0
   17.1384   41.8023   33.4159 O   0  0  0  0  0  0  0  0  0  0  0  0
   16.2612   41.2582   34.1084 C   0  0  0  0  0  0  0  0  0  0  0  0
   14.9622   41.5107   33.8233 N   0  0  0  0  0  0  0  0  0  0  0  0
   13.9811   40.9220   34.5236 C   0  0  0  0  0  0  0  0  0  0  0  0
   12.7997   41.2616   34.2377 O   0  0  0  0  0  0  0  0  0  0  0  0
   14.2830   40.3057   35.7287 C   0  0  0  0  0  0  0  0  0  0  0  0
   15.6033   40.1363   36.1404 C   0  0  0  0  0  0  0  0  0  0  0  0
   15.8836   40.0364   37.6232 C   0  0  0  0  0  0  0  0  0  0  0  0
   16.6302   40.4640   35.1797 N   0  0  0  0  0  0  0  0  0  0  0  0
   14.7351   42.1326   33.0946 H   0  0  0  0  0  0  0  0  0  0  0  0
   18.1344   37.1279   37.0059 C   0  0  0  0  0  0  0  0  0  0  0  0
   18.9780   35.9774   37.2047 O   0  0  0  0  0  0  0  0  0  0  0  0
   19.7740   35.7743   38.5968 P   0  0  0  0  0  0  0  0  0  0  0  0
   19.7053   34.3246   38.9299 O   0  0  0  0  0  0  0  0  0  0  0  0
   19.1223   36.5768   39.6649 O   0  0  0  0  0  0  0  0  0  0  0  0
   21.1668   36.2530   38.2622 O   0  0  0  0  0  0  0  0  0  0  0  0
   18.2347   36.2257   39.8372 H   0  0  0  0  0  0  0  0  0  0  0  0
   21.5411   35.6951   37.5626 H   0  0  0  0  0  0  0  0  0  0  0  0
 17 16  1  0  0  0
 16 15  2  0  0  0
 16 18  1  0  0  0
 15 13  1  0  0  0
  2  1  1  0  0  0
  2  7  1  0  0  0
 14 13  2  0  0  0
 13 12  1  0  0  0
 18  1  1  0  0  0
 18 11  1  0  0  0
  1  3  1  0  0  0
  7 20  1  0  0  0
  7  5  1  0  0  0
 12 11  1  0  0  0
 11 10  2  0  0  0
  6  5  1  0  0  0
 20 21  1  0  0  0
  5  3  1  0  0  0
  3  4  1  0  0  0
 23 22  2  0  0  0
 21 22  1  0  0  0
 22 24  1  0  0  0
 22 25  1  0  0  0
 12 19  1  0  0  0
  4  8  1  0  0  0
  6  9  1  0  0  0
 24 26  1  0  0  0
 25 27  1  0  0  0
M  END
> <minimizedAffinity>
-8.23903

$$$$
3WJW_U6M_A_301


 27 28  0  0  0  0  0  0  0  0999 V2000
   19.6348   38.2680   38.2084 C   0  0  0  0  0  0  0  0  0  0  0  0
   20.1938   37.4179   37.1742 O   0  0  0  0  0  0  0  0  0  0  0  0
   19.2832   37.3548   39.3417 C   0  0  0  0  0  0  0  0  0  0  0  0
   19.4095   38.0979   40.5488 O   0  0  0  0  0  0  0  0  0  0  0  0
   20.3550   36.2962   39.2455 C   0  0  0  0  0  0  0  0  0  0  0  0
   21.5887   36.8200   39.7742 O   0  0  0  0  0  0  0  0  0  0  0  0
   20.5383   36.1398   37.7525 C   0  0  0  0  0  0  0  0  0  0  0  0
   20.2981   38.4837   40.5994 H   0  0  0  0  0  0  0  0  0  0  0  0
   21.8205   37.6367   39.3051 H   0  0  0  0  0  0  0  0  0  0  0  0
   17.4164   37.0725   37.0316 O   0  0  0  0  0  0  0  0  0  0  0  0
   17.4067   38.3146   37.0761 C   0  0  0  0  0  0  0  0  0  0  0  0
   16.3279   38.9716   36.5890 N   0  0  0  0  0  0  0  0  0  0  0  0
   16.2597   40.3102   36.6439 C   0  0  0  0  0  0  0  0  0  0  0  0
   15.2508   40.8476   36.1091 O   0  0  0  0  0  0  0  0  0  0  0  0
   17.4101   41.0382   36.9079 C   0  0  0  0  0  0  0  0  0  0  0  0
   18.5926   40.4053   37.2853 C   0  0  0  0  0  0  0  0  0  0  0  0
   19.9029   41.0986   36.9857 C   0  0  0  0  0  0  0  0  0  0  0  0
   18.5121   38.9904   37.5620 N   0  0  0  0  0  0  0  0  0  0  0  0
   15.5860   38.4618   36.1904 H   0  0  0  0  0  0  0  0  0  0  0  0
   19.6408   35.0848   37.1152 C   0  0  0  0  0  0  0  0  0  0  0  0
   19.3905   34.1551   38.1866 O   0  0  0  0  0  0  0  0  0  0  0  0
   18.4719   32.8479   37.9408 P   0  0  0  0  0  0  0  0  0  0  0  0
   17.3141   32.9484   38.8717 O   0  0  0  0  0  0  0  0  0  0  0  0
   19.2605   31.6226   38.2344 O   0  0  0  0  0  0  0  0  0  0  0  0
   18.0904   32.9723   36.4848 O   0  0  0  0  0  0  0  0  0  0  0  0
   19.4763   31.5957   39.1797 H   0  0  0  0  0  0  0  0  0  0  0  0
   17.5798   33.7864   36.3528 H   0  0  0  0  0  0  0  0  0  0  0  0
 17 16  1  0  0  0
 16 15  2  0  0  0
 16 18  1  0  0  0
 15 13  1  0  0  0
  2  1  1  0  0  0
  2  7  1  0  0  0
 14 13  2  0  0  0
 13 12  1  0  0  0
 18  1  1  0  0  0
 18 11  1  0  0  0
  1  3  1  0  0  0
  7 20  1  0  0  0
  7  5  1  0  0  0
 12 11  1  0  0  0
 11 10  2  0  0  0
  6  5  1  0  0  0
 20 21  1  0  0  0
  5  3  1  0  0  0
  3  4  1  0  0  0
 23 22  2  0  0  0
 21 22  1  0  0  0
 22 24  1  0  0  0
 22 25  1  0  0  0
 12 19  1  0  0  0
  4  8  1  0  0  0
  6  9  1  0  0  0
 24 26  1  0  0  0
 25 27  1  0  0  0
M  END
> <minimizedAffinity>
-8.20383

$$$$
3WJW_U6M_A_301


 27 28  0  0  0  0  0  0  0  0999 V2000
   18.6750   38.6378   37.6693 C   0  0  0  0  0  0  0  0  0  0  0  0
   17.3298   39.1731   37.5761 O   0  0  0  0  0  0  0  0  0  0  0  0
   19.4661   39.3340   36.6056 C   0  0  0  0  0  0  0  0  0  0  0  0
   20.8133   39.4179   37.0562 O   0  0  0  0  0  0  0  0  0  0  0  0
   18.8235   40.6995   36.5695 C   0  0  0  0  0  0  0  0  0  0  0  0
   19.2753   41.4670   37.7020 O   0  0  0  0  0  0  0  0  0  0  0  0
   17.3610   40.3876   36.7947 C   0  0  0  0  0  0  0  0  0  0  0  0
   20.8373   39.8470   37.9258 H   0  0  0  0  0  0  0  0  0  0  0  0
   19.0843   40.9806   38.5192 H   0  0  0  0  0  0  0  0  0  0  0  0
   19.3828   36.7642   39.5989 O   0  0  0  0  0  0  0  0  0  0  0  0
   18.8272   36.3155   38.5816 C   0  0  0  0  0  0  0  0  0  0  0  0
   18.5867   34.9853   38.5085 N   0  0  0  0  0  0  0  0  0  0  0  0
   17.9619   34.4605   37.4437 C   0  0  0  0  0  0  0  0  0  0  0  0
   17.8354   33.2050   37.4241 O   0  0  0  0  0  0  0  0  0  0  0  0
   17.8409   35.2160   36.2871 C   0  0  0  0  0  0  0  0  0  0  0  0
   18.2000   36.5621   36.2650 C   0  0  0  0  0  0  0  0  0  0  0  0
   18.6228   37.1686   34.9457 C   0  0  0  0  0  0  0  0  0  0  0  0
   18.5258   37.1682   37.5343 N   0  0  0  0  0  0  0  0  0  0  0  0
   18.8732   34.3972   39.2442 H   0  0  0  0  0  0  0  0  0  0  0  0
   16.5666   40.1382   35.5173 C   0  0  0  0  0  0  0  0  0  0  0  0
   17.1141   41.0874   34.5824 O   0  0  0  0  0  0  0  0  0  0  0  0
   16.3066   41.4721   33.2359 P   0  0  0  0  0  0  0  0  0  0  0  0
   16.6382   40.4364   32.2188 O   0  0  0  0  0  0  0  0  0  0  0  0
   16.7389   42.8128   32.7617 O   0  0  0  0  0  0  0  0  0  0  0  0
   14.8652   41.4389   33.6857 O   0  0  0  0  0  0  0  0  0  0  0  0
   17.6683   42.7744   32.4869 H   0  0  0  0  0  0  0  0  0  0  0  0
   14.6397   40.5436   33.9830 H   0  0  0  0  0  0  0  0  0  0  0  0
 17 16  1  0  0  0
 16 15  2  0  0  0
 16 18  1  0  0  0
 15 13  1  0  0  0
  2  1  1  0  0  0
  2  7  1  0  0  0
 14 13  2  0  0  0
 13 12  1  0  0  0
 18  1  1  0  0  0
 18 11  1  0  0  0
  1  3  1  0  0  0
  7 20  1  0  0  0
  7  5  1  0  0  0
 12 11  1  0  0  0
 11 10  2  0  0  0
  6  5  1  0  0  0
 20 21  1  0  0  0
  5  3  1  0  0  0
  3  4  1  0  0  0
 23 22  2  0  0  0
 21 22  1  0  0  0
 22 24  1  0  0  0
 22 25  1  0  0  0
 12 19  1  0  0  0
  4  8  1  0  0  0
  6  9  1  0  0  0
 24 26  1  0  0  0
 25 27  1  0  0  0
M  END
> <minimizedAffinity>
-8.14639

$$$$
3WJW_U6M_A_301


 27 28  0  0  0  0  0  0  0  0999 V2000
   17.5481   36.3339   37.2286 C   0  0  0  0  0  0  0  0  0  0  0  0
   18.2834   36.3435   38.4791 O   0  0  0  0  0  0  0  0  0  0  0  0
   18.3830   35.5429   36.2700 C   0  0  0  0  0  0  0  0  0  0  0  0
   17.5007   34.9149   35.3468 O   0  0  0  0  0  0  0  0  0  0  0  0
   19.0316   34.5232   37.1748 C   0  0  0  0  0  0  0  0  0  0  0  0
   18.0702   33.5026   37.5061 O   0  0  0  0  0  0  0  0  0  0  0  0
   19.2966   35.3149   38.4358 C   0  0  0  0  0  0  0  0  0  0  0  0
   16.8400   34.3967   35.8323 H   0  0  0  0  0  0  0  0  0  0  0  0
   17.2853   33.9137   37.9008 H   0  0  0  0  0  0  0  0  0  0  0  0
   15.0882   37.4645   36.5916 O   0  0  0  0  0  0  0  0  0  0  0  0
   16.0461   38.2527   36.6711 C   0  0  0  0  0  0  0  0  0  0  0  0
   15.8162   39.5727   36.4778 N   0  0  0  0  0  0  0  0  0  0  0  0
   16.8134   40.4636   36.5843 C   0  0  0  0  0  0  0  0  0  0  0  0
   16.5285   41.6653   36.3245 O   0  0  0  0  0  0  0  0  0  0  0  0
   18.1261   40.0166   36.5817 C   0  0  0  0  0  0  0  0  0  0  0  0
   18.4244   38.6570   36.6441 C   0  0  0  0  0  0  0  0  0  0  0  0
   19.7346   38.1837   36.0553 C   0  0  0  0  0  0  0  0  0  0  0  0
   17.3202   37.7607   36.8932 N   0  0  0  0  0  0  0  0  0  0  0  0
   14.9080   39.8819   36.2570 H   0  0  0  0  0  0  0  0  0  0  0  0
   20.6573   36.0018   38.4734 C   0  0  0  0  0  0  0  0  0  0  0  0
   20.9243   36.1570   39.8803 O   0  0  0  0  0  0  0  0  0  0  0  0
   20.8285   37.6120   40.5781 P   0  0  0  0  0  0  0  0  0  0  0  0
   22.1690   37.9070   41.1552 O   0  0  0  0  0  0  0  0  0  0  0  0
   19.8030   37.5821   41.6537 O   0  0  0  0  0  0  0  0  0  0  0  0
   20.4534   38.5145   39.4266 O   0  0  0  0  0  0  0  0  0  0  0  0
   20.0959   36.9893   42.3634 H   0  0  0  0  0  0  0  0  0  0  0  0
   21.1559   38.4946   38.7581 H   0  0  0  0  0  0  0  0  0  0  0  0
 17 16  1  0  0  0
 16 15  2  0  0  0
 16 18  1  0  0  0
 15 13  1  0  0  0
  2  1  1  0  0  0
  2  7  1  0  0  0
 14 13  2  0  0  0
 13 12  1  0  0  0
 18  1  1  0  0  0
 18 11  1  0  0  0
  1  3  1  0  0  0
  7 20  1  0  0  0
  7  5  1  0  0  0
 12 11  1  0  0  0
 11 10  2  0  0  0
  6  5  1  0  0  0
 20 21  1  0  0  0
  5  3  1  0  0  0
  3  4  1  0  0  0
 23 22  2  0  0  0
 21 22  1  0  0  0
 22 24  1  0  0  0
 22 25  1  0  0  0
 12 19  1  0  0  0
  4  8  1  0  0  0
  6  9  1  0  0  0
 24 26  1  0  0  0
 25 27  1  0  0  0
M  END
> <minimizedAffinity>
-7.93480

$$$$
