2JIW_BEU_A_1594


 21 21  0  0  0  0  0  0  0  0999 V2000
    5.1092  -11.8414    2.4146 C   0  0  0  0  0  0  0  0  0  0  0  0
    5.1014  -12.5436    3.5627 C   0  0  0  0  0  0  0  0  0  0  0  0
    6.3848  -12.9405    4.2477 C   0  0  0  0  0  0  0  0  0  0  0  0
    6.8121  -14.2407    3.7105 N   0  0  0  0  0  0  0  0  0  0  0  0
    7.4936  -11.8605    4.1300 C   0  0  0  0  0  0  0  0  0  0  0  0
    7.2382  -10.7833    3.0651 C   0  0  0  0  0  0  0  0  0  0  0  0
    8.4922  -10.2582    2.6155 O   0  0  0  0  0  0  0  0  0  0  0  0
    6.4342  -11.3487    1.8785 C   0  0  0  0  0  0  0  0  0  0  0  0
    6.2519  -10.3164    0.9050 O   0  0  0  0  0  0  0  0  0  0  0  0
    6.9836  -14.1549    2.7087 H   0  0  0  0  0  0  0  0  0  0  0  0
    6.0801  -14.9324    3.8721 H   0  0  0  0  0  0  0  0  0  0  0  0
    9.0179  -10.9708    2.2197 H   0  0  0  0  0  0  0  0  0  0  0  0
    5.7877   -9.5676    1.3108 H   0  0  0  0  0  0  0  0  0  0  0  0
    7.8116  -11.2411    5.4207 N   0  0  0  0  0  0  0  0  0  0  0  0
    6.9465  -10.4993    6.1234 C   0  0  0  0  0  0  0  0  0  0  0  0
    5.8243  -10.2829    5.7376 O   0  0  0  0  0  0  0  0  0  0  0  0
    7.4153   -9.9501    7.4282 C   0  0  0  0  0  0  0  0  0  0  0  0
    8.7130  -11.3788    5.7918 H   0  0  0  0  0  0  0  0  0  0  0  0
    3.7810  -11.5544    1.7416 C   0  0  0  0  0  0  0  0  0  0  0  0
    3.6172  -12.4185    0.6244 O   0  0  0  0  0  0  0  0  0  0  0  0
    3.6340  -13.3409    0.9239 H   0  0  0  0  0  0  0  0  0  0  0  0
 19 20  1  0  0  0
 19  1  1  0  0  0
  1  2  2  0  0  0
  1  8  1  0  0  0
  2  3  1  0  0  0
  3  4  1  0  0  0
  3  5  1  0  0  0
  5 14  1  0  0  0
  5  6  1  0  0  0
 14 15  1  0  0  0
 15 16  2  0  0  0
 15 17  1  0  0  0
  6  7  1  0  0  0
  6  8  1  0  0  0
  8  9  1  0  0  0
 20 21  1  0  0  0
  4 10  1  0  0  0
  4 11  1  0  0  0
 14 18  1  0  0  0
  7 12  1  0  0  0
  9 13  1  0  0  0
M  END
> <minimizedAffinity>
-9.36491

$$$$
2JIW_BEU_A_1594


 21 21  0  0  0  0  0  0  0  0999 V2000
    6.6247  -12.5066    3.7659 C   0  0  0  0  0  0  0  0  0  0  0  0
    6.9390  -13.7669    3.4137 C   0  0  0  0  0  0  0  0  0  0  0  0
    6.1060  -14.5335    2.4176 C   0  0  0  0  0  0  0  0  0  0  0  0
    5.0415  -15.2358    3.1491 N   0  0  0  0  0  0  0  0  0  0  0  0
    5.5476  -13.6387    1.2786 C   0  0  0  0  0  0  0  0  0  0  0  0
    5.6172  -12.1280    1.5485 C   0  0  0  0  0  0  0  0  0  0  0  0
    4.5844  -11.4688    0.8076 O   0  0  0  0  0  0  0  0  0  0  0  0
    5.4815  -11.8212    3.0524 C   0  0  0  0  0  0  0  0  0  0  0  0
    5.5212  -10.4041    3.2443 O   0  0  0  0  0  0  0  0  0  0  0  0
    4.4483  -14.5547    3.6231 H   0  0  0  0  0  0  0  0  0  0  0  0
    5.4584  -15.8616    3.8383 H   0  0  0  0  0  0  0  0  0  0  0  0
    3.7189  -11.7984    1.0959 H   0  0  0  0  0  0  0  0  0  0  0  0
    6.3553  -10.0537    2.8944 H   0  0  0  0  0  0  0  0  0  0  0  0
    6.1412  -13.9552   -0.0245 N   0  0  0  0  0  0  0  0  0  0  0  0
    5.9753  -15.1254   -0.6535 C   0  0  0  0  0  0  0  0  0  0  0  0
    5.3147  -16.0189   -0.1843 O   0  0  0  0  0  0  0  0  0  0  0  0
    6.6316  -15.2892   -1.9824 C   0  0  0  0  0  0  0  0  0  0  0  0
    6.6935  -13.2676   -0.4620 H   0  0  0  0  0  0  0  0  0  0  0  0
    7.4601  -11.8328    4.8371 C   0  0  0  0  0  0  0  0  0  0  0  0
    8.2085  -10.7710    4.2592 O   0  0  0  0  0  0  0  0  0  0  0  0
    7.6016  -10.1228    3.8687 H   0  0  0  0  0  0  0  0  0  0  0  0
 19 20  1  0  0  0
 19  1  1  0  0  0
  1  2  2  0  0  0
  1  8  1  0  0  0
  2  3  1  0  0  0
  3  4  1  0  0  0
  3  5  1  0  0  0
  5 14  1  0  0  0
  5  6  1  0  0  0
 14 15  1  0  0  0
 15 16  2  0  0  0
 15 17  1  0  0  0
  6  7  1  0  0  0
  6  8  1  0  0  0
  8  9  1  0  0  0
 20 21  1  0  0  0
  4 10  1  0  0  0
  4 11  1  0  0  0
 14 18  1  0  0  0
  7 12  1  0  0  0
  9 13  1  0  0  0
M  END
> <minimizedAffinity>
-7.31019

$$$$
2JIW_BEU_A_1594


 21 21  0  0  0  0  0  0  0  0999 V2000
    6.1648  -15.2767    0.4971 C   0  0  0  0  0  0  0  0  0  0  0  0
    5.9098  -13.9586    0.5907 C   0  0  0  0  0  0  0  0  0  0  0  0
    5.3927  -13.3489    1.8692 C   0  0  0  0  0  0  0  0  0  0  0  0
    3.9239  -13.4094    1.8488 N   0  0  0  0  0  0  0  0  0  0  0  0
    5.9925  -14.0074    3.1406 C   0  0  0  0  0  0  0  0  0  0  0  0
    6.6897  -15.3556    2.9041 C   0  0  0  0  0  0  0  0  0  0  0  0
    6.6405  -16.1293    4.1079 O   0  0  0  0  0  0  0  0  0  0  0  0
    6.0371  -16.1269    1.7407 C   0  0  0  0  0  0  0  0  0  0  0  0
    6.7019  -17.3839    1.5840 O   0  0  0  0  0  0  0  0  0  0  0  0
    3.6243  -14.3833    1.8009 H   0  0  0  0  0  0  0  0  0  0  0  0
    3.5741  -12.9056    1.0337 H   0  0  0  0  0  0  0  0  0  0  0  0
    5.7154  -16.2936    4.3491 H   0  0  0  0  0  0  0  0  0  0  0  0
    7.6443  -17.2320    1.4117 H   0  0  0  0  0  0  0  0  0  0  0  0
    6.8725  -13.0973    3.8808 N   0  0  0  0  0  0  0  0  0  0  0  0
    6.4302  -12.1574    4.7255 C   0  0  0  0  0  0  0  0  0  0  0  0
    5.2555  -11.9887    4.9410 O   0  0  0  0  0  0  0  0  0  0  0  0
    7.4524  -11.3194    5.4158 C   0  0  0  0  0  0  0  0  0  0  0  0
    7.8444  -13.1824    3.7490 H   0  0  0  0  0  0  0  0  0  0  0  0
    6.6005  -15.8283   -0.8466 C   0  0  0  0  0  0  0  0  0  0  0  0
    5.8927  -15.1643   -1.8856 O   0  0  0  0  0  0  0  0  0  0  0  0
    6.0832  -14.2138   -1.8504 H   0  0  0  0  0  0  0  0  0  0  0  0
 19 20  1  0  0  0
 19  1  1  0  0  0
  1  2  2  0  0  0
  1  8  1  0  0  0
  2  3  1  0  0  0
  3  4  1  0  0  0
  3  5  1  0  0  0
  5 14  1  0  0  0
  5  6  1  0  0  0
 14 15  1  0  0  0
 15 16  2  0  0  0
 15 17  1  0  0  0
  6  7  1  0  0  0
  6  8  1  0  0  0
  8  9  1  0  0  0
 20 21  1  0  0  0
  4 10  1  0  0  0
  4 11  1  0  0  0
 14 18  1  0  0  0
  7 12  1  0  0  0
  9 13  1  0  0  0
M  END
> <minimizedAffinity>
-7.16938

$$$$
2JIW_BEU_A_1594


 21 21  0  0  0  0  0  0  0  0999 V2000
    6.0168  -11.8859    3.0884 C   0  0  0  0  0  0  0  0  0  0  0  0
    7.0505  -12.7474    3.1112 C   0  0  0  0  0  0  0  0  0  0  0  0
    6.8691  -14.1997    2.7481 C   0  0  0  0  0  0  0  0  0  0  0  0
    6.5093  -14.9391    3.9669 N   0  0  0  0  0  0  0  0  0  0  0  0
    5.8428  -14.4144    1.6034 C   0  0  0  0  0  0  0  0  0  0  0  0
    4.9450  -13.2047    1.3030 C   0  0  0  0  0  0  0  0  0  0  0  0
    3.7110  -13.6620    0.7389 O   0  0  0  0  0  0  0  0  0  0  0  0
    4.6816  -12.3738    2.5736 C   0  0  0  0  0  0  0  0  0  0  0  0
    3.8181  -11.2814    2.2454 O   0  0  0  0  0  0  0  0  0  0  0  0
    5.6304  -14.5774    4.3370 H   0  0  0  0  0  0  0  0  0  0  0  0
    7.2449  -14.8238    4.6641 H   0  0  0  0  0  0  0  0  0  0  0  0
    3.2581  -14.2372    1.3752 H   0  0  0  0  0  0  0  0  0  0  0  0
    4.2321  -10.7375    1.5571 H   0  0  0  0  0  0  0  0  0  0  0  0
    6.4710  -14.9056    0.3726 N   0  0  0  0  0  0  0  0  0  0  0  0
    5.9648  -15.8908   -0.3794 C   0  0  0  0  0  0  0  0  0  0  0  0
    4.9381  -16.4553   -0.0925 O   0  0  0  0  0  0  0  0  0  0  0  0
    6.7140  -16.2669   -1.6126 C   0  0  0  0  0  0  0  0  0  0  0  0
    7.3134  -14.4867    0.0827 H   0  0  0  0  0  0  0  0  0  0  0  0
    6.2608  -10.4620    3.5493 C   0  0  0  0  0  0  0  0  0  0  0  0
    5.8449  -10.3217    4.9016 O   0  0  0  0  0  0  0  0  0  0  0  0
    6.3507  -10.9323    5.4604 H   0  0  0  0  0  0  0  0  0  0  0  0
 19 20  1  0  0  0
 19  1  1  0  0  0
  1  2  2  0  0  0
  1  8  1  0  0  0
  2  3  1  0  0  0
  3  4  1  0  0  0
  3  5  1  0  0  0
  5 14  1  0  0  0
  5  6  1  0  0  0
 14 15  1  0  0  0
 15 16  2  0  0  0
 15 17  1  0  0  0
  6  7  1  0  0  0
  6  8  1  0  0  0
  8  9  1  0  0  0
 20 21  1  0  0  0
  4 10  1  0  0  0
  4 11  1  0  0  0
 14 18  1  0  0  0
  7 12  1  0  0  0
  9 13  1  0  0  0
M  END
> <minimizedAffinity>
-7.08761

$$$$
2JIW_BEU_A_1594


 21 21  0  0  0  0  0  0  0  0999 V2000
    6.9667  -11.6568    4.3140 C   0  0  0  0  0  0  0  0  0  0  0  0
    6.1348  -12.7005    4.1408 C   0  0  0  0  0  0  0  0  0  0  0  0
    5.2483  -12.8033    2.9253 C   0  0  0  0  0  0  0  0  0  0  0  0
    3.9795  -12.1215    3.2201 N   0  0  0  0  0  0  0  0  0  0  0  0
    5.9227  -12.2625    1.6359 C   0  0  0  0  0  0  0  0  0  0  0  0
    7.1763  -11.4063    1.8709 C   0  0  0  0  0  0  0  0  0  0  0  0
    7.3370  -10.4959    0.7775 O   0  0  0  0  0  0  0  0  0  0  0  0
    7.0878  -10.6380    3.2035 C   0  0  0  0  0  0  0  0  0  0  0  0
    8.2619   -9.8353    3.3575 O   0  0  0  0  0  0  0  0  0  0  0  0
    4.1601  -11.1371    3.4166 H   0  0  0  0  0  0  0  0  0  0  0  0
    3.5410  -12.5555    4.0324 H   0  0  0  0  0  0  0  0  0  0  0  0
    6.5643   -9.9117    0.7269 H   0  0  0  0  0  0  0  0  0  0  0  0
    9.0473  -10.4042    3.3388 H   0  0  0  0  0  0  0  0  0  0  0  0
    6.2007  -13.3232    0.6621 N   0  0  0  0  0  0  0  0  0  0  0  0
    5.3281  -14.2869    0.3418 C   0  0  0  0  0  0  0  0  0  0  0  0
    4.2321  -14.3529    0.8411 O   0  0  0  0  0  0  0  0  0  0  0  0
    5.7539  -15.2862   -0.6798 C   0  0  0  0  0  0  0  0  0  0  0  0
    7.0795  -13.3269    0.2183 H   0  0  0  0  0  0  0  0  0  0  0  0
    7.7627  -11.5816    5.6024 C   0  0  0  0  0  0  0  0  0  0  0  0
    7.5182  -10.3349    6.2407 O   0  0  0  0  0  0  0  0  0  0  0  0
    6.5726  -10.2542    6.4410 H   0  0  0  0  0  0  0  0  0  0  0  0
 19 20  1  0  0  0
 19  1  1  0  0  0
  1  2  2  0  0  0
  1  8  1  0  0  0
  2  3  1  0  0  0
  3  4  1  0  0  0
  3  5  1  0  0  0
  5 14  1  0  0  0
  5  6  1  0  0  0
 14 15  1  0  0  0
 15 16  2  0  0  0
 15 17  1  0  0  0
  6  7  1  0  0  0
  6  8  1  0  0  0
  8  9  1  0  0  0
 20 21  1  0  0  0
  4 10  1  0  0  0
  4 11  1  0  0  0
 14 18  1  0  0  0
  7 12  1  0  0  0
  9 13  1  0  0  0
M  END
> <minimizedAffinity>
-7.00100

$$$$
2JIW_BEU_A_1594


 21 21  0  0  0  0  0  0  0  0999 V2000
    5.6414  -12.6117    2.3087 C   0  0  0  0  0  0  0  0  0  0  0  0
    6.7831  -13.1915    2.7229 C   0  0  0  0  0  0  0  0  0  0  0  0
    6.9460  -14.6906    2.7230 C   0  0  0  0  0  0  0  0  0  0  0  0
    6.4718  -15.2066    4.0154 N   0  0  0  0  0  0  0  0  0  0  0  0
    6.2439  -15.3766    1.5205 C   0  0  0  0  0  0  0  0  0  0  0  0
    5.2299  -14.4963    0.7744 C   0  0  0  0  0  0  0  0  0  0  0  0
    4.2472  -15.3322    0.1531 O   0  0  0  0  0  0  0  0  0  0  0  0
    4.5565  -13.4886    1.7258 C   0  0  0  0  0  0  0  0  0  0  0  0
    3.6024  -12.7181    0.9891 O   0  0  0  0  0  0  0  0  0  0  0  0
    5.4838  -14.9803    4.1300 H   0  0  0  0  0  0  0  0  0  0  0  0
    7.0083  -14.7786    4.7700 H   0  0  0  0  0  0  0  0  0  0  0  0
    3.7788  -15.8410    0.8333 H   0  0  0  0  0  0  0  0  0  0  0  0
    4.0501  -12.2593    0.2612 H   0  0  0  0  0  0  0  0  0  0  0  0
    7.1984  -15.9708    0.5790 N   0  0  0  0  0  0  0  0  0  0  0  0
    7.0435  -17.1804    0.0262 C   0  0  0  0  0  0  0  0  0  0  0  0
    6.0914  -17.8802    0.2682 O   0  0  0  0  0  0  0  0  0  0  0  0
    8.0952  -17.6392   -0.9262 C   0  0  0  0  0  0  0  0  0  0  0  0
    7.9991  -15.4505    0.3397 H   0  0  0  0  0  0  0  0  0  0  0  0
    5.5227  -11.1040    2.4192 C   0  0  0  0  0  0  0  0  0  0  0  0
    5.6607  -10.5202    1.1302 O   0  0  0  0  0  0  0  0  0  0  0  0
    4.9627  -10.8565    0.5465 H   0  0  0  0  0  0  0  0  0  0  0  0
 19 20  1  0  0  0
 19  1  1  0  0  0
  1  2  2  0  0  0
  1  8  1  0  0  0
  2  3  1  0  0  0
  3  4  1  0  0  0
  3  5  1  0  0  0
  5 14  1  0  0  0
  5  6  1  0  0  0
 14 15  1  0  0  0
 15 16  2  0  0  0
 15 17  1  0  0  0
  6  7  1  0  0  0
  6  8  1  0  0  0
  8  9  1  0  0  0
 20 21  1  0  0  0
  4 10  1  0  0  0
  4 11  1  0  0  0
 14 18  1  0  0  0
  7 12  1  0  0  0
  9 13  1  0  0  0
M  END
> <minimizedAffinity>
-6.67922

$$$$
2JIW_BEU_A_1594


 21 21  0  0  0  0  0  0  0  0999 V2000
    5.8926  -11.3393    2.0569 C   0  0  0  0  0  0  0  0  0  0  0  0
    6.8877  -11.6196    2.9186 C   0  0  0  0  0  0  0  0  0  0  0  0
    6.7809  -12.7645    3.8942 C   0  0  0  0  0  0  0  0  0  0  0  0
    6.1501  -12.2653    5.1248 N   0  0  0  0  0  0  0  0  0  0  0  0
    6.0368  -13.9937    3.3068 C   0  0  0  0  0  0  0  0  0  0  0  0
    5.2395  -13.7158    2.0235 C   0  0  0  0  0  0  0  0  0  0  0  0
    4.1604  -14.6520    1.9270 O   0  0  0  0  0  0  0  0  0  0  0  0
    4.7036  -12.2714    1.9991 C   0  0  0  0  0  0  0  0  0  0  0  0
    3.9450  -12.0759    0.8021 O   0  0  0  0  0  0  0  0  0  0  0  0
    5.2134  -11.9225    4.9119 H   0  0  0  0  0  0  0  0  0  0  0  0
    6.7108  -11.5054    5.5102 H   0  0  0  0  0  0  0  0  0  0  0  0
    3.5713  -14.5463    2.6903 H   0  0  0  0  0  0  0  0  0  0  0  0
    4.5076  -12.2483    0.0310 H   0  0  0  0  0  0  0  0  0  0  0  0
    6.9219  -15.1482    3.1212 N   0  0  0  0  0  0  0  0  0  0  0  0
    6.6640  -16.3692    3.6061 C   0  0  0  0  0  0  0  0  0  0  0  0
    5.6680  -16.6107    4.2422 O   0  0  0  0  0  0  0  0  0  0  0  0
    7.6559  -17.4451    3.3190 C   0  0  0  0  0  0  0  0  0  0  0  0
    7.7536  -15.0179    2.6108 H   0  0  0  0  0  0  0  0  0  0  0  0
    6.0381  -10.1204    1.1667 C   0  0  0  0  0  0  0  0  0  0  0  0
    7.3582  -10.0699    0.6412 O   0  0  0  0  0  0  0  0  0  0  0  0
    7.5303  -10.8707    0.1217 H   0  0  0  0  0  0  0  0  0  0  0  0
 19 20  1  0  0  0
 19  1  1  0  0  0
  1  2  2  0  0  0
  1  8  1  0  0  0
  2  3  1  0  0  0
  3  4  1  0  0  0
  3  5  1  0  0  0
  5 14  1  0  0  0
  5  6  1  0  0  0
 14 15  1  0  0  0
 15 16  2  0  0  0
 15 17  1  0  0  0
  6  7  1  0  0  0
  6  8  1  0  0  0
  8  9  1  0  0  0
 20 21  1  0  0  0
  4 10  1  0  0  0
  4 11  1  0  0  0
 14 18  1  0  0  0
  7 12  1  0  0  0
  9 13  1  0  0  0
M  END
> <minimizedAffinity>
-6.55012

$$$$
