3U8L_09Q_A_211


 20 22  0  0  0  0  0  0  0  0999 V2000
   -4.8414   25.3714   33.0023 C   0  0  0  0  0  0  0  0  0  0  0  0
   -5.7524   27.4853   33.2734 C   0  0  0  0  0  0  0  0  0  0  0  0
   -6.9734   27.0894   32.6865 C   0  0  0  0  0  0  0  0  0  0  0  0
   -7.0564   25.7756   32.2034 C   0  0  0  0  0  0  0  0  0  0  0  0
   -6.0033   24.8556   32.3633 C   0  0  0  0  0  0  0  0  0  0  0  0
   -4.7098   26.6379   33.4524 N   0  0  0  0  0  0  0  0  0  0  0  0
   -7.4858   23.0275   31.5191 C   0  0  0  0  0  0  0  0  0  0  0  0
   -7.7012   23.2180   30.0137 C   0  0  0  0  0  0  0  0  0  0  0  0
   -7.0876   22.0772   29.1782 C   0  0  0  0  0  0  0  0  0  0  0  0
   -5.4123   21.3807   30.9131 C   0  0  0  0  0  0  0  0  0  0  0  0
   -5.1202   22.5210   31.9167 C   0  0  0  0  0  0  0  0  0  0  0  0
   -6.1757   23.5559   31.9521 N   0  0  0  0  0  0  0  0  0  0  0  0
   -5.6707   21.8439   29.5282 N   0  0  0  0  0  0  0  0  0  0  0  0
   -5.1672   22.7206   29.3931 H   0  0  0  0  0  0  0  0  0  0  0  0
   -8.1137   27.9706   32.4139 C   0  0  0  0  0  0  0  0  0  0  0  0
   -8.4593   28.2558   31.0710 C   0  0  0  0  0  0  0  0  0  0  0  0
   -9.5870   29.0392   30.7545 C   0  0  0  0  0  0  0  0  0  0  0  0
  -10.3949   29.5354   31.7924 C   0  0  0  0  0  0  0  0  0  0  0  0
  -10.0702   29.2451   33.1306 C   0  0  0  0  0  0  0  0  0  0  0  0
   -8.9450   28.4604   33.4459 C   0  0  0  0  0  0  0  0  0  0  0  0
 13  9  1  0  0  0
 13 10  1  0  0  0
  9  8  1  0  0  0
  8  7  1  0  0  0
 10 11  1  0  0  0
 17 16  2  0  0  0
 17 18  1  0  0  0
 16 15  1  0  0  0
 11 12  1  0  0  0
  7 12  1  0  0  0
 18 19  2  0  0  0
 12  5  1  0  0  0
  4  5  2  0  0  0
  4  3  1  0  0  0
  5  1  1  0  0  0
 15  3  1  0  0  0
 15 20  2  0  0  0
  3  2  2  0  0  0
  1  6  2  0  0  0
 19 20  1  0  0  0
  2  6  1  0  0  0
 13 14  1  0  0  0
M  END
> <minimizedAffinity>
-8.28447

$$$$
3U8L_09Q_A_211


 20 22  0  0  0  0  0  0  0  0999 V2000
   -7.3940   27.9126   30.6931 C   0  0  0  0  0  0  0  0  0  0  0  0
   -9.4007   29.0720   30.7285 C   0  0  0  0  0  0  0  0  0  0  0  0
   -9.5296   28.9065   32.1241 C   0  0  0  0  0  0  0  0  0  0  0  0
   -8.5419   28.1530   32.7745 C   0  0  0  0  0  0  0  0  0  0  0  0
   -7.4211   27.6461   32.0904 C   0  0  0  0  0  0  0  0  0  0  0  0
   -8.3407   28.6057   30.0241 N   0  0  0  0  0  0  0  0  0  0  0  0
   -6.7218   25.8250   33.6546 C   0  0  0  0  0  0  0  0  0  0  0  0
   -6.6157   24.5115   32.8721 C   0  0  0  0  0  0  0  0  0  0  0  0
   -5.1717   23.9762   32.8058 C   0  0  0  0  0  0  0  0  0  0  0  0
   -4.0715   26.1992   33.1919 C   0  0  0  0  0  0  0  0  0  0  0  0
   -5.0103   27.3733   32.8274 C   0  0  0  0  0  0  0  0  0  0  0  0
   -6.4391   26.9938   32.7962 N   0  0  0  0  0  0  0  0  0  0  0  0
   -4.2279   25.0066   32.3244 N   0  0  0  0  0  0  0  0  0  0  0  0
   -4.5522   25.3251   31.4113 H   0  0  0  0  0  0  0  0  0  0  0  0
  -10.6763   29.3362   32.9314 C   0  0  0  0  0  0  0  0  0  0  0  0
  -10.9883   30.7150   33.0072 C   0  0  0  0  0  0  0  0  0  0  0  0
  -12.1195   31.1733   33.7115 C   0  0  0  0  0  0  0  0  0  0  0  0
  -12.9648   30.2417   34.3391 C   0  0  0  0  0  0  0  0  0  0  0  0
  -12.6735   28.8673   34.2571 C   0  0  0  0  0  0  0  0  0  0  0  0
  -11.5446   28.4102   33.5513 C   0  0  0  0  0  0  0  0  0  0  0  0
 13  9  1  0  0  0
 13 10  1  0  0  0
  9  8  1  0  0  0
  8  7  1  0  0  0
 10 11  1  0  0  0
 17 16  2  0  0  0
 17 18  1  0  0  0
 16 15  1  0  0  0
 11 12  1  0  0  0
  7 12  1  0  0  0
 18 19  2  0  0  0
 12  5  1  0  0  0
  4  5  2  0  0  0
  4  3  1  0  0  0
  5  1  1  0  0  0
 15  3  1  0  0  0
 15 20  2  0  0  0
  3  2  2  0  0  0
  1  6  2  0  0  0
 19 20  1  0  0  0
  2  6  1  0  0  0
 13 14  1  0  0  0
M  END
> <minimizedAffinity>
-8.04741

$$$$
3U8L_09Q_A_211


 20 22  0  0  0  0  0  0  0  0999 V2000
   -5.0081   25.6036   33.0991 C   0  0  0  0  0  0  0  0  0  0  0  0
   -4.9768   23.3320   32.6400 C   0  0  0  0  0  0  0  0  0  0  0  0
   -6.3700   23.3070   32.4156 C   0  0  0  0  0  0  0  0  0  0  0  0
   -7.0724   24.5050   32.6097 C   0  0  0  0  0  0  0  0  0  0  0  0
   -6.4176   25.7076   32.9353 C   0  0  0  0  0  0  0  0  0  0  0  0
   -4.2992   24.4634   32.9530 N   0  0  0  0  0  0  0  0  0  0  0  0
   -6.8455   28.0589   32.1999 C   0  0  0  0  0  0  0  0  0  0  0  0
   -7.6080   28.0326   30.8707 C   0  0  0  0  0  0  0  0  0  0  0  0
   -9.0314   28.6116   30.9926 C   0  0  0  0  0  0  0  0  0  0  0  0
   -9.2471   28.2066   33.4606 C   0  0  0  0  0  0  0  0  0  0  0  0
   -8.2770   27.1040   33.9463 C   0  0  0  0  0  0  0  0  0  0  0  0
   -7.1462   26.8692   33.0230 N   0  0  0  0  0  0  0  0  0  0  0  0
   -9.7853   27.9822   32.0970 N   0  0  0  0  0  0  0  0  0  0  0  0
   -9.8027   26.9761   31.9298 H   0  0  0  0  0  0  0  0  0  0  0  0
   -7.1664   22.1086   32.1314 C   0  0  0  0  0  0  0  0  0  0  0  0
   -6.7852   21.2654   31.0599 C   0  0  0  0  0  0  0  0  0  0  0  0
   -7.4746   20.0666   30.7892 C   0  0  0  0  0  0  0  0  0  0  0  0
   -8.5534   19.6916   31.6087 C   0  0  0  0  0  0  0  0  0  0  0  0
   -8.9314   20.5140   32.6864 C   0  0  0  0  0  0  0  0  0  0  0  0
   -8.2407   21.7101   32.9577 C   0  0  0  0  0  0  0  0  0  0  0  0
 13  9  1  0  0  0
 13 10  1  0  0  0
  9  8  1  0  0  0
  8  7  1  0  0  0
 10 11  1  0  0  0
 17 16  2  0  0  0
 17 18  1  0  0  0
 16 15  1  0  0  0
 11 12  1  0  0  0
  7 12  1  0  0  0
 18 19  2  0  0  0
 12  5  1  0  0  0
  4  5  2  0  0  0
  4  3  1  0  0  0
  5  1  1  0  0  0
 15  3  1  0  0  0
 15 20  2  0  0  0
  3  2  2  0  0  0
  1  6  2  0  0  0
 19 20  1  0  0  0
  2  6  1  0  0  0
 13 14  1  0  0  0
M  END
> <minimizedAffinity>
-7.74838

$$$$
3U8L_09Q_A_211


 20 22  0  0  0  0  0  0  0  0999 V2000
   -5.5745   25.2498   33.0065 C   0  0  0  0  0  0  0  0  0  0  0  0
   -6.4000   27.3640   33.4768 C   0  0  0  0  0  0  0  0  0  0  0  0
   -7.5462   27.1481   32.6821 C   0  0  0  0  0  0  0  0  0  0  0  0
   -7.6311   25.9275   31.9971 C   0  0  0  0  0  0  0  0  0  0  0  0
   -6.6615   24.9188   32.1503 C   0  0  0  0  0  0  0  0  0  0  0  0
   -5.4395   26.4249   33.6584 N   0  0  0  0  0  0  0  0  0  0  0  0
   -6.6626   22.4194   32.2253 C   0  0  0  0  0  0  0  0  0  0  0  0
   -7.9655   21.9426   32.8763 C   0  0  0  0  0  0  0  0  0  0  0  0
   -8.8652   21.1611   31.8986 C   0  0  0  0  0  0  0  0  0  0  0  0
   -7.8912   22.1685   29.8157 C   0  0  0  0  0  0  0  0  0  0  0  0
   -7.2021   23.5231   30.1035 C   0  0  0  0  0  0  0  0  0  0  0  0
   -6.8440   23.7084   31.5261 N   0  0  0  0  0  0  0  0  0  0  0  0
   -9.0930   21.9117   30.6459 N   0  0  0  0  0  0  0  0  0  0  0  0
   -9.5011   22.8135   30.8919 H   0  0  0  0  0  0  0  0  0  0  0  0
   -8.5883   28.1412   32.4014 C   0  0  0  0  0  0  0  0  0  0  0  0
   -9.0085   28.3407   31.0642 C   0  0  0  0  0  0  0  0  0  0  0  0
  -10.0539   29.2315   30.7492 C   0  0  0  0  0  0  0  0  0  0  0  0
  -10.7040   29.9252   31.7847 C   0  0  0  0  0  0  0  0  0  0  0  0
  -10.3056   29.7229   33.1192 C   0  0  0  0  0  0  0  0  0  0  0  0
   -9.2628   28.8311   33.4333 C   0  0  0  0  0  0  0  0  0  0  0  0
 13  9  1  0  0  0
 13 10  1  0  0  0
  9  8  1  0  0  0
  8  7  1  0  0  0
 10 11  1  0  0  0
 17 16  2  0  0  0
 17 18  1  0  0  0
 16 15  1  0  0  0
 11 12  1  0  0  0
  7 12  1  0  0  0
 18 19  2  0  0  0
 12  5  1  0  0  0
  4  5  2  0  0  0
  4  3  1  0  0  0
  5  1  1  0  0  0
 15  3  1  0  0  0
 15 20  2  0  0  0
  3  2  2  0  0  0
  1  6  2  0  0  0
 19 20  1  0  0  0
  2  6  1  0  0  0
 13 14  1  0  0  0
M  END
> <minimizedAffinity>
-7.24102

$$$$
3U8L_09Q_A_211


 20 22  0  0  0  0  0  0  0  0999 V2000
   -5.7521   25.7855   31.6483 C   0  0  0  0  0  0  0  0  0  0  0  0
   -6.6180   27.9282   31.8251 C   0  0  0  0  0  0  0  0  0  0  0  0
   -7.9375   27.4399   31.9370 C   0  0  0  0  0  0  0  0  0  0  0  0
   -8.1185   26.0529   31.8386 C   0  0  0  0  0  0  0  0  0  0  0  0
   -7.0317   25.1671   31.7149 C   0  0  0  0  0  0  0  0  0  0  0  0
   -5.5380   27.1177   31.7068 N   0  0  0  0  0  0  0  0  0  0  0  0
   -8.2164   23.1699   30.7875 C   0  0  0  0  0  0  0  0  0  0  0  0
   -7.5358   22.7516   29.4796 C   0  0  0  0  0  0  0  0  0  0  0  0
   -6.8654   21.3670   29.5768 C   0  0  0  0  0  0  0  0  0  0  0  0
   -6.6112   21.3960   32.0741 C   0  0  0  0  0  0  0  0  0  0  0  0
   -6.6399   22.8372   32.6354 C   0  0  0  0  0  0  0  0  0  0  0  0
   -7.2630   23.8127   31.7153 N   0  0  0  0  0  0  0  0  0  0  0  0
   -5.9644   21.2763   30.7449 N   0  0  0  0  0  0  0  0  0  0  0  0
   -5.2738   22.0227   30.6653 H   0  0  0  0  0  0  0  0  0  0  0  0
   -9.1483   28.2643   32.0094 C   0  0  0  0  0  0  0  0  0  0  0  0
   -9.2796   29.2063   33.0582 C   0  0  0  0  0  0  0  0  0  0  0  0
  -10.3902   30.0704   33.1330 C   0  0  0  0  0  0  0  0  0  0  0  0
  -11.3810   30.0073   32.1378 C   0  0  0  0  0  0  0  0  0  0  0  0
  -11.2532   29.0859   31.0817 C   0  0  0  0  0  0  0  0  0  0  0  0
  -10.1424   28.2247   31.0064 C   0  0  0  0  0  0  0  0  0  0  0  0
 13  9  1  0  0  0
 13 10  1  0  0  0
  9  8  1  0  0  0
  8  7  1  0  0  0
 10 11  1  0  0  0
 17 16  2  0  0  0
 17 18  1  0  0  0
 16 15  1  0  0  0
 11 12  1  0  0  0
  7 12  1  0  0  0
 18 19  2  0  0  0
 12  5  1  0  0  0
  4  5  2  0  0  0
  4  3  1  0  0  0
  5  1  1  0  0  0
 15  3  1  0  0  0
 15 20  2  0  0  0
  3  2  2  0  0  0
  1  6  2  0  0  0
 19 20  1  0  0  0
  2  6  1  0  0  0
 13 14  1  0  0  0
M  END
> <minimizedAffinity>
-7.09026

$$$$
3U8L_09Q_A_211


 20 22  0  0  0  0  0  0  0  0999 V2000
   -7.7607   27.5431   31.6611 C   0  0  0  0  0  0  0  0  0  0  0  0
   -6.7782   25.9199   30.3299 C   0  0  0  0  0  0  0  0  0  0  0  0
   -7.1696   24.8890   31.2109 C   0  0  0  0  0  0  0  0  0  0  0  0
   -7.8383   25.2673   32.3839 C   0  0  0  0  0  0  0  0  0  0  0  0
   -8.1829   26.6067   32.6455 C   0  0  0  0  0  0  0  0  0  0  0  0
   -7.0871   27.2236   30.5349 N   0  0  0  0  0  0  0  0  0  0  0  0
   -9.6272   28.1927   33.9305 C   0  0  0  0  0  0  0  0  0  0  0  0
  -11.0546   28.1249   33.3764 C   0  0  0  0  0  0  0  0  0  0  0  0
  -12.0616   27.5645   34.4000 C   0  0  0  0  0  0  0  0  0  0  0  0
  -10.3565   26.3256   35.7637 C   0  0  0  0  0  0  0  0  0  0  0  0
   -9.0756   26.0314   34.9480 C   0  0  0  0  0  0  0  0  0  0  0  0
   -8.9186   26.9066   33.7666 N   0  0  0  0  0  0  0  0  0  0  0  0
  -11.6065   26.2777   34.9670 N   0  0  0  0  0  0  0  0  0  0  0  0
  -11.4588   25.6301   34.1929 H   0  0  0  0  0  0  0  0  0  0  0  0
   -6.8180   23.4717   31.0745 C   0  0  0  0  0  0  0  0  0  0  0  0
   -7.4270   22.7054   30.0515 C   0  0  0  0  0  0  0  0  0  0  0  0
   -7.0724   21.3592   29.8339 C   0  0  0  0  0  0  0  0  0  0  0  0
   -6.0827   20.7683   30.6385 C   0  0  0  0  0  0  0  0  0  0  0  0
   -5.4590   21.5248   31.6482 C   0  0  0  0  0  0  0  0  0  0  0  0
   -5.8121   22.8703   31.8633 C   0  0  0  0  0  0  0  0  0  0  0  0
 13  9  1  0  0  0
 13 10  1  0  0  0
  9  8  1  0  0  0
  8  7  1  0  0  0
 10 11  1  0  0  0
 17 16  2  0  0  0
 17 18  1  0  0  0
 16 15  1  0  0  0
 11 12  1  0  0  0
  7 12  1  0  0  0
 18 19  2  0  0  0
 12  5  1  0  0  0
  4  5  2  0  0  0
  4  3  1  0  0  0
  5  1  1  0  0  0
 15  3  1  0  0  0
 15 20  2  0  0  0
  3  2  2  0  0  0
  1  6  2  0  0  0
 19 20  1  0  0  0
  2  6  1  0  0  0
 13 14  1  0  0  0
M  END
> <minimizedAffinity>
-7.07902

$$$$
3U8L_09Q_A_211


 20 22  0  0  0  0  0  0  0  0999 V2000
   -6.1216   26.9036   33.8358 C   0  0  0  0  0  0  0  0  0  0  0  0
   -5.1832   25.0614   32.7879 C   0  0  0  0  0  0  0  0  0  0  0  0
   -6.4220   24.6881   32.2240 C   0  0  0  0  0  0  0  0  0  0  0  0
   -7.5398   25.4650   32.5604 C   0  0  0  0  0  0  0  0  0  0  0  0
   -7.4316   26.6184   33.3598 C   0  0  0  0  0  0  0  0  0  0  0  0
   -5.0258   26.1632   33.5616 N   0  0  0  0  0  0  0  0  0  0  0  0
   -8.6460   28.7904   33.1142 C   0  0  0  0  0  0  0  0  0  0  0  0
   -9.2356   28.8730   31.7020 C   0  0  0  0  0  0  0  0  0  0  0  0
  -10.7770   28.8773   31.7027 C   0  0  0  0  0  0  0  0  0  0  0  0
  -11.0212   27.7619   33.9383 C   0  0  0  0  0  0  0  0  0  0  0  0
   -9.7516   26.9659   34.3222 C   0  0  0  0  0  0  0  0  0  0  0  0
   -8.5455   27.3921   33.5807 N   0  0  0  0  0  0  0  0  0  0  0  0
  -11.3268   27.7518   32.4872 N   0  0  0  0  0  0  0  0  0  0  0  0
  -10.9543   26.8867   32.0956 H   0  0  0  0  0  0  0  0  0  0  0  0
   -6.6674   23.4805   31.4287 C   0  0  0  0  0  0  0  0  0  0  0  0
   -7.7245   23.4780   30.4869 C   0  0  0  0  0  0  0  0  0  0  0  0
   -7.9579   22.3690   29.6495 C   0  0  0  0  0  0  0  0  0  0  0  0
   -7.1150   21.2477   29.7396 C   0  0  0  0  0  0  0  0  0  0  0  0
   -6.0512   21.2451   30.6610 C   0  0  0  0  0  0  0  0  0  0  0  0
   -5.8172   22.3542   31.4955 C   0  0  0  0  0  0  0  0  0  0  0  0
 13  9  1  0  0  0
 13 10  1  0  0  0
  9  8  1  0  0  0
  8  7  1  0  0  0
 10 11  1  0  0  0
 17 16  2  0  0  0
 17 18  1  0  0  0
 16 15  1  0  0  0
 11 12  1  0  0  0
  7 12  1  0  0  0
 18 19  2  0  0  0
 12  5  1  0  0  0
  4  5  2  0  0  0
  4  3  1  0  0  0
  5  1  1  0  0  0
 15  3  1  0  0  0
 15 20  2  0  0  0
  3  2  2  0  0  0
  1  6  2  0  0  0
 19 20  1  0  0  0
  2  6  1  0  0  0
 13 14  1  0  0  0
M  END
> <minimizedAffinity>
-6.95977

$$$$
3U8L_09Q_A_211


 20 22  0  0  0  0  0  0  0  0999 V2000
   -6.8100   27.7133   32.2858 C   0  0  0  0  0  0  0  0  0  0  0  0
   -5.4419   25.8929   31.8534 C   0  0  0  0  0  0  0  0  0  0  0  0
   -6.5470   25.0735   31.5384 C   0  0  0  0  0  0  0  0  0  0  0  0
   -7.8233   25.6382   31.6735 C   0  0  0  0  0  0  0  0  0  0  0  0
   -8.0066   26.9878   32.0288 C   0  0  0  0  0  0  0  0  0  0  0  0
   -5.5646   27.1980   32.1983 N   0  0  0  0  0  0  0  0  0  0  0  0
   -9.8706   28.0897   33.2793 C   0  0  0  0  0  0  0  0  0  0  0  0
   -9.5726   29.5885   33.3961 C   0  0  0  0  0  0  0  0  0  0  0  0
  -10.5864   30.4562   32.6245 C   0  0  0  0  0  0  0  0  0  0  0  0
  -11.2890   28.6482   31.0310 C   0  0  0  0  0  0  0  0  0  0  0  0
  -10.2170   27.5390   30.9155 C   0  0  0  0  0  0  0  0  0  0  0  0
   -9.2768   27.5109   32.0564 N   0  0  0  0  0  0  0  0  0  0  0  0
  -10.7337   30.0098   31.2233 N   0  0  0  0  0  0  0  0  0  0  0  0
   -9.8112   30.0350   30.7889 H   0  0  0  0  0  0  0  0  0  0  0  0
   -6.4839   23.6443   31.2151 C   0  0  0  0  0  0  0  0  0  0  0  0
   -7.3227   23.1298   30.1971 C   0  0  0  0  0  0  0  0  0  0  0  0
   -7.2511   21.7796   29.8007 C   0  0  0  0  0  0  0  0  0  0  0  0
   -6.3173   20.9286   30.4172 C   0  0  0  0  0  0  0  0  0  0  0  0
   -5.4674   21.4327   31.4193 C   0  0  0  0  0  0  0  0  0  0  0  0
   -5.5378   22.7823   31.8131 C   0  0  0  0  0  0  0  0  0  0  0  0
 13  9  1  0  0  0
 13 10  1  0  0  0
  9  8  1  0  0  0
  8  7  1  0  0  0
 10 11  1  0  0  0
 17 16  2  0  0  0
 17 18  1  0  0  0
 16 15  1  0  0  0
 11 12  1  0  0  0
  7 12  1  0  0  0
 18 19  2  0  0  0
 12  5  1  0  0  0
  4  5  2  0  0  0
  4  3  1  0  0  0
  5  1  1  0  0  0
 15  3  1  0  0  0
 15 20  2  0  0  0
  3  2  2  0  0  0
  1  6  2  0  0  0
 19 20  1  0  0  0
  2  6  1  0  0  0
 13 14  1  0  0  0
M  END
> <minimizedAffinity>
-6.68341

$$$$
3U8L_09Q_A_211


 20 22  0  0  0  0  0  0  0  0999 V2000
   -7.0980   27.8344   33.7314 C   0  0  0  0  0  0  0  0  0  0  0  0
   -6.3609   25.6546   33.4537 C   0  0  0  0  0  0  0  0  0  0  0  0
   -7.3181   25.4059   32.4468 C   0  0  0  0  0  0  0  0  0  0  0  0
   -8.2171   26.4395   32.1473 C   0  0  0  0  0  0  0  0  0  0  0  0
   -8.1287   27.7039   32.7594 C   0  0  0  0  0  0  0  0  0  0  0  0
   -6.2332   26.8543   34.0714 N   0  0  0  0  0  0  0  0  0  0  0  0
   -9.5037   28.8006   30.9820 C   0  0  0  0  0  0  0  0  0  0  0  0
  -10.8197   28.0306   30.8262 C   0  0  0  0  0  0  0  0  0  0  0  0
  -12.0479   28.8677   31.2346 C   0  0  0  0  0  0  0  0  0  0  0  0
  -10.7840   30.4380   32.7308 C   0  0  0  0  0  0  0  0  0  0  0  0
   -9.4491   29.8210   33.2106 C   0  0  0  0  0  0  0  0  0  0  0  0
   -8.9787   28.7068   32.3599 N   0  0  0  0  0  0  0  0  0  0  0  0
  -11.8856   29.4565   32.5805 N   0  0  0  0  0  0  0  0  0  0  0  0
  -11.7163   28.6941   33.2366 H   0  0  0  0  0  0  0  0  0  0  0  0
   -7.5430   24.1172   31.7837 C   0  0  0  0  0  0  0  0  0  0  0  0
   -7.9160   22.9961   32.5638 C   0  0  0  0  0  0  0  0  0  0  0  0
   -8.2113   21.7537   31.9681 C   0  0  0  0  0  0  0  0  0  0  0  0
   -8.1496   21.6279   30.5693 C   0  0  0  0  0  0  0  0  0  0  0  0
   -7.7954   22.7398   29.7825 C   0  0  0  0  0  0  0  0  0  0  0  0
   -7.5029   23.9811   30.3781 C   0  0  0  0  0  0  0  0  0  0  0  0
 13  9  1  0  0  0
 13 10  1  0  0  0
  9  8  1  0  0  0
  8  7  1  0  0  0
 10 11  1  0  0  0
 17 16  2  0  0  0
 17 18  1  0  0  0
 16 15  1  0  0  0
 11 12  1  0  0  0
  7 12  1  0  0  0
 18 19  2  0  0  0
 12  5  1  0  0  0
  4  5  2  0  0  0
  4  3  1  0  0  0
  5  1  1  0  0  0
 15  3  1  0  0  0
 15 20  2  0  0  0
  3  2  2  0  0  0
  1  6  2  0  0  0
 19 20  1  0  0  0
  2  6  1  0  0  0
 13 14  1  0  0  0
M  END
> <minimizedAffinity>
-6.48810

$$$$
3U8L_09Q_A_211


 20 22  0  0  0  0  0  0  0  0999 V2000
  -11.4278   26.5708   35.2433 C   0  0  0  0  0  0  0  0  0  0  0  0
   -9.1740   26.0440   35.3662 C   0  0  0  0  0  0  0  0  0  0  0  0
   -8.8537   26.9536   34.3356 C   0  0  0  0  0  0  0  0  0  0  0  0
   -9.9179   27.6367   33.7296 C   0  0  0  0  0  0  0  0  0  0  0  0
  -11.2453   27.4920   34.1746 C   0  0  0  0  0  0  0  0  0  0  0  0
  -10.4349   25.8697   35.8321 N   0  0  0  0  0  0  0  0  0  0  0  0
  -13.3917   28.7596   34.3718 C   0  0  0  0  0  0  0  0  0  0  0  0
  -13.1034   30.1313   34.9916 C   0  0  0  0  0  0  0  0  0  0  0  0
  -13.3835   31.2925   34.0174 C   0  0  0  0  0  0  0  0  0  0  0  0
  -13.1391   29.9208   31.9292 C   0  0  0  0  0  0  0  0  0  0  0  0
  -12.3027   28.6435   32.1783 C   0  0  0  0  0  0  0  0  0  0  0  0
  -12.2345   28.2559   33.6036 N   0  0  0  0  0  0  0  0  0  0  0  0
  -12.7012   31.0957   32.7212 N   0  0  0  0  0  0  0  0  0  0  0  0
  -11.7032   30.9934   32.9059 H   0  0  0  0  0  0  0  0  0  0  0  0
   -7.5225   27.1449   33.7506 C   0  0  0  0  0  0  0  0  0  0  0  0
   -6.3777   26.8764   34.5391 C   0  0  0  0  0  0  0  0  0  0  0  0
   -5.0782   26.9772   34.0034 C   0  0  0  0  0  0  0  0  0  0  0  0
   -4.9148   27.3367   32.6543 C   0  0  0  0  0  0  0  0  0  0  0  0
   -6.0461   27.5905   31.8565 C   0  0  0  0  0  0  0  0  0  0  0  0
   -7.3438   27.4873   32.3917 C   0  0  0  0  0  0  0  0  0  0  0  0
 13  9  1  0  0  0
 13 10  1  0  0  0
  9  8  1  0  0  0
  8  7  1  0  0  0
 10 11  1  0  0  0
 17 16  2  0  0  0
 17 18  1  0  0  0
 16 15  1  0  0  0
 11 12  1  0  0  0
  7 12  1  0  0  0
 18 19  2  0  0  0
 12  5  1  0  0  0
  4  5  2  0  0  0
  4  3  1  0  0  0
  5  1  1  0  0  0
 15  3  1  0  0  0
 15 20  2  0  0  0
  3  2  2  0  0  0
  1  6  2  0  0  0
 19 20  1  0  0  0
  2  6  1  0  0  0
 13 14  1  0  0  0
M  END
> <minimizedAffinity>
-6.28381

$$$$
