4W9P_3JR_A_201


 41 44  0  0  0  0  0  0  0  0999 V2000
   22.5385    4.2941  -14.0662 N   0  0  0  0  0  0  0  0  0  0  0  0
   22.6197    4.3526  -12.6938 C   0  0  0  0  0  0  0  0  0  0  0  0
   23.0459    3.3559  -12.0722 O   0  0  0  0  0  0  0  0  0  0  0  0
   22.0626    5.4144  -14.9302 C   0  0  0  0  0  0  0  0  0  0  0  0
   20.6129    5.8378  -14.6005 C   0  0  0  0  0  0  0  0  0  0  0  0
   20.6251    6.7171  -13.3484 C   0  0  0  0  0  0  0  0  0  0  0  0
   19.5281    6.2798  -12.3346 C   0  0  0  0  0  0  0  0  0  0  0  0
   19.8801    4.9833  -11.6211 C   0  0  0  0  0  0  0  0  0  0  0  0
   21.2495    5.1634  -10.8964 C   0  0  0  0  0  0  0  0  0  0  0  0
   22.3374    5.5185  -11.9324 C   0  0  0  0  0  0  0  0  0  0  0  0
   21.9912    6.7387  -12.7215 N   0  0  0  0  0  0  0  0  0  0  0  0
   19.9730    6.6383  -15.7842 C   0  0  0  0  0  0  0  0  0  0  0  0
   20.0135    5.8245  -16.9403 O   0  0  0  0  0  0  0  0  0  0  0  0
   20.9356    5.6137  -17.1552 H   0  0  0  0  0  0  0  0  0  0  0  0
   20.6421    7.9715  -16.0038 C   0  0  0  0  0  0  0  0  0  0  0  0
   19.6035    8.9427  -16.4844 O   0  0  0  0  0  0  0  0  0  0  0  0
   18.9003    9.0189  -15.8206 H   0  0  0  0  0  0  0  0  0  0  0  0
   22.4877    8.1908  -12.2163 S   0  0  0  0  0  0  0  0  0  0  0  0
   23.3610    7.9313  -10.9999 O   0  0  0  0  0  0  0  0  0  0  0  0
   21.3965    9.1910  -12.1283 O   0  0  0  0  0  0  0  0  0  0  0  0
   23.5687    8.7196  -13.5116 C   0  0  0  0  0  0  0  0  0  0  0  0
   24.6612    7.9724  -13.8590 C   0  0  0  0  0  0  0  0  0  0  0  0
   25.4688    8.3609  -14.8779 C   0  0  0  0  0  0  0  0  0  0  0  0
   26.7923    7.3795  -15.2812 Cl  0  0  0  0  0  0  0  0  0  0  0  0
   25.2752    9.5252  -15.5586 C   0  0  0  0  0  0  0  0  0  0  0  0
   24.1802   10.2807  -15.2054 C   0  0  0  0  0  0  0  0  0  0  0  0
   23.8715   11.7485  -16.0313 Cl  0  0  0  0  0  0  0  0  0  0  0  0
   23.3272    9.9004  -14.1864 C   0  0  0  0  0  0  0  0  0  0  0  0
   22.8446    3.0179  -14.7375 C   0  0  0  0  0  0  0  0  0  0  0  0
   24.2027    3.0410  -15.4302 C   0  0  0  0  0  0  0  0  0  0  0  0
   25.2657    2.6519  -14.5185 O   0  0  0  0  0  0  0  0  0  0  0  0
   26.3714    0.0933  -12.2422 C   0  0  0  0  0  0  0  0  0  0  0  0
   26.1285    1.3085  -12.8407 C   0  0  0  0  0  0  0  0  0  0  0  0
   25.7835   -1.0459  -12.7215 C   0  0  0  0  0  0  0  0  0  0  0  0
   25.0035   -0.9935  -13.8603 C   0  0  0  0  0  0  0  0  0  0  0  0
   24.7812    0.2316  -14.4661 C   0  0  0  0  0  0  0  0  0  0  0  0
   25.3603    1.3878  -13.9801 C   0  0  0  0  0  0  0  0  0  0  0  0
   28.5320    0.3793  -11.2173 C   0  0  0  0  0  0  0  0  0  0  0  0
   27.1724   -0.1007  -11.1345 O   0  0  0  0  0  0  0  0  0  0  0  0
   26.0428   -2.2223  -12.0712 O   0  0  0  0  0  0  0  0  0  0  0  0
   26.7838   -3.2691  -12.7249 C   0  0  0  0  0  0  0  0  0  0  0  0
 13 12  1  0  0  0
 16 15  1  0  0  0
 15 12  1  0  0  0
 27 26  1  0  0  0
 12  5  1  0  0  0
 25 26  2  0  0  0
 25 23  1  0  0  0
 30 29  1  0  0  0
 30 31  1  0  0  0
 24 23  1  0  0  0
 26 28  1  0  0  0
  4  5  1  0  0  0
  4  1  1  0  0  0
 23 22  2  0  0  0
 29  1  1  0  0  0
  5  6  1  0  0  0
 31 37  1  0  0  0
 28 21  2  0  0  0
  1  2  1  0  0  0
 36 37  2  0  0  0
 36 35  1  0  0  0
 37 33  1  0  0  0
 22 21  1  0  0  0
 21 18  1  0  0  0
  6 11  1  0  0  0
  6  7  1  0  0  0
 35 34  2  0  0  0
 33 32  2  0  0  0
  2  3  2  0  0  0
  2 10  1  0  0  0
 11 18  1  0  0  0
 11 10  1  0  0  0
 34 32  1  0  0  0
 34 40  1  0  0  0
  7  8  1  0  0  0
 32 39  1  0  0  0
 18 20  2  0  0  0
 18 19  2  0  0  0
 41 40  1  0  0  0
 10  9  1  0  0  0
  8  9  1  0  0  0
 39 38  1  0  0  0
 13 14  1  0  0  0
 16 17  1  0  0  0
M  END
> <minimizedAffinity>
-9.23593

$$$$
4W9P_3JR_A_201


 41 44  0  0  0  0  0  0  0  0999 V2000
   22.5288    4.2904  -14.0716 N   0  0  0  0  0  0  0  0  0  0  0  0
   22.6076    4.3457  -12.6990 C   0  0  0  0  0  0  0  0  0  0  0  0
   23.0327    3.3476  -12.0789 O   0  0  0  0  0  0  0  0  0  0  0  0
   22.0543    5.4127  -14.9339 C   0  0  0  0  0  0  0  0  0  0  0  0
   20.6040    5.8351  -14.6058 C   0  0  0  0  0  0  0  0  0  0  0  0
   20.6139    6.7116  -13.3516 C   0  0  0  0  0  0  0  0  0  0  0  0
   19.5152    6.2718  -12.3408 C   0  0  0  0  0  0  0  0  0  0  0  0
   19.8661    4.9737  -11.6297 C   0  0  0  0  0  0  0  0  0  0  0  0
   21.2341    5.1522  -10.9021 C   0  0  0  0  0  0  0  0  0  0  0  0
   22.3238    5.5098  -11.9354 C   0  0  0  0  0  0  0  0  0  0  0  0
   21.9789    6.7318  -12.7222 N   0  0  0  0  0  0  0  0  0  0  0  0
   19.9662    6.6384  -15.7888 C   0  0  0  0  0  0  0  0  0  0  0  0
   19.9922    5.8203  -16.9423 O   0  0  0  0  0  0  0  0  0  0  0  0
   20.9109    5.5993  -17.1614 H   0  0  0  0  0  0  0  0  0  0  0  0
   20.6479    7.9638  -16.0164 C   0  0  0  0  0  0  0  0  0  0  0  0
   19.6157    8.9458  -16.4886 O   0  0  0  0  0  0  0  0  0  0  0  0
   18.9196    9.0306  -15.8184 H   0  0  0  0  0  0  0  0  0  0  0  0
   22.4744    8.1828  -12.2128 S   0  0  0  0  0  0  0  0  0  0  0  0
   23.3414    7.9209  -10.9924 O   0  0  0  0  0  0  0  0  0  0  0  0
   21.3838    9.1840  -12.1290 O   0  0  0  0  0  0  0  0  0  0  0  0
   23.5624    8.7120  -13.5021 C   0  0  0  0  0  0  0  0  0  0  0  0
   23.3470    9.8939  -14.1573 C   0  0  0  0  0  0  0  0  0  0  0  0
   24.2039   10.3162  -15.1211 C   0  0  0  0  0  0  0  0  0  0  0  0
   23.9006   11.8032  -15.8789 Cl  0  0  0  0  0  0  0  0  0  0  0  0
   25.2716    9.5722  -15.5246 C   0  0  0  0  0  0  0  0  0  0  0  0
   25.4851    8.3800  -14.8705 C   0  0  0  0  0  0  0  0  0  0  0  0
   26.8181    7.4035  -15.3195 Cl  0  0  0  0  0  0  0  0  0  0  0  0
   24.6424    7.9334  -13.8701 C   0  0  0  0  0  0  0  0  0  0  0  0
   22.8362    3.0158  -14.7453 C   0  0  0  0  0  0  0  0  0  0  0  0
   24.1759    3.0553  -15.4724 C   0  0  0  0  0  0  0  0  0  0  0  0
   25.2804    2.8332  -14.5540 O   0  0  0  0  0  0  0  0  0  0  0  0
   25.4300   -0.7608  -14.4488 C   0  0  0  0  0  0  0  0  0  0  0  0
   25.2495    0.5384  -14.8653 C   0  0  0  0  0  0  0  0  0  0  0  0
   26.0283   -1.0273  -13.2471 C   0  0  0  0  0  0  0  0  0  0  0  0
   26.3836    0.0106  -12.4077 C   0  0  0  0  0  0  0  0  0  0  0  0
   26.1797    1.3140  -12.8282 C   0  0  0  0  0  0  0  0  0  0  0  0
   25.5887    1.5909  -14.0456 C   0  0  0  0  0  0  0  0  0  0  0  0
   24.0850   -1.7056  -16.2092 C   0  0  0  0  0  0  0  0  0  0  0  0
   25.0706   -1.8830  -15.1685 O   0  0  0  0  0  0  0  0  0  0  0  0
   26.2032   -2.3389  -12.8960 O   0  0  0  0  0  0  0  0  0  0  0  0
   26.0603   -2.7521  -11.5245 C   0  0  0  0  0  0  0  0  0  0  0  0
 13 12  1  0  0  0
 16 15  1  0  0  0
 15 12  1  0  0  0
 27 26  1  0  0  0
 12  5  1  0  0  0
 25 26  2  0  0  0
 25 23  1  0  0  0
 30 29  1  0  0  0
 30 31  1  0  0  0
 24 23  1  0  0  0
 26 28  1  0  0  0
  4  5  1  0  0  0
  4  1  1  0  0  0
 23 22  2  0  0  0
 29  1  1  0  0  0
  5  6  1  0  0  0
 31 37  1  0  0  0
 28 21  2  0  0  0
  1  2  1  0  0  0
 36 37  2  0  0  0
 36 35  1  0  0  0
 37 33  1  0  0  0
 22 21  1  0  0  0
 21 18  1  0  0  0
  6 11  1  0  0  0
  6  7  1  0  0  0
 35 34  2  0  0  0
 33 32  2  0  0  0
  2  3  2  0  0  0
  2 10  1  0  0  0
 11 18  1  0  0  0
 11 10  1  0  0  0
 34 32  1  0  0  0
 34 40  1  0  0  0
  7  8  1  0  0  0
 32 39  1  0  0  0
 18 20  2  0  0  0
 18 19  2  0  0  0
 41 40  1  0  0  0
 10  9  1  0  0  0
  8  9  1  0  0  0
 39 38  1  0  0  0
 13 14  1  0  0  0
 16 17  1  0  0  0
M  END
> <minimizedAffinity>
-8.97977

$$$$
4W9P_3JR_A_201


 41 44  0  0  0  0  0  0  0  0999 V2000
   22.5586    4.2935  -13.9782 N   0  0  0  0  0  0  0  0  0  0  0  0
   22.5959    4.4565  -12.6124 C   0  0  0  0  0  0  0  0  0  0  0  0
   23.0229    3.5190  -11.9049 O   0  0  0  0  0  0  0  0  0  0  0  0
   22.0869    5.3348  -14.9380 C   0  0  0  0  0  0  0  0  0  0  0  0
   20.6193    5.7486  -14.6841 C   0  0  0  0  0  0  0  0  0  0  0  0
   20.5746    6.7193  -13.5022 C   0  0  0  0  0  0  0  0  0  0  0  0
   19.4559    6.3343  -12.4909 C   0  0  0  0  0  0  0  0  0  0  0  0
   19.8120    5.1033  -11.6715 C   0  0  0  0  0  0  0  0  0  0  0  0
   21.1542    5.3682  -10.9224 C   0  0  0  0  0  0  0  0  0  0  0  0
   22.2663    5.6694  -11.9499 C   0  0  0  0  0  0  0  0  0  0  0  0
   21.9198    6.8189  -12.8388 N   0  0  0  0  0  0  0  0  0  0  0  0
   20.0003    6.4435  -15.9433 C   0  0  0  0  0  0  0  0  0  0  0  0
   20.2463    5.6207  -17.0670 O   0  0  0  0  0  0  0  0  0  0  0  0
   21.2032    5.5213  -17.1917 H   0  0  0  0  0  0  0  0  0  0  0  0
   20.5206    7.8448  -16.1398 C   0  0  0  0  0  0  0  0  0  0  0  0
   19.3532    8.7401  -16.4370 O   0  0  0  0  0  0  0  0  0  0  0  0
   18.7258    8.7094  -15.6978 H   0  0  0  0  0  0  0  0  0  0  0  0
   22.3706    8.3157  -12.4304 S   0  0  0  0  0  0  0  0  0  0  0  0
   23.1714    8.1727  -11.1466 O   0  0  0  0  0  0  0  0  0  0  0  0
   21.2663    9.3033  -12.4927 O   0  0  0  0  0  0  0  0  0  0  0  0
   23.5226    8.7494  -13.6996 C   0  0  0  0  0  0  0  0  0  0  0  0
   24.7447    8.1380  -13.7731 C   0  0  0  0  0  0  0  0  0  0  0  0
   25.6127    8.4456  -14.7697 C   0  0  0  0  0  0  0  0  0  0  0  0
   27.1015    7.6347  -14.8253 Cl  0  0  0  0  0  0  0  0  0  0  0  0
   25.3456    9.4056  -15.6989 C   0  0  0  0  0  0  0  0  0  0  0  0
   24.1192   10.0258  -15.6217 C   0  0  0  0  0  0  0  0  0  0  0  0
   23.7149   11.2317  -16.7681 Cl  0  0  0  0  0  0  0  0  0  0  0  0
   23.2054    9.7186  -14.6312 C   0  0  0  0  0  0  0  0  0  0  0  0
   22.9114    2.9779  -14.5419 C   0  0  0  0  0  0  0  0  0  0  0  0
   23.7881    3.0980  -15.7836 C   0  0  0  0  0  0  0  0  0  0  0  0
   25.0842    3.6707  -15.4600 O   0  0  0  0  0  0  0  0  0  0  0  0
   27.9956    4.8593  -17.2096 C   0  0  0  0  0  0  0  0  0  0  0  0
   27.1436    4.1234  -16.4181 C   0  0  0  0  0  0  0  0  0  0  0  0
   27.5107    5.8597  -18.0078 C   0  0  0  0  0  0  0  0  0  0  0  0
   26.1700    6.1894  -17.9635 C   0  0  0  0  0  0  0  0  0  0  0  0
   25.3246    5.4552  -17.1490 C   0  0  0  0  0  0  0  0  0  0  0  0
   25.8046    4.4352  -16.3507 C   0  0  0  0  0  0  0  0  0  0  0  0
   29.9196    3.5747  -16.5397 C   0  0  0  0  0  0  0  0  0  0  0  0
   29.3595    4.6656  -17.3026 O   0  0  0  0  0  0  0  0  0  0  0  0
   28.4019    6.5419  -18.7917 O   0  0  0  0  0  0  0  0  0  0  0  0
   27.9357    7.4831  -19.7761 C   0  0  0  0  0  0  0  0  0  0  0  0
 13 12  1  0  0  0
 16 15  1  0  0  0
 15 12  1  0  0  0
 27 26  1  0  0  0
 12  5  1  0  0  0
 25 26  2  0  0  0
 25 23  1  0  0  0
 30 29  1  0  0  0
 30 31  1  0  0  0
 24 23  1  0  0  0
 26 28  1  0  0  0
  4  5  1  0  0  0
  4  1  1  0  0  0
 23 22  2  0  0  0
 29  1  1  0  0  0
  5  6  1  0  0  0
 31 37  1  0  0  0
 28 21  2  0  0  0
  1  2  1  0  0  0
 36 37  2  0  0  0
 36 35  1  0  0  0
 37 33  1  0  0  0
 22 21  1  0  0  0
 21 18  1  0  0  0
  6 11  1  0  0  0
  6  7  1  0  0  0
 35 34  2  0  0  0
 33 32  2  0  0  0
  2  3  2  0  0  0
  2 10  1  0  0  0
 11 18  1  0  0  0
 11 10  1  0  0  0
 34 32  1  0  0  0
 34 40  1  0  0  0
  7  8  1  0  0  0
 32 39  1  0  0  0
 18 20  2  0  0  0
 18 19  2  0  0  0
 41 40  1  0  0  0
 10  9  1  0  0  0
  8  9  1  0  0  0
 39 38  1  0  0  0
 13 14  1  0  0  0
 16 17  1  0  0  0
M  END
> <minimizedAffinity>
-8.96292

$$$$
4W9P_3JR_A_201


 41 44  0  0  0  0  0  0  0  0999 V2000
   22.6547    4.3330  -13.9413 N   0  0  0  0  0  0  0  0  0  0  0  0
   22.5350    4.3333  -12.5705 C   0  0  0  0  0  0  0  0  0  0  0  0
   22.7565    3.2739  -11.9459 O   0  0  0  0  0  0  0  0  0  0  0  0
   22.4335    5.5294  -14.8062 C   0  0  0  0  0  0  0  0  0  0  0  0
   21.0031    6.0993  -14.6689 C   0  0  0  0  0  0  0  0  0  0  0  0
   20.9196    6.9267  -13.3845 C   0  0  0  0  0  0  0  0  0  0  0  0
   19.6435    6.5783  -12.5645 C   0  0  0  0  0  0  0  0  0  0  0  0
   19.7470    5.2261  -11.8754 C   0  0  0  0  0  0  0  0  0  0  0  0
   21.0036    5.2269  -10.9514 C   0  0  0  0  0  0  0  0  0  0  0  0
   22.2655    5.4955  -11.7989 C   0  0  0  0  0  0  0  0  0  0  0  0
   22.1711    6.7739  -12.5658 N   0  0  0  0  0  0  0  0  0  0  0  0
   20.6352    7.0076  -15.8900 C   0  0  0  0  0  0  0  0  0  0  0  0
   20.7478    8.3581  -15.4851 O   0  0  0  0  0  0  0  0  0  0  0  0
   20.1296    8.5302  -14.7578 H   0  0  0  0  0  0  0  0  0  0  0  0
   19.2706    6.6935  -16.4489 C   0  0  0  0  0  0  0  0  0  0  0  0
   18.4017    7.9043  -16.2700 O   0  0  0  0  0  0  0  0  0  0  0  0
   18.7966    8.6574  -16.7366 H   0  0  0  0  0  0  0  0  0  0  0  0
   22.7356    8.1429  -11.9197 S   0  0  0  0  0  0  0  0  0  0  0  0
   23.6568    7.7191  -10.7876 O   0  0  0  0  0  0  0  0  0  0  0  0
   21.6813    9.1529  -11.6602 O   0  0  0  0  0  0  0  0  0  0  0  0
   23.7704    8.7940  -13.1970 C   0  0  0  0  0  0  0  0  0  0  0  0
   24.8942    8.1230  -13.5962 C   0  0  0  0  0  0  0  0  0  0  0  0
   25.6668    8.6056  -14.6019 C   0  0  0  0  0  0  0  0  0  0  0  0
   27.0323    7.7158  -15.0721 Cl  0  0  0  0  0  0  0  0  0  0  0  0
   25.4054    9.7930  -15.2170 C   0  0  0  0  0  0  0  0  0  0  0  0
   24.2787   10.4718  -14.8114 C   0  0  0  0  0  0  0  0  0  0  0  0
   23.8849   11.9636  -15.5540 Cl  0  0  0  0  0  0  0  0  0  0  0  0
   23.4603    9.9951  -13.8047 C   0  0  0  0  0  0  0  0  0  0  0  0
   22.9225    3.0554  -14.6261 C   0  0  0  0  0  0  0  0  0  0  0  0
   24.1878    3.1095  -15.4752 C   0  0  0  0  0  0  0  0  0  0  0  0
   24.9021    1.8441  -15.4374 O   0  0  0  0  0  0  0  0  0  0  0  0
   28.3495    1.4891  -14.4682 C   0  0  0  0  0  0  0  0  0  0  0  0
   27.2019    1.7645  -15.1762 C   0  0  0  0  0  0  0  0  0  0  0  0
   28.2825    1.1416  -13.1461 C   0  0  0  0  0  0  0  0  0  0  0  0
   27.0536    0.9880  -12.5342 C   0  0  0  0  0  0  0  0  0  0  0  0
   25.9044    1.2488  -13.2612 C   0  0  0  0  0  0  0  0  0  0  0  0
   25.9646    1.6130  -14.5923 C   0  0  0  0  0  0  0  0  0  0  0  0
   30.0750    2.8345  -15.4747 C   0  0  0  0  0  0  0  0  0  0  0  0
   29.6314    1.5533  -14.9770 O   0  0  0  0  0  0  0  0  0  0  0  0
   29.4581    0.9026  -12.4867 O   0  0  0  0  0  0  0  0  0  0  0  0
   29.4489    0.3742  -11.1477 C   0  0  0  0  0  0  0  0  0  0  0  0
 13 12  1  0  0  0
 16 15  1  0  0  0
 15 12  1  0  0  0
 27 26  1  0  0  0
 12  5  1  0  0  0
 25 26  2  0  0  0
 25 23  1  0  0  0
 30 29  1  0  0  0
 30 31  1  0  0  0
 24 23  1  0  0  0
 26 28  1  0  0  0
  4  5  1  0  0  0
  4  1  1  0  0  0
 23 22  2  0  0  0
 29  1  1  0  0  0
  5  6  1  0  0  0
 31 37  1  0  0  0
 28 21  2  0  0  0
  1  2  1  0  0  0
 36 37  2  0  0  0
 36 35  1  0  0  0
 37 33  1  0  0  0
 22 21  1  0  0  0
 21 18  1  0  0  0
  6 11  1  0  0  0
  6  7  1  0  0  0
 35 34  2  0  0  0
 33 32  2  0  0  0
  2  3  2  0  0  0
  2 10  1  0  0  0
 11 18  1  0  0  0
 11 10  1  0  0  0
 34 32  1  0  0  0
 34 40  1  0  0  0
  7  8  1  0  0  0
 32 39  1  0  0  0
 18 20  2  0  0  0
 18 19  2  0  0  0
 41 40  1  0  0  0
 10  9  1  0  0  0
  8  9  1  0  0  0
 39 38  1  0  0  0
 13 14  1  0  0  0
 16 17  1  0  0  0
M  END
> <minimizedAffinity>
-8.85880

$$$$
4W9P_3JR_A_201


 41 44  0  0  0  0  0  0  0  0999 V2000
   22.7126    4.3827  -13.9785 N   0  0  0  0  0  0  0  0  0  0  0  0
   22.6149    4.3839  -12.6059 C   0  0  0  0  0  0  0  0  0  0  0  0
   22.8711    3.3316  -11.9826 O   0  0  0  0  0  0  0  0  0  0  0  0
   22.4496    5.5713  -14.8424 C   0  0  0  0  0  0  0  0  0  0  0  0
   21.0087    6.1080  -14.6835 C   0  0  0  0  0  0  0  0  0  0  0  0
   20.9265    6.9367  -13.3999 C   0  0  0  0  0  0  0  0  0  0  0  0
   19.6721    6.5607  -12.5587 C   0  0  0  0  0  0  0  0  0  0  0  0
   19.8182    5.2132  -11.8682 C   0  0  0  0  0  0  0  0  0  0  0  0
   21.0890    5.2458  -10.9645 C   0  0  0  0  0  0  0  0  0  0  0  0
   22.3306    5.5415  -11.8328 C   0  0  0  0  0  0  0  0  0  0  0  0
   22.1941    6.8153  -12.6010 N   0  0  0  0  0  0  0  0  0  0  0  0
   20.6002    7.0042  -15.9006 C   0  0  0  0  0  0  0  0  0  0  0  0
   20.7165    8.3586  -15.5099 O   0  0  0  0  0  0  0  0  0  0  0  0
   20.1186    8.5331  -14.7663 H   0  0  0  0  0  0  0  0  0  0  0  0
   19.2218    6.6778  -16.4171 C   0  0  0  0  0  0  0  0  0  0  0  0
   18.3755    7.9123  -16.3045 O   0  0  0  0  0  0  0  0  0  0  0  0
   18.7748    8.6267  -16.8251 H   0  0  0  0  0  0  0  0  0  0  0  0
   22.7367    8.1989  -11.9671 S   0  0  0  0  0  0  0  0  0  0  0  0
   23.6470    7.8003  -10.8172 O   0  0  0  0  0  0  0  0  0  0  0  0
   21.6693    9.2018  -11.7358 O   0  0  0  0  0  0  0  0  0  0  0  0
   23.7817    8.8421  -13.2400 C   0  0  0  0  0  0  0  0  0  0  0  0
   23.4706   10.0143  -13.8740 C   0  0  0  0  0  0  0  0  0  0  0  0
   24.2930   10.5253  -14.8247 C   0  0  0  0  0  0  0  0  0  0  0  0
   23.8692   11.9960  -15.5560 Cl  0  0  0  0  0  0  0  0  0  0  0  0
   25.4210    9.8813  -15.2361 C   0  0  0  0  0  0  0  0  0  0  0  0
   25.7311    8.6988  -14.6034 C   0  0  0  0  0  0  0  0  0  0  0  0
   27.1432    7.8463  -15.0632 Cl  0  0  0  0  0  0  0  0  0  0  0  0
   24.9247    8.1640  -13.6164 C   0  0  0  0  0  0  0  0  0  0  0  0
   22.9993    3.1099  -14.6646 C   0  0  0  0  0  0  0  0  0  0  0  0
   24.3359    3.1374  -15.3979 C   0  0  0  0  0  0  0  0  0  0  0  0
   24.9452    1.8183  -15.4319 O   0  0  0  0  0  0  0  0  0  0  0  0
   27.1062    0.6737  -12.7917 C   0  0  0  0  0  0  0  0  0  0  0  0
   26.0000    0.9435  -13.5648 C   0  0  0  0  0  0  0  0  0  0  0  0
   28.3647    0.9070  -13.2761 C   0  0  0  0  0  0  0  0  0  0  0  0
   28.5295    1.4905  -14.5173 C   0  0  0  0  0  0  0  0  0  0  0  0
   27.4089    1.7759  -15.2790 C   0  0  0  0  0  0  0  0  0  0  0  0
   26.1358    1.5308  -14.8023 C   0  0  0  0  0  0  0  0  0  0  0  0
   26.5254   -1.1866  -11.3766 C   0  0  0  0  0  0  0  0  0  0  0  0
   27.0746    0.1417  -11.5180 O   0  0  0  0  0  0  0  0  0  0  0  0
   29.4280    0.5968  -12.4715 O   0  0  0  0  0  0  0  0  0  0  0  0
   30.1264    1.6315  -11.7547 C   0  0  0  0  0  0  0  0  0  0  0  0
 13 12  1  0  0  0
 16 15  1  0  0  0
 15 12  1  0  0  0
 27 26  1  0  0  0
 12  5  1  0  0  0
 25 26  2  0  0  0
 25 23  1  0  0  0
 30 29  1  0  0  0
 30 31  1  0  0  0
 24 23  1  0  0  0
 26 28  1  0  0  0
  4  5  1  0  0  0
  4  1  1  0  0  0
 23 22  2  0  0  0
 29  1  1  0  0  0
  5  6  1  0  0  0
 31 37  1  0  0  0
 28 21  2  0  0  0
  1  2  1  0  0  0
 36 37  2  0  0  0
 36 35  1  0  0  0
 37 33  1  0  0  0
 22 21  1  0  0  0
 21 18  1  0  0  0
  6 11  1  0  0  0
  6  7  1  0  0  0
 35 34  2  0  0  0
 33 32  2  0  0  0
  2  3  2  0  0  0
  2 10  1  0  0  0
 11 18  1  0  0  0
 11 10  1  0  0  0
 34 32  1  0  0  0
 34 40  1  0  0  0
  7  8  1  0  0  0
 32 39  1  0  0  0
 18 20  2  0  0  0
 18 19  2  0  0  0
 41 40  1  0  0  0
 10  9  1  0  0  0
  8  9  1  0  0  0
 39 38  1  0  0  0
 13 14  1  0  0  0
 16 17  1  0  0  0
M  END
> <minimizedAffinity>
-8.76966

$$$$
4W9P_3JR_A_201


 41 44  0  0  0  0  0  0  0  0999 V2000
   22.5567    4.2761  -14.0230 N   0  0  0  0  0  0  0  0  0  0  0  0
   22.6295    4.3459  -12.6507 C   0  0  0  0  0  0  0  0  0  0  0  0
   23.0538    3.3550  -12.0185 O   0  0  0  0  0  0  0  0  0  0  0  0
   22.0838    5.3885  -14.8989 C   0  0  0  0  0  0  0  0  0  0  0  0
   20.6314    5.8117  -14.5814 C   0  0  0  0  0  0  0  0  0  0  0  0
   20.6344    6.7012  -13.3364 C   0  0  0  0  0  0  0  0  0  0  0  0
   19.5322    6.2699  -12.3256 C   0  0  0  0  0  0  0  0  0  0  0  0
   19.8824    4.9799  -11.5996 C   0  0  0  0  0  0  0  0  0  0  0  0
   21.2470    5.1685  -10.8681 C   0  0  0  0  0  0  0  0  0  0  0  0
   22.3404    5.5174  -11.9005 C   0  0  0  0  0  0  0  0  0  0  0  0
   21.9967    6.7304  -12.7015 N   0  0  0  0  0  0  0  0  0  0  0  0
   19.9972    6.6014  -15.7754 C   0  0  0  0  0  0  0  0  0  0  0  0
   20.0407    5.7761  -16.9231 O   0  0  0  0  0  0  0  0  0  0  0  0
   20.9633    5.5618  -17.1324 H   0  0  0  0  0  0  0  0  0  0  0  0
   20.6690    7.9314  -16.0056 C   0  0  0  0  0  0  0  0  0  0  0  0
   19.6247    8.9117  -16.4541 O   0  0  0  0  0  0  0  0  0  0  0  0
   18.9396    8.9890  -15.7718 H   0  0  0  0  0  0  0  0  0  0  0  0
   22.4874    8.1876  -12.2051 S   0  0  0  0  0  0  0  0  0  0  0  0
   23.3642    7.9387  -10.9889 O   0  0  0  0  0  0  0  0  0  0  0  0
   21.3918    9.1832  -12.1205 O   0  0  0  0  0  0  0  0  0  0  0  0
   23.5636    8.7142  -13.5053 C   0  0  0  0  0  0  0  0  0  0  0  0
   24.6486    7.9609  -13.8629 C   0  0  0  0  0  0  0  0  0  0  0  0
   25.4522    8.3481  -14.8855 C   0  0  0  0  0  0  0  0  0  0  0  0
   26.7661    7.3592  -15.3015 Cl  0  0  0  0  0  0  0  0  0  0  0  0
   25.2624    9.5166  -15.5600 C   0  0  0  0  0  0  0  0  0  0  0  0
   24.1749   10.2781  -15.1965 C   0  0  0  0  0  0  0  0  0  0  0  0
   23.8711   11.7516  -16.0143 Cl  0  0  0  0  0  0  0  0  0  0  0  0
   23.3259    9.8996  -14.1735 C   0  0  0  0  0  0  0  0  0  0  0  0
   22.8692    2.9951  -14.6821 C   0  0  0  0  0  0  0  0  0  0  0  0
   22.3834    2.9554  -16.1269 C   0  0  0  0  0  0  0  0  0  0  0  0
   20.9441    2.7634  -16.1935 O   0  0  0  0  0  0  0  0  0  0  0  0
   18.2859    1.1217  -17.9792 C   0  0  0  0  0  0  0  0  0  0  0  0
   19.0173    2.0305  -17.2490 C   0  0  0  0  0  0  0  0  0  0  0  0
   18.8956    0.0349  -18.5450 C   0  0  0  0  0  0  0  0  0  0  0  0
   20.2382   -0.1986  -18.3192 C   0  0  0  0  0  0  0  0  0  0  0  0
   20.9608    0.7119  -17.5668 C   0  0  0  0  0  0  0  0  0  0  0  0
   20.3550    1.8183  -17.0037 C   0  0  0  0  0  0  0  0  0  0  0  0
   16.3905    2.5348  -18.4391 C   0  0  0  0  0  0  0  0  0  0  0  0
   16.9314    1.2118  -18.2317 O   0  0  0  0  0  0  0  0  0  0  0  0
   18.1220   -0.8222  -19.2806 O   0  0  0  0  0  0  0  0  0  0  0  0
   17.8341   -2.1456  -18.7929 C   0  0  0  0  0  0  0  0  0  0  0  0
 13 12  1  0  0  0
 16 15  1  0  0  0
 15 12  1  0  0  0
 27 26  1  0  0  0
 12  5  1  0  0  0
 25 26  2  0  0  0
 25 23  1  0  0  0
 30 29  1  0  0  0
 30 31  1  0  0  0
 24 23  1  0  0  0
 26 28  1  0  0  0
  4  5  1  0  0  0
  4  1  1  0  0  0
 23 22  2  0  0  0
 29  1  1  0  0  0
  5  6  1  0  0  0
 31 37  1  0  0  0
 28 21  2  0  0  0
  1  2  1  0  0  0
 36 37  2  0  0  0
 36 35  1  0  0  0
 37 33  1  0  0  0
 22 21  1  0  0  0
 21 18  1  0  0  0
  6 11  1  0  0  0
  6  7  1  0  0  0
 35 34  2  0  0  0
 33 32  2  0  0  0
  2  3  2  0  0  0
  2 10  1  0  0  0
 11 18  1  0  0  0
 11 10  1  0  0  0
 34 32  1  0  0  0
 34 40  1  0  0  0
  7  8  1  0  0  0
 32 39  1  0  0  0
 18 20  2  0  0  0
 18 19  2  0  0  0
 41 40  1  0  0  0
 10  9  1  0  0  0
  8  9  1  0  0  0
 39 38  1  0  0  0
 13 14  1  0  0  0
 16 17  1  0  0  0
M  END
> <minimizedAffinity>
-8.49696

$$$$
4W9P_3JR_A_201


 41 44  0  0  0  0  0  0  0  0999 V2000
   22.4873    4.3117  -14.2020 N   0  0  0  0  0  0  0  0  0  0  0  0
   22.4404    4.2386  -12.8287 C   0  0  0  0  0  0  0  0  0  0  0  0
   22.6642    3.1407  -12.2755 O   0  0  0  0  0  0  0  0  0  0  0  0
   22.2550    5.5596  -14.9874 C   0  0  0  0  0  0  0  0  0  0  0  0
   20.8508    6.1575  -14.7418 C   0  0  0  0  0  0  0  0  0  0  0  0
   20.8591    6.9139  -13.4118 C   0  0  0  0  0  0  0  0  0  0  0  0
   19.6187    6.5532  -12.5437 C   0  0  0  0  0  0  0  0  0  0  0  0
   19.7197    5.1626  -11.9356 C   0  0  0  0  0  0  0  0  0  0  0  0
   21.0229    5.0797  -11.0826 C   0  0  0  0  0  0  0  0  0  0  0  0
   22.2454    5.3626  -11.9817 C   0  0  0  0  0  0  0  0  0  0  0  0
   22.1472    6.6837  -12.6718 N   0  0  0  0  0  0  0  0  0  0  0  0
   20.4450    7.1416  -15.8900 C   0  0  0  0  0  0  0  0  0  0  0  0
   20.8126    8.4505  -15.4998 O   0  0  0  0  0  0  0  0  0  0  0  0
   20.3397    8.6905  -14.6876 H   0  0  0  0  0  0  0  0  0  0  0  0
   18.9820    7.0427  -16.2408 C   0  0  0  0  0  0  0  0  0  0  0  0
   18.8196    7.4268  -17.6826 O   0  0  0  0  0  0  0  0  0  0  0  0
   19.3448    6.8293  -18.2376 H   0  0  0  0  0  0  0  0  0  0  0  0
   22.7840    7.9997  -11.9840 S   0  0  0  0  0  0  0  0  0  0  0  0
   23.7226    7.4904  -10.9026 O   0  0  0  0  0  0  0  0  0  0  0  0
   21.7782    9.0353  -11.6455 O   0  0  0  0  0  0  0  0  0  0  0  0
   23.8033    8.6696  -13.2641 C   0  0  0  0  0  0  0  0  0  0  0  0
   23.5412    9.9046  -13.7919 C   0  0  0  0  0  0  0  0  0  0  0  0
   24.3462   10.4327  -14.7481 C   0  0  0  0  0  0  0  0  0  0  0  0
   23.9874   11.9795  -15.3447 Cl  0  0  0  0  0  0  0  0  0  0  0  0
   25.4042    9.7503  -15.2692 C   0  0  0  0  0  0  0  0  0  0  0  0
   25.6645    8.5051  -14.7434 C   0  0  0  0  0  0  0  0  0  0  0  0
   26.9885    7.6006  -15.3440 Cl  0  0  0  0  0  0  0  0  0  0  0  0
   24.8756    7.9496  -13.7537 C   0  0  0  0  0  0  0  0  0  0  0  0
   22.6819    3.0677  -14.9686 C   0  0  0  0  0  0  0  0  0  0  0  0
   22.0112    3.1217  -16.3369 C   0  0  0  0  0  0  0  0  0  0  0  0
   20.6566    2.5977  -16.2805 O   0  0  0  0  0  0  0  0  0  0  0  0
   18.4617   -0.0735  -17.2791 C   0  0  0  0  0  0  0  0  0  0  0  0
   18.9492    1.1303  -16.8239 C   0  0  0  0  0  0  0  0  0  0  0  0
   19.3047   -0.9986  -17.8328 C   0  0  0  0  0  0  0  0  0  0  0  0
   20.6650   -0.7606  -17.8656 C   0  0  0  0  0  0  0  0  0  0  0  0
   21.1472    0.4459  -17.3870 C   0  0  0  0  0  0  0  0  0  0  0  0
   20.3008    1.3901  -16.8390 C   0  0  0  0  0  0  0  0  0  0  0  0
   16.2680    0.1257  -18.2531 C   0  0  0  0  0  0  0  0  0  0  0  0
   17.1347   -0.4539  -17.2537 O   0  0  0  0  0  0  0  0  0  0  0  0
   18.7599   -2.1682  -18.2905 O   0  0  0  0  0  0  0  0  0  0  0  0
   19.6082   -3.2492  -18.7192 C   0  0  0  0  0  0  0  0  0  0  0  0
 13 12  1  0  0  0
 16 15  1  0  0  0
 15 12  1  0  0  0
 27 26  1  0  0  0
 12  5  1  0  0  0
 25 26  2  0  0  0
 25 23  1  0  0  0
 30 29  1  0  0  0
 30 31  1  0  0  0
 24 23  1  0  0  0
 26 28  1  0  0  0
  4  5  1  0  0  0
  4  1  1  0  0  0
 23 22  2  0  0  0
 29  1  1  0  0  0
  5  6  1  0  0  0
 31 37  1  0  0  0
 28 21  2  0  0  0
  1  2  1  0  0  0
 36 37  2  0  0  0
 36 35  1  0  0  0
 37 33  1  0  0  0
 22 21  1  0  0  0
 21 18  1  0  0  0
  6 11  1  0  0  0
  6  7  1  0  0  0
 35 34  2  0  0  0
 33 32  2  0  0  0
  2  3  2  0  0  0
  2 10  1  0  0  0
 11 18  1  0  0  0
 11 10  1  0  0  0
 34 32  1  0  0  0
 34 40  1  0  0  0
  7  8  1  0  0  0
 32 39  1  0  0  0
 18 20  2  0  0  0
 18 19  2  0  0  0
 41 40  1  0  0  0
 10  9  1  0  0  0
  8  9  1  0  0  0
 39 38  1  0  0  0
 13 14  1  0  0  0
 16 17  1  0  0  0
M  END
> <minimizedAffinity>
-8.08375

$$$$
4W9P_3JR_A_201


 41 44  0  0  0  0  0  0  0  0999 V2000
   22.6010    4.3307  -13.9911 N   0  0  0  0  0  0  0  0  0  0  0  0
   22.6019    4.3409  -12.6151 C   0  0  0  0  0  0  0  0  0  0  0  0
   22.9345    3.3024  -12.0049 O   0  0  0  0  0  0  0  0  0  0  0  0
   22.2403    5.5031  -14.8417 C   0  0  0  0  0  0  0  0  0  0  0  0
   20.7986    5.9972  -14.5832 C   0  0  0  0  0  0  0  0  0  0  0  0
   20.7828    6.8342  -13.3024 C   0  0  0  0  0  0  0  0  0  0  0  0
   19.6042    6.4277  -12.3709 C   0  0  0  0  0  0  0  0  0  0  0  0
   19.8409    5.0913  -11.6839 C   0  0  0  0  0  0  0  0  0  0  0  0
   21.1715    5.1704  -10.8740 C   0  0  0  0  0  0  0  0  0  0  0  0
   22.3380    5.4961  -11.8312 C   0  0  0  0  0  0  0  0  0  0  0  0
   22.1075    6.7584  -12.5959 N   0  0  0  0  0  0  0  0  0  0  0  0
   20.2764    6.8699  -15.7737 C   0  0  0  0  0  0  0  0  0  0  0  0
   18.9722    7.3152  -15.4556 O   0  0  0  0  0  0  0  0  0  0  0  0
   18.3888    6.5492  -15.3376 H   0  0  0  0  0  0  0  0  0  0  0  0
   20.3208    6.1333  -17.0885 C   0  0  0  0  0  0  0  0  0  0  0  0
   18.9829    6.2805  -17.7526 O   0  0  0  0  0  0  0  0  0  0  0  0
   18.7942    7.2213  -17.8946 H   0  0  0  0  0  0  0  0  0  0  0  0
   22.6511    8.1633  -12.0117 S   0  0  0  0  0  0  0  0  0  0  0  0
   23.5582    7.8055  -10.8461 O   0  0  0  0  0  0  0  0  0  0  0  0
   21.5848    9.1757  -11.8196 O   0  0  0  0  0  0  0  0  0  0  0  0
   23.6999    8.7580  -13.3049 C   0  0  0  0  0  0  0  0  0  0  0  0
   23.4399    9.9510  -13.9228 C   0  0  0  0  0  0  0  0  0  0  0  0
   24.2668   10.4234  -14.8895 C   0  0  0  0  0  0  0  0  0  0  0  0
   23.9087   11.9216  -15.5998 Cl  0  0  0  0  0  0  0  0  0  0  0  0
   25.3469    9.7210  -15.3326 C   0  0  0  0  0  0  0  0  0  0  0  0
   25.6053    8.5177  -14.7161 C   0  0  0  0  0  0  0  0  0  0  0  0
   26.9561    7.5917  -15.2159 Cl  0  0  0  0  0  0  0  0  0  0  0  0
   24.7939    8.0204  -13.7137 C   0  0  0  0  0  0  0  0  0  0  0  0
   22.8771    3.0613  -14.6876 C   0  0  0  0  0  0  0  0  0  0  0  0
   24.1971    3.0961  -15.4501 C   0  0  0  0  0  0  0  0  0  0  0  0
   24.1396    2.2647  -16.6410 O   0  0  0  0  0  0  0  0  0  0  0  0
   22.6791   -0.9442  -17.3622 C   0  0  0  0  0  0  0  0  0  0  0  0
   22.9843    0.3977  -17.3781 C   0  0  0  0  0  0  0  0  0  0  0  0
   23.4313   -1.8180  -16.6248 C   0  0  0  0  0  0  0  0  0  0  0  0
   24.4553   -1.3449  -15.8276 C   0  0  0  0  0  0  0  0  0  0  0  0
   24.7416    0.0098  -15.8361 C   0  0  0  0  0  0  0  0  0  0  0  0
   23.9954    0.8961  -16.5883 C   0  0  0  0  0  0  0  0  0  0  0  0
   20.3040   -1.2042  -17.6652 C   0  0  0  0  0  0  0  0  0  0  0  0
   21.6506   -1.5334  -18.0703 O   0  0  0  0  0  0  0  0  0  0  0  0
   23.0956   -3.1446  -16.6663 O   0  0  0  0  0  0  0  0  0  0  0  0
   24.0500   -4.1247  -17.1142 C   0  0  0  0  0  0  0  0  0  0  0  0
 13 12  1  0  0  0
 16 15  1  0  0  0
 15 12  1  0  0  0
 27 26  1  0  0  0
 12  5  1  0  0  0
 25 26  2  0  0  0
 25 23  1  0  0  0
 30 29  1  0  0  0
 30 31  1  0  0  0
 24 23  1  0  0  0
 26 28  1  0  0  0
  4  5  1  0  0  0
  4  1  1  0  0  0
 23 22  2  0  0  0
 29  1  1  0  0  0
  5  6  1  0  0  0
 31 37  1  0  0  0
 28 21  2  0  0  0
  1  2  1  0  0  0
 36 37  2  0  0  0
 36 35  1  0  0  0
 37 33  1  0  0  0
 22 21  1  0  0  0
 21 18  1  0  0  0
  6 11  1  0  0  0
  6  7  1  0  0  0
 35 34  2  0  0  0
 33 32  2  0  0  0
  2  3  2  0  0  0
  2 10  1  0  0  0
 11 18  1  0  0  0
 11 10  1  0  0  0
 34 32  1  0  0  0
 34 40  1  0  0  0
  7  8  1  0  0  0
 32 39  1  0  0  0
 18 20  2  0  0  0
 18 19  2  0  0  0
 41 40  1  0  0  0
 10  9  1  0  0  0
  8  9  1  0  0  0
 39 38  1  0  0  0
 13 14  1  0  0  0
 16 17  1  0  0  0
M  END
> <minimizedAffinity>
-8.03812

$$$$
4W9P_3JR_A_201


 41 44  0  0  0  0  0  0  0  0999 V2000
   25.1208    7.9025  -15.6495 N   0  0  0  0  0  0  0  0  0  0  0  0
   26.2458    7.6272  -16.3924 C   0  0  0  0  0  0  0  0  0  0  0  0
   27.2666    8.3278  -16.2226 O   0  0  0  0  0  0  0  0  0  0  0  0
   23.8424    7.1373  -15.7420 C   0  0  0  0  0  0  0  0  0  0  0  0
   23.2337    7.1767  -17.1624 C   0  0  0  0  0  0  0  0  0  0  0  0
   23.9773    6.1756  -18.0490 C   0  0  0  0  0  0  0  0  0  0  0  0
   24.3604    6.8042  -19.4203 C   0  0  0  0  0  0  0  0  0  0  0  0
   25.5079    7.7961  -19.3045 C   0  0  0  0  0  0  0  0  0  0  0  0
   26.7378    7.0716  -18.6759 C   0  0  0  0  0  0  0  0  0  0  0  0
   26.3572    6.5258  -17.2830 C   0  0  0  0  0  0  0  0  0  0  0  0
   25.1753    5.6139  -17.3357 N   0  0  0  0  0  0  0  0  0  0  0  0
   21.7119    6.8093  -17.1373 C   0  0  0  0  0  0  0  0  0  0  0  0
   21.1106    7.3397  -18.3024 O   0  0  0  0  0  0  0  0  0  0  0  0
   21.2090    8.3047  -18.3064 H   0  0  0  0  0  0  0  0  0  0  0  0
   21.0279    7.2812  -15.8793 C   0  0  0  0  0  0  0  0  0  0  0  0
   20.1594    8.4539  -16.2307 O   0  0  0  0  0  0  0  0  0  0  0  0
   19.5054    8.1845  -16.8944 H   0  0  0  0  0  0  0  0  0  0  0  0
   25.3941    4.0234  -17.5168 S   0  0  0  0  0  0  0  0  0  0  0  0
   26.8939    3.7969  -17.4224 O   0  0  0  0  0  0  0  0  0  0  0  0
   24.6422    3.4496  -18.6589 O   0  0  0  0  0  0  0  0  0  0  0  0
   24.6870    3.3495  -16.0431 C   0  0  0  0  0  0  0  0  0  0  0  0
   23.3710    3.5663  -15.7367 C   0  0  0  0  0  0  0  0  0  0  0  0
   22.8207    3.0176  -14.6244 C   0  0  0  0  0  0  0  0  0  0  0  0
   21.1774    3.2985  -14.3113 Cl  0  0  0  0  0  0  0  0  0  0  0  0
   23.5489    2.2849  -13.7359 C   0  0  0  0  0  0  0  0  0  0  0  0
   24.8744    2.0718  -14.0401 C   0  0  0  0  0  0  0  0  0  0  0  0
   25.8422    1.1470  -12.9723 Cl  0  0  0  0  0  0  0  0  0  0  0  0
   25.4580    2.5995  -15.1765 C   0  0  0  0  0  0  0  0  0  0  0  0
   25.1274    9.0861  -14.7709 C   0  0  0  0  0  0  0  0  0  0  0  0
   23.7393    9.6976  -14.6153 C   0  0  0  0  0  0  0  0  0  0  0  0
   23.3669    9.8095  -13.2148 O   0  0  0  0  0  0  0  0  0  0  0  0
   21.2299    7.3622  -11.6675 C   0  0  0  0  0  0  0  0  0  0  0  0
   21.7065    8.3840  -12.4567 C   0  0  0  0  0  0  0  0  0  0  0  0
   22.0895    6.6061  -10.9175 C   0  0  0  0  0  0  0  0  0  0  0  0
   23.4352    6.9164  -10.8876 C   0  0  0  0  0  0  0  0  0  0  0  0
   23.9014    7.9589  -11.6706 C   0  0  0  0  0  0  0  0  0  0  0  0
   23.0417    8.7180  -12.4406 C   0  0  0  0  0  0  0  0  0  0  0  0
   19.3395    6.2745  -12.6892 C   0  0  0  0  0  0  0  0  0  0  0  0
   19.9048    6.9875  -11.5676 O   0  0  0  0  0  0  0  0  0  0  0  0
   21.5612    5.5878  -10.1705 O   0  0  0  0  0  0  0  0  0  0  0  0
   21.6517    4.2256  -10.6270 C   0  0  0  0  0  0  0  0  0  0  0  0
 13 12  1  0  0  0
 16 15  1  0  0  0
 15 12  1  0  0  0
 27 26  1  0  0  0
 12  5  1  0  0  0
 25 26  2  0  0  0
 25 23  1  0  0  0
 30 29  1  0  0  0
 30 31  1  0  0  0
 24 23  1  0  0  0
 26 28  1  0  0  0
  4  5  1  0  0  0
  4  1  1  0  0  0
 23 22  2  0  0  0
 29  1  1  0  0  0
  5  6  1  0  0  0
 31 37  1  0  0  0
 28 21  2  0  0  0
  1  2  1  0  0  0
 36 37  2  0  0  0
 36 35  1  0  0  0
 37 33  1  0  0  0
 22 21  1  0  0  0
 21 18  1  0  0  0
  6 11  1  0  0  0
  6  7  1  0  0  0
 35 34  2  0  0  0
 33 32  2  0  0  0
  2  3  2  0  0  0
  2 10  1  0  0  0
 11 18  1  0  0  0
 11 10  1  0  0  0
 34 32  1  0  0  0
 34 40  1  0  0  0
  7  8  1  0  0  0
 32 39  1  0  0  0
 18 20  2  0  0  0
 18 19  2  0  0  0
 41 40  1  0  0  0
 10  9  1  0  0  0
  8  9  1  0  0  0
 39 38  1  0  0  0
 13 14  1  0  0  0
 16 17  1  0  0  0
M  END
> <minimizedAffinity>
-7.32948

$$$$
4W9P_3JR_A_201


 41 44  0  0  0  0  0  0  0  0999 V2000
   23.3970    7.7058  -16.8579 N   0  0  0  0  0  0  0  0  0  0  0  0
   24.4486    7.7849  -15.9740 C   0  0  0  0  0  0  0  0  0  0  0  0
   24.5862    6.8843  -15.1187 O   0  0  0  0  0  0  0  0  0  0  0  0
   23.1254    8.7028  -17.9351 C   0  0  0  0  0  0  0  0  0  0  0  0
   22.8906   10.1248  -17.3762 C   0  0  0  0  0  0  0  0  0  0  0  0
   24.2433   10.7551  -17.0386 C   0  0  0  0  0  0  0  0  0  0  0  0
   24.2256   11.4228  -15.6328 C   0  0  0  0  0  0  0  0  0  0  0  0
   24.2404   10.4024  -14.5048 C   0  0  0  0  0  0  0  0  0  0  0  0
   25.5013    9.4976  -14.6610 C   0  0  0  0  0  0  0  0  0  0  0  0
   25.4567    8.7846  -16.0295 C   0  0  0  0  0  0  0  0  0  0  0  0
   25.3515    9.7475  -17.1666 N   0  0  0  0  0  0  0  0  0  0  0  0
   22.1486   11.0279  -18.4179 C   0  0  0  0  0  0  0  0  0  0  0  0
   21.9696   12.3081  -17.8438 O   0  0  0  0  0  0  0  0  0  0  0  0
   21.4289   12.2302  -17.0422 H   0  0  0  0  0  0  0  0  0  0  0  0
   20.8459   10.4236  -18.8772 C   0  0  0  0  0  0  0  0  0  0  0  0
   19.9755   10.2166  -17.6721 O   0  0  0  0  0  0  0  0  0  0  0  0
   19.8211   11.0685  -17.2346 H   0  0  0  0  0  0  0  0  0  0  0  0
   26.6918   10.2942  -17.8842 S   0  0  0  0  0  0  0  0  0  0  0  0
   27.7165   10.4659  -16.7751 O   0  0  0  0  0  0  0  0  0  0  0  0
   26.4442   11.4130  -18.8253 O   0  0  0  0  0  0  0  0  0  0  0  0
   27.2215    8.9131  -18.8529 C   0  0  0  0  0  0  0  0  0  0  0  0
   26.3086    8.0858  -19.4484 C   0  0  0  0  0  0  0  0  0  0  0  0
   26.7171    7.0483  -20.2218 C   0  0  0  0  0  0  0  0  0  0  0  0
   25.5393    6.0738  -20.9569 Cl  0  0  0  0  0  0  0  0  0  0  0  0
   28.0334    6.7421  -20.3953 C   0  0  0  0  0  0  0  0  0  0  0  0
   28.9522    7.5700  -19.7912 C   0  0  0  0  0  0  0  0  0  0  0  0
   30.6235    7.2493  -19.9814 Cl  0  0  0  0  0  0  0  0  0  0  0  0
   28.5672    8.6472  -19.0153 C   0  0  0  0  0  0  0  0  0  0  0  0
   22.4083    6.6264  -16.6837 C   0  0  0  0  0  0  0  0  0  0  0  0
   20.9756    7.1253  -16.8365 C   0  0  0  0  0  0  0  0  0  0  0  0
   20.5691    7.9193  -15.6888 O   0  0  0  0  0  0  0  0  0  0  0  0
   21.6810    7.6552  -12.2765 C   0  0  0  0  0  0  0  0  0  0  0  0
   21.4895    8.0844  -13.5700 C   0  0  0  0  0  0  0  0  0  0  0  0
   20.9304    6.6303  -11.7673 C   0  0  0  0  0  0  0  0  0  0  0  0
   20.0287    5.9669  -12.5765 C   0  0  0  0  0  0  0  0  0  0  0  0
   19.8577    6.3943  -13.8824 C   0  0  0  0  0  0  0  0  0  0  0  0
   20.6021    7.4368  -14.3993 C   0  0  0  0  0  0  0  0  0  0  0  0
   23.9870    7.9930  -11.6691 C   0  0  0  0  0  0  0  0  0  0  0  0
   22.5857    8.1973  -11.3854 O   0  0  0  0  0  0  0  0  0  0  0  0
   21.1481    6.2622  -10.4668 O   0  0  0  0  0  0  0  0  0  0  0  0
   21.8962    5.0708  -10.1616 C   0  0  0  0  0  0  0  0  0  0  0  0
 13 12  1  0  0  0
 16 15  1  0  0  0
 15 12  1  0  0  0
 27 26  1  0  0  0
 12  5  1  0  0  0
 25 26  2  0  0  0
 25 23  1  0  0  0
 30 29  1  0  0  0
 30 31  1  0  0  0
 24 23  1  0  0  0
 26 28  1  0  0  0
  4  5  1  0  0  0
  4  1  1  0  0  0
 23 22  2  0  0  0
 29  1  1  0  0  0
  5  6  1  0  0  0
 31 37  1  0  0  0
 28 21  2  0  0  0
  1  2  1  0  0  0
 36 37  2  0  0  0
 36 35  1  0  0  0
 37 33  1  0  0  0
 22 21  1  0  0  0
 21 18  1  0  0  0
  6 11  1  0  0  0
  6  7  1  0  0  0
 35 34  2  0  0  0
 33 32  2  0  0  0
  2  3  2  0  0  0
  2 10  1  0  0  0
 11 18  1  0  0  0
 11 10  1  0  0  0
 34 32  1  0  0  0
 34 40  1  0  0  0
  7  8  1  0  0  0
 32 39  1  0  0  0
 18 20  2  0  0  0
 18 19  2  0  0  0
 41 40  1  0  0  0
 10  9  1  0  0  0
  8  9  1  0  0  0
 39 38  1  0  0  0
 13 14  1  0  0  0
 16 17  1  0  0  0
M  END
> <minimizedAffinity>
-7.22414

$$$$
