966C_RS2_A_1


 29 31  0  0  0  0  0  0  0  0999 V2000
    9.7205  -11.8929   35.3456 S   0  0  0  0  0  0  0  0  0  0  0  0
    9.9508  -11.3991   34.0036 O   0  0  0  0  0  0  0  0  0  0  0  0
    8.8287  -12.9893   35.4770 O   0  0  0  0  0  0  0  0  0  0  0  0
    7.6383   -8.5458   37.6560 C   0  0  0  0  0  0  0  0  0  0  0  0
    7.6041   -9.8902   38.1337 C   0  0  0  0  0  0  0  0  0  0  0  0
    8.3120  -10.8978   37.4630 C   0  0  0  0  0  0  0  0  0  0  0  0
    8.9954  -10.5714   36.3101 C   0  0  0  0  0  0  0  0  0  0  0  0
    9.1162   -9.2452   35.8579 C   0  0  0  0  0  0  0  0  0  0  0  0
    8.4224   -8.2367   36.5359 C   0  0  0  0  0  0  0  0  0  0  0  0
    6.9540   -7.4745   38.2338 O   0  0  0  0  0  0  0  0  0  0  0  0
    4.3840   -7.7008   40.8495 C   0  0  0  0  0  0  0  0  0  0  0  0
    5.1826   -7.8265   41.9787 C   0  0  0  0  0  0  0  0  0  0  0  0
    6.5589   -7.8941   41.8336 C   0  0  0  0  0  0  0  0  0  0  0  0
    7.1619   -7.7951   40.5756 C   0  0  0  0  0  0  0  0  0  0  0  0
    6.3670   -7.6385   39.4512 C   0  0  0  0  0  0  0  0  0  0  0  0
    4.9838   -7.6256   39.5834 C   0  0  0  0  0  0  0  0  0  0  0  0
   11.2749  -12.2994   36.1320 C   0  0  0  0  0  0  0  0  0  0  0  0
   11.4722  -13.7660   35.6187 C   0  0  0  0  0  0  0  0  0  0  0  0
   12.7359  -14.4253   36.2571 C   0  0  0  0  0  0  0  0  0  0  0  0
   12.6986  -14.2587   37.6789 O   0  0  0  0  0  0  0  0  0  0  0  0
   12.4568  -12.9695   38.2583 C   0  0  0  0  0  0  0  0  0  0  0  0
   11.1499  -12.3799   37.6924 C   0  0  0  0  0  0  0  0  0  0  0  0
   12.4349  -11.3515   35.6084 C   0  0  0  0  0  0  0  0  0  0  0  0
   12.5467   -9.8823   36.1445 C   0  0  0  0  0  0  0  0  0  0  0  0
   12.4373   -9.5826   37.3212 O   0  0  0  0  0  0  0  0  0  0  0  0
   12.7791   -8.9482   35.2134 N   0  0  0  0  0  0  0  0  0  0  0  0
   12.8560   -7.5584   35.4881 O   0  0  0  0  0  0  0  0  0  0  0  0
   12.9040   -9.2435   34.2826 H   0  0  0  0  0  0  0  0  0  0  0  0
   12.7157   -7.4080   36.4361 H   0  0  0  0  0  0  0  0  0  0  0  0
 11 12  2  0  0  0
 11 16  1  0  0  0
 12 13  1  0  0  0
 13 14  2  0  0  0
 14 15  1  0  0  0
 15 16  2  0  0  0
 15 10  1  0  0  0
 10  4  1  0  0  0
  4  5  2  0  0  0
  4  9  1  0  0  0
  5  6  1  0  0  0
  6  7  2  0  0  0
  7  8  1  0  0  0
  7  1  1  0  0  0
  8  9  2  0  0  0
  1 17  1  0  0  0
  1  2  2  0  0  0
  1  3  2  0  0  0
 17 23  1  0  0  0
 17 18  1  0  0  0
 17 22  1  0  0  0
 23 24  1  0  0  0
 24 25  2  0  0  0
 24 26  1  0  0  0
 26 27  1  0  0  0
 18 19  1  0  0  0
 19 20  1  0  0  0
 20 21  1  0  0  0
 21 22  1  0  0  0
 26 28  1  0  0  0
 27 29  1  0  0  0
M  END
> <minimizedAffinity>
-10.27656

$$$$
966C_RS2_A_1


 29 31  0  0  0  0  0  0  0  0999 V2000
    7.9569   -8.5561   37.1557 S   0  0  0  0  0  0  0  0  0  0  0  0
    8.8740   -7.4473   36.9897 O   0  0  0  0  0  0  0  0  0  0  0  0
    6.9047   -8.6601   36.2088 O   0  0  0  0  0  0  0  0  0  0  0  0
    5.8688   -8.3874   41.2162 C   0  0  0  0  0  0  0  0  0  0  0  0
    7.2920   -8.4531   41.1320 C   0  0  0  0  0  0  0  0  0  0  0  0
    7.9291   -8.4237   39.8832 C   0  0  0  0  0  0  0  0  0  0  0  0
    7.1519   -8.3819   38.7444 C   0  0  0  0  0  0  0  0  0  0  0  0
    5.7540   -8.2350   38.7934 C   0  0  0  0  0  0  0  0  0  0  0  0
    5.1188   -8.2488   40.0402 C   0  0  0  0  0  0  0  0  0  0  0  0
    5.1355   -8.4316   42.4037 O   0  0  0  0  0  0  0  0  0  0  0  0
    4.9875   -5.8547   45.0183 C   0  0  0  0  0  0  0  0  0  0  0  0
    4.1207   -4.9446   44.4277 C   0  0  0  0  0  0  0  0  0  0  0  0
    3.6544   -5.1839   43.1451 C   0  0  0  0  0  0  0  0  0  0  0  0
    4.0058   -6.3456   42.4500 C   0  0  0  0  0  0  0  0  0  0  0  0
    4.8462   -7.2693   43.0510 C   0  0  0  0  0  0  0  0  0  0  0  0
    5.3618   -7.0095   44.3149 C   0  0  0  0  0  0  0  0  0  0  0  0
    8.8561  -10.1014   37.2106 C   0  0  0  0  0  0  0  0  0  0  0  0
    8.9289  -10.4364   35.6823 C   0  0  0  0  0  0  0  0  0  0  0  0
    9.5866  -11.8317   35.4380 C   0  0  0  0  0  0  0  0  0  0  0  0
    8.9523  -12.8135   36.2652 O   0  0  0  0  0  0  0  0  0  0  0  0
    8.7715  -12.5814   37.6686 C   0  0  0  0  0  0  0  0  0  0  0  0
    8.0282  -11.2486   37.8855 C   0  0  0  0  0  0  0  0  0  0  0  0
   10.3069   -9.8868   37.8166 C   0  0  0  0  0  0  0  0  0  0  0  0
   11.5272   -9.6515   36.8607 C   0  0  0  0  0  0  0  0  0  0  0  0
   12.4305  -10.4559   36.7081 O   0  0  0  0  0  0  0  0  0  0  0  0
   11.5215   -8.4870   36.1993 N   0  0  0  0  0  0  0  0  0  0  0  0
   12.5623   -8.0632   35.3332 O   0  0  0  0  0  0  0  0  0  0  0  0
   10.7488   -7.8892   36.3213 H   0  0  0  0  0  0  0  0  0  0  0  0
   13.2553   -8.7412   35.3046 H   0  0  0  0  0  0  0  0  0  0  0  0
 11 12  2  0  0  0
 11 16  1  0  0  0
 12 13  1  0  0  0
 13 14  2  0  0  0
 14 15  1  0  0  0
 15 16  2  0  0  0
 15 10  1  0  0  0
 10  4  1  0  0  0
  4  5  2  0  0  0
  4  9  1  0  0  0
  5  6  1  0  0  0
  6  7  2  0  0  0
  7  8  1  0  0  0
  7  1  1  0  0  0
  8  9  2  0  0  0
  1 17  1  0  0  0
  1  2  2  0  0  0
  1  3  2  0  0  0
 17 23  1  0  0  0
 17 18  1  0  0  0
 17 22  1  0  0  0
 23 24  1  0  0  0
 24 25  2  0  0  0
 24 26  1  0  0  0
 26 27  1  0  0  0
 18 19  1  0  0  0
 19 20  1  0  0  0
 20 21  1  0  0  0
 21 22  1  0  0  0
 26 28  1  0  0  0
 27 29  1  0  0  0
M  END
> <minimizedAffinity>
-9.03268

$$$$
966C_RS2_A_1


 29 31  0  0  0  0  0  0  0  0999 V2000
   11.1166  -10.2595   37.1677 S   0  0  0  0  0  0  0  0  0  0  0  0
   12.0876  -10.1622   38.2379 O   0  0  0  0  0  0  0  0  0  0  0  0
   11.4176   -9.5621   35.9686 O   0  0  0  0  0  0  0  0  0  0  0  0
    7.0565   -8.7275   38.5977 C   0  0  0  0  0  0  0  0  0  0  0  0
    7.9955   -9.2735   39.5235 C   0  0  0  0  0  0  0  0  0  0  0  0
    9.2694   -9.6675   39.0899 C   0  0  0  0  0  0  0  0  0  0  0  0
    9.5736   -9.5637   37.7485 C   0  0  0  0  0  0  0  0  0  0  0  0
    8.7035   -8.9566   36.8253 C   0  0  0  0  0  0  0  0  0  0  0  0
    7.4376   -8.5491   37.2606 C   0  0  0  0  0  0  0  0  0  0  0  0
    5.7584   -8.3258   38.9190 O   0  0  0  0  0  0  0  0  0  0  0  0
    6.3678   -6.6326   42.1221 C   0  0  0  0  0  0  0  0  0  0  0  0
    5.0632   -6.4142   42.5451 C   0  0  0  0  0  0  0  0  0  0  0  0
    4.0113   -6.7828   41.7221 C   0  0  0  0  0  0  0  0  0  0  0  0
    4.2369   -7.4096   40.4924 C   0  0  0  0  0  0  0  0  0  0  0  0
    5.5380   -7.6559   40.0836 C   0  0  0  0  0  0  0  0  0  0  0  0
    6.5990   -7.2391   40.8783 C   0  0  0  0  0  0  0  0  0  0  0  0
   10.7858  -11.9753   36.7849 C   0  0  0  0  0  0  0  0  0  0  0  0
   12.2244  -12.4568   36.3955 C   0  0  0  0  0  0  0  0  0  0  0  0
   12.2117  -13.9367   35.8966 C   0  0  0  0  0  0  0  0  0  0  0  0
   11.2040  -14.0966   34.8918 O   0  0  0  0  0  0  0  0  0  0  0  0
    9.8669  -13.6298   35.1159 C   0  0  0  0  0  0  0  0  0  0  0  0
    9.8932  -12.1390   35.5067 C   0  0  0  0  0  0  0  0  0  0  0  0
   10.2547  -12.7453   38.0668 C   0  0  0  0  0  0  0  0  0  0  0  0
    8.7384  -13.1289   38.1767 C   0  0  0  0  0  0  0  0  0  0  0  0
    7.8282  -12.3824   37.8595 O   0  0  0  0  0  0  0  0  0  0  0  0
    8.4903  -14.3576   38.6482 N   0  0  0  0  0  0  0  0  0  0  0  0
    7.1871  -14.8703   38.8754 O   0  0  0  0  0  0  0  0  0  0  0  0
    9.2583  -14.9400   38.8490 H   0  0  0  0  0  0  0  0  0  0  0  0
    6.5293  -14.1982   38.6378 H   0  0  0  0  0  0  0  0  0  0  0  0
 11 12  2  0  0  0
 11 16  1  0  0  0
 12 13  1  0  0  0
 13 14  2  0  0  0
 14 15  1  0  0  0
 15 16  2  0  0  0
 15 10  1  0  0  0
 10  4  1  0  0  0
  4  5  2  0  0  0
  4  9  1  0  0  0
  5  6  1  0  0  0
  6  7  2  0  0  0
  7  8  1  0  0  0
  7  1  1  0  0  0
  8  9  2  0  0  0
  1 17  1  0  0  0
  1  2  2  0  0  0
  1  3  2  0  0  0
 17 23  1  0  0  0
 17 18  1  0  0  0
 17 22  1  0  0  0
 23 24  1  0  0  0
 24 25  2  0  0  0
 24 26  1  0  0  0
 26 27  1  0  0  0
 18 19  1  0  0  0
 19 20  1  0  0  0
 20 21  1  0  0  0
 21 22  1  0  0  0
 26 28  1  0  0  0
 27 29  1  0  0  0
M  END
> <minimizedAffinity>
-8.98275

$$$$
966C_RS2_A_1


 29 31  0  0  0  0  0  0  0  0999 V2000
    9.6199  -11.9538   35.3067 S   0  0  0  0  0  0  0  0  0  0  0  0
    9.9229  -11.4318   33.9901 O   0  0  0  0  0  0  0  0  0  0  0  0
    8.6715  -13.0079   35.3716 O   0  0  0  0  0  0  0  0  0  0  0  0
    7.6187   -8.5814   37.6515 C   0  0  0  0  0  0  0  0  0  0  0  0
    7.5179   -9.9346   38.0937 C   0  0  0  0  0  0  0  0  0  0  0  0
    8.2008  -10.9537   37.4146 C   0  0  0  0  0  0  0  0  0  0  0  0
    8.9254  -10.6276   36.2871 C   0  0  0  0  0  0  0  0  0  0  0  0
    9.1112   -9.2968   35.8719 C   0  0  0  0  0  0  0  0  0  0  0  0
    8.4423   -8.2775   36.5587 C   0  0  0  0  0  0  0  0  0  0  0  0
    6.9644   -7.4973   38.2400 O   0  0  0  0  0  0  0  0  0  0  0  0
    4.4106   -7.7018   40.8734 C   0  0  0  0  0  0  0  0  0  0  0  0
    5.2161   -7.8244   41.9980 C   0  0  0  0  0  0  0  0  0  0  0  0
    6.5912   -7.8973   41.8443 C   0  0  0  0  0  0  0  0  0  0  0  0
    7.1864   -7.8067   40.5820 C   0  0  0  0  0  0  0  0  0  0  0  0
    6.3847   -7.6532   39.4620 C   0  0  0  0  0  0  0  0  0  0  0  0
    5.0024   -7.6350   39.6031 C   0  0  0  0  0  0  0  0  0  0  0  0
   11.1229  -12.4610   36.1335 C   0  0  0  0  0  0  0  0  0  0  0  0
   12.0513  -11.2459   35.7950 C   0  0  0  0  0  0  0  0  0  0  0  0
   13.5048  -11.4799   36.3165 C   0  0  0  0  0  0  0  0  0  0  0  0
   13.9698  -12.7634   35.8841 O   0  0  0  0  0  0  0  0  0  0  0  0
   13.1693  -13.9364   36.0823 C   0  0  0  0  0  0  0  0  0  0  0  0
   11.7713  -13.7239   35.4689 C   0  0  0  0  0  0  0  0  0  0  0  0
   10.8904  -12.5818   37.6986 C   0  0  0  0  0  0  0  0  0  0  0  0
   10.2885  -13.8984   38.3009 C   0  0  0  0  0  0  0  0  0  0  0  0
    9.1041  -14.1832   38.2527 O   0  0  0  0  0  0  0  0  0  0  0  0
   11.1720  -14.7183   38.8847 N   0  0  0  0  0  0  0  0  0  0  0  0
   10.8187  -15.9278   39.5369 O   0  0  0  0  0  0  0  0  0  0  0  0
   12.1234  -14.4667   38.8599 H   0  0  0  0  0  0  0  0  0  0  0  0
    9.8581  -16.0530   39.4878 H   0  0  0  0  0  0  0  0  0  0  0  0
 11 12  2  0  0  0
 11 16  1  0  0  0
 12 13  1  0  0  0
 13 14  2  0  0  0
 14 15  1  0  0  0
 15 16  2  0  0  0
 15 10  1  0  0  0
 10  4  1  0  0  0
  4  5  2  0  0  0
  4  9  1  0  0  0
  5  6  1  0  0  0
  6  7  2  0  0  0
  7  8  1  0  0  0
  7  1  1  0  0  0
  8  9  2  0  0  0
  1 17  1  0  0  0
  1  2  2  0  0  0
  1  3  2  0  0  0
 17 23  1  0  0  0
 17 18  1  0  0  0
 17 22  1  0  0  0
 23 24  1  0  0  0
 24 25  2  0  0  0
 24 26  1  0  0  0
 26 27  1  0  0  0
 18 19  1  0  0  0
 19 20  1  0  0  0
 20 21  1  0  0  0
 21 22  1  0  0  0
 26 28  1  0  0  0
 27 29  1  0  0  0
M  END
> <minimizedAffinity>
-8.93947

$$$$
966C_RS2_A_1


 29 31  0  0  0  0  0  0  0  0999 V2000
   10.1016   -9.9930   37.1176 S   0  0  0  0  0  0  0  0  0  0  0  0
   11.3109   -9.6328   37.8287 O   0  0  0  0  0  0  0  0  0  0  0  0
    9.9699   -9.4994   35.7933 O   0  0  0  0  0  0  0  0  0  0  0  0
    6.4345   -8.5440   39.4260 C   0  0  0  0  0  0  0  0  0  0  0  0
    7.6424   -8.8732   40.1112 C   0  0  0  0  0  0  0  0  0  0  0  0
    8.7876   -9.2401   39.3900 C   0  0  0  0  0  0  0  0  0  0  0  0
    8.7056   -9.3246   38.0156 C   0  0  0  0  0  0  0  0  0  0  0  0
    7.5575   -8.9299   37.3056 C   0  0  0  0  0  0  0  0  0  0  0  0
    6.4190   -8.5489   38.0244 C   0  0  0  0  0  0  0  0  0  0  0  0
    5.2351   -8.1886   40.0464 O   0  0  0  0  0  0  0  0  0  0  0  0
    6.1412   -7.4868   43.5370 C   0  0  0  0  0  0  0  0  0  0  0  0
    5.2236   -6.4898   43.8411 C   0  0  0  0  0  0  0  0  0  0  0  0
    4.3646   -6.0329   42.8546 C   0  0  0  0  0  0  0  0  0  0  0  0
    4.3746   -6.5862   41.5702 C   0  0  0  0  0  0  0  0  0  0  0  0
    5.2691   -7.6027   41.2749 C   0  0  0  0  0  0  0  0  0  0  0  0
    6.1710   -8.0277   42.2428 C   0  0  0  0  0  0  0  0  0  0  0  0
    9.8938  -11.7696   37.1082 C   0  0  0  0  0  0  0  0  0  0  0  0
    9.1999  -11.9621   35.7173 C   0  0  0  0  0  0  0  0  0  0  0  0
    8.7925  -13.4523   35.4879 C   0  0  0  0  0  0  0  0  0  0  0  0
    8.0636  -13.9316   36.6235 O   0  0  0  0  0  0  0  0  0  0  0  0
    8.5738  -13.7482   37.9509 C   0  0  0  0  0  0  0  0  0  0  0  0
    8.8725  -12.2556   38.1935 C   0  0  0  0  0  0  0  0  0  0  0  0
   11.3016  -12.5008   37.1488 C   0  0  0  0  0  0  0  0  0  0  0  0
   12.2273  -12.4868   35.8834 C   0  0  0  0  0  0  0  0  0  0  0  0
   12.5076  -13.4841   35.2407 O   0  0  0  0  0  0  0  0  0  0  0  0
   12.7042  -11.2849   35.5349 N   0  0  0  0  0  0  0  0  0  0  0  0
   13.6018  -11.0714   34.4571 O   0  0  0  0  0  0  0  0  0  0  0  0
   12.4145  -10.5026   36.0578 H   0  0  0  0  0  0  0  0  0  0  0  0
   13.8031  -11.9193   34.0311 H   0  0  0  0  0  0  0  0  0  0  0  0
 11 12  2  0  0  0
 11 16  1  0  0  0
 12 13  1  0  0  0
 13 14  2  0  0  0
 14 15  1  0  0  0
 15 16  2  0  0  0
 15 10  1  0  0  0
 10  4  1  0  0  0
  4  5  2  0  0  0
  4  9  1  0  0  0
  5  6  1  0  0  0
  6  7  2  0  0  0
  7  8  1  0  0  0
  7  1  1  0  0  0
  8  9  2  0  0  0
  1 17  1  0  0  0
  1  2  2  0  0  0
  1  3  2  0  0  0
 17 23  1  0  0  0
 17 18  1  0  0  0
 17 22  1  0  0  0
 23 24  1  0  0  0
 24 25  2  0  0  0
 24 26  1  0  0  0
 26 27  1  0  0  0
 18 19  1  0  0  0
 19 20  1  0  0  0
 20 21  1  0  0  0
 21 22  1  0  0  0
 26 28  1  0  0  0
 27 29  1  0  0  0
M  END
> <minimizedAffinity>
-8.90747

$$$$
966C_RS2_A_1


 29 31  0  0  0  0  0  0  0  0999 V2000
    9.4304  -12.7474   35.6627 S   0  0  0  0  0  0  0  0  0  0  0  0
    9.8163  -12.2275   34.3671 O   0  0  0  0  0  0  0  0  0  0  0  0
    8.3245  -13.6369   35.6889 O   0  0  0  0  0  0  0  0  0  0  0  0
    8.4882   -9.1938   38.3757 C   0  0  0  0  0  0  0  0  0  0  0  0
    8.7033   -9.0050   36.9775 C   0  0  0  0  0  0  0  0  0  0  0  0
    8.9125  -10.1087   36.1383 C   0  0  0  0  0  0  0  0  0  0  0  0
    8.9564  -11.3680   36.6994 C   0  0  0  0  0  0  0  0  0  0  0  0
    8.6686  -11.5964   38.0570 C   0  0  0  0  0  0  0  0  0  0  0  0
    8.4445  -10.4962   38.8922 C   0  0  0  0  0  0  0  0  0  0  0  0
    8.2928   -8.1659   39.3004 O   0  0  0  0  0  0  0  0  0  0  0  0
    5.6356   -7.8984   41.8234 C   0  0  0  0  0  0  0  0  0  0  0  0
    4.5168   -7.8160   41.0049 C   0  0  0  0  0  0  0  0  0  0  0  0
    4.6815   -7.7903   39.6294 C   0  0  0  0  0  0  0  0  0  0  0  0
    5.9498   -7.8889   39.0482 C   0  0  0  0  0  0  0  0  0  0  0  0
    7.0643   -8.0023   39.8641 C   0  0  0  0  0  0  0  0  0  0  0  0
    6.9116   -7.9730   41.2449 C   0  0  0  0  0  0  0  0  0  0  0  0
   10.8303  -13.5233   36.4614 C   0  0  0  0  0  0  0  0  0  0  0  0
   11.3407  -14.4416   35.2998 C   0  0  0  0  0  0  0  0  0  0  0  0
   12.5269  -15.3431   35.7686 C   0  0  0  0  0  0  0  0  0  0  0  0
   12.1720  -16.0102   36.9850 O   0  0  0  0  0  0  0  0  0  0  0  0
   11.6306  -15.2757   38.0911 C   0  0  0  0  0  0  0  0  0  0  0  0
   10.3978  -14.4730   37.6311 C   0  0  0  0  0  0  0  0  0  0  0  0
   11.9232  -12.4424   36.8555 C   0  0  0  0  0  0  0  0  0  0  0  0
   12.8752  -11.8556   35.7565 C   0  0  0  0  0  0  0  0  0  0  0  0
   14.0024  -12.2705   35.5478 O   0  0  0  0  0  0  0  0  0  0  0  0
   12.3669  -10.8473   35.0363 N   0  0  0  0  0  0  0  0  0  0  0  0
   13.0887  -10.1461   34.0362 O   0  0  0  0  0  0  0  0  0  0  0  0
   11.4367  -10.5764   35.2114 H   0  0  0  0  0  0  0  0  0  0  0  0
   13.9844  -10.5121   33.9674 H   0  0  0  0  0  0  0  0  0  0  0  0
 11 12  2  0  0  0
 11 16  1  0  0  0
 12 13  1  0  0  0
 13 14  2  0  0  0
 14 15  1  0  0  0
 15 16  2  0  0  0
 15 10  1  0  0  0
 10  4  1  0  0  0
  4  5  2  0  0  0
  4  9  1  0  0  0
  5  6  1  0  0  0
  6  7  2  0  0  0
  7  8  1  0  0  0
  7  1  1  0  0  0
  8  9  2  0  0  0
  1 17  1  0  0  0
  1  2  2  0  0  0
  1  3  2  0  0  0
 17 23  1  0  0  0
 17 18  1  0  0  0
 17 22  1  0  0  0
 23 24  1  0  0  0
 24 25  2  0  0  0
 24 26  1  0  0  0
 26 27  1  0  0  0
 18 19  1  0  0  0
 19 20  1  0  0  0
 20 21  1  0  0  0
 21 22  1  0  0  0
 26 28  1  0  0  0
 27 29  1  0  0  0
M  END
> <minimizedAffinity>
-8.47835

$$$$
966C_RS2_A_1


 29 31  0  0  0  0  0  0  0  0999 V2000
    9.2738  -12.2746   36.4806 S   0  0  0  0  0  0  0  0  0  0  0  0
    8.8681  -12.3456   35.0920 O   0  0  0  0  0  0  0  0  0  0  0  0
    8.7713  -13.2830   37.3438 O   0  0  0  0  0  0  0  0  0  0  0  0
    7.4973   -8.4082   38.1453 C   0  0  0  0  0  0  0  0  0  0  0  0
    7.7427   -9.5237   39.0009 C   0  0  0  0  0  0  0  0  0  0  0  0
    8.3617  -10.6776   38.4993 C   0  0  0  0  0  0  0  0  0  0  0  0
    8.6791  -10.7287   37.1579 C   0  0  0  0  0  0  0  0  0  0  0  0
    8.5255   -9.6199   36.3065 C   0  0  0  0  0  0  0  0  0  0  0  0
    7.9217   -8.4625   36.8104 C   0  0  0  0  0  0  0  0  0  0  0  0
    6.8695   -7.2238   38.5362 O   0  0  0  0  0  0  0  0  0  0  0  0
    3.9537   -7.5298   40.7504 C   0  0  0  0  0  0  0  0  0  0  0  0
    4.4896   -7.0574   41.9412 C   0  0  0  0  0  0  0  0  0  0  0  0
    5.8287   -6.7053   41.9914 C   0  0  0  0  0  0  0  0  0  0  0  0
    6.6409   -6.7759   40.8551 C   0  0  0  0  0  0  0  0  0  0  0  0
    6.0989   -7.2180   39.6586 C   0  0  0  0  0  0  0  0  0  0  0  0
    4.7711   -7.6252   39.6141 C   0  0  0  0  0  0  0  0  0  0  0  0
   11.0578  -12.2281   36.6037 C   0  0  0  0  0  0  0  0  0  0  0  0
   11.2267  -11.3222   37.8701 C   0  0  0  0  0  0  0  0  0  0  0  0
   12.7321  -11.0160   38.1520 C   0  0  0  0  0  0  0  0  0  0  0  0
   13.3586  -10.5423   36.9546 O   0  0  0  0  0  0  0  0  0  0  0  0
   13.2132  -11.2579   35.7205 C   0  0  0  0  0  0  0  0  0  0  0  0
   11.7175  -11.4597   35.4073 C   0  0  0  0  0  0  0  0  0  0  0  0
   11.6418  -13.6811   36.8604 C   0  0  0  0  0  0  0  0  0  0  0  0
   11.7913  -14.6865   35.6665 C   0  0  0  0  0  0  0  0  0  0  0  0
   12.8658  -15.0361   35.2085 O   0  0  0  0  0  0  0  0  0  0  0  0
   10.6419  -15.1565   35.1652 N   0  0  0  0  0  0  0  0  0  0  0  0
   10.5630  -16.0294   34.0495 O   0  0  0  0  0  0  0  0  0  0  0  0
    9.8013  -14.8798   35.5966 H   0  0  0  0  0  0  0  0  0  0  0  0
   11.4567  -16.2199   33.7242 H   0  0  0  0  0  0  0  0  0  0  0  0
 11 12  2  0  0  0
 11 16  1  0  0  0
 12 13  1  0  0  0
 13 14  2  0  0  0
 14 15  1  0  0  0
 15 16  2  0  0  0
 15 10  1  0  0  0
 10  4  1  0  0  0
  4  5  2  0  0  0
  4  9  1  0  0  0
  5  6  1  0  0  0
  6  7  2  0  0  0
  7  8  1  0  0  0
  7  1  1  0  0  0
  8  9  2  0  0  0
  1 17  1  0  0  0
  1  2  2  0  0  0
  1  3  2  0  0  0
 17 23  1  0  0  0
 17 18  1  0  0  0
 17 22  1  0  0  0
 23 24  1  0  0  0
 24 25  2  0  0  0
 24 26  1  0  0  0
 26 27  1  0  0  0
 18 19  1  0  0  0
 19 20  1  0  0  0
 20 21  1  0  0  0
 21 22  1  0  0  0
 26 28  1  0  0  0
 27 29  1  0  0  0
M  END
> <minimizedAffinity>
-8.29578

$$$$
966C_RS2_A_1


 29 31  0  0  0  0  0  0  0  0999 V2000
    9.6504  -13.3464   36.4645 S   0  0  0  0  0  0  0  0  0  0  0  0
   11.0210  -13.4224   36.9265 O   0  0  0  0  0  0  0  0  0  0  0  0
    9.4474  -13.3954   35.0605 O   0  0  0  0  0  0  0  0  0  0  0  0
    8.1742   -9.2454   37.8352 C   0  0  0  0  0  0  0  0  0  0  0  0
    8.3344   -9.5344   36.4468 C   0  0  0  0  0  0  0  0  0  0  0  0
    8.7106  -10.8194   36.0303 C   0  0  0  0  0  0  0  0  0  0  0  0
    8.9704  -11.7765   36.9891 C   0  0  0  0  0  0  0  0  0  0  0  0
    8.7445  -11.5492   38.3585 C   0  0  0  0  0  0  0  0  0  0  0  0
    8.3541  -10.2711   38.7735 C   0  0  0  0  0  0  0  0  0  0  0  0
    7.8255   -7.9981   38.3570 O   0  0  0  0  0  0  0  0  0  0  0  0
    6.5474   -8.0037   41.8015 C   0  0  0  0  0  0  0  0  0  0  0  0
    5.1801   -7.9532   41.5642 C   0  0  0  0  0  0  0  0  0  0  0  0
    4.7197   -7.8569   40.2609 C   0  0  0  0  0  0  0  0  0  0  0  0
    5.6037   -7.8527   39.1772 C   0  0  0  0  0  0  0  0  0  0  0  0
    6.9671   -7.9342   39.4119 C   0  0  0  0  0  0  0  0  0  0  0  0
    7.4387   -7.9751   40.7184 C   0  0  0  0  0  0  0  0  0  0  0  0
    8.6608  -14.6139   37.2481 C   0  0  0  0  0  0  0  0  0  0  0  0
    9.2967  -14.6194   38.6794 C   0  0  0  0  0  0  0  0  0  0  0  0
    8.6789  -15.7436   39.5704 C   0  0  0  0  0  0  0  0  0  0  0  0
    8.7129  -16.9892   38.8648 O   0  0  0  0  0  0  0  0  0  0  0  0
    8.2188  -17.0831   37.5219 C   0  0  0  0  0  0  0  0  0  0  0  0
    8.9166  -16.0335   36.6346 C   0  0  0  0  0  0  0  0  0  0  0  0
    7.1349  -14.1817   37.3041 C   0  0  0  0  0  0  0  0  0  0  0  0
    6.0378  -15.0989   36.6610 C   0  0  0  0  0  0  0  0  0  0  0  0
    5.2503  -15.7662   37.3098 O   0  0  0  0  0  0  0  0  0  0  0  0
    6.0096  -15.1068   35.3221 N   0  0  0  0  0  0  0  0  0  0  0  0
    5.1311  -15.9133   34.5535 O   0  0  0  0  0  0  0  0  0  0  0  0
    6.6359  -14.5178   34.8425 H   0  0  0  0  0  0  0  0  0  0  0  0
    4.5733  -16.4402   35.1470 H   0  0  0  0  0  0  0  0  0  0  0  0
 11 12  2  0  0  0
 11 16  1  0  0  0
 12 13  1  0  0  0
 13 14  2  0  0  0
 14 15  1  0  0  0
 15 16  2  0  0  0
 15 10  1  0  0  0
 10  4  1  0  0  0
  4  5  2  0  0  0
  4  9  1  0  0  0
  5  6  1  0  0  0
  6  7  2  0  0  0
  7  8  1  0  0  0
  7  1  1  0  0  0
  8  9  2  0  0  0
  1 17  1  0  0  0
  1  2  2  0  0  0
  1  3  2  0  0  0
 17 23  1  0  0  0
 17 18  1  0  0  0
 17 22  1  0  0  0
 23 24  1  0  0  0
 24 25  2  0  0  0
 24 26  1  0  0  0
 26 27  1  0  0  0
 18 19  1  0  0  0
 19 20  1  0  0  0
 20 21  1  0  0  0
 21 22  1  0  0  0
 26 28  1  0  0  0
 27 29  1  0  0  0
M  END
> <minimizedAffinity>
-7.63756

$$$$
966C_RS2_A_1


 29 31  0  0  0  0  0  0  0  0999 V2000
   10.1799  -11.3603   35.6425 S   0  0  0  0  0  0  0  0  0  0  0  0
    9.7814  -10.1299   36.2945 O   0  0  0  0  0  0  0  0  0  0  0  0
   10.1064  -11.3834   34.2252 O   0  0  0  0  0  0  0  0  0  0  0  0
    7.6163  -14.8318   37.1436 C   0  0  0  0  0  0  0  0  0  0  0  0
    7.8741  -13.7034   37.9785 C   0  0  0  0  0  0  0  0  0  0  0  0
    8.5941  -12.6067   37.4835 C   0  0  0  0  0  0  0  0  0  0  0  0
    9.0880  -12.6652   36.1969 C   0  0  0  0  0  0  0  0  0  0  0  0
    8.7842  -13.7242   35.3227 C   0  0  0  0  0  0  0  0  0  0  0  0
    8.0525  -14.8121   35.8116 C   0  0  0  0  0  0  0  0  0  0  0  0
    6.9311  -15.9812   37.5423 O   0  0  0  0  0  0  0  0  0  0  0  0
    3.3811  -15.0908   37.8624 C   0  0  0  0  0  0  0  0  0  0  0  0
    3.1359  -15.4937   39.1685 C   0  0  0  0  0  0  0  0  0  0  0  0
    4.1456  -16.1090   39.8907 C   0  0  0  0  0  0  0  0  0  0  0  0
    5.4198  -16.2936   39.3447 C   0  0  0  0  0  0  0  0  0  0  0  0
    5.6741  -15.8637   38.0519 C   0  0  0  0  0  0  0  0  0  0  0  0
    4.6509  -15.2961   37.3023 C   0  0  0  0  0  0  0  0  0  0  0  0
   11.8286  -11.8278   36.1553 C   0  0  0  0  0  0  0  0  0  0  0  0
   11.8060  -13.3552   35.8091 C   0  0  0  0  0  0  0  0  0  0  0  0
   13.1217  -14.0605   36.2681 C   0  0  0  0  0  0  0  0  0  0  0  0
   13.3915  -13.7317   37.6354 O   0  0  0  0  0  0  0  0  0  0  0  0
   13.3712  -12.3679   38.0777 C   0  0  0  0  0  0  0  0  0  0  0  0
   12.0231  -11.7191   37.7068 C   0  0  0  0  0  0  0  0  0  0  0  0
   12.9225  -11.0648   35.2955 C   0  0  0  0  0  0  0  0  0  0  0  0
   13.3945   -9.6321   35.7232 C   0  0  0  0  0  0  0  0  0  0  0  0
   14.4167   -9.4175   36.3520 O   0  0  0  0  0  0  0  0  0  0  0  0
   12.5925   -8.6278   35.3466 N   0  0  0  0  0  0  0  0  0  0  0  0
   12.8144   -7.2679   35.6847 O   0  0  0  0  0  0  0  0  0  0  0  0
   11.8016   -8.8463   34.8024 H   0  0  0  0  0  0  0  0  0  0  0  0
   13.6212   -7.1950   36.2184 H   0  0  0  0  0  0  0  0  0  0  0  0
 11 12  2  0  0  0
 11 16  1  0  0  0
 12 13  1  0  0  0
 13 14  2  0  0  0
 14 15  1  0  0  0
 15 16  2  0  0  0
 15 10  1  0  0  0
 10  4  1  0  0  0
  4  5  2  0  0  0
  4  9  1  0  0  0
  5  6  1  0  0  0
  6  7  2  0  0  0
  7  8  1  0  0  0
  7  1  1  0  0  0
  8  9  2  0  0  0
  1 17  1  0  0  0
  1  2  2  0  0  0
  1  3  2  0  0  0
 17 23  1  0  0  0
 17 18  1  0  0  0
 17 22  1  0  0  0
 23 24  1  0  0  0
 24 25  2  0  0  0
 24 26  1  0  0  0
 26 27  1  0  0  0
 18 19  1  0  0  0
 19 20  1  0  0  0
 20 21  1  0  0  0
 21 22  1  0  0  0
 26 28  1  0  0  0
 27 29  1  0  0  0
M  END
> <minimizedAffinity>
-7.55949

$$$$
966C_RS2_A_1


 29 31  0  0  0  0  0  0  0  0999 V2000
    9.6111  -12.4430   36.3183 S   0  0  0  0  0  0  0  0  0  0  0  0
    9.4637  -12.3902   34.8784 O   0  0  0  0  0  0  0  0  0  0  0  0
   10.8832  -12.8300   36.8150 O   0  0  0  0  0  0  0  0  0  0  0  0
    6.8597  -15.7454   37.8673 C   0  0  0  0  0  0  0  0  0  0  0  0
    7.7676  -15.0827   38.7467 C   0  0  0  0  0  0  0  0  0  0  0  0
    8.5511  -14.0165   38.2825 C   0  0  0  0  0  0  0  0  0  0  0  0
    8.4622  -13.6592   36.9531 C   0  0  0  0  0  0  0  0  0  0  0  0
    7.5217  -14.2362   36.0811 C   0  0  0  0  0  0  0  0  0  0  0  0
    6.7284  -15.2902   36.5481 C   0  0  0  0  0  0  0  0  0  0  0  0
    6.0521  -16.8285   38.2201 O   0  0  0  0  0  0  0  0  0  0  0  0
    2.6455  -15.5717   38.7802 C   0  0  0  0  0  0  0  0  0  0  0  0
    1.9060  -16.5392   38.1128 C   0  0  0  0  0  0  0  0  0  0  0  0
    2.5658  -17.5549   37.4400 C   0  0  0  0  0  0  0  0  0  0  0  0
    3.9611  -17.6490   37.4556 C   0  0  0  0  0  0  0  0  0  0  0  0
    4.6986  -16.7012   38.1473 C   0  0  0  0  0  0  0  0  0  0  0  0
    4.0464  -15.6486   38.7779 C   0  0  0  0  0  0  0  0  0  0  0  0
    9.1449  -10.8773   37.0471 C   0  0  0  0  0  0  0  0  0  0  0  0
    9.9694  -10.9322   38.3776 C   0  0  0  0  0  0  0  0  0  0  0  0
    9.6584   -9.7025   39.2889 C   0  0  0  0  0  0  0  0  0  0  0  0
    8.2412   -9.5589   39.4354 O   0  0  0  0  0  0  0  0  0  0  0  0
    7.3828   -9.5637   38.2868 C   0  0  0  0  0  0  0  0  0  0  0  0
    7.6318  -10.8370   37.4546 C   0  0  0  0  0  0  0  0  0  0  0  0
    9.6173   -9.6688   36.1335 C   0  0  0  0  0  0  0  0  0  0  0  0
   11.1468   -9.4178   35.8973 C   0  0  0  0  0  0  0  0  0  0  0  0
   11.7757   -8.5237   36.4373 O   0  0  0  0  0  0  0  0  0  0  0  0
   11.7428  -10.2653   35.0487 N   0  0  0  0  0  0  0  0  0  0  0  0
   13.1041  -10.1703   34.6604 O   0  0  0  0  0  0  0  0  0  0  0  0
   11.2041  -10.9980   34.6718 H   0  0  0  0  0  0  0  0  0  0  0  0
   13.5140   -9.4100   35.1019 H   0  0  0  0  0  0  0  0  0  0  0  0
 11 12  2  0  0  0
 11 16  1  0  0  0
 12 13  1  0  0  0
 13 14  2  0  0  0
 14 15  1  0  0  0
 15 16  2  0  0  0
 15 10  1  0  0  0
 10  4  1  0  0  0
  4  5  2  0  0  0
  4  9  1  0  0  0
  5  6  1  0  0  0
  6  7  2  0  0  0
  7  8  1  0  0  0
  7  1  1  0  0  0
  8  9  2  0  0  0
  1 17  1  0  0  0
  1  2  2  0  0  0
  1  3  2  0  0  0
 17 23  1  0  0  0
 17 18  1  0  0  0
 17 22  1  0  0  0
 23 24  1  0  0  0
 24 25  2  0  0  0
 24 26  1  0  0  0
 26 27  1  0  0  0
 18 19  1  0  0  0
 19 20  1  0  0  0
 20 21  1  0  0  0
 21 22  1  0  0  0
 26 28  1  0  0  0
 27 29  1  0  0  0
M  END
> <minimizedAffinity>
-7.54413

$$$$
