5NK7_8ZZ_A_1001


 37 40  0  0  0  0  0  0  0  0999 V2000
  -86.8955  -15.3579    5.2068 N   0  0  0  0  0  0  0  0  0  0  0  0
  -87.0699  -15.0003    4.3062 H   0  0  0  0  0  0  0  0  0  0  0  0
  -84.0851  -14.9952    7.4855 C   0  0  0  0  0  0  0  0  0  0  0  0
  -85.3792  -15.0044    6.9701 C   0  0  0  0  0  0  0  0  0  0  0  0
  -83.0129  -15.3639    6.6837 C   0  0  0  0  0  0  0  0  0  0  0  0
  -83.2322  -15.7282    5.3642 C   0  0  0  0  0  0  0  0  0  0  0  0
  -84.5264  -15.7378    4.8593 C   0  0  0  0  0  0  0  0  0  0  0  0
  -85.6182  -15.3611    5.6424 C   0  0  0  0  0  0  0  0  0  0  0  0
  -84.4495  -15.4542    9.6988 N   0  0  0  0  0  0  0  0  0  0  0  0
  -83.8429  -14.6490    8.8138 C   0  0  0  0  0  0  0  0  0  0  0  0
  -83.1678  -13.6674    9.1175 O   0  0  0  0  0  0  0  0  0  0  0  0
  -84.9758  -16.2105    9.3521 H   0  0  0  0  0  0  0  0  0  0  0  0
  -85.9261  -13.4717   11.1069 F   0  0  0  0  0  0  0  0  0  0  0  0
  -85.7025  -14.7073   11.6489 C   0  0  0  0  0  0  0  0  0  0  0  0
  -85.6854  -14.6083   13.1667 C   0  0  0  0  0  0  0  0  0  0  0  0
  -85.4442  -15.9260   13.7729 N   0  0  0  0  0  0  0  0  0  0  0  0
  -84.1491  -16.4547   13.3188 C   0  0  0  0  0  0  0  0  0  0  0  0
  -84.1374  -16.6235   11.8087 C   0  0  0  0  0  0  0  0  0  0  0  0
  -84.3746  -15.2738   11.1550 C   0  0  0  0  0  0  0  0  0  0  0  0
  -86.1875  -16.5672   13.4958 H   0  0  0  0  0  0  0  0  0  0  0  0
  -87.9501  -15.8089    5.9155 C   0  0  0  0  0  0  0  0  0  0  0  0
  -87.9969  -16.6218    7.3821 S   0  0  0  0  0  0  0  0  0  0  0  0
  -89.2186  -15.6562    5.5023 N   0  0  0  0  0  0  0  0  0  0  0  0
  -90.1521  -16.1691    6.3395 C   0  0  0  0  0  0  0  0  0  0  0  0
  -89.6414  -16.7520    7.4348 C   0  0  0  0  0  0  0  0  0  0  0  0
  -90.3281  -17.3387    8.4292 C   0  0  0  0  0  0  0  0  0  0  0  0
  -89.8082  -17.4833    9.5340 O   0  0  0  0  0  0  0  0  0  0  0  0
  -91.5904  -17.7321    8.1471 N   0  0  0  0  0  0  0  0  0  0  0  0
  -91.9653  -17.6136    7.2446 H   0  0  0  0  0  0  0  0  0  0  0  0
  -92.3243  -18.2909    9.1321 C   0  0  0  0  0  0  0  0  0  0  0  0
  -93.0116  -17.4870   10.0467 C   0  0  0  0  0  0  0  0  0  0  0  0
  -92.9881  -15.7365    9.9759 Cl  0  0  0  0  0  0  0  0  0  0  0  0
  -93.7473  -18.1015   11.0560 C   0  0  0  0  0  0  0  0  0  0  0  0
  -93.7978  -19.4900   11.1549 C   0  0  0  0  0  0  0  0  0  0  0  0
  -93.1073  -20.2823   10.2448 C   0  0  0  0  0  0  0  0  0  0  0  0
  -92.3631  -19.6859    9.2281 C   0  0  0  0  0  0  0  0  0  0  0  0
  -91.6757  -20.4968    8.3286 C   0  0  0  0  0  0  0  0  0  0  0  0
 15 16  1  0  0  0
 15 14  1  0  0  0
 13 14  1  0  0  0
 11 10  2  0  0  0
 16 17  1  0  0  0
 14 19  1  0  0  0
 17 18  1  0  0  0
 19 18  1  0  0  0
 19  9  1  0  0  0
 10  9  1  0  0  0
 10  3  1  0  0  0
  4  3  2  0  0  0
  4  8  1  0  0  0
  3  5  1  0  0  0
  1  8  1  0  0  0
  1 21  1  0  0  0
 23 21  2  0  0  0
 23 24  1  0  0  0
  8  7  2  0  0  0
 21 22  1  0  0  0
 24 25  2  0  0  0
  5  6  2  0  0  0
  7  6  1  0  0  0
 22 25  1  0  0  0
 25 26  1  0  0  0
 32 31  1  0  0  0
 28 26  1  0  0  0
 28 30  1  0  0  0
 26 27  2  0  0  0
 30 31  2  0  0  0
 30 36  1  0  0  0
 31 33  1  0  0  0
 36 37  1  0  0  0
 36 35  2  0  0  0
 33 34  2  0  0  0
 35 34  1  0  0  0
 16 20  1  0  0  0
  9 12  1  0  0  0
  1  2  1  0  0  0
 28 29  1  0  0  0
M  END
> <minimizedAffinity>
-10.60380

$$$$
5NK7_8ZZ_A_1001


 37 40  0  0  0  0  0  0  0  0999 V2000
  -86.7562  -15.4075    5.1748 N   0  0  0  0  0  0  0  0  0  0  0  0
  -86.9224  -15.0804    4.2613 H   0  0  0  0  0  0  0  0  0  0  0  0
  -83.9731  -14.9727    7.4745 C   0  0  0  0  0  0  0  0  0  0  0  0
  -85.2616  -15.0037    6.9459 C   0  0  0  0  0  0  0  0  0  0  0  0
  -82.8896  -15.3498    6.6921 C   0  0  0  0  0  0  0  0  0  0  0  0
  -83.0919  -15.7441    5.3786 C   0  0  0  0  0  0  0  0  0  0  0  0
  -84.3805  -15.7753    4.8605 C   0  0  0  0  0  0  0  0  0  0  0  0
  -85.4835  -15.3908    5.6238 C   0  0  0  0  0  0  0  0  0  0  0  0
  -84.2614  -15.4507    9.6950 N   0  0  0  0  0  0  0  0  0  0  0  0
  -83.7479  -14.5961    8.7975 C   0  0  0  0  0  0  0  0  0  0  0  0
  -83.1674  -13.5516    9.0866 O   0  0  0  0  0  0  0  0  0  0  0  0
  -84.7163  -16.2568    9.3596 H   0  0  0  0  0  0  0  0  0  0  0  0
  -85.8445  -13.5515   11.1022 F   0  0  0  0  0  0  0  0  0  0  0  0
  -85.5406  -14.7666   11.6512 C   0  0  0  0  0  0  0  0  0  0  0  0
  -85.5161  -14.6547   13.1680 C   0  0  0  0  0  0  0  0  0  0  0  0
  -85.1889  -15.9503   13.7817 N   0  0  0  0  0  0  0  0  0  0  0  0
  -83.8679  -16.4020   13.3194 C   0  0  0  0  0  0  0  0  0  0  0  0
  -83.8592  -16.5817   11.8105 C   0  0  0  0  0  0  0  0  0  0  0  0
  -84.1847  -15.2544   11.1491 C   0  0  0  0  0  0  0  0  0  0  0  0
  -85.8938  -16.6381   13.5163 H   0  0  0  0  0  0  0  0  0  0  0  0
  -87.8164  -15.8398    5.8868 C   0  0  0  0  0  0  0  0  0  0  0  0
  -87.8730  -16.6569    7.3507 S   0  0  0  0  0  0  0  0  0  0  0  0
  -89.0834  -15.6600    5.4801 N   0  0  0  0  0  0  0  0  0  0  0  0
  -90.0233  -16.1570    6.3196 C   0  0  0  0  0  0  0  0  0  0  0  0
  -89.5195  -16.7541    7.4105 C   0  0  0  0  0  0  0  0  0  0  0  0
  -90.2134  -17.3305    8.4059 C   0  0  0  0  0  0  0  0  0  0  0  0
  -89.6605  -17.5848    9.4744 O   0  0  0  0  0  0  0  0  0  0  0  0
  -91.5187  -17.5892    8.1672 N   0  0  0  0  0  0  0  0  0  0  0  0
  -91.9208  -17.3857    7.2919 H   0  0  0  0  0  0  0  0  0  0  0  0
  -92.2572  -18.1330    9.1570 C   0  0  0  0  0  0  0  0  0  0  0  0
  -92.3307  -19.5214    9.3052 C   0  0  0  0  0  0  0  0  0  0  0  0
  -91.4771  -20.6340    8.2547 Cl  0  0  0  0  0  0  0  0  0  0  0  0
  -93.1134  -20.0438   10.3309 C   0  0  0  0  0  0  0  0  0  0  0  0
  -93.8114  -19.2010   11.1928 C   0  0  0  0  0  0  0  0  0  0  0  0
  -93.7374  -17.8217   11.0356 C   0  0  0  0  0  0  0  0  0  0  0  0
  -92.9606  -17.2791   10.0132 C   0  0  0  0  0  0  0  0  0  0  0  0
  -92.9023  -15.8952    9.8701 C   0  0  0  0  0  0  0  0  0  0  0  0
 15 16  1  0  0  0
 15 14  1  0  0  0
 13 14  1  0  0  0
 11 10  2  0  0  0
 16 17  1  0  0  0
 14 19  1  0  0  0
 17 18  1  0  0  0
 19 18  1  0  0  0
 19  9  1  0  0  0
 10  9  1  0  0  0
 10  3  1  0  0  0
  4  3  2  0  0  0
  4  8  1  0  0  0
  3  5  1  0  0  0
  1  8  1  0  0  0
  1 21  1  0  0  0
 23 21  2  0  0  0
 23 24  1  0  0  0
  8  7  2  0  0  0
 21 22  1  0  0  0
 24 25  2  0  0  0
  5  6  2  0  0  0
  7  6  1  0  0  0
 22 25  1  0  0  0
 25 26  1  0  0  0
 32 31  1  0  0  0
 28 26  1  0  0  0
 28 30  1  0  0  0
 26 27  2  0  0  0
 30 31  2  0  0  0
 30 36  1  0  0  0
 31 33  1  0  0  0
 36 37  1  0  0  0
 36 35  2  0  0  0
 33 34  2  0  0  0
 35 34  1  0  0  0
 16 20  1  0  0  0
  9 12  1  0  0  0
  1  2  1  0  0  0
 28 29  1  0  0  0
M  END
> <minimizedAffinity>
-10.48548

$$$$
5NK7_8ZZ_A_1001


 37 40  0  0  0  0  0  0  0  0999 V2000
  -86.7457  -15.2542    5.3333 N   0  0  0  0  0  0  0  0  0  0  0  0
  -86.9140  -14.7702    4.4928 H   0  0  0  0  0  0  0  0  0  0  0  0
  -83.1570  -15.7914    5.0991 C   0  0  0  0  0  0  0  0  0  0  0  0
  -84.4996  -15.6489    4.7565 C   0  0  0  0  0  0  0  0  0  0  0  0
  -82.7569  -15.6548    6.4218 C   0  0  0  0  0  0  0  0  0  0  0  0
  -83.6996  -15.3899    7.4032 C   0  0  0  0  0  0  0  0  0  0  0  0
  -85.0360  -15.2461    7.0523 C   0  0  0  0  0  0  0  0  0  0  0  0
  -85.4634  -15.3896    5.7317 C   0  0  0  0  0  0  0  0  0  0  0  0
  -81.1027  -16.6698    4.5985 N   0  0  0  0  0  0  0  0  0  0  0  0
  -82.1897  -16.0408    4.1269 C   0  0  0  0  0  0  0  0  0  0  0  0
  -82.3269  -15.6703    2.9627 O   0  0  0  0  0  0  0  0  0  0  0  0
  -81.0875  -16.9173    5.5512 H   0  0  0  0  0  0  0  0  0  0  0  0
  -78.9654  -14.8615    4.0926 F   0  0  0  0  0  0  0  0  0  0  0  0
  -78.7368  -16.1990    4.2636 C   0  0  0  0  0  0  0  0  0  0  0  0
  -77.4904  -16.6107    3.4950 C   0  0  0  0  0  0  0  0  0  0  0  0
  -77.2250  -18.0473    3.6622 N   0  0  0  0  0  0  0  0  0  0  0  0
  -78.3676  -18.8273    3.1630 C   0  0  0  0  0  0  0  0  0  0  0  0
  -79.6291  -18.4894    3.9399 C   0  0  0  0  0  0  0  0  0  0  0  0
  -79.9335  -17.0110    3.7767 C   0  0  0  0  0  0  0  0  0  0  0  0
  -77.0815  -18.2522    4.6510 H   0  0  0  0  0  0  0  0  0  0  0  0
  -87.8130  -15.7339    6.0031 C   0  0  0  0  0  0  0  0  0  0  0  0
  -87.8959  -16.5117    7.4871 S   0  0  0  0  0  0  0  0  0  0  0  0
  -89.0654  -15.6477    5.5265 N   0  0  0  0  0  0  0  0  0  0  0  0
  -90.0155  -16.1805    6.3318 C   0  0  0  0  0  0  0  0  0  0  0  0
  -89.5339  -16.7132    7.4653 C   0  0  0  0  0  0  0  0  0  0  0  0
  -90.2421  -17.3051    8.4413 C   0  0  0  0  0  0  0  0  0  0  0  0
  -89.7485  -17.4506    9.5580 O   0  0  0  0  0  0  0  0  0  0  0  0
  -91.4957  -17.7025    8.1279 N   0  0  0  0  0  0  0  0  0  0  0  0
  -91.8492  -17.5832    7.2168 H   0  0  0  0  0  0  0  0  0  0  0  0
  -92.2510  -18.2667    9.0934 C   0  0  0  0  0  0  0  0  0  0  0  0
  -92.9675  -17.4678    9.9898 C   0  0  0  0  0  0  0  0  0  0  0  0
  -92.9546  -15.7171    9.9196 Cl  0  0  0  0  0  0  0  0  0  0  0  0
  -93.7249  -18.0876   10.9797 C   0  0  0  0  0  0  0  0  0  0  0  0
  -93.7681  -19.4765   11.0773 C   0  0  0  0  0  0  0  0  0  0  0  0
  -93.0486  -20.2637   10.1855 C   0  0  0  0  0  0  0  0  0  0  0  0
  -92.2824  -19.6620    9.1885 C   0  0  0  0  0  0  0  0  0  0  0  0
  -91.5662  -20.4679    8.3072 C   0  0  0  0  0  0  0  0  0  0  0  0
 15 16  1  0  0  0
 15 14  1  0  0  0
 13 14  1  0  0  0
 11 10  2  0  0  0
 16 17  1  0  0  0
 14 19  1  0  0  0
 17 18  1  0  0  0
 19 18  1  0  0  0
 19  9  1  0  0  0
 10  9  1  0  0  0
 10  3  1  0  0  0
  4  3  2  0  0  0
  4  8  1  0  0  0
  3  5  1  0  0  0
  1  8  1  0  0  0
  1 21  1  0  0  0
 23 21  2  0  0  0
 23 24  1  0  0  0
  8  7  2  0  0  0
 21 22  1  0  0  0
 24 25  2  0  0  0
  5  6  2  0  0  0
  7  6  1  0  0  0
 22 25  1  0  0  0
 25 26  1  0  0  0
 32 31  1  0  0  0
 28 26  1  0  0  0
 28 30  1  0  0  0
 26 27  2  0  0  0
 30 31  2  0  0  0
 30 36  1  0  0  0
 31 33  1  0  0  0
 36 37  1  0  0  0
 36 35  2  0  0  0
 33 34  2  0  0  0
 35 34  1  0  0  0
 16 20  1  0  0  0
  9 12  1  0  0  0
  1  2  1  0  0  0
 28 29  1  0  0  0
M  END
> <minimizedAffinity>
-10.25034

$$$$
5NK7_8ZZ_A_1001


 37 40  0  0  0  0  0  0  0  0999 V2000
  -86.6879  -15.0326    5.4948 N   0  0  0  0  0  0  0  0  0  0  0  0
  -86.8772  -14.3708    4.7909 H   0  0  0  0  0  0  0  0  0  0  0  0
  -83.1545  -15.6703    4.9196 C   0  0  0  0  0  0  0  0  0  0  0  0
  -84.5047  -15.4055    4.7023 C   0  0  0  0  0  0  0  0  0  0  0  0
  -82.6713  -15.8110    6.2138 C   0  0  0  0  0  0  0  0  0  0  0  0
  -83.5391  -15.7009    7.2893 C   0  0  0  0  0  0  0  0  0  0  0  0
  -84.8835  -15.4334    7.0637 C   0  0  0  0  0  0  0  0  0  0  0  0
  -85.3942  -15.2987    5.7721 C   0  0  0  0  0  0  0  0  0  0  0  0
  -81.1810  -16.5167    4.1251 N   0  0  0  0  0  0  0  0  0  0  0  0
  -82.2607  -15.7682    3.8544 C   0  0  0  0  0  0  0  0  0  0  0  0
  -82.4480  -15.1786    2.7919 O   0  0  0  0  0  0  0  0  0  0  0  0
  -81.1217  -16.9408    5.0116 H   0  0  0  0  0  0  0  0  0  0  0  0
  -78.4588  -15.9454    4.7227 F   0  0  0  0  0  0  0  0  0  0  0  0
  -78.8054  -17.0279    3.9622 C   0  0  0  0  0  0  0  0  0  0  0  0
  -77.6757  -17.3647    3.0008 C   0  0  0  0  0  0  0  0  0  0  0  0
  -78.0265  -18.5259    2.1697 N   0  0  0  0  0  0  0  0  0  0  0  0
  -79.2393  -18.2338    1.3906 C   0  0  0  0  0  0  0  0  0  0  0  0
  -80.4127  -17.9441    2.3117 C   0  0  0  0  0  0  0  0  0  0  0  0
  -80.0816  -16.7409    3.1765 C   0  0  0  0  0  0  0  0  0  0  0  0
  -78.1961  -19.3329    2.7700 H   0  0  0  0  0  0  0  0  0  0  0  0
  -87.7399  -15.6074    6.1118 C   0  0  0  0  0  0  0  0  0  0  0  0
  -87.8459  -16.3187    7.6273 S   0  0  0  0  0  0  0  0  0  0  0  0
  -88.9524  -15.6980    5.5420 N   0  0  0  0  0  0  0  0  0  0  0  0
  -89.8927  -16.3048    6.3054 C   0  0  0  0  0  0  0  0  0  0  0  0
  -89.4416  -16.7204    7.4989 C   0  0  0  0  0  0  0  0  0  0  0  0
  -90.1488  -17.3479    8.4531 C   0  0  0  0  0  0  0  0  0  0  0  0
  -89.5967  -17.7098    9.4904 O   0  0  0  0  0  0  0  0  0  0  0  0
  -91.4656  -17.5347    8.2105 N   0  0  0  0  0  0  0  0  0  0  0  0
  -91.8674  -17.2451    7.3597 H   0  0  0  0  0  0  0  0  0  0  0  0
  -92.2163  -18.1276    9.1624 C   0  0  0  0  0  0  0  0  0  0  0  0
  -92.2546  -19.5213    9.2683 C   0  0  0  0  0  0  0  0  0  0  0  0
  -91.3405  -20.5786    8.2116 Cl  0  0  0  0  0  0  0  0  0  0  0  0
  -93.0510  -20.0952   10.2552 C   0  0  0  0  0  0  0  0  0  0  0  0
  -93.7967  -19.2978   11.1204 C   0  0  0  0  0  0  0  0  0  0  0  0
  -93.7573  -17.9129   11.0052 C   0  0  0  0  0  0  0  0  0  0  0  0
  -92.9675  -17.3192   10.0219 C   0  0  0  0  0  0  0  0  0  0  0  0
  -92.9444  -15.9305    9.9205 C   0  0  0  0  0  0  0  0  0  0  0  0
 15 16  1  0  0  0
 15 14  1  0  0  0
 13 14  1  0  0  0
 11 10  2  0  0  0
 16 17  1  0  0  0
 14 19  1  0  0  0
 17 18  1  0  0  0
 19 18  1  0  0  0
 19  9  1  0  0  0
 10  9  1  0  0  0
 10  3  1  0  0  0
  4  3  2  0  0  0
  4  8  1  0  0  0
  3  5  1  0  0  0
  1  8  1  0  0  0
  1 21  1  0  0  0
 23 21  2  0  0  0
 23 24  1  0  0  0
  8  7  2  0  0  0
 21 22  1  0  0  0
 24 25  2  0  0  0
  5  6  2  0  0  0
  7  6  1  0  0  0
 22 25  1  0  0  0
 25 26  1  0  0  0
 32 31  1  0  0  0
 28 26  1  0  0  0
 28 30  1  0  0  0
 26 27  2  0  0  0
 30 31  2  0  0  0
 30 36  1  0  0  0
 31 33  1  0  0  0
 36 37  1  0  0  0
 36 35  2  0  0  0
 33 34  2  0  0  0
 35 34  1  0  0  0
 16 20  1  0  0  0
  9 12  1  0  0  0
  1  2  1  0  0  0
 28 29  1  0  0  0
M  END
> <minimizedAffinity>
-10.17793

$$$$
5NK7_8ZZ_A_1001


 37 40  0  0  0  0  0  0  0  0999 V2000
  -87.0513  -15.4266    5.2998 N   0  0  0  0  0  0  0  0  0  0  0  0
  -87.2170  -15.1234    4.3780 H   0  0  0  0  0  0  0  0  0  0  0  0
  -84.3337  -14.9313    7.6645 C   0  0  0  0  0  0  0  0  0  0  0  0
  -85.6104  -15.0244    7.1152 C   0  0  0  0  0  0  0  0  0  0  0  0
  -83.2165  -15.1777    6.8774 C   0  0  0  0  0  0  0  0  0  0  0  0
  -83.3746  -15.5035    5.5391 C   0  0  0  0  0  0  0  0  0  0  0  0
  -84.6515  -15.5975    5.0002 C   0  0  0  0  0  0  0  0  0  0  0  0
  -85.7884  -15.3438    5.7685 C   0  0  0  0  0  0  0  0  0  0  0  0
  -82.8632  -14.5158    9.3696 N   0  0  0  0  0  0  0  0  0  0  0  0
  -84.1516  -14.6220    9.0114 C   0  0  0  0  0  0  0  0  0  0  0  0
  -85.0992  -14.5052    9.7859 O   0  0  0  0  0  0  0  0  0  0  0  0
  -82.1774  -14.6353    8.6734 H   0  0  0  0  0  0  0  0  0  0  0  0
  -82.7690  -16.4820   11.4236 F   0  0  0  0  0  0  0  0  0  0  0  0
  -81.8179  -15.5032   11.3352 C   0  0  0  0  0  0  0  0  0  0  0  0
  -81.2538  -15.2072   12.7165 C   0  0  0  0  0  0  0  0  0  0  0  0
  -80.2293  -14.1547   12.6472 N   0  0  0  0  0  0  0  0  0  0  0  0
  -80.8166  -12.9216   12.1020 C   0  0  0  0  0  0  0  0  0  0  0  0
  -81.3462  -13.1544   10.6968 C   0  0  0  0  0  0  0  0  0  0  0  0
  -82.4153  -14.2316   10.7398 C   0  0  0  0  0  0  0  0  0  0  0  0
  -79.4678  -14.4630   12.0427 H   0  0  0  0  0  0  0  0  0  0  0  0
  -88.1025  -15.8944    6.0026 C   0  0  0  0  0  0  0  0  0  0  0  0
  -88.1415  -16.7623    7.4377 S   0  0  0  0  0  0  0  0  0  0  0  0
  -89.3738  -15.7140    5.6098 N   0  0  0  0  0  0  0  0  0  0  0  0
  -90.3033  -16.2497    6.4372 C   0  0  0  0  0  0  0  0  0  0  0  0
  -89.7866  -16.8789    7.5038 C   0  0  0  0  0  0  0  0  0  0  0  0
  -90.4682  -17.4966    8.4827 C   0  0  0  0  0  0  0  0  0  0  0  0
  -89.9085  -17.7734    9.5419 O   0  0  0  0  0  0  0  0  0  0  0  0
  -91.7694  -17.7703    8.2386 N   0  0  0  0  0  0  0  0  0  0  0  0
  -92.1770  -17.5476    7.3705 H   0  0  0  0  0  0  0  0  0  0  0  0
  -92.4963  -18.3561    9.2130 C   0  0  0  0  0  0  0  0  0  0  0  0
  -93.1724  -17.5779   10.1575 C   0  0  0  0  0  0  0  0  0  0  0  0
  -93.1434  -15.8260   10.1392 Cl  0  0  0  0  0  0  0  0  0  0  0  0
  -93.9012  -18.2199   11.1546 C   0  0  0  0  0  0  0  0  0  0  0  0
  -93.9557  -19.6107   11.2122 C   0  0  0  0  0  0  0  0  0  0  0  0
  -93.2763  -20.3775   10.2725 C   0  0  0  0  0  0  0  0  0  0  0  0
  -92.5392  -19.7533    9.2674 C   0  0  0  0  0  0  0  0  0  0  0  0
  -91.8629  -20.5390    8.3377 C   0  0  0  0  0  0  0  0  0  0  0  0
 15 16  1  0  0  0
 15 14  1  0  0  0
 13 14  1  0  0  0
 11 10  2  0  0  0
 16 17  1  0  0  0
 14 19  1  0  0  0
 17 18  1  0  0  0
 19 18  1  0  0  0
 19  9  1  0  0  0
 10  9  1  0  0  0
 10  3  1  0  0  0
  4  3  2  0  0  0
  4  8  1  0  0  0
  3  5  1  0  0  0
  1  8  1  0  0  0
  1 21  1  0  0  0
 23 21  2  0  0  0
 23 24  1  0  0  0
  8  7  2  0  0  0
 21 22  1  0  0  0
 24 25  2  0  0  0
  5  6  2  0  0  0
  7  6  1  0  0  0
 22 25  1  0  0  0
 25 26  1  0  0  0
 32 31  1  0  0  0
 28 26  1  0  0  0
 28 30  1  0  0  0
 26 27  2  0  0  0
 30 31  2  0  0  0
 30 36  1  0  0  0
 31 33  1  0  0  0
 36 37  1  0  0  0
 36 35  2  0  0  0
 33 34  2  0  0  0
 35 34  1  0  0  0
 16 20  1  0  0  0
  9 12  1  0  0  0
  1  2  1  0  0  0
 28 29  1  0  0  0
M  END
> <minimizedAffinity>
-10.10433

$$$$
5NK7_8ZZ_A_1001


 37 40  0  0  0  0  0  0  0  0999 V2000
  -86.6439  -15.0815    5.5167 N   0  0  0  0  0  0  0  0  0  0  0  0
  -86.8207  -14.4743    4.7622 H   0  0  0  0  0  0  0  0  0  0  0  0
  -83.0933  -15.7600    5.1226 C   0  0  0  0  0  0  0  0  0  0  0  0
  -84.4389  -15.5402    4.8375 C   0  0  0  0  0  0  0  0  0  0  0  0
  -82.6427  -15.7161    6.4354 C   0  0  0  0  0  0  0  0  0  0  0  0
  -83.5386  -15.4665    7.4636 C   0  0  0  0  0  0  0  0  0  0  0  0
  -84.8782  -15.2451    7.1701 C   0  0  0  0  0  0  0  0  0  0  0  0
  -85.3563  -15.2948    5.8600 C   0  0  0  0  0  0  0  0  0  0  0  0
  -81.0193  -15.3265    4.2550 N   0  0  0  0  0  0  0  0  0  0  0  0
  -82.1719  -15.9957    4.1036 C   0  0  0  0  0  0  0  0  0  0  0  0
  -82.4330  -16.7204    3.1454 O   0  0  0  0  0  0  0  0  0  0  0  0
  -80.9118  -14.7642    5.0560 H   0  0  0  0  0  0  0  0  0  0  0  0
  -81.0106  -13.9133    1.7859 F   0  0  0  0  0  0  0  0  0  0  0  0
  -79.8648  -14.0728    2.5153 C   0  0  0  0  0  0  0  0  0  0  0  0
  -78.6591  -14.0671    1.5879 C   0  0  0  0  0  0  0  0  0  0  0  0
  -77.4136  -14.2394    2.3502 N   0  0  0  0  0  0  0  0  0  0  0  0
  -77.4457  -15.5180    3.0763 C   0  0  0  0  0  0  0  0  0  0  0  0
  -78.6052  -15.5492    4.0581 C   0  0  0  0  0  0  0  0  0  0  0  0
  -79.9077  -15.3832    3.2959 C   0  0  0  0  0  0  0  0  0  0  0  0
  -77.3162  -13.4738    3.0171 H   0  0  0  0  0  0  0  0  0  0  0  0
  -87.7057  -15.6397    6.1321 C   0  0  0  0  0  0  0  0  0  0  0  0
  -87.8267  -16.3436    7.6500 S   0  0  0  0  0  0  0  0  0  0  0  0
  -88.9173  -15.7161    5.5583 N   0  0  0  0  0  0  0  0  0  0  0  0
  -89.8684  -16.3073    6.3207 C   0  0  0  0  0  0  0  0  0  0  0  0
  -89.4272  -16.7243    7.5174 C   0  0  0  0  0  0  0  0  0  0  0  0
  -90.1462  -17.3385    8.4714 C   0  0  0  0  0  0  0  0  0  0  0  0
  -89.6095  -17.6755    9.5251 O   0  0  0  0  0  0  0  0  0  0  0  0
  -91.4571  -17.5406    8.2098 N   0  0  0  0  0  0  0  0  0  0  0  0
  -91.8461  -17.2710    7.3466 H   0  0  0  0  0  0  0  0  0  0  0  0
  -92.2197  -18.1206    9.1601 C   0  0  0  0  0  0  0  0  0  0  0  0
  -92.2774  -19.5134    9.2696 C   0  0  0  0  0  0  0  0  0  0  0  0
  -91.3733  -20.5858    8.2196 Cl  0  0  0  0  0  0  0  0  0  0  0  0
  -93.0857  -20.0736   10.2547 C   0  0  0  0  0  0  0  0  0  0  0  0
  -93.8240  -19.2638   11.1146 C   0  0  0  0  0  0  0  0  0  0  0  0
  -93.7653  -17.8799   10.9958 C   0  0  0  0  0  0  0  0  0  0  0  0
  -92.9634  -17.2997   10.0143 C   0  0  0  0  0  0  0  0  0  0  0  0
  -92.9210  -15.9117    9.9092 C   0  0  0  0  0  0  0  0  0  0  0  0
 15 16  1  0  0  0
 15 14  1  0  0  0
 13 14  1  0  0  0
 11 10  2  0  0  0
 16 17  1  0  0  0
 14 19  1  0  0  0
 17 18  1  0  0  0
 19 18  1  0  0  0
 19  9  1  0  0  0
 10  9  1  0  0  0
 10  3  1  0  0  0
  4  3  2  0  0  0
  4  8  1  0  0  0
  3  5  1  0  0  0
  1  8  1  0  0  0
  1 21  1  0  0  0
 23 21  2  0  0  0
 23 24  1  0  0  0
  8  7  2  0  0  0
 21 22  1  0  0  0
 24 25  2  0  0  0
  5  6  2  0  0  0
  7  6  1  0  0  0
 22 25  1  0  0  0
 25 26  1  0  0  0
 32 31  1  0  0  0
 28 26  1  0  0  0
 28 30  1  0  0  0
 26 27  2  0  0  0
 30 31  2  0  0  0
 30 36  1  0  0  0
 31 33  1  0  0  0
 36 37  1  0  0  0
 36 35  2  0  0  0
 33 34  2  0  0  0
 35 34  1  0  0  0
 16 20  1  0  0  0
  9 12  1  0  0  0
  1  2  1  0  0  0
 28 29  1  0  0  0
M  END
> <minimizedAffinity>
-9.96777

$$$$
5NK7_8ZZ_A_1001


 37 40  0  0  0  0  0  0  0  0999 V2000
  -85.8763  -15.4054    6.5468 N   0  0  0  0  0  0  0  0  0  0  0  0
  -85.7831  -15.2251    5.5835 H   0  0  0  0  0  0  0  0  0  0  0  0
  -82.4127  -15.1513    7.6248 C   0  0  0  0  0  0  0  0  0  0  0  0
  -83.5448  -15.4216    6.8595 C   0  0  0  0  0  0  0  0  0  0  0  0
  -82.5414  -14.5616    8.8754 C   0  0  0  0  0  0  0  0  0  0  0  0
  -83.8010  -14.2550    9.3666 C   0  0  0  0  0  0  0  0  0  0  0  0
  -84.9245  -14.5249    8.5954 C   0  0  0  0  0  0  0  0  0  0  0  0
  -84.8210  -15.1267    7.3407 C   0  0  0  0  0  0  0  0  0  0  0  0
  -80.9158  -16.7428    6.9404 N   0  0  0  0  0  0  0  0  0  0  0  0
  -81.1355  -15.4353    7.1441 C   0  0  0  0  0  0  0  0  0  0  0  0
  -80.2946  -14.5550    6.9722 O   0  0  0  0  0  0  0  0  0  0  0  0
  -81.6544  -17.3696    7.1162 H   0  0  0  0  0  0  0  0  0  0  0  0
  -78.8954  -17.7175    8.6900 F   0  0  0  0  0  0  0  0  0  0  0  0
  -79.1413  -18.3188    7.4866 C   0  0  0  0  0  0  0  0  0  0  0  0
  -77.8711  -18.9786    6.9716 C   0  0  0  0  0  0  0  0  0  0  0  0
  -78.1105  -19.6311    5.6758 N   0  0  0  0  0  0  0  0  0  0  0  0
  -78.5589  -18.6351    4.6909 C   0  0  0  0  0  0  0  0  0  0  0  0
  -79.8585  -17.9859    5.1368 C   0  0  0  0  0  0  0  0  0  0  0  0
  -79.6378  -17.2945    6.4703 C   0  0  0  0  0  0  0  0  0  0  0  0
  -78.8292  -20.3467    5.7848 H   0  0  0  0  0  0  0  0  0  0  0  0
  -87.0488  -15.9129    6.9774 C   0  0  0  0  0  0  0  0  0  0  0  0
  -87.4218  -16.7050    8.4083 S   0  0  0  0  0  0  0  0  0  0  0  0
  -88.1759  -15.8487    6.2504 N   0  0  0  0  0  0  0  0  0  0  0  0
  -89.2610  -16.4082    6.8378 C   0  0  0  0  0  0  0  0  0  0  0  0
  -89.0144  -16.9404    8.0447 C   0  0  0  0  0  0  0  0  0  0  0  0
  -89.8972  -17.5551    8.8492 C   0  0  0  0  0  0  0  0  0  0  0  0
  -89.5730  -17.8675    9.9934 O   0  0  0  0  0  0  0  0  0  0  0  0
  -91.1276  -17.7857    8.3387 N   0  0  0  0  0  0  0  0  0  0  0  0
  -91.3434  -17.5353    7.4113 H   0  0  0  0  0  0  0  0  0  0  0  0
  -92.0529  -18.3671    9.1303 C   0  0  0  0  0  0  0  0  0  0  0  0
  -92.8878  -17.5862    9.9355 C   0  0  0  0  0  0  0  0  0  0  0  0
  -92.8112  -15.8360    9.9650 Cl  0  0  0  0  0  0  0  0  0  0  0  0
  -93.8210  -18.2243   10.7476 C   0  0  0  0  0  0  0  0  0  0  0  0
  -93.9214  -19.6135   10.7599 C   0  0  0  0  0  0  0  0  0  0  0  0
  -93.0840  -20.3832    9.9604 C   0  0  0  0  0  0  0  0  0  0  0  0
  -92.1415  -19.7631    9.1417 C   0  0  0  0  0  0  0  0  0  0  0  0
  -91.3096  -20.5517    8.3510 C   0  0  0  0  0  0  0  0  0  0  0  0
 15 16  1  0  0  0
 15 14  1  0  0  0
 13 14  1  0  0  0
 11 10  2  0  0  0
 16 17  1  0  0  0
 14 19  1  0  0  0
 17 18  1  0  0  0
 19 18  1  0  0  0
 19  9  1  0  0  0
 10  9  1  0  0  0
 10  3  1  0  0  0
  4  3  2  0  0  0
  4  8  1  0  0  0
  3  5  1  0  0  0
  1  8  1  0  0  0
  1 21  1  0  0  0
 23 21  2  0  0  0
 23 24  1  0  0  0
  8  7  2  0  0  0
 21 22  1  0  0  0
 24 25  2  0  0  0
  5  6  2  0  0  0
  7  6  1  0  0  0
 22 25  1  0  0  0
 25 26  1  0  0  0
 32 31  1  0  0  0
 28 26  1  0  0  0
 28 30  1  0  0  0
 26 27  2  0  0  0
 30 31  2  0  0  0
 30 36  1  0  0  0
 31 33  1  0  0  0
 36 37  1  0  0  0
 36 35  2  0  0  0
 33 34  2  0  0  0
 35 34  1  0  0  0
 16 20  1  0  0  0
  9 12  1  0  0  0
  1  2  1  0  0  0
 28 29  1  0  0  0
M  END
> <minimizedAffinity>
-9.38088

$$$$
5NK7_8ZZ_A_1001


 37 40  0  0  0  0  0  0  0  0999 V2000
  -84.8424  -15.2831    7.1493 N   0  0  0  0  0  0  0  0  0  0  0  0
  -84.6045  -14.8158    7.9825 H   0  0  0  0  0  0  0  0  0  0  0  0
  -88.2037  -16.4151    7.9511 C   0  0  0  0  0  0  0  0  0  0  0  0
  -86.8607  -16.0650    8.0705 C   0  0  0  0  0  0  0  0  0  0  0  0
  -88.8483  -16.2983    6.7267 C   0  0  0  0  0  0  0  0  0  0  0  0
  -88.1478  -15.8453    5.6195 C   0  0  0  0  0  0  0  0  0  0  0  0
  -86.8096  -15.4953    5.7481 C   0  0  0  0  0  0  0  0  0  0  0  0
  -86.1378  -15.6142    6.9653 C   0  0  0  0  0  0  0  0  0  0  0  0
  -90.2515  -16.9436    8.8283 N   0  0  0  0  0  0  0  0  0  0  0  0
  -88.9322  -16.8566    9.0545 C   0  0  0  0  0  0  0  0  0  0  0  0
  -88.3958  -17.0960   10.1346 O   0  0  0  0  0  0  0  0  0  0  0  0
  -90.5829  -16.7212    7.9283 H   0  0  0  0  0  0  0  0  0  0  0  0
  -92.4990  -15.3592    9.5580 F   0  0  0  0  0  0  0  0  0  0  0  0
  -92.5802  -16.7234    9.5064 C   0  0  0  0  0  0  0  0  0  0  0  0
  -93.6347  -17.2138   10.4869 C   0  0  0  0  0  0  0  0  0  0  0  0
  -93.7390  -18.6801   10.4509 N   0  0  0  0  0  0  0  0  0  0  0  0
  -92.4451  -19.2814   10.8079 C   0  0  0  0  0  0  0  0  0  0  0  0
  -91.3678  -18.8630    9.8213 C   0  0  0  0  0  0  0  0  0  0  0  0
  -91.2312  -17.3511    9.8447 C   0  0  0  0  0  0  0  0  0  0  0  0
  -94.0029  -18.9777    9.5117 H   0  0  0  0  0  0  0  0  0  0  0  0
  -83.8506  -15.5460    6.2746 C   0  0  0  0  0  0  0  0  0  0  0  0
  -83.8690  -15.5716    4.5974 S   0  0  0  0  0  0  0  0  0  0  0  0
  -82.6033  -15.8532    6.6655 N   0  0  0  0  0  0  0  0  0  0  0  0
  -81.7339  -16.0860    5.6529 C   0  0  0  0  0  0  0  0  0  0  0  0
  -82.2781  -15.9784    4.4311 C   0  0  0  0  0  0  0  0  0  0  0  0
  -81.6552  -16.1536    3.2539 C   0  0  0  0  0  0  0  0  0  0  0  0
  -81.8040  -15.3323    2.3509 O   0  0  0  0  0  0  0  0  0  0  0  0
  -80.8694  -17.2476    3.1383 N   0  0  0  0  0  0  0  0  0  0  0  0
  -80.7892  -17.8909    3.8792 H   0  0  0  0  0  0  0  0  0  0  0  0
  -80.1975  -17.4368    1.9834 C   0  0  0  0  0  0  0  0  0  0  0  0
  -78.9899  -16.7720    1.7493 C   0  0  0  0  0  0  0  0  0  0  0  0
  -78.2649  -15.6832    2.9151 Cl  0  0  0  0  0  0  0  0  0  0  0  0
  -78.3335  -16.9840    0.5403 C   0  0  0  0  0  0  0  0  0  0  0  0
  -78.8687  -17.8404   -0.4191 C   0  0  0  0  0  0  0  0  0  0  0  0
  -80.0727  -18.4935   -0.1810 C   0  0  0  0  0  0  0  0  0  0  0  0
  -80.7463  -18.2928    1.0228 C   0  0  0  0  0  0  0  0  0  0  0  0
  -81.9527  -18.9534    1.2408 C   0  0  0  0  0  0  0  0  0  0  0  0
 15 16  1  0  0  0
 15 14  1  0  0  0
 13 14  1  0  0  0
 11 10  2  0  0  0
 16 17  1  0  0  0
 14 19  1  0  0  0
 17 18  1  0  0  0
 19 18  1  0  0  0
 19  9  1  0  0  0
 10  9  1  0  0  0
 10  3  1  0  0  0
  4  3  2  0  0  0
  4  8  1  0  0  0
  3  5  1  0  0  0
  1  8  1  0  0  0
  1 21  1  0  0  0
 23 21  2  0  0  0
 23 24  1  0  0  0
  8  7  2  0  0  0
 21 22  1  0  0  0
 24 25  2  0  0  0
  5  6  2  0  0  0
  7  6  1  0  0  0
 22 25  1  0  0  0
 25 26  1  0  0  0
 32 31  1  0  0  0
 28 26  1  0  0  0
 28 30  1  0  0  0
 26 27  2  0  0  0
 30 31  2  0  0  0
 30 36  1  0  0  0
 31 33  1  0  0  0
 36 37  1  0  0  0
 36 35  2  0  0  0
 33 34  2  0  0  0
 35 34  1  0  0  0
 16 20  1  0  0  0
  9 12  1  0  0  0
  1  2  1  0  0  0
 28 29  1  0  0  0
M  END
> <minimizedAffinity>
-8.99582

$$$$
5NK7_8ZZ_A_1001


 37 40  0  0  0  0  0  0  0  0999 V2000
  -85.2969  -15.2807    7.8562 N   0  0  0  0  0  0  0  0  0  0  0  0
  -84.9482  -14.6937    8.5655 H   0  0  0  0  0  0  0  0  0  0  0  0
  -82.3344  -15.9792    5.8667 C   0  0  0  0  0  0  0  0  0  0  0  0
  -83.1804  -15.7691    6.9532 C   0  0  0  0  0  0  0  0  0  0  0  0
  -82.8317  -15.9083    4.5721 C   0  0  0  0  0  0  0  0  0  0  0  0
  -84.1703  -15.6140    4.3632 C   0  0  0  0  0  0  0  0  0  0  0  0
  -85.0077  -15.4092    5.4525 C   0  0  0  0  0  0  0  0  0  0  0  0
  -84.5287  -15.4646    6.7619 C   0  0  0  0  0  0  0  0  0  0  0  0
  -80.6744  -16.5760    7.3263 N   0  0  0  0  0  0  0  0  0  0  0  0
  -80.9891  -16.2931    6.0534 C   0  0  0  0  0  0  0  0  0  0  0  0
  -80.1800  -16.2642    5.1282 O   0  0  0  0  0  0  0  0  0  0  0  0
  -81.3962  -16.5642    7.9956 H   0  0  0  0  0  0  0  0  0  0  0  0
  -79.3347  -15.1585    9.3973 F   0  0  0  0  0  0  0  0  0  0  0  0
  -79.1803  -16.5092    9.2484 C   0  0  0  0  0  0  0  0  0  0  0  0
  -77.8151  -16.9320    9.7692 C   0  0  0  0  0  0  0  0  0  0  0  0
  -77.6249  -18.3821    9.6175 N   0  0  0  0  0  0  0  0  0  0  0  0
  -77.7251  -18.7528    8.1978 C   0  0  0  0  0  0  0  0  0  0  0  0
  -79.0958  -18.3988    7.6456 C   0  0  0  0  0  0  0  0  0  0  0  0
  -79.3157  -16.9026    7.7803 C   0  0  0  0  0  0  0  0  0  0  0  0
  -78.3436  -18.8750   10.1476 H   0  0  0  0  0  0  0  0  0  0  0  0
  -86.5073  -15.8426    8.0485 C   0  0  0  0  0  0  0  0  0  0  0  0
  -87.1771  -16.5171    9.4307 S   0  0  0  0  0  0  0  0  0  0  0  0
  -87.4195  -15.9496    7.0690 N   0  0  0  0  0  0  0  0  0  0  0  0
  -88.5814  -16.5397    7.4395 C   0  0  0  0  0  0  0  0  0  0  0  0
  -88.6120  -16.9252    8.7244 C   0  0  0  0  0  0  0  0  0  0  0  0
  -89.6290  -17.5309    9.3594 C   0  0  0  0  0  0  0  0  0  0  0  0
  -89.5267  -17.8184   10.5505 O   0  0  0  0  0  0  0  0  0  0  0  0
  -90.7393  -17.7806    8.6297 N   0  0  0  0  0  0  0  0  0  0  0  0
  -90.7762  -17.5500    7.6733 H   0  0  0  0  0  0  0  0  0  0  0  0
  -91.7958  -18.3535    9.2433 C   0  0  0  0  0  0  0  0  0  0  0  0
  -92.7201  -17.5701    9.9412 C   0  0  0  0  0  0  0  0  0  0  0  0
  -92.5911  -15.8265   10.0554 Cl  0  0  0  0  0  0  0  0  0  0  0  0
  -93.7895  -18.2000   10.5714 C   0  0  0  0  0  0  0  0  0  0  0  0
  -93.9366  -19.5838   10.5098 C   0  0  0  0  0  0  0  0  0  0  0  0
  -93.0103  -20.3563    9.8184 C   0  0  0  0  0  0  0  0  0  0  0  0
  -91.9313  -19.7445    9.1824 C   0  0  0  0  0  0  0  0  0  0  0  0
  -91.0125  -20.5360    8.4979 C   0  0  0  0  0  0  0  0  0  0  0  0
 15 16  1  0  0  0
 15 14  1  0  0  0
 13 14  1  0  0  0
 11 10  2  0  0  0
 16 17  1  0  0  0
 14 19  1  0  0  0
 17 18  1  0  0  0
 19 18  1  0  0  0
 19  9  1  0  0  0
 10  9  1  0  0  0
 10  3  1  0  0  0
  4  3  2  0  0  0
  4  8  1  0  0  0
  3  5  1  0  0  0
  1  8  1  0  0  0
  1 21  1  0  0  0
 23 21  2  0  0  0
 23 24  1  0  0  0
  8  7  2  0  0  0
 21 22  1  0  0  0
 24 25  2  0  0  0
  5  6  2  0  0  0
  7  6  1  0  0  0
 22 25  1  0  0  0
 25 26  1  0  0  0
 32 31  1  0  0  0
 28 26  1  0  0  0
 28 30  1  0  0  0
 26 27  2  0  0  0
 30 31  2  0  0  0
 30 36  1  0  0  0
 31 33  1  0  0  0
 36 37  1  0  0  0
 36 35  2  0  0  0
 33 34  2  0  0  0
 35 34  1  0  0  0
 16 20  1  0  0  0
  9 12  1  0  0  0
  1  2  1  0  0  0
 28 29  1  0  0  0
M  END
> <minimizedAffinity>
-8.90600

$$$$
5NK7_8ZZ_A_1001


 37 40  0  0  0  0  0  0  0  0999 V2000
  -86.6134  -15.3275    5.9414 N   0  0  0  0  0  0  0  0  0  0  0  0
  -87.1387  -14.9070    5.2228 H   0  0  0  0  0  0  0  0  0  0  0  0
  -83.1165  -14.9319    6.8565 C   0  0  0  0  0  0  0  0  0  0  0  0
  -84.5081  -14.9429    6.9177 C   0  0  0  0  0  0  0  0  0  0  0  0
  -82.4667  -15.3302    5.6957 C   0  0  0  0  0  0  0  0  0  0  0  0
  -83.2071  -15.7258    4.5924 C   0  0  0  0  0  0  0  0  0  0  0  0
  -84.5944  -15.7368    4.6631 C   0  0  0  0  0  0  0  0  0  0  0  0
  -85.2698  -15.3309    5.8147 C   0  0  0  0  0  0  0  0  0  0  0  0
  -81.7477  -15.5831    8.5724 N   0  0  0  0  0  0  0  0  0  0  0  0
  -82.3516  -14.5544    7.9589 C   0  0  0  0  0  0  0  0  0  0  0  0
  -82.2881  -13.3863    8.3373 O   0  0  0  0  0  0  0  0  0  0  0  0
  -81.8686  -16.4839    8.1940 H   0  0  0  0  0  0  0  0  0  0  0  0
  -82.8157  -15.0836   11.1615 F   0  0  0  0  0  0  0  0  0  0  0  0
  -81.7278  -15.8939   10.9879 C   0  0  0  0  0  0  0  0  0  0  0  0
  -80.8543  -15.8569   12.2326 C   0  0  0  0  0  0  0  0  0  0  0  0
  -79.6753  -16.7201   12.0686 N   0  0  0  0  0  0  0  0  0  0  0  0
  -78.8795  -16.2649   10.9187 C   0  0  0  0  0  0  0  0  0  0  0  0
  -79.6954  -16.3364    9.6387 C   0  0  0  0  0  0  0  0  0  0  0  0
  -80.9165  -15.4447    9.7761 C   0  0  0  0  0  0  0  0  0  0  0  0
  -79.9787  -17.6811   11.9111 H   0  0  0  0  0  0  0  0  0  0  0  0
  -87.2885  -15.8584    6.9807 C   0  0  0  0  0  0  0  0  0  0  0  0
  -88.7731  -16.6385    7.0184 S   0  0  0  0  0  0  0  0  0  0  0  0
  -86.8209  -15.8278    8.2391 N   0  0  0  0  0  0  0  0  0  0  0  0
  -87.6292  -16.4095    9.1576 C   0  0  0  0  0  0  0  0  0  0  0  0
  -88.7659  -16.9071    8.6469 C   0  0  0  0  0  0  0  0  0  0  0  0
  -89.7444  -17.5345    9.3202 C   0  0  0  0  0  0  0  0  0  0  0  0
  -89.5360  -17.9583   10.4555 O   0  0  0  0  0  0  0  0  0  0  0  0
  -90.9363  -17.6510    8.6931 N   0  0  0  0  0  0  0  0  0  0  0  0
  -91.0587  -17.3129    7.7766 H   0  0  0  0  0  0  0  0  0  0  0  0
  -91.9545  -18.2416    9.3531 C   0  0  0  0  0  0  0  0  0  0  0  0
  -92.1145  -19.6301    9.3121 C   0  0  0  0  0  0  0  0  0  0  0  0
  -91.0230  -20.6854    8.4374 Cl  0  0  0  0  0  0  0  0  0  0  0  0
  -93.1847  -20.2002    9.9957 C   0  0  0  0  0  0  0  0  0  0  0  0
  -94.0802  -19.4041   10.7061 C   0  0  0  0  0  0  0  0  0  0  0  0
  -93.9173  -18.0238   10.7375 C   0  0  0  0  0  0  0  0  0  0  0  0
  -92.8531  -17.4336   10.0577 C   0  0  0  0  0  0  0  0  0  0  0  0
  -92.7092  -16.0491   10.0985 C   0  0  0  0  0  0  0  0  0  0  0  0
 15 16  1  0  0  0
 15 14  1  0  0  0
 13 14  1  0  0  0
 11 10  2  0  0  0
 16 17  1  0  0  0
 14 19  1  0  0  0
 17 18  1  0  0  0
 19 18  1  0  0  0
 19  9  1  0  0  0
 10  9  1  0  0  0
 10  3  1  0  0  0
  4  3  2  0  0  0
  4  8  1  0  0  0
  3  5  1  0  0  0
  1  8  1  0  0  0
  1 21  1  0  0  0
 23 21  2  0  0  0
 23 24  1  0  0  0
  8  7  2  0  0  0
 21 22  1  0  0  0
 24 25  2  0  0  0
  5  6  2  0  0  0
  7  6  1  0  0  0
 22 25  1  0  0  0
 25 26  1  0  0  0
 32 31  1  0  0  0
 28 26  1  0  0  0
 28 30  1  0  0  0
 26 27  2  0  0  0
 30 31  2  0  0  0
 30 36  1  0  0  0
 31 33  1  0  0  0
 36 37  1  0  0  0
 36 35  2  0  0  0
 33 34  2  0  0  0
 35 34  1  0  0  0
 16 20  1  0  0  0
  9 12  1  0  0  0
  1  2  1  0  0  0
 28 29  1  0  0  0
M  END
> <minimizedAffinity>
-8.77187

$$$$
