3F6E_8PA_X_602


 42 44  0  0  0  0  0  0  0  0999 V2000
   66.2174   53.6148  160.4386 C   0  0  0  0  0  0  0  0  0  0  0  0
   65.6464   54.3306  162.0208 S   0  0  0  0  0  0  0  0  0  0  0  0
   66.2012   52.8897  162.9142 C   0  0  0  0  0  0  0  0  0  0  0  0
   66.6609   51.9585  162.0170 C   0  0  0  0  0  0  0  0  0  0  0  0
   67.2289   50.5886  162.4881 C   0  0  0  0  0  0  0  0  0  0  0  0
   66.6832   52.3505  160.7281 N   0  0  0  0  0  0  0  0  0  0  0  0
   65.4914   54.0242  159.1088 C   0  0  0  0  0  0  0  0  0  0  0  0
   65.0603   53.0245  158.2182 O   0  0  0  0  0  0  0  0  0  0  0  0
   64.1631   52.7438  158.4571 H   0  0  0  0  0  0  0  0  0  0  0  0
   66.0105   56.3655  158.7988 C   0  0  0  0  0  0  0  0  0  0  0  0
   65.0839   55.3578  158.8775 C   0  0  0  0  0  0  0  0  0  0  0  0
   66.5761   58.7250  158.9620 C   0  0  0  0  0  0  0  0  0  0  0  0
   66.1769   60.0473  158.7545 C   0  0  0  0  0  0  0  0  0  0  0  0
   64.9242   60.3236  158.1742 C   0  0  0  0  0  0  0  0  0  0  0  0
   64.1172   59.3214  157.8020 N   0  0  0  0  0  0  0  0  0  0  0  0
   64.4620   58.0346  157.9987 C   0  0  0  0  0  0  0  0  0  0  0  0
   65.6929   57.7043  158.5844 C   0  0  0  0  0  0  0  0  0  0  0  0
   65.9940   52.8321  164.3608 C   0  0  0  0  0  0  0  0  0  0  0  0
   67.0545   53.5553  165.2412 C   0  0  0  0  0  0  0  0  0  0  0  0
   66.2775   54.0757  166.3682 O   0  0  0  0  0  0  0  0  0  0  0  0
   67.0640   54.4319  167.6718 P   0  0  0  0  0  0  0  0  0  0  0  0
   66.7323   53.3369  168.6074 O   0  0  0  0  0  0  0  0  0  0  0  0
   68.5212   54.7197  167.4879 O   0  0  0  0  0  0  0  0  0  0  0  0
   67.0852   52.5009  168.2647 H   0  0  0  0  0  0  0  0  0  0  0  0
   66.5427   55.7379  168.1549 O   0  0  0  0  0  0  0  0  0  0  0  0
   64.8891   56.2770  168.3787 P   0  0  0  0  0  0  0  0  0  0  0  0
   64.9541   57.7330  168.8611 O   0  0  0  0  0  0  0  0  0  0  0  0
   64.2488   56.1186  167.0127 O   0  0  0  0  0  0  0  0  0  0  0  0
   64.3279   55.3846  169.3834 O   0  0  0  0  0  0  0  0  0  0  0  0
   64.2384   55.1802  166.7673 H   0  0  0  0  0  0  0  0  0  0  0  0
   64.3065   54.4792  169.0359 H   0  0  0  0  0  0  0  0  0  0  0  0
   67.3022   51.4526  159.6779 C   0  0  0  0  0  0  0  0  0  0  0  0
   68.8655   51.5303  159.5905 C   0  0  0  0  0  0  0  0  0  0  0  0
   69.5519   50.3806  159.8970 C   0  0  0  0  0  0  0  0  0  0  0  0
   70.9053   50.3627  159.8281 N   0  0  0  0  0  0  0  0  0  0  0  0
   71.4591   51.4908  159.3824 C   0  0  0  0  0  0  0  0  0  0  0  0
   73.0122   51.4278  159.2471 C   0  0  0  0  0  0  0  0  0  0  0  0
   70.8440   52.6167  159.0056 N   0  0  0  0  0  0  0  0  0  0  0  0
   69.4876   52.6680  159.0543 C   0  0  0  0  0  0  0  0  0  0  0  0
   68.9630   53.7687  158.6498 N   0  0  0  0  0  0  0  0  0  0  0  0
   69.5363   54.4855  158.2936 H   0  0  0  0  0  0  0  0  0  0  0  0
   67.9878   53.8955  158.6961 H   0  0  0  0  0  0  0  0  0  0  0  0
 12 17  1  0  0  0
 13 12  2  0  0  0
 13 14  1  0  0  0
 14 15  2  0  0  0
 15 16  1  0  0  0
 17 16  2  0  0  0
 17 10  1  0  0  0
 11 10  2  0  0  0
 11  7  1  0  0  0
  7  1  1  0  0  0
  8  7  1  0  0  0
  1  6  2  0  0  0
  1  2  1  0  0  0
  2  3  1  0  0  0
  3 18  1  0  0  0
 18 19  1  0  0  0
 19 20  1  0  0  0
 20 21  1  0  0  0
 21 22  1  0  0  0
 23 21  2  0  0  0
 25 21  1  0  0  0
 25 26  1  0  0  0
 26 29  1  0  0  0
 26 28  1  0  0  0
 27 26  2  0  0  0
  4  3  2  0  0  0
  4  5  1  0  0  0
  6  4  1  0  0  0
 32  6  1  0  0  0
 33 32  1  0  0  0
 33 34  1  0  0  0
 35 34  2  0  0  0
 36 35  1  0  0  0
 37 36  1  0  0  0
 38 36  2  0  0  0
 38 39  1  0  0  0
 39 33  2  0  0  0
 40 39  1  0  0  0
  8  9  1  0  0  0
 22 24  1  0  0  0
 28 30  1  0  0  0
 29 31  1  0  0  0
 40 41  1  0  0  0
 40 42  1  0  0  0
M  CHG 1   6   1
M  END
> <minimizedAffinity>
-13.25966

$$$$
