1JAO_0D3_A_1


 27 27  0  0  0  0  0  0  0  0999 V2000
   28.2545   59.0248   50.0341 C   0  0  0  0  0  0  0  0  0  0  0  0
   28.0904   60.2142   49.7524 O   0  0  0  0  0  0  0  0  0  0  0  0
   29.4417   58.4243   49.9691 N   0  0  0  0  0  0  0  0  0  0  0  0
   29.5158   57.4715   50.2053 H   0  0  0  0  0  0  0  0  0  0  0  0
   30.6292   59.1521   49.5552 C   0  0  0  0  0  0  0  0  0  0  0  0
   31.6371   59.1489   50.6405 C   0  0  0  0  0  0  0  0  0  0  0  0
   31.2147   58.5953   48.2779 C   0  0  0  0  0  0  0  0  0  0  0  0
   31.9959   57.6534   48.3063 O   0  0  0  0  0  0  0  0  0  0  0  0
   30.8925   59.2580   47.1741 N   0  0  0  0  0  0  0  0  0  0  0  0
   30.3444   60.0723   47.2489 H   0  0  0  0  0  0  0  0  0  0  0  0
   31.3215   58.8205   45.8666 C   0  0  0  0  0  0  0  0  0  0  0  0
   32.4784   59.5452   45.2250 C   0  0  0  0  0  0  0  0  0  0  0  0
   32.4831   60.7793   45.2852 O   0  0  0  0  0  0  0  0  0  0  0  0
   33.0574   58.8798   44.2213 N   0  0  0  0  0  0  0  0  0  0  0  0
   33.0345   57.8957   44.2051 H   0  0  0  0  0  0  0  0  0  0  0  0
   33.5068   59.3737   43.4978 H   0  0  0  0  0  0  0  0  0  0  0  0
   27.0822   58.1614   50.4947 C   0  0  0  0  0  0  0  0  0  0  0  0
   26.4804   58.7896   51.7750 C   0  0  0  0  0  0  0  0  0  0  0  0
   27.6585   59.0176   53.1605 S   0  0  0  0  0  0  0  0  0  0  0  0
   28.1199   57.8047   53.5674 H   0  0  0  0  0  0  0  0  0  0  0  0
   26.0902   58.0323   49.3194 C   0  0  0  0  0  0  0  0  0  0  0  0
   25.8606   56.6063   48.8283 C   0  0  0  0  0  0  0  0  0  0  0  0
   26.5845   55.5371   49.3392 C   0  0  0  0  0  0  0  0  0  0  0  0
   26.3219   54.2392   48.9488 C   0  0  0  0  0  0  0  0  0  0  0  0
   25.3350   54.0005   48.0379 C   0  0  0  0  0  0  0  0  0  0  0  0
   24.6017   55.0488   47.5044 C   0  0  0  0  0  0  0  0  0  0  0  0
   24.8715   56.3401   47.9011 C   0  0  0  0  0  0  0  0  0  0  0  0
  1  2  2  0  0  0
  1 17  1  0  0  0
 17 21  1  0  0  0
 17 18  1  0  0  0
 21 22  1  0  0  0
 22 23  2  0  0  0
 22 27  1  0  0  0
 23 24  1  0  0  0
 24 25  2  0  0  0
 25 26  1  0  0  0
 26 27  2  0  0  0
 18 19  1  0  0  0
  3  5  1  0  0  0
  5  7  1  0  0  0
  5  6  1  0  0  0
  7  8  2  0  0  0
  9 11  1  0  0  0
 11 12  1  0  0  0
 12 13  2  0  0  0
  1  3  1  0  0  0
  7  9  1  0  0  0
 12 14  1  0  0  0
 19 20  1  0  0  0
  3  4  1  0  0  0
  9 10  1  0  0  0
 14 15  1  0  0  0
 14 16  1  0  0  0
M  END
> <minimizedAffinity>
-8.19651

$$$$
1JAO_0D3_A_1


 27 27  0  0  0  0  0  0  0  0999 V2000
   28.0537   59.6183   50.8921 C   0  0  0  0  0  0  0  0  0  0  0  0
   27.8073   60.7561   50.4852 O   0  0  0  0  0  0  0  0  0  0  0  0
   29.2944   59.1699   51.0760 N   0  0  0  0  0  0  0  0  0  0  0  0
   29.4338   58.2518   51.4029 H   0  0  0  0  0  0  0  0  0  0  0  0
   30.4455   60.0132   50.8022 C   0  0  0  0  0  0  0  0  0  0  0  0
   31.1292   60.3740   52.0656 C   0  0  0  0  0  0  0  0  0  0  0  0
   31.4085   59.3570   49.8397 C   0  0  0  0  0  0  0  0  0  0  0  0
   32.3740   58.7279   50.2522 O   0  0  0  0  0  0  0  0  0  0  0  0
   31.1747   59.5983   48.5558 N   0  0  0  0  0  0  0  0  0  0  0  0
   30.4391   60.2048   48.3102 H   0  0  0  0  0  0  0  0  0  0  0  0
   31.9667   58.9982   47.5082 C   0  0  0  0  0  0  0  0  0  0  0  0
   31.3489   57.8758   46.7121 C   0  0  0  0  0  0  0  0  0  0  0  0
   31.7813   56.7344   46.9038 O   0  0  0  0  0  0  0  0  0  0  0  0
   30.8300   58.2522   45.5397 N   0  0  0  0  0  0  0  0  0  0  0  0
   30.4945   59.1702   45.4218 H   0  0  0  0  0  0  0  0  0  0  0  0
   30.7832   57.6115   44.7937 H   0  0  0  0  0  0  0  0  0  0  0  0
   26.9248   58.6458   51.2260 C   0  0  0  0  0  0  0  0  0  0  0  0
   26.2504   59.1061   52.5411 C   0  0  0  0  0  0  0  0  0  0  0  0
   27.4028   59.5448   53.8971 S   0  0  0  0  0  0  0  0  0  0  0  0
   28.1204   58.4464   54.2553 H   0  0  0  0  0  0  0  0  0  0  0  0
   25.9752   58.5771   50.0112 C   0  0  0  0  0  0  0  0  0  0  0  0
   25.8177   57.1888   49.3986 C   0  0  0  0  0  0  0  0  0  0  0  0
   24.8942   56.9399   48.3920 C   0  0  0  0  0  0  0  0  0  0  0  0
   24.8067   55.7022   47.7868 C   0  0  0  0  0  0  0  0  0  0  0  0
   25.6400   54.6998   48.1885 C   0  0  0  0  0  0  0  0  0  0  0  0
   26.5660   54.9167   49.1969 C   0  0  0  0  0  0  0  0  0  0  0  0
   26.6454   56.1555   49.7940 C   0  0  0  0  0  0  0  0  0  0  0  0
  1  2  2  0  0  0
  1 17  1  0  0  0
 17 21  1  0  0  0
 17 18  1  0  0  0
 21 22  1  0  0  0
 22 23  2  0  0  0
 22 27  1  0  0  0
 23 24  1  0  0  0
 24 25  2  0  0  0
 25 26  1  0  0  0
 26 27  2  0  0  0
 18 19  1  0  0  0
  3  5  1  0  0  0
  5  7  1  0  0  0
  5  6  1  0  0  0
  7  8  2  0  0  0
  9 11  1  0  0  0
 11 12  1  0  0  0
 12 13  2  0  0  0
  1  3  1  0  0  0
  7  9  1  0  0  0
 12 14  1  0  0  0
 19 20  1  0  0  0
  3  4  1  0  0  0
  9 10  1  0  0  0
 14 15  1  0  0  0
 14 16  1  0  0  0
M  END
> <minimizedAffinity>
-7.55407

$$$$
1JAO_0D3_A_1


 27 27  0  0  0  0  0  0  0  0999 V2000
   27.4059   58.6515   49.5413 C   0  0  0  0  0  0  0  0  0  0  0  0
   26.4450   59.1812   50.1045 O   0  0  0  0  0  0  0  0  0  0  0  0
   27.3346   57.4523   48.9660 N   0  0  0  0  0  0  0  0  0  0  0  0
   28.1333   57.0763   48.5301 H   0  0  0  0  0  0  0  0  0  0  0  0
   26.0978   56.6898   48.9709 C   0  0  0  0  0  0  0  0  0  0  0  0
   25.3098   56.9825   47.7514 C   0  0  0  0  0  0  0  0  0  0  0  0
   26.3514   55.2057   49.1021 C   0  0  0  0  0  0  0  0  0  0  0  0
   27.2767   54.7870   49.7853 O   0  0  0  0  0  0  0  0  0  0  0  0
   25.5694   54.4321   48.3593 N   0  0  0  0  0  0  0  0  0  0  0  0
   24.9188   54.8535   47.7525 H   0  0  0  0  0  0  0  0  0  0  0  0
   25.6442   52.9912   48.4145 C   0  0  0  0  0  0  0  0  0  0  0  0
   25.7975   52.2427   47.1140 C   0  0  0  0  0  0  0  0  0  0  0  0
   26.7647   51.4818   47.0038 O   0  0  0  0  0  0  0  0  0  0  0  0
   25.2479   52.8518   46.0593 N   0  0  0  0  0  0  0  0  0  0  0  0
   24.4775   53.4520   46.1837 H   0  0  0  0  0  0  0  0  0  0  0  0
   25.6133   52.7003   45.1577 H   0  0  0  0  0  0  0  0  0  0  0  0
   28.7545   59.3632   49.4608 C   0  0  0  0  0  0  0  0  0  0  0  0
   28.9437   60.2078   50.7441 C   0  0  0  0  0  0  0  0  0  0  0  0
   29.3296   59.2504   52.2586 S   0  0  0  0  0  0  0  0  0  0  0  0
   28.2887   58.4254   52.5510 H   0  0  0  0  0  0  0  0  0  0  0  0
   29.8469   58.2972   49.2309 C   0  0  0  0  0  0  0  0  0  0  0  0
   30.8792   58.6568   48.1667 C   0  0  0  0  0  0  0  0  0  0  0  0
   30.6175   58.4846   46.8139 C   0  0  0  0  0  0  0  0  0  0  0  0
   31.5230   58.8818   45.8504 C   0  0  0  0  0  0  0  0  0  0  0  0
   32.7024   59.4501   46.2334 C   0  0  0  0  0  0  0  0  0  0  0  0
   32.9945   59.6268   47.5768 C   0  0  0  0  0  0  0  0  0  0  0  0
   32.0839   59.2274   48.5302 C   0  0  0  0  0  0  0  0  0  0  0  0
  1  2  2  0  0  0
  1 17  1  0  0  0
 17 21  1  0  0  0
 17 18  1  0  0  0
 21 22  1  0  0  0
 22 23  2  0  0  0
 22 27  1  0  0  0
 23 24  1  0  0  0
 24 25  2  0  0  0
 25 26  1  0  0  0
 26 27  2  0  0  0
 18 19  1  0  0  0
  3  5  1  0  0  0
  5  7  1  0  0  0
  5  6  1  0  0  0
  7  8  2  0  0  0
  9 11  1  0  0  0
 11 12  1  0  0  0
 12 13  2  0  0  0
  1  3  1  0  0  0
  7  9  1  0  0  0
 12 14  1  0  0  0
 19 20  1  0  0  0
  3  4  1  0  0  0
  9 10  1  0  0  0
 14 15  1  0  0  0
 14 16  1  0  0  0
M  END
> <minimizedAffinity>
-7.09817

$$$$
1JAO_0D3_A_1


 27 27  0  0  0  0  0  0  0  0999 V2000
   28.5500   58.7234   49.7180 C   0  0  0  0  0  0  0  0  0  0  0  0
   28.7449   59.9306   49.5584 O   0  0  0  0  0  0  0  0  0  0  0  0
   29.4847   57.8037   49.4843 N   0  0  0  0  0  0  0  0  0  0  0  0
   29.2748   56.8527   49.6284 H   0  0  0  0  0  0  0  0  0  0  0  0
   30.8090   58.1806   49.0203 C   0  0  0  0  0  0  0  0  0  0  0  0
   30.7103   58.9582   47.7636 C   0  0  0  0  0  0  0  0  0  0  0  0
   31.5751   58.9526   50.0698 C   0  0  0  0  0  0  0  0  0  0  0  0
   31.7426   58.4886   51.1900 O   0  0  0  0  0  0  0  0  0  0  0  0
   31.9507   60.1735   49.7096 N   0  0  0  0  0  0  0  0  0  0  0  0
   31.6824   60.5143   48.8258 H   0  0  0  0  0  0  0  0  0  0  0  0
   32.7410   61.0171   50.5749 C   0  0  0  0  0  0  0  0  0  0  0  0
   34.2429   60.9195   50.4751 C   0  0  0  0  0  0  0  0  0  0  0  0
   34.7993   61.5700   49.5841 O   0  0  0  0  0  0  0  0  0  0  0  0
   34.7538   59.7789   50.9478 N   0  0  0  0  0  0  0  0  0  0  0  0
   34.2835   59.2861   51.6585 H   0  0  0  0  0  0  0  0  0  0  0  0
   35.6006   59.4314   50.5853 H   0  0  0  0  0  0  0  0  0  0  0  0
   27.2011   58.2083   50.2150 C   0  0  0  0  0  0  0  0  0  0  0  0
   26.6601   59.1917   51.2810 C   0  0  0  0  0  0  0  0  0  0  0  0
   27.4298   59.0473   52.9381 S   0  0  0  0  0  0  0  0  0  0  0  0
   27.1675   57.8166   53.4540 H   0  0  0  0  0  0  0  0  0  0  0  0
   26.2785   58.0210   48.9919 C   0  0  0  0  0  0  0  0  0  0  0  0
   25.8850   56.5759   48.7014 C   0  0  0  0  0  0  0  0  0  0  0  0
   24.8603   56.2663   47.8169 C   0  0  0  0  0  0  0  0  0  0  0  0
   24.5572   54.9578   47.4977 C   0  0  0  0  0  0  0  0  0  0  0  0
   25.2741   53.9464   48.0664 C   0  0  0  0  0  0  0  0  0  0  0  0
   26.2970   54.2250   48.9594 C   0  0  0  0  0  0  0  0  0  0  0  0
   26.5917   55.5341   49.2708 C   0  0  0  0  0  0  0  0  0  0  0  0
  1  2  2  0  0  0
  1 17  1  0  0  0
 17 21  1  0  0  0
 17 18  1  0  0  0
 21 22  1  0  0  0
 22 23  2  0  0  0
 22 27  1  0  0  0
 23 24  1  0  0  0
 24 25  2  0  0  0
 25 26  1  0  0  0
 26 27  2  0  0  0
 18 19  1  0  0  0
  3  5  1  0  0  0
  5  7  1  0  0  0
  5  6  1  0  0  0
  7  8  2  0  0  0
  9 11  1  0  0  0
 11 12  1  0  0  0
 12 13  2  0  0  0
  1  3  1  0  0  0
  7  9  1  0  0  0
 12 14  1  0  0  0
 19 20  1  0  0  0
  3  4  1  0  0  0
  9 10  1  0  0  0
 14 15  1  0  0  0
 14 16  1  0  0  0
M  END
> <minimizedAffinity>
-6.98589

$$$$
1JAO_0D3_A_1


 27 27  0  0  0  0  0  0  0  0999 V2000
   27.0882   58.6052   50.5334 C   0  0  0  0  0  0  0  0  0  0  0  0
   26.0088   58.9447   51.0238 O   0  0  0  0  0  0  0  0  0  0  0  0
   27.1994   57.6207   49.6431 N   0  0  0  0  0  0  0  0  0  0  0  0
   28.0867   57.3909   49.2839 H   0  0  0  0  0  0  0  0  0  0  0  0
   26.0330   56.8804   49.1933 C   0  0  0  0  0  0  0  0  0  0  0  0
   25.5589   57.4100   47.8938 C   0  0  0  0  0  0  0  0  0  0  0  0
   26.3087   55.3974   49.0994 C   0  0  0  0  0  0  0  0  0  0  0  0
   27.2578   54.8988   49.6900 O   0  0  0  0  0  0  0  0  0  0  0  0
   25.5160   54.7276   48.2721 N   0  0  0  0  0  0  0  0  0  0  0  0
   24.8434   55.2223   47.7503 H   0  0  0  0  0  0  0  0  0  0  0  0
   25.6102   53.2955   48.1141 C   0  0  0  0  0  0  0  0  0  0  0  0
   25.3016   52.7140   46.7569 C   0  0  0  0  0  0  0  0  0  0  0  0
   24.2982   53.1336   46.1707 O   0  0  0  0  0  0  0  0  0  0  0  0
   25.7711   51.4774   46.5673 N   0  0  0  0  0  0  0  0  0  0  0  0
   26.5736   51.1759   47.0514 H   0  0  0  0  0  0  0  0  0  0  0  0
   25.3144   50.8677   45.9436 H   0  0  0  0  0  0  0  0  0  0  0  0
   28.3815   59.3193   50.9198 C   0  0  0  0  0  0  0  0  0  0  0  0
   29.2995   59.3846   49.6751 C   0  0  0  0  0  0  0  0  0  0  0  0
   31.0776   59.6521   50.0300 S   0  0  0  0  0  0  0  0  0  0  0  0
   31.2430   60.8604   50.6319 H   0  0  0  0  0  0  0  0  0  0  0  0
   28.0114   60.6952   51.5134 C   0  0  0  0  0  0  0  0  0  0  0  0
   28.2518   60.8314   53.0138 C   0  0  0  0  0  0  0  0  0  0  0  0
   27.3055   60.4162   53.9413 C   0  0  0  0  0  0  0  0  0  0  0  0
   27.5567   60.4699   55.2977 C   0  0  0  0  0  0  0  0  0  0  0  0
   28.7567   60.9459   55.7383 C   0  0  0  0  0  0  0  0  0  0  0  0
   29.7172   61.3753   54.8358 C   0  0  0  0  0  0  0  0  0  0  0  0
   29.4565   61.3171   53.4844 C   0  0  0  0  0  0  0  0  0  0  0  0
  1  2  2  0  0  0
  1 17  1  0  0  0
 17 21  1  0  0  0
 17 18  1  0  0  0
 21 22  1  0  0  0
 22 23  2  0  0  0
 22 27  1  0  0  0
 23 24  1  0  0  0
 24 25  2  0  0  0
 25 26  1  0  0  0
 26 27  2  0  0  0
 18 19  1  0  0  0
  3  5  1  0  0  0
  5  7  1  0  0  0
  5  6  1  0  0  0
  7  8  2  0  0  0
  9 11  1  0  0  0
 11 12  1  0  0  0
 12 13  2  0  0  0
  1  3  1  0  0  0
  7  9  1  0  0  0
 12 14  1  0  0  0
 19 20  1  0  0  0
  3  4  1  0  0  0
  9 10  1  0  0  0
 14 15  1  0  0  0
 14 16  1  0  0  0
M  END
> <minimizedAffinity>
-6.91605

$$$$
1JAO_0D3_A_1


 27 27  0  0  0  0  0  0  0  0999 V2000
   28.3450   58.7211   49.7049 C   0  0  0  0  0  0  0  0  0  0  0  0
   28.5138   59.9277   49.5143 O   0  0  0  0  0  0  0  0  0  0  0  0
   29.3158   57.8224   49.5488 N   0  0  0  0  0  0  0  0  0  0  0  0
   29.1256   56.8708   49.7144 H   0  0  0  0  0  0  0  0  0  0  0  0
   30.6506   58.2233   49.1382 C   0  0  0  0  0  0  0  0  0  0  0  0
   30.5982   58.9186   47.8314 C   0  0  0  0  0  0  0  0  0  0  0  0
   31.3244   59.0876   50.1789 C   0  0  0  0  0  0  0  0  0  0  0  0
   31.8707   60.1364   49.8627 O   0  0  0  0  0  0  0  0  0  0  0  0
   31.3530   58.5769   51.4035 N   0  0  0  0  0  0  0  0  0  0  0  0
   30.9852   57.6762   51.5538 H   0  0  0  0  0  0  0  0  0  0  0  0
   31.9073   59.3025   52.5221 C   0  0  0  0  0  0  0  0  0  0  0  0
   30.9747   60.1664   53.3340 C   0  0  0  0  0  0  0  0  0  0  0  0
   30.6944   59.7873   54.4761 O   0  0  0  0  0  0  0  0  0  0  0  0
   30.1362   60.9089   52.6052 N   0  0  0  0  0  0  0  0  0  0  0  0
   30.3923   61.1936   51.6982 H   0  0  0  0  0  0  0  0  0  0  0  0
   29.2625   61.1713   52.9752 H   0  0  0  0  0  0  0  0  0  0  0  0
   26.9879   58.1824   50.1520 C   0  0  0  0  0  0  0  0  0  0  0  0
   26.3712   59.1784   51.1638 C   0  0  0  0  0  0  0  0  0  0  0  0
   26.9626   59.0040   52.8899 S   0  0  0  0  0  0  0  0  0  0  0  0
   26.6114   57.7802   53.3679 H   0  0  0  0  0  0  0  0  0  0  0  0
   26.1298   57.9379   48.8925 C   0  0  0  0  0  0  0  0  0  0  0  0
   25.8559   56.4702   48.5788 C   0  0  0  0  0  0  0  0  0  0  0  0
   26.5697   55.4508   49.1947 C   0  0  0  0  0  0  0  0  0  0  0  0
   26.2684   54.1229   48.9666 C   0  0  0  0  0  0  0  0  0  0  0  0
   25.2524   53.8036   48.1143 C   0  0  0  0  0  0  0  0  0  0  0  0
   24.5282   54.8000   47.4786 C   0  0  0  0  0  0  0  0  0  0  0  0
   24.8367   56.1218   47.7135 C   0  0  0  0  0  0  0  0  0  0  0  0
  1  2  2  0  0  0
  1 17  1  0  0  0
 17 21  1  0  0  0
 17 18  1  0  0  0
 21 22  1  0  0  0
 22 23  2  0  0  0
 22 27  1  0  0  0
 23 24  1  0  0  0
 24 25  2  0  0  0
 25 26  1  0  0  0
 26 27  2  0  0  0
 18 19  1  0  0  0
  3  5  1  0  0  0
  5  7  1  0  0  0
  5  6  1  0  0  0
  7  8  2  0  0  0
  9 11  1  0  0  0
 11 12  1  0  0  0
 12 13  2  0  0  0
  1  3  1  0  0  0
  7  9  1  0  0  0
 12 14  1  0  0  0
 19 20  1  0  0  0
  3  4  1  0  0  0
  9 10  1  0  0  0
 14 15  1  0  0  0
 14 16  1  0  0  0
M  END
> <minimizedAffinity>
-6.87888

$$$$
1JAO_0D3_A_1


 27 27  0  0  0  0  0  0  0  0999 V2000
   27.9950   59.4129   50.5311 C   0  0  0  0  0  0  0  0  0  0  0  0
   27.6112   60.5743   50.3737 O   0  0  0  0  0  0  0  0  0  0  0  0
   28.7091   59.0249   51.5865 N   0  0  0  0  0  0  0  0  0  0  0  0
   28.9896   58.0842   51.6617 H   0  0  0  0  0  0  0  0  0  0  0  0
   29.0809   59.9668   52.6284 C   0  0  0  0  0  0  0  0  0  0  0  0
   28.5701   59.5080   53.9408 C   0  0  0  0  0  0  0  0  0  0  0  0
   30.5751   60.1871   52.6817 C   0  0  0  0  0  0  0  0  0  0  0  0
   31.1953   60.0205   53.7238 O   0  0  0  0  0  0  0  0  0  0  0  0
   31.1166   60.6537   51.5635 N   0  0  0  0  0  0  0  0  0  0  0  0
   30.5306   60.8643   50.8010 H   0  0  0  0  0  0  0  0  0  0  0  0
   32.5394   60.8617   51.4315 C   0  0  0  0  0  0  0  0  0  0  0  0
   33.4193   59.6453   51.2849 C   0  0  0  0  0  0  0  0  0  0  0  0
   33.1335   58.8379   50.3944 O   0  0  0  0  0  0  0  0  0  0  0  0
   34.0390   59.2745   52.4091 N   0  0  0  0  0  0  0  0  0  0  0  0
   34.2517   59.9449   53.0981 H   0  0  0  0  0  0  0  0  0  0  0  0
   34.2830   58.3310   52.5485 H   0  0  0  0  0  0  0  0  0  0  0  0
   27.6538   58.3314   49.5085 C   0  0  0  0  0  0  0  0  0  0  0  0
   28.9725   57.6997   49.0004 C   0  0  0  0  0  0  0  0  0  0  0  0
   30.2251   58.8915   48.3923 S   0  0  0  0  0  0  0  0  0  0  0  0
   29.7330   59.5544   47.3116 H   0  0  0  0  0  0  0  0  0  0  0  0
   26.6813   57.3331   50.1719 C   0  0  0  0  0  0  0  0  0  0  0  0
   26.1290   56.2601   49.2384 C   0  0  0  0  0  0  0  0  0  0  0  0
   26.5575   54.9415   49.3140 C   0  0  0  0  0  0  0  0  0  0  0  0
   26.0012   53.9583   48.5205 C   0  0  0  0  0  0  0  0  0  0  0  0
   25.0138   54.2880   47.6391 C   0  0  0  0  0  0  0  0  0  0  0  0
   24.5717   55.5977   47.5357 C   0  0  0  0  0  0  0  0  0  0  0  0
   25.1333   56.5711   48.3324 C   0  0  0  0  0  0  0  0  0  0  0  0
  1  2  2  0  0  0
  1 17  1  0  0  0
 17 21  1  0  0  0
 17 18  1  0  0  0
 21 22  1  0  0  0
 22 23  2  0  0  0
 22 27  1  0  0  0
 23 24  1  0  0  0
 24 25  2  0  0  0
 25 26  1  0  0  0
 26 27  2  0  0  0
 18 19  1  0  0  0
  3  5  1  0  0  0
  5  7  1  0  0  0
  5  6  1  0  0  0
  7  8  2  0  0  0
  9 11  1  0  0  0
 11 12  1  0  0  0
 12 13  2  0  0  0
  1  3  1  0  0  0
  7  9  1  0  0  0
 12 14  1  0  0  0
 19 20  1  0  0  0
  3  4  1  0  0  0
  9 10  1  0  0  0
 14 15  1  0  0  0
 14 16  1  0  0  0
M  END
> <minimizedAffinity>
-6.85190

$$$$
1JAO_0D3_A_1


 27 27  0  0  0  0  0  0  0  0999 V2000
   28.1170   59.7921   51.4920 C   0  0  0  0  0  0  0  0  0  0  0  0
   27.7524   60.8088   50.8968 O   0  0  0  0  0  0  0  0  0  0  0  0
   28.2499   58.6113   50.8901 N   0  0  0  0  0  0  0  0  0  0  0  0
   28.5445   57.8315   51.4139 H   0  0  0  0  0  0  0  0  0  0  0  0
   27.9674   58.4550   49.4735 C   0  0  0  0  0  0  0  0  0  0  0  0
   29.0999   57.7830   48.7956 C   0  0  0  0  0  0  0  0  0  0  0  0
   26.6778   57.7034   49.2358 C   0  0  0  0  0  0  0  0  0  0  0  0
   25.5955   58.2568   49.3794 O   0  0  0  0  0  0  0  0  0  0  0  0
   26.8197   56.4124   48.9628 N   0  0  0  0  0  0  0  0  0  0  0  0
   27.7220   56.0188   48.9720 H   0  0  0  0  0  0  0  0  0  0  0  0
   25.6905   55.5676   48.6527 C   0  0  0  0  0  0  0  0  0  0  0  0
   25.9622   54.1226   48.3160 C   0  0  0  0  0  0  0  0  0  0  0  0
   25.3380   53.6295   47.3707 O   0  0  0  0  0  0  0  0  0  0  0  0
   26.3901   53.3875   49.3466 N   0  0  0  0  0  0  0  0  0  0  0  0
   26.8849   53.8136   50.0834 H   0  0  0  0  0  0  0  0  0  0  0  0
   26.2105   52.4198   49.3691 H   0  0  0  0  0  0  0  0  0  0  0  0
   28.4551   59.8364   52.9805 C   0  0  0  0  0  0  0  0  0  0  0  0
   29.9328   59.4132   53.1632 C   0  0  0  0  0  0  0  0  0  0  0  0
   31.1684   60.5679   52.4564 S   0  0  0  0  0  0  0  0  0  0  0  0
   31.0042   60.6379   51.1082 H   0  0  0  0  0  0  0  0  0  0  0  0
   28.1258   61.2499   53.5057 C   0  0  0  0  0  0  0  0  0  0  0  0
   27.3834   61.2815   54.8381 C   0  0  0  0  0  0  0  0  0  0  0  0
   27.5059   62.3535   55.7122 C   0  0  0  0  0  0  0  0  0  0  0  0
   26.7743   62.4148   56.8814 C   0  0  0  0  0  0  0  0  0  0  0  0
   25.9170   61.3994   57.1890 C   0  0  0  0  0  0  0  0  0  0  0  0
   25.7804   60.3126   56.3397 C   0  0  0  0  0  0  0  0  0  0  0  0
   26.5147   60.2614   55.1753 C   0  0  0  0  0  0  0  0  0  0  0  0
  1  2  2  0  0  0
  1 17  1  0  0  0
 17 21  1  0  0  0
 17 18  1  0  0  0
 21 22  1  0  0  0
 22 23  2  0  0  0
 22 27  1  0  0  0
 23 24  1  0  0  0
 24 25  2  0  0  0
 25 26  1  0  0  0
 26 27  2  0  0  0
 18 19  1  0  0  0
  3  5  1  0  0  0
  5  7  1  0  0  0
  5  6  1  0  0  0
  7  8  2  0  0  0
  9 11  1  0  0  0
 11 12  1  0  0  0
 12 13  2  0  0  0
  1  3  1  0  0  0
  7  9  1  0  0  0
 12 14  1  0  0  0
 19 20  1  0  0  0
  3  4  1  0  0  0
  9 10  1  0  0  0
 14 15  1  0  0  0
 14 16  1  0  0  0
M  END
> <minimizedAffinity>
-6.79286

$$$$
1JAO_0D3_A_1


 27 27  0  0  0  0  0  0  0  0999 V2000
   27.9297   60.3739   51.4239 C   0  0  0  0  0  0  0  0  0  0  0  0
   27.1778   60.8830   50.5893 O   0  0  0  0  0  0  0  0  0  0  0  0
   28.9949   59.6479   51.0886 N   0  0  0  0  0  0  0  0  0  0  0  0
   29.5615   59.2644   51.7965 H   0  0  0  0  0  0  0  0  0  0  0  0
   29.3347   59.4127   49.6957 C   0  0  0  0  0  0  0  0  0  0  0  0
   30.7909   59.5846   49.4867 C   0  0  0  0  0  0  0  0  0  0  0  0
   28.8833   58.0481   49.2284 C   0  0  0  0  0  0  0  0  0  0  0  0
   29.4821   57.4628   48.3356 O   0  0  0  0  0  0  0  0  0  0  0  0
   27.7641   57.6028   49.7857 N   0  0  0  0  0  0  0  0  0  0  0  0
   27.2824   58.1829   50.4187 H   0  0  0  0  0  0  0  0  0  0  0  0
   27.2317   56.2933   49.4916 C   0  0  0  0  0  0  0  0  0  0  0  0
   25.9923   56.2119   48.6357 C   0  0  0  0  0  0  0  0  0  0  0  0
   25.3187   57.2397   48.5072 O   0  0  0  0  0  0  0  0  0  0  0  0
   25.4501   54.9927   48.5653 N   0  0  0  0  0  0  0  0  0  0  0  0
   26.0169   54.1949   48.6723 H   0  0  0  0  0  0  0  0  0  0  0  0
   24.4837   54.8922   48.4063 H   0  0  0  0  0  0  0  0  0  0  0  0
   27.6813   60.5634   52.9186 C   0  0  0  0  0  0  0  0  0  0  0  0
   26.7726   59.4136   53.4170 C   0  0  0  0  0  0  0  0  0  0  0  0
   25.4437   59.9153   54.5753 S   0  0  0  0  0  0  0  0  0  0  0  0
   25.9981   60.4201   55.7100 H   0  0  0  0  0  0  0  0  0  0  0  0
   29.0506   60.6478   53.6259 C   0  0  0  0  0  0  0  0  0  0  0  0
   29.2370   61.8719   54.5171 C   0  0  0  0  0  0  0  0  0  0  0  0
   30.4258   62.5894   54.5256 C   0  0  0  0  0  0  0  0  0  0  0  0
   30.5654   63.7404   55.2751 C   0  0  0  0  0  0  0  0  0  0  0  0
   29.5167   64.1805   56.0282 C   0  0  0  0  0  0  0  0  0  0  0  0
   28.3207   63.4801   56.0460 C   0  0  0  0  0  0  0  0  0  0  0  0
   28.1918   62.3330   55.2941 C   0  0  0  0  0  0  0  0  0  0  0  0
  1  2  2  0  0  0
  1 17  1  0  0  0
 17 21  1  0  0  0
 17 18  1  0  0  0
 21 22  1  0  0  0
 22 23  2  0  0  0
 22 27  1  0  0  0
 23 24  1  0  0  0
 24 25  2  0  0  0
 25 26  1  0  0  0
 26 27  2  0  0  0
 18 19  1  0  0  0
  3  5  1  0  0  0
  5  7  1  0  0  0
  5  6  1  0  0  0
  7  8  2  0  0  0
  9 11  1  0  0  0
 11 12  1  0  0  0
 12 13  2  0  0  0
  1  3  1  0  0  0
  7  9  1  0  0  0
 12 14  1  0  0  0
 19 20  1  0  0  0
  3  4  1  0  0  0
  9 10  1  0  0  0
 14 15  1  0  0  0
 14 16  1  0  0  0
M  END
> <minimizedAffinity>
-6.76874

$$$$
1JAO_0D3_A_1


 27 27  0  0  0  0  0  0  0  0999 V2000
   27.3778   59.5981   51.9633 C   0  0  0  0  0  0  0  0  0  0  0  0
   26.5233   59.2774   52.7926 O   0  0  0  0  0  0  0  0  0  0  0  0
   27.3438   59.1892   50.6960 N   0  0  0  0  0  0  0  0  0  0  0  0
   28.0527   59.4756   50.0758 H   0  0  0  0  0  0  0  0  0  0  0  0
   26.2780   58.3275   50.2138 C   0  0  0  0  0  0  0  0  0  0  0  0
   25.4053   59.0679   49.2736 C   0  0  0  0  0  0  0  0  0  0  0  0
   26.8172   57.0715   49.5689 C   0  0  0  0  0  0  0  0  0  0  0  0
   27.9329   57.0559   49.0657 O   0  0  0  0  0  0  0  0  0  0  0  0
   25.9652   56.0553   49.5140 N   0  0  0  0  0  0  0  0  0  0  0  0
   25.0471   56.1836   49.8455 H   0  0  0  0  0  0  0  0  0  0  0  0
   26.3442   54.7672   48.9828 C   0  0  0  0  0  0  0  0  0  0  0  0
   25.3581   54.0541   48.0917 C   0  0  0  0  0  0  0  0  0  0  0  0
   24.6720   54.7454   47.3314 O   0  0  0  0  0  0  0  0  0  0  0  0
   24.9279   52.8835   48.5713 N   0  0  0  0  0  0  0  0  0  0  0  0
   25.5013   52.3584   49.1753 H   0  0  0  0  0  0  0  0  0  0  0  0
   24.0377   52.5460   48.3206 H   0  0  0  0  0  0  0  0  0  0  0  0
   28.5390   60.5113   52.3502 C   0  0  0  0  0  0  0  0  0  0  0  0
   28.1925   61.2097   53.6874 C   0  0  0  0  0  0  0  0  0  0  0  0
   28.9771   60.4809   55.1748 S   0  0  0  0  0  0  0  0  0  0  0  0
   28.5377   59.2045   55.3398 H   0  0  0  0  0  0  0  0  0  0  0  0
   29.8264   59.6607   52.3886 C   0  0  0  0  0  0  0  0  0  0  0  0
   31.0581   60.3354   51.7926 C   0  0  0  0  0  0  0  0  0  0  0  0
   31.7517   61.3206   52.4828 C   0  0  0  0  0  0  0  0  0  0  0  0
   32.9094   61.8749   51.9743 C   0  0  0  0  0  0  0  0  0  0  0  0
   33.3802   61.4514   50.7662 C   0  0  0  0  0  0  0  0  0  0  0  0
   32.7042   60.4754   50.0508 C   0  0  0  0  0  0  0  0  0  0  0  0
   31.5502   59.9286   50.5673 C   0  0  0  0  0  0  0  0  0  0  0  0
  1  2  2  0  0  0
  1 17  1  0  0  0
 17 21  1  0  0  0
 17 18  1  0  0  0
 21 22  1  0  0  0
 22 23  2  0  0  0
 22 27  1  0  0  0
 23 24  1  0  0  0
 24 25  2  0  0  0
 25 26  1  0  0  0
 26 27  2  0  0  0
 18 19  1  0  0  0
  3  5  1  0  0  0
  5  7  1  0  0  0
  5  6  1  0  0  0
  7  8  2  0  0  0
  9 11  1  0  0  0
 11 12  1  0  0  0
 12 13  2  0  0  0
  1  3  1  0  0  0
  7  9  1  0  0  0
 12 14  1  0  0  0
 19 20  1  0  0  0
  3  4  1  0  0  0
  9 10  1  0  0  0
 14 15  1  0  0  0
 14 16  1  0  0  0
M  END
> <minimizedAffinity>
-6.63821

$$$$
