1YP9_UIZ_A_2222


 34 39  0  0  0  0  0  0  0  0999 V2000
   14.1555   68.8344   12.4566 C   0  0  0  0  0  0  0  0  0  0  0  0
   14.5983   70.3040   12.4796 C   0  0  0  0  0  0  0  0  0  0  0  0
   13.4829   71.3441   12.2728 C   0  0  0  0  0  0  0  0  0  0  0  0
   12.4223   71.2295   11.6170 O   0  0  0  0  0  0  0  0  0  0  0  0
   13.7613   72.4080   13.1080 N   0  0  0  0  0  0  0  0  0  0  0  0
   14.6881   72.0337   14.1660 C   0  0  0  0  0  0  0  0  0  0  0  0
   14.8982   70.4989   13.9932 C   0  0  0  0  0  0  0  0  0  0  0  0
   13.8087   69.6258   14.6826 C   0  0  0  0  0  0  0  0  0  0  0  0
   14.4967   68.7510   15.7571 C   0  0  0  0  0  0  0  0  0  0  0  0
   13.6182   67.5152   15.7676 C   0  0  0  0  0  0  0  0  0  0  0  0
   13.3071   67.2775   14.2619 C   0  0  0  0  0  0  0  0  0  0  0  0
   13.2855   68.6389   13.6586 N   0  0  0  0  0  0  0  0  0  0  0  0
   12.3781   67.3575    8.8251 C   0  0  0  0  0  0  0  0  0  0  0  0
   13.7551   67.1797    9.0585 C   0  0  0  0  0  0  0  0  0  0  0  0
   14.3337   67.6489   10.2326 C   0  0  0  0  0  0  0  0  0  0  0  0
   13.5404   68.3084   11.1913 C   0  0  0  0  0  0  0  0  0  0  0  0
   12.1713   68.4720   10.9636 C   0  0  0  0  0  0  0  0  0  0  0  0
   11.5861   68.0052    9.7786 C   0  0  0  0  0  0  0  0  0  0  0  0
   12.4482   66.6612    6.4908 N   0  0  0  0  0  0  0  0  0  0  0  0
   11.7779   66.8680    7.6265 C   0  0  0  0  0  0  0  0  0  0  0  0
   10.4497   66.5767    7.5966 N   0  0  0  0  0  0  0  0  0  0  0  0
   11.9770   66.3214    5.6960 H   0  0  0  0  0  0  0  0  0  0  0  0
   10.0384   66.2391    6.7683 H   0  0  0  0  0  0  0  0  0  0  0  0
    9.8997   66.7034    8.4032 H   0  0  0  0  0  0  0  0  0  0  0  0
   12.7376   73.5115   13.2072 C   0  0  0  0  0  0  0  0  0  0  0  0
   12.7067   74.5061   12.0572 C   0  0  0  0  0  0  0  0  0  0  0  0
   11.4901   74.7819   11.3528 C   0  0  0  0  0  0  0  0  0  0  0  0
   11.4500   75.7106   10.2916 C   0  0  0  0  0  0  0  0  0  0  0  0
   12.6520   76.3413    9.9443 C   0  0  0  0  0  0  0  0  0  0  0  0
   12.8733   77.2716    8.9564 O   0  0  0  0  0  0  0  0  0  0  0  0
   14.3003   77.5853    9.0288 C   0  0  0  0  0  0  0  0  0  0  0  0
   14.9187   76.8228   10.0987 O   0  0  0  0  0  0  0  0  0  0  0  0
   13.8551   76.0786   10.6184 C   0  0  0  0  0  0  0  0  0  0  0  0
   13.8916   75.1578   11.6833 C   0  0  0  0  0  0  0  0  0  0  0  0
 19 20  2  0  0  0
 20 21  1  0  0  0
 20 13  1  0  0  0
 13 14  2  0  0  0
 13 18  1  0  0  0
 14 15  1  0  0  0
 15 16  2  0  0  0
 16  1  1  0  0  0
 16 17  1  0  0  0
  1  2  1  0  0  0
  1 12  1  0  0  0
  2  3  1  0  0  0
  2  7  1  0  0  0
  3  4  2  0  0  0
  3  5  1  0  0  0
  5 25  1  0  0  0
  5  6  1  0  0  0
 25 26  1  0  0  0
 26 27  2  0  0  0
 26 34  1  0  0  0
 27 28  1  0  0  0
 28 29  2  0  0  0
 29 30  1  0  0  0
 29 33  1  0  0  0
 30 31  1  0  0  0
 31 32  1  0  0  0
 32 33  1  0  0  0
 33 34  2  0  0  0
  6  7  1  0  0  0
  7  8  1  0  0  0
  8  9  1  0  0  0
  8 12  1  0  0  0
  9 10  1  0  0  0
 10 11  1  0  0  0
 11 12  1  0  0  0
 17 18  2  0  0  0
 19 22  1  0  0  0
 21 23  1  0  0  0
 21 24  1  0  0  0
M  END
> <minimizedAffinity>
-10.40034

$$$$
1YP9_UIZ_A_2222


 34 39  0  0  0  0  0  0  0  0999 V2000
   13.0928   67.9831   13.2371 C   0  0  0  0  0  0  0  0  0  0  0  0
   14.3670   68.7709   13.5718 C   0  0  0  0  0  0  0  0  0  0  0  0
   14.4360   70.2036   13.0136 C   0  0  0  0  0  0  0  0  0  0  0  0
   13.9161   70.6590   11.9694 O   0  0  0  0  0  0  0  0  0  0  0  0
   15.0373   70.9861   13.9795 N   0  0  0  0  0  0  0  0  0  0  0  0
   14.9946   70.3524   15.2891 C   0  0  0  0  0  0  0  0  0  0  0  0
   14.1471   69.0604   15.0840 C   0  0  0  0  0  0  0  0  0  0  0  0
   12.6094   69.2862   15.1787 C   0  0  0  0  0  0  0  0  0  0  0  0
   12.0678   68.4467   16.3598 C   0  0  0  0  0  0  0  0  0  0  0  0
   10.6622   68.1187   15.8952 C   0  0  0  0  0  0  0  0  0  0  0  0
   10.8430   67.8072   14.3817 C   0  0  0  0  0  0  0  0  0  0  0  0
   11.9719   68.6756   13.9470 N   0  0  0  0  0  0  0  0  0  0  0  0
   12.2429   67.2427    9.0829 C   0  0  0  0  0  0  0  0  0  0  0  0
   13.3365   66.6082    9.7022 C   0  0  0  0  0  0  0  0  0  0  0  0
   13.6122   66.8385   11.0455 C   0  0  0  0  0  0  0  0  0  0  0  0
   12.7968   67.7130   11.7895 C   0  0  0  0  0  0  0  0  0  0  0  0
   11.7038   68.3313   11.1762 C   0  0  0  0  0  0  0  0  0  0  0  0
   11.4265   68.1057    9.8210 C   0  0  0  0  0  0  0  0  0  0  0  0
   12.8821   66.8555    6.7634 N   0  0  0  0  0  0  0  0  0  0  0  0
   11.9496   67.0009    7.7074 C   0  0  0  0  0  0  0  0  0  0  0  0
   10.6588   66.8997    7.2910 N   0  0  0  0  0  0  0  0  0  0  0  0
   12.6161   66.6902    5.8300 H   0  0  0  0  0  0  0  0  0  0  0  0
   10.4595   66.7328    6.3415 H   0  0  0  0  0  0  0  0  0  0  0  0
    9.9237   66.9932    7.9393 H   0  0  0  0  0  0  0  0  0  0  0  0
   15.0980   72.4746   13.7420 C   0  0  0  0  0  0  0  0  0  0  0  0
   15.5219   73.3283   14.9269 C   0  0  0  0  0  0  0  0  0  0  0  0
   14.5525   74.0266   15.7175 C   0  0  0  0  0  0  0  0  0  0  0  0
   14.9357   74.8126   16.8246 C   0  0  0  0  0  0  0  0  0  0  0  0
   16.3049   74.8949   17.1105 C   0  0  0  0  0  0  0  0  0  0  0  0
   16.9253   75.5904   18.1215 O   0  0  0  0  0  0  0  0  0  0  0  0
   18.3553   75.3333   17.9509 C   0  0  0  0  0  0  0  0  0  0  0  0
   18.5657   74.4531   16.8154 O   0  0  0  0  0  0  0  0  0  0  0  0
   17.2697   74.2235   16.3430 C   0  0  0  0  0  0  0  0  0  0  0  0
   16.8848   73.4323   15.2436 C   0  0  0  0  0  0  0  0  0  0  0  0
 19 20  2  0  0  0
 20 21  1  0  0  0
 20 13  1  0  0  0
 13 14  2  0  0  0
 13 18  1  0  0  0
 14 15  1  0  0  0
 15 16  2  0  0  0
 16  1  1  0  0  0
 16 17  1  0  0  0
  1  2  1  0  0  0
  1 12  1  0  0  0
  2  3  1  0  0  0
  2  7  1  0  0  0
  3  4  2  0  0  0
  3  5  1  0  0  0
  5 25  1  0  0  0
  5  6  1  0  0  0
 25 26  1  0  0  0
 26 27  2  0  0  0
 26 34  1  0  0  0
 27 28  1  0  0  0
 28 29  2  0  0  0
 29 30  1  0  0  0
 29 33  1  0  0  0
 30 31  1  0  0  0
 31 32  1  0  0  0
 32 33  1  0  0  0
 33 34  2  0  0  0
  6  7  1  0  0  0
  7  8  1  0  0  0
  8  9  1  0  0  0
  8 12  1  0  0  0
  9 10  1  0  0  0
 10 11  1  0  0  0
 11 12  1  0  0  0
 17 18  2  0  0  0
 19 22  1  0  0  0
 21 23  1  0  0  0
 21 24  1  0  0  0
M  END
> <minimizedAffinity>
-9.03947

$$$$
1YP9_UIZ_A_2222


 34 39  0  0  0  0  0  0  0  0999 V2000
   12.8061   67.7509   13.0232 C   0  0  0  0  0  0  0  0  0  0  0  0
   14.1554   68.3580   13.4320 C   0  0  0  0  0  0  0  0  0  0  0  0
   14.4230   69.7913   12.9390 C   0  0  0  0  0  0  0  0  0  0  0  0
   14.0028   70.3492   11.8997 O   0  0  0  0  0  0  0  0  0  0  0  0
   15.0812   70.4533   13.9566 N   0  0  0  0  0  0  0  0  0  0  0  0
   14.9117   69.7792   15.2354 C   0  0  0  0  0  0  0  0  0  0  0  0
   13.9178   68.6134   14.9477 C   0  0  0  0  0  0  0  0  0  0  0  0
   12.4178   69.0276   15.0034 C   0  0  0  0  0  0  0  0  0  0  0  0
   11.7327   68.2174   16.1292 C   0  0  0  0  0  0  0  0  0  0  0  0
   10.3152   68.0878   15.6066 C   0  0  0  0  0  0  0  0  0  0  0  0
   10.5113   67.8155   14.0875 C   0  0  0  0  0  0  0  0  0  0  0  0
   11.7550   68.5510   13.7268 N   0  0  0  0  0  0  0  0  0  0  0  0
   12.0200   67.2871    8.8167 C   0  0  0  0  0  0  0  0  0  0  0  0
   13.0942   66.5994    9.4127 C   0  0  0  0  0  0  0  0  0  0  0  0
   13.3491   66.7402   10.7723 C   0  0  0  0  0  0  0  0  0  0  0  0
   12.5322   67.5772   11.5567 C   0  0  0  0  0  0  0  0  0  0  0  0
   11.4583   68.2485   10.9657 C   0  0  0  0  0  0  0  0  0  0  0  0
   11.2021   68.1130    9.5944 C   0  0  0  0  0  0  0  0  0  0  0  0
   12.5890   66.5639    6.5602 N   0  0  0  0  0  0  0  0  0  0  0  0
   11.7480   67.1371    7.4239 C   0  0  0  0  0  0  0  0  0  0  0  0
   10.5733   67.5846    6.9046 N   0  0  0  0  0  0  0  0  0  0  0  0
   12.3437   66.4899    5.6096 H   0  0  0  0  0  0  0  0  0  0  0  0
   10.3883   67.4798    5.9433 H   0  0  0  0  0  0  0  0  0  0  0  0
    9.9080   68.0134    7.4900 H   0  0  0  0  0  0  0  0  0  0  0  0
   15.3359   71.9304   13.7861 C   0  0  0  0  0  0  0  0  0  0  0  0
   14.1100   72.8303   13.7976 C   0  0  0  0  0  0  0  0  0  0  0  0
   13.1651   72.7762   14.8732 C   0  0  0  0  0  0  0  0  0  0  0  0
   12.0307   73.6144   14.8973 C   0  0  0  0  0  0  0  0  0  0  0  0
   11.8573   74.4916   13.8185 C   0  0  0  0  0  0  0  0  0  0  0  0
   10.8436   75.3966   13.6089 O   0  0  0  0  0  0  0  0  0  0  0  0
   11.1535   76.0403   12.3324 C   0  0  0  0  0  0  0  0  0  0  0  0
   12.3896   75.4998   11.7953 O   0  0  0  0  0  0  0  0  0  0  0  0
   12.7686   74.5536   12.7526 C   0  0  0  0  0  0  0  0  0  0  0  0
   13.9052   73.7224   12.7344 C   0  0  0  0  0  0  0  0  0  0  0  0
 19 20  2  0  0  0
 20 21  1  0  0  0
 20 13  1  0  0  0
 13 14  2  0  0  0
 13 18  1  0  0  0
 14 15  1  0  0  0
 15 16  2  0  0  0
 16  1  1  0  0  0
 16 17  1  0  0  0
  1  2  1  0  0  0
  1 12  1  0  0  0
  2  3  1  0  0  0
  2  7  1  0  0  0
  3  4  2  0  0  0
  3  5  1  0  0  0
  5 25  1  0  0  0
  5  6  1  0  0  0
 25 26  1  0  0  0
 26 27  2  0  0  0
 26 34  1  0  0  0
 27 28  1  0  0  0
 28 29  2  0  0  0
 29 30  1  0  0  0
 29 33  1  0  0  0
 30 31  1  0  0  0
 31 32  1  0  0  0
 32 33  1  0  0  0
 33 34  2  0  0  0
  6  7  1  0  0  0
  7  8  1  0  0  0
  8  9  1  0  0  0
  8 12  1  0  0  0
  9 10  1  0  0  0
 10 11  1  0  0  0
 11 12  1  0  0  0
 17 18  2  0  0  0
 19 22  1  0  0  0
 21 23  1  0  0  0
 21 24  1  0  0  0
M  END
> <minimizedAffinity>
-8.74093

$$$$
1YP9_UIZ_A_2222


 34 39  0  0  0  0  0  0  0  0999 V2000
   11.8116   68.1295   12.8334 C   0  0  0  0  0  0  0  0  0  0  0  0
   12.4003   69.4121   13.4373 C   0  0  0  0  0  0  0  0  0  0  0  0
   11.9687   70.7288   12.7672 C   0  0  0  0  0  0  0  0  0  0  0  0
   11.6519   70.9277   11.5722 O   0  0  0  0  0  0  0  0  0  0  0  0
   11.8047   71.6604   13.7732 N   0  0  0  0  0  0  0  0  0  0  0  0
   11.6543   71.0266   15.0748 C   0  0  0  0  0  0  0  0  0  0  0  0
   11.6126   69.4974   14.7758 C   0  0  0  0  0  0  0  0  0  0  0  0
   10.2023   68.9629   14.3883 C   0  0  0  0  0  0  0  0  0  0  0  0
    9.7732   67.9171   15.4443 C   0  0  0  0  0  0  0  0  0  0  0  0
    8.9032   66.9822   14.6269 C   0  0  0  0  0  0  0  0  0  0  0  0
    9.6690   66.8591   13.2783 C   0  0  0  0  0  0  0  0  0  0  0  0
   10.3396   68.1767   13.1002 N   0  0  0  0  0  0  0  0  0  0  0  0
   12.7782   67.1991    8.7434 C   0  0  0  0  0  0  0  0  0  0  0  0
   11.4345   67.3660    9.1293 C   0  0  0  0  0  0  0  0  0  0  0  0
   11.1165   67.6730   10.4477 C   0  0  0  0  0  0  0  0  0  0  0  0
   12.1420   67.8139   11.4026 C   0  0  0  0  0  0  0  0  0  0  0  0
   13.4758   67.6611   11.0145 C   0  0  0  0  0  0  0  0  0  0  0  0
   13.7994   67.3461    9.6876 C   0  0  0  0  0  0  0  0  0  0  0  0
   14.3171   67.0967    6.8567 N   0  0  0  0  0  0  0  0  0  0  0  0
   13.1099   66.8948    7.3892 C   0  0  0  0  0  0  0  0  0  0  0  0
   12.1736   66.3614    6.5593 N   0  0  0  0  0  0  0  0  0  0  0  0
   14.4843   66.8659    5.9143 H   0  0  0  0  0  0  0  0  0  0  0  0
   12.4053   66.1525    5.6255 H   0  0  0  0  0  0  0  0  0  0  0  0
   11.2642   66.1843    6.8923 H   0  0  0  0  0  0  0  0  0  0  0  0
   11.2405   73.0085   13.3988 C   0  0  0  0  0  0  0  0  0  0  0  0
   12.2119   73.9921   12.7652 C   0  0  0  0  0  0  0  0  0  0  0  0
   13.4655   74.2962   13.3884 C   0  0  0  0  0  0  0  0  0  0  0  0
   14.3771   75.1995   12.8027 C   0  0  0  0  0  0  0  0  0  0  0  0
   14.0000   75.7992   11.5938 C   0  0  0  0  0  0  0  0  0  0  0  0
   14.7026   76.7054   10.8350 O   0  0  0  0  0  0  0  0  0  0  0  0
   13.8449   77.0008    9.6874 C   0  0  0  0  0  0  0  0  0  0  0  0
   12.6161   76.2328    9.7800 O   0  0  0  0  0  0  0  0  0  0  0  0
   12.7730   75.5190   10.9721 C   0  0  0  0  0  0  0  0  0  0  0  0
   11.8679   74.6104   11.5536 C   0  0  0  0  0  0  0  0  0  0  0  0
 19 20  2  0  0  0
 20 21  1  0  0  0
 20 13  1  0  0  0
 13 14  2  0  0  0
 13 18  1  0  0  0
 14 15  1  0  0  0
 15 16  2  0  0  0
 16  1  1  0  0  0
 16 17  1  0  0  0
  1  2  1  0  0  0
  1 12  1  0  0  0
  2  3  1  0  0  0
  2  7  1  0  0  0
  3  4  2  0  0  0
  3  5  1  0  0  0
  5 25  1  0  0  0
  5  6  1  0  0  0
 25 26  1  0  0  0
 26 27  2  0  0  0
 26 34  1  0  0  0
 27 28  1  0  0  0
 28 29  2  0  0  0
 29 30  1  0  0  0
 29 33  1  0  0  0
 30 31  1  0  0  0
 31 32  1  0  0  0
 32 33  1  0  0  0
 33 34  2  0  0  0
  6  7  1  0  0  0
  7  8  1  0  0  0
  8  9  1  0  0  0
  8 12  1  0  0  0
  9 10  1  0  0  0
 10 11  1  0  0  0
 11 12  1  0  0  0
 17 18  2  0  0  0
 19 22  1  0  0  0
 21 23  1  0  0  0
 21 24  1  0  0  0
M  END
> <minimizedAffinity>
-8.68055

$$$$
1YP9_UIZ_A_2222


 34 39  0  0  0  0  0  0  0  0999 V2000
   10.7137   73.5065   13.0126 C   0  0  0  0  0  0  0  0  0  0  0  0
   10.4036   72.0849   12.5236 C   0  0  0  0  0  0  0  0  0  0  0  0
   11.6243   71.1880   12.2511 C   0  0  0  0  0  0  0  0  0  0  0  0
   12.7716   71.5251   11.8793 O   0  0  0  0  0  0  0  0  0  0  0  0
   11.2939   69.9151   12.6725 N   0  0  0  0  0  0  0  0  0  0  0  0
   10.1627   69.9280   13.5884 C   0  0  0  0  0  0  0  0  0  0  0  0
    9.8543   71.4372   13.8266 C   0  0  0  0  0  0  0  0  0  0  0  0
   10.7217   72.0961   14.9393 C   0  0  0  0  0  0  0  0  0  0  0  0
    9.7780   72.5884   16.0619 C   0  0  0  0  0  0  0  0  0  0  0  0
   10.5293   73.7901   16.6011 C   0  0  0  0  0  0  0  0  0  0  0  0
   11.0844   74.4765   15.3201 C   0  0  0  0  0  0  0  0  0  0  0  0
   11.3327   73.3593   14.3673 N   0  0  0  0  0  0  0  0  0  0  0  0
   12.9857   76.0568   10.3930 C   0  0  0  0  0  0  0  0  0  0  0  0
   11.6061   75.8761   10.1781 C   0  0  0  0  0  0  0  0  0  0  0  0
   10.8656   75.0586   11.0249 C   0  0  0  0  0  0  0  0  0  0  0  0
   11.4983   74.4051   12.0999 C   0  0  0  0  0  0  0  0  0  0  0  0
   12.8652   74.5965   12.3194 C   0  0  0  0  0  0  0  0  0  0  0  0
   13.6155   75.4154   11.4645 C   0  0  0  0  0  0  0  0  0  0  0  0
   13.2087   77.8169    8.7224 N   0  0  0  0  0  0  0  0  0  0  0  0
   13.7474   76.9035    9.5332 C   0  0  0  0  0  0  0  0  0  0  0  0
   15.1042   76.8123    9.5107 N   0  0  0  0  0  0  0  0  0  0  0  0
   13.7883   78.3718    8.1520 H   0  0  0  0  0  0  0  0  0  0  0  0
   15.6272   77.3977    8.9165 H   0  0  0  0  0  0  0  0  0  0  0  0
   15.5635   76.1609   10.0886 H   0  0  0  0  0  0  0  0  0  0  0  0
   12.3751   68.8635   12.6503 C   0  0  0  0  0  0  0  0  0  0  0  0
   12.7082   68.2693   11.2906 C   0  0  0  0  0  0  0  0  0  0  0  0
   14.0287   67.7996   10.9941 C   0  0  0  0  0  0  0  0  0  0  0  0
   14.3441   67.2376    9.7392 C   0  0  0  0  0  0  0  0  0  0  0  0
   13.3168   67.1715    8.7887 C   0  0  0  0  0  0  0  0  0  0  0  0
   13.3705   66.6768    7.5069 O   0  0  0  0  0  0  0  0  0  0  0  0
   12.0251   66.8586    6.9622 C   0  0  0  0  0  0  0  0  0  0  0  0
   11.1658   67.4646    7.9636 O   0  0  0  0  0  0  0  0  0  0  0  0
   12.0188   67.6332    9.0587 C   0  0  0  0  0  0  0  0  0  0  0  0
   11.7034   68.1858   10.3149 C   0  0  0  0  0  0  0  0  0  0  0  0
 19 20  2  0  0  0
 20 21  1  0  0  0
 20 13  1  0  0  0
 13 14  2  0  0  0
 13 18  1  0  0  0
 14 15  1  0  0  0
 15 16  2  0  0  0
 16  1  1  0  0  0
 16 17  1  0  0  0
  1  2  1  0  0  0
  1 12  1  0  0  0
  2  3  1  0  0  0
  2  7  1  0  0  0
  3  4  2  0  0  0
  3  5  1  0  0  0
  5 25  1  0  0  0
  5  6  1  0  0  0
 25 26  1  0  0  0
 26 27  2  0  0  0
 26 34  1  0  0  0
 27 28  1  0  0  0
 28 29  2  0  0  0
 29 30  1  0  0  0
 29 33  1  0  0  0
 30 31  1  0  0  0
 31 32  1  0  0  0
 32 33  1  0  0  0
 33 34  2  0  0  0
  6  7  1  0  0  0
  7  8  1  0  0  0
  8  9  1  0  0  0
  8 12  1  0  0  0
  9 10  1  0  0  0
 10 11  1  0  0  0
 11 12  1  0  0  0
 17 18  2  0  0  0
 19 22  1  0  0  0
 21 23  1  0  0  0
 21 24  1  0  0  0
M  END
> <minimizedAffinity>
-8.66087

$$$$
1YP9_UIZ_A_2222


 34 39  0  0  0  0  0  0  0  0999 V2000
   11.5653   67.4203   13.1245 C   0  0  0  0  0  0  0  0  0  0  0  0
   12.5053   68.2190   14.0382 C   0  0  0  0  0  0  0  0  0  0  0  0
   12.6992   69.7009   13.6705 C   0  0  0  0  0  0  0  0  0  0  0  0
   12.6487   70.2363   12.5396 O   0  0  0  0  0  0  0  0  0  0  0  0
   12.7621   70.4074   14.8553 N   0  0  0  0  0  0  0  0  0  0  0  0
   12.2060   69.6476   15.9653 C   0  0  0  0  0  0  0  0  0  0  0  0
   11.6319   68.3509   15.3183 C   0  0  0  0  0  0  0  0  0  0  0  0
   10.1921   68.5086   14.7467 C   0  0  0  0  0  0  0  0  0  0  0  0
    9.2590   67.5380   15.5086 C   0  0  0  0  0  0  0  0  0  0  0  0
    8.2219   67.2044   14.4539 C   0  0  0  0  0  0  0  0  0  0  0  0
    9.0625   67.0492   13.1539 C   0  0  0  0  0  0  0  0  0  0  0  0
   10.1984   67.9977   13.3201 N   0  0  0  0  0  0  0  0  0  0  0  0
   12.6640   66.9911    8.9849 C   0  0  0  0  0  0  0  0  0  0  0  0
   11.4195   67.5524    9.3289 C   0  0  0  0  0  0  0  0  0  0  0  0
   11.0618   67.6996   10.6645 C   0  0  0  0  0  0  0  0  0  0  0  0
   11.9458   67.2820   11.6781 C   0  0  0  0  0  0  0  0  0  0  0  0
   13.1862   66.7374   11.3345 C   0  0  0  0  0  0  0  0  0  0  0  0
   13.5475   66.5826    9.9892 C   0  0  0  0  0  0  0  0  0  0  0  0
   12.1947   66.4897    6.6467 N   0  0  0  0  0  0  0  0  0  0  0  0
   13.0399   66.8482    7.6157 C   0  0  0  0  0  0  0  0  0  0  0  0
   14.3223   67.0869    7.2303 N   0  0  0  0  0  0  0  0  0  0  0  0
   12.5150   66.4082    5.7193 H   0  0  0  0  0  0  0  0  0  0  0  0
   14.5788   66.9875    6.2850 H   0  0  0  0  0  0  0  0  0  0  0  0
   14.9940   67.3590    7.8966 H   0  0  0  0  0  0  0  0  0  0  0  0
   12.8057   71.9132   14.7754 C   0  0  0  0  0  0  0  0  0  0  0  0
   14.1538   72.5626   15.0465 C   0  0  0  0  0  0  0  0  0  0  0  0
   15.2926   72.2677   14.2287 C   0  0  0  0  0  0  0  0  0  0  0  0
   16.5444   72.8733   14.4665 C   0  0  0  0  0  0  0  0  0  0  0  0
   16.6327   73.7637   15.5448 C   0  0  0  0  0  0  0  0  0  0  0  0
   17.7284   74.4712   15.9798 O   0  0  0  0  0  0  0  0  0  0  0  0
   17.2642   75.2357   17.1374 C   0  0  0  0  0  0  0  0  0  0  0  0
   15.8555   74.9713   17.3698 O   0  0  0  0  0  0  0  0  0  0  0  0
   15.5296   74.0594   16.3612 C   0  0  0  0  0  0  0  0  0  0  0  0
   14.2786   73.4608   16.1171 C   0  0  0  0  0  0  0  0  0  0  0  0
 19 20  2  0  0  0
 20 21  1  0  0  0
 20 13  1  0  0  0
 13 14  2  0  0  0
 13 18  1  0  0  0
 14 15  1  0  0  0
 15 16  2  0  0  0
 16  1  1  0  0  0
 16 17  1  0  0  0
  1  2  1  0  0  0
  1 12  1  0  0  0
  2  3  1  0  0  0
  2  7  1  0  0  0
  3  4  2  0  0  0
  3  5  1  0  0  0
  5 25  1  0  0  0
  5  6  1  0  0  0
 25 26  1  0  0  0
 26 27  2  0  0  0
 26 34  1  0  0  0
 27 28  1  0  0  0
 28 29  2  0  0  0
 29 30  1  0  0  0
 29 33  1  0  0  0
 30 31  1  0  0  0
 31 32  1  0  0  0
 32 33  1  0  0  0
 33 34  2  0  0  0
  6  7  1  0  0  0
  7  8  1  0  0  0
  8  9  1  0  0  0
  8 12  1  0  0  0
  9 10  1  0  0  0
 10 11  1  0  0  0
 11 12  1  0  0  0
 17 18  2  0  0  0
 19 22  1  0  0  0
 21 23  1  0  0  0
 21 24  1  0  0  0
M  END
> <minimizedAffinity>
-8.59392

$$$$
1YP9_UIZ_A_2222


 34 39  0  0  0  0  0  0  0  0999 V2000
   12.6312   68.6989   13.5564 C   0  0  0  0  0  0  0  0  0  0  0  0
   14.0501   69.0405   14.0320 C   0  0  0  0  0  0  0  0  0  0  0  0
   14.7336   70.2172   13.3129 C   0  0  0  0  0  0  0  0  0  0  0  0
   14.5740   70.6089   12.1343 O   0  0  0  0  0  0  0  0  0  0  0  0
   15.4483   70.9147   14.2667 N   0  0  0  0  0  0  0  0  0  0  0  0
   14.9890   70.6093   15.6136 C   0  0  0  0  0  0  0  0  0  0  0  0
   13.7514   69.6825   15.4168 C   0  0  0  0  0  0  0  0  0  0  0  0
   12.4172   70.4463   15.1696 C   0  0  0  0  0  0  0  0  0  0  0  0
   11.4410   70.1016   16.3192 C   0  0  0  0  0  0  0  0  0  0  0  0
   10.0941   70.2012   15.6297 C   0  0  0  0  0  0  0  0  0  0  0  0
   10.3490   69.5525   14.2388 C   0  0  0  0  0  0  0  0  0  0  0  0
   11.7711   69.8661   13.9278 N   0  0  0  0  0  0  0  0  0  0  0  0
   12.1268   67.4318    9.4738 C   0  0  0  0  0  0  0  0  0  0  0  0
   11.3649   68.5028    9.9782 C   0  0  0  0  0  0  0  0  0  0  0  0
   11.5281   68.9208   11.2943 C   0  0  0  0  0  0  0  0  0  0  0  0
   12.4564   68.2680   12.1282 C   0  0  0  0  0  0  0  0  0  0  0  0
   13.2213   67.2138   11.6214 C   0  0  0  0  0  0  0  0  0  0  0  0
   13.0553   66.7865   10.2969 C   0  0  0  0  0  0  0  0  0  0  0  0
   12.9907   66.7909    7.2871 N   0  0  0  0  0  0  0  0  0  0  0  0
   11.9706   67.0065    8.1205 C   0  0  0  0  0  0  0  0  0  0  0  0
   10.7282   66.7908    7.6108 N   0  0  0  0  0  0  0  0  0  0  0  0
   12.8181   66.4978    6.3632 H   0  0  0  0  0  0  0  0  0  0  0  0
   10.6234   66.4975    6.6769 H   0  0  0  0  0  0  0  0  0  0  0  0
    9.9337   66.9281    8.1757 H   0  0  0  0  0  0  0  0  0  0  0  0
   16.1014   72.2090   13.8497 C   0  0  0  0  0  0  0  0  0  0  0  0
   15.3685   73.4859   14.2306 C   0  0  0  0  0  0  0  0  0  0  0  0
   15.7918   74.2735   15.3500 C   0  0  0  0  0  0  0  0  0  0  0  0
   15.1242   75.4647   15.7044 C   0  0  0  0  0  0  0  0  0  0  0  0
   14.0206   75.8385   14.9262 C   0  0  0  0  0  0  0  0  0  0  0  0
   13.2107   76.9406   15.0675 O   0  0  0  0  0  0  0  0  0  0  0  0
   12.2187   76.8349   13.9976 C   0  0  0  0  0  0  0  0  0  0  0  0
   12.4711   75.6431   13.2075 O   0  0  0  0  0  0  0  0  0  0  0  0
   13.5871   75.0757   13.8303 C   0  0  0  0  0  0  0  0  0  0  0  0
   14.2599   73.8915   13.4725 C   0  0  0  0  0  0  0  0  0  0  0  0
 19 20  2  0  0  0
 20 21  1  0  0  0
 20 13  1  0  0  0
 13 14  2  0  0  0
 13 18  1  0  0  0
 14 15  1  0  0  0
 15 16  2  0  0  0
 16  1  1  0  0  0
 16 17  1  0  0  0
  1  2  1  0  0  0
  1 12  1  0  0  0
  2  3  1  0  0  0
  2  7  1  0  0  0
  3  4  2  0  0  0
  3  5  1  0  0  0
  5 25  1  0  0  0
  5  6  1  0  0  0
 25 26  1  0  0  0
 26 27  2  0  0  0
 26 34  1  0  0  0
 27 28  1  0  0  0
 28 29  2  0  0  0
 29 30  1  0  0  0
 29 33  1  0  0  0
 30 31  1  0  0  0
 31 32  1  0  0  0
 32 33  1  0  0  0
 33 34  2  0  0  0
  6  7  1  0  0  0
  7  8  1  0  0  0
  8  9  1  0  0  0
  8 12  1  0  0  0
  9 10  1  0  0  0
 10 11  1  0  0  0
 11 12  1  0  0  0
 17 18  2  0  0  0
 19 22  1  0  0  0
 21 23  1  0  0  0
 21 24  1  0  0  0
M  END
> <minimizedAffinity>
-8.44795

$$$$
1YP9_UIZ_A_2222


 34 39  0  0  0  0  0  0  0  0999 V2000
   13.9513   68.8470   12.6279 C   0  0  0  0  0  0  0  0  0  0  0  0
   14.5459   70.2620   12.6485 C   0  0  0  0  0  0  0  0  0  0  0  0
   13.5673   71.4058   12.3278 C   0  0  0  0  0  0  0  0  0  0  0  0
   12.5535   71.3810   11.5932 O   0  0  0  0  0  0  0  0  0  0  0  0
   13.8938   72.4621   13.1551 N   0  0  0  0  0  0  0  0  0  0  0  0
   14.6921   72.0285   14.2923 C   0  0  0  0  0  0  0  0  0  0  0  0
   14.7490   70.4752   14.1757 C   0  0  0  0  0  0  0  0  0  0  0  0
   13.5230   69.7448   14.7987 C   0  0  0  0  0  0  0  0  0  0  0  0
   14.0297   68.8395   15.9462 C   0  0  0  0  0  0  0  0  0  0  0  0
   13.0256   67.7036   15.9185 C   0  0  0  0  0  0  0  0  0  0  0  0
   12.8062   67.4493   14.3993 C   0  0  0  0  0  0  0  0  0  0  0  0
   12.9765   68.7843   13.7619 N   0  0  0  0  0  0  0  0  0  0  0  0
   12.3317   67.3808    8.9191 C   0  0  0  0  0  0  0  0  0  0  0  0
   11.5005   68.0569    9.8324 C   0  0  0  0  0  0  0  0  0  0  0  0
   12.0195   68.5384   11.0292 C   0  0  0  0  0  0  0  0  0  0  0  0
   13.3813   68.3461   11.3316 C   0  0  0  0  0  0  0  0  0  0  0  0
   14.2076   67.6865   10.4176 C   0  0  0  0  0  0  0  0  0  0  0  0
   13.6864   67.1950    9.2129 C   0  0  0  0  0  0  0  0  0  0  0  0
   12.5577   66.5991    6.6220 N   0  0  0  0  0  0  0  0  0  0  0  0
   11.8060   66.8945    7.6848 C   0  0  0  0  0  0  0  0  0  0  0  0
   10.4675   66.7005    7.5409 N   0  0  0  0  0  0  0  0  0  0  0  0
   12.1351   66.2669    5.7972 H   0  0  0  0  0  0  0  0  0  0  0  0
   10.1075   66.3650    6.6882 H   0  0  0  0  0  0  0  0  0  0  0  0
    9.8585   66.8957    8.2895 H   0  0  0  0  0  0  0  0  0  0  0  0
   12.9896   73.6696   13.1449 C   0  0  0  0  0  0  0  0  0  0  0  0
   13.4456   74.8588   13.9758 C   0  0  0  0  0  0  0  0  0  0  0  0
   14.1757   75.9382   13.3805 C   0  0  0  0  0  0  0  0  0  0  0  0
   14.5938   77.0501   14.1414 C   0  0  0  0  0  0  0  0  0  0  0  0
   14.2793   77.0489   15.5068 C   0  0  0  0  0  0  0  0  0  0  0  0
   14.5744   78.0033   16.4515 O   0  0  0  0  0  0  0  0  0  0  0  0
   14.0198   77.4947   17.7060 C   0  0  0  0  0  0  0  0  0  0  0  0
   13.3743   76.2145   17.4761 O   0  0  0  0  0  0  0  0  0  0  0  0
   13.5710   75.9970   16.1090 C   0  0  0  0  0  0  0  0  0  0  0  0
   13.1467   74.8919   15.3462 C   0  0  0  0  0  0  0  0  0  0  0  0
 19 20  2  0  0  0
 20 21  1  0  0  0
 20 13  1  0  0  0
 13 14  2  0  0  0
 13 18  1  0  0  0
 14 15  1  0  0  0
 15 16  2  0  0  0
 16  1  1  0  0  0
 16 17  1  0  0  0
  1  2  1  0  0  0
  1 12  1  0  0  0
  2  3  1  0  0  0
  2  7  1  0  0  0
  3  4  2  0  0  0
  3  5  1  0  0  0
  5 25  1  0  0  0
  5  6  1  0  0  0
 25 26  1  0  0  0
 26 27  2  0  0  0
 26 34  1  0  0  0
 27 28  1  0  0  0
 28 29  2  0  0  0
 29 30  1  0  0  0
 29 33  1  0  0  0
 30 31  1  0  0  0
 31 32  1  0  0  0
 32 33  1  0  0  0
 33 34  2  0  0  0
  6  7  1  0  0  0
  7  8  1  0  0  0
  8  9  1  0  0  0
  8 12  1  0  0  0
  9 10  1  0  0  0
 10 11  1  0  0  0
 11 12  1  0  0  0
 17 18  2  0  0  0
 19 22  1  0  0  0
 21 23  1  0  0  0
 21 24  1  0  0  0
M  END
> <minimizedAffinity>
-8.36855

$$$$
1YP9_UIZ_A_2222


 34 39  0  0  0  0  0  0  0  0999 V2000
   13.3293   74.0792   13.9462 C   0  0  0  0  0  0  0  0  0  0  0  0
   11.9912   73.3564   14.1542 C   0  0  0  0  0  0  0  0  0  0  0  0
   11.4666   72.5557   12.9490 C   0  0  0  0  0  0  0  0  0  0  0  0
   11.6462   72.7758   11.7294 O   0  0  0  0  0  0  0  0  0  0  0  0
   10.8917   71.4033   13.4475 N   0  0  0  0  0  0  0  0  0  0  0  0
   11.3418   71.1197   14.8023 C   0  0  0  0  0  0  0  0  0  0  0  0
   12.4230   72.2016   15.1024 C   0  0  0  0  0  0  0  0  0  0  0  0
   13.8470   71.8381   14.5876 C   0  0  0  0  0  0  0  0  0  0  0  0
   14.7963   71.7542   15.8061 C   0  0  0  0  0  0  0  0  0  0  0  0
   16.1216   72.1779   15.2032 C   0  0  0  0  0  0  0  0  0  0  0  0
   15.7319   73.3478   14.2546 C   0  0  0  0  0  0  0  0  0  0  0  0
   14.3625   73.0098   13.7767 N   0  0  0  0  0  0  0  0  0  0  0  0
   13.5037   77.0898   10.8748 C   0  0  0  0  0  0  0  0  0  0  0  0
   12.9635   77.4016   12.1370 C   0  0  0  0  0  0  0  0  0  0  0  0
   12.9104   76.4350   13.1352 C   0  0  0  0  0  0  0  0  0  0  0  0
   13.3952   75.1373   12.8822 C   0  0  0  0  0  0  0  0  0  0  0  0
   13.9433   74.8338   11.6329 C   0  0  0  0  0  0  0  0  0  0  0  0
   13.9932   75.8042   10.6229 C   0  0  0  0  0  0  0  0  0  0  0  0
   13.6021   77.8015    8.5462 N   0  0  0  0  0  0  0  0  0  0  0  0
   13.5703   78.0816    9.8509 C   0  0  0  0  0  0  0  0  0  0  0  0
   13.5990   79.4014   10.1784 N   0  0  0  0  0  0  0  0  0  0  0  0
   13.6481   78.5314    7.8870 H   0  0  0  0  0  0  0  0  0  0  0  0
   13.6449   80.0835    9.4699 H   0  0  0  0  0  0  0  0  0  0  0  0
   13.5738   79.6747   11.1239 H   0  0  0  0  0  0  0  0  0  0  0  0
   10.4237   70.3654   12.4579 C   0  0  0  0  0  0  0  0  0  0  0  0
   11.5084   69.5331   11.7921 C   0  0  0  0  0  0  0  0  0  0  0  0
   12.8233   69.4487   12.3546 C   0  0  0  0  0  0  0  0  0  0  0  0
   13.8328   68.6709   11.7494 C   0  0  0  0  0  0  0  0  0  0  0  0
   13.5015   67.9962   10.5669 C   0  0  0  0  0  0  0  0  0  0  0  0
   14.2999   67.1864    9.7941 O   0  0  0  0  0  0  0  0  0  0  0  0
   13.4545   66.7528    8.6817 C   0  0  0  0  0  0  0  0  0  0  0  0
   12.1250   67.3190    8.8234 O   0  0  0  0  0  0  0  0  0  0  0  0
   12.2207   68.0727    9.9973 C   0  0  0  0  0  0  0  0  0  0  0  0
   11.2116   68.8424   10.6074 C   0  0  0  0  0  0  0  0  0  0  0  0
 19 20  2  0  0  0
 20 21  1  0  0  0
 20 13  1  0  0  0
 13 14  2  0  0  0
 13 18  1  0  0  0
 14 15  1  0  0  0
 15 16  2  0  0  0
 16  1  1  0  0  0
 16 17  1  0  0  0
  1  2  1  0  0  0
  1 12  1  0  0  0
  2  3  1  0  0  0
  2  7  1  0  0  0
  3  4  2  0  0  0
  3  5  1  0  0  0
  5 25  1  0  0  0
  5  6  1  0  0  0
 25 26  1  0  0  0
 26 27  2  0  0  0
 26 34  1  0  0  0
 27 28  1  0  0  0
 28 29  2  0  0  0
 29 30  1  0  0  0
 29 33  1  0  0  0
 30 31  1  0  0  0
 31 32  1  0  0  0
 32 33  1  0  0  0
 33 34  2  0  0  0
  6  7  1  0  0  0
  7  8  1  0  0  0
  8  9  1  0  0  0
  8 12  1  0  0  0
  9 10  1  0  0  0
 10 11  1  0  0  0
 11 12  1  0  0  0
 17 18  2  0  0  0
 19 22  1  0  0  0
 21 23  1  0  0  0
 21 24  1  0  0  0
M  END
> <minimizedAffinity>
-8.18522

$$$$
1YP9_UIZ_A_2222


 34 39  0  0  0  0  0  0  0  0999 V2000
   12.3316   67.3250   12.9640 C   0  0  0  0  0  0  0  0  0  0  0  0
   13.5732   67.6530   13.8049 C   0  0  0  0  0  0  0  0  0  0  0  0
   14.2382   69.0110   13.5180 C   0  0  0  0  0  0  0  0  0  0  0  0
   14.2722   69.6503   12.4417 O   0  0  0  0  0  0  0  0  0  0  0  0
   14.6557   69.5219   14.7311 N   0  0  0  0  0  0  0  0  0  0  0  0
   13.9758   68.8816   15.8475 C   0  0  0  0  0  0  0  0  0  0  0  0
   12.9259   67.9352   15.1906 C   0  0  0  0  0  0  0  0  0  0  0  0
   11.5854   68.6338   14.8166 C   0  0  0  0  0  0  0  0  0  0  0  0
   10.4477   67.9623   15.6214 C   0  0  0  0  0  0  0  0  0  0  0  0
    9.2651   68.1170   14.6850 C   0  0  0  0  0  0  0  0  0  0  0  0
    9.8719   67.8263   13.2822 C   0  0  0  0  0  0  0  0  0  0  0  0
   11.2783   68.3081   13.3689 N   0  0  0  0  0  0  0  0  0  0  0  0
   12.8227   66.9967    8.7003 C   0  0  0  0  0  0  0  0  0  0  0  0
   11.7311   67.7102    9.2309 C   0  0  0  0  0  0  0  0  0  0  0  0
   11.5708   67.8251   10.6073 C   0  0  0  0  0  0  0  0  0  0  0  0
   12.5016   67.2223   11.4752 C   0  0  0  0  0  0  0  0  0  0  0  0
   13.5918   66.5259   10.9464 C   0  0  0  0  0  0  0  0  0  0  0  0
   13.7533   66.4035    9.5595 C   0  0  0  0  0  0  0  0  0  0  0  0
   14.1584   67.0966    6.6644 N   0  0  0  0  0  0  0  0  0  0  0  0
   12.9974   66.8854    7.2884 C   0  0  0  0  0  0  0  0  0  0  0  0
   11.9479   66.5409    6.4948 N   0  0  0  0  0  0  0  0  0  0  0  0
   14.2153   67.0041    5.6859 H   0  0  0  0  0  0  0  0  0  0  0  0
   12.0713   66.4649    5.5210 H   0  0  0  0  0  0  0  0  0  0  0  0
   11.0649   66.3675    6.8941 H   0  0  0  0  0  0  0  0  0  0  0  0
   15.2160   70.9224   14.7497 C   0  0  0  0  0  0  0  0  0  0  0  0
   14.2425   72.0319   15.1156 C   0  0  0  0  0  0  0  0  0  0  0  0
   12.9162   72.0578   14.5746 C   0  0  0  0  0  0  0  0  0  0  0  0
   12.0031   73.0774   14.9165 C   0  0  0  0  0  0  0  0  0  0  0  0
   12.4512   74.0727   15.7951 C   0  0  0  0  0  0  0  0  0  0  0  0
   11.7621   75.1621   16.2734 O   0  0  0  0  0  0  0  0  0  0  0  0
   12.7031   75.8671   17.1438 C   0  0  0  0  0  0  0  0  0  0  0  0
   13.9689   75.1565   17.1790 O   0  0  0  0  0  0  0  0  0  0  0  0
   13.7493   74.0677   16.3296 C   0  0  0  0  0  0  0  0  0  0  0  0
   14.6566   73.0443   15.9942 C   0  0  0  0  0  0  0  0  0  0  0  0
 19 20  2  0  0  0
 20 21  1  0  0  0
 20 13  1  0  0  0
 13 14  2  0  0  0
 13 18  1  0  0  0
 14 15  1  0  0  0
 15 16  2  0  0  0
 16  1  1  0  0  0
 16 17  1  0  0  0
  1  2  1  0  0  0
  1 12  1  0  0  0
  2  3  1  0  0  0
  2  7  1  0  0  0
  3  4  2  0  0  0
  3  5  1  0  0  0
  5 25  1  0  0  0
  5  6  1  0  0  0
 25 26  1  0  0  0
 26 27  2  0  0  0
 26 34  1  0  0  0
 27 28  1  0  0  0
 28 29  2  0  0  0
 29 30  1  0  0  0
 29 33  1  0  0  0
 30 31  1  0  0  0
 31 32  1  0  0  0
 32 33  1  0  0  0
 33 34  2  0  0  0
  6  7  1  0  0  0
  7  8  1  0  0  0
  8  9  1  0  0  0
  8 12  1  0  0  0
  9 10  1  0  0  0
 10 11  1  0  0  0
 11 12  1  0  0  0
 17 18  2  0  0  0
 19 22  1  0  0  0
 21 23  1  0  0  0
 21 24  1  0  0  0
M  END
> <minimizedAffinity>
-7.84269

$$$$
