4ISH_1GE_H_301


 44 49  0  0  0  0  0  0  0  0999 V2000
    9.5584   34.2516   28.5627 C   0  0  0  0  0  0  0  0  0  0  0  0
    9.8984   33.8814   27.2419 C   0  0  0  0  0  0  0  0  0  0  0  0
    9.3202   34.5515   26.1558 C   0  0  0  0  0  0  0  0  0  0  0  0
    8.4008   35.6045   26.3633 C   0  0  0  0  0  0  0  0  0  0  0  0
    8.0529   35.9808   27.6882 C   0  0  0  0  0  0  0  0  0  0  0  0
    8.6550   35.3135   28.7679 C   0  0  0  0  0  0  0  0  0  0  0  0
    7.8049   36.1866   25.2702 N   0  0  0  0  0  0  0  0  0  0  0  0
    6.9940   37.3981   25.3807 C   0  0  0  0  0  0  0  0  0  0  0  0
    6.2025   37.5394   26.7107 C   0  0  0  0  0  0  0  0  0  0  0  0
    6.9687   37.0231   27.9125 C   0  0  0  0  0  0  0  0  0  0  0  0
    5.4257   38.7896   27.0543 C   0  0  0  0  0  0  0  0  0  0  0  0
    6.5139   39.3593   27.9180 C   0  0  0  0  0  0  0  0  0  0  0  0
    7.3886   38.3795   28.4308 C   0  0  0  0  0  0  0  0  0  0  0  0
    6.7082   40.7265   28.2128 C   0  0  0  0  0  0  0  0  0  0  0  0
    7.7884   41.0870   29.0434 C   0  0  0  0  0  0  0  0  0  0  0  0
    8.6623   40.1113   29.5681 C   0  0  0  0  0  0  0  0  0  0  0  0
    8.4689   38.7470   29.2623 C   0  0  0  0  0  0  0  0  0  0  0  0
    7.9281   35.7747   24.3845 H   0  0  0  0  0  0  0  0  0  0  0  0
    5.9802   37.5177   24.2481 C   0  0  0  0  0  0  0  0  0  0  0  0
    6.0286   38.6289   23.3537 C   0  0  0  0  0  0  0  0  0  0  0  0
    4.9895   38.7375   22.4217 C   0  0  0  0  0  0  0  0  0  0  0  0
    3.9720   37.7708   22.3142 C   0  0  0  0  0  0  0  0  0  0  0  0
    3.9329   36.6282   23.1461 C   0  0  0  0  0  0  0  0  0  0  0  0
    4.9559   36.5369   24.1289 C   0  0  0  0  0  0  0  0  0  0  0  0
    3.0050   37.9397   21.3449 O   0  0  0  0  0  0  0  0  0  0  0  0
    3.0247   38.6945   20.7900 H   0  0  0  0  0  0  0  0  0  0  0  0
    7.1316   39.6236   23.2724 C   0  0  0  0  0  0  0  0  0  0  0  0
    8.3147   39.4086   22.5425 C   0  0  0  0  0  0  0  0  0  0  0  0
    9.3603   40.3748   22.5361 C   0  0  0  0  0  0  0  0  0  0  0  0
    9.2472   41.5900   23.2625 C   0  0  0  0  0  0  0  0  0  0  0  0
    8.0536   41.8047   23.9837 C   0  0  0  0  0  0  0  0  0  0  0  0
    7.0178   40.8324   23.9786 C   0  0  0  0  0  0  0  0  0  0  0  0
   10.3092   42.6014   23.2588 C   0  0  0  0  0  0  0  0  0  0  0  0
   11.5651   42.0962   23.2635 O   0  0  0  0  0  0  0  0  0  0  0  0
   10.0498   43.7701   23.2356 O   0  0  0  0  0  0  0  0  0  0  0  0
   11.6970   41.1687   23.2822 H   0  0  0  0  0  0  0  0  0  0  0  0
    2.9290   35.7008   22.9042 O   0  0  0  0  0  0  0  0  0  0  0  0
    3.2548   34.3351   23.0967 C   0  0  0  0  0  0  0  0  0  0  0  0
   10.0914   33.5235   29.7231 C   0  0  0  0  0  0  0  0  0  0  0  0
   10.5459   32.2707   29.6293 N   0  0  0  0  0  0  0  0  0  0  0  0
   10.1093   34.1585   30.9268 N   0  0  0  0  0  0  0  0  0  0  0  0
   10.5352   31.8069   28.7610 H   0  0  0  0  0  0  0  0  0  0  0  0
    9.7755   35.0817   31.0013 H   0  0  0  0  0  0  0  0  0  0  0  0
   10.4560   33.6946   31.7229 H   0  0  0  0  0  0  0  0  0  0  0  0
 25 22  1  0  0  0
 22 21  2  0  0  0
 22 23  1  0  0  0
 37 23  1  0  0  0
 37 38  1  0  0  0
 21 20  1  0  0  0
 23 24  2  0  0  0
 35 33  2  0  0  0
 32 31  2  0  0  0
 32 27  1  0  0  0
 31 30  1  0  0  0
 20 27  1  0  0  0
 20 19  2  0  0  0
 27 28  2  0  0  0
 30 33  1  0  0  0
 30 29  2  0  0  0
 33 34  1  0  0  0
 24 19  1  0  0  0
 28 29  1  0  0  0
 19  8  1  0  0  0
  7  8  1  0  0  0
  7  4  1  0  0  0
  8  9  1  0  0  0
  3  4  2  0  0  0
  3  2  1  0  0  0
  4  5  1  0  0  0
  9 11  1  0  0  0
  9 10  1  0  0  0
 11 12  1  0  0  0
  2  1  2  0  0  0
  5 10  1  0  0  0
  5  6  2  0  0  0
 10 13  1  0  0  0
 12 14  2  0  0  0
 12 13  1  0  0  0
 14 15  1  0  0  0
 13 17  2  0  0  0
  1  6  1  0  0  0
  1 39  1  0  0  0
 15 16  2  0  0  0
 17 16  1  0  0  0
 40 39  2  0  0  0
 39 41  1  0  0  0
 40 42  1  0  0  0
 41 43  1  0  0  0
 41 44  1  0  0  0
  7 18  1  0  0  0
 34 36  1  0  0  0
 25 26  1  0  0  0
M  END
> <minimizedAffinity>
-12.31964

$$$$
