6CBG_EWG_B_204


 16 17  0  0  0  0  0  0  0  0999 V2000
  -35.0696  -13.1695    6.6151 C   0  0  0  0  0  0  0  0  0  0  0  0
  -36.3100  -12.5417    6.6299 C   0  0  0  0  0  0  0  0  0  0  0  0
  -37.4600  -13.2955    6.3876 C   0  0  0  0  0  0  0  0  0  0  0  0
  -37.4003  -14.6708    6.1367 C   0  0  0  0  0  0  0  0  0  0  0  0
  -36.1551  -15.2808    6.1247 C   0  0  0  0  0  0  0  0  0  0  0  0
  -35.0032  -14.5272    6.3440 C   0  0  0  0  0  0  0  0  0  0  0  0
  -33.8167  -12.3986    6.8153 C   0  0  0  0  0  0  0  0  0  0  0  0
  -32.5621  -12.9267    7.0444 C   0  0  0  0  0  0  0  0  0  0  0  0
  -33.6662  -11.0248    6.7088 C   0  0  0  0  0  0  0  0  0  0  0  0
  -31.7122  -11.9124    7.1080 N   0  0  0  0  0  0  0  0  0  0  0  0
  -32.3618  -10.7180    6.8951 N   0  0  0  0  0  0  0  0  0  0  0  0
  -30.7476  -12.0010    7.2836 H   0  0  0  0  0  0  0  0  0  0  0  0
  -38.7840  -12.6571    6.4297 C   0  0  0  0  0  0  0  0  0  0  0  0
  -39.7130  -13.0892    5.7334 O   0  0  0  0  0  0  0  0  0  0  0  0
  -38.9270  -11.6494    7.2829 O   0  0  0  0  0  0  0  0  0  0  0  0
  -38.1949  -11.3566    7.7890 H   0  0  0  0  0  0  0  0  0  0  0  0
 14 13  2  0  0  0
  4  5  2  0  0  0
  4  3  1  0  0  0
  5  6  1  0  0  0
  3 13  1  0  0  0
  3  2  2  0  0  0
  6  1  2  0  0  0
 13 15  1  0  0  0
  2  1  1  0  0  0
  1  7  1  0  0  0
  7  8  2  0  0  0
  7  9  1  0  0  0
  8 10  1  0  0  0
  9 11  2  0  0  0
 10 11  1  0  0  0
 10 12  1  0  0  0
 15 16  1  0  0  0
M  END
> <minimizedAffinity>
-8.52660

$$$$
6CBG_EWG_B_204


 16 17  0  0  0  0  0  0  0  0999 V2000
  -37.3994  -14.0362    6.0926 C   0  0  0  0  0  0  0  0  0  0  0  0
  -36.8523  -12.7805    6.3308 C   0  0  0  0  0  0  0  0  0  0  0  0
  -35.4812  -12.6665    6.5683 C   0  0  0  0  0  0  0  0  0  0  0  0
  -34.6378  -13.7830    6.5663 C   0  0  0  0  0  0  0  0  0  0  0  0
  -35.2000  -15.0280    6.3280 C   0  0  0  0  0  0  0  0  0  0  0  0
  -36.5720  -15.1480    6.1127 C   0  0  0  0  0  0  0  0  0  0  0  0
  -38.8593  -14.2111    5.8874 C   0  0  0  0  0  0  0  0  0  0  0  0
  -39.6778  -15.0941    6.5625 C   0  0  0  0  0  0  0  0  0  0  0  0
  -39.6734  -13.4548    5.0588 C   0  0  0  0  0  0  0  0  0  0  0  0
  -40.9140  -14.8974    6.1288 N   0  0  0  0  0  0  0  0  0  0  0  0
  -40.9493  -13.8811    5.2016 N   0  0  0  0  0  0  0  0  0  0  0  0
  -41.7001  -15.4085    6.4289 H   0  0  0  0  0  0  0  0  0  0  0  0
  -34.8776  -11.3443    6.7912 C   0  0  0  0  0  0  0  0  0  0  0  0
  -35.1680  -10.3888    6.0582 O   0  0  0  0  0  0  0  0  0  0  0  0
  -34.0660  -11.2341    7.8366 O   0  0  0  0  0  0  0  0  0  0  0  0
  -33.8752  -11.9856    8.3628 H   0  0  0  0  0  0  0  0  0  0  0  0
 14 13  2  0  0  0
  4  5  2  0  0  0
  4  3  1  0  0  0
  5  6  1  0  0  0
  3 13  1  0  0  0
  3  2  2  0  0  0
  6  1  2  0  0  0
 13 15  1  0  0  0
  2  1  1  0  0  0
  1  7  1  0  0  0
  7  8  2  0  0  0
  7  9  1  0  0  0
  8 10  1  0  0  0
  9 11  2  0  0  0
 10 11  1  0  0  0
 10 12  1  0  0  0
 15 16  1  0  0  0
M  END
> <minimizedAffinity>
-6.97936

$$$$
6CBG_EWG_B_204


 16 17  0  0  0  0  0  0  0  0999 V2000
  -38.5514  -14.6660    5.7892 C   0  0  0  0  0  0  0  0  0  0  0  0
  -38.9137  -14.7215    4.4482 C   0  0  0  0  0  0  0  0  0  0  0  0
  -40.1768  -15.2045    4.1012 C   0  0  0  0  0  0  0  0  0  0  0  0
  -41.0946  -15.6290    5.0684 C   0  0  0  0  0  0  0  0  0  0  0  0
  -40.7168  -15.5678    6.4012 C   0  0  0  0  0  0  0  0  0  0  0  0
  -39.4481  -15.1071    6.7497 C   0  0  0  0  0  0  0  0  0  0  0  0
  -37.2001  -14.2092    6.2011 C   0  0  0  0  0  0  0  0  0  0  0  0
  -36.0629  -14.9882    6.2735 C   0  0  0  0  0  0  0  0  0  0  0  0
  -36.8200  -12.9073    6.4874 C   0  0  0  0  0  0  0  0  0  0  0  0
  -35.0617  -14.1939    6.6225 N   0  0  0  0  0  0  0  0  0  0  0  0
  -35.4939  -12.8941    6.7548 N   0  0  0  0  0  0  0  0  0  0  0  0
  -34.1349  -14.4928    6.7674 H   0  0  0  0  0  0  0  0  0  0  0  0
  -40.5915  -15.2421    2.6909 C   0  0  0  0  0  0  0  0  0  0  0  0
  -41.1297  -16.2538    2.2204 O   0  0  0  0  0  0  0  0  0  0  0  0
  -40.4058  -14.1290    1.9908 O   0  0  0  0  0  0  0  0  0  0  0  0
  -39.9935  -13.3881    2.3894 H   0  0  0  0  0  0  0  0  0  0  0  0
 14 13  2  0  0  0
  4  5  2  0  0  0
  4  3  1  0  0  0
  5  6  1  0  0  0
  3 13  1  0  0  0
  3  2  2  0  0  0
  6  1  2  0  0  0
 13 15  1  0  0  0
  2  1  1  0  0  0
  1  7  1  0  0  0
  7  8  2  0  0  0
  7  9  1  0  0  0
  8 10  1  0  0  0
  9 11  2  0  0  0
 10 11  1  0  0  0
 10 12  1  0  0  0
 15 16  1  0  0  0
M  END
> <minimizedAffinity>
-6.43631

$$$$
6CBG_EWG_B_204


 16 17  0  0  0  0  0  0  0  0999 V2000
  -35.9588  -13.6301    6.3481 C   0  0  0  0  0  0  0  0  0  0  0  0
  -37.1462  -13.3181    5.6958 C   0  0  0  0  0  0  0  0  0  0  0  0
  -38.0685  -14.3329    5.4335 C   0  0  0  0  0  0  0  0  0  0  0  0
  -37.8345  -15.6583    5.8162 C   0  0  0  0  0  0  0  0  0  0  0  0
  -36.6447  -15.9522    6.4650 C   0  0  0  0  0  0  0  0  0  0  0  0
  -35.7118  -14.9455    6.7085 C   0  0  0  0  0  0  0  0  0  0  0  0
  -34.9266  -12.5934    6.6009 C   0  0  0  0  0  0  0  0  0  0  0  0
  -35.1324  -11.2288    6.6344 C   0  0  0  0  0  0  0  0  0  0  0  0
  -33.6020  -12.8132    6.9452 C   0  0  0  0  0  0  0  0  0  0  0  0
  -33.9763  -10.6626    6.9473 N   0  0  0  0  0  0  0  0  0  0  0  0
  -33.0068  -11.6168    7.1560 N   0  0  0  0  0  0  0  0  0  0  0  0
  -33.8306   -9.6917    7.0206 H   0  0  0  0  0  0  0  0  0  0  0  0
  -39.3441  -14.0189    4.7728 C   0  0  0  0  0  0  0  0  0  0  0  0
  -39.8068  -14.7747    3.9072 O   0  0  0  0  0  0  0  0  0  0  0  0
  -39.9760  -12.9300    5.1955 O   0  0  0  0  0  0  0  0  0  0  0  0
  -39.5864  -12.3878    5.8530 H   0  0  0  0  0  0  0  0  0  0  0  0
 14 13  2  0  0  0
  4  5  2  0  0  0
  4  3  1  0  0  0
  5  6  1  0  0  0
  3 13  1  0  0  0
  3  2  2  0  0  0
  6  1  2  0  0  0
 13 15  1  0  0  0
  2  1  1  0  0  0
  1  7  1  0  0  0
  7  8  2  0  0  0
  7  9  1  0  0  0
  8 10  1  0  0  0
  9 11  2  0  0  0
 10 11  1  0  0  0
 10 12  1  0  0  0
 15 16  1  0  0  0
M  END
> <minimizedAffinity>
-6.35133

$$$$
6CBG_EWG_B_204


 16 17  0  0  0  0  0  0  0  0999 V2000
  -35.5079  -12.5797    6.6484 C   0  0  0  0  0  0  0  0  0  0  0  0
  -35.8447  -13.8654    6.2405 C   0  0  0  0  0  0  0  0  0  0  0  0
  -37.1903  -14.2339    6.1848 C   0  0  0  0  0  0  0  0  0  0  0  0
  -38.2134  -13.3409    6.5219 C   0  0  0  0  0  0  0  0  0  0  0  0
  -37.8599  -12.0628    6.9276 C   0  0  0  0  0  0  0  0  0  0  0  0
  -36.5166  -11.6987    7.0058 C   0  0  0  0  0  0  0  0  0  0  0  0
  -34.0890  -12.1609    6.7729 C   0  0  0  0  0  0  0  0  0  0  0  0
  -33.0007  -12.9986    6.9120 C   0  0  0  0  0  0  0  0  0  0  0  0
  -33.5972  -10.8689    6.6716 C   0  0  0  0  0  0  0  0  0  0  0  0
  -31.9164  -12.2377    6.9298 N   0  0  0  0  0  0  0  0  0  0  0  0
  -32.2489  -10.9114    6.7738 N   0  0  0  0  0  0  0  0  0  0  0  0
  -30.9980  -12.5750    7.0396 H   0  0  0  0  0  0  0  0  0  0  0  0
  -37.5694  -15.5785    5.7260 C   0  0  0  0  0  0  0  0  0  0  0  0
  -36.9084  -16.5691    6.0673 O   0  0  0  0  0  0  0  0  0  0  0  0
  -38.6701  -15.6622    4.9878 O   0  0  0  0  0  0  0  0  0  0  0  0
  -39.1377  -14.8846    4.7539 H   0  0  0  0  0  0  0  0  0  0  0  0
 14 13  2  0  0  0
  4  5  2  0  0  0
  4  3  1  0  0  0
  5  6  1  0  0  0
  3 13  1  0  0  0
  3  2  2  0  0  0
  6  1  2  0  0  0
 13 15  1  0  0  0
  2  1  1  0  0  0
  1  7  1  0  0  0
  7  8  2  0  0  0
  7  9  1  0  0  0
  8 10  1  0  0  0
  9 11  2  0  0  0
 10 11  1  0  0  0
 10 12  1  0  0  0
 15 16  1  0  0  0
M  END
> <minimizedAffinity>
-6.30587

$$$$
6CBG_EWG_B_204


 16 17  0  0  0  0  0  0  0  0999 V2000
  -39.0746  -14.9399    5.3580 C   0  0  0  0  0  0  0  0  0  0  0  0
  -40.1201  -15.4382    6.1271 C   0  0  0  0  0  0  0  0  0  0  0  0
  -41.3423  -15.7236    5.5155 C   0  0  0  0  0  0  0  0  0  0  0  0
  -41.5435  -15.5289    4.1445 C   0  0  0  0  0  0  0  0  0  0  0  0
  -40.4905  -15.0304    3.3924 C   0  0  0  0  0  0  0  0  0  0  0  0
  -39.2760  -14.7232    4.0039 C   0  0  0  0  0  0  0  0  0  0  0  0
  -37.7750  -14.5731    5.9749 C   0  0  0  0  0  0  0  0  0  0  0  0
  -36.7441  -15.4388    6.2807 C   0  0  0  0  0  0  0  0  0  0  0  0
  -37.3280  -13.2923    6.2596 C   0  0  0  0  0  0  0  0  0  0  0  0
  -35.7458  -14.7110    6.7589 N   0  0  0  0  0  0  0  0  0  0  0  0
  -36.0704  -13.3736    6.7515 N   0  0  0  0  0  0  0  0  0  0  0  0
  -34.8887  -15.0769    7.0762 H   0  0  0  0  0  0  0  0  0  0  0  0
  -42.4509  -16.2808    6.3047 C   0  0  0  0  0  0  0  0  0  0  0  0
  -43.1232  -15.5515    7.0468 O   0  0  0  0  0  0  0  0  0  0  0  0
  -42.7103  -17.5714    6.1298 O   0  0  0  0  0  0  0  0  0  0  0  0
  -42.1734  -18.0839    5.5578 H   0  0  0  0  0  0  0  0  0  0  0  0
 14 13  2  0  0  0
  4  5  2  0  0  0
  4  3  1  0  0  0
  5  6  1  0  0  0
  3 13  1  0  0  0
  3  2  2  0  0  0
  6  1  2  0  0  0
 13 15  1  0  0  0
  2  1  1  0  0  0
  1  7  1  0  0  0
  7  8  2  0  0  0
  7  9  1  0  0  0
  8 10  1  0  0  0
  9 11  2  0  0  0
 10 11  1  0  0  0
 10 12  1  0  0  0
 15 16  1  0  0  0
M  END
> <minimizedAffinity>
-6.13312

$$$$
6CBG_EWG_B_204


 16 17  0  0  0  0  0  0  0  0999 V2000
  -35.4564  -12.8194    6.4423 C   0  0  0  0  0  0  0  0  0  0  0  0
  -34.1482  -13.2847    6.5111 C   0  0  0  0  0  0  0  0  0  0  0  0
  -33.0996  -12.3661    6.5885 C   0  0  0  0  0  0  0  0  0  0  0  0
  -33.3289  -10.9859    6.6062 C   0  0  0  0  0  0  0  0  0  0  0  0
  -34.6397  -10.5389    6.5360 C   0  0  0  0  0  0  0  0  0  0  0  0
  -35.6875  -11.4527    6.4360 C   0  0  0  0  0  0  0  0  0  0  0  0
  -36.5988  -13.7578    6.3060 C   0  0  0  0  0  0  0  0  0  0  0  0
  -36.5218  -15.1354    6.2635 C   0  0  0  0  0  0  0  0  0  0  0  0
  -37.9444  -13.4255    6.2983 C   0  0  0  0  0  0  0  0  0  0  0  0
  -37.7613  -15.5983    6.1963 N   0  0  0  0  0  0  0  0  0  0  0  0
  -38.6698  -14.5651    6.2249 N   0  0  0  0  0  0  0  0  0  0  0  0
  -37.9999  -16.5515    6.1343 H   0  0  0  0  0  0  0  0  0  0  0  0
  -31.7108  -12.8378    6.6938 C   0  0  0  0  0  0  0  0  0  0  0  0
  -31.2058  -13.0641    7.8021 O   0  0  0  0  0  0  0  0  0  0  0  0
  -31.0714  -13.0520    5.5497 O   0  0  0  0  0  0  0  0  0  0  0  0
  -31.4943  -12.8656    4.7346 H   0  0  0  0  0  0  0  0  0  0  0  0
 14 13  2  0  0  0
  4  5  2  0  0  0
  4  3  1  0  0  0
  5  6  1  0  0  0
  3 13  1  0  0  0
  3  2  2  0  0  0
  6  1  2  0  0  0
 13 15  1  0  0  0
  2  1  1  0  0  0
  1  7  1  0  0  0
  7  8  2  0  0  0
  7  9  1  0  0  0
  8 10  1  0  0  0
  9 11  2  0  0  0
 10 11  1  0  0  0
 10 12  1  0  0  0
 15 16  1  0  0  0
M  END
> <minimizedAffinity>
-6.02148

$$$$
6CBG_EWG_B_204


 16 17  0  0  0  0  0  0  0  0999 V2000
  -39.5283  -14.9241    5.2063 C   0  0  0  0  0  0  0  0  0  0  0  0
  -38.2251  -15.3073    5.5021 C   0  0  0  0  0  0  0  0  0  0  0  0
  -37.3597  -14.3855    6.0943 C   0  0  0  0  0  0  0  0  0  0  0  0
  -37.7702  -13.0847    6.4067 C   0  0  0  0  0  0  0  0  0  0  0  0
  -39.0731  -12.7188    6.1042 C   0  0  0  0  0  0  0  0  0  0  0  0
  -39.9329  -13.6296    5.4923 C   0  0  0  0  0  0  0  0  0  0  0  0
  -40.4669  -15.8539    4.5290 C   0  0  0  0  0  0  0  0  0  0  0  0
  -41.4989  -16.5493    5.1263 C   0  0  0  0  0  0  0  0  0  0  0  0
  -40.5375  -16.1107    3.1687 C   0  0  0  0  0  0  0  0  0  0  0  0
  -42.1299  -17.2168    4.1717 N   0  0  0  0  0  0  0  0  0  0  0  0
  -41.5655  -16.9606    2.9430 N   0  0  0  0  0  0  0  0  0  0  0  0
  -42.8979  -17.8145    4.3208 H   0  0  0  0  0  0  0  0  0  0  0  0
  -35.9870  -14.7800    6.4439 C   0  0  0  0  0  0  0  0  0  0  0  0
  -35.0308  -14.4157    5.7457 O   0  0  0  0  0  0  0  0  0  0  0  0
  -35.8413  -15.4866    7.5589 O   0  0  0  0  0  0  0  0  0  0  0  0
  -36.5948  -15.7399    8.0549 H   0  0  0  0  0  0  0  0  0  0  0  0
 14 13  2  0  0  0
  4  5  2  0  0  0
  4  3  1  0  0  0
  5  6  1  0  0  0
  3 13  1  0  0  0
  3  2  2  0  0  0
  6  1  2  0  0  0
 13 15  1  0  0  0
  2  1  1  0  0  0
  1  7  1  0  0  0
  7  8  2  0  0  0
  7  9  1  0  0  0
  8 10  1  0  0  0
  9 11  2  0  0  0
 10 11  1  0  0  0
 10 12  1  0  0  0
 15 16  1  0  0  0
M  END
> <minimizedAffinity>
-5.75166

$$$$
6CBG_EWG_B_204


 16 17  0  0  0  0  0  0  0  0999 V2000
  -39.9626  -14.4374    4.8350 C   0  0  0  0  0  0  0  0  0  0  0  0
  -39.5842  -13.3305    5.5863 C   0  0  0  0  0  0  0  0  0  0  0  0
  -38.3568  -13.3436    6.2516 C   0  0  0  0  0  0  0  0  0  0  0  0
  -37.4903  -14.4399    6.1777 C   0  0  0  0  0  0  0  0  0  0  0  0
  -37.8836  -15.5359    5.4248 C   0  0  0  0  0  0  0  0  0  0  0  0
  -39.1183  -15.5351    4.7776 C   0  0  0  0  0  0  0  0  0  0  0  0
  -41.2808  -14.4886    4.1541 C   0  0  0  0  0  0  0  0  0  0  0  0
  -42.5059  -14.6770    4.7618 C   0  0  0  0  0  0  0  0  0  0  0  0
  -41.5255  -14.2581    2.8094 C   0  0  0  0  0  0  0  0  0  0  0  0
  -43.4315  -14.5990    3.8173 N   0  0  0  0  0  0  0  0  0  0  0  0
  -42.8592  -14.3309    2.5949 N   0  0  0  0  0  0  0  0  0  0  0  0
  -44.3971  -14.7168    3.9692 H   0  0  0  0  0  0  0  0  0  0  0  0
  -37.9237  -12.1709    7.0258 C   0  0  0  0  0  0  0  0  0  0  0  0
  -36.7237  -11.8713    7.0952 O   0  0  0  0  0  0  0  0  0  0  0  0
  -38.8847  -11.4433    7.5832 O   0  0  0  0  0  0  0  0  0  0  0  0
  -39.7796  -11.7097    7.5043 H   0  0  0  0  0  0  0  0  0  0  0  0
 14 13  2  0  0  0
  4  5  2  0  0  0
  4  3  1  0  0  0
  5  6  1  0  0  0
  3 13  1  0  0  0
  3  2  2  0  0  0
  6  1  2  0  0  0
 13 15  1  0  0  0
  2  1  1  0  0  0
  1  7  1  0  0  0
  7  8  2  0  0  0
  7  9  1  0  0  0
  8 10  1  0  0  0
  9 11  2  0  0  0
 10 11  1  0  0  0
 10 12  1  0  0  0
 15 16  1  0  0  0
M  END
> <minimizedAffinity>
-5.68563

$$$$
6CBG_EWG_B_204


 16 17  0  0  0  0  0  0  0  0999 V2000
  -40.7634  -15.4826    5.2981 C   0  0  0  0  0  0  0  0  0  0  0  0
  -39.6498  -15.3950    6.1257 C   0  0  0  0  0  0  0  0  0  0  0  0
  -38.4745  -14.8261    5.6315 C   0  0  0  0  0  0  0  0  0  0  0  0
  -38.3872  -14.3330    4.3249 C   0  0  0  0  0  0  0  0  0  0  0  0
  -39.5070  -14.4290    3.5126 C   0  0  0  0  0  0  0  0  0  0  0  0
  -40.6751  -15.0168    3.9956 C   0  0  0  0  0  0  0  0  0  0  0  0
  -42.0172  -16.1270    5.7639 C   0  0  0  0  0  0  0  0  0  0  0  0
  -42.4746  -17.3779    5.4012 C   0  0  0  0  0  0  0  0  0  0  0  0
  -42.8952  -15.6335    6.7162 C   0  0  0  0  0  0  0  0  0  0  0  0
  -43.5912  -17.6017    6.0781 N   0  0  0  0  0  0  0  0  0  0  0  0
  -43.8769  -16.5437    6.9106 N   0  0  0  0  0  0  0  0  0  0  0  0
  -44.1415  -18.4140    5.9967 H   0  0  0  0  0  0  0  0  0  0  0  0
  -37.2951  -14.6954    6.5000 C   0  0  0  0  0  0  0  0  0  0  0  0
  -36.7856  -13.5852    6.7058 O   0  0  0  0  0  0  0  0  0  0  0  0
  -36.8601  -15.8096    7.0770 O   0  0  0  0  0  0  0  0  0  0  0  0
  -37.2775  -16.6275    6.8906 H   0  0  0  0  0  0  0  0  0  0  0  0
 14 13  2  0  0  0
  4  5  2  0  0  0
  4  3  1  0  0  0
  5  6  1  0  0  0
  3 13  1  0  0  0
  3  2  2  0  0  0
  6  1  2  0  0  0
 13 15  1  0  0  0
  2  1  1  0  0  0
  1  7  1  0  0  0
  7  8  2  0  0  0
  7  9  1  0  0  0
  8 10  1  0  0  0
  9 11  2  0  0  0
 10 11  1  0  0  0
 10 12  1  0  0  0
 15 16  1  0  0  0
M  END
> <minimizedAffinity>
-5.56213

$$$$
