5C8N_4YX_A_1102


 34 37  0  0  0  0  0  0  0  0999 V2000
  -54.6152    1.0953  -24.3254 C   0  0  0  0  0  0  0  0  0  0  0  0
  -55.7425    1.2257  -25.1420 C   0  0  0  0  0  0  0  0  0  0  0  0
  -55.8457    0.3686  -26.2291 C   0  0  0  0  0  0  0  0  0  0  0  0
  -54.8808   -0.5169  -26.4457 N   0  0  0  0  0  0  0  0  0  0  0  0
  -53.8112   -0.5979  -25.6674 C   0  0  0  0  0  0  0  0  0  0  0  0
  -53.6807    0.1928  -24.6197 N   0  0  0  0  0  0  0  0  0  0  0  0
  -52.8267   -1.5429  -25.9137 N   0  0  0  0  0  0  0  0  0  0  0  0
  -52.7338   -2.1271  -27.2702 C   0  0  0  0  0  0  0  0  0  0  0  0
  -52.1186   -3.5183  -27.1049 C   0  0  0  0  0  0  0  0  0  0  0  0
  -50.7558   -3.4476  -26.3783 C   0  0  0  0  0  0  0  0  0  0  0  0
  -50.8170   -2.6134  -25.0759 C   0  0  0  0  0  0  0  0  0  0  0  0
  -51.5206   -1.2543  -25.2999 C   0  0  0  0  0  0  0  0  0  0  0  0
  -49.8215   -2.8672  -27.3144 O   0  0  0  0  0  0  0  0  0  0  0  0
  -48.4774   -2.6371  -26.8657 C   0  0  0  0  0  0  0  0  0  0  0  0
  -50.3373   -4.8747  -25.9933 C   0  0  0  0  0  0  0  0  0  0  0  0
  -50.4622   -5.0764  -24.4733 C   0  0  0  0  0  0  0  0  0  0  0  0
  -51.4433   -6.1212  -24.1613 N   0  0  0  0  0  0  0  0  0  0  0  0
  -51.1433   -7.0038  -24.5752 H   0  0  0  0  0  0  0  0  0  0  0  0
  -52.3524   -5.8586  -24.5422 H   0  0  0  0  0  0  0  0  0  0  0  0
  -54.4823    1.9461  -23.2509 N   0  0  0  0  0  0  0  0  0  0  0  0
  -54.9377    2.8165  -23.3153 H   0  0  0  0  0  0  0  0  0  0  0  0
  -52.4930    1.3936  -19.6659 C   0  0  0  0  0  0  0  0  0  0  0  0
  -53.5358    2.2949  -19.8389 C   0  0  0  0  0  0  0  0  0  0  0  0
  -53.7716    1.6986  -22.0891 C   0  0  0  0  0  0  0  0  0  0  0  0
  -52.7258    0.7866  -22.0263 C   0  0  0  0  0  0  0  0  0  0  0  0
  -52.0801    0.6330  -20.7887 C   0  0  0  0  0  0  0  0  0  0  0  0
  -51.7066    1.0385  -18.6131 N   0  0  0  0  0  0  0  0  0  0  0  0
  -49.8691   -0.4768  -18.0368 C   0  0  0  0  0  0  0  0  0  0  0  0
  -50.8691    0.1174  -18.9971 C   0  0  0  0  0  0  0  0  0  0  0  0
  -54.1258    2.4166  -21.0220 N   0  0  0  0  0  0  0  0  0  0  0  0
  -51.0567   -0.1589  -20.3385 N   0  0  0  0  0  0  0  0  0  0  0  0
  -50.3939   -1.0742  -21.2609 C   0  0  0  0  0  0  0  0  0  0  0  0
  -48.9721   -0.6473  -21.5999 C   0  0  0  0  0  0  0  0  0  0  0  0
  -50.6206   -2.5585  -21.0201 C   0  0  0  0  0  0  0  0  0  0  0  0
 16 17  1  0  0  0
 16 15  1  0  0  0
  9  8  1  0  0  0
  9 10  1  0  0  0
  8  7  1  0  0  0
 13 10  1  0  0  0
 13 14  1  0  0  0
 10 15  1  0  0  0
 10 11  1  0  0  0
  4  3  2  0  0  0
  4  5  1  0  0  0
  3  2  1  0  0  0
  7  5  1  0  0  0
  7 12  1  0  0  0
  5  6  2  0  0  0
 12 11  1  0  0  0
  2  1  2  0  0  0
  6  1  1  0  0  0
  1 20  1  0  0  0
 20 24  1  0  0  0
 24 25  2  0  0  0
 24 30  1  0  0  0
 25 26  1  0  0  0
 33 32  1  0  0  0
 32 34  1  0  0  0
 32 31  1  0  0  0
 30 23  2  0  0  0
 26 31  1  0  0  0
 26 22  2  0  0  0
 31 29  1  0  0  0
 23 22  1  0  0  0
 22 27  1  0  0  0
 29 27  2  0  0  0
 29 28  1  0  0  0
 20 21  1  0  0  0
 17 18  1  0  0  0
 17 19  1  0  0  0
M  END
> <minimizedAffinity>
-8.24692

$$$$
5C8N_4YX_A_1102


 34 37  0  0  0  0  0  0  0  0999 V2000
  -50.3424   -5.2794  -21.1473 C   0  0  0  0  0  0  0  0  0  0  0  0
  -49.3334   -5.5962  -20.2328 C   0  0  0  0  0  0  0  0  0  0  0  0
  -48.9432   -4.6040  -19.3439 C   0  0  0  0  0  0  0  0  0  0  0  0
  -49.5306   -3.4153  -19.4061 N   0  0  0  0  0  0  0  0  0  0  0  0
  -50.4665   -3.1380  -20.3026 C   0  0  0  0  0  0  0  0  0  0  0  0
  -50.8707   -4.0567  -21.1585 N   0  0  0  0  0  0  0  0  0  0  0  0
  -51.0696   -1.8897  -20.3330 N   0  0  0  0  0  0  0  0  0  0  0  0
  -50.3058   -0.7512  -20.8901 C   0  0  0  0  0  0  0  0  0  0  0  0
  -50.8464    0.5099  -20.2128 C   0  0  0  0  0  0  0  0  0  0  0  0
  -52.3734    0.6453  -20.4136 C   0  0  0  0  0  0  0  0  0  0  0  0
  -53.1388   -0.6526  -20.0591 C   0  0  0  0  0  0  0  0  0  0  0  0
  -52.4911   -1.8953  -20.7139 C   0  0  0  0  0  0  0  0  0  0  0  0
  -52.5754    0.9961  -21.8001 O   0  0  0  0  0  0  0  0  0  0  0  0
  -53.8722    1.4729  -22.1896 C   0  0  0  0  0  0  0  0  0  0  0  0
  -52.8882    1.7536  -19.4828 C   0  0  0  0  0  0  0  0  0  0  0  0
  -52.2410    1.6277  -18.0930 C   0  0  0  0  0  0  0  0  0  0  0  0
  -53.2606    1.6100  -17.0386 N   0  0  0  0  0  0  0  0  0  0  0  0
  -53.8774    0.8092  -17.1755 H   0  0  0  0  0  0  0  0  0  0  0  0
  -53.8066    2.4706  -17.0792 H   0  0  0  0  0  0  0  0  0  0  0  0
  -50.7342   -6.2419  -22.0506 N   0  0  0  0  0  0  0  0  0  0  0  0
  -51.4214   -6.8794  -21.7493 H   0  0  0  0  0  0  0  0  0  0  0  0
  -49.2470   -6.9614  -25.8433 C   0  0  0  0  0  0  0  0  0  0  0  0
  -49.3196   -7.9267  -24.8469 C   0  0  0  0  0  0  0  0  0  0  0  0
  -50.2577   -6.4020  -23.3403 C   0  0  0  0  0  0  0  0  0  0  0  0
  -50.2078   -5.3613  -24.2588 C   0  0  0  0  0  0  0  0  0  0  0  0
  -49.6949   -5.6526  -25.5333 C   0  0  0  0  0  0  0  0  0  0  0  0
  -48.8145   -6.9564  -27.1339 N   0  0  0  0  0  0  0  0  0  0  0  0
  -48.5917   -5.4580  -29.0601 C   0  0  0  0  0  0  0  0  0  0  0  0
  -48.9799   -5.7654  -27.6352 C   0  0  0  0  0  0  0  0  0  0  0  0
  -49.8098   -7.6194  -23.6520 N   0  0  0  0  0  0  0  0  0  0  0  0
  -49.5132   -4.9224  -26.6783 N   0  0  0  0  0  0  0  0  0  0  0  0
  -49.8749   -3.5094  -26.6972 C   0  0  0  0  0  0  0  0  0  0  0  0
  -48.6649   -2.5892  -26.7869 C   0  0  0  0  0  0  0  0  0  0  0  0
  -51.0820   -3.1316  -27.5412 C   0  0  0  0  0  0  0  0  0  0  0  0
 16 17  1  0  0  0
 16 15  1  0  0  0
  9  8  1  0  0  0
  9 10  1  0  0  0
  8  7  1  0  0  0
 13 10  1  0  0  0
 13 14  1  0  0  0
 10 15  1  0  0  0
 10 11  1  0  0  0
  4  3  2  0  0  0
  4  5  1  0  0  0
  3  2  1  0  0  0
  7  5  1  0  0  0
  7 12  1  0  0  0
  5  6  2  0  0  0
 12 11  1  0  0  0
  2  1  2  0  0  0
  6  1  1  0  0  0
  1 20  1  0  0  0
 20 24  1  0  0  0
 24 25  2  0  0  0
 24 30  1  0  0  0
 25 26  1  0  0  0
 33 32  1  0  0  0
 32 34  1  0  0  0
 32 31  1  0  0  0
 30 23  2  0  0  0
 26 31  1  0  0  0
 26 22  2  0  0  0
 31 29  1  0  0  0
 23 22  1  0  0  0
 22 27  1  0  0  0
 29 27  2  0  0  0
 29 28  1  0  0  0
 20 21  1  0  0  0
 17 18  1  0  0  0
 17 19  1  0  0  0
M  END
> <minimizedAffinity>
-7.53008

$$$$
5C8N_4YX_A_1102


 34 37  0  0  0  0  0  0  0  0999 V2000
  -50.4043   -6.4720  -24.1105 C   0  0  0  0  0  0  0  0  0  0  0  0
  -49.8455   -7.4928  -23.3358 C   0  0  0  0  0  0  0  0  0  0  0  0
  -48.7010   -8.1096  -23.8223 C   0  0  0  0  0  0  0  0  0  0  0  0
  -48.2009   -7.7142  -24.9866 N   0  0  0  0  0  0  0  0  0  0  0  0
  -48.7695   -6.7604  -25.7101 C   0  0  0  0  0  0  0  0  0  0  0  0
  -49.8529   -6.1443  -25.2780 N   0  0  0  0  0  0  0  0  0  0  0  0
  -48.2147   -6.3617  -26.9168 N   0  0  0  0  0  0  0  0  0  0  0  0
  -47.3505   -5.1605  -26.9327 C   0  0  0  0  0  0  0  0  0  0  0  0
  -47.4496   -4.5703  -28.3410 C   0  0  0  0  0  0  0  0  0  0  0  0
  -47.0628   -5.6123  -29.4156 C   0  0  0  0  0  0  0  0  0  0  0  0
  -47.7996   -6.9610  -29.2310 C   0  0  0  0  0  0  0  0  0  0  0  0
  -47.7249   -7.4578  -27.7681 C   0  0  0  0  0  0  0  0  0  0  0  0
  -45.6332   -5.7924  -29.3166 O   0  0  0  0  0  0  0  0  0  0  0  0
  -45.0153   -6.7498  -30.1898 C   0  0  0  0  0  0  0  0  0  0  0  0
  -47.4554   -5.0566  -30.7930 C   0  0  0  0  0  0  0  0  0  0  0  0
  -48.7553   -5.7161  -31.2845 C   0  0  0  0  0  0  0  0  0  0  0  0
  -49.8936   -4.8016  -31.1441 N   0  0  0  0  0  0  0  0  0  0  0  0
  -49.7295   -3.9659  -31.7053 H   0  0  0  0  0  0  0  0  0  0  0  0
  -49.9991   -4.5380  -30.1644 H   0  0  0  0  0  0  0  0  0  0  0  0
  -51.5497   -5.8570  -23.6569 N   0  0  0  0  0  0  0  0  0  0  0  0
  -52.3888   -6.3651  -23.7406 H   0  0  0  0  0  0  0  0  0  0  0  0
  -51.8034   -2.1967  -21.7459 C   0  0  0  0  0  0  0  0  0  0  0  0
  -51.6337   -3.4044  -21.0807 C   0  0  0  0  0  0  0  0  0  0  0  0
  -51.6382   -4.5952  -23.0948 C   0  0  0  0  0  0  0  0  0  0  0  0
  -51.8306   -3.4462  -23.8512 C   0  0  0  0  0  0  0  0  0  0  0  0
  -51.9109   -2.2268  -23.1591 C   0  0  0  0  0  0  0  0  0  0  0  0
  -51.9078   -0.8985  -21.3500 N   0  0  0  0  0  0  0  0  0  0  0  0
  -52.1859    1.3551  -22.2714 C   0  0  0  0  0  0  0  0  0  0  0  0
  -52.0494   -0.1416  -22.4009 C   0  0  0  0  0  0  0  0  0  0  0  0
  -51.5615   -4.5404  -21.7641 N   0  0  0  0  0  0  0  0  0  0  0  0
  -52.0666   -0.9207  -23.5426 N   0  0  0  0  0  0  0  0  0  0  0  0
  -52.2139   -0.5973  -24.9574 C   0  0  0  0  0  0  0  0  0  0  0  0
  -50.9009   -0.6810  -25.7241 C   0  0  0  0  0  0  0  0  0  0  0  0
  -53.4460   -1.1538  -25.6534 C   0  0  0  0  0  0  0  0  0  0  0  0
 16 17  1  0  0  0
 16 15  1  0  0  0
  9  8  1  0  0  0
  9 10  1  0  0  0
  8  7  1  0  0  0
 13 10  1  0  0  0
 13 14  1  0  0  0
 10 15  1  0  0  0
 10 11  1  0  0  0
  4  3  2  0  0  0
  4  5  1  0  0  0
  3  2  1  0  0  0
  7  5  1  0  0  0
  7 12  1  0  0  0
  5  6  2  0  0  0
 12 11  1  0  0  0
  2  1  2  0  0  0
  6  1  1  0  0  0
  1 20  1  0  0  0
 20 24  1  0  0  0
 24 25  2  0  0  0
 24 30  1  0  0  0
 25 26  1  0  0  0
 33 32  1  0  0  0
 32 34  1  0  0  0
 32 31  1  0  0  0
 30 23  2  0  0  0
 26 31  1  0  0  0
 26 22  2  0  0  0
 31 29  1  0  0  0
 23 22  1  0  0  0
 22 27  1  0  0  0
 29 27  2  0  0  0
 29 28  1  0  0  0
 20 21  1  0  0  0
 17 18  1  0  0  0
 17 19  1  0  0  0
M  END
> <minimizedAffinity>
-7.22651

$$$$
5C8N_4YX_A_1102


 34 37  0  0  0  0  0  0  0  0999 V2000
  -51.5290   -3.8368  -26.8996 C   0  0  0  0  0  0  0  0  0  0  0  0
  -52.1178   -3.2383  -28.0175 C   0  0  0  0  0  0  0  0  0  0  0  0
  -52.6830   -1.9822  -27.8455 C   0  0  0  0  0  0  0  0  0  0  0  0
  -52.6467   -1.4179  -26.6445 N   0  0  0  0  0  0  0  0  0  0  0  0
  -52.1037   -2.0230  -25.5979 C   0  0  0  0  0  0  0  0  0  0  0  0
  -51.5487   -3.2131  -25.7227 N   0  0  0  0  0  0  0  0  0  0  0  0
  -52.0708   -1.4008  -24.3591 N   0  0  0  0  0  0  0  0  0  0  0  0
  -51.3977   -2.0952  -23.2390 C   0  0  0  0  0  0  0  0  0  0  0  0
  -52.0629   -1.5972  -21.9541 C   0  0  0  0  0  0  0  0  0  0  0  0
  -51.9923   -0.0566  -21.8452 C   0  0  0  0  0  0  0  0  0  0  0  0
  -52.4710    0.6549  -23.1339 C   0  0  0  0  0  0  0  0  0  0  0  0
  -51.8179    0.0486  -24.3980 C   0  0  0  0  0  0  0  0  0  0  0  0
  -50.6148    0.2718  -21.5609 O   0  0  0  0  0  0  0  0  0  0  0  0
  -50.0689   -0.1550  -20.3037 C   0  0  0  0  0  0  0  0  0  0  0  0
  -52.9143    0.3911  -20.7009 C   0  0  0  0  0  0  0  0  0  0  0  0
  -53.9463    1.4100  -21.2139 C   0  0  0  0  0  0  0  0  0  0  0  0
  -53.9383    2.6247  -20.3917 N   0  0  0  0  0  0  0  0  0  0  0  0
  -53.0158    3.0580  -20.4343 H   0  0  0  0  0  0  0  0  0  0  0  0
  -54.1558    2.3825  -19.4251 H   0  0  0  0  0  0  0  0  0  0  0  0
  -50.9771   -5.0903  -27.0416 N   0  0  0  0  0  0  0  0  0  0  0  0
  -51.5713   -5.8015  -27.3738 H   0  0  0  0  0  0  0  0  0  0  0  0
  -47.0610   -6.2800  -26.4389 C   0  0  0  0  0  0  0  0  0  0  0  0
  -47.7652   -6.5099  -27.6140 C   0  0  0  0  0  0  0  0  0  0  0  0
  -49.6696   -5.4494  -26.7634 C   0  0  0  0  0  0  0  0  0  0  0  0
  -49.0616   -5.1905  -25.5417 C   0  0  0  0  0  0  0  0  0  0  0  0
  -47.7317   -5.6130  -25.3829 C   0  0  0  0  0  0  0  0  0  0  0  0
  -45.7989   -6.5629  -26.0147 N   0  0  0  0  0  0  0  0  0  0  0  0
  -44.3351   -6.2728  -24.0710 C   0  0  0  0  0  0  0  0  0  0  0  0
  -45.6434   -6.1084  -24.8038 C   0  0  0  0  0  0  0  0  0  0  0  0
  -49.0217   -6.0978  -27.7328 N   0  0  0  0  0  0  0  0  0  0  0  0
  -46.8162   -5.5210  -24.3678 N   0  0  0  0  0  0  0  0  0  0  0  0
  -47.1940   -4.8820  -23.1120 C   0  0  0  0  0  0  0  0  0  0  0  0
  -47.4788   -5.8827  -22.0002 C   0  0  0  0  0  0  0  0  0  0  0  0
  -46.4110   -3.6374  -22.7243 C   0  0  0  0  0  0  0  0  0  0  0  0
 16 17  1  0  0  0
 16 15  1  0  0  0
  9  8  1  0  0  0
  9 10  1  0  0  0
  8  7  1  0  0  0
 13 10  1  0  0  0
 13 14  1  0  0  0
 10 15  1  0  0  0
 10 11  1  0  0  0
  4  3  2  0  0  0
  4  5  1  0  0  0
  3  2  1  0  0  0
  7  5  1  0  0  0
  7 12  1  0  0  0
  5  6  2  0  0  0
 12 11  1  0  0  0
  2  1  2  0  0  0
  6  1  1  0  0  0
  1 20  1  0  0  0
 20 24  1  0  0  0
 24 25  2  0  0  0
 24 30  1  0  0  0
 25 26  1  0  0  0
 33 32  1  0  0  0
 32 34  1  0  0  0
 32 31  1  0  0  0
 30 23  2  0  0  0
 26 31  1  0  0  0
 26 22  2  0  0  0
 31 29  1  0  0  0
 23 22  1  0  0  0
 22 27  1  0  0  0
 29 27  2  0  0  0
 29 28  1  0  0  0
 20 21  1  0  0  0
 17 18  1  0  0  0
 17 19  1  0  0  0
M  END
> <minimizedAffinity>
-7.19527

$$$$
5C8N_4YX_A_1102


 34 37  0  0  0  0  0  0  0  0999 V2000
  -51.5214   -3.8227  -26.6391 C   0  0  0  0  0  0  0  0  0  0  0  0
  -52.1441   -3.1906  -27.7195 C   0  0  0  0  0  0  0  0  0  0  0  0
  -52.6871   -1.9327  -27.4964 C   0  0  0  0  0  0  0  0  0  0  0  0
  -52.5992   -1.3983  -26.2845 N   0  0  0  0  0  0  0  0  0  0  0  0
  -52.0249   -2.0348  -25.2738 C   0  0  0  0  0  0  0  0  0  0  0  0
  -51.4895   -3.2277  -25.4478 N   0  0  0  0  0  0  0  0  0  0  0  0
  -51.9381   -1.4432  -24.0226 N   0  0  0  0  0  0  0  0  0  0  0  0
  -51.6560   -2.3052  -22.8533 C   0  0  0  0  0  0  0  0  0  0  0  0
  -52.2709   -1.6074  -21.6383 C   0  0  0  0  0  0  0  0  0  0  0  0
  -51.7251   -0.1695  -21.4800 C   0  0  0  0  0  0  0  0  0  0  0  0
  -51.7997    0.6447  -22.7944 C   0  0  0  0  0  0  0  0  0  0  0  0
  -51.2330   -0.1517  -23.9932 C   0  0  0  0  0  0  0  0  0  0  0  0
  -50.3574   -0.2967  -21.0336 O   0  0  0  0  0  0  0  0  0  0  0  0
  -50.1183   -0.3889  -19.6212 C   0  0  0  0  0  0  0  0  0  0  0  0
  -52.5815    0.5616  -20.4350 C   0  0  0  0  0  0  0  0  0  0  0  0
  -53.7314    1.3184  -21.1213 C   0  0  0  0  0  0  0  0  0  0  0  0
  -54.0324    2.5685  -20.4153 N   0  0  0  0  0  0  0  0  0  0  0  0
  -53.2082    3.1694  -20.4216 H   0  0  0  0  0  0  0  0  0  0  0  0
  -54.2940    2.3602  -19.4517 H   0  0  0  0  0  0  0  0  0  0  0  0
  -50.9905   -5.0786  -26.8317 N   0  0  0  0  0  0  0  0  0  0  0  0
  -51.6172   -5.8366  -26.7877 H   0  0  0  0  0  0  0  0  0  0  0  0
  -46.9863   -5.9947  -27.3229 C   0  0  0  0  0  0  0  0  0  0  0  0
  -47.6204   -5.9439  -26.0880 C   0  0  0  0  0  0  0  0  0  0  0  0
  -49.6629   -5.3808  -27.0809 C   0  0  0  0  0  0  0  0  0  0  0  0
  -49.1187   -5.3833  -28.3588 C   0  0  0  0  0  0  0  0  0  0  0  0
  -47.7555   -5.6997  -28.4766 C   0  0  0  0  0  0  0  0  0  0  0  0
  -45.7168   -6.2689  -27.7304 N   0  0  0  0  0  0  0  0  0  0  0  0
  -44.3686   -6.4424  -29.7693 C   0  0  0  0  0  0  0  0  0  0  0  0
  -45.6574   -6.1844  -29.0290 C   0  0  0  0  0  0  0  0  0  0  0  0
  -48.9109   -5.6415  -26.0103 N   0  0  0  0  0  0  0  0  0  0  0  0
  -46.8931   -5.8252  -29.5338 N   0  0  0  0  0  0  0  0  0  0  0  0
  -47.3735   -5.5798  -30.8891 C   0  0  0  0  0  0  0  0  0  0  0  0
  -46.8102   -4.3014  -31.4950 C   0  0  0  0  0  0  0  0  0  0  0  0
  -47.4562   -6.7897  -31.8066 C   0  0  0  0  0  0  0  0  0  0  0  0
 16 17  1  0  0  0
 16 15  1  0  0  0
  9  8  1  0  0  0
  9 10  1  0  0  0
  8  7  1  0  0  0
 13 10  1  0  0  0
 13 14  1  0  0  0
 10 15  1  0  0  0
 10 11  1  0  0  0
  4  3  2  0  0  0
  4  5  1  0  0  0
  3  2  1  0  0  0
  7  5  1  0  0  0
  7 12  1  0  0  0
  5  6  2  0  0  0
 12 11  1  0  0  0
  2  1  2  0  0  0
  6  1  1  0  0  0
  1 20  1  0  0  0
 20 24  1  0  0  0
 24 25  2  0  0  0
 24 30  1  0  0  0
 25 26  1  0  0  0
 33 32  1  0  0  0
 32 34  1  0  0  0
 32 31  1  0  0  0
 30 23  2  0  0  0
 26 31  1  0  0  0
 26 22  2  0  0  0
 31 29  1  0  0  0
 23 22  1  0  0  0
 22 27  1  0  0  0
 29 27  2  0  0  0
 29 28  1  0  0  0
 20 21  1  0  0  0
 17 18  1  0  0  0
 17 19  1  0  0  0
M  END
> <minimizedAffinity>
-7.07393

$$$$
5C8N_4YX_A_1102


 34 37  0  0  0  0  0  0  0  0999 V2000
  -50.9875   -2.0728  -25.8890 C   0  0  0  0  0  0  0  0  0  0  0  0
  -52.0903   -2.1018  -26.7478 C   0  0  0  0  0  0  0  0  0  0  0  0
  -52.3664   -3.3001  -27.3918 C   0  0  0  0  0  0  0  0  0  0  0  0
  -51.5787   -4.3459  -27.1730 N   0  0  0  0  0  0  0  0  0  0  0  0
  -50.5247   -4.2788  -26.3724 C   0  0  0  0  0  0  0  0  0  0  0  0
  -50.2344   -3.1607  -25.7356 N   0  0  0  0  0  0  0  0  0  0  0  0
  -49.7290   -5.3935  -26.1552 N   0  0  0  0  0  0  0  0  0  0  0  0
  -48.5020   -5.5528  -26.9669 C   0  0  0  0  0  0  0  0  0  0  0  0
  -48.2229   -7.0552  -27.0457 C   0  0  0  0  0  0  0  0  0  0  0  0
  -48.1052   -7.6797  -25.6363 C   0  0  0  0  0  0  0  0  0  0  0  0
  -49.2854   -7.2931  -24.7123 C   0  0  0  0  0  0  0  0  0  0  0  0
  -49.5606   -5.7713  -24.7428 C   0  0  0  0  0  0  0  0  0  0  0  0
  -46.8521   -7.2179  -25.0863 O   0  0  0  0  0  0  0  0  0  0  0  0
  -45.6399   -7.6537  -25.7198 C   0  0  0  0  0  0  0  0  0  0  0  0
  -48.1145   -9.2090  -25.7815 C   0  0  0  0  0  0  0  0  0  0  0  0
  -48.7397   -9.6141  -27.1274 C   0  0  0  0  0  0  0  0  0  0  0  0
  -50.1572   -9.9550  -26.9664 N   0  0  0  0  0  0  0  0  0  0  0  0
  -50.6639   -9.1438  -26.6121 H   0  0  0  0  0  0  0  0  0  0  0  0
  -50.2483  -10.7275  -26.3065 H   0  0  0  0  0  0  0  0  0  0  0  0
  -50.6835   -0.8904  -25.2521 N   0  0  0  0  0  0  0  0  0  0  0  0
  -50.6110   -0.0879  -25.8178 H   0  0  0  0  0  0  0  0  0  0  0  0
  -49.8146   -0.4861  -21.2277 C   0  0  0  0  0  0  0  0  0  0  0  0
  -48.9213   -0.9933  -22.1629 C   0  0  0  0  0  0  0  0  0  0  0  0
  -50.4698   -0.7184  -23.8954 C   0  0  0  0  0  0  0  0  0  0  0  0
  -51.4418   -0.2200  -23.0376 C   0  0  0  0  0  0  0  0  0  0  0  0
  -51.1017   -0.1008  -21.6802 C   0  0  0  0  0  0  0  0  0  0  0  0
  -49.7613   -0.2577  -19.8869 N   0  0  0  0  0  0  0  0  0  0  0  0
  -51.1295    0.6116  -18.0491 C   0  0  0  0  0  0  0  0  0  0  0  0
  -50.8956    0.2491  -19.4946 C   0  0  0  0  0  0  0  0  0  0  0  0
  -49.2735   -1.0932  -23.4391 N   0  0  0  0  0  0  0  0  0  0  0  0
  -51.7594    0.3556  -20.5684 N   0  0  0  0  0  0  0  0  0  0  0  0
  -53.1333    0.8310  -20.6879 C   0  0  0  0  0  0  0  0  0  0  0  0
  -54.1573   -0.1905  -20.2118 C   0  0  0  0  0  0  0  0  0  0  0  0
  -53.3840    2.2794  -20.2984 C   0  0  0  0  0  0  0  0  0  0  0  0
 16 17  1  0  0  0
 16 15  1  0  0  0
  9  8  1  0  0  0
  9 10  1  0  0  0
  8  7  1  0  0  0
 13 10  1  0  0  0
 13 14  1  0  0  0
 10 15  1  0  0  0
 10 11  1  0  0  0
  4  3  2  0  0  0
  4  5  1  0  0  0
  3  2  1  0  0  0
  7  5  1  0  0  0
  7 12  1  0  0  0
  5  6  2  0  0  0
 12 11  1  0  0  0
  2  1  2  0  0  0
  6  1  1  0  0  0
  1 20  1  0  0  0
 20 24  1  0  0  0
 24 25  2  0  0  0
 24 30  1  0  0  0
 25 26  1  0  0  0
 33 32  1  0  0  0
 32 34  1  0  0  0
 32 31  1  0  0  0
 30 23  2  0  0  0
 26 31  1  0  0  0
 26 22  2  0  0  0
 31 29  1  0  0  0
 23 22  1  0  0  0
 22 27  1  0  0  0
 29 27  2  0  0  0
 29 28  1  0  0  0
 20 21  1  0  0  0
 17 18  1  0  0  0
 17 19  1  0  0  0
M  END
> <minimizedAffinity>
-6.98182

$$$$
5C8N_4YX_A_1102


 34 37  0  0  0  0  0  0  0  0999 V2000
  -53.4021    1.4306  -22.1005 C   0  0  0  0  0  0  0  0  0  0  0  0
  -53.8259    2.4255  -21.2145 C   0  0  0  0  0  0  0  0  0  0  0  0
  -53.4330    2.3087  -19.8882 C   0  0  0  0  0  0  0  0  0  0  0  0
  -52.6910    1.2697  -19.5248 N   0  0  0  0  0  0  0  0  0  0  0  0
  -52.3272    0.3288  -20.3843 C   0  0  0  0  0  0  0  0  0  0  0  0
  -52.6731    0.4087  -21.6547 N   0  0  0  0  0  0  0  0  0  0  0  0
  -51.5409   -0.7376  -19.9752 N   0  0  0  0  0  0  0  0  0  0  0  0
  -51.6895   -2.0326  -20.6757 C   0  0  0  0  0  0  0  0  0  0  0  0
  -51.2938   -3.1188  -19.6733 C   0  0  0  0  0  0  0  0  0  0  0  0
  -49.8677   -2.8844  -19.1242 C   0  0  0  0  0  0  0  0  0  0  0  0
  -49.6532   -1.4365  -18.6205 C   0  0  0  0  0  0  0  0  0  0  0  0
  -50.1472   -0.3937  -19.6505 C   0  0  0  0  0  0  0  0  0  0  0  0
  -48.9572   -3.1912  -20.2026 O   0  0  0  0  0  0  0  0  0  0  0  0
  -48.8018   -4.5679  -20.5784 C   0  0  0  0  0  0  0  0  0  0  0  0
  -49.6472   -3.8258  -17.9304 C   0  0  0  0  0  0  0  0  0  0  0  0
  -50.6313   -3.4905  -16.7966 C   0  0  0  0  0  0  0  0  0  0  0  0
  -49.9555   -3.5001  -15.4948 N   0  0  0  0  0  0  0  0  0  0  0  0
  -49.2153   -2.7983  -15.4908 H   0  0  0  0  0  0  0  0  0  0  0  0
  -49.5512   -4.4217  -15.3284 H   0  0  0  0  0  0  0  0  0  0  0  0
  -53.7937    1.5158  -23.4178 N   0  0  0  0  0  0  0  0  0  0  0  0
  -54.2707    2.3340  -23.6867 H   0  0  0  0  0  0  0  0  0  0  0  0
  -53.4014   -1.2777  -26.4439 C   0  0  0  0  0  0  0  0  0  0  0  0
  -54.5158   -0.4639  -26.2846 C   0  0  0  0  0  0  0  0  0  0  0  0
  -53.5832    0.5649  -24.4014 C   0  0  0  0  0  0  0  0  0  0  0  0
  -52.4362   -0.2163  -24.4599 C   0  0  0  0  0  0  0  0  0  0  0  0
  -52.3474   -1.1511  -25.5042 C   0  0  0  0  0  0  0  0  0  0  0  0
  -53.0465   -2.2417  -27.3369 N   0  0  0  0  0  0  0  0  0  0  0  0
  -51.2045   -3.7738  -27.8512 C   0  0  0  0  0  0  0  0  0  0  0  0
  -51.8638   -2.6938  -27.0301 C   0  0  0  0  0  0  0  0  0  0  0  0
  -54.5692    0.4102  -25.2867 N   0  0  0  0  0  0  0  0  0  0  0  0
  -51.3957   -2.0549  -25.8972 N   0  0  0  0  0  0  0  0  0  0  0  0
  -50.1634   -2.1848  -25.1275 C   0  0  0  0  0  0  0  0  0  0  0  0
  -50.2338   -3.2855  -24.0776 C   0  0  0  0  0  0  0  0  0  0  0  0
  -48.8634   -2.0699  -25.9081 C   0  0  0  0  0  0  0  0  0  0  0  0
 16 17  1  0  0  0
 16 15  1  0  0  0
  9  8  1  0  0  0
  9 10  1  0  0  0
  8  7  1  0  0  0
 13 10  1  0  0  0
 13 14  1  0  0  0
 10 15  1  0  0  0
 10 11  1  0  0  0
  4  3  2  0  0  0
  4  5  1  0  0  0
  3  2  1  0  0  0
  7  5  1  0  0  0
  7 12  1  0  0  0
  5  6  2  0  0  0
 12 11  1  0  0  0
  2  1  2  0  0  0
  6  1  1  0  0  0
  1 20  1  0  0  0
 20 24  1  0  0  0
 24 25  2  0  0  0
 24 30  1  0  0  0
 25 26  1  0  0  0
 33 32  1  0  0  0
 32 34  1  0  0  0
 32 31  1  0  0  0
 30 23  2  0  0  0
 26 31  1  0  0  0
 26 22  2  0  0  0
 31 29  1  0  0  0
 23 22  1  0  0  0
 22 27  1  0  0  0
 29 27  2  0  0  0
 29 28  1  0  0  0
 20 21  1  0  0  0
 17 18  1  0  0  0
 17 19  1  0  0  0
M  END
> <minimizedAffinity>
-6.92023

$$$$
5C8N_4YX_A_1102


 34 37  0  0  0  0  0  0  0  0999 V2000
  -52.8843   -1.3320  -26.0379 C   0  0  0  0  0  0  0  0  0  0  0  0
  -53.0587   -1.5586  -27.4064 C   0  0  0  0  0  0  0  0  0  0  0  0
  -52.5081   -2.7173  -27.9367 C   0  0  0  0  0  0  0  0  0  0  0  0
  -51.8444   -3.5412  -27.1349 N   0  0  0  0  0  0  0  0  0  0  0  0
  -51.6741   -3.2847  -25.8459 C   0  0  0  0  0  0  0  0  0  0  0  0
  -52.1895   -2.1987  -25.3028 N   0  0  0  0  0  0  0  0  0  0  0  0
  -50.9861   -4.1724  -25.0325 N   0  0  0  0  0  0  0  0  0  0  0  0
  -49.8571   -4.9317  -25.6144 C   0  0  0  0  0  0  0  0  0  0  0  0
  -49.7476   -6.2318  -24.8150 C   0  0  0  0  0  0  0  0  0  0  0  0
  -49.5772   -5.9502  -23.3043 C   0  0  0  0  0  0  0  0  0  0  0  0
  -50.6261   -4.9492  -22.7623 C   0  0  0  0  0  0  0  0  0  0  0  0
  -50.7389   -3.6962  -23.6621 C   0  0  0  0  0  0  0  0  0  0  0  0
  -48.2395   -5.4335  -23.1317 O   0  0  0  0  0  0  0  0  0  0  0  0
  -47.1412   -6.2689  -23.5273 C   0  0  0  0  0  0  0  0  0  0  0  0
  -49.7619   -7.2707  -22.5413 C   0  0  0  0  0  0  0  0  0  0  0  0
  -50.0127   -6.9948  -21.0489 C   0  0  0  0  0  0  0  0  0  0  0  0
  -48.7470   -6.8488  -20.3221 N   0  0  0  0  0  0  0  0  0  0  0  0
  -48.2228   -6.0629  -20.7067 H   0  0  0  0  0  0  0  0  0  0  0  0
  -48.1986   -7.7033  -20.4192 H   0  0  0  0  0  0  0  0  0  0  0  0
  -53.4067   -0.1806  -25.4924 N   0  0  0  0  0  0  0  0  0  0  0  0
  -53.9355    0.3939  -26.0919 H   0  0  0  0  0  0  0  0  0  0  0  0
  -53.1672    1.2665  -21.6242 C   0  0  0  0  0  0  0  0  0  0  0  0
  -54.1310    1.6686  -22.5403 C   0  0  0  0  0  0  0  0  0  0  0  0
  -53.2617    0.2489  -24.1845 C   0  0  0  0  0  0  0  0  0  0  0  0
  -52.2449   -0.2019  -23.3526 C   0  0  0  0  0  0  0  0  0  0  0  0
  -52.2033    0.3174  -22.0484 C   0  0  0  0  0  0  0  0  0  0  0  0
  -52.8927    1.5854  -20.3297 N   0  0  0  0  0  0  0  0  0  0  0  0
  -51.3247    1.0402  -18.5272 C   0  0  0  0  0  0  0  0  0  0  0  0
  -51.8605    0.8982  -19.9301 C   0  0  0  0  0  0  0  0  0  0  0  0
  -54.1432    1.1586  -23.7660 N   0  0  0  0  0  0  0  0  0  0  0  0
  -51.3943    0.1067  -20.9630 N   0  0  0  0  0  0  0  0  0  0  0  0
  -50.2782   -0.8269  -21.0661 C   0  0  0  0  0  0  0  0  0  0  0  0
  -48.9294   -0.1284  -21.1735 C   0  0  0  0  0  0  0  0  0  0  0  0
  -50.3398   -2.0557  -20.1724 C   0  0  0  0  0  0  0  0  0  0  0  0
 16 17  1  0  0  0
 16 15  1  0  0  0
  9  8  1  0  0  0
  9 10  1  0  0  0
  8  7  1  0  0  0
 13 10  1  0  0  0
 13 14  1  0  0  0
 10 15  1  0  0  0
 10 11  1  0  0  0
  4  3  2  0  0  0
  4  5  1  0  0  0
  3  2  1  0  0  0
  7  5  1  0  0  0
  7 12  1  0  0  0
  5  6  2  0  0  0
 12 11  1  0  0  0
  2  1  2  0  0  0
  6  1  1  0  0  0
  1 20  1  0  0  0
 20 24  1  0  0  0
 24 25  2  0  0  0
 24 30  1  0  0  0
 25 26  1  0  0  0
 33 32  1  0  0  0
 32 34  1  0  0  0
 32 31  1  0  0  0
 30 23  2  0  0  0
 26 31  1  0  0  0
 26 22  2  0  0  0
 31 29  1  0  0  0
 23 22  1  0  0  0
 22 27  1  0  0  0
 29 27  2  0  0  0
 29 28  1  0  0  0
 20 21  1  0  0  0
 17 18  1  0  0  0
 17 19  1  0  0  0
M  END
> <minimizedAffinity>
-6.89982

$$$$
5C8N_4YX_A_1102


 34 37  0  0  0  0  0  0  0  0999 V2000
  -51.3458   -1.6869  -26.0981 C   0  0  0  0  0  0  0  0  0  0  0  0
  -52.3890   -1.7630  -27.0258 C   0  0  0  0  0  0  0  0  0  0  0  0
  -52.6023   -2.9857  -27.6475 C   0  0  0  0  0  0  0  0  0  0  0  0
  -51.8137   -4.0095  -27.3441 N   0  0  0  0  0  0  0  0  0  0  0  0
  -50.8159   -3.8980  -26.4790 C   0  0  0  0  0  0  0  0  0  0  0  0
  -50.5866   -2.7554  -25.8609 N   0  0  0  0  0  0  0  0  0  0  0  0
  -50.0179   -4.9904  -26.1744 N   0  0  0  0  0  0  0  0  0  0  0  0
  -48.7591   -5.1763  -26.9298 C   0  0  0  0  0  0  0  0  0  0  0  0
  -48.4621   -6.6773  -26.9202 C   0  0  0  0  0  0  0  0  0  0  0  0
  -48.3925   -7.2273  -25.4769 C   0  0  0  0  0  0  0  0  0  0  0  0
  -49.6112   -6.8081  -24.6196 C   0  0  0  0  0  0  0  0  0  0  0  0
  -49.9003   -5.2933  -24.7390 C   0  0  0  0  0  0  0  0  0  0  0  0
  -47.1661   -6.7229  -24.9044 O   0  0  0  0  0  0  0  0  0  0  0  0
  -45.9262   -7.1755  -25.4687 C   0  0  0  0  0  0  0  0  0  0  0  0
  -48.3808   -8.7621  -25.5432 C   0  0  0  0  0  0  0  0  0  0  0  0
  -48.7921   -9.2394  -26.9466 C   0  0  0  0  0  0  0  0  0  0  0  0
  -50.1208   -9.8603  -26.9215 N   0  0  0  0  0  0  0  0  0  0  0  0
  -50.8090   -9.1778  -26.6037 H   0  0  0  0  0  0  0  0  0  0  0  0
  -50.1121  -10.6564  -26.2839 H   0  0  0  0  0  0  0  0  0  0  0  0
  -51.1039   -0.4799  -25.4813 N   0  0  0  0  0  0  0  0  0  0  0  0
  -50.7712    0.2507  -26.0512 H   0  0  0  0  0  0  0  0  0  0  0  0
  -51.7757    0.5846  -21.5405 C   0  0  0  0  0  0  0  0  0  0  0  0
  -52.3281    1.2535  -22.6254 C   0  0  0  0  0  0  0  0  0  0  0  0
  -51.2822   -0.1920  -24.1391 C   0  0  0  0  0  0  0  0  0  0  0  0
  -50.6638   -0.9134  -23.1260 C   0  0  0  0  0  0  0  0  0  0  0  0
  -50.9211   -0.5154  -21.8040 C   0  0  0  0  0  0  0  0  0  0  0  0
  -51.8491    0.7379  -20.1899 N   0  0  0  0  0  0  0  0  0  0  0  0
  -51.0240   -0.2679  -18.1133 C   0  0  0  0  0  0  0  0  0  0  0  0
  -51.1300   -0.1843  -19.6157 C   0  0  0  0  0  0  0  0  0  0  0  0
  -52.0652    0.8524  -23.8635 N   0  0  0  0  0  0  0  0  0  0  0  0
  -50.5291   -0.9774  -20.5752 N   0  0  0  0  0  0  0  0  0  0  0  0
  -49.6258   -2.1196  -20.4889 C   0  0  0  0  0  0  0  0  0  0  0  0
  -48.1963   -1.7200  -20.1488 C   0  0  0  0  0  0  0  0  0  0  0  0
  -50.1690   -3.3606  -19.7982 C   0  0  0  0  0  0  0  0  0  0  0  0
 16 17  1  0  0  0
 16 15  1  0  0  0
  9  8  1  0  0  0
  9 10  1  0  0  0
  8  7  1  0  0  0
 13 10  1  0  0  0
 13 14  1  0  0  0
 10 15  1  0  0  0
 10 11  1  0  0  0
  4  3  2  0  0  0
  4  5  1  0  0  0
  3  2  1  0  0  0
  7  5  1  0  0  0
  7 12  1  0  0  0
  5  6  2  0  0  0
 12 11  1  0  0  0
  2  1  2  0  0  0
  6  1  1  0  0  0
  1 20  1  0  0  0
 20 24  1  0  0  0
 24 25  2  0  0  0
 24 30  1  0  0  0
 25 26  1  0  0  0
 33 32  1  0  0  0
 32 34  1  0  0  0
 32 31  1  0  0  0
 30 23  2  0  0  0
 26 31  1  0  0  0
 26 22  2  0  0  0
 31 29  1  0  0  0
 23 22  1  0  0  0
 22 27  1  0  0  0
 29 27  2  0  0  0
 29 28  1  0  0  0
 20 21  1  0  0  0
 17 18  1  0  0  0
 17 19  1  0  0  0
M  END
> <minimizedAffinity>
-6.86890

$$$$
5C8N_4YX_A_1102


 34 37  0  0  0  0  0  0  0  0999 V2000
  -49.7633   -1.7619  -26.1318 C   0  0  0  0  0  0  0  0  0  0  0  0
  -50.8244   -1.6806  -27.0385 C   0  0  0  0  0  0  0  0  0  0  0  0
  -52.0709   -1.3377  -26.5330 C   0  0  0  0  0  0  0  0  0  0  0  0
  -52.1992   -1.1136  -25.2309 N   0  0  0  0  0  0  0  0  0  0  0  0
  -51.1783   -1.2244  -24.3931 C   0  0  0  0  0  0  0  0  0  0  0  0
  -49.9764   -1.5395  -24.8359 N   0  0  0  0  0  0  0  0  0  0  0  0
  -51.3429   -0.9712  -23.0397 N   0  0  0  0  0  0  0  0  0  0  0  0
  -51.9099   -2.0391  -22.1865 C   0  0  0  0  0  0  0  0  0  0  0  0
  -52.5981   -1.3401  -21.0122 C   0  0  0  0  0  0  0  0  0  0  0  0
  -51.6176   -0.4139  -20.2564 C   0  0  0  0  0  0  0  0  0  0  0  0
  -50.8427    0.5340  -21.2036 C   0  0  0  0  0  0  0  0  0  0  0  0
  -50.2411   -0.2275  -22.4079 C   0  0  0  0  0  0  0  0  0  0  0  0
  -50.7080   -1.2770  -19.5396 O   0  0  0  0  0  0  0  0  0  0  0  0
  -50.0267   -0.7342  -18.3985 C   0  0  0  0  0  0  0  0  0  0  0  0
  -52.4271    0.4617  -19.2879 C   0  0  0  0  0  0  0  0  0  0  0  0
  -52.6672    1.8529  -19.8989 C   0  0  0  0  0  0  0  0  0  0  0  0
  -54.0343    1.9697  -20.4175 N   0  0  0  0  0  0  0  0  0  0  0  0
  -54.6994    1.8384  -19.6554 H   0  0  0  0  0  0  0  0  0  0  0  0
  -54.1895    1.2572  -21.1307 H   0  0  0  0  0  0  0  0  0  0  0  0
  -48.5207   -2.1173  -26.6071 N   0  0  0  0  0  0  0  0  0  0  0  0
  -47.8713   -1.3891  -26.7387 H   0  0  0  0  0  0  0  0  0  0  0  0
  -47.2323   -5.8687  -27.7824 C   0  0  0  0  0  0  0  0  0  0  0  0
  -47.3509   -4.7876  -28.6466 C   0  0  0  0  0  0  0  0  0  0  0  0
  -48.0945   -3.3969  -26.9181 C   0  0  0  0  0  0  0  0  0  0  0  0
  -48.0319   -4.4185  -25.9791 C   0  0  0  0  0  0  0  0  0  0  0  0
  -47.5890   -5.6747  -26.4241 C   0  0  0  0  0  0  0  0  0  0  0  0
  -46.8380   -7.1635  -27.9263 N   0  0  0  0  0  0  0  0  0  0  0  0
  -46.5248   -9.2134  -26.6206 C   0  0  0  0  0  0  0  0  0  0  0  0
  -46.9072   -7.7620  -26.7711 C   0  0  0  0  0  0  0  0  0  0  0  0
  -47.7727   -3.6126  -28.1947 N   0  0  0  0  0  0  0  0  0  0  0  0
  -47.3761   -6.8825  -25.8133 N   0  0  0  0  0  0  0  0  0  0  0  0
  -47.6552   -7.0293  -24.3891 C   0  0  0  0  0  0  0  0  0  0  0  0
  -48.8991   -7.8627  -24.1119 C   0  0  0  0  0  0  0  0  0  0  0  0
  -46.4559   -7.2744  -23.4868 C   0  0  0  0  0  0  0  0  0  0  0  0
 16 17  1  0  0  0
 16 15  1  0  0  0
  9  8  1  0  0  0
  9 10  1  0  0  0
  8  7  1  0  0  0
 13 10  1  0  0  0
 13 14  1  0  0  0
 10 15  1  0  0  0
 10 11  1  0  0  0
  4  3  2  0  0  0
  4  5  1  0  0  0
  3  2  1  0  0  0
  7  5  1  0  0  0
  7 12  1  0  0  0
  5  6  2  0  0  0
 12 11  1  0  0  0
  2  1  2  0  0  0
  6  1  1  0  0  0
  1 20  1  0  0  0
 20 24  1  0  0  0
 24 25  2  0  0  0
 24 30  1  0  0  0
 25 26  1  0  0  0
 33 32  1  0  0  0
 32 34  1  0  0  0
 32 31  1  0  0  0
 30 23  2  0  0  0
 26 31  1  0  0  0
 26 22  2  0  0  0
 31 29  1  0  0  0
 23 22  1  0  0  0
 22 27  1  0  0  0
 29 27  2  0  0  0
 29 28  1  0  0  0
 20 21  1  0  0  0
 17 18  1  0  0  0
 17 19  1  0  0  0
M  END
> <minimizedAffinity>
-6.83803

$$$$
