2Q1Q_OSP_A_300


 20 21  0  0  0  0  0  0  0  0999 V2000
   -4.3478    2.9484   14.2363 C   0  0  0  0  0  0  0  0  0  0  0  0
   -3.5854    4.1113   14.3445 C   0  0  0  0  0  0  0  0  0  0  0  0
   -2.8060    4.5427   13.2645 C   0  0  0  0  0  0  0  0  0  0  0  0
   -4.3424    2.2323   13.0355 C   0  0  0  0  0  0  0  0  0  0  0  0
   -3.5666    2.6664   11.9549 C   0  0  0  0  0  0  0  0  0  0  0  0
   -2.7898    3.8316   12.0532 C   0  0  0  0  0  0  0  0  0  0  0  0
   -3.2197    1.2908   16.3895 O   0  0  0  0  0  0  0  0  0  0  0  0
   -4.6568    1.3777   16.2663 S   0  0  0  0  0  0  0  0  0  0  0  0
   -5.0620    0.1448   15.6326 O   0  0  0  0  0  0  0  0  0  0  0  0
   -5.4204    1.4772   17.7407 C   0  0  0  0  0  0  0  0  0  0  0  0
   -6.9259    1.7072   17.5656 C   0  0  0  0  0  0  0  0  0  0  0  0
   -7.3194    2.1469   16.1554 C   0  0  0  0  0  0  0  0  0  0  0  0
   -6.3862    3.2096   15.5875 C   0  0  0  0  0  0  0  0  0  0  0  0
   -5.1087    2.5433   15.3580 N   0  0  0  0  0  0  0  0  0  0  0  0
   -1.8918    4.3726   10.8108 S   0  0  0  0  0  0  0  0  0  0  0  0
   -1.9032    5.8080   10.7877 O   0  0  0  0  0  0  0  0  0  0  0  0
   -2.4195    3.8377    9.5863 O   0  0  0  0  0  0  0  0  0  0  0  0
   -0.3994    3.8580   11.0278 N   0  0  0  0  0  0  0  0  0  0  0  0
   -0.0309    4.2411   11.8983 H   0  0  0  0  0  0  0  0  0  0  0  0
    0.1826    4.1643   10.2482 H   0  0  0  0  0  0  0  0  0  0  0  0
  7  8  2  0  0  0
  8 10  1  0  0  0
  8  9  2  0  0  0
  8 14  1  0  0  0
 10 11  1  0  0  0
 11 12  1  0  0  0
 12 13  1  0  0  0
 13 14  1  0  0  0
 14  1  1  0  0  0
  1  2  2  0  0  0
  1  4  1  0  0  0
  2  3  1  0  0  0
  3  6  2  0  0  0
  4  5  2  0  0  0
  5  6  1  0  0  0
  6 15  1  0  0  0
 15 18  1  0  0  0
 15 16  2  0  0  0
 15 17  2  0  0  0
 18 19  1  0  0  0
 18 20  1  0  0  0
M  END
> <minimizedAffinity>
-7.62543

$$$$
2Q1Q_OSP_A_300


 20 21  0  0  0  0  0  0  0  0999 V2000
   -4.3984    3.2235   13.7295 C   0  0  0  0  0  0  0  0  0  0  0  0
   -3.9771    1.9961   14.2406 C   0  0  0  0  0  0  0  0  0  0  0  0
   -4.6271    1.4359   15.3467 C   0  0  0  0  0  0  0  0  0  0  0  0
   -5.4862    3.8759   14.3176 C   0  0  0  0  0  0  0  0  0  0  0  0
   -6.1383    3.3134   15.4205 C   0  0  0  0  0  0  0  0  0  0  0  0
   -5.7198    2.0817   15.9484 C   0  0  0  0  0  0  0  0  0  0  0  0
   -5.3547    2.8987   10.9661 O   0  0  0  0  0  0  0  0  0  0  0  0
   -3.9737    3.2666   11.1797 S   0  0  0  0  0  0  0  0  0  0  0  0
   -3.2186    2.0517   10.9808 O   0  0  0  0  0  0  0  0  0  0  0  0
   -3.4355    4.3959   10.0833 C   0  0  0  0  0  0  0  0  0  0  0  0
   -2.0159    4.8620   10.4264 C   0  0  0  0  0  0  0  0  0  0  0  0
   -1.5716    4.4861   11.8400 C   0  0  0  0  0  0  0  0  0  0  0  0
   -2.6534    4.7363   12.8838 C   0  0  0  0  0  0  0  0  0  0  0  0
   -3.7027    3.7577   12.6196 N   0  0  0  0  0  0  0  0  0  0  0  0
   -6.4670    1.3927   17.2171 S   0  0  0  0  0  0  0  0  0  0  0  0
   -7.8546    1.1842   16.9133 O   0  0  0  0  0  0  0  0  0  0  0  0
   -6.3177    2.2438   18.3648 O   0  0  0  0  0  0  0  0  0  0  0  0
   -5.7675   -0.0127   17.4903 N   0  0  0  0  0  0  0  0  0  0  0  0
   -5.8771   -0.6118   16.6721 H   0  0  0  0  0  0  0  0  0  0  0  0
   -6.2027   -0.4577   18.2983 H   0  0  0  0  0  0  0  0  0  0  0  0
  7  8  2  0  0  0
  8 10  1  0  0  0
  8  9  2  0  0  0
  8 14  1  0  0  0
 10 11  1  0  0  0
 11 12  1  0  0  0
 12 13  1  0  0  0
 13 14  1  0  0  0
 14  1  1  0  0  0
  1  2  2  0  0  0
  1  4  1  0  0  0
  2  3  1  0  0  0
  3  6  2  0  0  0
  4  5  2  0  0  0
  5  6  1  0  0  0
  6 15  1  0  0  0
 15 18  1  0  0  0
 15 16  2  0  0  0
 15 17  2  0  0  0
 18 19  1  0  0  0
 18 20  1  0  0  0
M  END
> <minimizedAffinity>
-7.59852

$$$$
2Q1Q_OSP_A_300


 20 21  0  0  0  0  0  0  0  0999 V2000
   -4.5163    3.4568   13.7754 C   0  0  0  0  0  0  0  0  0  0  0  0
   -5.6604    3.9952   14.3638 C   0  0  0  0  0  0  0  0  0  0  0  0
   -6.2712    3.3399   15.4396 C   0  0  0  0  0  0  0  0  0  0  0  0
   -3.9752    2.2717   14.2829 C   0  0  0  0  0  0  0  0  0  0  0  0
   -4.5836    1.6195   15.3611 C   0  0  0  0  0  0  0  0  0  0  0  0
   -5.7393    2.1476   15.9579 C   0  0  0  0  0  0  0  0  0  0  0  0
   -5.1168    2.7574   10.9814 O   0  0  0  0  0  0  0  0  0  0  0  0
   -3.9389    3.5477   11.2571 S   0  0  0  0  0  0  0  0  0  0  0  0
   -2.8304    2.6262   11.1700 O   0  0  0  0  0  0  0  0  0  0  0  0
   -3.6999    4.7524   10.1352 C   0  0  0  0  0  0  0  0  0  0  0  0
   -2.5255    5.6524   10.5368 C   0  0  0  0  0  0  0  0  0  0  0  0
   -2.0920    5.4819   11.9928 C   0  0  0  0  0  0  0  0  0  0  0  0
   -3.2720    5.4132   12.9549 C   0  0  0  0  0  0  0  0  0  0  0  0
   -3.9416    4.1461   12.6818 N   0  0  0  0  0  0  0  0  0  0  0  0
   -6.4598    1.4242   17.2229 S   0  0  0  0  0  0  0  0  0  0  0  0
   -7.8452    1.1895   16.9281 O   0  0  0  0  0  0  0  0  0  0  0  0
   -6.3188    2.2618   18.3815 O   0  0  0  0  0  0  0  0  0  0  0  0
   -5.7272    0.0308   17.4696 N   0  0  0  0  0  0  0  0  0  0  0  0
   -5.8310   -0.5588   16.6437 H   0  0  0  0  0  0  0  0  0  0  0  0
   -6.1453   -0.4353   18.2748 H   0  0  0  0  0  0  0  0  0  0  0  0
  7  8  2  0  0  0
  8 10  1  0  0  0
  8  9  2  0  0  0
  8 14  1  0  0  0
 10 11  1  0  0  0
 11 12  1  0  0  0
 12 13  1  0  0  0
 13 14  1  0  0  0
 14  1  1  0  0  0
  1  2  2  0  0  0
  1  4  1  0  0  0
  2  3  1  0  0  0
  3  6  2  0  0  0
  4  5  2  0  0  0
  5  6  1  0  0  0
  6 15  1  0  0  0
 15 18  1  0  0  0
 15 16  2  0  0  0
 15 17  2  0  0  0
 18 19  1  0  0  0
 18 20  1  0  0  0
M  END
> <minimizedAffinity>
-7.53449

$$$$
2Q1Q_OSP_A_300


 20 21  0  0  0  0  0  0  0  0999 V2000
   -4.3700    3.1446   13.7490 C   0  0  0  0  0  0  0  0  0  0  0  0
   -5.4225    3.7725   14.4147 C   0  0  0  0  0  0  0  0  0  0  0  0
   -6.0499    3.1370   15.4929 C   0  0  0  0  0  0  0  0  0  0  0  0
   -3.9355    1.8880   14.1813 C   0  0  0  0  0  0  0  0  0  0  0  0
   -4.5601    1.2552   15.2618 C   0  0  0  0  0  0  0  0  0  0  0  0
   -5.6247    1.8737   15.9362 C   0  0  0  0  0  0  0  0  0  0  0  0
   -1.7405    4.4498   13.9447 O   0  0  0  0  0  0  0  0  0  0  0  0
   -2.6145    4.8185   12.8547 S   0  0  0  0  0  0  0  0  0  0  0  0
   -3.1884    6.0876   13.2363 O   0  0  0  0  0  0  0  0  0  0  0  0
   -1.7960    5.0304   11.4221 C   0  0  0  0  0  0  0  0  0  0  0  0
   -2.7696    5.2829   10.2650 C   0  0  0  0  0  0  0  0  0  0  0  0
   -4.2198    4.9302   10.5955 C   0  0  0  0  0  0  0  0  0  0  0  0
   -4.3503    3.6028   11.3327 C   0  0  0  0  0  0  0  0  0  0  0  0
   -3.7758    3.8184   12.6562 N   0  0  0  0  0  0  0  0  0  0  0  0
   -6.3597    1.1736   17.2059 S   0  0  0  0  0  0  0  0  0  0  0  0
   -5.7516   -0.0971   17.4833 O   0  0  0  0  0  0  0  0  0  0  0  0
   -7.7564    1.0174   16.9084 O   0  0  0  0  0  0  0  0  0  0  0  0
   -6.1780    2.1339   18.4645 N   0  0  0  0  0  0  0  0  0  0  0  0
   -5.1847    2.2405   18.6703 H   0  0  0  0  0  0  0  0  0  0  0  0
   -6.6511    1.7288   19.2723 H   0  0  0  0  0  0  0  0  0  0  0  0
  7  8  2  0  0  0
  8 10  1  0  0  0
  8  9  2  0  0  0
  8 14  1  0  0  0
 10 11  1  0  0  0
 11 12  1  0  0  0
 12 13  1  0  0  0
 13 14  1  0  0  0
 14  1  1  0  0  0
  1  2  2  0  0  0
  1  4  1  0  0  0
  2  3  1  0  0  0
  3  6  2  0  0  0
  4  5  2  0  0  0
  5  6  1  0  0  0
  6 15  1  0  0  0
 15 18  1  0  0  0
 15 16  2  0  0  0
 15 17  2  0  0  0
 18 19  1  0  0  0
 18 20  1  0  0  0
M  END
> <minimizedAffinity>
-6.92425

$$$$
2Q1Q_OSP_A_300


 20 21  0  0  0  0  0  0  0  0999 V2000
   -4.0754    4.0790   12.2936 C   0  0  0  0  0  0  0  0  0  0  0  0
   -3.7493    4.4413   13.6003 C   0  0  0  0  0  0  0  0  0  0  0  0
   -3.8899    3.5158   14.6413 C   0  0  0  0  0  0  0  0  0  0  0  0
   -4.5221    2.7803   12.0316 C   0  0  0  0  0  0  0  0  0  0  0  0
   -4.6582    1.8543   13.0718 C   0  0  0  0  0  0  0  0  0  0  0  0
   -4.3395    2.2085   14.3924 C   0  0  0  0  0  0  0  0  0  0  0  0
   -2.4662    3.6033    9.8769 O   0  0  0  0  0  0  0  0  0  0  0  0
   -2.8003    4.9650   10.2265 S   0  0  0  0  0  0  0  0  0  0  0  0
   -1.6042    5.5116   10.8234 O   0  0  0  0  0  0  0  0  0  0  0  0
   -3.1856    5.8903    8.8989 C   0  0  0  0  0  0  0  0  0  0  0  0
   -3.6669    7.2833    9.3208 C   0  0  0  0  0  0  0  0  0  0  0  0
   -4.0262    7.3853   10.8032 C   0  0  0  0  0  0  0  0  0  0  0  0
   -4.8383    6.1937   11.2961 C   0  0  0  0  0  0  0  0  0  0  0  0
   -3.9310    5.0514   11.2763 N   0  0  0  0  0  0  0  0  0  0  0  0
   -4.4694    1.1513   15.6204 S   0  0  0  0  0  0  0  0  0  0  0  0
   -3.3044    1.2266   16.4559 O   0  0  0  0  0  0  0  0  0  0  0  0
   -4.6276   -0.1713   15.0823 O   0  0  0  0  0  0  0  0  0  0  0  0
   -5.7576    1.5478   16.4705 N   0  0  0  0  0  0  0  0  0  0  0  0
   -5.6389    2.4873   16.8494 H   0  0  0  0  0  0  0  0  0  0  0  0
   -5.8768    0.8848   17.2364 H   0  0  0  0  0  0  0  0  0  0  0  0
  7  8  2  0  0  0
  8 10  1  0  0  0
  8  9  2  0  0  0
  8 14  1  0  0  0
 10 11  1  0  0  0
 11 12  1  0  0  0
 12 13  1  0  0  0
 13 14  1  0  0  0
 14  1  1  0  0  0
  1  2  2  0  0  0
  1  4  1  0  0  0
  2  3  1  0  0  0
  3  6  2  0  0  0
  4  5  2  0  0  0
  5  6  1  0  0  0
  6 15  1  0  0  0
 15 18  1  0  0  0
 15 16  2  0  0  0
 15 17  2  0  0  0
 18 19  1  0  0  0
 18 20  1  0  0  0
M  END
> <minimizedAffinity>
-6.55314

$$$$
2Q1Q_OSP_A_300


 20 21  0  0  0  0  0  0  0  0999 V2000
   -4.0451    4.6034   12.7371 C   0  0  0  0  0  0  0  0  0  0  0  0
   -3.8492    4.7521   14.1099 C   0  0  0  0  0  0  0  0  0  0  0  0
   -4.0065    3.6544   14.9645 C   0  0  0  0  0  0  0  0  0  0  0  0
   -4.3780    3.3467   12.2226 C   0  0  0  0  0  0  0  0  0  0  0  0
   -4.5307    2.2489   13.0767 C   0  0  0  0  0  0  0  0  0  0  0  0
   -4.3427    2.3869   14.4611 C   0  0  0  0  0  0  0  0  0  0  0  0
   -6.1982    6.5698   12.3453 O   0  0  0  0  0  0  0  0  0  0  0  0
   -5.1061    6.5446   11.3994 S   0  0  0  0  0  0  0  0  0  0  0  0
   -5.6221    5.8608   10.2368 O   0  0  0  0  0  0  0  0  0  0  0  0
   -4.6276    8.0683   10.9339 C   0  0  0  0  0  0  0  0  0  0  0  0
   -3.3823    8.0048   10.0422 C   0  0  0  0  0  0  0  0  0  0  0  0
   -2.6684    6.6535   10.0806 C   0  0  0  0  0  0  0  0  0  0  0  0
   -2.5375    6.0961   11.4929 C   0  0  0  0  0  0  0  0  0  0  0  0
   -3.8891    5.7433   11.9140 N   0  0  0  0  0  0  0  0  0  0  0  0
   -4.4950    1.1280   15.4782 S   0  0  0  0  0  0  0  0  0  0  0  0
   -3.3629    1.0714   16.3593 O   0  0  0  0  0  0  0  0  0  0  0  0
   -4.6057   -0.0812   14.7104 O   0  0  0  0  0  0  0  0  0  0  0  0
   -5.8212    1.3500   16.3332 N   0  0  0  0  0  0  0  0  0  0  0  0
   -5.7361    2.2096   16.8757 H   0  0  0  0  0  0  0  0  0  0  0  0
   -5.9542    0.5607   16.9655 H   0  0  0  0  0  0  0  0  0  0  0  0
  7  8  2  0  0  0
  8 10  1  0  0  0
  8  9  2  0  0  0
  8 14  1  0  0  0
 10 11  1  0  0  0
 11 12  1  0  0  0
 12 13  1  0  0  0
 13 14  1  0  0  0
 14  1  1  0  0  0
  1  2  2  0  0  0
  1  4  1  0  0  0
  2  3  1  0  0  0
  3  6  2  0  0  0
  4  5  2  0  0  0
  5  6  1  0  0  0
  6 15  1  0  0  0
 15 18  1  0  0  0
 15 16  2  0  0  0
 15 17  2  0  0  0
 18 19  1  0  0  0
 18 20  1  0  0  0
M  END
> <minimizedAffinity>
-6.48864

$$$$
2Q1Q_OSP_A_300


 20 21  0  0  0  0  0  0  0  0999 V2000
   -2.9438    6.1107   14.1337 C   0  0  0  0  0  0  0  0  0  0  0  0
   -2.0513    5.0797   14.4259 C   0  0  0  0  0  0  0  0  0  0  0  0
   -2.5321    3.8036   14.7431 C   0  0  0  0  0  0  0  0  0  0  0  0
   -4.3180    5.8524   14.1398 C   0  0  0  0  0  0  0  0  0  0  0  0
   -4.7978    4.5757   14.4526 C   0  0  0  0  0  0  0  0  0  0  0  0
   -3.9100    3.5311   14.7549 C   0  0  0  0  0  0  0  0  0  0  0  0
   -2.9986    7.2388   11.4169 O   0  0  0  0  0  0  0  0  0  0  0  0
   -2.0862    7.8078   12.3822 S   0  0  0  0  0  0  0  0  0  0  0  0
   -0.7896    7.2659   12.0493 O   0  0  0  0  0  0  0  0  0  0  0  0
   -1.9967    9.4656   12.2780 C   0  0  0  0  0  0  0  0  0  0  0  0
   -1.1297   10.0410   13.4038 C   0  0  0  0  0  0  0  0  0  0  0  0
   -0.8587    9.0509   14.5365 C   0  0  0  0  0  0  0  0  0  0  0  0
   -2.1023    8.2729   14.9494 C   0  0  0  0  0  0  0  0  0  0  0  0
   -2.4129    7.3869   13.8327 N   0  0  0  0  0  0  0  0  0  0  0  0
   -4.4342    2.0327   15.1048 S   0  0  0  0  0  0  0  0  0  0  0  0
   -4.4323    1.2244   13.9182 O   0  0  0  0  0  0  0  0  0  0  0  0
   -5.7555    2.1191   15.6619 O   0  0  0  0  0  0  0  0  0  0  0  0
   -3.4350    1.4044   16.1753 N   0  0  0  0  0  0  0  0  0  0  0  0
   -2.4993    1.3459   15.7737 H   0  0  0  0  0  0  0  0  0  0  0  0
   -3.7543    0.4700   16.4311 H   0  0  0  0  0  0  0  0  0  0  0  0
  7  8  2  0  0  0
  8 10  1  0  0  0
  8  9  2  0  0  0
  8 14  1  0  0  0
 10 11  1  0  0  0
 11 12  1  0  0  0
 12 13  1  0  0  0
 13 14  1  0  0  0
 14  1  1  0  0  0
  1  2  2  0  0  0
  1  4  1  0  0  0
  2  3  1  0  0  0
  3  6  2  0  0  0
  4  5  2  0  0  0
  5  6  1  0  0  0
  6 15  1  0  0  0
 15 18  1  0  0  0
 15 16  2  0  0  0
 15 17  2  0  0  0
 18 19  1  0  0  0
 18 20  1  0  0  0
M  END
> <minimizedAffinity>
-6.06482

$$$$
2Q1Q_OSP_A_300


 20 21  0  0  0  0  0  0  0  0999 V2000
   -4.1748    5.3827   12.6900 C   0  0  0  0  0  0  0  0  0  0  0  0
   -3.4585    4.2355   12.3494 C   0  0  0  0  0  0  0  0  0  0  0  0
   -3.5674    3.0811   13.1338 C   0  0  0  0  0  0  0  0  0  0  0  0
   -5.0162    5.3613   13.8065 C   0  0  0  0  0  0  0  0  0  0  0  0
   -5.1281    4.2058   14.5876 C   0  0  0  0  0  0  0  0  0  0  0  0
   -4.4073    3.0467   14.2592 C   0  0  0  0  0  0  0  0  0  0  0  0
   -6.1322    6.1162   10.6195 O   0  0  0  0  0  0  0  0  0  0  0  0
   -4.8117    6.6999   10.5586 S   0  0  0  0  0  0  0  0  0  0  0  0
   -4.1142    5.9631    9.5309 O   0  0  0  0  0  0  0  0  0  0  0  0
   -4.8409    8.3033   10.1166 C   0  0  0  0  0  0  0  0  0  0  0  0
   -3.4404    8.9215   10.1982 C   0  0  0  0  0  0  0  0  0  0  0  0
   -2.4411    8.0748   10.9865 C   0  0  0  0  0  0  0  0  0  0  0  0
   -3.0289    7.5196   12.2782 C   0  0  0  0  0  0  0  0  0  0  0  0
   -4.0226    6.5299   11.8763 N   0  0  0  0  0  0  0  0  0  0  0  0
   -4.5288    1.6828   15.1353 S   0  0  0  0  0  0  0  0  0  0  0  0
   -4.4702    0.5388   14.2699 O   0  0  0  0  0  0  0  0  0  0  0  0
   -5.7648    1.7070   15.8671 O   0  0  0  0  0  0  0  0  0  0  0  0
   -3.2999    1.6437   16.1490 N   0  0  0  0  0  0  0  0  0  0  0  0
   -2.4259    1.6267   15.6233 H   0  0  0  0  0  0  0  0  0  0  0  0
   -3.3641    0.8072   16.7291 H   0  0  0  0  0  0  0  0  0  0  0  0
  7  8  2  0  0  0
  8 10  1  0  0  0
  8  9  2  0  0  0
  8 14  1  0  0  0
 10 11  1  0  0  0
 11 12  1  0  0  0
 12 13  1  0  0  0
 13 14  1  0  0  0
 14  1  1  0  0  0
  1  2  2  0  0  0
  1  4  1  0  0  0
  2  3  1  0  0  0
  3  6  2  0  0  0
  4  5  2  0  0  0
  5  6  1  0  0  0
  6 15  1  0  0  0
 15 18  1  0  0  0
 15 16  2  0  0  0
 15 17  2  0  0  0
 18 19  1  0  0  0
 18 20  1  0  0  0
M  END
> <minimizedAffinity>
-5.79976

$$$$
2Q1Q_OSP_A_300


 20 21  0  0  0  0  0  0  0  0999 V2000
   -3.0909    5.1456   12.6241 C   0  0  0  0  0  0  0  0  0  0  0  0
   -2.7505    5.0817   13.9751 C   0  0  0  0  0  0  0  0  0  0  0  0
   -3.1892    4.0083   14.7596 C   0  0  0  0  0  0  0  0  0  0  0  0
   -3.8539    4.1196   12.0583 C   0  0  0  0  0  0  0  0  0  0  0  0
   -4.2883    3.0448   12.8419 C   0  0  0  0  0  0  0  0  0  0  0  0
   -3.9579    2.9721   14.2044 C   0  0  0  0  0  0  0  0  0  0  0  0
   -0.8482    4.9562   10.7291 O   0  0  0  0  0  0  0  0  0  0  0  0
   -1.2488    6.2637   11.1959 S   0  0  0  0  0  0  0  0  0  0  0  0
   -0.2734    6.6286   12.1964 O   0  0  0  0  0  0  0  0  0  0  0  0
   -1.2104    7.4119    9.9928 C   0  0  0  0  0  0  0  0  0  0  0  0
   -1.7724    8.7485   10.4905 C   0  0  0  0  0  0  0  0  0  0  0  0
   -2.5513    8.6366   11.8011 C   0  0  0  0  0  0  0  0  0  0  0  0
   -3.4917    7.4376   11.8273 C   0  0  0  0  0  0  0  0  0  0  0  0
   -2.6372    6.2560   11.8741 N   0  0  0  0  0  0  0  0  0  0  0  0
   -4.4316    1.7283   15.1377 S   0  0  0  0  0  0  0  0  0  0  0  0
   -4.5389    0.5356   14.3457 O   0  0  0  0  0  0  0  0  0  0  0  0
   -5.6926    2.0540   15.7441 O   0  0  0  0  0  0  0  0  0  0  0  0
   -3.3265    1.5173   16.2662 N   0  0  0  0  0  0  0  0  0  0  0  0
   -2.4342    1.2864   15.8293 H   0  0  0  0  0  0  0  0  0  0  0  0
   -3.6106    0.7555   16.8821 H   0  0  0  0  0  0  0  0  0  0  0  0
  7  8  2  0  0  0
  8 10  1  0  0  0
  8  9  2  0  0  0
  8 14  1  0  0  0
 10 11  1  0  0  0
 11 12  1  0  0  0
 12 13  1  0  0  0
 13 14  1  0  0  0
 14  1  1  0  0  0
  1  2  2  0  0  0
  1  4  1  0  0  0
  2  3  1  0  0  0
  3  6  2  0  0  0
  4  5  2  0  0  0
  5  6  1  0  0  0
  6 15  1  0  0  0
 15 18  1  0  0  0
 15 16  2  0  0  0
 15 17  2  0  0  0
 18 19  1  0  0  0
 18 20  1  0  0  0
M  END
> <minimizedAffinity>
-5.57652

$$$$
2Q1Q_OSP_A_300


 20 21  0  0  0  0  0  0  0  0999 V2000
   -2.4897    6.6037   13.2503 C   0  0  0  0  0  0  0  0  0  0  0  0
   -3.8557    6.3538   13.1213 C   0  0  0  0  0  0  0  0  0  0  0  0
   -4.3061    5.0721   12.7831 C   0  0  0  0  0  0  0  0  0  0  0  0
   -1.5792    5.5598   13.0600 C   0  0  0  0  0  0  0  0  0  0  0  0
   -2.0301    4.2779   12.7264 C   0  0  0  0  0  0  0  0  0  0  0  0
   -3.4021    4.0150   12.5872 C   0  0  0  0  0  0  0  0  0  0  0  0
   -2.2300    8.7256   11.2289 O   0  0  0  0  0  0  0  0  0  0  0  0
   -1.5708    8.9015   12.5027 S   0  0  0  0  0  0  0  0  0  0  0  0
   -0.1792    8.6030   12.2582 O   0  0  0  0  0  0  0  0  0  0  0  0
   -1.6739   10.4633   13.0661 C   0  0  0  0  0  0  0  0  0  0  0  0
   -1.0869   10.5782   14.4776 C   0  0  0  0  0  0  0  0  0  0  0  0
   -0.8873    9.2304   15.1706 C   0  0  0  0  0  0  0  0  0  0  0  0
   -2.0749    8.2927   14.9892 C   0  0  0  0  0  0  0  0  0  0  0  0
   -2.0804    7.9172   13.5794 N   0  0  0  0  0  0  0  0  0  0  0  0
   -3.9594    2.5332   12.2181 S   0  0  0  0  0  0  0  0  0  0  0  0
   -4.6702    1.9849   13.3386 O   0  0  0  0  0  0  0  0  0  0  0  0
   -2.8505    1.6945   11.8566 O   0  0  0  0  0  0  0  0  0  0  0  0
   -4.9530    2.6804   10.9810 N   0  0  0  0  0  0  0  0  0  0  0  0
   -5.7376    3.2767   11.2442 H   0  0  0  0  0  0  0  0  0  0  0  0
   -5.3006    1.7598   10.7127 H   0  0  0  0  0  0  0  0  0  0  0  0
  7  8  2  0  0  0
  8 10  1  0  0  0
  8  9  2  0  0  0
  8 14  1  0  0  0
 10 11  1  0  0  0
 11 12  1  0  0  0
 12 13  1  0  0  0
 13 14  1  0  0  0
 14  1  1  0  0  0
  1  2  2  0  0  0
  1  4  1  0  0  0
  2  3  1  0  0  0
  3  6  2  0  0  0
  4  5  2  0  0  0
  5  6  1  0  0  0
  6 15  1  0  0  0
 15 18  1  0  0  0
 15 16  2  0  0  0
 15 17  2  0  0  0
 18 19  1  0  0  0
 18 20  1  0  0  0
M  END
> <minimizedAffinity>
-5.55774

$$$$
