2WC3_AM3_A_1446


 26 27  0  0  0  0  0  0  0  0999 V2000
    0.3072   -0.0677   11.7292 O   0  0  0  0  0  0  0  0  0  0  0  0
    1.6009    0.3247   11.2533 C   0  0  0  0  0  0  0  0  0  0  0  0
    1.7109    1.8609   11.1288 C   0  0  0  0  0  0  0  0  0  0  0  0
    0.5852    2.5499   10.3165 C   0  0  0  0  0  0  0  0  0  0  0  0
    0.1639    3.6067   11.2179 O   0  0  0  0  0  0  0  0  0  0  0  0
    2.7601   -0.1292   12.1594 C   0  0  0  0  0  0  0  0  0  0  0  0
    2.8125   -1.5359   12.2711 O   0  0  0  0  0  0  0  0  0  0  0  0
    2.7402    0.4554   13.5808 C   0  0  0  0  0  0  0  0  0  0  0  0
    4.0558    0.2588   14.1547 O   0  0  0  0  0  0  0  0  0  0  0  0
    2.4267    1.9631   13.6057 C   0  0  0  0  0  0  0  0  0  0  0  0
    1.5312    2.2177   14.6705 O   0  0  0  0  0  0  0  0  0  0  0  0
    1.6459    2.4514   12.4714 N   0  0  0  0  0  0  0  0  0  0  0  0
    0.7283    3.5184   12.4419 C   0  0  0  0  0  0  0  0  0  0  0  0
    0.3719    4.3270   13.4547 N   0  0  0  0  0  0  0  0  0  0  0  0
   -0.3731    0.2487   11.1145 H   0  0  0  0  0  0  0  0  0  0  0  0
    2.0151   -1.8544   12.7224 H   0  0  0  0  0  0  0  0  0  0  0  0
    4.7152    0.7282   13.6201 H   0  0  0  0  0  0  0  0  0  0  0  0
    0.7004    1.7417   14.5151 H   0  0  0  0  0  0  0  0  0  0  0  0
   -0.9742    4.6916   13.9771 C   0  0  0  0  0  0  0  0  0  0  0  0
   -0.9264    6.0002   14.7403 C   0  0  0  0  0  0  0  0  0  0  0  0
   -1.0800    7.2609   13.9043 C   0  0  0  0  0  0  0  0  0  0  0  0
   -1.1042    8.5466   14.7213 C   0  0  0  0  0  0  0  0  0  0  0  0
    0.2593    8.7396   15.3803 C   0  0  0  0  0  0  0  0  0  0  0  0
    0.0683    8.9356   16.8807 C   0  0  0  0  0  0  0  0  0  0  0  0
    0.7778    7.8496   17.6685 C   0  0  0  0  0  0  0  0  0  0  0  0
   -0.2307    6.9334   18.3289 C   0  0  0  0  0  0  0  0  0  0  0  0
  1  2  1  0  0  0
  2  3  1  0  0  0
  3  4  1  0  0  0
  4  5  1  0  0  0
  2  6  1  0  0  0
  6  7  1  0  0  0
  6  8  1  0  0  0
  8  9  1  0  0  0
  8 10  1  0  0  0
 10 11  1  0  0  0
  3 12  1  0  0  0
 10 12  1  0  0  0
  5 13  1  0  0  0
 12 13  1  0  0  0
 13 14  2  0  0  0
 14 19  1  0  0  0
 19 20  1  0  0  0
 20 21  1  0  0  0
 21 22  1  0  0  0
 22 23  1  0  0  0
 23 24  1  0  0  0
 24 25  1  0  0  0
 25 26  1  0  0  0
  1 15  1  0  0  0
  7 16  1  0  0  0
  9 17  1  0  0  0
 11 18  1  0  0  0
M  END
> <minimizedAffinity>
-9.58780

$$$$
2WC3_AM3_A_1446


 26 27  0  0  0  0  0  0  0  0999 V2000
    0.3499   -0.0963   11.6919 O   0  0  0  0  0  0  0  0  0  0  0  0
    1.6433    0.3123   11.2292 C   0  0  0  0  0  0  0  0  0  0  0  0
    1.7384    1.8503   11.1146 C   0  0  0  0  0  0  0  0  0  0  0  0
    0.6125    2.5323   10.2968 C   0  0  0  0  0  0  0  0  0  0  0  0
    0.1726    3.5794   11.2007 O   0  0  0  0  0  0  0  0  0  0  0  0
    2.7995   -0.1348   12.1425 C   0  0  0  0  0  0  0  0  0  0  0  0
    2.8656   -1.5416   12.2464 O   0  0  0  0  0  0  0  0  0  0  0  0
    2.7616    0.4411   13.5671 C   0  0  0  0  0  0  0  0  0  0  0  0
    4.0743    0.2548   14.1509 O   0  0  0  0  0  0  0  0  0  0  0  0
    2.4322    1.9453   13.5981 C   0  0  0  0  0  0  0  0  0  0  0  0
    1.5251    2.1843   14.6566 O   0  0  0  0  0  0  0  0  0  0  0  0
    1.6559    2.4322   12.4600 N   0  0  0  0  0  0  0  0  0  0  0  0
    0.7276    3.4898   12.4289 C   0  0  0  0  0  0  0  0  0  0  0  0
    0.3543    4.2887   13.4433 N   0  0  0  0  0  0  0  0  0  0  0  0
   -0.3285    0.2167   11.0733 H   0  0  0  0  0  0  0  0  0  0  0  0
    2.0678   -1.8709   12.6891 H   0  0  0  0  0  0  0  0  0  0  0  0
    4.7332    0.7341   13.6247 H   0  0  0  0  0  0  0  0  0  0  0  0
    0.7007    1.7007   14.4914 H   0  0  0  0  0  0  0  0  0  0  0  0
   -0.9999    4.6362   13.9563 C   0  0  0  0  0  0  0  0  0  0  0  0
   -1.6179    3.4681   14.6983 C   0  0  0  0  0  0  0  0  0  0  0  0
   -2.5138    3.8283   15.8728 C   0  0  0  0  0  0  0  0  0  0  0  0
   -1.9751    3.3759   17.2242 C   0  0  0  0  0  0  0  0  0  0  0  0
   -1.5850    4.6071   18.0383 C   0  0  0  0  0  0  0  0  0  0  0  0
   -0.1749    5.0393   17.6501 C   0  0  0  0  0  0  0  0  0  0  0  0
   -0.1529    6.4867   17.1942 C   0  0  0  0  0  0  0  0  0  0  0  0
    1.0089    6.7252   16.2529 C   0  0  0  0  0  0  0  0  0  0  0  0
  1  2  1  0  0  0
  2  3  1  0  0  0
  3  4  1  0  0  0
  4  5  1  0  0  0
  2  6  1  0  0  0
  6  7  1  0  0  0
  6  8  1  0  0  0
  8  9  1  0  0  0
  8 10  1  0  0  0
 10 11  1  0  0  0
  3 12  1  0  0  0
 10 12  1  0  0  0
  5 13  1  0  0  0
 12 13  1  0  0  0
 13 14  2  0  0  0
 14 19  1  0  0  0
 19 20  1  0  0  0
 20 21  1  0  0  0
 21 22  1  0  0  0
 22 23  1  0  0  0
 23 24  1  0  0  0
 24 25  1  0  0  0
 25 26  1  0  0  0
  1 15  1  0  0  0
  7 16  1  0  0  0
  9 17  1  0  0  0
 11 18  1  0  0  0
M  END
> <minimizedAffinity>
-8.90891

$$$$
2WC3_AM3_A_1446


 26 27  0  0  0  0  0  0  0  0999 V2000
    0.3151   -0.1314   11.7751 O   0  0  0  0  0  0  0  0  0  0  0  0
    1.6157    0.2132   11.2815 C   0  0  0  0  0  0  0  0  0  0  0  0
    1.7529    1.7388   11.0783 C   0  0  0  0  0  0  0  0  0  0  0  0
    0.6399    2.4047   10.2299 C   0  0  0  0  0  0  0  0  0  0  0  0
    0.2368    3.5138   11.0752 O   0  0  0  0  0  0  0  0  0  0  0  0
    2.7662   -0.2137   12.2114 C   0  0  0  0  0  0  0  0  0  0  0  0
    2.7938   -1.6135   12.3954 O   0  0  0  0  0  0  0  0  0  0  0  0
    2.7559    0.4435   13.6009 C   0  0  0  0  0  0  0  0  0  0  0  0
    4.0676    0.2537   14.1860 O   0  0  0  0  0  0  0  0  0  0  0  0
    2.4690    1.9558   13.5477 C   0  0  0  0  0  0  0  0  0  0  0  0
    1.5776    2.2806   14.5966 O   0  0  0  0  0  0  0  0  0  0  0  0
    1.6976    2.3987   12.3886 N   0  0  0  0  0  0  0  0  0  0  0  0
    0.7989    3.4787   12.3029 C   0  0  0  0  0  0  0  0  0  0  0  0
    0.4563    4.3445   13.2722 N   0  0  0  0  0  0  0  0  0  0  0  0
   -0.3592    0.1649   11.1440 H   0  0  0  0  0  0  0  0  0  0  0  0
    1.9907   -1.8942   12.8614 H   0  0  0  0  0  0  0  0  0  0  0  0
    4.7354    0.6833   13.6288 H   0  0  0  0  0  0  0  0  0  0  0  0
    0.7386    1.8119   14.4647 H   0  0  0  0  0  0  0  0  0  0  0  0
   -0.8834    4.7592   13.7732 C   0  0  0  0  0  0  0  0  0  0  0  0
   -0.8539    5.0049   15.2684 C   0  0  0  0  0  0  0  0  0  0  0  0
   -1.8708    4.2265   16.0881 C   0  0  0  0  0  0  0  0  0  0  0  0
   -1.5294    4.1310   17.5698 C   0  0  0  0  0  0  0  0  0  0  0  0
   -2.6116    3.3173   18.2752 C   0  0  0  0  0  0  0  0  0  0  0  0
   -2.8415    2.0182   17.5101 C   0  0  0  0  0  0  0  0  0  0  0  0
   -4.3204    1.7844   17.2618 C   0  0  0  0  0  0  0  0  0  0  0  0
   -5.1482    2.8139   18.0019 C   0  0  0  0  0  0  0  0  0  0  0  0
  1  2  1  0  0  0
  2  3  1  0  0  0
  3  4  1  0  0  0
  4  5  1  0  0  0
  2  6  1  0  0  0
  6  7  1  0  0  0
  6  8  1  0  0  0
  8  9  1  0  0  0
  8 10  1  0  0  0
 10 11  1  0  0  0
  3 12  1  0  0  0
 10 12  1  0  0  0
  5 13  1  0  0  0
 12 13  1  0  0  0
 13 14  2  0  0  0
 14 19  1  0  0  0
 19 20  1  0  0  0
 20 21  1  0  0  0
 21 22  1  0  0  0
 22 23  1  0  0  0
 23 24  1  0  0  0
 24 25  1  0  0  0
 25 26  1  0  0  0
  1 15  1  0  0  0
  7 16  1  0  0  0
  9 17  1  0  0  0
 11 18  1  0  0  0
M  END
> <minimizedAffinity>
-8.74874

$$$$
2WC3_AM3_A_1446


 26 27  0  0  0  0  0  0  0  0999 V2000
   -2.0789    7.7561   16.4090 O   0  0  0  0  0  0  0  0  0  0  0  0
   -1.0111    8.2050   17.2529 C   0  0  0  0  0  0  0  0  0  0  0  0
   -0.3110    7.0180   17.9517 C   0  0  0  0  0  0  0  0  0  0  0  0
   -1.2453    6.0394   18.7074 C   0  0  0  0  0  0  0  0  0  0  0  0
   -0.8190    4.7520   18.1898 O   0  0  0  0  0  0  0  0  0  0  0  0
    0.0850    8.9862   16.5052 C   0  0  0  0  0  0  0  0  0  0  0  0
   -0.4298   10.1532   15.8992 O   0  0  0  0  0  0  0  0  0  0  0  0
    0.8316    8.1857   15.4262 C   0  0  0  0  0  0  0  0  0  0  0  0
    2.0468    8.9068   15.1066 O   0  0  0  0  0  0  0  0  0  0  0  0
    1.2222    6.7703   15.8912 C   0  0  0  0  0  0  0  0  0  0  0  0
    0.9730    5.8656   14.8330 O   0  0  0  0  0  0  0  0  0  0  0  0
    0.3721    6.2060   16.9370 N   0  0  0  0  0  0  0  0  0  0  0  0
    0.0544    4.8538   17.1645 C   0  0  0  0  0  0  0  0  0  0  0  0
    0.4694    3.7815   16.4683 N   0  0  0  0  0  0  0  0  0  0  0  0
   -2.7309    7.2741   16.9413 H   0  0  0  0  0  0  0  0  0  0  0  0
   -1.0634    9.9058   15.2077 H   0  0  0  0  0  0  0  0  0  0  0  0
    2.6001    8.9757   15.9004 H   0  0  0  0  0  0  0  0  0  0  0  0
    0.0251    5.8620   14.6271 H   0  0  0  0  0  0  0  0  0  0  0  0
   -0.3030    2.6690   15.8489 C   0  0  0  0  0  0  0  0  0  0  0  0
    0.2529    2.3133   14.4846 C   0  0  0  0  0  0  0  0  0  0  0  0
   -0.4446    2.9568   13.2966 C   0  0  0  0  0  0  0  0  0  0  0  0
    0.5080    3.5054   12.2417 C   0  0  0  0  0  0  0  0  0  0  0  0
    0.3827    2.6617   10.9755 C   0  0  0  0  0  0  0  0  0  0  0  0
    1.6482    1.8287   10.8003 C   0  0  0  0  0  0  0  0  0  0  0  0
    1.4705    0.4365   11.3779 C   0  0  0  0  0  0  0  0  0  0  0  0
    2.7824   -0.0742   11.9354 C   0  0  0  0  0  0  0  0  0  0  0  0
  1  2  1  0  0  0
  2  3  1  0  0  0
  3  4  1  0  0  0
  4  5  1  0  0  0
  2  6  1  0  0  0
  6  7  1  0  0  0
  6  8  1  0  0  0
  8  9  1  0  0  0
  8 10  1  0  0  0
 10 11  1  0  0  0
  3 12  1  0  0  0
 10 12  1  0  0  0
  5 13  1  0  0  0
 12 13  1  0  0  0
 13 14  2  0  0  0
 14 19  1  0  0  0
 19 20  1  0  0  0
 20 21  1  0  0  0
 21 22  1  0  0  0
 22 23  1  0  0  0
 23 24  1  0  0  0
 24 25  1  0  0  0
 25 26  1  0  0  0
  1 15  1  0  0  0
  7 16  1  0  0  0
  9 17  1  0  0  0
 11 18  1  0  0  0
M  END
> <minimizedAffinity>
-8.64500

$$$$
2WC3_AM3_A_1446


 26 27  0  0  0  0  0  0  0  0999 V2000
   -2.2880    8.6867   16.8497 O   0  0  0  0  0  0  0  0  0  0  0  0
   -1.0629    8.9340   17.5511 C   0  0  0  0  0  0  0  0  0  0  0  0
   -0.5864    7.6750   18.3097 C   0  0  0  0  0  0  0  0  0  0  0  0
   -1.6368    7.0141   19.2379 C   0  0  0  0  0  0  0  0  0  0  0  0
   -1.5757    5.6242   18.8239 O   0  0  0  0  0  0  0  0  0  0  0  0
    0.0993    9.3659   16.6381 C   0  0  0  0  0  0  0  0  0  0  0  0
   -0.1930   10.5686   15.9583 O   0  0  0  0  0  0  0  0  0  0  0  0
    0.5234    8.3242   15.5904 C   0  0  0  0  0  0  0  0  0  0  0  0
    1.8319    8.7044   15.0982 O   0  0  0  0  0  0  0  0  0  0  0  0
    0.6234    6.8994   16.1666 C   0  0  0  0  0  0  0  0  0  0  0  0
    0.0625    5.9973   15.2328 O   0  0  0  0  0  0  0  0  0  0  0  0
   -0.2194    6.6428   17.3322 N   0  0  0  0  0  0  0  0  0  0  0  0
   -0.8150    5.4294   17.7249 C   0  0  0  0  0  0  0  0  0  0  0  0
   -0.7341    4.2356   17.1124 N   0  0  0  0  0  0  0  0  0  0  0  0
   -2.9741    8.4201   17.4814 H   0  0  0  0  0  0  0  0  0  0  0  0
   -0.9356   10.4246   15.3511 H   0  0  0  0  0  0  0  0  0  0  0  0
    2.4662    8.7034   15.8320 H   0  0  0  0  0  0  0  0  0  0  0  0
   -0.8768    6.2043   15.1074 H   0  0  0  0  0  0  0  0  0  0  0  0
   -1.8030    3.2939   16.6783 C   0  0  0  0  0  0  0  0  0  0  0  0
   -1.2154    1.9675   16.2399 C   0  0  0  0  0  0  0  0  0  0  0  0
   -0.0128    2.0494   15.3131 C   0  0  0  0  0  0  0  0  0  0  0  0
   -0.2290    1.3878   13.9579 C   0  0  0  0  0  0  0  0  0  0  0  0
    1.1177    1.2580   13.2505 C   0  0  0  0  0  0  0  0  0  0  0  0
    1.4707    2.5891   12.5951 C   0  0  0  0  0  0  0  0  0  0  0  0
    0.4053    3.0072   11.5985 C   0  0  0  0  0  0  0  0  0  0  0  0
    0.7736    2.5401   10.2061 C   0  0  0  0  0  0  0  0  0  0  0  0
  1  2  1  0  0  0
  2  3  1  0  0  0
  3  4  1  0  0  0
  4  5  1  0  0  0
  2  6  1  0  0  0
  6  7  1  0  0  0
  6  8  1  0  0  0
  8  9  1  0  0  0
  8 10  1  0  0  0
 10 11  1  0  0  0
  3 12  1  0  0  0
 10 12  1  0  0  0
  5 13  1  0  0  0
 12 13  1  0  0  0
 13 14  2  0  0  0
 14 19  1  0  0  0
 19 20  1  0  0  0
 20 21  1  0  0  0
 21 22  1  0  0  0
 22 23  1  0  0  0
 23 24  1  0  0  0
 24 25  1  0  0  0
 25 26  1  0  0  0
  1 15  1  0  0  0
  7 16  1  0  0  0
  9 17  1  0  0  0
 11 18  1  0  0  0
M  END
> <minimizedAffinity>
-8.13099

$$$$
2WC3_AM3_A_1446


 26 27  0  0  0  0  0  0  0  0999 V2000
    1.4459    8.0363   17.4398 O   0  0  0  0  0  0  0  0  0  0  0  0
    0.1957    8.7364   17.4652 C   0  0  0  0  0  0  0  0  0  0  0  0
   -0.8023    8.1401   16.4475 C   0  0  0  0  0  0  0  0  0  0  0  0
   -0.2744    7.9940   14.9978 C   0  0  0  0  0  0  0  0  0  0  0  0
   -0.6059    6.6143   14.6918 O   0  0  0  0  0  0  0  0  0  0  0  0
   -0.5033    8.7098   18.8369 C   0  0  0  0  0  0  0  0  0  0  0  0
    0.2879    9.3189   19.8354 O   0  0  0  0  0  0  0  0  0  0  0  0
   -0.8982    7.3112   19.3373 C   0  0  0  0  0  0  0  0  0  0  0  0
   -1.8614    7.4830   20.4058 O   0  0  0  0  0  0  0  0  0  0  0  0
   -1.5462    6.4427   18.2428 C   0  0  0  0  0  0  0  0  0  0  0  0
   -1.0266    5.1311   18.3445 O   0  0  0  0  0  0  0  0  0  0  0  0
   -1.1612    6.7821   16.8748 N   0  0  0  0  0  0  0  0  0  0  0  0
   -1.0598    5.9264   15.7619 C   0  0  0  0  0  0  0  0  0  0  0  0
   -1.3003    4.6048   15.7140 N   0  0  0  0  0  0  0  0  0  0  0  0
    1.8300    8.0926   16.5509 H   0  0  0  0  0  0  0  0  0  0  0  0
    1.0972    8.8007   19.9675 H   0  0  0  0  0  0  0  0  0  0  0  0
   -2.6463    7.9387   20.0633 H   0  0  0  0  0  0  0  0  0  0  0  0
   -0.0700    5.1491   18.1851 H   0  0  0  0  0  0  0  0  0  0  0  0
   -0.4611    3.4840   15.2067 C   0  0  0  0  0  0  0  0  0  0  0  0
   -0.7579    3.1979   13.7483 C   0  0  0  0  0  0  0  0  0  0  0  0
    0.2737    3.7013   12.7511 C   0  0  0  0  0  0  0  0  0  0  0  0
    1.3312    2.6693   12.3799 C   0  0  0  0  0  0  0  0  0  0  0  0
    0.6858    1.2859   12.3573 C   0  0  0  0  0  0  0  0  0  0  0  0
    1.4580    0.3874   11.3969 C   0  0  0  0  0  0  0  0  0  0  0  0
    2.8506    0.0933   11.9238 C   0  0  0  0  0  0  0  0  0  0  0  0
    2.7820   -0.3735   13.3626 C   0  0  0  0  0  0  0  0  0  0  0  0
  1  2  1  0  0  0
  2  3  1  0  0  0
  3  4  1  0  0  0
  4  5  1  0  0  0
  2  6  1  0  0  0
  6  7  1  0  0  0
  6  8  1  0  0  0
  8  9  1  0  0  0
  8 10  1  0  0  0
 10 11  1  0  0  0
  3 12  1  0  0  0
 10 12  1  0  0  0
  5 13  1  0  0  0
 12 13  1  0  0  0
 13 14  2  0  0  0
 14 19  1  0  0  0
 19 20  1  0  0  0
 20 21  1  0  0  0
 21 22  1  0  0  0
 22 23  1  0  0  0
 23 24  1  0  0  0
 24 25  1  0  0  0
 25 26  1  0  0  0
  1 15  1  0  0  0
  7 16  1  0  0  0
  9 17  1  0  0  0
 11 18  1  0  0  0
M  END
> <minimizedAffinity>
-7.60018

$$$$
2WC3_AM3_A_1446


 26 27  0  0  0  0  0  0  0  0999 V2000
    2.2810    1.3955   14.0989 O   0  0  0  0  0  0  0  0  0  0  0  0
    1.2112    0.6268   13.5345 C   0  0  0  0  0  0  0  0  0  0  0  0
   -0.1657    1.2005   13.9378 C   0  0  0  0  0  0  0  0  0  0  0  0
   -0.3802    1.4237   15.4563 C   0  0  0  0  0  0  0  0  0  0  0  0
   -0.8621    2.7924   15.4967 O   0  0  0  0  0  0  0  0  0  0  0  0
    1.2322    0.5691   11.9961 C   0  0  0  0  0  0  0  0  0  0  0  0
    2.4177   -0.0281   11.5144 O   0  0  0  0  0  0  0  0  0  0  0  0
    1.0698    1.9263   11.2931 C   0  0  0  0  0  0  0  0  0  0  0  0
    0.7226    1.6660    9.9109 O   0  0  0  0  0  0  0  0  0  0  0  0
   -0.0426    2.7936   11.9117 C   0  0  0  0  0  0  0  0  0  0  0  0
    0.4202    4.1277   11.9907 O   0  0  0  0  0  0  0  0  0  0  0  0
   -0.3290    2.5216   13.3184 N   0  0  0  0  0  0  0  0  0  0  0  0
   -0.7871    3.4182   14.3020 C   0  0  0  0  0  0  0  0  0  0  0  0
   -1.0663    4.7253   14.1597 N   0  0  0  0  0  0  0  0  0  0  0  0
    2.2077    1.3902   15.0662 H   0  0  0  0  0  0  0  0  0  0  0  0
    3.1773    0.5294   11.7449 H   0  0  0  0  0  0  0  0  0  0  0  0
   -0.1157    1.1793    9.8742 H   0  0  0  0  0  0  0  0  0  0  0  0
    1.1920    4.1680   12.5768 H   0  0  0  0  0  0  0  0  0  0  0  0
   -0.5987    5.9071   14.9359 C   0  0  0  0  0  0  0  0  0  0  0  0
    0.9030    5.8674   15.1368 C   0  0  0  0  0  0  0  0  0  0  0  0
    1.5005    7.0384   15.9009 C   0  0  0  0  0  0  0  0  0  0  0  0
    0.8313    8.3753   15.6076 C   0  0  0  0  0  0  0  0  0  0  0  0
    0.1590    8.8817   16.8813 C   0  0  0  0  0  0  0  0  0  0  0  0
    0.6560    8.0654   18.0698 C   0  0  0  0  0  0  0  0  0  0  0  0
   -0.4927    7.6678   18.9785 C   0  0  0  0  0  0  0  0  0  0  0  0
   -1.8192    7.9443   18.3028 C   0  0  0  0  0  0  0  0  0  0  0  0
  1  2  1  0  0  0
  2  3  1  0  0  0
  3  4  1  0  0  0
  4  5  1  0  0  0
  2  6  1  0  0  0
  6  7  1  0  0  0
  6  8  1  0  0  0
  8  9  1  0  0  0
  8 10  1  0  0  0
 10 11  1  0  0  0
  3 12  1  0  0  0
 10 12  1  0  0  0
  5 13  1  0  0  0
 12 13  1  0  0  0
 13 14  2  0  0  0
 14 19  1  0  0  0
 19 20  1  0  0  0
 20 21  1  0  0  0
 21 22  1  0  0  0
 22 23  1  0  0  0
 23 24  1  0  0  0
 24 25  1  0  0  0
 25 26  1  0  0  0
  1 15  1  0  0  0
  7 16  1  0  0  0
  9 17  1  0  0  0
 11 18  1  0  0  0
M  END
> <minimizedAffinity>
-7.59380

$$$$
2WC3_AM3_A_1446


 26 27  0  0  0  0  0  0  0  0999 V2000
   -2.1393    8.5635   16.6274 O   0  0  0  0  0  0  0  0  0  0  0  0
   -0.9640    8.9268   17.3628 C   0  0  0  0  0  0  0  0  0  0  0  0
   -0.4315    7.7374   18.1931 C   0  0  0  0  0  0  0  0  0  0  0  0
   -1.4697    7.0413   19.1092 C   0  0  0  0  0  0  0  0  0  0  0  0
   -1.2945    5.6436   18.7590 O   0  0  0  0  0  0  0  0  0  0  0  0
    0.2011    9.4033   16.4762 C   0  0  0  0  0  0  0  0  0  0  0  0
   -0.1471   10.5530   15.7339 O   0  0  0  0  0  0  0  0  0  0  0  0
    0.7395    8.3527   15.4917 C   0  0  0  0  0  0  0  0  0  0  0  0
    2.0369    8.8055   15.0328 O   0  0  0  0  0  0  0  0  0  0  0  0
    0.9158    6.9636   16.1330 C   0  0  0  0  0  0  0  0  0  0  0  0
    0.4580    5.9861   15.2191 O   0  0  0  0  0  0  0  0  0  0  0  0
    0.0464    6.6951   17.2762 N   0  0  0  0  0  0  0  0  0  0  0  0
   -0.4779    5.4591   17.6989 C   0  0  0  0  0  0  0  0  0  0  0  0
   -0.2887    4.2502   17.1428 N   0  0  0  0  0  0  0  0  0  0  0  0
   -2.8301    8.2745   17.2439 H   0  0  0  0  0  0  0  0  0  0  0  0
   -0.8524   10.3312   15.1061 H   0  0  0  0  0  0  0  0  0  0  0  0
    2.6395    8.8802   15.7893 H   0  0  0  0  0  0  0  0  0  0  0  0
   -0.4877    6.1197   15.0496 H   0  0  0  0  0  0  0  0  0  0  0  0
   -1.2703    3.2171   16.7104 C   0  0  0  0  0  0  0  0  0  0  0  0
   -0.5659    1.9792   16.1922 C   0  0  0  0  0  0  0  0  0  0  0  0
   -1.0267    1.4742   14.8341 C   0  0  0  0  0  0  0  0  0  0  0  0
   -2.1925    2.2584   14.2447 C   0  0  0  0  0  0  0  0  0  0  0  0
   -3.3805    1.3168   14.0634 C   0  0  0  0  0  0  0  0  0  0  0  0
   -4.3711    1.9410   13.0862 C   0  0  0  0  0  0  0  0  0  0  0  0
   -5.5296    1.0012   12.8072 C   0  0  0  0  0  0  0  0  0  0  0  0
   -5.1070   -0.4362   13.0269 C   0  0  0  0  0  0  0  0  0  0  0  0
  1  2  1  0  0  0
  2  3  1  0  0  0
  3  4  1  0  0  0
  4  5  1  0  0  0
  2  6  1  0  0  0
  6  7  1  0  0  0
  6  8  1  0  0  0
  8  9  1  0  0  0
  8 10  1  0  0  0
 10 11  1  0  0  0
  3 12  1  0  0  0
 10 12  1  0  0  0
  5 13  1  0  0  0
 12 13  1  0  0  0
 13 14  2  0  0  0
 14 19  1  0  0  0
 19 20  1  0  0  0
 20 21  1  0  0  0
 21 22  1  0  0  0
 22 23  1  0  0  0
 23 24  1  0  0  0
 24 25  1  0  0  0
 25 26  1  0  0  0
  1 15  1  0  0  0
  7 16  1  0  0  0
  9 17  1  0  0  0
 11 18  1  0  0  0
M  END
> <minimizedAffinity>
-7.42228

$$$$
2WC3_AM3_A_1446


 26 27  0  0  0  0  0  0  0  0999 V2000
   -0.6980    7.5865   14.3721 O   0  0  0  0  0  0  0  0  0  0  0  0
   -1.2864    8.1089   15.5699 C   0  0  0  0  0  0  0  0  0  0  0  0
   -2.2031    7.0652   16.2464 C   0  0  0  0  0  0  0  0  0  0  0  0
   -3.2768    6.4231   15.3318 C   0  0  0  0  0  0  0  0  0  0  0  0
   -3.0791    5.0067   15.5798 O   0  0  0  0  0  0  0  0  0  0  0  0
   -0.2570    8.5449   16.6287 C   0  0  0  0  0  0  0  0  0  0  0  0
    0.5832    9.5716   16.1449 O   0  0  0  0  0  0  0  0  0  0  0  0
    0.6391    7.4175   17.1659 C   0  0  0  0  0  0  0  0  0  0  0  0
    1.2532    7.8904   18.3898 O   0  0  0  0  0  0  0  0  0  0  0  0
   -0.1434    6.1306   17.4883 C   0  0  0  0  0  0  0  0  0  0  0  0
    0.6091    5.0223   17.0346 O   0  0  0  0  0  0  0  0  0  0  0  0
   -1.3780    5.9503   16.7279 N   0  0  0  0  0  0  0  0  0  0  0  0
   -1.9840    4.7451   16.3262 C   0  0  0  0  0  0  0  0  0  0  0  0
   -1.5592    3.4914   16.5593 N   0  0  0  0  0  0  0  0  0  0  0  0
   -1.3990    7.3326   13.7516 H   0  0  0  0  0  0  0  0  0  0  0  0
    1.1204    9.2316   15.4124 H   0  0  0  0  0  0  0  0  0  0  0  0
    0.5630    8.0940   19.0402 H   0  0  0  0  0  0  0  0  0  0  0  0
    0.7144    5.0754   16.0718 H   0  0  0  0  0  0  0  0  0  0  0  0
   -1.3330    2.3544   15.6245 C   0  0  0  0  0  0  0  0  0  0  0  0
   -0.2066    2.6598   14.6576 C   0  0  0  0  0  0  0  0  0  0  0  0
   -0.5935    3.4507   13.4181 C   0  0  0  0  0  0  0  0  0  0  0  0
    0.5622    3.7009   12.4573 C   0  0  0  0  0  0  0  0  0  0  0  0
    0.2784    2.9772   11.1433 C   0  0  0  0  0  0  0  0  0  0  0  0
    1.3932    1.9721   10.8731 C   0  0  0  0  0  0  0  0  0  0  0  0
    1.3138    0.7973   11.8305 C   0  0  0  0  0  0  0  0  0  0  0  0
    2.6115    0.0172   11.8164 C   0  0  0  0  0  0  0  0  0  0  0  0
  1  2  1  0  0  0
  2  3  1  0  0  0
  3  4  1  0  0  0
  4  5  1  0  0  0
  2  6  1  0  0  0
  6  7  1  0  0  0
  6  8  1  0  0  0
  8  9  1  0  0  0
  8 10  1  0  0  0
 10 11  1  0  0  0
  3 12  1  0  0  0
 10 12  1  0  0  0
  5 13  1  0  0  0
 12 13  1  0  0  0
 13 14  2  0  0  0
 14 19  1  0  0  0
 19 20  1  0  0  0
 20 21  1  0  0  0
 21 22  1  0  0  0
 22 23  1  0  0  0
 23 24  1  0  0  0
 24 25  1  0  0  0
 25 26  1  0  0  0
  1 15  1  0  0  0
  7 16  1  0  0  0
  9 17  1  0  0  0
 11 18  1  0  0  0
M  END
> <minimizedAffinity>
-7.42045

$$$$
2WC3_AM3_A_1446


 26 27  0  0  0  0  0  0  0  0999 V2000
   -1.0840    0.4020   14.6959 O   0  0  0  0  0  0  0  0  0  0  0  0
   -0.8350    1.0680   13.4515 C   0  0  0  0  0  0  0  0  0  0  0  0
   -1.4601    2.4810   13.4362 C   0  0  0  0  0  0  0  0  0  0  0  0
   -2.9605    2.5543   13.8175 C   0  0  0  0  0  0  0  0  0  0  0  0
   -2.9668    3.5992   14.8250 O   0  0  0  0  0  0  0  0  0  0  0  0
    0.6603    1.2431   13.1291 C   0  0  0  0  0  0  0  0  0  0  0  0
    1.3193   -0.0017   13.0266 O   0  0  0  0  0  0  0  0  0  0  0  0
    1.4431    2.1090   14.1292 C   0  0  0  0  0  0  0  0  0  0  0  0
    2.6893    2.4916   13.4972 O   0  0  0  0  0  0  0  0  0  0  0  0
    0.6928    3.3939   14.5268 C   0  0  0  0  0  0  0  0  0  0  0  0
    0.8439    3.5891   15.9195 O   0  0  0  0  0  0  0  0  0  0  0  0
   -0.7624    3.3190   14.4193 N   0  0  0  0  0  0  0  0  0  0  0  0
   -1.7275    3.9916   15.1923 C   0  0  0  0  0  0  0  0  0  0  0  0
   -1.5195    4.8566   16.1998 N   0  0  0  0  0  0  0  0  0  0  0  0
   -2.0408    0.3254   14.8358 H   0  0  0  0  0  0  0  0  0  0  0  0
    1.3092   -0.4449   13.8894 H   0  0  0  0  0  0  0  0  0  0  0  0
    2.5012    3.0085   12.6982 H   0  0  0  0  0  0  0  0  0  0  0  0
    0.4398    2.8470   16.3957 H   0  0  0  0  0  0  0  0  0  0  0  0
   -2.0606    4.8779   17.5871 C   0  0  0  0  0  0  0  0  0  0  0  0
   -1.5931    6.1101   18.3354 C   0  0  0  0  0  0  0  0  0  0  0  0
   -0.1147    6.4417   18.2079 C   0  0  0  0  0  0  0  0  0  0  0  0
    0.1629    7.8066   17.5905 C   0  0  0  0  0  0  0  0  0  0  0  0
    1.2178    7.6498   16.4980 C   0  0  0  0  0  0  0  0  0  0  0  0
    0.5235    7.4623   15.1531 C   0  0  0  0  0  0  0  0  0  0  0  0
   -0.5545    8.5098   14.9438 C   0  0  0  0  0  0  0  0  0  0  0  0
   -1.7467    7.9046   14.2330 C   0  0  0  0  0  0  0  0  0  0  0  0
  1  2  1  0  0  0
  2  3  1  0  0  0
  3  4  1  0  0  0
  4  5  1  0  0  0
  2  6  1  0  0  0
  6  7  1  0  0  0
  6  8  1  0  0  0
  8  9  1  0  0  0
  8 10  1  0  0  0
 10 11  1  0  0  0
  3 12  1  0  0  0
 10 12  1  0  0  0
  5 13  1  0  0  0
 12 13  1  0  0  0
 13 14  2  0  0  0
 14 19  1  0  0  0
 19 20  1  0  0  0
 20 21  1  0  0  0
 21 22  1  0  0  0
 22 23  1  0  0  0
 23 24  1  0  0  0
 24 25  1  0  0  0
 25 26  1  0  0  0
  1 15  1  0  0  0
  7 16  1  0  0  0
  9 17  1  0  0  0
 11 18  1  0  0  0
M  END
> <minimizedAffinity>
-7.39050

$$$$
