4DBM_0J0_A_302


 29 33  0  0  0  0  0  0  0  0999 V2000
  -25.1323   22.0501   -9.0218 C   0  0  0  0  0  0  0  0  0  0  0  0
  -25.4202   20.8095   -9.8174 C   0  0  0  0  0  0  0  0  0  0  0  0
  -25.7381   19.8057   -8.8531 N   0  0  0  0  0  0  0  0  0  0  0  0
  -25.6682   20.3785   -7.5882 N   0  0  0  0  0  0  0  0  0  0  0  0
  -25.3207   21.6517   -7.6242 N   0  0  0  0  0  0  0  0  0  0  0  0
  -25.1119   22.6174   -6.5170 C   0  0  0  0  0  0  0  0  0  0  0  0
  -25.8972   24.8528   -5.6436 C   0  0  0  0  0  0  0  0  0  0  0  0
  -25.8543   23.0853   -4.1589 C   0  0  0  0  0  0  0  0  0  0  0  0
  -25.6191   22.0394   -5.1845 C   0  0  0  0  0  0  0  0  0  0  0  0
  -27.0110   25.0380   -3.5944 C   0  0  0  0  0  0  0  0  0  0  0  0
  -24.6886   23.8714   -3.9549 C   0  0  0  0  0  0  0  0  0  0  0  0
  -24.6639   24.8826   -4.9002 C   0  0  0  0  0  0  0  0  0  0  0  0
  -26.6139   24.1396   -4.6795 N   0  0  0  0  0  0  0  0  0  0  0  0
  -27.9150   23.6850   -5.1623 C   0  0  0  0  0  0  0  0  0  0  0  0
  -25.6797   24.0547   -6.8526 C   0  0  0  0  0  0  0  0  0  0  0  0
  -25.3732   20.6347  -11.3343 C   0  0  0  0  0  0  0  0  0  0  0  0
  -24.0598   20.7727  -11.8531 O   0  0  0  0  0  0  0  0  0  0  0  0
  -23.5442   24.4589  -12.8237 C   0  0  0  0  0  0  0  0  0  0  0  0
  -24.2267   25.3945  -13.2136 O   0  0  0  0  0  0  0  0  0  0  0  0
  -22.1203   24.6467  -12.6206 N   0  0  0  0  0  0  0  0  0  0  0  0
  -21.5434   25.9176  -12.8838 C   0  0  0  0  0  0  0  0  0  0  0  0
  -24.1743   23.1049  -12.5518 C   0  0  0  0  0  0  0  0  0  0  0  0
  -23.3709   21.9748  -12.0813 C   0  0  0  0  0  0  0  0  0  0  0  0
  -21.9014   22.1786  -11.8773 C   0  0  0  0  0  0  0  0  0  0  0  0
  -20.9910   21.0633  -11.3959 C   0  0  0  0  0  0  0  0  0  0  0  0
  -19.5238   21.2924  -11.1968 C   0  0  0  0  0  0  0  0  0  0  0  0
  -18.9197   22.6282  -11.4724 C   0  0  0  0  0  0  0  0  0  0  0  0
  -19.8402   23.7532  -11.9522 C   0  0  0  0  0  0  0  0  0  0  0  0
  -21.2960   23.5278  -12.1526 C   0  0  0  0  0  0  0  0  0  0  0  0
  1  2  2  0  0  0
  1  5  1  0  0  0
  6  9  1  0  0  0
  6  5  1  0  0  0
  6 15  1  0  0  0
  7 12  1  0  0  0
  7 13  1  0  0  0
  7 15  1  0  0  0
  8  9  1  0  0  0
  8 11  1  0  0  0
  8 13  1  0  0  0
 10 13  1  0  0  0
 18 19  2  0  0  0
 18 20  1  0  0  0
 18 22  1  0  0  0
 20 21  1  0  0  0
 20 29  1  0  0  0
 22 23  2  0  0  0
 23 24  1  0  0  0
 23 17  1  0  0  0
 24 25  2  0  0  0
 24 29  1  0  0  0
 25 26  1  0  0  0
 26 27  2  0  0  0
 27 28  1  0  0  0
 28 29  2  0  0  0
 17 16  1  0  0  0
 16  2  1  0  0  0
  2  3  1  0  0  0
  3  4  2  0  0  0
  4  5  1  0  0  0
 11 12  1  0  0  0
 13 14  1  0  0  0
M  CHG 1  13   1
M  END
> <minimizedAffinity>
-8.54802

$$$$
4DBM_0J0_A_302


 29 33  0  0  0  0  0  0  0  0999 V2000
  -25.6303   23.4294   -7.6500 C   0  0  0  0  0  0  0  0  0  0  0  0
  -26.2212   23.2437   -6.2820 C   0  0  0  0  0  0  0  0  0  0  0  0
  -26.0611   21.8565   -5.9847 N   0  0  0  0  0  0  0  0  0  0  0  0
  -25.4192   21.2514   -7.0593 N   0  0  0  0  0  0  0  0  0  0  0  0
  -25.1569   22.0979   -8.0380 N   0  0  0  0  0  0  0  0  0  0  0  0
  -24.5118   21.8672   -9.3544 C   0  0  0  0  0  0  0  0  0  0  0  0
  -24.9336   22.0264  -11.8390 C   0  0  0  0  0  0  0  0  0  0  0  0
  -23.0043   22.9965  -11.0225 C   0  0  0  0  0  0  0  0  0  0  0  0
  -23.3760   22.8775   -9.5912 C   0  0  0  0  0  0  0  0  0  0  0  0
  -23.7242   23.5063  -13.1885 C   0  0  0  0  0  0  0  0  0  0  0  0
  -22.6720   21.7287  -11.5707 C   0  0  0  0  0  0  0  0  0  0  0  0
  -23.8369   21.1040  -11.9827 C   0  0  0  0  0  0  0  0  0  0  0  0
  -24.1379   23.1746  -11.8243 N   0  0  0  0  0  0  0  0  0  0  0  0
  -24.8823   24.3750  -11.4534 C   0  0  0  0  0  0  0  0  0  0  0  0
  -25.5598   21.7885  -10.5361 C   0  0  0  0  0  0  0  0  0  0  0  0
  -26.8729   24.2985   -5.3896 C   0  0  0  0  0  0  0  0  0  0  0  0
  -25.9834   25.3551   -5.0646 O   0  0  0  0  0  0  0  0  0  0  0  0
  -22.8589   24.4014   -3.0335 C   0  0  0  0  0  0  0  0  0  0  0  0
  -22.6046   23.8634   -1.9663 O   0  0  0  0  0  0  0  0  0  0  0  0
  -21.7746   24.8573   -3.8823 N   0  0  0  0  0  0  0  0  0  0  0  0
  -20.4332   24.6731   -3.4535 C   0  0  0  0  0  0  0  0  0  0  0  0
  -24.2980   24.5962   -3.4758 C   0  0  0  0  0  0  0  0  0  0  0  0
  -24.6193   25.2361   -4.7530 C   0  0  0  0  0  0  0  0  0  0  0  0
  -23.4926   25.7054   -5.6205 C   0  0  0  0  0  0  0  0  0  0  0  0
  -23.7317   26.3823   -6.9581 C   0  0  0  0  0  0  0  0  0  0  0  0
  -22.5875   26.8410   -7.8098 C   0  0  0  0  0  0  0  0  0  0  0  0
  -21.1791   26.6455   -7.3585 C   0  0  0  0  0  0  0  0  0  0  0  0
  -20.9398   25.9576   -6.0122 C   0  0  0  0  0  0  0  0  0  0  0  0
  -22.0735   25.5035   -5.1643 C   0  0  0  0  0  0  0  0  0  0  0  0
  1  2  2  0  0  0
  1  5  1  0  0  0
  6  9  1  0  0  0
  6  5  1  0  0  0
  6 15  1  0  0  0
  7 12  1  0  0  0
  7 13  1  0  0  0
  7 15  1  0  0  0
  8  9  1  0  0  0
  8 11  1  0  0  0
  8 13  1  0  0  0
 10 13  1  0  0  0
 18 19  2  0  0  0
 18 20  1  0  0  0
 18 22  1  0  0  0
 20 21  1  0  0  0
 20 29  1  0  0  0
 22 23  2  0  0  0
 23 24  1  0  0  0
 23 17  1  0  0  0
 24 25  2  0  0  0
 24 29  1  0  0  0
 25 26  1  0  0  0
 26 27  2  0  0  0
 27 28  1  0  0  0
 28 29  2  0  0  0
 17 16  1  0  0  0
 16  2  1  0  0  0
  2  3  1  0  0  0
  3  4  2  0  0  0
  4  5  1  0  0  0
 11 12  1  0  0  0
 13 14  1  0  0  0
M  CHG 1  13   1
M  END
> <minimizedAffinity>
-8.49473

$$$$
4DBM_0J0_A_302


 29 33  0  0  0  0  0  0  0  0999 V2000
  -22.6487   23.7120   -7.2423 C   0  0  0  0  0  0  0  0  0  0  0  0
  -22.1117   24.4195   -6.0316 C   0  0  0  0  0  0  0  0  0  0  0  0
  -22.2930   25.8112   -6.2940 N   0  0  0  0  0  0  0  0  0  0  0  0
  -22.8978   25.9451   -7.5386 N   0  0  0  0  0  0  0  0  0  0  0  0
  -23.1165   24.7832   -8.1262 N   0  0  0  0  0  0  0  0  0  0  0  0
  -23.7125   24.4787   -9.4507 C   0  0  0  0  0  0  0  0  0  0  0  0
  -23.7502   22.7247  -11.2668 C   0  0  0  0  0  0  0  0  0  0  0  0
  -25.7827   23.4949  -10.4884 C   0  0  0  0  0  0  0  0  0  0  0  0
  -25.2250   24.2269   -9.3247 C   0  0  0  0  0  0  0  0  0  0  0  0
  -25.7066   21.5530  -11.7896 C   0  0  0  0  0  0  0  0  0  0  0  0
  -25.4842   24.1660  -11.7044 C   0  0  0  0  0  0  0  0  0  0  0  0
  -24.2268   23.7736  -12.1310 C   0  0  0  0  0  0  0  0  0  0  0  0
  -25.0127   22.3650  -10.7889 N   0  0  0  0  0  0  0  0  0  0  0  0
  -24.9491   21.4361   -9.6639 C   0  0  0  0  0  0  0  0  0  0  0  0
  -22.9317   23.3372  -10.2175 C   0  0  0  0  0  0  0  0  0  0  0  0
  -21.4869   23.8007   -4.7824 C   0  0  0  0  0  0  0  0  0  0  0  0
  -22.4488   23.1631   -3.9569 O   0  0  0  0  0  0  0  0  0  0  0  0
  -24.3890   25.2826   -1.3997 C   0  0  0  0  0  0  0  0  0  0  0  0
  -24.1416   25.9527   -0.4082 O   0  0  0  0  0  0  0  0  0  0  0  0
  -25.7589   25.1670   -1.8625 N   0  0  0  0  0  0  0  0  0  0  0  0
  -26.7908   25.8335   -1.1497 C   0  0  0  0  0  0  0  0  0  0  0  0
  -23.2759   24.5717   -2.1480 C   0  0  0  0  0  0  0  0  0  0  0  0
  -23.5555   23.7677   -3.3393 C   0  0  0  0  0  0  0  0  0  0  0  0
  -24.9734   23.6527   -3.8072 C   0  0  0  0  0  0  0  0  0  0  0  0
  -25.3565   22.8380   -5.0295 C   0  0  0  0  0  0  0  0  0  0  0  0
  -26.7822   22.7401   -5.4797 C   0  0  0  0  0  0  0  0  0  0  0  0
  -27.8647   23.4419   -4.7306 C   0  0  0  0  0  0  0  0  0  0  0  0
  -27.4758   24.2677   -3.5018 C   0  0  0  0  0  0  0  0  0  0  0  0
  -26.0621   24.3645   -3.0518 C   0  0  0  0  0  0  0  0  0  0  0  0
  1  2  2  0  0  0
  1  5  1  0  0  0
  6  9  1  0  0  0
  6  5  1  0  0  0
  6 15  1  0  0  0
  7 12  1  0  0  0
  7 13  1  0  0  0
  7 15  1  0  0  0
  8  9  1  0  0  0
  8 11  1  0  0  0
  8 13  1  0  0  0
 10 13  1  0  0  0
 18 19  2  0  0  0
 18 20  1  0  0  0
 18 22  1  0  0  0
 20 21  1  0  0  0
 20 29  1  0  0  0
 22 23  2  0  0  0
 23 24  1  0  0  0
 23 17  1  0  0  0
 24 25  2  0  0  0
 24 29  1  0  0  0
 25 26  1  0  0  0
 26 27  2  0  0  0
 27 28  1  0  0  0
 28 29  2  0  0  0
 17 16  1  0  0  0
 16  2  1  0  0  0
  2  3  1  0  0  0
  3  4  2  0  0  0
  4  5  1  0  0  0
 11 12  1  0  0  0
 13 14  1  0  0  0
M  CHG 1  13   1
M  END
> <minimizedAffinity>
-8.43185

$$$$
4DBM_0J0_A_302


 29 33  0  0  0  0  0  0  0  0999 V2000
  -25.7342   24.2570   -8.6596 C   0  0  0  0  0  0  0  0  0  0  0  0
  -25.0161   23.5420   -9.7678 C   0  0  0  0  0  0  0  0  0  0  0  0
  -24.5799   22.3061   -9.2015 N   0  0  0  0  0  0  0  0  0  0  0  0
  -25.0032   22.2591   -7.8781 N   0  0  0  0  0  0  0  0  0  0  0  0
  -25.6585   23.3460   -7.5143 N   0  0  0  0  0  0  0  0  0  0  0  0
  -26.2541   23.7099   -6.2046 C   0  0  0  0  0  0  0  0  0  0  0  0
  -26.3086   23.0202   -3.7761 C   0  0  0  0  0  0  0  0  0  0  0  0
  -25.8863   25.2415   -4.2427 C   0  0  0  0  0  0  0  0  0  0  0  0
  -25.6892   25.0492   -5.7005 C   0  0  0  0  0  0  0  0  0  0  0  0
  -25.4751   24.4159   -2.0935 C   0  0  0  0  0  0  0  0  0  0  0  0
  -27.2563   25.1093   -3.8909 C   0  0  0  0  0  0  0  0  0  0  0  0
  -27.5371   23.7677   -3.6954 C   0  0  0  0  0  0  0  0  0  0  0  0
  -25.4742   24.1122   -3.5252 N   0  0  0  0  0  0  0  0  0  0  0  0
  -24.0632   23.8107   -3.7506 C   0  0  0  0  0  0  0  0  0  0  0  0
  -26.1616   22.5348   -5.1505 C   0  0  0  0  0  0  0  0  0  0  0  0
  -24.7792   24.0242  -11.1978 C   0  0  0  0  0  0  0  0  0  0  0  0
  -23.8183   25.0661  -11.2639 O   0  0  0  0  0  0  0  0  0  0  0  0
  -20.0823   24.1827  -11.5065 C   0  0  0  0  0  0  0  0  0  0  0  0
  -19.3356   23.6234  -12.2956 O   0  0  0  0  0  0  0  0  0  0  0  0
  -19.5461   24.7192  -10.2701 N   0  0  0  0  0  0  0  0  0  0  0  0
  -18.1594   24.5800   -9.9970 C   0  0  0  0  0  0  0  0  0  0  0  0
  -21.5635   24.3190  -11.8100 C   0  0  0  0  0  0  0  0  0  0  0  0
  -22.4708   24.9891  -10.8764 C   0  0  0  0  0  0  0  0  0  0  0  0
  -21.9076   25.5371   -9.6017 C   0  0  0  0  0  0  0  0  0  0  0  0
  -22.7738   26.2433   -8.5743 C   0  0  0  0  0  0  0  0  0  0  0  0
  -22.1865   26.7856   -7.3071 C   0  0  0  0  0  0  0  0  0  0  0  0
  -20.7294   26.6398   -7.0223 C   0  0  0  0  0  0  0  0  0  0  0  0
  -19.8565   25.9326   -8.0620 C   0  0  0  0  0  0  0  0  0  0  0  0
  -20.4373   25.3917   -9.3192 C   0  0  0  0  0  0  0  0  0  0  0  0
  1  2  2  0  0  0
  1  5  1  0  0  0
  6  9  1  0  0  0
  6  5  1  0  0  0
  6 15  1  0  0  0
  7 12  1  0  0  0
  7 13  1  0  0  0
  7 15  1  0  0  0
  8  9  1  0  0  0
  8 11  1  0  0  0
  8 13  1  0  0  0
 10 13  1  0  0  0
 18 19  2  0  0  0
 18 20  1  0  0  0
 18 22  1  0  0  0
 20 21  1  0  0  0
 20 29  1  0  0  0
 22 23  2  0  0  0
 23 24  1  0  0  0
 23 17  1  0  0  0
 24 25  2  0  0  0
 24 29  1  0  0  0
 25 26  1  0  0  0
 26 27  2  0  0  0
 27 28  1  0  0  0
 28 29  2  0  0  0
 17 16  1  0  0  0
 16  2  1  0  0  0
  2  3  1  0  0  0
  3  4  2  0  0  0
  4  5  1  0  0  0
 11 12  1  0  0  0
 13 14  1  0  0  0
M  CHG 1  13   1
M  END
> <minimizedAffinity>
-7.95374

$$$$
4DBM_0J0_A_302


 29 33  0  0  0  0  0  0  0  0999 V2000
  -22.3115   23.6204   -4.0137 C   0  0  0  0  0  0  0  0  0  0  0  0
  -21.1103   22.7670   -4.3031 C   0  0  0  0  0  0  0  0  0  0  0  0
  -21.6303   21.5459   -4.8292 N   0  0  0  0  0  0  0  0  0  0  0  0
  -23.0163   21.6455   -4.8740 N   0  0  0  0  0  0  0  0  0  0  0  0
  -23.4588   22.8018   -4.4153 N   0  0  0  0  0  0  0  0  0  0  0  0
  -24.8476   23.3037   -4.2683 C   0  0  0  0  0  0  0  0  0  0  0  0
  -26.3153   25.2938   -4.7801 C   0  0  0  0  0  0  0  0  0  0  0  0
  -27.0946   23.2098   -5.3963 C   0  0  0  0  0  0  0  0  0  0  0  0
  -25.8163   22.4979   -5.1510 C   0  0  0  0  0  0  0  0  0  0  0  0
  -28.1265   25.1264   -6.2515 C   0  0  0  0  0  0  0  0  0  0  0  0
  -27.7167   23.5781   -4.1733 C   0  0  0  0  0  0  0  0  0  0  0  0
  -27.1886   24.7870   -3.7530 C   0  0  0  0  0  0  0  0  0  0  0  0
  -26.8661   24.5274   -5.8101 N   0  0  0  0  0  0  0  0  0  0  0  0
  -26.0799   24.5820   -7.0395 C   0  0  0  0  0  0  0  0  0  0  0  0
  -24.9490   24.8696   -4.4648 C   0  0  0  0  0  0  0  0  0  0  0  0
  -19.6388   23.1089   -4.0756 C   0  0  0  0  0  0  0  0  0  0  0  0
  -19.2310   24.2535   -4.8082 O   0  0  0  0  0  0  0  0  0  0  0  0
  -18.0241   23.7068   -8.4195 C   0  0  0  0  0  0  0  0  0  0  0  0
  -17.1434   23.0836   -8.9932 O   0  0  0  0  0  0  0  0  0  0  0  0
  -18.9542   24.5080   -9.1920 N   0  0  0  0  0  0  0  0  0  0  0  0
  -18.8208   24.5567  -10.6052 C   0  0  0  0  0  0  0  0  0  0  0  0
  -18.1507   23.6491   -6.9078 C   0  0  0  0  0  0  0  0  0  0  0  0
  -19.2023   24.3875   -6.2058 C   0  0  0  0  0  0  0  0  0  0  0  0
  -20.1558   25.2136   -7.0125 C   0  0  0  0  0  0  0  0  0  0  0  0
  -21.2736   26.0145   -6.3694 C   0  0  0  0  0  0  0  0  0  0  0  0
  -22.2170   26.8318   -7.1982 C   0  0  0  0  0  0  0  0  0  0  0  0
  -22.0762   26.8808   -8.6825 C   0  0  0  0  0  0  0  0  0  0  0  0
  -20.9521   26.0681   -9.3297 C   0  0  0  0  0  0  0  0  0  0  0  0
  -20.0134   25.2580   -8.5093 C   0  0  0  0  0  0  0  0  0  0  0  0
  1  2  2  0  0  0
  1  5  1  0  0  0
  6  9  1  0  0  0
  6  5  1  0  0  0
  6 15  1  0  0  0
  7 12  1  0  0  0
  7 13  1  0  0  0
  7 15  1  0  0  0
  8  9  1  0  0  0
  8 11  1  0  0  0
  8 13  1  0  0  0
 10 13  1  0  0  0
 18 19  2  0  0  0
 18 20  1  0  0  0
 18 22  1  0  0  0
 20 21  1  0  0  0
 20 29  1  0  0  0
 22 23  2  0  0  0
 23 24  1  0  0  0
 23 17  1  0  0  0
 24 25  2  0  0  0
 24 29  1  0  0  0
 25 26  1  0  0  0
 26 27  2  0  0  0
 27 28  1  0  0  0
 28 29  2  0  0  0
 17 16  1  0  0  0
 16  2  1  0  0  0
  2  3  1  0  0  0
  3  4  2  0  0  0
  4  5  1  0  0  0
 11 12  1  0  0  0
 13 14  1  0  0  0
M  CHG 1  13   1
M  END
> <minimizedAffinity>
-7.85121

$$$$
4DBM_0J0_A_302


 29 33  0  0  0  0  0  0  0  0999 V2000
  -22.8446   22.3508   -4.6938 C   0  0  0  0  0  0  0  0  0  0  0  0
  -21.4272   22.1438   -4.2430 C   0  0  0  0  0  0  0  0  0  0  0  0
  -21.3077   22.8718   -3.0207 N   0  0  0  0  0  0  0  0  0  0  0  0
  -22.5374   23.4561   -2.7391 N   0  0  0  0  0  0  0  0  0  0  0  0
  -23.4466   23.1988   -3.6612 N   0  0  0  0  0  0  0  0  0  0  0  0
  -24.8604   23.6390   -3.7591 C   0  0  0  0  0  0  0  0  0  0  0  0
  -26.3421   25.3649   -4.8556 C   0  0  0  0  0  0  0  0  0  0  0  0
  -26.9810   23.1526   -5.0227 C   0  0  0  0  0  0  0  0  0  0  0  0
  -25.7080   22.5939   -4.5049 C   0  0  0  0  0  0  0  0  0  0  0  0
  -27.9930   24.7524   -6.3962 C   0  0  0  0  0  0  0  0  0  0  0  0
  -27.7330   23.7597   -3.9814 C   0  0  0  0  0  0  0  0  0  0  0  0
  -27.2930   25.0621   -3.8171 C   0  0  0  0  0  0  0  0  0  0  0  0
  -26.7610   24.3481   -5.7172 N   0  0  0  0  0  0  0  0  0  0  0  0
  -25.8605   24.1595   -6.8512 C   0  0  0  0  0  0  0  0  0  0  0  0
  -24.9988   25.1068   -4.3311 C   0  0  0  0  0  0  0  0  0  0  0  0
  -20.3284   21.3419   -4.9382 C   0  0  0  0  0  0  0  0  0  0  0  0
  -19.7362   22.0557   -6.0119 O   0  0  0  0  0  0  0  0  0  0  0  0
  -17.8504   25.3357   -5.3173 C   0  0  0  0  0  0  0  0  0  0  0  0
  -16.8453   25.6909   -4.7200 O   0  0  0  0  0  0  0  0  0  0  0  0
  -18.6575   26.3214   -6.0107 N   0  0  0  0  0  0  0  0  0  0  0  0
  -18.2655   27.6861   -5.9788 C   0  0  0  0  0  0  0  0  0  0  0  0
  -18.2595   23.8739   -5.3380 C   0  0  0  0  0  0  0  0  0  0  0  0
  -19.4592   23.4318   -6.0516 C   0  0  0  0  0  0  0  0  0  0  0  0
  -20.2869   24.4577   -6.7621 C   0  0  0  0  0  0  0  0  0  0  0  0
  -21.5478   24.0912   -7.5237 C   0  0  0  0  0  0  0  0  0  0  0  0
  -22.3581   25.1356   -8.2291 C   0  0  0  0  0  0  0  0  0  0  0  0
  -21.9442   26.5684   -8.1956 C   0  0  0  0  0  0  0  0  0  0  0  0
  -20.6693   26.9354   -7.4320 C   0  0  0  0  0  0  0  0  0  0  0  0
  -19.8648   25.9012   -6.7295 C   0  0  0  0  0  0  0  0  0  0  0  0
  1  2  2  0  0  0
  1  5  1  0  0  0
  6  9  1  0  0  0
  6  5  1  0  0  0
  6 15  1  0  0  0
  7 12  1  0  0  0
  7 13  1  0  0  0
  7 15  1  0  0  0
  8  9  1  0  0  0
  8 11  1  0  0  0
  8 13  1  0  0  0
 10 13  1  0  0  0
 18 19  2  0  0  0
 18 20  1  0  0  0
 18 22  1  0  0  0
 20 21  1  0  0  0
 20 29  1  0  0  0
 22 23  2  0  0  0
 23 24  1  0  0  0
 23 17  1  0  0  0
 24 25  2  0  0  0
 24 29  1  0  0  0
 25 26  1  0  0  0
 26 27  2  0  0  0
 27 28  1  0  0  0
 28 29  2  0  0  0
 17 16  1  0  0  0
 16  2  1  0  0  0
  2  3  1  0  0  0
  3  4  2  0  0  0
  4  5  1  0  0  0
 11 12  1  0  0  0
 13 14  1  0  0  0
M  CHG 1  13   1
M  END
> <minimizedAffinity>
-7.77124

$$$$
4DBM_0J0_A_302


 29 33  0  0  0  0  0  0  0  0999 V2000
  -24.2336   23.8886   -6.5799 C   0  0  0  0  0  0  0  0  0  0  0  0
  -25.6530   23.9298   -7.0682 C   0  0  0  0  0  0  0  0  0  0  0  0
  -26.4130   23.2273   -6.0847 N   0  0  0  0  0  0  0  0  0  0  0  0
  -25.5468   22.8090   -5.0809 N   0  0  0  0  0  0  0  0  0  0  0  0
  -24.2934   23.1517   -5.3146 N   0  0  0  0  0  0  0  0  0  0  0  0
  -23.0666   22.8886   -4.5220 C   0  0  0  0  0  0  0  0  0  0  0  0
  -20.8894   21.6109   -4.5789 C   0  0  0  0  0  0  0  0  0  0  0  0
  -20.7923   23.8566   -4.0522 C   0  0  0  0  0  0  0  0  0  0  0  0
  -22.1974   24.1542   -4.4238 C   0  0  0  0  0  0  0  0  0  0  0  0
  -18.8276   22.7163   -4.6083 C   0  0  0  0  0  0  0  0  0  0  0  0
  -20.7307   23.1094   -2.8454 C   0  0  0  0  0  0  0  0  0  0  0  0
  -20.8768   21.7661   -3.1471 C   0  0  0  0  0  0  0  0  0  0  0  0
  -20.2667   22.8321   -4.8484 N   0  0  0  0  0  0  0  0  0  0  0  0
  -20.2910   23.1797   -6.2665 C   0  0  0  0  0  0  0  0  0  0  0  0
  -22.2852   21.6085   -5.0234 C   0  0  0  0  0  0  0  0  0  0  0  0
  -26.1873   24.5687   -8.3489 C   0  0  0  0  0  0  0  0  0  0  0  0
  -26.4376   23.6115   -9.3659 O   0  0  0  0  0  0  0  0  0  0  0  0
  -23.7178   23.6550  -12.0857 C   0  0  0  0  0  0  0  0  0  0  0  0
  -23.1008   24.4876  -12.7332 O   0  0  0  0  0  0  0  0  0  0  0  0
  -23.4503   22.2445  -12.2928 N   0  0  0  0  0  0  0  0  0  0  0  0
  -22.4762   21.8562  -13.2507 C   0  0  0  0  0  0  0  0  0  0  0  0
  -24.7599   24.0854  -11.0692 C   0  0  0  0  0  0  0  0  0  0  0  0
  -25.5054   23.1003  -10.2833 C   0  0  0  0  0  0  0  0  0  0  0  0
  -25.2236   21.6466  -10.5067 C   0  0  0  0  0  0  0  0  0  0  0  0
  -25.9506   20.5564   -9.7403 C   0  0  0  0  0  0  0  0  0  0  0  0
  -25.6492   19.1084   -9.9797 C   0  0  0  0  0  0  0  0  0  0  0  0
  -24.6248   18.7023  -10.9852 C   0  0  0  0  0  0  0  0  0  0  0  0
  -23.8886   19.8031  -11.7529 C   0  0  0  0  0  0  0  0  0  0  0  0
  -24.1874   21.2406  -11.5187 C   0  0  0  0  0  0  0  0  0  0  0  0
  1  2  2  0  0  0
  1  5  1  0  0  0
  6  9  1  0  0  0
  6  5  1  0  0  0
  6 15  1  0  0  0
  7 12  1  0  0  0
  7 13  1  0  0  0
  7 15  1  0  0  0
  8  9  1  0  0  0
  8 11  1  0  0  0
  8 13  1  0  0  0
 10 13  1  0  0  0
 18 19  2  0  0  0
 18 20  1  0  0  0
 18 22  1  0  0  0
 20 21  1  0  0  0
 20 29  1  0  0  0
 22 23  2  0  0  0
 23 24  1  0  0  0
 23 17  1  0  0  0
 24 25  2  0  0  0
 24 29  1  0  0  0
 25 26  1  0  0  0
 26 27  2  0  0  0
 27 28  1  0  0  0
 28 29  2  0  0  0
 17 16  1  0  0  0
 16  2  1  0  0  0
  2  3  1  0  0  0
  3  4  2  0  0  0
  4  5  1  0  0  0
 11 12  1  0  0  0
 13 14  1  0  0  0
M  CHG 1  13   1
M  END
> <minimizedAffinity>
-7.75802

$$$$
4DBM_0J0_A_302


 29 33  0  0  0  0  0  0  0  0999 V2000
  -25.3199   23.2770   -7.2849 C   0  0  0  0  0  0  0  0  0  0  0  0
  -26.3180   23.5316   -6.1922 C   0  0  0  0  0  0  0  0  0  0  0  0
  -27.1777   24.5547   -6.6946 N   0  0  0  0  0  0  0  0  0  0  0  0
  -26.7584   24.8853   -7.9782 N   0  0  0  0  0  0  0  0  0  0  0  0
  -25.7009   24.1944   -8.3622 N   0  0  0  0  0  0  0  0  0  0  0  0
  -24.9316   24.2495   -9.6300 C   0  0  0  0  0  0  0  0  0  0  0  0
  -22.9295   23.2443  -10.7952 C   0  0  0  0  0  0  0  0  0  0  0  0
  -24.9225   23.2985  -11.9594 C   0  0  0  0  0  0  0  0  0  0  0  0
  -25.7597   23.6843  -10.7970 C   0  0  0  0  0  0  0  0  0  0  0  0
  -23.1657   21.9673  -12.7413 C   0  0  0  0  0  0  0  0  0  0  0  0
  -24.1192   24.3868  -12.3936 C   0  0  0  0  0  0  0  0  0  0  0  0
  -22.9595   24.4121  -11.6376 C   0  0  0  0  0  0  0  0  0  0  0  0
  -23.8384   22.5083  -11.5593 N   0  0  0  0  0  0  0  0  0  0  0  0
  -24.2752   21.2830  -10.8955 C   0  0  0  0  0  0  0  0  0  0  0  0
  -23.4923   23.6090   -9.4927 C   0  0  0  0  0  0  0  0  0  0  0  0
  -26.4023   22.8604   -4.8224 C   0  0  0  0  0  0  0  0  0  0  0  0
  -25.1518   22.3422   -4.3972 O   0  0  0  0  0  0  0  0  0  0  0  0
  -23.3832   25.0789   -2.3529 C   0  0  0  0  0  0  0  0  0  0  0  0
  -23.6983   26.0322   -1.6564 O   0  0  0  0  0  0  0  0  0  0  0  0
  -21.9800   24.7690   -2.5506 N   0  0  0  0  0  0  0  0  0  0  0  0
  -20.9954   25.5847   -1.9324 C   0  0  0  0  0  0  0  0  0  0  0  0
  -24.4471   24.2194   -3.0115 C   0  0  0  0  0  0  0  0  0  0  0  0
  -24.0860   23.0720   -3.8463 C   0  0  0  0  0  0  0  0  0  0  0  0
  -22.6346   22.7622   -4.0461 C   0  0  0  0  0  0  0  0  0  0  0  0
  -22.1681   21.5954   -4.8978 C   0  0  0  0  0  0  0  0  0  0  0  0
  -20.7098   21.3040   -5.0806 C   0  0  0  0  0  0  0  0  0  0  0  0
  -19.6769   22.1610   -4.4295 C   0  0  0  0  0  0  0  0  0  0  0  0
  -20.1492   23.3336   -3.5664 C   0  0  0  0  0  0  0  0  0  0  0  0
  -21.5956   23.6261   -3.3852 C   0  0  0  0  0  0  0  0  0  0  0  0
  1  2  2  0  0  0
  1  5  1  0  0  0
  6  9  1  0  0  0
  6  5  1  0  0  0
  6 15  1  0  0  0
  7 12  1  0  0  0
  7 13  1  0  0  0
  7 15  1  0  0  0
  8  9  1  0  0  0
  8 11  1  0  0  0
  8 13  1  0  0  0
 10 13  1  0  0  0
 18 19  2  0  0  0
 18 20  1  0  0  0
 18 22  1  0  0  0
 20 21  1  0  0  0
 20 29  1  0  0  0
 22 23  2  0  0  0
 23 24  1  0  0  0
 23 17  1  0  0  0
 24 25  2  0  0  0
 24 29  1  0  0  0
 25 26  1  0  0  0
 26 27  2  0  0  0
 27 28  1  0  0  0
 28 29  2  0  0  0
 17 16  1  0  0  0
 16  2  1  0  0  0
  2  3  1  0  0  0
  3  4  2  0  0  0
  4  5  1  0  0  0
 11 12  1  0  0  0
 13 14  1  0  0  0
M  CHG 1  13   1
M  END
> <minimizedAffinity>
-7.73076

$$$$
4DBM_0J0_A_302


 29 33  0  0  0  0  0  0  0  0999 V2000
  -23.2105   24.5053   -7.7174 C   0  0  0  0  0  0  0  0  0  0  0  0
  -22.1915   25.4755   -8.2420 C   0  0  0  0  0  0  0  0  0  0  0  0
  -22.7055   26.7706   -7.9311 N   0  0  0  0  0  0  0  0  0  0  0  0
  -23.9155   26.6113   -7.2652 N   0  0  0  0  0  0  0  0  0  0  0  0
  -24.2551   25.3435   -7.1225 N   0  0  0  0  0  0  0  0  0  0  0  0
  -25.4596   24.7406   -6.4997 C   0  0  0  0  0  0  0  0  0  0  0  0
  -26.1762   23.0507   -4.7656 C   0  0  0  0  0  0  0  0  0  0  0  0
  -27.1293   25.1510   -4.6629 C   0  0  0  0  0  0  0  0  0  0  0  0
  -26.2094   25.7765   -5.6444 C   0  0  0  0  0  0  0  0  0  0  0  0
  -27.3449   23.6963   -2.8443 C   0  0  0  0  0  0  0  0  0  0  0  0
  -28.0432   24.2742   -5.3066 C   0  0  0  0  0  0  0  0  0  0  0  0
  -27.4432   23.0348   -5.4502 C   0  0  0  0  0  0  0  0  0  0  0  0
  -26.4852   24.1373   -3.9436 N   0  0  0  0  0  0  0  0  0  0  0  0
  -25.3262   24.6424   -3.2127 C   0  0  0  0  0  0  0  0  0  0  0  0
  -25.1372   23.3913   -5.7405 C   0  0  0  0  0  0  0  0  0  0  0  0
  -20.8850   25.1631   -8.9697 C   0  0  0  0  0  0  0  0  0  0  0  0
  -19.8765   24.6918   -8.0900 O   0  0  0  0  0  0  0  0  0  0  0  0
  -18.9702   26.7572   -4.9740 C   0  0  0  0  0  0  0  0  0  0  0  0
  -18.4831   27.8497   -4.7245 O   0  0  0  0  0  0  0  0  0  0  0  0
  -19.3716   25.8865   -3.8855 N   0  0  0  0  0  0  0  0  0  0  0  0
  -19.1862   26.3198   -2.5458 C   0  0  0  0  0  0  0  0  0  0  0  0
  -19.1570   26.3058   -6.4113 C   0  0  0  0  0  0  0  0  0  0  0  0
  -19.7420   25.0011   -6.7268 C   0  0  0  0  0  0  0  0  0  0  0  0
  -20.1506   24.1088   -5.5958 C   0  0  0  0  0  0  0  0  0  0  0  0
  -20.7615   22.7387   -5.8288 C   0  0  0  0  0  0  0  0  0  0  0  0
  -21.1648   21.8649   -4.6804 C   0  0  0  0  0  0  0  0  0  0  0  0
  -20.9707   22.3220   -3.2738 C   0  0  0  0  0  0  0  0  0  0  0  0
  -20.3600   23.7062   -3.0409 C   0  0  0  0  0  0  0  0  0  0  0  0
  -19.9569   24.5743   -4.1786 C   0  0  0  0  0  0  0  0  0  0  0  0
  1  2  2  0  0  0
  1  5  1  0  0  0
  6  9  1  0  0  0
  6  5  1  0  0  0
  6 15  1  0  0  0
  7 12  1  0  0  0
  7 13  1  0  0  0
  7 15  1  0  0  0
  8  9  1  0  0  0
  8 11  1  0  0  0
  8 13  1  0  0  0
 10 13  1  0  0  0
 18 19  2  0  0  0
 18 20  1  0  0  0
 18 22  1  0  0  0
 20 21  1  0  0  0
 20 29  1  0  0  0
 22 23  2  0  0  0
 23 24  1  0  0  0
 23 17  1  0  0  0
 24 25  2  0  0  0
 24 29  1  0  0  0
 25 26  1  0  0  0
 26 27  2  0  0  0
 27 28  1  0  0  0
 28 29  2  0  0  0
 17 16  1  0  0  0
 16  2  1  0  0  0
  2  3  1  0  0  0
  3  4  2  0  0  0
  4  5  1  0  0  0
 11 12  1  0  0  0
 13 14  1  0  0  0
M  CHG 1  13   1
M  END
> <minimizedAffinity>
-7.59054

$$$$
4DBM_0J0_A_302


 29 33  0  0  0  0  0  0  0  0999 V2000
  -22.9117   24.0612   -6.1589 C   0  0  0  0  0  0  0  0  0  0  0  0
  -24.2541   23.5793   -5.6892 C   0  0  0  0  0  0  0  0  0  0  0  0
  -24.5280   24.3197   -4.4996 N   0  0  0  0  0  0  0  0  0  0  0  0
  -23.4641   25.1846   -4.2696 N   0  0  0  0  0  0  0  0  0  0  0  0
  -22.5129   25.0748   -5.1786 N   0  0  0  0  0  0  0  0  0  0  0  0
  -21.2152   25.7852   -5.2951 C   0  0  0  0  0  0  0  0  0  0  0  0
  -18.7727   25.5934   -4.6836 C   0  0  0  0  0  0  0  0  0  0  0  0
  -19.2845   26.0917   -6.8790 C   0  0  0  0  0  0  0  0  0  0  0  0
  -20.7365   25.8129   -6.7570 C   0  0  0  0  0  0  0  0  0  0  0  0
  -17.1154   25.4148   -6.3253 C   0  0  0  0  0  0  0  0  0  0  0  0
  -18.9386   27.2984   -6.2137 C   0  0  0  0  0  0  0  0  0  0  0  0
  -18.7159   27.0196   -4.8759 C   0  0  0  0  0  0  0  0  0  0  0  0
  -18.5403   25.2713   -6.0230 N   0  0  0  0  0  0  0  0  0  0  0  0
  -18.7502   23.8549   -6.3097 C   0  0  0  0  0  0  0  0  0  0  0  0
  -20.1353   25.2440   -4.2745 C   0  0  0  0  0  0  0  0  0  0  0  0
  -25.1449   22.5141   -6.3261 C   0  0  0  0  0  0  0  0  0  0  0  0
  -25.7288   22.9550   -7.5417 O   0  0  0  0  0  0  0  0  0  0  0  0
  -24.0078   24.0102  -10.8161 C   0  0  0  0  0  0  0  0  0  0  0  0
  -23.5460   25.0299  -11.3061 O   0  0  0  0  0  0  0  0  0  0  0  0
  -23.9588   22.7694  -11.5656 N   0  0  0  0  0  0  0  0  0  0  0  0
  -23.3770   22.7638  -12.8612 C   0  0  0  0  0  0  0  0  0  0  0  0
  -24.6313   24.0331   -9.4321 C   0  0  0  0  0  0  0  0  0  0  0  0
  -25.1861   22.8193   -8.8297 C   0  0  0  0  0  0  0  0  0  0  0  0
  -25.1328   21.5442   -9.6130 C   0  0  0  0  0  0  0  0  0  0  0  0
  -25.6865   20.2393   -9.0696 C   0  0  0  0  0  0  0  0  0  0  0  0
  -25.6192   18.9755   -9.8715 C   0  0  0  0  0  0  0  0  0  0  0  0
  -25.0066   18.9710  -11.2316 C   0  0  0  0  0  0  0  0  0  0  0  0
  -24.4436   20.2864  -11.7756 C   0  0  0  0  0  0  0  0  0  0  0  0
  -24.5111   21.5423  -10.9827 C   0  0  0  0  0  0  0  0  0  0  0  0
  1  2  2  0  0  0
  1  5  1  0  0  0
  6  9  1  0  0  0
  6  5  1  0  0  0
  6 15  1  0  0  0
  7 12  1  0  0  0
  7 13  1  0  0  0
  7 15  1  0  0  0
  8  9  1  0  0  0
  8 11  1  0  0  0
  8 13  1  0  0  0
 10 13  1  0  0  0
 18 19  2  0  0  0
 18 20  1  0  0  0
 18 22  1  0  0  0
 20 21  1  0  0  0
 20 29  1  0  0  0
 22 23  2  0  0  0
 23 24  1  0  0  0
 23 17  1  0  0  0
 24 25  2  0  0  0
 24 29  1  0  0  0
 25 26  1  0  0  0
 26 27  2  0  0  0
 27 28  1  0  0  0
 28 29  2  0  0  0
 17 16  1  0  0  0
 16  2  1  0  0  0
  2  3  1  0  0  0
  3  4  2  0  0  0
  4  5  1  0  0  0
 11 12  1  0  0  0
 13 14  1  0  0  0
M  CHG 1  13   1
M  END
> <minimizedAffinity>
-7.58690

$$$$
