1SQO_UI2_A_1001


 24 26  0  0  0  0  0  0  0  0999 V2000
   23.3091   15.6215   33.6056 C   0  0  0  0  0  0  0  0  0  0  0  0
   21.9864   15.4689   33.1661 C   0  0  0  0  0  0  0  0  0  0  0  0
   21.0268   16.5348   33.3459 C   0  0  0  0  0  0  0  0  0  0  0  0
   21.4887   17.7346   33.9810 C   0  0  0  0  0  0  0  0  0  0  0  0
   22.8230   17.9272   34.4064 C   0  0  0  0  0  0  0  0  0  0  0  0
   23.7333   16.8445   34.2243 C   0  0  0  0  0  0  0  0  0  0  0  0
   19.7077   16.3327   32.9334 C   0  0  0  0  0  0  0  0  0  0  0  0
   18.7701   17.3502   33.2635 C   0  0  0  0  0  0  0  0  0  0  0  0
   19.1568   18.5429   33.9510 C   0  0  0  0  0  0  0  0  0  0  0  0
   20.4894   18.7741   34.2738 C   0  0  0  0  0  0  0  0  0  0  0  0
   18.2719   19.5485   34.3385 C   0  0  0  0  0  0  0  0  0  0  0  0
   17.0082   19.5202   33.9903 N   0  0  0  0  0  0  0  0  0  0  0  0
   18.6062   20.6259   35.0907 N   0  0  0  0  0  0  0  0  0  0  0  0
   16.6651   18.7776   33.4424 H   0  0  0  0  0  0  0  0  0  0  0  0
   19.5328   20.7396   35.4034 H   0  0  0  0  0  0  0  0  0  0  0  0
   17.9223   21.2946   35.3242 H   0  0  0  0  0  0  0  0  0  0  0  0
   23.3156   19.1548   34.9736 N   0  0  0  0  0  0  0  0  0  0  0  0
   23.1267   19.9841   34.4778 H   0  0  0  0  0  0  0  0  0  0  0  0
   24.0348   19.2766   36.1592 C   0  0  0  0  0  0  0  0  0  0  0  0
   23.9916   18.3583   37.1764 N   0  0  0  0  0  0  0  0  0  0  0  0
   24.6346   18.4690   38.3683 C   0  0  0  0  0  0  0  0  0  0  0  0
   25.4542   19.6319   38.6616 C   0  0  0  0  0  0  0  0  0  0  0  0
   25.3984   20.5688   37.5504 C   0  0  0  0  0  0  0  0  0  0  0  0
   24.7902   20.4241   36.4023 N   0  0  0  0  0  0  0  0  0  0  0  0
  1  2  2  0  0  0
  1  6  1  0  0  0
  2  3  1  0  0  0
  3  4  2  0  0  0
  3  7  1  0  0  0
  4  5  1  0  0  0
  4 10  1  0  0  0
  5  6  2  0  0  0
  5 17  1  0  0  0
  7  8  2  0  0  0
  8  9  1  0  0  0
  9 10  2  0  0  0
  9 11  1  0  0  0
 17 19  1  0  0  0
 19 20  1  0  0  0
 19 24  2  0  0  0
 20 21  2  0  0  0
 21 22  1  0  0  0
 22 23  2  0  0  0
 23 24  1  0  0  0
 11 12  2  0  0  0
 11 13  1  0  0  0
 17 18  1  0  0  0
 12 14  1  0  0  0
 13 15  1  0  0  0
 13 16  1  0  0  0
M  END
> <minimizedAffinity>
-8.24981

$$$$
1SQO_UI2_A_1001


 24 26  0  0  0  0  0  0  0  0999 V2000
   23.0442   15.4655   33.5576 C   0  0  0  0  0  0  0  0  0  0  0  0
   21.7321   15.4118   33.0663 C   0  0  0  0  0  0  0  0  0  0  0  0
   20.8271   16.5202   33.2703 C   0  0  0  0  0  0  0  0  0  0  0  0
   21.3313   17.6573   33.9838 C   0  0  0  0  0  0  0  0  0  0  0  0
   22.6576   17.7510   34.4636 C   0  0  0  0  0  0  0  0  0  0  0  0
   23.5127   16.6287   34.2547 C   0  0  0  0  0  0  0  0  0  0  0  0
   19.5149   16.4155   32.8034 C   0  0  0  0  0  0  0  0  0  0  0  0
   18.6236   17.4667   33.1556 C   0  0  0  0  0  0  0  0  0  0  0  0
   19.0505   18.5983   33.9185 C   0  0  0  0  0  0  0  0  0  0  0  0
   20.3811   18.7360   34.2979 C   0  0  0  0  0  0  0  0  0  0  0  0
   18.2090   19.6317   34.3291 C   0  0  0  0  0  0  0  0  0  0  0  0
   18.6779   20.6996   34.9281 N   0  0  0  0  0  0  0  0  0  0  0  0
   16.8638   19.6476   34.1604 N   0  0  0  0  0  0  0  0  0  0  0  0
   19.6440   20.7846   35.0978 H   0  0  0  0  0  0  0  0  0  0  0  0
   16.4139   18.8905   33.7203 H   0  0  0  0  0  0  0  0  0  0  0  0
   16.3369   20.4162   34.4779 H   0  0  0  0  0  0  0  0  0  0  0  0
   23.1965   18.9175   35.1118 N   0  0  0  0  0  0  0  0  0  0  0  0
   22.5513   19.5498   35.5033 H   0  0  0  0  0  0  0  0  0  0  0  0
   24.5465   19.2335   35.2358 C   0  0  0  0  0  0  0  0  0  0  0  0
   25.3330   19.6469   34.1916 N   0  0  0  0  0  0  0  0  0  0  0  0
   26.6641   19.9109   34.2616 C   0  0  0  0  0  0  0  0  0  0  0  0
   27.3828   19.7630   35.5154 C   0  0  0  0  0  0  0  0  0  0  0  0
   26.4813   19.2746   36.5470 C   0  0  0  0  0  0  0  0  0  0  0  0
   25.1961   19.0529   36.4573 N   0  0  0  0  0  0  0  0  0  0  0  0
  1  2  2  0  0  0
  1  6  1  0  0  0
  2  3  1  0  0  0
  3  4  2  0  0  0
  3  7  1  0  0  0
  4  5  1  0  0  0
  4 10  1  0  0  0
  5  6  2  0  0  0
  5 17  1  0  0  0
  7  8  2  0  0  0
  8  9  1  0  0  0
  9 10  2  0  0  0
  9 11  1  0  0  0
 17 19  1  0  0  0
 19 20  1  0  0  0
 19 24  2  0  0  0
 20 21  2  0  0  0
 21 22  1  0  0  0
 22 23  2  0  0  0
 23 24  1  0  0  0
 11 12  2  0  0  0
 11 13  1  0  0  0
 17 18  1  0  0  0
 12 14  1  0  0  0
 13 15  1  0  0  0
 13 16  1  0  0  0
M  END
> <minimizedAffinity>
-7.68644

$$$$
1SQO_UI2_A_1001


 24 26  0  0  0  0  0  0  0  0999 V2000
   24.0057   13.6632   33.3926 C   0  0  0  0  0  0  0  0  0  0  0  0
   25.2096   14.3584   33.2105 C   0  0  0  0  0  0  0  0  0  0  0  0
   25.2249   15.6302   32.5238 C   0  0  0  0  0  0  0  0  0  0  0  0
   23.9695   16.1367   32.0508 C   0  0  0  0  0  0  0  0  0  0  0  0
   22.7373   15.4722   32.2469 C   0  0  0  0  0  0  0  0  0  0  0  0
   22.7693   14.2126   32.9152 C   0  0  0  0  0  0  0  0  0  0  0  0
   26.4476   16.2752   32.3240 C   0  0  0  0  0  0  0  0  0  0  0  0
   26.4297   17.4470   31.5177 C   0  0  0  0  0  0  0  0  0  0  0  0
   25.2181   17.9682   30.9652 C   0  0  0  0  0  0  0  0  0  0  0  0
   23.9954   17.3698   31.2484 C   0  0  0  0  0  0  0  0  0  0  0  0
   25.1508   19.0846   30.1324 C   0  0  0  0  0  0  0  0  0  0  0  0
   24.0743   19.8308   30.0730 N   0  0  0  0  0  0  0  0  0  0  0  0
   26.1529   19.5077   29.3229 N   0  0  0  0  0  0  0  0  0  0  0  0
   23.2894   19.6072   30.6236 H   0  0  0  0  0  0  0  0  0  0  0  0
   27.0045   19.0145   29.2949 H   0  0  0  0  0  0  0  0  0  0  0  0
   26.0289   20.3081   28.7633 H   0  0  0  0  0  0  0  0  0  0  0  0
   21.4633   16.0080   31.8455 N   0  0  0  0  0  0  0  0  0  0  0  0
   21.1163   15.7270   30.9680 H   0  0  0  0  0  0  0  0  0  0  0  0
   20.6770   16.8873   32.5845 C   0  0  0  0  0  0  0  0  0  0  0  0
   21.1850   17.8496   33.4186 N   0  0  0  0  0  0  0  0  0  0  0  0
   20.4514   18.6881   34.1965 C   0  0  0  0  0  0  0  0  0  0  0  0
   19.0005   18.6161   34.1982 C   0  0  0  0  0  0  0  0  0  0  0  0
   18.5582   17.5384   33.3272 C   0  0  0  0  0  0  0  0  0  0  0  0
   19.2875   16.7622   32.5691 N   0  0  0  0  0  0  0  0  0  0  0  0
  1  2  2  0  0  0
  1  6  1  0  0  0
  2  3  1  0  0  0
  3  4  2  0  0  0
  3  7  1  0  0  0
  4  5  1  0  0  0
  4 10  1  0  0  0
  5  6  2  0  0  0
  5 17  1  0  0  0
  7  8  2  0  0  0
  8  9  1  0  0  0
  9 10  2  0  0  0
  9 11  1  0  0  0
 17 19  1  0  0  0
 19 20  1  0  0  0
 19 24  2  0  0  0
 20 21  2  0  0  0
 21 22  1  0  0  0
 22 23  2  0  0  0
 23 24  1  0  0  0
 11 12  2  0  0  0
 11 13  1  0  0  0
 17 18  1  0  0  0
 12 14  1  0  0  0
 13 15  1  0  0  0
 13 16  1  0  0  0
M  END
> <minimizedAffinity>
-7.31831

$$$$
1SQO_UI2_A_1001


 24 26  0  0  0  0  0  0  0  0999 V2000
   24.8219   17.7205   36.9025 C   0  0  0  0  0  0  0  0  0  0  0  0
   25.7581   17.2023   35.9964 C   0  0  0  0  0  0  0  0  0  0  0  0
   25.4912   17.2212   34.5759 C   0  0  0  0  0  0  0  0  0  0  0  0
   24.2459   17.7894   34.1487 C   0  0  0  0  0  0  0  0  0  0  0  0
   23.2977   18.3460   35.0371 C   0  0  0  0  0  0  0  0  0  0  0  0
   23.5934   18.2927   36.4314 C   0  0  0  0  0  0  0  0  0  0  0  0
   26.4278   16.6590   33.7053 C   0  0  0  0  0  0  0  0  0  0  0  0
   26.0559   16.5691   32.3353 C   0  0  0  0  0  0  0  0  0  0  0  0
   24.8016   17.0617   31.8566 C   0  0  0  0  0  0  0  0  0  0  0  0
   23.9174   17.7029   32.7171 C   0  0  0  0  0  0  0  0  0  0  0  0
   24.3692   16.9574   30.5351 C   0  0  0  0  0  0  0  0  0  0  0  0
   24.8192   17.7611   29.6019 N   0  0  0  0  0  0  0  0  0  0  0  0
   23.4706   16.0476   30.0843 N   0  0  0  0  0  0  0  0  0  0  0  0
   25.4767   18.4581   29.8276 H   0  0  0  0  0  0  0  0  0  0  0  0
   23.0730   15.3978   30.7080 H   0  0  0  0  0  0  0  0  0  0  0  0
   23.2157   16.0368   29.1335 H   0  0  0  0  0  0  0  0  0  0  0  0
   22.0813   18.9882   34.6140 N   0  0  0  0  0  0  0  0  0  0  0  0
   22.1001   19.9687   34.5267 H   0  0  0  0  0  0  0  0  0  0  0  0
   20.8805   18.3498   34.3170 C   0  0  0  0  0  0  0  0  0  0  0  0
   20.7780   17.0148   34.0217 N   0  0  0  0  0  0  0  0  0  0  0  0
   19.6347   16.3683   33.6737 C   0  0  0  0  0  0  0  0  0  0  0  0
   18.3757   17.0876   33.5845 C   0  0  0  0  0  0  0  0  0  0  0  0
   18.5920   18.4986   33.8637 C   0  0  0  0  0  0  0  0  0  0  0  0
   19.7016   19.0899   34.2217 N   0  0  0  0  0  0  0  0  0  0  0  0
  1  2  2  0  0  0
  1  6  1  0  0  0
  2  3  1  0  0  0
  3  4  2  0  0  0
  3  7  1  0  0  0
  4  5  1  0  0  0
  4 10  1  0  0  0
  5  6  2  0  0  0
  5 17  1  0  0  0
  7  8  2  0  0  0
  8  9  1  0  0  0
  9 10  2  0  0  0
  9 11  1  0  0  0
 17 19  1  0  0  0
 19 20  1  0  0  0
 19 24  2  0  0  0
 20 21  2  0  0  0
 21 22  1  0  0  0
 22 23  2  0  0  0
 23 24  1  0  0  0
 11 12  2  0  0  0
 11 13  1  0  0  0
 17 18  1  0  0  0
 12 14  1  0  0  0
 13 15  1  0  0  0
 13 16  1  0  0  0
M  END
> <minimizedAffinity>
-7.00237

$$$$
1SQO_UI2_A_1001


 24 26  0  0  0  0  0  0  0  0999 V2000
   23.2820   14.4175   33.3608 C   0  0  0  0  0  0  0  0  0  0  0  0
   21.8850   14.2988   33.3497 C   0  0  0  0  0  0  0  0  0  0  0  0
   21.0489   15.4771   33.3949 C   0  0  0  0  0  0  0  0  0  0  0  0
   21.7086   16.7493   33.4468 C   0  0  0  0  0  0  0  0  0  0  0  0
   23.1140   16.8998   33.4286 C   0  0  0  0  0  0  0  0  0  0  0  0
   23.9017   15.7111   33.3996 C   0  0  0  0  0  0  0  0  0  0  0  0
   19.6613   15.3198   33.4240 C   0  0  0  0  0  0  0  0  0  0  0  0
   18.8869   16.4974   33.6163 C   0  0  0  0  0  0  0  0  0  0  0  0
   19.4889   17.7889   33.7372 C   0  0  0  0  0  0  0  0  0  0  0  0
   20.8652   17.9434   33.6133 C   0  0  0  0  0  0  0  0  0  0  0  0
   18.7808   18.9669   33.9721 C   0  0  0  0  0  0  0  0  0  0  0  0
   19.1453   19.8101   34.9076 N   0  0  0  0  0  0  0  0  0  0  0  0
   17.6791   19.3577   33.2850 N   0  0  0  0  0  0  0  0  0  0  0  0
   19.9347   19.6175   35.4635 H   0  0  0  0  0  0  0  0  0  0  0  0
   17.3245   18.7927   32.5609 H   0  0  0  0  0  0  0  0  0  0  0  0
   17.2337   20.2063   33.5102 H   0  0  0  0  0  0  0  0  0  0  0  0
   23.7849   18.1727   33.4018 N   0  0  0  0  0  0  0  0  0  0  0  0
   23.7277   18.7257   34.2143 H   0  0  0  0  0  0  0  0  0  0  0  0
   24.5074   18.6935   32.3320 C   0  0  0  0  0  0  0  0  0  0  0  0
   25.6842   19.3834   32.4689 N   0  0  0  0  0  0  0  0  0  0  0  0
   26.3884   19.9531   31.4560 C   0  0  0  0  0  0  0  0  0  0  0  0
   25.9148   19.8663   30.0854 C   0  0  0  0  0  0  0  0  0  0  0  0
   24.6415   19.1644   30.0462 C   0  0  0  0  0  0  0  0  0  0  0  0
   23.9981   18.6032   31.0362 N   0  0  0  0  0  0  0  0  0  0  0  0
  1  2  2  0  0  0
  1  6  1  0  0  0
  2  3  1  0  0  0
  3  4  2  0  0  0
  3  7  1  0  0  0
  4  5  1  0  0  0
  4 10  1  0  0  0
  5  6  2  0  0  0
  5 17  1  0  0  0
  7  8  2  0  0  0
  8  9  1  0  0  0
  9 10  2  0  0  0
  9 11  1  0  0  0
 17 19  1  0  0  0
 19 20  1  0  0  0
 19 24  2  0  0  0
 20 21  2  0  0  0
 21 22  1  0  0  0
 22 23  2  0  0  0
 23 24  1  0  0  0
 11 12  2  0  0  0
 11 13  1  0  0  0
 17 18  1  0  0  0
 12 14  1  0  0  0
 13 15  1  0  0  0
 13 16  1  0  0  0
M  END
> <minimizedAffinity>
-6.85963

$$$$
1SQO_UI2_A_1001


 24 26  0  0  0  0  0  0  0  0999 V2000
   20.1669   16.3583   33.4903 C   0  0  0  0  0  0  0  0  0  0  0  0
   20.8566   15.7725   32.4192 C   0  0  0  0  0  0  0  0  0  0  0  0
   22.1328   16.3004   31.9929 C   0  0  0  0  0  0  0  0  0  0  0  0
   22.6495   17.4296   32.7099 C   0  0  0  0  0  0  0  0  0  0  0  0
   21.9906   18.0210   33.8119 C   0  0  0  0  0  0  0  0  0  0  0  0
   20.7265   17.4792   34.1895 C   0  0  0  0  0  0  0  0  0  0  0  0
   22.7723   15.7179   30.8961 C   0  0  0  0  0  0  0  0  0  0  0  0
   23.9494   16.3622   30.4242 C   0  0  0  0  0  0  0  0  0  0  0  0
   24.4811   17.5283   31.0585 C   0  0  0  0  0  0  0  0  0  0  0  0
   23.8876   18.0439   32.2053 C   0  0  0  0  0  0  0  0  0  0  0  0
   25.6034   18.2239   30.6100 C   0  0  0  0  0  0  0  0  0  0  0  0
   25.7400   18.5649   29.3514 N   0  0  0  0  0  0  0  0  0  0  0  0
   26.6385   18.6115   31.3954 N   0  0  0  0  0  0  0  0  0  0  0  0
   25.0414   18.3293   28.6990 H   0  0  0  0  0  0  0  0  0  0  0  0
   26.6313   18.4030   32.3575 H   0  0  0  0  0  0  0  0  0  0  0  0
   27.3972   19.1015   31.0035 H   0  0  0  0  0  0  0  0  0  0  0  0
   22.5362   19.1041   34.5869 N   0  0  0  0  0  0  0  0  0  0  0  0
   22.1761   20.0038   34.4136 H   0  0  0  0  0  0  0  0  0  0  0  0
   23.5266   18.9956   35.5590 C   0  0  0  0  0  0  0  0  0  0  0  0
   23.7264   17.8755   36.3241 N   0  0  0  0  0  0  0  0  0  0  0  0
   24.6443   17.7514   37.3181 C   0  0  0  0  0  0  0  0  0  0  0  0
   25.5224   18.8579   37.6569 C   0  0  0  0  0  0  0  0  0  0  0  0
   25.2036   20.0122   36.8313 C   0  0  0  0  0  0  0  0  0  0  0  0
   24.3299   20.0953   35.8624 N   0  0  0  0  0  0  0  0  0  0  0  0
  1  2  2  0  0  0
  1  6  1  0  0  0
  2  3  1  0  0  0
  3  4  2  0  0  0
  3  7  1  0  0  0
  4  5  1  0  0  0
  4 10  1  0  0  0
  5  6  2  0  0  0
  5 17  1  0  0  0
  7  8  2  0  0  0
  8  9  1  0  0  0
  9 10  2  0  0  0
  9 11  1  0  0  0
 17 19  1  0  0  0
 19 20  1  0  0  0
 19 24  2  0  0  0
 20 21  2  0  0  0
 21 22  1  0  0  0
 22 23  2  0  0  0
 23 24  1  0  0  0
 11 12  2  0  0  0
 11 13  1  0  0  0
 17 18  1  0  0  0
 12 14  1  0  0  0
 13 15  1  0  0  0
 13 16  1  0  0  0
M  END
> <minimizedAffinity>
-6.58158

$$$$
1SQO_UI2_A_1001


 24 26  0  0  0  0  0  0  0  0999 V2000
   24.7578   18.6349   36.3725 C   0  0  0  0  0  0  0  0  0  0  0  0
   25.5965   19.4802   35.6321 C   0  0  0  0  0  0  0  0  0  0  0  0
   25.6086   19.4191   34.1880 C   0  0  0  0  0  0  0  0  0  0  0  0
   24.7331   18.4707   33.5631 C   0  0  0  0  0  0  0  0  0  0  0  0
   23.8557   17.6279   34.2829 C   0  0  0  0  0  0  0  0  0  0  0  0
   23.8870   17.7093   35.7065 C   0  0  0  0  0  0  0  0  0  0  0  0
   26.4864   20.2469   33.4843 C   0  0  0  0  0  0  0  0  0  0  0  0
   26.5673   20.0470   32.0783 C   0  0  0  0  0  0  0  0  0  0  0  0
   25.7653   19.0740   31.4038 C   0  0  0  0  0  0  0  0  0  0  0  0
   24.8283   18.3209   32.1025 C   0  0  0  0  0  0  0  0  0  0  0  0
   25.8384   18.8064   30.0372 C   0  0  0  0  0  0  0  0  0  0  0  0
   24.7800   18.4456   29.3526 N   0  0  0  0  0  0  0  0  0  0  0  0
   26.9683   18.8874   29.2922 N   0  0  0  0  0  0  0  0  0  0  0  0
   23.9089   18.3575   29.8028 H   0  0  0  0  0  0  0  0  0  0  0  0
   27.8181   19.1508   29.7137 H   0  0  0  0  0  0  0  0  0  0  0  0
   26.9389   18.6829   28.3296 H   0  0  0  0  0  0  0  0  0  0  0  0
   22.9180   16.7287   33.6638 N   0  0  0  0  0  0  0  0  0  0  0  0
   23.2528   15.8381   33.4106 H   0  0  0  0  0  0  0  0  0  0  0  0
   21.5810   17.0031   33.3902 C   0  0  0  0  0  0  0  0  0  0  0  0
   20.8585   17.9839   34.0193 N   0  0  0  0  0  0  0  0  0  0  0  0
   19.5401   18.2450   33.8196 C   0  0  0  0  0  0  0  0  0  0  0  0
   18.7647   17.4584   32.8760 C   0  0  0  0  0  0  0  0  0  0  0  0
   19.5988   16.4157   32.2992 C   0  0  0  0  0  0  0  0  0  0  0  0
   20.8743   16.2035   32.4914 N   0  0  0  0  0  0  0  0  0  0  0  0
  1  2  2  0  0  0
  1  6  1  0  0  0
  2  3  1  0  0  0
  3  4  2  0  0  0
  3  7  1  0  0  0
  4  5  1  0  0  0
  4 10  1  0  0  0
  5  6  2  0  0  0
  5 17  1  0  0  0
  7  8  2  0  0  0
  8  9  1  0  0  0
  9 10  2  0  0  0
  9 11  1  0  0  0
 17 19  1  0  0  0
 19 20  1  0  0  0
 19 24  2  0  0  0
 20 21  2  0  0  0
 21 22  1  0  0  0
 22 23  2  0  0  0
 23 24  1  0  0  0
 11 12  2  0  0  0
 11 13  1  0  0  0
 17 18  1  0  0  0
 12 14  1  0  0  0
 13 15  1  0  0  0
 13 16  1  0  0  0
M  END
> <minimizedAffinity>
-6.57751

$$$$
1SQO_UI2_A_1001


 24 26  0  0  0  0  0  0  0  0999 V2000
   24.8810   18.2746   31.0120 C   0  0  0  0  0  0  0  0  0  0  0  0
   25.3060   17.0198   30.5528 C   0  0  0  0  0  0  0  0  0  0  0  0
   24.8626   15.8105   31.2087 C   0  0  0  0  0  0  0  0  0  0  0  0
   23.9798   15.9566   32.3292 C   0  0  0  0  0  0  0  0  0  0  0  0
   23.5114   17.2065   32.7947 C   0  0  0  0  0  0  0  0  0  0  0  0
   23.9859   18.3752   32.1289 C   0  0  0  0  0  0  0  0  0  0  0  0
   25.3387   14.5800   30.7502 C   0  0  0  0  0  0  0  0  0  0  0  0
   24.9920   13.4330   31.5167 C   0  0  0  0  0  0  0  0  0  0  0  0
   24.1655   13.5206   32.6803 C   0  0  0  0  0  0  0  0  0  0  0  0
   23.6216   14.7386   33.0729 C   0  0  0  0  0  0  0  0  0  0  0  0
   23.8338   12.4363   33.4919 C   0  0  0  0  0  0  0  0  0  0  0  0
   22.5857   12.1417   33.7649 N   0  0  0  0  0  0  0  0  0  0  0  0
   24.7305   11.5970   34.0665 N   0  0  0  0  0  0  0  0  0  0  0  0
   21.8579   12.6916   33.3948 H   0  0  0  0  0  0  0  0  0  0  0  0
   25.6948   11.7334   33.9226 H   0  0  0  0  0  0  0  0  0  0  0  0
   24.4171   10.8513   34.6278 H   0  0  0  0  0  0  0  0  0  0  0  0
   22.5650   17.3603   33.8679 N   0  0  0  0  0  0  0  0  0  0  0  0
   22.9224   17.3439   34.7852 H   0  0  0  0  0  0  0  0  0  0  0  0
   21.1906   17.5302   33.7276 C   0  0  0  0  0  0  0  0  0  0  0  0
   20.5440   18.7224   33.9288 N   0  0  0  0  0  0  0  0  0  0  0  0
   19.2009   18.9147   33.8554 C   0  0  0  0  0  0  0  0  0  0  0  0
   18.3111   17.8095   33.5438 C   0  0  0  0  0  0  0  0  0  0  0  0
   19.0790   16.5829   33.3982 C   0  0  0  0  0  0  0  0  0  0  0  0
   20.3766   16.4318   33.4492 N   0  0  0  0  0  0  0  0  0  0  0  0
  1  2  2  0  0  0
  1  6  1  0  0  0
  2  3  1  0  0  0
  3  4  2  0  0  0
  3  7  1  0  0  0
  4  5  1  0  0  0
  4 10  1  0  0  0
  5  6  2  0  0  0
  5 17  1  0  0  0
  7  8  2  0  0  0
  8  9  1  0  0  0
  9 10  2  0  0  0
  9 11  1  0  0  0
 17 19  1  0  0  0
 19 20  1  0  0  0
 19 24  2  0  0  0
 20 21  2  0  0  0
 21 22  1  0  0  0
 22 23  2  0  0  0
 23 24  1  0  0  0
 11 12  2  0  0  0
 11 13  1  0  0  0
 17 18  1  0  0  0
 12 14  1  0  0  0
 13 15  1  0  0  0
 13 16  1  0  0  0
M  END
> <minimizedAffinity>
-6.53299

$$$$
1SQO_UI2_A_1001


 24 26  0  0  0  0  0  0  0  0999 V2000
   25.7442   13.4389   32.0413 C   0  0  0  0  0  0  0  0  0  0  0  0
   26.4530   14.2655   31.1578 C   0  0  0  0  0  0  0  0  0  0  0  0
   26.1872   15.6854   31.1100 C   0  0  0  0  0  0  0  0  0  0  0  0
   25.1837   16.1964   31.9977 C   0  0  0  0  0  0  0  0  0  0  0  0
   24.4756   15.3918   32.9193 C   0  0  0  0  0  0  0  0  0  0  0  0
   24.7573   13.9936   32.9227 C   0  0  0  0  0  0  0  0  0  0  0  0
   26.8828   16.4720   30.1888 C   0  0  0  0  0  0  0  0  0  0  0  0
   26.4833   17.8327   30.0775 C   0  0  0  0  0  0  0  0  0  0  0  0
   25.4465   18.3871   30.8914 C   0  0  0  0  0  0  0  0  0  0  0  0
   24.8256   17.6177   31.8692 C   0  0  0  0  0  0  0  0  0  0  0  0
   24.9858   19.6993   30.7910 C   0  0  0  0  0  0  0  0  0  0  0  0
   24.0952   20.0457   29.8933 N   0  0  0  0  0  0  0  0  0  0  0  0
   25.3909   20.7242   31.5809 N   0  0  0  0  0  0  0  0  0  0  0  0
   23.7370   19.3729   29.2701 H   0  0  0  0  0  0  0  0  0  0  0  0
   26.0586   20.5672   32.2872 H   0  0  0  0  0  0  0  0  0  0  0  0
   25.0173   21.6254   31.4482 H   0  0  0  0  0  0  0  0  0  0  0  0
   23.5232   15.9058   33.8679 N   0  0  0  0  0  0  0  0  0  0  0  0
   23.8422   16.0516   34.7878 H   0  0  0  0  0  0  0  0  0  0  0  0
   22.1921   16.2157   33.6036 C   0  0  0  0  0  0  0  0  0  0  0  0
   21.4711   15.6699   32.5730 N   0  0  0  0  0  0  0  0  0  0  0  0
   20.1899   15.9875   32.2503 C   0  0  0  0  0  0  0  0  0  0  0  0
   19.4588   16.9822   33.0161 C   0  0  0  0  0  0  0  0  0  0  0  0
   20.3172   17.5386   34.0501 C   0  0  0  0  0  0  0  0  0  0  0  0
   21.5412   17.1949   34.3547 N   0  0  0  0  0  0  0  0  0  0  0  0
  1  2  2  0  0  0
  1  6  1  0  0  0
  2  3  1  0  0  0
  3  4  2  0  0  0
  3  7  1  0  0  0
  4  5  1  0  0  0
  4 10  1  0  0  0
  5  6  2  0  0  0
  5 17  1  0  0  0
  7  8  2  0  0  0
  8  9  1  0  0  0
  9 10  2  0  0  0
  9 11  1  0  0  0
 17 19  1  0  0  0
 19 20  1  0  0  0
 19 24  2  0  0  0
 20 21  2  0  0  0
 21 22  1  0  0  0
 22 23  2  0  0  0
 23 24  1  0  0  0
 11 12  2  0  0  0
 11 13  1  0  0  0
 17 18  1  0  0  0
 12 14  1  0  0  0
 13 15  1  0  0  0
 13 16  1  0  0  0
M  END
> <minimizedAffinity>
-6.52364

$$$$
1SQO_UI2_A_1001


 24 26  0  0  0  0  0  0  0  0999 V2000
   19.5503   16.9958   33.0328 C   0  0  0  0  0  0  0  0  0  0  0  0
   20.1814   17.7298   34.0472 C   0  0  0  0  0  0  0  0  0  0  0  0
   21.6086   17.6230   34.2496 C   0  0  0  0  0  0  0  0  0  0  0  0
   22.3327   16.7477   33.3745 C   0  0  0  0  0  0  0  0  0  0  0  0
   21.7275   16.0194   32.3250 C   0  0  0  0  0  0  0  0  0  0  0  0
   20.3149   16.1414   32.1702 C   0  0  0  0  0  0  0  0  0  0  0  0
   22.1976   18.3368   35.2959 C   0  0  0  0  0  0  0  0  0  0  0  0
   23.5752   18.0863   35.5466 C   0  0  0  0  0  0  0  0  0  0  0  0
   24.3378   17.1778   34.7480 C   0  0  0  0  0  0  0  0  0  0  0  0
   23.7633   16.5439   33.6519 C   0  0  0  0  0  0  0  0  0  0  0  0
   25.6763   16.8619   34.9787 C   0  0  0  0  0  0  0  0  0  0  0  0
   26.3549   16.1076   34.1483 N   0  0  0  0  0  0  0  0  0  0  0  0
   26.3982   17.2842   36.0459 N   0  0  0  0  0  0  0  0  0  0  0  0
   25.9200   15.7499   33.3407 H   0  0  0  0  0  0  0  0  0  0  0  0
   25.9790   17.8566   36.7284 H   0  0  0  0  0  0  0  0  0  0  0  0
   27.3416   17.0184   36.1383 H   0  0  0  0  0  0  0  0  0  0  0  0
   22.4553   15.1994   31.3928 N   0  0  0  0  0  0  0  0  0  0  0  0
   22.2737   15.3413   30.4357 H   0  0  0  0  0  0  0  0  0  0  0  0
   23.3926   14.2239   31.7209 C   0  0  0  0  0  0  0  0  0  0  0  0
   24.6109   14.0975   31.1046 N   0  0  0  0  0  0  0  0  0  0  0  0
   25.5275   13.1271   31.3585 C   0  0  0  0  0  0  0  0  0  0  0  0
   25.2632   12.1014   32.3526 C   0  0  0  0  0  0  0  0  0  0  0  0
   23.9339   12.2872   32.9129 C   0  0  0  0  0  0  0  0  0  0  0  0
   23.0813   13.2474   32.6675 N   0  0  0  0  0  0  0  0  0  0  0  0
  1  2  2  0  0  0
  1  6  1  0  0  0
  2  3  1  0  0  0
  3  4  2  0  0  0
  3  7  1  0  0  0
  4  5  1  0  0  0
  4 10  1  0  0  0
  5  6  2  0  0  0
  5 17  1  0  0  0
  7  8  2  0  0  0
  8  9  1  0  0  0
  9 10  2  0  0  0
  9 11  1  0  0  0
 17 19  1  0  0  0
 19 20  1  0  0  0
 19 24  2  0  0  0
 20 21  2  0  0  0
 21 22  1  0  0  0
 22 23  2  0  0  0
 23 24  1  0  0  0
 11 12  2  0  0  0
 11 13  1  0  0  0
 17 18  1  0  0  0
 12 14  1  0  0  0
 13 15  1  0  0  0
 13 16  1  0  0  0
M  END
> <minimizedAffinity>
-6.37761

$$$$
