3MUZ_IPT_1_2001


 19 19  0  0  0  0  0  0  0  0999 V2000
   15.1083   27.7634   75.5586 C   0  0  0  0  0  0  0  0  0  0  0  0
   13.9603   27.5850   76.5779 C   0  0  0  0  0  0  0  0  0  0  0  0
   14.3738   26.6856   77.6018 O   0  0  0  0  0  0  0  0  0  0  0  0
   12.7296   27.0310   75.8543 C   0  0  0  0  0  0  0  0  0  0  0  0
   11.6563   26.8566   76.7654 O   0  0  0  0  0  0  0  0  0  0  0  0
   12.3174   28.0106   74.7509 C   0  0  0  0  0  0  0  0  0  0  0  0
   11.9131   29.2710   75.3242 O   0  0  0  0  0  0  0  0  0  0  0  0
   13.5246   28.1827   73.7859 C   0  0  0  0  0  0  0  0  0  0  0  0
   14.6965   28.6667   74.4964 O   0  0  0  0  0  0  0  0  0  0  0  0
   14.5989   25.8284   77.2076 H   0  0  0  0  0  0  0  0  0  0  0  0
   11.4263   27.7116   77.1617 H   0  0  0  0  0  0  0  0  0  0  0  0
   12.6506   29.6479   75.8291 H   0  0  0  0  0  0  0  0  0  0  0  0
   13.1667   29.1730   72.6628 C   0  0  0  0  0  0  0  0  0  0  0  0
   11.7725   29.0935   72.3698 O   0  0  0  0  0  0  0  0  0  0  0  0
   11.5538   28.1938   72.0804 H   0  0  0  0  0  0  0  0  0  0  0  0
   16.5837   28.4318   76.3820 S   0  0  0  0  0  0  0  0  0  0  0  0
   17.8997   27.8796   75.2439 C   0  0  0  0  0  0  0  0  0  0  0  0
   18.1386   28.9085   74.1378 C   0  0  0  0  0  0  0  0  0  0  0  0
   19.1984   27.6917   76.0456 C   0  0  0  0  0  0  0  0  0  0  0  0
  1  2  1  0  0  0
  1  9  1  0  0  0
  1 16  1  0  0  0
  2  3  1  0  0  0
  2  4  1  0  0  0
  4  5  1  0  0  0
  4  6  1  0  0  0
  6  7  1  0  0  0
  6  8  1  0  0  0
  8  9  1  0  0  0
  8 13  1  0  0  0
 13 14  1  0  0  0
 16 17  1  0  0  0
 17 18  1  0  0  0
 17 19  1  0  0  0
  3 10  1  0  0  0
  5 11  1  0  0  0
  7 12  1  0  0  0
 14 15  1  0  0  0
M  END
> <minimizedAffinity>
-7.05177

$$$$
3MUZ_IPT_1_2001


 19 19  0  0  0  0  0  0  0  0999 V2000
   13.5759   28.2565   75.6765 C   0  0  0  0  0  0  0  0  0  0  0  0
   13.2933   28.0843   74.1668 C   0  0  0  0  0  0  0  0  0  0  0  0
   14.4513   28.4540   73.4247 O   0  0  0  0  0  0  0  0  0  0  0  0
   12.1093   28.9728   73.7744 C   0  0  0  0  0  0  0  0  0  0  0  0
   11.8246   28.8360   72.3913 O   0  0  0  0  0  0  0  0  0  0  0  0
   10.8841   28.5627   74.5977 C   0  0  0  0  0  0  0  0  0  0  0  0
   10.4951   27.2108   74.2791 O   0  0  0  0  0  0  0  0  0  0  0  0
   11.2445   28.7141   76.1029 C   0  0  0  0  0  0  0  0  0  0  0  0
   12.3970   27.8989   76.4486 O   0  0  0  0  0  0  0  0  0  0  0  0
   14.6747   29.3788   73.6135 H   0  0  0  0  0  0  0  0  0  0  0  0
   11.5992   27.9126   72.1974 H   0  0  0  0  0  0  0  0  0  0  0  0
   11.2298   26.6083   74.4747 H   0  0  0  0  0  0  0  0  0  0  0  0
   10.0476   28.2984   76.9775 C   0  0  0  0  0  0  0  0  0  0  0  0
    9.4221   29.4565   77.5285 O   0  0  0  0  0  0  0  0  0  0  0  0
   10.0612   29.9399   78.0752 H   0  0  0  0  0  0  0  0  0  0  0  0
   14.9698   27.2055   76.1803 S   0  0  0  0  0  0  0  0  0  0  0  0
   16.3045   28.4419   76.3278 C   0  0  0  0  0  0  0  0  0  0  0  0
   16.9300   28.4132   77.7232 C   0  0  0  0  0  0  0  0  0  0  0  0
   17.3882   28.1251   75.2838 C   0  0  0  0  0  0  0  0  0  0  0  0
  1  2  1  0  0  0
  1  9  1  0  0  0
  1 16  1  0  0  0
  2  3  1  0  0  0
  2  4  1  0  0  0
  4  5  1  0  0  0
  4  6  1  0  0  0
  6  7  1  0  0  0
  6  8  1  0  0  0
  8  9  1  0  0  0
  8 13  1  0  0  0
 13 14  1  0  0  0
 16 17  1  0  0  0
 17 18  1  0  0  0
 17 19  1  0  0  0
  3 10  1  0  0  0
  5 11  1  0  0  0
  7 12  1  0  0  0
 14 15  1  0  0  0
M  END
> <minimizedAffinity>
-6.84160

$$$$
3MUZ_IPT_1_2001


 19 19  0  0  0  0  0  0  0  0999 V2000
   13.8647   28.4745   75.3465 C   0  0  0  0  0  0  0  0  0  0  0  0
   13.4803   28.3801   73.8525 C   0  0  0  0  0  0  0  0  0  0  0  0
   14.5150   28.9564   73.0616 O   0  0  0  0  0  0  0  0  0  0  0  0
   12.1639   29.1290   73.6259 C   0  0  0  0  0  0  0  0  0  0  0  0
   11.7834   29.0597   72.2609 O   0  0  0  0  0  0  0  0  0  0  0  0
   11.0747   28.4976   74.4990 C   0  0  0  0  0  0  0  0  0  0  0  0
   10.8359   27.1336   74.0952 O   0  0  0  0  0  0  0  0  0  0  0  0
   11.5382   28.5821   75.9809 C   0  0  0  0  0  0  0  0  0  0  0  0
   12.8103   27.9050   76.1698 O   0  0  0  0  0  0  0  0  0  0  0  0
   14.6337   29.8860   73.3120 H   0  0  0  0  0  0  0  0  0  0  0  0
   11.6622   28.1317   72.0057 H   0  0  0  0  0  0  0  0  0  0  0  0
   11.6552   26.6220   74.1839 H   0  0  0  0  0  0  0  0  0  0  0  0
   10.4821   27.9452   76.9024 C   0  0  0  0  0  0  0  0  0  0  0  0
    9.1734   28.2142   76.4015 O   0  0  0  0  0  0  0  0  0  0  0  0
    9.0298   29.1730   76.3705 H   0  0  0  0  0  0  0  0  0  0  0  0
   15.4188   27.5848   75.6545 S   0  0  0  0  0  0  0  0  0  0  0  0
   15.1919   27.0760   77.3927 C   0  0  0  0  0  0  0  0  0  0  0  0
   14.8966   25.5788   77.4943 C   0  0  0  0  0  0  0  0  0  0  0  0
   16.4811   27.3886   78.1706 C   0  0  0  0  0  0  0  0  0  0  0  0
  1  2  1  0  0  0
  1  9  1  0  0  0
  1 16  1  0  0  0
  2  3  1  0  0  0
  2  4  1  0  0  0
  4  5  1  0  0  0
  4  6  1  0  0  0
  6  7  1  0  0  0
  6  8  1  0  0  0
  8  9  1  0  0  0
  8 13  1  0  0  0
 13 14  1  0  0  0
 16 17  1  0  0  0
 17 18  1  0  0  0
 17 19  1  0  0  0
  3 10  1  0  0  0
  5 11  1  0  0  0
  7 12  1  0  0  0
 14 15  1  0  0  0
M  END
> <minimizedAffinity>
-6.79496

$$$$
3MUZ_IPT_1_2001


 19 19  0  0  0  0  0  0  0  0999 V2000
   15.0088   27.7582   75.6743 C   0  0  0  0  0  0  0  0  0  0  0  0
   13.6302   27.4628   76.3074 C   0  0  0  0  0  0  0  0  0  0  0  0
   13.7770   26.4664   77.3143 O   0  0  0  0  0  0  0  0  0  0  0  0
   12.6727   26.9738   75.2169 C   0  0  0  0  0  0  0  0  0  0  0  0
   11.3957   26.6943   75.7680 O   0  0  0  0  0  0  0  0  0  0  0  0
   12.5461   28.0581   74.1420 C   0  0  0  0  0  0  0  0  0  0  0  0
   11.9488   29.2478   74.6974 O   0  0  0  0  0  0  0  0  0  0  0  0
   13.9666   28.3423   73.5768 C   0  0  0  0  0  0  0  0  0  0  0  0
   14.8741   28.7624   74.6316 O   0  0  0  0  0  0  0  0  0  0  0  0
   14.1366   25.6572   76.9184 H   0  0  0  0  0  0  0  0  0  0  0  0
   11.0310   27.5011   76.1643 H   0  0  0  0  0  0  0  0  0  0  0  0
   12.5009   29.5782   75.4233 H   0  0  0  0  0  0  0  0  0  0  0  0
   13.8973   29.4399   72.4995 C   0  0  0  0  0  0  0  0  0  0  0  0
   12.5748   29.5188   71.9696 O   0  0  0  0  0  0  0  0  0  0  0  0
   12.3350   28.6678   71.5706 H   0  0  0  0  0  0  0  0  0  0  0  0
   16.1688   28.3533   76.9399 S   0  0  0  0  0  0  0  0  0  0  0  0
   17.5743   27.2160   76.6886 C   0  0  0  0  0  0  0  0  0  0  0  0
   18.8934   27.8714   77.1001 C   0  0  0  0  0  0  0  0  0  0  0  0
   17.3495   25.9574   77.5431 C   0  0  0  0  0  0  0  0  0  0  0  0
  1  2  1  0  0  0
  1  9  1  0  0  0
  1 16  1  0  0  0
  2  3  1  0  0  0
  2  4  1  0  0  0
  4  5  1  0  0  0
  4  6  1  0  0  0
  6  7  1  0  0  0
  6  8  1  0  0  0
  8  9  1  0  0  0
  8 13  1  0  0  0
 13 14  1  0  0  0
 16 17  1  0  0  0
 17 18  1  0  0  0
 17 19  1  0  0  0
  3 10  1  0  0  0
  5 11  1  0  0  0
  7 12  1  0  0  0
 14 15  1  0  0  0
M  END
> <minimizedAffinity>
-6.73187

$$$$
3MUZ_IPT_1_2001


 19 19  0  0  0  0  0  0  0  0999 V2000
   13.4449   28.2812   75.8322 C   0  0  0  0  0  0  0  0  0  0  0  0
   14.4647   29.0556   74.9667 C   0  0  0  0  0  0  0  0  0  0  0  0
   13.7919   29.6449   73.8585 O   0  0  0  0  0  0  0  0  0  0  0  0
   15.5426   28.0855   74.4745 C   0  0  0  0  0  0  0  0  0  0  0  0
   16.4959   28.7683   73.6760 O   0  0  0  0  0  0  0  0  0  0  0  0
   16.2381   27.4568   75.6862 C   0  0  0  0  0  0  0  0  0  0  0  0
   16.9263   28.4683   76.4503 O   0  0  0  0  0  0  0  0  0  0  0  0
   15.1572   26.7334   76.5385 C   0  0  0  0  0  0  0  0  0  0  0  0
   14.1188   27.6587   76.9601 O   0  0  0  0  0  0  0  0  0  0  0  0
   13.3722   28.9497   73.3281 H   0  0  0  0  0  0  0  0  0  0  0  0
   16.9197   29.4641   74.2024 H   0  0  0  0  0  0  0  0  0  0  0  0
   16.2889   29.1329   76.7551 H   0  0  0  0  0  0  0  0  0  0  0  0
   15.8038   26.0949   77.7812 C   0  0  0  0  0  0  0  0  0  0  0  0
   17.0888   25.5724   77.4471 O   0  0  0  0  0  0  0  0  0  0  0  0
   16.9939   24.8971   76.7573 H   0  0  0  0  0  0  0  0  0  0  0  0
   12.1557   29.4059   76.4443 S   0  0  0  0  0  0  0  0  0  0  0  0
   10.7261   28.8791   75.4391 C   0  0  0  0  0  0  0  0  0  0  0  0
   11.0771   27.6670   74.5750 C   0  0  0  0  0  0  0  0  0  0  0  0
    9.5700   28.5068   76.3825 C   0  0  0  0  0  0  0  0  0  0  0  0
  1  2  1  0  0  0
  1  9  1  0  0  0
  1 16  1  0  0  0
  2  3  1  0  0  0
  2  4  1  0  0  0
  4  5  1  0  0  0
  4  6  1  0  0  0
  6  7  1  0  0  0
  6  8  1  0  0  0
  8  9  1  0  0  0
  8 13  1  0  0  0
 13 14  1  0  0  0
 16 17  1  0  0  0
 17 18  1  0  0  0
 17 19  1  0  0  0
  3 10  1  0  0  0
  5 11  1  0  0  0
  7 12  1  0  0  0
 14 15  1  0  0  0
M  END
> <minimizedAffinity>
-5.91678

$$$$
3MUZ_IPT_1_2001


 19 19  0  0  0  0  0  0  0  0999 V2000
   14.3745   27.2937   76.7405 C   0  0  0  0  0  0  0  0  0  0  0  0
   14.9489   27.4451   75.3137 C   0  0  0  0  0  0  0  0  0  0  0  0
   16.3645   27.5823   75.3870 O   0  0  0  0  0  0  0  0  0  0  0  0
   14.3324   28.6820   74.6542 C   0  0  0  0  0  0  0  0  0  0  0  0
   14.8406   28.8477   73.3401 O   0  0  0  0  0  0  0  0  0  0  0  0
   12.8105   28.5128   74.6026 C   0  0  0  0  0  0  0  0  0  0  0  0
   12.4583   27.3928   73.7647 O   0  0  0  0  0  0  0  0  0  0  0  0
   12.2991   28.3205   76.0585 C   0  0  0  0  0  0  0  0  0  0  0  0
   12.9270   27.1691   76.6849 O   0  0  0  0  0  0  0  0  0  0  0  0
   16.5866   28.3651   75.9150 H   0  0  0  0  0  0  0  0  0  0  0  0
   14.6200   28.0677   72.8073 H   0  0  0  0  0  0  0  0  0  0  0  0
   12.8594   26.5843   74.1202 H   0  0  0  0  0  0  0  0  0  0  0  0
   10.7714   28.1301   76.0614 C   0  0  0  0  0  0  0  0  0  0  0  0
   10.3640   27.4825   77.2658 O   0  0  0  0  0  0  0  0  0  0  0  0
   10.7915   26.6140   77.3265 H   0  0  0  0  0  0  0  0  0  0  0  0
   15.0766   25.8262   77.5499 S   0  0  0  0  0  0  0  0  0  0  0  0
   16.0214   26.5951   78.9093 C   0  0  0  0  0  0  0  0  0  0  0  0
   15.7508   25.8867   80.2375 C   0  0  0  0  0  0  0  0  0  0  0  0
   17.5213   26.4988   78.5839 C   0  0  0  0  0  0  0  0  0  0  0  0
  1  2  1  0  0  0
  1  9  1  0  0  0
  1 16  1  0  0  0
  2  3  1  0  0  0
  2  4  1  0  0  0
  4  5  1  0  0  0
  4  6  1  0  0  0
  6  7  1  0  0  0
  6  8  1  0  0  0
  8  9  1  0  0  0
  8 13  1  0  0  0
 13 14  1  0  0  0
 16 17  1  0  0  0
 17 18  1  0  0  0
 17 19  1  0  0  0
  3 10  1  0  0  0
  5 11  1  0  0  0
  7 12  1  0  0  0
 14 15  1  0  0  0
M  END
> <minimizedAffinity>
-5.77808

$$$$
3MUZ_IPT_1_2001


 19 19  0  0  0  0  0  0  0  0999 V2000
   16.2392   26.8439   76.7568 C   0  0  0  0  0  0  0  0  0  0  0  0
   16.5719   27.8126   77.9143 C   0  0  0  0  0  0  0  0  0  0  0  0
   17.3363   28.9039   77.4115 O   0  0  0  0  0  0  0  0  0  0  0  0
   17.3676   27.0597   78.9844 C   0  0  0  0  0  0  0  0  0  0  0  0
   17.6881   27.9240   80.0628 O   0  0  0  0  0  0  0  0  0  0  0  0
   16.5277   25.8846   79.4953 C   0  0  0  0  0  0  0  0  0  0  0  0
   15.3344   26.3666   80.1466 O   0  0  0  0  0  0  0  0  0  0  0  0
   16.1882   24.9735   78.2818 C   0  0  0  0  0  0  0  0  0  0  0  0
   15.4724   25.7143   77.2565 O   0  0  0  0  0  0  0  0  0  0  0  0
   18.1570   28.5693   77.0172 H   0  0  0  0  0  0  0  0  0  0  0  0
   16.8703   28.2605   80.4615 H   0  0  0  0  0  0  0  0  0  0  0  0
   14.8101   26.8864   79.5174 H   0  0  0  0  0  0  0  0  0  0  0  0
   15.3291   23.7810   78.7400 C   0  0  0  0  0  0  0  0  0  0  0  0
   15.6523   23.4373   80.0866 O   0  0  0  0  0  0  0  0  0  0  0  0
   16.5892   23.1924   80.1419 H   0  0  0  0  0  0  0  0  0  0  0  0
   15.2830   27.7023   75.4722 S   0  0  0  0  0  0  0  0  0  0  0  0
   13.6168   27.7020   76.2176 C   0  0  0  0  0  0  0  0  0  0  0  0
   13.1143   29.1288   76.4435 C   0  0  0  0  0  0  0  0  0  0  0  0
   12.6516   26.9730   75.2680 C   0  0  0  0  0  0  0  0  0  0  0  0
  1  2  1  0  0  0
  1  9  1  0  0  0
  1 16  1  0  0  0
  2  3  1  0  0  0
  2  4  1  0  0  0
  4  5  1  0  0  0
  4  6  1  0  0  0
  6  7  1  0  0  0
  6  8  1  0  0  0
  8  9  1  0  0  0
  8 13  1  0  0  0
 13 14  1  0  0  0
 16 17  1  0  0  0
 17 18  1  0  0  0
 17 19  1  0  0  0
  3 10  1  0  0  0
  5 11  1  0  0  0
  7 12  1  0  0  0
 14 15  1  0  0  0
M  END
> <minimizedAffinity>
-5.61189

$$$$
3MUZ_IPT_1_2001


 19 19  0  0  0  0  0  0  0  0999 V2000
   16.5648   28.2068   76.0663 C   0  0  0  0  0  0  0  0  0  0  0  0
   16.0644   27.5737   77.3845 C   0  0  0  0  0  0  0  0  0  0  0  0
   17.1594   26.9638   78.0606 O   0  0  0  0  0  0  0  0  0  0  0  0
   14.9939   26.5271   77.0626 C   0  0  0  0  0  0  0  0  0  0  0  0
   14.5134   25.9273   78.2551 O   0  0  0  0  0  0  0  0  0  0  0  0
   13.8373   27.2081   76.3238 C   0  0  0  0  0  0  0  0  0  0  0  0
   13.2025   28.1834   77.1761 O   0  0  0  0  0  0  0  0  0  0  0  0
   14.4100   27.8622   75.0345 C   0  0  0  0  0  0  0  0  0  0  0  0
   15.4552   28.8201   75.3547 O   0  0  0  0  0  0  0  0  0  0  0  0
   17.5480   26.2788   77.4943 H   0  0  0  0  0  0  0  0  0  0  0  0
   14.1224   26.6082   78.8247 H   0  0  0  0  0  0  0  0  0  0  0  0
   13.8525   28.8527   77.4414 H   0  0  0  0  0  0  0  0  0  0  0  0
   13.2870   28.5759   74.2601 C   0  0  0  0  0  0  0  0  0  0  0  0
   13.8416   29.5881   73.4212 O   0  0  0  0  0  0  0  0  0  0  0  0
   14.3126   30.2376   73.9663 H   0  0  0  0  0  0  0  0  0  0  0  0
   17.8299   29.4644   76.4120 S   0  0  0  0  0  0  0  0  0  0  0  0
   19.0679   29.0772   75.1278 C   0  0  0  0  0  0  0  0  0  0  0  0
   19.9059   27.8594   75.5200 C   0  0  0  0  0  0  0  0  0  0  0  0
   18.3346   28.7800   73.8091 C   0  0  0  0  0  0  0  0  0  0  0  0
  1  2  1  0  0  0
  1  9  1  0  0  0
  1 16  1  0  0  0
  2  3  1  0  0  0
  2  4  1  0  0  0
  4  5  1  0  0  0
  4  6  1  0  0  0
  6  7  1  0  0  0
  6  8  1  0  0  0
  8  9  1  0  0  0
  8 13  1  0  0  0
 13 14  1  0  0  0
 16 17  1  0  0  0
 17 18  1  0  0  0
 17 19  1  0  0  0
  3 10  1  0  0  0
  5 11  1  0  0  0
  7 12  1  0  0  0
 14 15  1  0  0  0
M  END
> <minimizedAffinity>
-5.56359

$$$$
3MUZ_IPT_1_2001


 19 19  0  0  0  0  0  0  0  0999 V2000
   14.3491   28.5732   76.8797 C   0  0  0  0  0  0  0  0  0  0  0  0
   14.4961   27.0374   76.7878 C   0  0  0  0  0  0  0  0  0  0  0  0
   13.2923   26.4206   77.2335 O   0  0  0  0  0  0  0  0  0  0  0  0
   15.6717   26.5935   77.6629 C   0  0  0  0  0  0  0  0  0  0  0  0
   15.8328   25.1855   77.5988 O   0  0  0  0  0  0  0  0  0  0  0  0
   16.9480   27.2831   77.1702 C   0  0  0  0  0  0  0  0  0  0  0  0
   17.2624   26.8571   75.8284 O   0  0  0  0  0  0  0  0  0  0  0  0
   16.7226   28.8199   77.2438 C   0  0  0  0  0  0  0  0  0  0  0  0
   15.5767   29.2188   76.4436 O   0  0  0  0  0  0  0  0  0  0  0  0
   13.1173   26.6793   78.1518 H   0  0  0  0  0  0  0  0  0  0  0  0
   16.0094   24.9217   76.6823 H   0  0  0  0  0  0  0  0  0  0  0  0
   16.5271   27.0821   75.2371 H   0  0  0  0  0  0  0  0  0  0  0  0
   17.9748   29.5626   76.7433 C   0  0  0  0  0  0  0  0  0  0  0  0
   17.8957   29.7534   75.3315 O   0  0  0  0  0  0  0  0  0  0  0  0
   17.8419   28.8908   74.8912 H   0  0  0  0  0  0  0  0  0  0  0  0
   12.9684   29.1371   75.8419 S   0  0  0  0  0  0  0  0  0  0  0  0
   13.1285   28.0182   74.4086 C   0  0  0  0  0  0  0  0  0  0  0  0
   11.7578   27.6675   73.8279 C   0  0  0  0  0  0  0  0  0  0  0  0
   13.9689   28.7182   73.3276 C   0  0  0  0  0  0  0  0  0  0  0  0
  1  2  1  0  0  0
  1  9  1  0  0  0
  1 16  1  0  0  0
  2  3  1  0  0  0
  2  4  1  0  0  0
  4  5  1  0  0  0
  4  6  1  0  0  0
  6  7  1  0  0  0
  6  8  1  0  0  0
  8  9  1  0  0  0
  8 13  1  0  0  0
 13 14  1  0  0  0
 16 17  1  0  0  0
 17 18  1  0  0  0
 17 19  1  0  0  0
  3 10  1  0  0  0
  5 11  1  0  0  0
  7 12  1  0  0  0
 14 15  1  0  0  0
M  END
> <minimizedAffinity>
-5.51044

$$$$
3MUZ_IPT_1_2001


 19 19  0  0  0  0  0  0  0  0999 V2000
   16.0338   26.2489   77.6228 C   0  0  0  0  0  0  0  0  0  0  0  0
   15.0378   27.3001   77.0828 C   0  0  0  0  0  0  0  0  0  0  0  0
   13.7184   26.7656   77.1250 O   0  0  0  0  0  0  0  0  0  0  0  0
   15.4170   27.6559   75.6424 C   0  0  0  0  0  0  0  0  0  0  0  0
   14.5194   28.6214   75.1181 O   0  0  0  0  0  0  0  0  0  0  0  0
   16.8439   28.2135   75.6260 C   0  0  0  0  0  0  0  0  0  0  0  0
   16.9101   29.4445   76.3748 O   0  0  0  0  0  0  0  0  0  0  0  0
   17.7892   27.1314   76.2205 C   0  0  0  0  0  0  0  0  0  0  0  0
   17.3890   26.7729   77.5709 O   0  0  0  0  0  0  0  0  0  0  0  0
   13.6768   25.9638   76.5806 H   0  0  0  0  0  0  0  0  0  0  0  0
   14.5582   29.4260   75.6585 H   0  0  0  0  0  0  0  0  0  0  0  0
   16.6402   29.2801   77.2919 H   0  0  0  0  0  0  0  0  0  0  0  0
   19.2389   27.6492   76.2409 C   0  0  0  0  0  0  0  0  0  0  0  0
   19.4466   28.5573   75.1601 O   0  0  0  0  0  0  0  0  0  0  0  0
   19.2850   28.1015   74.3192 H   0  0  0  0  0  0  0  0  0  0  0  0
   15.6203   25.8116   79.3372 S   0  0  0  0  0  0  0  0  0  0  0  0
   15.6517   23.9885   79.2503 C   0  0  0  0  0  0  0  0  0  0  0  0
   15.1806   23.4942   77.8818 C   0  0  0  0  0  0  0  0  0  0  0  0
   17.0926   23.5079   79.4904 C   0  0  0  0  0  0  0  0  0  0  0  0
  1  2  1  0  0  0
  1  9  1  0  0  0
  1 16  1  0  0  0
  2  3  1  0  0  0
  2  4  1  0  0  0
  4  5  1  0  0  0
  4  6  1  0  0  0
  6  7  1  0  0  0
  6  8  1  0  0  0
  8  9  1  0  0  0
  8 13  1  0  0  0
 13 14  1  0  0  0
 16 17  1  0  0  0
 17 18  1  0  0  0
 17 19  1  0  0  0
  3 10  1  0  0  0
  5 11  1  0  0  0
  7 12  1  0  0  0
 14 15  1  0  0  0
M  END
> <minimizedAffinity>
-5.27695

$$$$
