1O33_801_A_246


 24 26  0  0  0  0  0  0  0  0999 V2000
   44.1329   -2.9246   26.3927 C   0  0  0  0  0  0  0  0  0  0  0  0
   44.2804   -1.5218   26.3645 C   0  0  0  0  0  0  0  0  0  0  0  0
   44.1316   -0.7525   27.5045 C   0  0  0  0  0  0  0  0  0  0  0  0
   43.8393   -1.3958   28.6598 C   0  0  0  0  0  0  0  0  0  0  0  0
   43.6787   -2.7303   28.7369 C   0  0  0  0  0  0  0  0  0  0  0  0
   43.8174   -3.5435   27.6120 C   0  0  0  0  0  0  0  0  0  0  0  0
   43.6559   -0.9441   29.8467 N   0  0  0  0  0  0  0  0  0  0  0  0
   43.3980   -3.1225   29.9550 N   0  0  0  0  0  0  0  0  0  0  0  0
   43.4086   -1.9633   30.6003 C   0  0  0  0  0  0  0  0  0  0  0  0
   43.6960   -0.0017   30.1287 H   0  0  0  0  0  0  0  0  0  0  0  0
   44.3133   -3.6683   25.2117 C   0  0  0  0  0  0  0  0  0  0  0  0
   44.1836   -4.9823   25.2503 N   0  0  0  0  0  0  0  0  0  0  0  0
   44.6112   -3.0173   24.0940 N   0  0  0  0  0  0  0  0  0  0  0  0
   43.9618   -5.4303   26.0985 H   0  0  0  0  0  0  0  0  0  0  0  0
   44.3088   -5.5136   24.4310 H   0  0  0  0  0  0  0  0  0  0  0  0
   44.6997   -2.0369   24.1041 H   0  0  0  0  0  0  0  0  0  0  0  0
   44.7437   -3.5149   23.2549 H   0  0  0  0  0  0  0  0  0  0  0  0
   43.2233   -1.8227   31.9677 C   0  0  0  0  0  0  0  0  0  0  0  0
   42.2868   -2.5598   32.5310 N   0  0  0  0  0  0  0  0  0  0  0  0
   42.0131   -2.5323   33.8136 C   0  0  0  0  0  0  0  0  0  0  0  0
   42.7287   -1.6893   34.6474 C   0  0  0  0  0  0  0  0  0  0  0  0
   43.7375   -0.8838   34.1060 C   0  0  0  0  0  0  0  0  0  0  0  0
   44.0037   -0.9389   32.7397 C   0  0  0  0  0  0  0  0  0  0  0  0
   45.0023   -0.1384   32.1842 O   0  0  0  0  0  0  0  0  0  0  0  0
  1  2  2  0  0  0
  1  6  1  0  0  0
  1 11  1  0  0  0
  2  3  1  0  0  0
  3  4  2  0  0  0
  4  5  1  0  0  0
  4  7  1  0  0  0
  5  6  2  0  0  0
  5  8  1  0  0  0
 11 12  1  0  0  0
 11 13  2  0  0  0
  7  9  1  0  0  0
  8  9  2  0  0  0
  9 18  1  0  0  0
 18 19  2  0  0  0
 18 23  1  0  0  0
 19 20  1  0  0  0
 20 21  2  0  0  0
 21 22  1  0  0  0
 22 23  2  0  0  0
 23 24  1  0  0  0
 12 14  1  0  0  0
 12 15  1  0  0  0
 13 16  1  0  0  0
 13 17  1  0  0  0
  7 10  1  0  0  0
M  CHG 1  13   1
M  CHG 1  24  -1
M  END
> <minimizedAffinity>
-8.53868

$$$$
1O33_801_A_246


 24 26  0  0  0  0  0  0  0  0999 V2000
   44.0085   -2.8759   26.3110 C   0  0  0  0  0  0  0  0  0  0  0  0
   44.4016   -1.5210   26.3274 C   0  0  0  0  0  0  0  0  0  0  0  0
   44.1457   -0.7034   27.4135 C   0  0  0  0  0  0  0  0  0  0  0  0
   43.5018   -1.2514   28.4714 C   0  0  0  0  0  0  0  0  0  0  0  0
   43.0976   -2.5352   28.5004 C   0  0  0  0  0  0  0  0  0  0  0  0
   43.3327   -3.3939   27.4265 C   0  0  0  0  0  0  0  0  0  0  0  0
   43.1471   -0.7391   29.5931 N   0  0  0  0  0  0  0  0  0  0  0  0
   42.4950   -2.8361   29.6242 N   0  0  0  0  0  0  0  0  0  0  0  0
   42.5678   -1.6771   30.2657 C   0  0  0  0  0  0  0  0  0  0  0  0
   43.2892    0.1904   29.8848 H   0  0  0  0  0  0  0  0  0  0  0  0
   44.3081   -3.6751   25.1920 C   0  0  0  0  0  0  0  0  0  0  0  0
   44.2710   -4.9902   25.3098 N   0  0  0  0  0  0  0  0  0  0  0  0
   44.6210   -3.0734   24.0511 N   0  0  0  0  0  0  0  0  0  0  0  0
   44.0345   -5.4007   26.1728 H   0  0  0  0  0  0  0  0  0  0  0  0
   44.4799   -5.5599   24.5345 H   0  0  0  0  0  0  0  0  0  0  0  0
   44.6382   -2.0903   24.0017 H   0  0  0  0  0  0  0  0  0  0  0  0
   44.8359   -3.6102   23.2543 H   0  0  0  0  0  0  0  0  0  0  0  0
   42.1177   -1.4652   31.5605 C   0  0  0  0  0  0  0  0  0  0  0  0
   42.6897   -2.1620   32.5222 N   0  0  0  0  0  0  0  0  0  0  0  0
   42.3673   -2.0539   33.7891 C   0  0  0  0  0  0  0  0  0  0  0  0
   41.3716   -1.1690   34.1680 C   0  0  0  0  0  0  0  0  0  0  0  0
   40.7294   -0.4000   33.1903 C   0  0  0  0  0  0  0  0  0  0  0  0
   41.0976   -0.5382   31.8538 C   0  0  0  0  0  0  0  0  0  0  0  0
   40.4632    0.2172   30.8671 O   0  0  0  0  0  0  0  0  0  0  0  0
  1  2  2  0  0  0
  1  6  1  0  0  0
  1 11  1  0  0  0
  2  3  1  0  0  0
  3  4  2  0  0  0
  4  5  1  0  0  0
  4  7  1  0  0  0
  5  6  2  0  0  0
  5  8  1  0  0  0
 11 12  1  0  0  0
 11 13  2  0  0  0
  7  9  1  0  0  0
  8  9  2  0  0  0
  9 18  1  0  0  0
 18 19  2  0  0  0
 18 23  1  0  0  0
 19 20  1  0  0  0
 20 21  2  0  0  0
 21 22  1  0  0  0
 22 23  2  0  0  0
 23 24  1  0  0  0
 12 14  1  0  0  0
 12 15  1  0  0  0
 13 16  1  0  0  0
 13 17  1  0  0  0
  7 10  1  0  0  0
M  CHG 1  13   1
M  CHG 1  24  -1
M  END
> <minimizedAffinity>
-8.24494

$$$$
1O33_801_A_246


 24 26  0  0  0  0  0  0  0  0999 V2000
   43.9905   -2.6058   26.5111 C   0  0  0  0  0  0  0  0  0  0  0  0
   43.5204   -3.8541   26.9706 C   0  0  0  0  0  0  0  0  0  0  0  0
   43.2264   -4.0735   28.3044 C   0  0  0  0  0  0  0  0  0  0  0  0
   43.4038   -3.0408   29.1624 C   0  0  0  0  0  0  0  0  0  0  0  0
   43.8591   -1.8344   28.7754 C   0  0  0  0  0  0  0  0  0  0  0  0
   44.1700   -1.5706   27.4413 C   0  0  0  0  0  0  0  0  0  0  0  0
   43.2084   -2.9604   30.4280 N   0  0  0  0  0  0  0  0  0  0  0  0
   43.9516   -0.9980   29.7796 N   0  0  0  0  0  0  0  0  0  0  0  0
   43.5217   -1.7576   30.7787 C   0  0  0  0  0  0  0  0  0  0  0  0
   42.8823   -3.6777   31.0182 H   0  0  0  0  0  0  0  0  0  0  0  0
   44.2576   -2.4228   25.1415 C   0  0  0  0  0  0  0  0  0  0  0  0
   44.6542   -3.4543   24.4179 N   0  0  0  0  0  0  0  0  0  0  0  0
   44.1016   -1.2108   24.6235 N   0  0  0  0  0  0  0  0  0  0  0  0
   44.7587   -4.3388   24.8373 H   0  0  0  0  0  0  0  0  0  0  0  0
   44.8454   -3.3385   23.4591 H   0  0  0  0  0  0  0  0  0  0  0  0
   43.8042   -0.4660   25.1945 H   0  0  0  0  0  0  0  0  0  0  0  0
   44.2833   -1.0565   23.6683 H   0  0  0  0  0  0  0  0  0  0  0  0
   43.3631   -1.3219   32.0860 C   0  0  0  0  0  0  0  0  0  0  0  0
   43.4363   -0.0241   32.3049 N   0  0  0  0  0  0  0  0  0  0  0  0
   43.2963    0.5227   33.4890 C   0  0  0  0  0  0  0  0  0  0  0  0
   43.0608   -0.2830   34.5905 C   0  0  0  0  0  0  0  0  0  0  0  0
   42.9709   -1.6695   34.4192 C   0  0  0  0  0  0  0  0  0  0  0  0
   43.1227   -2.2173   33.1473 C   0  0  0  0  0  0  0  0  0  0  0  0
   43.0410   -3.5977   32.9610 O   0  0  0  0  0  0  0  0  0  0  0  0
  1  2  2  0  0  0
  1  6  1  0  0  0
  1 11  1  0  0  0
  2  3  1  0  0  0
  3  4  2  0  0  0
  4  5  1  0  0  0
  4  7  1  0  0  0
  5  6  2  0  0  0
  5  8  1  0  0  0
 11 12  1  0  0  0
 11 13  2  0  0  0
  7  9  1  0  0  0
  8  9  2  0  0  0
  9 18  1  0  0  0
 18 19  2  0  0  0
 18 23  1  0  0  0
 19 20  1  0  0  0
 20 21  2  0  0  0
 21 22  1  0  0  0
 22 23  2  0  0  0
 23 24  1  0  0  0
 12 14  1  0  0  0
 12 15  1  0  0  0
 13 16  1  0  0  0
 13 17  1  0  0  0
  7 10  1  0  0  0
M  CHG 1  13   1
M  CHG 1  24  -1
M  END
> <minimizedAffinity>
-8.09092

$$$$
1O33_801_A_246


 24 26  0  0  0  0  0  0  0  0999 V2000
   44.0566   -2.3765   26.3294 C   0  0  0  0  0  0  0  0  0  0  0  0
   44.1452   -1.2282   27.1441 C   0  0  0  0  0  0  0  0  0  0  0  0
   43.9739   -1.2952   28.5152 C   0  0  0  0  0  0  0  0  0  0  0  0
   43.7183   -2.5104   29.0553 C   0  0  0  0  0  0  0  0  0  0  0  0
   43.6142   -3.6336   28.3203 C   0  0  0  0  0  0  0  0  0  0  0  0
   43.7774   -3.6113   26.9350 C   0  0  0  0  0  0  0  0  0  0  0  0
   43.5261   -2.8616   30.2744 N   0  0  0  0  0  0  0  0  0  0  0  0
   43.3602   -4.6843   29.0605 N   0  0  0  0  0  0  0  0  0  0  0  0
   43.3278   -4.1377   30.2689 C   0  0  0  0  0  0  0  0  0  0  0  0
   43.5293   -2.2715   31.0625 H   0  0  0  0  0  0  0  0  0  0  0  0
   44.2581   -2.2635   24.9412 C   0  0  0  0  0  0  0  0  0  0  0  0
   44.6501   -3.3235   24.2575 N   0  0  0  0  0  0  0  0  0  0  0  0
   44.0469   -1.0862   24.3656 N   0  0  0  0  0  0  0  0  0  0  0  0
   44.7967   -4.1806   24.7193 H   0  0  0  0  0  0  0  0  0  0  0  0
   44.7958   -3.2566   23.2861 H   0  0  0  0  0  0  0  0  0  0  0  0
   43.7549   -0.3184   24.9082 H   0  0  0  0  0  0  0  0  0  0  0  0
   44.1821   -0.9809   23.3961 H   0  0  0  0  0  0  0  0  0  0  0  0
   43.1482   -4.8459   31.4479 C   0  0  0  0  0  0  0  0  0  0  0  0
   43.9211   -5.8949   31.6480 N   0  0  0  0  0  0  0  0  0  0  0  0
   43.8631   -6.6467   32.7214 C   0  0  0  0  0  0  0  0  0  0  0  0
   42.9464   -6.3489   33.7159 C   0  0  0  0  0  0  0  0  0  0  0  0
   42.0999   -5.2449   33.5598 C   0  0  0  0  0  0  0  0  0  0  0  0
   42.1891   -4.4662   32.4080 C   0  0  0  0  0  0  0  0  0  0  0  0
   41.3488   -3.3659   32.2354 O   0  0  0  0  0  0  0  0  0  0  0  0
  1  2  2  0  0  0
  1  6  1  0  0  0
  1 11  1  0  0  0
  2  3  1  0  0  0
  3  4  2  0  0  0
  4  5  1  0  0  0
  4  7  1  0  0  0
  5  6  2  0  0  0
  5  8  1  0  0  0
 11 12  1  0  0  0
 11 13  2  0  0  0
  7  9  1  0  0  0
  8  9  2  0  0  0
  9 18  1  0  0  0
 18 19  2  0  0  0
 18 23  1  0  0  0
 19 20  1  0  0  0
 20 21  2  0  0  0
 21 22  1  0  0  0
 22 23  2  0  0  0
 23 24  1  0  0  0
 12 14  1  0  0  0
 12 15  1  0  0  0
 13 16  1  0  0  0
 13 17  1  0  0  0
  7 10  1  0  0  0
M  CHG 1  13   1
M  CHG 1  24  -1
M  END
> <minimizedAffinity>
-7.39564

$$$$
1O33_801_A_246


 24 26  0  0  0  0  0  0  0  0999 V2000
   43.5901   -2.5709   27.6317 C   0  0  0  0  0  0  0  0  0  0  0  0
   42.8443   -3.7026   28.0235 C   0  0  0  0  0  0  0  0  0  0  0  0
   42.0457   -3.6909   29.1530 C   0  0  0  0  0  0  0  0  0  0  0  0
   42.0006   -2.5466   29.8758 C   0  0  0  0  0  0  0  0  0  0  0  0
   42.7007   -1.4439   29.5496 C   0  0  0  0  0  0  0  0  0  0  0  0
   43.5200   -1.4127   28.4210 C   0  0  0  0  0  0  0  0  0  0  0  0
   41.3521   -2.2557   30.9441 N   0  0  0  0  0  0  0  0  0  0  0  0
   42.5004   -0.4652   30.3972 N   0  0  0  0  0  0  0  0  0  0  0  0
   41.6426   -1.0317   31.2359 C   0  0  0  0  0  0  0  0  0  0  0  0
   40.7489   -2.8511   31.4449 H   0  0  0  0  0  0  0  0  0  0  0  0
   44.3733   -2.6226   26.4636 C   0  0  0  0  0  0  0  0  0  0  0  0
   44.4031   -3.7371   25.7553 N   0  0  0  0  0  0  0  0  0  0  0  0
   45.0602   -1.5417   26.1148 N   0  0  0  0  0  0  0  0  0  0  0  0
   43.8800   -4.5190   26.0457 H   0  0  0  0  0  0  0  0  0  0  0  0
   44.9483   -3.7860   24.9371 H   0  0  0  0  0  0  0  0  0  0  0  0
   45.0131   -0.7287   26.6681 H   0  0  0  0  0  0  0  0  0  0  0  0
   45.6166   -1.5529   25.3027 H   0  0  0  0  0  0  0  0  0  0  0  0
   41.0521   -0.3860   32.3122 C   0  0  0  0  0  0  0  0  0  0  0  0
   41.7993   -0.1781   33.3781 N   0  0  0  0  0  0  0  0  0  0  0  0
   41.3706    0.4274   34.4598 C   0  0  0  0  0  0  0  0  0  0  0  0
   40.0636    0.8819   34.5164 C   0  0  0  0  0  0  0  0  0  0  0  0
   39.2231    0.6914   33.4133 C   0  0  0  0  0  0  0  0  0  0  0  0
   39.7111    0.0459   32.2792 C   0  0  0  0  0  0  0  0  0  0  0  0
   38.8842   -0.1563   31.1737 O   0  0  0  0  0  0  0  0  0  0  0  0
  1  2  2  0  0  0
  1  6  1  0  0  0
  1 11  1  0  0  0
  2  3  1  0  0  0
  3  4  2  0  0  0
  4  5  1  0  0  0
  4  7  1  0  0  0
  5  6  2  0  0  0
  5  8  1  0  0  0
 11 12  1  0  0  0
 11 13  2  0  0  0
  7  9  1  0  0  0
  8  9  2  0  0  0
  9 18  1  0  0  0
 18 19  2  0  0  0
 18 23  1  0  0  0
 19 20  1  0  0  0
 20 21  2  0  0  0
 21 22  1  0  0  0
 22 23  2  0  0  0
 23 24  1  0  0  0
 12 14  1  0  0  0
 12 15  1  0  0  0
 13 16  1  0  0  0
 13 17  1  0  0  0
  7 10  1  0  0  0
M  CHG 1  13   1
M  CHG 1  24  -1
M  END
> <minimizedAffinity>
-6.72177

$$$$
1O33_801_A_246


 24 26  0  0  0  0  0  0  0  0999 V2000
   42.4131   -0.2599   33.3817 C   0  0  0  0  0  0  0  0  0  0  0  0
   41.0997   -0.1936   32.8709 C   0  0  0  0  0  0  0  0  0  0  0  0
   40.8134   -0.5212   31.5578 C   0  0  0  0  0  0  0  0  0  0  0  0
   41.8439   -0.9135   30.7717 C   0  0  0  0  0  0  0  0  0  0  0  0
   43.1155   -0.9836   31.2086 C   0  0  0  0  0  0  0  0  0  0  0  0
   43.4491   -0.6602   32.5239 C   0  0  0  0  0  0  0  0  0  0  0  0
   41.8681   -1.2749   29.5408 N   0  0  0  0  0  0  0  0  0  0  0  0
   43.9369   -1.3843   30.2698 N   0  0  0  0  0  0  0  0  0  0  0  0
   43.0959   -1.5587   29.2587 C   0  0  0  0  0  0  0  0  0  0  0  0
   41.0984   -1.3259   28.9290 H   0  0  0  0  0  0  0  0  0  0  0  0
   42.6539    0.0637   34.7300 C   0  0  0  0  0  0  0  0  0  0  0  0
   43.6079   -0.5723   35.3858 N   0  0  0  0  0  0  0  0  0  0  0  0
   41.9065    1.0020   35.2980 N   0  0  0  0  0  0  0  0  0  0  0  0
   44.1420   -1.2629   34.9307 H   0  0  0  0  0  0  0  0  0  0  0  0
   43.7849   -0.3558   36.3298 H   0  0  0  0  0  0  0  0  0  0  0  0
   41.2044    1.4545   34.7770 H   0  0  0  0  0  0  0  0  0  0  0  0
   42.0543    1.2455   36.2404 H   0  0  0  0  0  0  0  0  0  0  0  0
   43.4564   -2.0462   28.0111 C   0  0  0  0  0  0  0  0  0  0  0  0
   43.9773   -1.1909   27.1540 N   0  0  0  0  0  0  0  0  0  0  0  0
   44.3689   -1.5193   25.9459 C   0  0  0  0  0  0  0  0  0  0  0  0
   44.2373   -2.8295   25.5171 C   0  0  0  0  0  0  0  0  0  0  0  0
   43.6924   -3.7835   26.3849 C   0  0  0  0  0  0  0  0  0  0  0  0
   43.2883   -3.4012   27.6621 C   0  0  0  0  0  0  0  0  0  0  0  0
   42.7385   -4.3391   28.5367 O   0  0  0  0  0  0  0  0  0  0  0  0
  1  2  2  0  0  0
  1  6  1  0  0  0
  1 11  1  0  0  0
  2  3  1  0  0  0
  3  4  2  0  0  0
  4  5  1  0  0  0
  4  7  1  0  0  0
  5  6  2  0  0  0
  5  8  1  0  0  0
 11 12  1  0  0  0
 11 13  2  0  0  0
  7  9  1  0  0  0
  8  9  2  0  0  0
  9 18  1  0  0  0
 18 19  2  0  0  0
 18 23  1  0  0  0
 19 20  1  0  0  0
 20 21  2  0  0  0
 21 22  1  0  0  0
 22 23  2  0  0  0
 23 24  1  0  0  0
 12 14  1  0  0  0
 12 15  1  0  0  0
 13 16  1  0  0  0
 13 17  1  0  0  0
  7 10  1  0  0  0
M  CHG 1  13   1
M  CHG 1  24  -1
M  END
> <minimizedAffinity>
-6.69643

$$$$
1O33_801_A_246


 24 26  0  0  0  0  0  0  0  0999 V2000
   40.9812   -0.1764   33.1381 C   0  0  0  0  0  0  0  0  0  0  0  0
   42.3310   -0.1753   33.5486 C   0  0  0  0  0  0  0  0  0  0  0  0
   43.3477   -0.5825   32.7036 C   0  0  0  0  0  0  0  0  0  0  0  0
   43.0025   -0.9838   31.4571 C   0  0  0  0  0  0  0  0  0  0  0  0
   41.7290   -1.0127   31.0213 C   0  0  0  0  0  0  0  0  0  0  0  0
   40.6730   -0.6132   31.8405 C   0  0  0  0  0  0  0  0  0  0  0  0
   43.7243   -1.3988   30.4808 N   0  0  0  0  0  0  0  0  0  0  0  0
   41.6414   -1.4390   29.7855 N   0  0  0  0  0  0  0  0  0  0  0  0
   42.9199   -1.6528   29.5030 C   0  0  0  0  0  0  0  0  0  0  0  0
   44.7033   -1.5034   30.4778 H   0  0  0  0  0  0  0  0  0  0  0  0
   39.9824    0.2656   34.0255 C   0  0  0  0  0  0  0  0  0  0  0  0
   38.9494    0.9385   33.5511 N   0  0  0  0  0  0  0  0  0  0  0  0
   40.1169   -0.0105   35.3168 N   0  0  0  0  0  0  0  0  0  0  0  0
   38.8840    1.1244   32.5865 H   0  0  0  0  0  0  0  0  0  0  0  0
   38.2450    1.2542   34.1621 H   0  0  0  0  0  0  0  0  0  0  0  0
   40.9010   -0.5146   35.6333 H   0  0  0  0  0  0  0  0  0  0  0  0
   39.4325    0.2889   35.9580 H   0  0  0  0  0  0  0  0  0  0  0  0
   43.3937   -2.0653   28.2663 C   0  0  0  0  0  0  0  0  0  0  0  0
   43.1389   -3.3067   27.9033 N   0  0  0  0  0  0  0  0  0  0  0  0
   43.5199   -3.8225   26.7591 C   0  0  0  0  0  0  0  0  0  0  0  0
   44.2344   -3.0451   25.8628 C   0  0  0  0  0  0  0  0  0  0  0  0
   44.5331   -1.7179   26.1927 C   0  0  0  0  0  0  0  0  0  0  0  0
   44.1117   -1.2009   27.4159 C   0  0  0  0  0  0  0  0  0  0  0  0
   44.4062    0.1184   27.7615 O   0  0  0  0  0  0  0  0  0  0  0  0
  1  2  2  0  0  0
  1  6  1  0  0  0
  1 11  1  0  0  0
  2  3  1  0  0  0
  3  4  2  0  0  0
  4  5  1  0  0  0
  4  7  1  0  0  0
  5  6  2  0  0  0
  5  8  1  0  0  0
 11 12  1  0  0  0
 11 13  2  0  0  0
  7  9  1  0  0  0
  8  9  2  0  0  0
  9 18  1  0  0  0
 18 19  2  0  0  0
 18 23  1  0  0  0
 19 20  1  0  0  0
 20 21  2  0  0  0
 21 22  1  0  0  0
 22 23  2  0  0  0
 23 24  1  0  0  0
 12 14  1  0  0  0
 12 15  1  0  0  0
 13 16  1  0  0  0
 13 17  1  0  0  0
  7 10  1  0  0  0
M  CHG 1  13   1
M  CHG 1  24  -1
M  END
> <minimizedAffinity>
-6.61845

$$$$
1O33_801_A_246


 24 26  0  0  0  0  0  0  0  0999 V2000
   40.8793   -0.0870   33.0411 C   0  0  0  0  0  0  0  0  0  0  0  0
   42.2274   -0.0883   33.4572 C   0  0  0  0  0  0  0  0  0  0  0  0
   43.2441   -0.5206   32.6248 C   0  0  0  0  0  0  0  0  0  0  0  0
   42.9007   -0.9443   31.3852 C   0  0  0  0  0  0  0  0  0  0  0  0
   41.6288   -0.9718   30.9448 C   0  0  0  0  0  0  0  0  0  0  0  0
   40.5727   -0.5474   31.7514 C   0  0  0  0  0  0  0  0  0  0  0  0
   43.6230   -1.3847   30.4205 N   0  0  0  0  0  0  0  0  0  0  0  0
   41.5427   -1.4224   29.7176 N   0  0  0  0  0  0  0  0  0  0  0  0
   42.8205   -1.6521   29.4447 C   0  0  0  0  0  0  0  0  0  0  0  0
   44.6011   -1.4971   30.4236 H   0  0  0  0  0  0  0  0  0  0  0  0
   39.8805    0.3808   33.9153 C   0  0  0  0  0  0  0  0  0  0  0  0
   40.2192    1.1702   34.9188 N   0  0  0  0  0  0  0  0  0  0  0  0
   38.6254    0.0074   33.6987 N   0  0  0  0  0  0  0  0  0  0  0  0
   41.1612    1.4259   35.0477 H   0  0  0  0  0  0  0  0  0  0  0  0
   39.5298    1.5028   35.5379 H   0  0  0  0  0  0  0  0  0  0  0  0
   38.4112   -0.5823   32.9400 H   0  0  0  0  0  0  0  0  0  0  0  0
   37.9086    0.3200   34.2969 H   0  0  0  0  0  0  0  0  0  0  0  0
   43.2959   -2.0932   28.2186 C   0  0  0  0  0  0  0  0  0  0  0  0
   43.7674   -1.1838   27.3890 N   0  0  0  0  0  0  0  0  0  0  0  0
   44.2546   -1.4636   26.2037 C   0  0  0  0  0  0  0  0  0  0  0  0
   44.2857   -2.7786   25.7704 C   0  0  0  0  0  0  0  0  0  0  0  0
   43.8004   -3.7887   26.6094 C   0  0  0  0  0  0  0  0  0  0  0  0
   43.2913   -3.4569   27.8631 C   0  0  0  0  0  0  0  0  0  0  0  0
   42.7989   -4.4515   28.7086 O   0  0  0  0  0  0  0  0  0  0  0  0
  1  2  2  0  0  0
  1  6  1  0  0  0
  1 11  1  0  0  0
  2  3  1  0  0  0
  3  4  2  0  0  0
  4  5  1  0  0  0
  4  7  1  0  0  0
  5  6  2  0  0  0
  5  8  1  0  0  0
 11 12  1  0  0  0
 11 13  2  0  0  0
  7  9  1  0  0  0
  8  9  2  0  0  0
  9 18  1  0  0  0
 18 19  2  0  0  0
 18 23  1  0  0  0
 19 20  1  0  0  0
 20 21  2  0  0  0
 21 22  1  0  0  0
 22 23  2  0  0  0
 23 24  1  0  0  0
 12 14  1  0  0  0
 12 15  1  0  0  0
 13 16  1  0  0  0
 13 17  1  0  0  0
  7 10  1  0  0  0
M  CHG 1  13   1
M  CHG 1  24  -1
M  END
> <minimizedAffinity>
-6.22533

$$$$
1O33_801_A_246


 24 26  0  0  0  0  0  0  0  0999 V2000
   42.9752   -2.7283   28.5890 C   0  0  0  0  0  0  0  0  0  0  0  0
   41.6179   -2.8337   28.9593 C   0  0  0  0  0  0  0  0  0  0  0  0
   41.1375   -2.2689   30.1271 C   0  0  0  0  0  0  0  0  0  0  0  0
   42.0199   -1.6032   30.9095 C   0  0  0  0  0  0  0  0  0  0  0  0
   43.3259   -1.4832   30.6055 C   0  0  0  0  0  0  0  0  0  0  0  0
   43.8531   -2.0390   29.4396 C   0  0  0  0  0  0  0  0  0  0  0  0
   41.8537   -0.9877   32.0230 N   0  0  0  0  0  0  0  0  0  0  0  0
   43.9814   -0.8008   31.5117 N   0  0  0  0  0  0  0  0  0  0  0  0
   43.0053   -0.5121   32.3626 C   0  0  0  0  0  0  0  0  0  0  0  0
   41.0103   -0.8957   32.5225 H   0  0  0  0  0  0  0  0  0  0  0  0
   43.4148   -3.3019   27.3814 C   0  0  0  0  0  0  0  0  0  0  0  0
   43.0692   -4.5438   27.0934 N   0  0  0  0  0  0  0  0  0  0  0  0
   44.1679   -2.5688   26.5707 N   0  0  0  0  0  0  0  0  0  0  0  0
   42.5091   -5.0568   27.7199 H   0  0  0  0  0  0  0  0  0  0  0  0
   43.3717   -4.9566   26.2524 H   0  0  0  0  0  0  0  0  0  0  0  0
   44.4051   -1.6463   26.8194 H   0  0  0  0  0  0  0  0  0  0  0  0
   44.4892   -2.9476   25.7207 H   0  0  0  0  0  0  0  0  0  0  0  0
   43.1582    0.2677   33.4995 C   0  0  0  0  0  0  0  0  0  0  0  0
   43.9740    1.3001   33.4207 N   0  0  0  0  0  0  0  0  0  0  0  0
   44.2033    2.1233   34.4158 C   0  0  0  0  0  0  0  0  0  0  0  0
   43.5703    1.9204   35.6307 C   0  0  0  0  0  0  0  0  0  0  0  0
   42.6906    0.8408   35.7735 C   0  0  0  0  0  0  0  0  0  0  0  0
   42.4682   -0.0134   34.6957 C   0  0  0  0  0  0  0  0  0  0  0  0
   41.5984   -1.0968   34.8239 O   0  0  0  0  0  0  0  0  0  0  0  0
  1  2  2  0  0  0
  1  6  1  0  0  0
  1 11  1  0  0  0
  2  3  1  0  0  0
  3  4  2  0  0  0
  4  5  1  0  0  0
  4  7  1  0  0  0
  5  6  2  0  0  0
  5  8  1  0  0  0
 11 12  1  0  0  0
 11 13  2  0  0  0
  7  9  1  0  0  0
  8  9  2  0  0  0
  9 18  1  0  0  0
 18 19  2  0  0  0
 18 23  1  0  0  0
 19 20  1  0  0  0
 20 21  2  0  0  0
 21 22  1  0  0  0
 22 23  2  0  0  0
 23 24  1  0  0  0
 12 14  1  0  0  0
 12 15  1  0  0  0
 13 16  1  0  0  0
 13 17  1  0  0  0
  7 10  1  0  0  0
M  CHG 1  13   1
M  CHG 1  24  -1
M  END
> <minimizedAffinity>
-6.21821

$$$$
1O33_801_A_246


 24 26  0  0  0  0  0  0  0  0999 V2000
   42.5266   -3.5893   29.6598 C   0  0  0  0  0  0  0  0  0  0  0  0
   42.4188   -2.3048   29.0862 C   0  0  0  0  0  0  0  0  0  0  0  0
   42.6700   -1.1586   29.8187 C   0  0  0  0  0  0  0  0  0  0  0  0
   43.0284   -1.3108   31.1158 C   0  0  0  0  0  0  0  0  0  0  0  0
   43.1354   -2.5132   31.7118 C   0  0  0  0  0  0  0  0  0  0  0  0
   42.8890   -3.6942   31.0115 C   0  0  0  0  0  0  0  0  0  0  0  0
   43.3209   -0.4400   32.0116 N   0  0  0  0  0  0  0  0  0  0  0  0
   43.4915   -2.4095   32.9684 N   0  0  0  0  0  0  0  0  0  0  0  0
   43.6010   -1.0929   33.0900 C   0  0  0  0  0  0  0  0  0  0  0  0
   43.3301    0.5380   31.8985 H   0  0  0  0  0  0  0  0  0  0  0  0
   42.2809   -4.7281   28.8703 C   0  0  0  0  0  0  0  0  0  0  0  0
   41.5918   -5.7320   29.3825 N   0  0  0  0  0  0  0  0  0  0  0  0
   42.7558   -4.7526   27.6311 N   0  0  0  0  0  0  0  0  0  0  0  0
   41.2554   -5.6776   30.3061 H   0  0  0  0  0  0  0  0  0  0  0  0
   41.4147   -6.5346   28.8405 H   0  0  0  0  0  0  0  0  0  0  0  0
   43.2652   -3.9850   27.2839 H   0  0  0  0  0  0  0  0  0  0  0  0
   42.5986   -5.5383   27.0592 H   0  0  0  0  0  0  0  0  0  0  0  0
   44.0220   -0.4417   34.2401 C   0  0  0  0  0  0  0  0  0  0  0  0
   43.3950   -0.7298   35.3632 N   0  0  0  0  0  0  0  0  0  0  0  0
   43.6964   -0.1946   36.5222 C   0  0  0  0  0  0  0  0  0  0  0  0
   44.7240    0.7305   36.6015 C   0  0  0  0  0  0  0  0  0  0  0  0
   45.4278    1.0746   35.4414 C   0  0  0  0  0  0  0  0  0  0  0  0
   45.0829    0.4858   34.2267 C   0  0  0  0  0  0  0  0  0  0  0  0
   45.7713    0.8224   33.0607 O   0  0  0  0  0  0  0  0  0  0  0  0
  1  2  2  0  0  0
  1  6  1  0  0  0
  1 11  1  0  0  0
  2  3  1  0  0  0
  3  4  2  0  0  0
  4  5  1  0  0  0
  4  7  1  0  0  0
  5  6  2  0  0  0
  5  8  1  0  0  0
 11 12  1  0  0  0
 11 13  2  0  0  0
  7  9  1  0  0  0
  8  9  2  0  0  0
  9 18  1  0  0  0
 18 19  2  0  0  0
 18 23  1  0  0  0
 19 20  1  0  0  0
 20 21  2  0  0  0
 21 22  1  0  0  0
 22 23  2  0  0  0
 23 24  1  0  0  0
 12 14  1  0  0  0
 12 15  1  0  0  0
 13 16  1  0  0  0
 13 17  1  0  0  0
  7 10  1  0  0  0
M  CHG 1  13   1
M  CHG 1  24  -1
M  END
> <minimizedAffinity>
-6.05446

$$$$
