1TNG_AMC_A_900


 11 11  0  0  0  0  0  0  0  0999 V2000
   28.7914   14.6253   16.6946 C   0  0  0  0  0  0  0  0  0  0  0  0
   28.1748   15.5048   17.7465 C   0  0  0  0  0  0  0  0  0  0  0  0
   27.7953   14.6869   18.9743 C   0  0  0  0  0  0  0  0  0  0  0  0
   29.0498   14.0170   19.5718 C   0  0  0  0  0  0  0  0  0  0  0  0
   29.8100   13.1828   18.5250 C   0  0  0  0  0  0  0  0  0  0  0  0
   30.0444   14.0418   17.2775 C   0  0  0  0  0  0  0  0  0  0  0  0
   29.1188   15.4303   15.4548 C   0  0  0  0  0  0  0  0  0  0  0  0
   30.5007   15.2905   15.0513 N   0  0  0  0  0  0  0  0  0  0  0  0
   31.1084   15.6358   15.7942 H   0  0  0  0  0  0  0  0  0  0  0  0
   30.6629   15.8300   14.2010 H   0  0  0  0  0  0  0  0  0  0  0  0
   30.7054   14.3070   14.8742 H   0  0  0  0  0  0  0  0  0  0  0  0
  1  2  1  0  0  0
  1  6  1  0  0  0
  1  7  1  0  0  0
  2  3  1  0  0  0
  3  4  1  0  0  0
  4  5  1  0  0  0
  5  6  1  0  0  0
  7  8  1  0  0  0
  8  9  1  0  0  0
  8 10  1  0  0  0
  8 11  1  0  0  0
M  CHG 1   8   1
M  END
> <minimizedAffinity>
-4.84991

$$$$
1TNG_AMC_A_900


 11 11  0  0  0  0  0  0  0  0999 V2000
   29.2526   15.2354   17.0411 C   0  0  0  0  0  0  0  0  0  0  0  0
   29.6241   13.7787   17.0280 C   0  0  0  0  0  0  0  0  0  0  0  0
   29.8828   13.2784   18.4433 C   0  0  0  0  0  0  0  0  0  0  0  0
   28.6151   13.4512   19.3051 C   0  0  0  0  0  0  0  0  0  0  0  0
   28.0974   14.9007   19.2821 C   0  0  0  0  0  0  0  0  0  0  0  0
   27.9811   15.3657   17.8264 C   0  0  0  0  0  0  0  0  0  0  0  0
   29.0482   15.7439   15.6298 C   0  0  0  0  0  0  0  0  0  0  0  0
   30.1967   15.5074   14.7830 N   0  0  0  0  0  0  0  0  0  0  0  0
   31.0046   16.0035   15.1594 H   0  0  0  0  0  0  0  0  0  0  0  0
   29.9995   15.8443   13.8407 H   0  0  0  0  0  0  0  0  0  0  0  0
   30.3960   14.5075   14.7518 H   0  0  0  0  0  0  0  0  0  0  0  0
  1  2  1  0  0  0
  1  6  1  0  0  0
  1  7  1  0  0  0
  2  3  1  0  0  0
  3  4  1  0  0  0
  4  5  1  0  0  0
  5  6  1  0  0  0
  7  8  1  0  0  0
  8  9  1  0  0  0
  8 10  1  0  0  0
  8 11  1  0  0  0
M  CHG 1   8   1
M  END
> <minimizedAffinity>
-4.63398

$$$$
1TNG_AMC_A_900


 11 11  0  0  0  0  0  0  0  0999 V2000
   28.7088   14.6341   16.9626 C   0  0  0  0  0  0  0  0  0  0  0  0
   28.0136   14.9748   18.2513 C   0  0  0  0  0  0  0  0  0  0  0  0
   27.9354   13.7531   19.1577 C   0  0  0  0  0  0  0  0  0  0  0  0
   29.3551   13.2479   19.4876 C   0  0  0  0  0  0  0  0  0  0  0  0
   30.1805   12.9813   18.2158 C   0  0  0  0  0  0  0  0  0  0  0  0
   30.1068   14.2127   17.3064 C   0  0  0  0  0  0  0  0  0  0  0  0
   28.7380   15.8354   16.0415 C   0  0  0  0  0  0  0  0  0  0  0  0
   27.6708   16.7720   16.3170 N   0  0  0  0  0  0  0  0  0  0  0  0
   26.7709   16.3139   16.1732 H   0  0  0  0  0  0  0  0  0  0  0  0
   27.7496   17.5717   15.6887 H   0  0  0  0  0  0  0  0  0  0  0  0
   27.7394   17.0909   17.2835 H   0  0  0  0  0  0  0  0  0  0  0  0
  1  2  1  0  0  0
  1  6  1  0  0  0
  1  7  1  0  0  0
  2  3  1  0  0  0
  3  4  1  0  0  0
  4  5  1  0  0  0
  5  6  1  0  0  0
  7  8  1  0  0  0
  8  9  1  0  0  0
  8 10  1  0  0  0
  8 11  1  0  0  0
M  CHG 1   8   1
M  END
> <minimizedAffinity>
-4.44872

$$$$
1TNG_AMC_A_900


 11 11  0  0  0  0  0  0  0  0999 V2000
   28.5273   14.9736   17.0225 C   0  0  0  0  0  0  0  0  0  0  0  0
   29.2069   15.3651   18.3051 C   0  0  0  0  0  0  0  0  0  0  0  0
   29.1146   14.2388   19.3264 C   0  0  0  0  0  0  0  0  0  0  0  0
   29.8001   12.9704   18.7781 C   0  0  0  0  0  0  0  0  0  0  0  0
   29.2391   12.5619   17.4040 C   0  0  0  0  0  0  0  0  0  0  0  0
   29.2558   13.7816   16.4761 C   0  0  0  0  0  0  0  0  0  0  0  0
   28.5735   16.1140   16.0276 C   0  0  0  0  0  0  0  0  0  0  0  0
   29.8245   16.1684   15.3036 N   0  0  0  0  0  0  0  0  0  0  0  0
   30.5907   16.3202   15.9596 H   0  0  0  0  0  0  0  0  0  0  0  0
   29.7953   16.9351   14.6316 H   0  0  0  0  0  0  0  0  0  0  0  0
   29.9697   15.2881   14.8091 H   0  0  0  0  0  0  0  0  0  0  0  0
  1  2  1  0  0  0
  1  6  1  0  0  0
  1  7  1  0  0  0
  2  3  1  0  0  0
  3  4  1  0  0  0
  4  5  1  0  0  0
  5  6  1  0  0  0
  7  8  1  0  0  0
  8  9  1  0  0  0
  8 10  1  0  0  0
  8 11  1  0  0  0
M  CHG 1   8   1
M  END
> <minimizedAffinity>
-4.37089

$$$$
1TNG_AMC_A_900


 11 11  0  0  0  0  0  0  0  0999 V2000
   29.3684   15.1175   17.1906 C   0  0  0  0  0  0  0  0  0  0  0  0
   29.7144   13.6900   16.8704 C   0  0  0  0  0  0  0  0  0  0  0  0
   30.3494   13.0087   18.0758 C   0  0  0  0  0  0  0  0  0  0  0  0
   29.3683   13.0181   19.2661 C   0  0  0  0  0  0  0  0  0  0  0  0
   28.8718   14.4386   19.5908 C   0  0  0  0  0  0  0  0  0  0  0  0
   28.3624   15.0952   18.3031 C   0  0  0  0  0  0  0  0  0  0  0  0
   28.7867   15.8082   15.9754 C   0  0  0  0  0  0  0  0  0  0  0  0
   27.6805   16.6786   16.3082 N   0  0  0  0  0  0  0  0  0  0  0  0
   26.9275   16.1286   16.7214 H   0  0  0  0  0  0  0  0  0  0  0  0
   27.3420   17.1370   15.4622 H   0  0  0  0  0  0  0  0  0  0  0  0
   27.9920   17.3842   16.9758 H   0  0  0  0  0  0  0  0  0  0  0  0
  1  2  1  0  0  0
  1  6  1  0  0  0
  1  7  1  0  0  0
  2  3  1  0  0  0
  3  4  1  0  0  0
  4  5  1  0  0  0
  5  6  1  0  0  0
  7  8  1  0  0  0
  8  9  1  0  0  0
  8 10  1  0  0  0
  8 11  1  0  0  0
M  CHG 1   8   1
M  END
> <minimizedAffinity>
-4.35703

$$$$
1TNG_AMC_A_900


 11 11  0  0  0  0  0  0  0  0999 V2000
   28.0312   13.0887   18.4994 C   0  0  0  0  0  0  0  0  0  0  0  0
   29.3991   12.9789   17.8855 C   0  0  0  0  0  0  0  0  0  0  0  0
   29.5094   13.8741   16.6580 C   0  0  0  0  0  0  0  0  0  0  0  0
   29.2683   15.3455   17.0534 C   0  0  0  0  0  0  0  0  0  0  0  0
   27.9316   15.5302   17.7942 C   0  0  0  0  0  0  0  0  0  0  0  0
   27.8501   14.5120   18.9369 C   0  0  0  0  0  0  0  0  0  0  0  0
   27.9062   12.1582   19.6873 C   0  0  0  0  0  0  0  0  0  0  0  0
   26.5966   12.2120   20.2989 N   0  0  0  0  0  0  0  0  0  0  0  0
   26.4217   13.1552   20.6455 H   0  0  0  0  0  0  0  0  0  0  0  0
   26.5565   11.5516   21.0752 H   0  0  0  0  0  0  0  0  0  0  0  0
   25.8880   11.9671   19.6073 H   0  0  0  0  0  0  0  0  0  0  0  0
  1  2  1  0  0  0
  1  6  1  0  0  0
  1  7  1  0  0  0
  2  3  1  0  0  0
  3  4  1  0  0  0
  4  5  1  0  0  0
  5  6  1  0  0  0
  7  8  1  0  0  0
  8  9  1  0  0  0
  8 10  1  0  0  0
  8 11  1  0  0  0
M  CHG 1   8   1
M  END
> <minimizedAffinity>
-4.30704

$$$$
1TNG_AMC_A_900


 11 11  0  0  0  0  0  0  0  0999 V2000
   28.3824   12.9605   18.7573 C   0  0  0  0  0  0  0  0  0  0  0  0
   27.8670   14.3534   18.9903 C   0  0  0  0  0  0  0  0  0  0  0  0
   28.9689   15.3790   18.7574 C   0  0  0  0  0  0  0  0  0  0  0  0
   29.4808   15.2844   17.3053 C   0  0  0  0  0  0  0  0  0  0  0  0
   29.9252   13.8555   16.9442 C   0  0  0  0  0  0  0  0  0  0  0  0
   28.8087   12.8757   17.3216 C   0  0  0  0  0  0  0  0  0  0  0  0
   27.3008   11.9398   19.0411 C   0  0  0  0  0  0  0  0  0  0  0  0
   26.6139   12.1916   20.2889 N   0  0  0  0  0  0  0  0  0  0  0  0
   27.2790   12.1364   21.0603 H   0  0  0  0  0  0  0  0  0  0  0  0
   25.8817   11.4939   20.4208 H   0  0  0  0  0  0  0  0  0  0  0  0
   26.1967   13.1221   20.2656 H   0  0  0  0  0  0  0  0  0  0  0  0
  1  2  1  0  0  0
  1  6  1  0  0  0
  1  7  1  0  0  0
  2  3  1  0  0  0
  3  4  1  0  0  0
  4  5  1  0  0  0
  5  6  1  0  0  0
  7  8  1  0  0  0
  8  9  1  0  0  0
  8 10  1  0  0  0
  8 11  1  0  0  0
M  CHG 1   8   1
M  END
> <minimizedAffinity>
-4.26539

$$$$
1TNG_AMC_A_900


 11 11  0  0  0  0  0  0  0  0999 V2000
   28.5508   12.9339   17.6253 C   0  0  0  0  0  0  0  0  0  0  0  0
   29.0942   13.9312   16.6402 C   0  0  0  0  0  0  0  0  0  0  0  0
   28.6823   15.3458   17.0268 C   0  0  0  0  0  0  0  0  0  0  0  0
   29.2314   15.6926   18.4260 C   0  0  0  0  0  0  0  0  0  0  0  0
   28.8143   14.6525   19.4815 C   0  0  0  0  0  0  0  0  0  0  0  0
   29.1536   13.2511   18.9617 C   0  0  0  0  0  0  0  0  0  0  0  0
   28.9160   11.5244   17.2099 C   0  0  0  0  0  0  0  0  0  0  0  0
   29.6692   11.4873   15.9756 N   0  0  0  0  0  0  0  0  0  0  0  0
   29.1051   11.8785   15.2212 H   0  0  0  0  0  0  0  0  0  0  0  0
   29.9109   10.5215   15.7538 H   0  0  0  0  0  0  0  0  0  0  0  0
   30.5227   12.0356   16.0815 H   0  0  0  0  0  0  0  0  0  0  0  0
  1  2  1  0  0  0
  1  6  1  0  0  0
  1  7  1  0  0  0
  2  3  1  0  0  0
  3  4  1  0  0  0
  4  5  1  0  0  0
  5  6  1  0  0  0
  7  8  1  0  0  0
  8  9  1  0  0  0
  8 10  1  0  0  0
  8 11  1  0  0  0
M  CHG 1   8   1
M  END
> <minimizedAffinity>
-4.09068

$$$$
1TNG_AMC_A_900


 11 11  0  0  0  0  0  0  0  0999 V2000
   29.1629   13.9929   18.2027 C   0  0  0  0  0  0  0  0  0  0  0  0
   29.0746   13.3095   16.8665 C   0  0  0  0  0  0  0  0  0  0  0  0
   28.9489   11.8017   17.0426 C   0  0  0  0  0  0  0  0  0  0  0  0
   27.6757   11.4677   17.8470 C   0  0  0  0  0  0  0  0  0  0  0  0
   27.6299   12.2196   19.1895 C   0  0  0  0  0  0  0  0  0  0  0  0
   27.8851   13.7093   18.9355 C   0  0  0  0  0  0  0  0  0  0  0  0
   29.3415   15.4858   18.0245 C   0  0  0  0  0  0  0  0  0  0  0  0
   29.4613   15.8684   16.6348 N   0  0  0  0  0  0  0  0  0  0  0  0
   30.2851   15.4240   16.2296 H   0  0  0  0  0  0  0  0  0  0  0  0
   29.5542   16.8820   16.5680 H   0  0  0  0  0  0  0  0  0  0  0  0
   28.6289   15.5691   16.1268 H   0  0  0  0  0  0  0  0  0  0  0  0
  1  2  1  0  0  0
  1  6  1  0  0  0
  1  7  1  0  0  0
  2  3  1  0  0  0
  3  4  1  0  0  0
  4  5  1  0  0  0
  5  6  1  0  0  0
  7  8  1  0  0  0
  8  9  1  0  0  0
  8 10  1  0  0  0
  8 11  1  0  0  0
M  CHG 1   8   1
M  END
> <minimizedAffinity>
-4.04448

$$$$
1TNG_AMC_A_900


 11 11  0  0  0  0  0  0  0  0999 V2000
   30.0625   13.3019   17.6085 C   0  0  0  0  0  0  0  0  0  0  0  0
   29.2740   13.1626   18.8809 C   0  0  0  0  0  0  0  0  0  0  0  0
   28.8449   14.5296   19.3983 C   0  0  0  0  0  0  0  0  0  0  0  0
   27.9609   15.2376   18.3510 C   0  0  0  0  0  0  0  0  0  0  0  0
   28.6517   15.3219   16.9779 C   0  0  0  0  0  0  0  0  0  0  0  0
   29.1588   13.9290   16.5886 C   0  0  0  0  0  0  0  0  0  0  0  0
   30.5336   11.9467   17.1249 C   0  0  0  0  0  0  0  0  0  0  0  0
   29.7105   11.4217   16.0576 N   0  0  0  0  0  0  0  0  0  0  0  0
   28.7557   11.2973   16.3943 H   0  0  0  0  0  0  0  0  0  0  0  0
   30.0830   10.5227   15.7519 H   0  0  0  0  0  0  0  0  0  0  0  0
   29.7124   12.0747   15.2741 H   0  0  0  0  0  0  0  0  0  0  0  0
  1  2  1  0  0  0
  1  6  1  0  0  0
  1  7  1  0  0  0
  2  3  1  0  0  0
  3  4  1  0  0  0
  4  5  1  0  0  0
  5  6  1  0  0  0
  7  8  1  0  0  0
  8  9  1  0  0  0
  8 10  1  0  0  0
  8 11  1  0  0  0
M  CHG 1   8   1
M  END
> <minimizedAffinity>
-4.00759

$$$$
