4F1L_0RY_A_1801


 21 21  0  0  0  0  0  0  0  0999 V2000
    2.2960   10.7294    2.5316 C   0  0  0  0  0  0  0  0  0  0  0  0
    1.7421   10.0969    1.4103 C   0  0  0  0  0  0  0  0  0  0  0  0
    2.2079   10.0936    3.7753 C   0  0  0  0  0  0  0  0  0  0  0  0
    1.5995    8.8636    3.8657 C   0  0  0  0  0  0  0  0  0  0  0  0
    1.0426    8.2435    2.7405 C   0  0  0  0  0  0  0  0  0  0  0  0
    1.1005    8.8520    1.5020 C   0  0  0  0  0  0  0  0  0  0  0  0
    0.4616    8.1034    0.2761 C   0  0  0  0  0  0  0  0  0  0  0  0
    0.1226    8.7492   -0.7195 O   0  0  0  0  0  0  0  0  0  0  0  0
    0.4633    6.7767    0.2868 N   0  0  0  0  0  0  0  0  0  0  0  0
    0.0710    6.2779   -0.4658 H   0  0  0  0  0  0  0  0  0  0  0  0
    0.8570    6.2911    1.0474 H   0  0  0  0  0  0  0  0  0  0  0  0
    4.2329   12.0876    2.1565 C   0  0  0  0  0  0  0  0  0  0  0  0
    4.8398   11.3145    1.4228 O   0  0  0  0  0  0  0  0  0  0  0  0
    2.9839   11.8757    2.5910 N   0  0  0  0  0  0  0  0  0  0  0  0
    2.5229   12.6449    2.9973 H   0  0  0  0  0  0  0  0  0  0  0  0
    5.2226   13.8704    3.7388 C   0  0  0  0  0  0  0  0  0  0  0  0
    4.9276   13.2760    2.4926 C   0  0  0  0  0  0  0  0  0  0  0  0
    3.7616   13.0746    5.3822 O   0  0  0  0  0  0  0  0  0  0  0  0
    4.9000   13.5069    5.0699 C   0  0  0  0  0  0  0  0  0  0  0  0
    5.7650   13.7893    5.9328 O   0  0  0  0  0  0  0  0  0  0  0  0
    6.6046   14.1096    5.6672 H   0  0  0  0  0  0  0  0  0  0  0  0
  9  7  1  0  0  0
  8  7  2  0  0  0
  7  6  1  0  0  0
  6  2  2  0  0  0
  6  5  1  0  0  0
 13 12  2  0  0  0
  2  1  1  0  0  0
  5  4  2  0  0  0
 12 14  1  0  0  0
 12 17  1  0  0  0
  1 14  1  0  0  0
  1  3  2  0  0  0
 17 16  2  0  0  0
  4  3  1  0  0  0
 16 19  1  0  0  0
 18 19  2  0  0  0
 19 20  1  0  0  0
 20 21  1  0  0  0
 14 15  1  0  0  0
  9 10  1  0  0  0
  9 11  1  0  0  0
M  END
> <minimizedAffinity>
-8.36475

$$$$
4F1L_0RY_A_1801


 21 21  0  0  0  0  0  0  0  0999 V2000
    2.3431   10.6240    2.6709 C   0  0  0  0  0  0  0  0  0  0  0  0
    2.0277   10.2548    1.3562 C   0  0  0  0  0  0  0  0  0  0  0  0
    1.9614    9.7773    3.7179 C   0  0  0  0  0  0  0  0  0  0  0  0
    1.3055    8.6024    3.4343 C   0  0  0  0  0  0  0  0  0  0  0  0
    0.9884    8.2464    2.1176 C   0  0  0  0  0  0  0  0  0  0  0  0
    1.3386    9.0676    1.0639 C   0  0  0  0  0  0  0  0  0  0  0  0
    0.9593    8.6107   -0.3917 C   0  0  0  0  0  0  0  0  0  0  0  0
   -0.2184    8.3586   -0.6608 O   0  0  0  0  0  0  0  0  0  0  0  0
    1.8968    8.6742   -1.3284 N   0  0  0  0  0  0  0  0  0  0  0  0
    1.6915    8.3954   -2.2500 H   0  0  0  0  0  0  0  0  0  0  0  0
    2.7978    9.0000   -1.1018 H   0  0  0  0  0  0  0  0  0  0  0  0
    4.2287   12.1007    2.6424 C   0  0  0  0  0  0  0  0  0  0  0  0
    4.7365   11.7034    1.5990 O   0  0  0  0  0  0  0  0  0  0  0  0
    3.0406   11.6831    3.0982 N   0  0  0  0  0  0  0  0  0  0  0  0
    2.6378   12.2112    3.8248 H   0  0  0  0  0  0  0  0  0  0  0  0
    5.2498   14.4391    3.0312 C   0  0  0  0  0  0  0  0  0  0  0  0
    4.9670   13.0903    3.3378 C   0  0  0  0  0  0  0  0  0  0  0  0
    5.4122   15.0413    0.7775 O   0  0  0  0  0  0  0  0  0  0  0  0
    4.9259   15.2528    1.9172 C   0  0  0  0  0  0  0  0  0  0  0  0
    4.2531   16.2794    2.1743 O   0  0  0  0  0  0  0  0  0  0  0  0
    3.9042   16.4077    3.0344 H   0  0  0  0  0  0  0  0  0  0  0  0
  9  7  1  0  0  0
  8  7  2  0  0  0
  7  6  1  0  0  0
  6  2  2  0  0  0
  6  5  1  0  0  0
 13 12  2  0  0  0
  2  1  1  0  0  0
  5  4  2  0  0  0
 12 14  1  0  0  0
 12 17  1  0  0  0
  1 14  1  0  0  0
  1  3  2  0  0  0
 17 16  2  0  0  0
  4  3  1  0  0  0
 16 19  1  0  0  0
 18 19  2  0  0  0
 19 20  1  0  0  0
 20 21  1  0  0  0
 14 15  1  0  0  0
  9 10  1  0  0  0
  9 11  1  0  0  0
M  END
> <minimizedAffinity>
-7.96707

$$$$
4F1L_0RY_A_1801


 21 21  0  0  0  0  0  0  0  0999 V2000
    3.1262   10.6771    1.2087 C   0  0  0  0  0  0  0  0  0  0  0  0
    1.9471    9.9238    1.1280 C   0  0  0  0  0  0  0  0  0  0  0  0
    4.1229   10.4725    0.2478 C   0  0  0  0  0  0  0  0  0  0  0  0
    3.9176    9.5560   -0.7567 C   0  0  0  0  0  0  0  0  0  0  0  0
    2.7389    8.8030   -0.8241 C   0  0  0  0  0  0  0  0  0  0  0  0
    1.7428    8.9714    0.1176 C   0  0  0  0  0  0  0  0  0  0  0  0
    0.4409    8.1002   -0.0146 C   0  0  0  0  0  0  0  0  0  0  0  0
   -0.3441    8.3192   -0.9414 O   0  0  0  0  0  0  0  0  0  0  0  0
    0.3144    7.0450    0.7797 N   0  0  0  0  0  0  0  0  0  0  0  0
   -0.4889    6.4789    0.7219 H   0  0  0  0  0  0  0  0  0  0  0  0
    1.0239    6.8283    1.4269 H   0  0  0  0  0  0  0  0  0  0  0  0
    3.1295   11.7073    3.3710 C   0  0  0  0  0  0  0  0  0  0  0  0
    2.7181   10.7475    4.0143 O   0  0  0  0  0  0  0  0  0  0  0  0
    3.4380   11.6536    2.0689 N   0  0  0  0  0  0  0  0  0  0  0  0
    3.9483   12.4133    1.7059 H   0  0  0  0  0  0  0  0  0  0  0  0
    4.1172   14.0368    3.8807 C   0  0  0  0  0  0  0  0  0  0  0  0
    3.3108   12.9013    4.1123 C   0  0  0  0  0  0  0  0  0  0  0  0
    5.0059   15.4607    2.2524 O   0  0  0  0  0  0  0  0  0  0  0  0
    5.0411   14.3583    2.8555 C   0  0  0  0  0  0  0  0  0  0  0  0
    5.7881   13.4209    2.4867 O   0  0  0  0  0  0  0  0  0  0  0  0
    5.7910   12.6110    2.9580 H   0  0  0  0  0  0  0  0  0  0  0  0
  9  7  1  0  0  0
  8  7  2  0  0  0
  7  6  1  0  0  0
  6  2  2  0  0  0
  6  5  1  0  0  0
 13 12  2  0  0  0
  2  1  1  0  0  0
  5  4  2  0  0  0
 12 14  1  0  0  0
 12 17  1  0  0  0
  1 14  1  0  0  0
  1  3  2  0  0  0
 17 16  2  0  0  0
  4  3  1  0  0  0
 16 19  1  0  0  0
 18 19  2  0  0  0
 19 20  1  0  0  0
 20 21  1  0  0  0
 14 15  1  0  0  0
  9 10  1  0  0  0
  9 11  1  0  0  0
M  END
> <minimizedAffinity>
-7.75288

$$$$
4F1L_0RY_A_1801


 21 21  0  0  0  0  0  0  0  0999 V2000
    2.4159   10.7173    2.8554 C   0  0  0  0  0  0  0  0  0  0  0  0
    2.1081   10.3679    1.5335 C   0  0  0  0  0  0  0  0  0  0  0  0
    2.0547    9.8408    3.8850 C   0  0  0  0  0  0  0  0  0  0  0  0
    1.4258    8.6571    3.5776 C   0  0  0  0  0  0  0  0  0  0  0  0
    1.1159    8.3208    2.2540 C   0  0  0  0  0  0  0  0  0  0  0  0
    1.4463    9.1713    1.2172 C   0  0  0  0  0  0  0  0  0  0  0  0
    1.0765    8.7356   -0.2473 C   0  0  0  0  0  0  0  0  0  0  0  0
    1.9553    8.7121   -1.1134 O   0  0  0  0  0  0  0  0  0  0  0  0
   -0.1371    8.2447   -0.4632 N   0  0  0  0  0  0  0  0  0  0  0  0
   -0.4000    7.9627   -1.3690 H   0  0  0  0  0  0  0  0  0  0  0  0
   -0.7747    8.1626    0.2824 H   0  0  0  0  0  0  0  0  0  0  0  0
    4.1719   12.3427    2.7487 C   0  0  0  0  0  0  0  0  0  0  0  0
    4.5595   12.0958    1.6115 O   0  0  0  0  0  0  0  0  0  0  0  0
    3.0893   11.7831    3.3040 N   0  0  0  0  0  0  0  0  0  0  0  0
    2.7531   12.2003    4.1300 H   0  0  0  0  0  0  0  0  0  0  0  0
    4.5474   14.5141    4.0924 C   0  0  0  0  0  0  0  0  0  0  0  0
    4.9269   13.3163    3.4487 C   0  0  0  0  0  0  0  0  0  0  0  0
    2.8340   15.9095    3.3270 O   0  0  0  0  0  0  0  0  0  0  0  0
    3.2985   15.1691    4.2306 C   0  0  0  0  0  0  0  0  0  0  0  0
    2.7670   15.0874    5.3635 O   0  0  0  0  0  0  0  0  0  0  0  0
    3.1378   14.5259    6.0156 H   0  0  0  0  0  0  0  0  0  0  0  0
  9  7  1  0  0  0
  8  7  2  0  0  0
  7  6  1  0  0  0
  6  2  2  0  0  0
  6  5  1  0  0  0
 13 12  2  0  0  0
  2  1  1  0  0  0
  5  4  2  0  0  0
 12 14  1  0  0  0
 12 17  1  0  0  0
  1 14  1  0  0  0
  1  3  2  0  0  0
 17 16  2  0  0  0
  4  3  1  0  0  0
 16 19  1  0  0  0
 18 19  2  0  0  0
 19 20  1  0  0  0
 20 21  1  0  0  0
 14 15  1  0  0  0
  9 10  1  0  0  0
  9 11  1  0  0  0
M  END
> <minimizedAffinity>
-7.49336

$$$$
4F1L_0RY_A_1801


 21 21  0  0  0  0  0  0  0  0999 V2000
    3.2362   10.9215    1.4965 C   0  0  0  0  0  0  0  0  0  0  0  0
    2.0386   10.2507    1.7790 C   0  0  0  0  0  0  0  0  0  0  0  0
    3.9576   10.5590    0.3533 C   0  0  0  0  0  0  0  0  0  0  0  0
    3.4700    9.5718   -0.4706 C   0  0  0  0  0  0  0  0  0  0  0  0
    2.2760    8.9024   -0.1754 C   0  0  0  0  0  0  0  0  0  0  0  0
    1.5489    9.2271    0.9529 C   0  0  0  0  0  0  0  0  0  0  0  0
    0.2141    8.4433    1.2273 C   0  0  0  0  0  0  0  0  0  0  0  0
   -0.8144    9.0712    1.4939 O   0  0  0  0  0  0  0  0  0  0  0  0
    0.2006    7.1368    0.9967 N   0  0  0  0  0  0  0  0  0  0  0  0
   -0.6196    6.6168    1.1584 H   0  0  0  0  0  0  0  0  0  0  0  0
    1.0107    6.6873    0.6638 H   0  0  0  0  0  0  0  0  0  0  0  0
    3.5435   12.3329    3.4072 C   0  0  0  0  0  0  0  0  0  0  0  0
    2.9337   11.6475    4.2213 O   0  0  0  0  0  0  0  0  0  0  0  0
    3.7946   11.9476    2.1494 N   0  0  0  0  0  0  0  0  0  0  0  0
    4.4606   12.4753    1.6522 H   0  0  0  0  0  0  0  0  0  0  0  0
    3.3559   14.7686    4.2402 C   0  0  0  0  0  0  0  0  0  0  0  0
    4.0236   13.5728    3.8972 C   0  0  0  0  0  0  0  0  0  0  0  0
    1.3422   15.4491    5.2151 O   0  0  0  0  0  0  0  0  0  0  0  0
    1.9927   15.1512    4.1815 C   0  0  0  0  0  0  0  0  0  0  0  0
    1.4425   15.0232    3.0619 O   0  0  0  0  0  0  0  0  0  0  0  0
    1.9557   14.8004    2.3103 H   0  0  0  0  0  0  0  0  0  0  0  0
  9  7  1  0  0  0
  8  7  2  0  0  0
  7  6  1  0  0  0
  6  2  2  0  0  0
  6  5  1  0  0  0
 13 12  2  0  0  0
  2  1  1  0  0  0
  5  4  2  0  0  0
 12 14  1  0  0  0
 12 17  1  0  0  0
  1 14  1  0  0  0
  1  3  2  0  0  0
 17 16  2  0  0  0
  4  3  1  0  0  0
 16 19  1  0  0  0
 18 19  2  0  0  0
 19 20  1  0  0  0
 20 21  1  0  0  0
 14 15  1  0  0  0
  9 10  1  0  0  0
  9 11  1  0  0  0
M  END
> <minimizedAffinity>
-7.46658

$$$$
4F1L_0RY_A_1801


 21 21  0  0  0  0  0  0  0  0999 V2000
    1.7442    8.7848   -0.5286 C   0  0  0  0  0  0  0  0  0  0  0  0
    2.2205    9.6580    0.4588 C   0  0  0  0  0  0  0  0  0  0  0  0
    0.8002    7.8152   -0.1715 C   0  0  0  0  0  0  0  0  0  0  0  0
    0.3515    7.7524    1.1269 C   0  0  0  0  0  0  0  0  0  0  0  0
    0.8394    8.6247    2.1077 C   0  0  0  0  0  0  0  0  0  0  0  0
    1.7820    9.5828    1.7900 C   0  0  0  0  0  0  0  0  0  0  0  0
    2.2871   10.5358    2.9337 C   0  0  0  0  0  0  0  0  0  0  0  0
    2.3113   10.1267    4.0978 O   0  0  0  0  0  0  0  0  0  0  0  0
    2.8305   11.6946    2.5840 N   0  0  0  0  0  0  0  0  0  0  0  0
    3.1567   12.3141    3.2761 H   0  0  0  0  0  0  0  0  0  0  0  0
    2.9075   11.9349    1.6324 H   0  0  0  0  0  0  0  0  0  0  0  0
    3.2111    8.9855   -2.4114 C   0  0  0  0  0  0  0  0  0  0  0  0
    4.2726    8.9885   -1.7969 O   0  0  0  0  0  0  0  0  0  0  0  0
    2.0197    8.7723   -1.8381 N   0  0  0  0  0  0  0  0  0  0  0  0
    1.2665    8.5868   -2.4444 H   0  0  0  0  0  0  0  0  0  0  0  0
    4.0169   10.1412   -4.5739 C   0  0  0  0  0  0  0  0  0  0  0  0
    3.3200    9.1793   -3.8109 C   0  0  0  0  0  0  0  0  0  0  0  0
    4.5556   12.4164   -4.6163 O   0  0  0  0  0  0  0  0  0  0  0  0
    4.8126   11.2554   -4.2086 C   0  0  0  0  0  0  0  0  0  0  0  0
    5.8679   10.9862   -3.5868 O   0  0  0  0  0  0  0  0  0  0  0  0
    6.0299   10.1103   -3.2961 H   0  0  0  0  0  0  0  0  0  0  0  0
  9  7  1  0  0  0
  8  7  2  0  0  0
  7  6  1  0  0  0
  6  2  2  0  0  0
  6  5  1  0  0  0
 13 12  2  0  0  0
  2  1  1  0  0  0
  5  4  2  0  0  0
 12 14  1  0  0  0
 12 17  1  0  0  0
  1 14  1  0  0  0
  1  3  2  0  0  0
 17 16  2  0  0  0
  4  3  1  0  0  0
 16 19  1  0  0  0
 18 19  2  0  0  0
 19 20  1  0  0  0
 20 21  1  0  0  0
 14 15  1  0  0  0
  9 10  1  0  0  0
  9 11  1  0  0  0
M  END
> <minimizedAffinity>
-7.42359

$$$$
4F1L_0RY_A_1801


 21 21  0  0  0  0  0  0  0  0999 V2000
    3.4802   10.7423    0.9994 C   0  0  0  0  0  0  0  0  0  0  0  0
    2.2533   10.1962    1.4004 C   0  0  0  0  0  0  0  0  0  0  0  0
    4.1128   10.2173   -0.1333 C   0  0  0  0  0  0  0  0  0  0  0  0
    3.5125    9.1964   -0.8324 C   0  0  0  0  0  0  0  0  0  0  0  0
    2.2901    8.6528   -0.4190 C   0  0  0  0  0  0  0  0  0  0  0  0
    1.6482    9.1393    0.7029 C   0  0  0  0  0  0  0  0  0  0  0  0
    0.2761    8.4910    1.1133 C   0  0  0  0  0  0  0  0  0  0  0  0
   -0.7074    9.2148    1.2922 O   0  0  0  0  0  0  0  0  0  0  0  0
    0.1806    7.1679    1.0890 N   0  0  0  0  0  0  0  0  0  0  0  0
   -0.6650    6.7307    1.3403 H   0  0  0  0  0  0  0  0  0  0  0  0
    0.9552    6.6233    0.8196 H   0  0  0  0  0  0  0  0  0  0  0  0
    3.9406   12.3462    2.7177 C   0  0  0  0  0  0  0  0  0  0  0  0
    3.2663   11.8371    3.6068 O   0  0  0  0  0  0  0  0  0  0  0  0
    4.1449   11.7798    1.5214 N   0  0  0  0  0  0  0  0  0  0  0  0
    4.8601   12.1680    0.9672 H   0  0  0  0  0  0  0  0  0  0  0  0
    5.2744   13.9950    4.1888 C   0  0  0  0  0  0  0  0  0  0  0  0
    4.5489   13.5821    3.0502 C   0  0  0  0  0  0  0  0  0  0  0  0
    6.8069   13.1893    5.7607 O   0  0  0  0  0  0  0  0  0  0  0  0
    5.6126   13.3348    5.3962 C   0  0  0  0  0  0  0  0  0  0  0  0
    4.6615   12.7748    5.9916 O   0  0  0  0  0  0  0  0  0  0  0  0
    3.7822   12.9037    5.6948 H   0  0  0  0  0  0  0  0  0  0  0  0
  9  7  1  0  0  0
  8  7  2  0  0  0
  7  6  1  0  0  0
  6  2  2  0  0  0
  6  5  1  0  0  0
 13 12  2  0  0  0
  2  1  1  0  0  0
  5  4  2  0  0  0
 12 14  1  0  0  0
 12 17  1  0  0  0
  1 14  1  0  0  0
  1  3  2  0  0  0
 17 16  2  0  0  0
  4  3  1  0  0  0
 16 19  1  0  0  0
 18 19  2  0  0  0
 19 20  1  0  0  0
 20 21  1  0  0  0
 14 15  1  0  0  0
  9 10  1  0  0  0
  9 11  1  0  0  0
M  END
> <minimizedAffinity>
-7.34052

$$$$
4F1L_0RY_A_1801


 21 21  0  0  0  0  0  0  0  0999 V2000
    2.3195   10.4156    1.4707 C   0  0  0  0  0  0  0  0  0  0  0  0
    3.2402   10.0946    0.4640 C   0  0  0  0  0  0  0  0  0  0  0  0
    1.0279    9.8817    1.3971 C   0  0  0  0  0  0  0  0  0  0  0  0
    0.6985    9.0465    0.3554 C   0  0  0  0  0  0  0  0  0  0  0  0
    1.6236    8.7380   -0.6496 C   0  0  0  0  0  0  0  0  0  0  0  0
    2.9014    9.2607   -0.6128 C   0  0  0  0  0  0  0  0  0  0  0  0
    3.8957    8.8733   -1.7672 C   0  0  0  0  0  0  0  0  0  0  0  0
    3.5715    9.0761   -2.9406 O   0  0  0  0  0  0  0  0  0  0  0  0
    5.1226    8.4956   -1.4317 N   0  0  0  0  0  0  0  0  0  0  0  0
    5.7694    8.2465   -2.1309 H   0  0  0  0  0  0  0  0  0  0  0  0
    5.3860    8.4643   -0.4837 H   0  0  0  0  0  0  0  0  0  0  0  0
    3.5276   11.9754    2.8289 C   0  0  0  0  0  0  0  0  0  0  0  0
    4.3081   12.3747    1.9712 O   0  0  0  0  0  0  0  0  0  0  0  0
    2.5107   11.1404    2.5793 N   0  0  0  0  0  0  0  0  0  0  0  0
    1.8318   11.0501    3.2865 H   0  0  0  0  0  0  0  0  0  0  0  0
    4.0106   13.8060    4.5833 C   0  0  0  0  0  0  0  0  0  0  0  0
    3.7371   12.4973    4.1296 C   0  0  0  0  0  0  0  0  0  0  0  0
    3.3721   15.9728    3.9785 O   0  0  0  0  0  0  0  0  0  0  0  0
    4.2026   15.0324    3.8999 C   0  0  0  0  0  0  0  0  0  0  0  0
    5.1654   15.0594    3.0967 O   0  0  0  0  0  0  0  0  0  0  0  0
    5.7672   14.3421    3.0626 H   0  0  0  0  0  0  0  0  0  0  0  0
  9  7  1  0  0  0
  8  7  2  0  0  0
  7  6  1  0  0  0
  6  2  2  0  0  0
  6  5  1  0  0  0
 13 12  2  0  0  0
  2  1  1  0  0  0
  5  4  2  0  0  0
 12 14  1  0  0  0
 12 17  1  0  0  0
  1 14  1  0  0  0
  1  3  2  0  0  0
 17 16  2  0  0  0
  4  3  1  0  0  0
 16 19  1  0  0  0
 18 19  2  0  0  0
 19 20  1  0  0  0
 20 21  1  0  0  0
 14 15  1  0  0  0
  9 10  1  0  0  0
  9 11  1  0  0  0
M  END
> <minimizedAffinity>
-6.97200

$$$$
4F1L_0RY_A_1801


 21 21  0  0  0  0  0  0  0  0999 V2000
    2.9887   10.7753    2.0786 C   0  0  0  0  0  0  0  0  0  0  0  0
    3.7917   11.9148    1.9340 C   0  0  0  0  0  0  0  0  0  0  0  0
    2.5461   10.4215    3.3583 C   0  0  0  0  0  0  0  0  0  0  0  0
    2.8923   11.2036    4.4352 C   0  0  0  0  0  0  0  0  0  0  0  0
    3.7014   12.3360    4.2810 C   0  0  0  0  0  0  0  0  0  0  0  0
    4.1659   12.7032    3.0333 C   0  0  0  0  0  0  0  0  0  0  0  0
    5.0661   13.9873    2.9242 C   0  0  0  0  0  0  0  0  0  0  0  0
    5.3790   14.4160    1.8100 O   0  0  0  0  0  0  0  0  0  0  0  0
    5.3201   14.6660    4.0357 N   0  0  0  0  0  0  0  0  0  0  0  0
    5.8804   15.4747    4.0014 H   0  0  0  0  0  0  0  0  0  0  0  0
    4.9481   14.3608    4.8946 H   0  0  0  0  0  0  0  0  0  0  0  0
    3.0651    9.6925   -0.0565 C   0  0  0  0  0  0  0  0  0  0  0  0
    4.2273    9.9634   -0.3400 O   0  0  0  0  0  0  0  0  0  0  0  0
    2.5046    9.9668    1.1285 N   0  0  0  0  0  0  0  0  0  0  0  0
    1.6451    9.5270    1.3210 H   0  0  0  0  0  0  0  0  0  0  0  0
    1.1618    8.2324   -1.0091 C   0  0  0  0  0  0  0  0  0  0  0  0
    2.3382    9.0111   -1.0641 C   0  0  0  0  0  0  0  0  0  0  0  0
   -0.3308    8.6728    0.7363 O   0  0  0  0  0  0  0  0  0  0  0  0
    0.3280    7.8377    0.0665 C   0  0  0  0  0  0  0  0  0  0  0  0
    0.4113    6.6321    0.4016 O   0  0  0  0  0  0  0  0  0  0  0  0
    0.9106    6.0344   -0.1195 H   0  0  0  0  0  0  0  0  0  0  0  0
  9  7  1  0  0  0
  8  7  2  0  0  0
  7  6  1  0  0  0
  6  2  2  0  0  0
  6  5  1  0  0  0
 13 12  2  0  0  0
  2  1  1  0  0  0
  5  4  2  0  0  0
 12 14  1  0  0  0
 12 17  1  0  0  0
  1 14  1  0  0  0
  1  3  2  0  0  0
 17 16  2  0  0  0
  4  3  1  0  0  0
 16 19  1  0  0  0
 18 19  2  0  0  0
 19 20  1  0  0  0
 20 21  1  0  0  0
 14 15  1  0  0  0
  9 10  1  0  0  0
  9 11  1  0  0  0
M  END
> <minimizedAffinity>
-6.72145

$$$$
4F1L_0RY_A_1801


 21 21  0  0  0  0  0  0  0  0999 V2000
    2.9350   11.2177    2.6131 C   0  0  0  0  0  0  0  0  0  0  0  0
    1.7502   10.5027    2.3909 C   0  0  0  0  0  0  0  0  0  0  0  0
    3.9209   11.2126    1.6198 C   0  0  0  0  0  0  0  0  0  0  0  0
    3.6997   10.5254    0.4493 C   0  0  0  0  0  0  0  0  0  0  0  0
    2.5155    9.8078    0.2402 C   0  0  0  0  0  0  0  0  0  0  0  0
    1.5298    9.7816    1.2072 C   0  0  0  0  0  0  0  0  0  0  0  0
    0.2210    8.9625    0.9115 C   0  0  0  0  0  0  0  0  0  0  0  0
   -0.7827    9.1518    1.6042 O   0  0  0  0  0  0  0  0  0  0  0  0
    0.1887    8.2144   -0.1838 N   0  0  0  0  0  0  0  0  0  0  0  0
   -0.6161    7.6893   -0.3978 H   0  0  0  0  0  0  0  0  0  0  0  0
    0.9696    8.1845   -0.7827 H   0  0  0  0  0  0  0  0  0  0  0  0
    2.9091   13.2708    3.8466 C   0  0  0  0  0  0  0  0  0  0  0  0
    2.0331   13.8407    3.2044 O   0  0  0  0  0  0  0  0  0  0  0  0
    3.2616   11.9932    3.6537 N   0  0  0  0  0  0  0  0  0  0  0  0
    3.8204   11.5808    4.3514 H   0  0  0  0  0  0  0  0  0  0  0  0
    4.8423   14.0949    5.3450 C   0  0  0  0  0  0  0  0  0  0  0  0
    3.5150   14.0460    4.8663 C   0  0  0  0  0  0  0  0  0  0  0  0
    6.9569   13.2112    5.8094 O   0  0  0  0  0  0  0  0  0  0  0  0
    6.0090   13.3690    4.9990 C   0  0  0  0  0  0  0  0  0  0  0  0
    6.0996   13.0324    3.7944 O   0  0  0  0  0  0  0  0  0  0  0  0
    5.3745   13.1634    3.2155 H   0  0  0  0  0  0  0  0  0  0  0  0
  9  7  1  0  0  0
  8  7  2  0  0  0
  7  6  1  0  0  0
  6  2  2  0  0  0
  6  5  1  0  0  0
 13 12  2  0  0  0
  2  1  1  0  0  0
  5  4  2  0  0  0
 12 14  1  0  0  0
 12 17  1  0  0  0
  1 14  1  0  0  0
  1  3  2  0  0  0
 17 16  2  0  0  0
  4  3  1  0  0  0
 16 19  1  0  0  0
 18 19  2  0  0  0
 19 20  1  0  0  0
 20 21  1  0  0  0
 14 15  1  0  0  0
  9 10  1  0  0  0
  9 11  1  0  0  0
M  END
> <minimizedAffinity>
-6.46797

$$$$
