3IBN_O60_A_300


 24 23  0  0  0  0  0  0  0  0999 V2000
   -1.9796    5.1861   13.9825 C   0  0  0  0  0  0  0  0  0  0  0  0
   -1.4033    5.1010   12.6000 C   0  0  0  0  0  0  0  0  0  0  0  0
   -1.4026    3.7134   12.0204 C   0  0  0  0  0  0  0  0  0  0  0  0
   -2.6747    3.3679   11.3032 C   0  0  0  0  0  0  0  0  0  0  0  0
   -3.5731    2.4773   12.0716 C   0  0  0  0  0  0  0  0  0  0  0  0
   -3.0599    1.1155   11.9389 O   0  0  0  0  0  0  0  0  0  0  0  0
   -3.0921   -0.1602    9.7623 N   0  0  0  0  0  0  0  0  0  0  0  0
   -5.1028    0.8127   10.7544 O   0  0  0  0  0  0  0  0  0  0  0  0
   -3.9136    0.1185   11.0844 S   0  0  0  0  0  0  0  0  0  0  0  0
   -3.9897   -1.0898   11.8273 O   0  0  0  0  0  0  0  0  0  0  0  0
   -3.6110   -0.8085    9.1698 H   0  0  0  0  0  0  0  0  0  0  0  0
   -2.1887   -0.5683   10.0029 H   0  0  0  0  0  0  0  0  0  0  0  0
   -2.9208    6.3041   14.1583 C   0  0  0  0  0  0  0  0  0  0  0  0
   -4.2203    5.8978   14.7872 C   0  0  0  0  0  0  0  0  0  0  0  0
   -4.5654    4.4464   14.5900 C   0  0  0  0  0  0  0  0  0  0  0  0
   -5.9892    4.1232   14.9248 C   0  0  0  0  0  0  0  0  0  0  0  0
   -6.1332    2.9332   15.7747 C   0  0  0  0  0  0  0  0  0  0  0  0
   -5.4573    1.8544   15.0699 O   0  0  0  0  0  0  0  0  0  0  0  0
   -5.3080    0.6590   17.3024 N   0  0  0  0  0  0  0  0  0  0  0  0
   -4.5661    0.8740   15.9151 S   0  0  0  0  0  0  0  0  0  0  0  0
   -3.3377    1.5564   16.1533 O   0  0  0  0  0  0  0  0  0  0  0  0
   -4.5599   -0.3639   15.2078 O   0  0  0  0  0  0  0  0  0  0  0  0
   -5.3206    1.5374   17.8208 H   0  0  0  0  0  0  0  0  0  0  0  0
   -4.8147   -0.0494   17.8456 H   0  0  0  0  0  0  0  0  0  0  0  0
  5  4  1  0  0  0
  5  6  1  0  0  0
  7  9  1  0  0  0
  8  9  2  0  0  0
  9 10  2  0  0  0
  9  6  1  0  0  0
  4  3  1  0  0  0
 19 20  1  0  0  0
 20 18  1  0  0  0
 20 21  2  0  0  0
 20 22  2  0  0  0
  3  2  1  0  0  0
  2  1  1  0  0  0
 18 17  1  0  0  0
  1 13  1  0  0  0
 13 14  1  0  0  0
 14 15  1  0  0  0
 15 16  1  0  0  0
 16 17  1  0  0  0
  7 11  1  0  0  0
  7 12  1  0  0  0
 19 23  1  0  0  0
 19 24  1  0  0  0
M  END
> <minimizedAffinity>
-6.17635

$$$$
3IBN_O60_A_300


 24 23  0  0  0  0  0  0  0  0999 V2000
   -3.2180    4.4620   12.1985 C   0  0  0  0  0  0  0  0  0  0  0  0
   -3.4135    4.6195   10.7195 C   0  0  0  0  0  0  0  0  0  0  0  0
   -2.7130    3.5758    9.8939 C   0  0  0  0  0  0  0  0  0  0  0  0
   -1.6555    2.8288   10.6525 C   0  0  0  0  0  0  0  0  0  0  0  0
   -1.6802    1.3655   10.4316 C   0  0  0  0  0  0  0  0  0  0  0  0
   -2.5731    0.7853   11.4323 O   0  0  0  0  0  0  0  0  0  0  0  0
   -5.0295    0.9399   10.8771 N   0  0  0  0  0  0  0  0  0  0  0  0
   -4.0191   -1.0571   11.8594 O   0  0  0  0  0  0  0  0  0  0  0  0
   -3.7906   -0.0426   10.8984 S   0  0  0  0  0  0  0  0  0  0  0  0
   -3.4808   -0.4015    9.5594 O   0  0  0  0  0  0  0  0  0  0  0  0
   -5.8517    0.4429   10.5343 H   0  0  0  0  0  0  0  0  0  0  0  0
   -4.8278    1.7282   10.2621 H   0  0  0  0  0  0  0  0  0  0  0  0
   -3.8198    5.5481   12.9891 C   0  0  0  0  0  0  0  0  0  0  0  0
   -5.2856    5.7331   12.7313 C   0  0  0  0  0  0  0  0  0  0  0  0
   -6.1551    5.4516   13.9268 C   0  0  0  0  0  0  0  0  0  0  0  0
   -5.5296    4.5082   14.9078 C   0  0  0  0  0  0  0  0  0  0  0  0
   -5.9871    3.1201   14.7558 C   0  0  0  0  0  0  0  0  0  0  0  0
   -5.4751    2.4014   15.9128 O   0  0  0  0  0  0  0  0  0  0  0  0
   -4.2857    1.1103   14.0816 N   0  0  0  0  0  0  0  0  0  0  0  0
   -4.4841    1.2095   15.6538 S   0  0  0  0  0  0  0  0  0  0  0  0
   -5.1484    0.0326   16.1070 O   0  0  0  0  0  0  0  0  0  0  0  0
   -3.2438    1.5913   16.2441 O   0  0  0  0  0  0  0  0  0  0  0  0
   -5.1660    0.8376   13.6444 H   0  0  0  0  0  0  0  0  0  0  0  0
   -3.5717    0.4126   13.8724 H   0  0  0  0  0  0  0  0  0  0  0  0
  5  4  1  0  0  0
  5  6  1  0  0  0
  7  9  1  0  0  0
  8  9  2  0  0  0
  9 10  2  0  0  0
  9  6  1  0  0  0
  4  3  1  0  0  0
 19 20  1  0  0  0
 20 18  1  0  0  0
 20 21  2  0  0  0
 20 22  2  0  0  0
  3  2  1  0  0  0
  2  1  1  0  0  0
 18 17  1  0  0  0
  1 13  1  0  0  0
 13 14  1  0  0  0
 14 15  1  0  0  0
 15 16  1  0  0  0
 16 17  1  0  0  0
  7 11  1  0  0  0
  7 12  1  0  0  0
 19 23  1  0  0  0
 19 24  1  0  0  0
M  END
> <minimizedAffinity>
-6.15179

$$$$
3IBN_O60_A_300


 24 23  0  0  0  0  0  0  0  0999 V2000
   -3.5132    6.3012   13.6384 C   0  0  0  0  0  0  0  0  0  0  0  0
   -4.4922    5.8062   14.6617 C   0  0  0  0  0  0  0  0  0  0  0  0
   -5.8156    5.3804   14.0884 C   0  0  0  0  0  0  0  0  0  0  0  0
   -6.0756    3.9085   14.2221 C   0  0  0  0  0  0  0  0  0  0  0  0
   -4.9981    3.1704   14.9185 C   0  0  0  0  0  0  0  0  0  0  0  0
   -5.6158    2.0412   15.6104 O   0  0  0  0  0  0  0  0  0  0  0  0
   -4.5774   -0.1817   15.0213 N   0  0  0  0  0  0  0  0  0  0  0  0
   -5.2872    0.3863   17.2901 O   0  0  0  0  0  0  0  0  0  0  0  0
   -4.6531    0.9277   16.1457 S   0  0  0  0  0  0  0  0  0  0  0  0
   -3.3710    1.5262   16.2711 O   0  0  0  0  0  0  0  0  0  0  0  0
   -3.9582   -0.9328   15.3259 H   0  0  0  0  0  0  0  0  0  0  0  0
   -4.2151    0.2300   14.1613 H   0  0  0  0  0  0  0  0  0  0  0  0
   -2.1082    6.0622   14.0064 C   0  0  0  0  0  0  0  0  0  0  0  0
   -1.4357    5.0263   13.1555 C   0  0  0  0  0  0  0  0  0  0  0  0
   -1.9285    4.9914   11.7341 C   0  0  0  0  0  0  0  0  0  0  0  0
   -2.1682    3.6043   11.2219 C   0  0  0  0  0  0  0  0  0  0  0  0
   -3.5656    3.1683   11.3498 C   0  0  0  0  0  0  0  0  0  0  0  0
   -3.7656    2.1599   10.3200 O   0  0  0  0  0  0  0  0  0  0  0  0
   -2.7804   -0.1284   10.7973 N   0  0  0  0  0  0  0  0  0  0  0  0
   -4.1325    0.7038   10.7834 S   0  0  0  0  0  0  0  0  0  0  0  0
   -4.9894    0.1690    9.7777 O   0  0  0  0  0  0  0  0  0  0  0  0
   -4.6054    0.8226   12.1231 O   0  0  0  0  0  0  0  0  0  0  0  0
   -2.4290   -0.2221    9.8443 H   0  0  0  0  0  0  0  0  0  0  0  0
   -2.9550   -1.0543   11.1879 H   0  0  0  0  0  0  0  0  0  0  0  0
  5  4  1  0  0  0
  5  6  1  0  0  0
  7  9  1  0  0  0
  8  9  2  0  0  0
  9 10  2  0  0  0
  9  6  1  0  0  0
  4  3  1  0  0  0
 19 20  1  0  0  0
 20 18  1  0  0  0
 20 21  2  0  0  0
 20 22  2  0  0  0
  3  2  1  0  0  0
  2  1  1  0  0  0
 18 17  1  0  0  0
  1 13  1  0  0  0
 13 14  1  0  0  0
 14 15  1  0  0  0
 15 16  1  0  0  0
 16 17  1  0  0  0
  7 11  1  0  0  0
  7 12  1  0  0  0
 19 23  1  0  0  0
 19 24  1  0  0  0
M  END
> <minimizedAffinity>
-6.09774

$$$$
3IBN_O60_A_300


 24 23  0  0  0  0  0  0  0  0999 V2000
   -5.3399    6.7060   11.5112 C   0  0  0  0  0  0  0  0  0  0  0  0
   -5.9912    6.1921   12.7611 C   0  0  0  0  0  0  0  0  0  0  0  0
   -5.0678    5.4157   13.6589 C   0  0  0  0  0  0  0  0  0  0  0  0
   -5.5239    4.0077   13.9064 C   0  0  0  0  0  0  0  0  0  0  0  0
   -4.6218    3.2314   14.7863 C   0  0  0  0  0  0  0  0  0  0  0  0
   -5.3880    2.1062   15.3176 O   0  0  0  0  0  0  0  0  0  0  0  0
   -5.3160    0.5657   17.3146 N   0  0  0  0  0  0  0  0  0  0  0  0
   -3.3011    1.4844   16.2801 O   0  0  0  0  0  0  0  0  0  0  0  0
   -4.5713    0.9403   15.9708 S   0  0  0  0  0  0  0  0  0  0  0  0
   -4.6639   -0.1657   15.0843 O   0  0  0  0  0  0  0  0  0  0  0  0
   -4.8181   -0.1939   17.7788 H   0  0  0  0  0  0  0  0  0  0  0  0
   -6.2689    0.2691   17.1040 H   0  0  0  0  0  0  0  0  0  0  0  0
   -3.9011    6.9750   11.6670 C   0  0  0  0  0  0  0  0  0  0  0  0
   -3.0441    6.2258   10.6904 C   0  0  0  0  0  0  0  0  0  0  0  0
   -3.7762    5.1461    9.9402 C   0  0  0  0  0  0  0  0  0  0  0  0
   -2.9872    3.8806    9.7993 C   0  0  0  0  0  0  0  0  0  0  0  0
   -3.1498    2.9621   10.9346 C   0  0  0  0  0  0  0  0  0  0  0  0
   -3.2440    1.6286   10.3597 O   0  0  0  0  0  0  0  0  0  0  0  0
   -5.6358    1.7600   11.1946 N   0  0  0  0  0  0  0  0  0  0  0  0
   -4.4940    0.7550   10.7393 S   0  0  0  0  0  0  0  0  0  0  0  0
   -4.1038   -0.0336   11.8608 O   0  0  0  0  0  0  0  0  0  0  0  0
   -4.9083    0.1134    9.5355 O   0  0  0  0  0  0  0  0  0  0  0  0
   -5.3536    2.2276   12.0561 H   0  0  0  0  0  0  0  0  0  0  0  0
   -6.4998    1.2425   11.3559 H   0  0  0  0  0  0  0  0  0  0  0  0
  5  4  1  0  0  0
  5  6  1  0  0  0
  7  9  1  0  0  0
  8  9  2  0  0  0
  9 10  2  0  0  0
  9  6  1  0  0  0
  4  3  1  0  0  0
 19 20  1  0  0  0
 20 18  1  0  0  0
 20 21  2  0  0  0
 20 22  2  0  0  0
  3  2  1  0  0  0
  2  1  1  0  0  0
 18 17  1  0  0  0
  1 13  1  0  0  0
 13 14  1  0  0  0
 14 15  1  0  0  0
 15 16  1  0  0  0
 16 17  1  0  0  0
  7 11  1  0  0  0
  7 12  1  0  0  0
 19 23  1  0  0  0
 19 24  1  0  0  0
M  END
> <minimizedAffinity>
-6.08711

$$$$
3IBN_O60_A_300


 24 23  0  0  0  0  0  0  0  0999 V2000
   -0.9915    6.1143   11.5469 C   0  0  0  0  0  0  0  0  0  0  0  0
   -0.8759    6.6430   12.9461 C   0  0  0  0  0  0  0  0  0  0  0  0
   -2.0305    6.2766   13.8373 C   0  0  0  0  0  0  0  0  0  0  0  0
   -1.9488    4.8763   14.3706 C   0  0  0  0  0  0  0  0  0  0  0  0
   -3.1430    4.0526   14.0773 C   0  0  0  0  0  0  0  0  0  0  0  0
   -3.6622    3.5625   15.3523 O   0  0  0  0  0  0  0  0  0  0  0  0
   -4.1370    1.5648   13.8860 N   0  0  0  0  0  0  0  0  0  0  0  0
   -5.6771    2.3241   15.6254 O   0  0  0  0  0  0  0  0  0  0  0  0
   -4.3009    2.1324   15.3528 S   0  0  0  0  0  0  0  0  0  0  0  0
   -3.5158    1.3381   16.2305 O   0  0  0  0  0  0  0  0  0  0  0  0
   -4.5406    0.6294   13.8363 H   0  0  0  0  0  0  0  0  0  0  0  0
   -3.1464    1.5209   13.6471 H   0  0  0  0  0  0  0  0  0  0  0  0
   -0.0506    5.0212   11.2529 C   0  0  0  0  0  0  0  0  0  0  0  0
   -0.3726    4.2793    9.9899 C   0  0  0  0  0  0  0  0  0  0  0  0
   -0.2694    2.7835   10.1183 C   0  0  0  0  0  0  0  0  0  0  0  0
   -1.2064    2.2082   11.1356 C   0  0  0  0  0  0  0  0  0  0  0  0
   -1.8973    0.9965   10.6733 C   0  0  0  0  0  0  0  0  0  0  0  0
   -3.1803    1.4424   10.1513 O   0  0  0  0  0  0  0  0  0  0  0  0
   -5.5528    1.6638   11.0215 N   0  0  0  0  0  0  0  0  0  0  0  0
   -4.4577    0.6167   10.5466 S   0  0  0  0  0  0  0  0  0  0  0  0
   -4.0823   -0.1904   11.6598 O   0  0  0  0  0  0  0  0  0  0  0  0
   -4.9141   -0.0040    9.3471 O   0  0  0  0  0  0  0  0  0  0  0  0
   -5.2401    2.1169   11.8801 H   0  0  0  0  0  0  0  0  0  0  0  0
   -6.4339    1.1796   11.1939 H   0  0  0  0  0  0  0  0  0  0  0  0
  5  4  1  0  0  0
  5  6  1  0  0  0
  7  9  1  0  0  0
  8  9  2  0  0  0
  9 10  2  0  0  0
  9  6  1  0  0  0
  4  3  1  0  0  0
 19 20  1  0  0  0
 20 18  1  0  0  0
 20 21  2  0  0  0
 20 22  2  0  0  0
  3  2  1  0  0  0
  2  1  1  0  0  0
 18 17  1  0  0  0
  1 13  1  0  0  0
 13 14  1  0  0  0
 14 15  1  0  0  0
 15 16  1  0  0  0
 16 17  1  0  0  0
  7 11  1  0  0  0
  7 12  1  0  0  0
 19 23  1  0  0  0
 19 24  1  0  0  0
M  END
> <minimizedAffinity>
-5.84237

$$$$
3IBN_O60_A_300


 24 23  0  0  0  0  0  0  0  0999 V2000
   -1.3735    1.3485   10.9120 C   0  0  0  0  0  0  0  0  0  0  0  0
   -0.7491    2.3882   10.0290 C   0  0  0  0  0  0  0  0  0  0  0  0
   -0.8873    3.7939   10.5450 C   0  0  0  0  0  0  0  0  0  0  0  0
   -2.2810    4.3372   10.4249 C   0  0  0  0  0  0  0  0  0  0  0  0
   -2.8656    4.7774   11.7113 C   0  0  0  0  0  0  0  0  0  0  0  0
   -2.0171    4.2559   12.7806 O   0  0  0  0  0  0  0  0  0  0  0  0
   -3.7271    5.0127   14.4745 N   0  0  0  0  0  0  0  0  0  0  0  0
   -1.6411    6.2209   14.0711 O   0  0  0  0  0  0  0  0  0  0  0  0
   -2.1742    4.9147   14.1928 S   0  0  0  0  0  0  0  0  0  0  0  0
   -1.6057    4.0093   15.1280 O   0  0  0  0  0  0  0  0  0  0  0  0
   -3.8806    5.4381   15.3888 H   0  0  0  0  0  0  0  0  0  0  0  0
   -4.1347    4.0778   14.4618 H   0  0  0  0  0  0  0  0  0  0  0  0
   -2.4534    0.5931   10.2563 C   0  0  0  0  0  0  0  0  0  0  0  0
   -2.8854   -0.6203   11.0247 C   0  0  0  0  0  0  0  0  0  0  0  0
   -4.0042   -0.3598   11.9968 C   0  0  0  0  0  0  0  0  0  0  0  0
   -4.6206    0.9969   11.8440 C   0  0  0  0  0  0  0  0  0  0  0  0
   -4.5590    1.8072   13.0683 C   0  0  0  0  0  0  0  0  0  0  0  0
   -4.2613    0.8781   14.1480 O   0  0  0  0  0  0  0  0  0  0  0  0
   -5.4190    0.2282   16.3095 N   0  0  0  0  0  0  0  0  0  0  0  0
   -4.5376    1.3544   15.6199 S   0  0  0  0  0  0  0  0  0  0  0  0
   -5.3150    2.5445   15.5149 O   0  0  0  0  0  0  0  0  0  0  0  0
   -3.2679    1.3959   16.2669 O   0  0  0  0  0  0  0  0  0  0  0  0
   -6.3321    0.1862   15.8568 H   0  0  0  0  0  0  0  0  0  0  0  0
   -5.5395    0.4484   17.2981 H   0  0  0  0  0  0  0  0  0  0  0  0
  5  4  1  0  0  0
  5  6  1  0  0  0
  7  9  1  0  0  0
  8  9  2  0  0  0
  9 10  2  0  0  0
  9  6  1  0  0  0
  4  3  1  0  0  0
 19 20  1  0  0  0
 20 18  1  0  0  0
 20 21  2  0  0  0
 20 22  2  0  0  0
  3  2  1  0  0  0
  2  1  1  0  0  0
 18 17  1  0  0  0
  1 13  1  0  0  0
 13 14  1  0  0  0
 14 15  1  0  0  0
 15 16  1  0  0  0
 16 17  1  0  0  0
  7 11  1  0  0  0
  7 12  1  0  0  0
 19 23  1  0  0  0
 19 24  1  0  0  0
M  END
> <minimizedAffinity>
-5.81340

$$$$
3IBN_O60_A_300


 24 23  0  0  0  0  0  0  0  0999 V2000
   -6.3250    7.0958   11.9830 C   0  0  0  0  0  0  0  0  0  0  0  0
   -5.2849    6.2773   11.2768 C   0  0  0  0  0  0  0  0  0  0  0  0
   -3.9665    6.9794   11.1022 C   0  0  0  0  0  0  0  0  0  0  0  0
   -2.7872    6.0534   11.1616 C   0  0  0  0  0  0  0  0  0  0  0  0
   -2.9051    4.8750   10.2739 C   0  0  0  0  0  0  0  0  0  0  0  0
   -3.0495    3.6964   11.1256 O   0  0  0  0  0  0  0  0  0  0  0  0
   -2.0587    1.4196   11.5739 N   0  0  0  0  0  0  0  0  0  0  0  0
   -1.8291    2.5617    9.4253 O   0  0  0  0  0  0  0  0  0  0  0  0
   -2.7552    2.3069   10.4656 S   0  0  0  0  0  0  0  0  0  0  0  0
   -4.0159    1.7296   10.1570 O   0  0  0  0  0  0  0  0  0  0  0  0
   -1.8465    0.4992   11.1889 H   0  0  0  0  0  0  0  0  0  0  0  0
   -2.6859    1.3180   12.3719 H   0  0  0  0  0  0  0  0  0  0  0  0
   -6.9573    6.3941   13.1119 C   0  0  0  0  0  0  0  0  0  0  0  0
   -6.1714    5.2122   13.5963 C   0  0  0  0  0  0  0  0  0  0  0  0
   -5.3912    5.4738   14.8562 C   0  0  0  0  0  0  0  0  0  0  0  0
   -3.9117    5.3157   14.6829 C   0  0  0  0  0  0  0  0  0  0  0  0
   -3.5155    3.9682   14.2509 C   0  0  0  0  0  0  0  0  0  0  0  0
   -3.5271    3.1443   15.4503 O   0  0  0  0  0  0  0  0  0  0  0  0
   -4.2519    1.2716   13.9004 N   0  0  0  0  0  0  0  0  0  0  0  0
   -4.3223    1.7898   15.3996 S   0  0  0  0  0  0  0  0  0  0  0  0
   -5.6759    2.1099   15.7107 O   0  0  0  0  0  0  0  0  0  0  0  0
   -3.6044    0.8786   16.2283 O   0  0  0  0  0  0  0  0  0  0  0  0
   -4.7619    1.9141   13.2943 H   0  0  0  0  0  0  0  0  0  0  0  0
   -4.6711    0.3435   13.8414 H   0  0  0  0  0  0  0  0  0  0  0  0
  5  4  1  0  0  0
  5  6  1  0  0  0
  7  9  1  0  0  0
  8  9  2  0  0  0
  9 10  2  0  0  0
  9  6  1  0  0  0
  4  3  1  0  0  0
 19 20  1  0  0  0
 20 18  1  0  0  0
 20 21  2  0  0  0
 20 22  2  0  0  0
  3  2  1  0  0  0
  2  1  1  0  0  0
 18 17  1  0  0  0
  1 13  1  0  0  0
 13 14  1  0  0  0
 14 15  1  0  0  0
 15 16  1  0  0  0
 16 17  1  0  0  0
  7 11  1  0  0  0
  7 12  1  0  0  0
 19 23  1  0  0  0
 19 24  1  0  0  0
M  END
> <minimizedAffinity>
-5.69128

$$$$
3IBN_O60_A_300


 24 23  0  0  0  0  0  0  0  0999 V2000
   -6.8120    3.1956   16.4744 C   0  0  0  0  0  0  0  0  0  0  0  0
   -6.4246    3.8619   15.1873 C   0  0  0  0  0  0  0  0  0  0  0  0
   -5.8704    5.2495   15.3578 C   0  0  0  0  0  0  0  0  0  0  0  0
   -4.7721    5.5744   14.3883 C   0  0  0  0  0  0  0  0  0  0  0  0
   -5.2539    5.9426   13.0381 C   0  0  0  0  0  0  0  0  0  0  0  0
   -5.1837    4.7441   12.2050 O   0  0  0  0  0  0  0  0  0  0  0  0
   -4.4672    3.4508   10.1604 N   0  0  0  0  0  0  0  0  0  0  0  0
   -3.1527    5.2902   11.0891 O   0  0  0  0  0  0  0  0  0  0  0  0
   -4.4829    4.8916   10.8121 S   0  0  0  0  0  0  0  0  0  0  0  0
   -5.3171    5.7298   10.0252 O   0  0  0  0  0  0  0  0  0  0  0  0
   -4.0177    3.4962    9.2459 H   0  0  0  0  0  0  0  0  0  0  0  0
   -5.4246    3.1160   10.0525 H   0  0  0  0  0  0  0  0  0  0  0  0
   -6.3430    1.8043   16.5794 C   0  0  0  0  0  0  0  0  0  0  0  0
   -4.8608    1.6586   16.4029 C   0  0  0  0  0  0  0  0  0  0  0  0
   -4.4678    0.8123   15.2223 C   0  0  0  0  0  0  0  0  0  0  0  0
   -4.1149    1.6141   14.0073 C   0  0  0  0  0  0  0  0  0  0  0  0
   -4.4636    0.9463   12.7457 C   0  0  0  0  0  0  0  0  0  0  0  0
   -3.3181    1.1282   11.8670 O   0  0  0  0  0  0  0  0  0  0  0  0
   -4.5542    0.2299    9.8422 N   0  0  0  0  0  0  0  0  0  0  0  0
   -3.1803    0.1621   10.6352 S   0  0  0  0  0  0  0  0  0  0  0  0
   -3.0253   -1.1492   11.1720 O   0  0  0  0  0  0  0  0  0  0  0  0
   -2.1546    0.7137    9.8129 O   0  0  0  0  0  0  0  0  0  0  0  0
   -5.2991   -0.1618   10.4185 H   0  0  0  0  0  0  0  0  0  0  0  0
   -4.4749   -0.3065    8.9783 H   0  0  0  0  0  0  0  0  0  0  0  0
  5  4  1  0  0  0
  5  6  1  0  0  0
  7  9  1  0  0  0
  8  9  2  0  0  0
  9 10  2  0  0  0
  9  6  1  0  0  0
  4  3  1  0  0  0
 19 20  1  0  0  0
 20 18  1  0  0  0
 20 21  2  0  0  0
 20 22  2  0  0  0
  3  2  1  0  0  0
  2  1  1  0  0  0
 18 17  1  0  0  0
  1 13  1  0  0  0
 13 14  1  0  0  0
 14 15  1  0  0  0
 15 16  1  0  0  0
 16 17  1  0  0  0
  7 11  1  0  0  0
  7 12  1  0  0  0
 19 23  1  0  0  0
 19 24  1  0  0  0
M  END
> <minimizedAffinity>
-5.67540

$$$$
3IBN_O60_A_300


 24 23  0  0  0  0  0  0  0  0999 V2000
    0.4350    5.1049   11.0592 C   0  0  0  0  0  0  0  0  0  0  0  0
    0.3075    3.6208   11.2375 C   0  0  0  0  0  0  0  0  0  0  0  0
   -0.0100    2.8761    9.9702 C   0  0  0  0  0  0  0  0  0  0  0  0
   -1.4715    2.8775    9.6300 C   0  0  0  0  0  0  0  0  0  0  0  0
   -2.2305    1.7639   10.2420 C   0  0  0  0  0  0  0  0  0  0  0  0
   -3.6517    2.0417   10.0466 O   0  0  0  0  0  0  0  0  0  0  0  0
   -3.9005    0.5193   12.0433 N   0  0  0  0  0  0  0  0  0  0  0  0
   -4.9467    0.0504    9.8847 O   0  0  0  0  0  0  0  0  0  0  0  0
   -4.6637    1.1038   10.7877 S   0  0  0  0  0  0  0  0  0  0  0  0
   -5.7197    1.9329   11.2517 O   0  0  0  0  0  0  0  0  0  0  0  0
   -4.5229   -0.1014   12.5609 H   0  0  0  0  0  0  0  0  0  0  0  0
   -3.6044    1.2854   12.6482 H   0  0  0  0  0  0  0  0  0  0  0  0
   -0.7391    5.8560   11.5323 C   0  0  0  0  0  0  0  0  0  0  0  0
   -1.2330    5.4082   12.8758 C   0  0  0  0  0  0  0  0  0  0  0  0
   -2.7226    5.2045   12.9408 C   0  0  0  0  0  0  0  0  0  0  0  0
   -3.1175    3.7821   13.1952 C   0  0  0  0  0  0  0  0  0  0  0  0
   -3.6439    3.5557   14.5484 C   0  0  0  0  0  0  0  0  0  0  0  0
   -4.4981    2.3815   14.4537 O   0  0  0  0  0  0  0  0  0  0  0  0
   -5.5925    1.7336   16.6485 N   0  0  0  0  0  0  0  0  0  0  0  0
   -4.4414    1.3391   15.6285 S   0  0  0  0  0  0  0  0  0  0  0  0
   -3.1804    1.5251   16.2663 O   0  0  0  0  0  0  0  0  0  0  0  0
   -4.7607    0.0752   15.0513 O   0  0  0  0  0  0  0  0  0  0  0  0
   -5.3780    2.6371   17.0704 H   0  0  0  0  0  0  0  0  0  0  0  0
   -5.6574    1.0243   17.3787 H   0  0  0  0  0  0  0  0  0  0  0  0
  5  4  1  0  0  0
  5  6  1  0  0  0
  7  9  1  0  0  0
  8  9  2  0  0  0
  9 10  2  0  0  0
  9  6  1  0  0  0
  4  3  1  0  0  0
 19 20  1  0  0  0
 20 18  1  0  0  0
 20 21  2  0  0  0
 20 22  2  0  0  0
  3  2  1  0  0  0
  2  1  1  0  0  0
 18 17  1  0  0  0
  1 13  1  0  0  0
 13 14  1  0  0  0
 14 15  1  0  0  0
 15 16  1  0  0  0
 16 17  1  0  0  0
  7 11  1  0  0  0
  7 12  1  0  0  0
 19 23  1  0  0  0
 19 24  1  0  0  0
M  END
> <minimizedAffinity>
-5.67107

$$$$
3IBN_O60_A_300


 24 23  0  0  0  0  0  0  0  0999 V2000
   -3.8302   -0.3678   10.7268 C   0  0  0  0  0  0  0  0  0  0  0  0
   -4.5430    0.8860   11.1398 C   0  0  0  0  0  0  0  0  0  0  0  0
   -4.4922    1.1616   12.6173 C   0  0  0  0  0  0  0  0  0  0  0  0
   -4.0589    2.5601   12.9467 C   0  0  0  0  0  0  0  0  0  0  0  0
   -4.3605    2.9693   14.3367 C   0  0  0  0  0  0  0  0  0  0  0  0
   -5.1952    1.9269   14.9300 O   0  0  0  0  0  0  0  0  0  0  0  0
   -5.4072    1.3589   17.3793 N   0  0  0  0  0  0  0  0  0  0  0  0
   -3.2479    1.5921   16.2582 O   0  0  0  0  0  0  0  0  0  0  0  0
   -4.5542    1.0761   16.0781 S   0  0  0  0  0  0  0  0  0  0  0  0
   -4.7265   -0.2869   15.7173 O   0  0  0  0  0  0  0  0  0  0  0  0
   -5.0256    0.8235   18.1591 H   0  0  0  0  0  0  0  0  0  0  0  0
   -6.3755    1.0816   17.2179 H   0  0  0  0  0  0  0  0  0  0  0  0
   -2.3644   -0.2652   10.8130 C   0  0  0  0  0  0  0  0  0  0  0  0
   -1.8057    0.9268   10.0944 C   0  0  0  0  0  0  0  0  0  0  0  0
   -0.9641    1.8227   10.9626 C   0  0  0  0  0  0  0  0  0  0  0  0
   -0.3892    2.9940   10.2268 C   0  0  0  0  0  0  0  0  0  0  0  0
   -1.0339    3.2421    8.9299 C   0  0  0  0  0  0  0  0  0  0  0  0
   -1.4910    4.6231    8.9684 O   0  0  0  0  0  0  0  0  0  0  0  0
   -3.8846    4.0817    9.6103 N   0  0  0  0  0  0  0  0  0  0  0  0
   -2.9899    4.9082    8.5919 S   0  0  0  0  0  0  0  0  0  0  0  0
   -3.1796    4.3796    7.2818 O   0  0  0  0  0  0  0  0  0  0  0  0
   -3.1996    6.2982    8.8290 O   0  0  0  0  0  0  0  0  0  0  0  0
   -3.7453    3.0836    9.4528 H   0  0  0  0  0  0  0  0  0  0  0  0
   -4.8672    4.3147    9.4663 H   0  0  0  0  0  0  0  0  0  0  0  0
  5  4  1  0  0  0
  5  6  1  0  0  0
  7  9  1  0  0  0
  8  9  2  0  0  0
  9 10  2  0  0  0
  9  6  1  0  0  0
  4  3  1  0  0  0
 19 20  1  0  0  0
 20 18  1  0  0  0
 20 21  2  0  0  0
 20 22  2  0  0  0
  3  2  1  0  0  0
  2  1  1  0  0  0
 18 17  1  0  0  0
  1 13  1  0  0  0
 13 14  1  0  0  0
 14 15  1  0  0  0
 15 16  1  0  0  0
 16 17  1  0  0  0
  7 11  1  0  0  0
  7 12  1  0  0  0
 19 23  1  0  0  0
 19 24  1  0  0  0
M  END
> <minimizedAffinity>
-5.60291

$$$$
