3QPS_CHD_A_211


 33 36  0  0  0  0  0  0  0  0999 V2000
  -11.7359    0.7099  -11.8819 C   0  0  0  0  0  0  0  0  0  0  0  0
  -12.4912    1.7052  -11.0177 C   0  0  0  0  0  0  0  0  0  0  0  0
  -13.6659    0.9703  -10.4116 C   0  0  0  0  0  0  0  0  0  0  0  0
  -14.6183    0.7354  -11.4544 O   0  0  0  0  0  0  0  0  0  0  0  0
  -13.1908   -0.3626   -9.8328 C   0  0  0  0  0  0  0  0  0  0  0  0
  -11.6712   -0.5468   -9.7025 C   0  0  0  0  0  0  0  0  0  0  0  0
  -11.3829   -1.9767   -9.2335 C   0  0  0  0  0  0  0  0  0  0  0  0
   -9.9328   -2.3838   -9.5018 C   0  0  0  0  0  0  0  0  0  0  0  0
   -9.6411   -3.6375   -8.8776 O   0  0  0  0  0  0  0  0  0  0  0  0
   -9.6409   -2.4123  -11.0085 C   0  0  0  0  0  0  0  0  0  0  0  0
  -10.6563   -1.5314  -11.7329 C   0  0  0  0  0  0  0  0  0  0  0  0
  -10.9215   -0.2224  -10.9956 C   0  0  0  0  0  0  0  0  0  0  0  0
  -10.2260   -1.3057  -13.1799 C   0  0  0  0  0  0  0  0  0  0  0  0
  -10.0997   -2.6179  -13.9810 C   0  0  0  0  0  0  0  0  0  0  0  0
  -11.3638   -3.0584  -14.5276 O   0  0  0  0  0  0  0  0  0  0  0  0
   -9.3377   -3.7079  -13.1860 C   0  0  0  0  0  0  0  0  0  0  0  0
   -9.7152   -3.7736  -11.7062 C   0  0  0  0  0  0  0  0  0  0  0  0
   -8.8386   -4.9233  -11.2248 C   0  0  0  0  0  0  0  0  0  0  0  0
   -8.9323   -5.9153  -12.4014 C   0  0  0  0  0  0  0  0  0  0  0  0
   -9.5487   -5.1676  -13.5911 C   0  0  0  0  0  0  0  0  0  0  0  0
   -7.8364   -3.4293  -13.2799 C   0  0  0  0  0  0  0  0  0  0  0  0
   -9.6077    0.4885  -10.6593 C   0  0  0  0  0  0  0  0  0  0  0  0
  -14.2041    0.2130  -12.1589 H   0  0  0  0  0  0  0  0  0  0  0  0
  -10.2144   -4.3255   -9.2503 H   0  0  0  0  0  0  0  0  0  0  0  0
  -11.9744   -3.2663  -13.8032 H   0  0  0  0  0  0  0  0  0  0  0  0
   -8.9044   -5.5653  -14.9244 C   0  0  0  0  0  0  0  0  0  0  0  0
   -9.8616   -5.3761  -16.1058 C   0  0  0  0  0  0  0  0  0  0  0  0
   -8.3700   -6.9986  -14.8891 C   0  0  0  0  0  0  0  0  0  0  0  0
   -8.9278   -7.8836  -16.0106 C   0  0  0  0  0  0  0  0  0  0  0  0
  -10.0601   -9.9617  -16.2774 O   0  0  0  0  0  0  0  0  0  0  0  0
   -9.3605   -9.2495  -15.5096 C   0  0  0  0  0  0  0  0  0  0  0  0
   -9.4640   -9.3486  -14.2659 O   0  0  0  0  0  0  0  0  0  0  0  0
   -8.9365   -8.8118  -13.7077 H   0  0  0  0  0  0  0  0  0  0  0  0
  1  2  1  0  0  0
  1 12  1  0  0  0
  2  3  1  0  0  0
  3  4  1  0  0  0
  3  5  1  0  0  0
  5  6  1  0  0  0
  6  7  1  0  0  0
  6 12  1  0  0  0
  7  8  1  0  0  0
  8  9  1  0  0  0
  8 10  1  0  0  0
 10 11  1  0  0  0
 10 17  1  0  0  0
 11 12  1  0  0  0
 11 13  1  0  0  0
 12 22  1  0  0  0
 13 14  1  0  0  0
 14 15  1  0  0  0
 14 16  1  0  0  0
 16 17  1  0  0  0
 16 20  1  0  0  0
 16 21  1  0  0  0
 17 18  1  0  0  0
 18 19  1  0  0  0
 19 20  1  0  0  0
 20 26  1  0  0  0
 26 27  1  0  0  0
 26 28  1  0  0  0
 28 29  1  0  0  0
 29 31  1  0  0  0
 30 31  2  0  0  0
 31 32  1  0  0  0
  4 23  1  0  0  0
  9 24  1  0  0  0
 15 25  1  0  0  0
 32 33  1  0  0  0
M  END
> <minimizedAffinity>
-9.96080

$$$$
3QPS_CHD_A_211


 33 36  0  0  0  0  0  0  0  0999 V2000
  -10.8295    0.6098   -9.4319 C   0  0  0  0  0  0  0  0  0  0  0  0
  -11.5702    1.7420   -8.7409 C   0  0  0  0  0  0  0  0  0  0  0  0
  -11.5687    2.9212   -9.6879 C   0  0  0  0  0  0  0  0  0  0  0  0
  -10.2380    3.4479   -9.7262 O   0  0  0  0  0  0  0  0  0  0  0  0
  -11.9829    2.4554  -11.0839 C   0  0  0  0  0  0  0  0  0  0  0  0
  -12.5848    1.0454  -11.1820 C   0  0  0  0  0  0  0  0  0  0  0  0
  -12.8141    0.7051  -12.6582 C   0  0  0  0  0  0  0  0  0  0  0  0
  -12.9804   -0.7998  -12.8778 C   0  0  0  0  0  0  0  0  0  0  0  0
  -13.3899   -1.0673  -14.2221 O   0  0  0  0  0  0  0  0  0  0  0  0
  -11.6948   -1.5532  -12.5097 C   0  0  0  0  0  0  0  0  0  0  0  0
  -10.8674   -0.6965  -11.5540 C   0  0  0  0  0  0  0  0  0  0  0  0
  -11.7254   -0.0154  -10.4922 C   0  0  0  0  0  0  0  0  0  0  0  0
   -9.7371   -1.5220  -10.9451 C   0  0  0  0  0  0  0  0  0  0  0  0
   -8.7723   -2.0936  -12.0043 C   0  0  0  0  0  0  0  0  0  0  0  0
   -7.7461   -1.1497  -12.3874 O   0  0  0  0  0  0  0  0  0  0  0  0
   -9.5336   -2.7226  -13.1982 C   0  0  0  0  0  0  0  0  0  0  0  0
  -10.7456   -1.9119  -13.6568 C   0  0  0  0  0  0  0  0  0  0  0  0
  -11.2466   -2.7564  -14.8221 C   0  0  0  0  0  0  0  0  0  0  0  0
   -9.9294   -3.1917  -15.4951 C   0  0  0  0  0  0  0  0  0  0  0  0
   -8.7849   -2.8759  -14.5231 C   0  0  0  0  0  0  0  0  0  0  0  0
  -10.0207   -4.1156  -12.7949 C   0  0  0  0  0  0  0  0  0  0  0  0
  -12.6326   -1.0310   -9.7921 C   0  0  0  0  0  0  0  0  0  0  0  0
   -9.6256    2.7578  -10.0253 H   0  0  0  0  0  0  0  0  0  0  0  0
  -12.7080   -0.7532  -14.8364 H   0  0  0  0  0  0  0  0  0  0  0  0
   -8.1566   -0.3808  -12.8131 H   0  0  0  0  0  0  0  0  0  0  0  0
   -7.7017   -3.9610  -14.5286 C   0  0  0  0  0  0  0  0  0  0  0  0
   -6.2932   -3.3683  -14.6412 C   0  0  0  0  0  0  0  0  0  0  0  0
   -7.9408   -4.9933  -15.6324 C   0  0  0  0  0  0  0  0  0  0  0  0
   -6.6957   -5.2743  -16.4827 C   0  0  0  0  0  0  0  0  0  0  0  0
   -6.0629   -3.8027  -18.2450 O   0  0  0  0  0  0  0  0  0  0  0  0
   -6.8280   -4.7409  -17.8976 C   0  0  0  0  0  0  0  0  0  0  0  0
   -7.9645   -4.8681  -18.4069 O   0  0  0  0  0  0  0  0  0  0  0  0
   -8.5224   -5.5713  -18.1381 H   0  0  0  0  0  0  0  0  0  0  0  0
  1  2  1  0  0  0
  1 12  1  0  0  0
  2  3  1  0  0  0
  3  4  1  0  0  0
  3  5  1  0  0  0
  5  6  1  0  0  0
  6  7  1  0  0  0
  6 12  1  0  0  0
  7  8  1  0  0  0
  8  9  1  0  0  0
  8 10  1  0  0  0
 10 11  1  0  0  0
 10 17  1  0  0  0
 11 12  1  0  0  0
 11 13  1  0  0  0
 12 22  1  0  0  0
 13 14  1  0  0  0
 14 15  1  0  0  0
 14 16  1  0  0  0
 16 17  1  0  0  0
 16 20  1  0  0  0
 16 21  1  0  0  0
 17 18  1  0  0  0
 18 19  1  0  0  0
 19 20  1  0  0  0
 20 26  1  0  0  0
 26 27  1  0  0  0
 26 28  1  0  0  0
 28 29  1  0  0  0
 29 31  1  0  0  0
 30 31  2  0  0  0
 31 32  1  0  0  0
  4 23  1  0  0  0
  9 24  1  0  0  0
 15 25  1  0  0  0
 32 33  1  0  0  0
M  END
> <minimizedAffinity>
-9.79798

$$$$
3QPS_CHD_A_211


 33 36  0  0  0  0  0  0  0  0999 V2000
  -11.8373    0.7386  -11.8998 C   0  0  0  0  0  0  0  0  0  0  0  0
  -12.6258    1.7222  -11.0520 C   0  0  0  0  0  0  0  0  0  0  0  0
  -13.7900    0.9645  -10.4540 C   0  0  0  0  0  0  0  0  0  0  0  0
  -14.7243    0.6995  -11.5058 O   0  0  0  0  0  0  0  0  0  0  0  0
  -13.2906   -0.3526   -9.8594 C   0  0  0  0  0  0  0  0  0  0  0  0
  -11.7688   -0.5000   -9.7101 C   0  0  0  0  0  0  0  0  0  0  0  0
  -11.4526   -1.9192   -9.2268 C   0  0  0  0  0  0  0  0  0  0  0  0
   -9.9903   -2.2942   -9.4752 C   0  0  0  0  0  0  0  0  0  0  0  0
   -9.6767   -3.5360   -8.8380 O   0  0  0  0  0  0  0  0  0  0  0  0
   -9.6801   -2.3269  -10.9781 C   0  0  0  0  0  0  0  0  0  0  0  0
  -10.7073   -1.4756  -11.7210 C   0  0  0  0  0  0  0  0  0  0  0  0
  -11.0118   -0.1677  -10.9970 C   0  0  0  0  0  0  0  0  0  0  0  0
  -10.2654   -1.2506  -13.1646 C   0  0  0  0  0  0  0  0  0  0  0  0
  -10.0990   -2.5654  -13.9541 C   0  0  0  0  0  0  0  0  0  0  0  0
  -11.3460   -3.0396  -14.5119 O   0  0  0  0  0  0  0  0  0  0  0  0
   -9.3211   -3.6312  -13.1419 C   0  0  0  0  0  0  0  0  0  0  0  0
   -9.7143   -3.6948  -11.6661 C   0  0  0  0  0  0  0  0  0  0  0  0
   -8.8168   -4.8200  -11.1658 C   0  0  0  0  0  0  0  0  0  0  0  0
   -8.8735   -5.8227  -12.3357 C   0  0  0  0  0  0  0  0  0  0  0  0
   -9.4932   -5.0985  -13.5382 C   0  0  0  0  0  0  0  0  0  0  0  0
   -7.8258   -3.3182  -13.2206 C   0  0  0  0  0  0  0  0  0  0  0  0
   -9.7190    0.5763  -10.6510 C   0  0  0  0  0  0  0  0  0  0  0  0
  -14.2897    0.1817  -12.2015 H   0  0  0  0  0  0  0  0  0  0  0  0
  -10.2293   -4.2400   -9.2120 H   0  0  0  0  0  0  0  0  0  0  0  0
  -11.9601   -3.2564  -13.7930 H   0  0  0  0  0  0  0  0  0  0  0  0
   -8.8241   -5.4908  -14.8609 C   0  0  0  0  0  0  0  0  0  0  0  0
   -9.8475   -5.7237  -15.9772 C   0  0  0  0  0  0  0  0  0  0  0  0
   -7.9197   -6.7140  -14.6962 C   0  0  0  0  0  0  0  0  0  0  0  0
   -6.5509   -6.5536  -15.3692 C   0  0  0  0  0  0  0  0  0  0  0  0
   -6.7028   -5.8887  -17.6509 O   0  0  0  0  0  0  0  0  0  0  0  0
   -6.5966   -6.8592  -16.8552 C   0  0  0  0  0  0  0  0  0  0  0  0
   -7.0528   -7.9872  -17.1497 O   0  0  0  0  0  0  0  0  0  0  0  0
   -6.9661   -8.6995  -16.5471 H   0  0  0  0  0  0  0  0  0  0  0  0
  1  2  1  0  0  0
  1 12  1  0  0  0
  2  3  1  0  0  0
  3  4  1  0  0  0
  3  5  1  0  0  0
  5  6  1  0  0  0
  6  7  1  0  0  0
  6 12  1  0  0  0
  7  8  1  0  0  0
  8  9  1  0  0  0
  8 10  1  0  0  0
 10 11  1  0  0  0
 10 17  1  0  0  0
 11 12  1  0  0  0
 11 13  1  0  0  0
 12 22  1  0  0  0
 13 14  1  0  0  0
 14 15  1  0  0  0
 14 16  1  0  0  0
 16 17  1  0  0  0
 16 20  1  0  0  0
 16 21  1  0  0  0
 17 18  1  0  0  0
 18 19  1  0  0  0
 19 20  1  0  0  0
 20 26  1  0  0  0
 26 27  1  0  0  0
 26 28  1  0  0  0
 28 29  1  0  0  0
 29 31  1  0  0  0
 30 31  2  0  0  0
 31 32  1  0  0  0
  4 23  1  0  0  0
  9 24  1  0  0  0
 15 25  1  0  0  0
 32 33  1  0  0  0
M  END
> <minimizedAffinity>
-9.76683

$$$$
3QPS_CHD_A_211


 33 36  0  0  0  0  0  0  0  0999 V2000
  -10.3591    0.5316   -9.3292 C   0  0  0  0  0  0  0  0  0  0  0  0
  -10.8753    1.6529   -8.4438 C   0  0  0  0  0  0  0  0  0  0  0  0
  -10.8935    2.9120   -9.2814 C   0  0  0  0  0  0  0  0  0  0  0  0
   -9.5366    3.3231   -9.4801 O   0  0  0  0  0  0  0  0  0  0  0  0
  -11.5497    2.6183  -10.6307 C   0  0  0  0  0  0  0  0  0  0  0  0
  -12.2969    1.2813  -10.7491 C   0  0  0  0  0  0  0  0  0  0  0  0
  -12.7702    1.1036  -12.1956 C   0  0  0  0  0  0  0  0  0  0  0  0
  -13.1157   -0.3537  -12.5081 C   0  0  0  0  0  0  0  0  0  0  0  0
  -13.7400   -0.4561  -13.7911 O   0  0  0  0  0  0  0  0  0  0  0  0
  -11.8718   -1.2469  -12.4031 C   0  0  0  0  0  0  0  0  0  0  0  0
  -10.8336   -0.5594  -11.5192 C   0  0  0  0  0  0  0  0  0  0  0  0
  -11.4568    0.0896  -10.2871 C   0  0  0  0  0  0  0  0  0  0  0  0
   -9.7150   -1.5334  -11.1591 C   0  0  0  0  0  0  0  0  0  0  0  0
   -8.9755   -2.0833  -12.3961 C   0  0  0  0  0  0  0  0  0  0  0  0
   -7.9267   -1.1995  -12.8542 O   0  0  0  0  0  0  0  0  0  0  0  0
   -9.9604   -2.5281  -13.5064 C   0  0  0  0  0  0  0  0  0  0  0  0
  -11.1392   -1.5758  -13.7071 C   0  0  0  0  0  0  0  0  0  0  0  0
  -11.8852   -2.2595  -14.8465 C   0  0  0  0  0  0  0  0  0  0  0  0
  -10.7293   -2.7412  -15.7461 C   0  0  0  0  0  0  0  0  0  0  0  0
   -9.4305   -2.6191  -14.9383 C   0  0  0  0  0  0  0  0  0  0  0  0
  -10.5203   -3.9057  -13.1473 C   0  0  0  0  0  0  0  0  0  0  0  0
  -12.3497   -0.9056   -9.5408 C   0  0  0  0  0  0  0  0  0  0  0  0
   -9.0457    2.6140   -9.9243 H   0  0  0  0  0  0  0  0  0  0  0  0
  -13.1264   -0.1453  -14.4750 H   0  0  0  0  0  0  0  0  0  0  0  0
   -8.3158   -0.3612  -13.1485 H   0  0  0  0  0  0  0  0  0  0  0  0
   -8.4730   -3.7884  -15.1972 C   0  0  0  0  0  0  0  0  0  0  0  0
   -7.0439   -3.3115  -15.4767 C   0  0  0  0  0  0  0  0  0  0  0  0
   -8.9715   -4.6874  -16.3305 C   0  0  0  0  0  0  0  0  0  0  0  0
   -9.3954   -6.0836  -15.8578 C   0  0  0  0  0  0  0  0  0  0  0  0
   -7.3634   -7.1661  -15.2488 O   0  0  0  0  0  0  0  0  0  0  0  0
   -8.4394   -6.6624  -14.8308 C   0  0  0  0  0  0  0  0  0  0  0  0
   -8.9789   -7.0757  -13.7794 O   0  0  0  0  0  0  0  0  0  0  0  0
   -9.7795   -6.6909  -13.4811 H   0  0  0  0  0  0  0  0  0  0  0  0
  1  2  1  0  0  0
  1 12  1  0  0  0
  2  3  1  0  0  0
  3  4  1  0  0  0
  3  5  1  0  0  0
  5  6  1  0  0  0
  6  7  1  0  0  0
  6 12  1  0  0  0
  7  8  1  0  0  0
  8  9  1  0  0  0
  8 10  1  0  0  0
 10 11  1  0  0  0
 10 17  1  0  0  0
 11 12  1  0  0  0
 11 13  1  0  0  0
 12 22  1  0  0  0
 13 14  1  0  0  0
 14 15  1  0  0  0
 14 16  1  0  0  0
 16 17  1  0  0  0
 16 20  1  0  0  0
 16 21  1  0  0  0
 17 18  1  0  0  0
 18 19  1  0  0  0
 19 20  1  0  0  0
 20 26  1  0  0  0
 26 27  1  0  0  0
 26 28  1  0  0  0
 28 29  1  0  0  0
 29 31  1  0  0  0
 30 31  2  0  0  0
 31 32  1  0  0  0
  4 23  1  0  0  0
  9 24  1  0  0  0
 15 25  1  0  0  0
 32 33  1  0  0  0
M  END
> <minimizedAffinity>
-9.69727

$$$$
3QPS_CHD_A_211


 33 36  0  0  0  0  0  0  0  0999 V2000
   -6.8556   -3.9493  -16.2318 C   0  0  0  0  0  0  0  0  0  0  0  0
   -6.4767   -4.5703  -17.5654 C   0  0  0  0  0  0  0  0  0  0  0  0
   -7.2674   -5.8522  -17.7028 C   0  0  0  0  0  0  0  0  0  0  0  0
   -6.7138   -6.8059  -16.7898 O   0  0  0  0  0  0  0  0  0  0  0  0
   -8.7322   -5.5886  -17.3530 C   0  0  0  0  0  0  0  0  0  0  0  0
   -9.1532   -4.1151  -17.2451 C   0  0  0  0  0  0  0  0  0  0  0  0
  -10.6059   -4.0479  -16.7626 C   0  0  0  0  0  0  0  0  0  0  0  0
  -10.9596   -2.6670  -16.2071 C   0  0  0  0  0  0  0  0  0  0  0  0
  -12.3643   -2.5743  -15.9532 O   0  0  0  0  0  0  0  0  0  0  0  0
  -10.1289   -2.3500  -14.9560 C   0  0  0  0  0  0  0  0  0  0  0  0
   -8.8675   -3.2106  -14.9599 C   0  0  0  0  0  0  0  0  0  0  0  0
   -8.2275   -3.2985  -16.3419 C   0  0  0  0  0  0  0  0  0  0  0  0
   -7.8879   -2.7209  -13.8966 C   0  0  0  0  0  0  0  0  0  0  0  0
   -8.4746   -2.7695  -12.4708 C   0  0  0  0  0  0  0  0  0  0  0  0
   -8.3376   -4.0722  -11.8583 O   0  0  0  0  0  0  0  0  0  0  0  0
   -9.9112   -2.1915  -12.4183 C   0  0  0  0  0  0  0  0  0  0  0  0
  -10.7898   -2.6063  -13.5984 C   0  0  0  0  0  0  0  0  0  0  0  0
  -12.1033   -1.9169  -13.2501 C   0  0  0  0  0  0  0  0  0  0  0  0
  -12.1845   -2.1285  -11.7250 C   0  0  0  0  0  0  0  0  0  0  0  0
  -10.8057   -2.6038  -11.2482 C   0  0  0  0  0  0  0  0  0  0  0  0
   -9.8290   -0.6640  -12.4030 C   0  0  0  0  0  0  0  0  0  0  0  0
   -8.0314   -1.9028  -16.9405 C   0  0  0  0  0  0  0  0  0  0  0  0
   -6.7665   -6.4570  -15.8863 H   0  0  0  0  0  0  0  0  0  0  0  0
  -12.6168   -3.2334  -15.2877 H   0  0  0  0  0  0  0  0  0  0  0  0
   -8.8522   -4.7221  -12.3620 H   0  0  0  0  0  0  0  0  0  0  0  0
  -10.4172   -1.9955   -9.8953 C   0  0  0  0  0  0  0  0  0  0  0  0
   -9.9069   -3.0548   -8.9128 C   0  0  0  0  0  0  0  0  0  0  0  0
  -11.5714   -1.2020   -9.2795 C   0  0  0  0  0  0  0  0  0  0  0  0
  -11.2525    0.2858   -9.0871 C   0  0  0  0  0  0  0  0  0  0  0  0
  -13.3917    0.8626   -9.9605 O   0  0  0  0  0  0  0  0  0  0  0  0
  -12.1761    1.1846   -9.8888 C   0  0  0  0  0  0  0  0  0  0  0  0
  -11.6228    1.8228  -10.8128 O   0  0  0  0  0  0  0  0  0  0  0  0
  -10.7176    2.0552  -10.7450 H   0  0  0  0  0  0  0  0  0  0  0  0
  1  2  1  0  0  0
  1 12  1  0  0  0
  2  3  1  0  0  0
  3  4  1  0  0  0
  3  5  1  0  0  0
  5  6  1  0  0  0
  6  7  1  0  0  0
  6 12  1  0  0  0
  7  8  1  0  0  0
  8  9  1  0  0  0
  8 10  1  0  0  0
 10 11  1  0  0  0
 10 17  1  0  0  0
 11 12  1  0  0  0
 11 13  1  0  0  0
 12 22  1  0  0  0
 13 14  1  0  0  0
 14 15  1  0  0  0
 14 16  1  0  0  0
 16 17  1  0  0  0
 16 20  1  0  0  0
 16 21  1  0  0  0
 17 18  1  0  0  0
 18 19  1  0  0  0
 19 20  1  0  0  0
 20 26  1  0  0  0
 26 27  1  0  0  0
 26 28  1  0  0  0
 28 29  1  0  0  0
 29 31  1  0  0  0
 30 31  2  0  0  0
 31 32  1  0  0  0
  4 23  1  0  0  0
  9 24  1  0  0  0
 15 25  1  0  0  0
 32 33  1  0  0  0
M  END
> <minimizedAffinity>
-9.42573

$$$$
3QPS_CHD_A_211


 33 36  0  0  0  0  0  0  0  0999 V2000
   -9.2907   -5.2116  -15.3834 C   0  0  0  0  0  0  0  0  0  0  0  0
   -8.6302   -5.8668  -16.5843 C   0  0  0  0  0  0  0  0  0  0  0  0
   -8.1831   -4.7573  -17.5098 C   0  0  0  0  0  0  0  0  0  0  0  0
   -9.3531   -4.1954  -18.1138 O   0  0  0  0  0  0  0  0  0  0  0  0
   -7.4491   -3.6851  -16.7041 C   0  0  0  0  0  0  0  0  0  0  0  0
   -7.0553   -4.0614  -15.2677 C   0  0  0  0  0  0  0  0  0  0  0  0
   -6.4544   -2.8314  -14.5793 C   0  0  0  0  0  0  0  0  0  0  0  0
   -6.4502   -2.9749  -13.0562 C   0  0  0  0  0  0  0  0  0  0  0  0
   -5.7071   -1.9104  -12.4552 O   0  0  0  0  0  0  0  0  0  0  0  0
   -7.8819   -3.0546  -12.5089 C   0  0  0  0  0  0  0  0  0  0  0  0
   -8.8206   -3.5104  -13.6238 C   0  0  0  0  0  0  0  0  0  0  0  0
   -8.2231   -4.6352  -14.4637 C   0  0  0  0  0  0  0  0  0  0  0  0
  -10.1868   -3.8771  -13.0502 C   0  0  0  0  0  0  0  0  0  0  0  0
  -10.8700   -2.6993  -12.3253 C   0  0  0  0  0  0  0  0  0  0  0  0
  -11.5908   -1.8328  -13.2311 O   0  0  0  0  0  0  0  0  0  0  0  0
   -9.8909   -1.9570  -11.3813 C   0  0  0  0  0  0  0  0  0  0  0  0
   -8.4938   -1.7586  -11.9690 C   0  0  0  0  0  0  0  0  0  0  0  0
   -7.8003   -1.0022  -10.8427 C   0  0  0  0  0  0  0  0  0  0  0  0
   -8.9102   -0.0439  -10.3661 C   0  0  0  0  0  0  0  0  0  0  0  0
  -10.2315   -0.5197  -10.9844 C   0  0  0  0  0  0  0  0  0  0  0  0
   -9.7504   -2.7584  -10.0858 C   0  0  0  0  0  0  0  0  0  0  0  0
   -7.7182   -5.7719  -13.5706 C   0  0  0  0  0  0  0  0  0  0  0  0
   -9.9438   -3.8580  -17.4223 H   0  0  0  0  0  0  0  0  0  0  0  0
   -6.1257   -1.0622  -12.6704 H   0  0  0  0  0  0  0  0  0  0  0  0
  -10.9668   -1.4182  -13.8472 H   0  0  0  0  0  0  0  0  0  0  0  0
  -11.4103   -0.3821  -10.0135 C   0  0  0  0  0  0  0  0  0  0  0  0
  -12.6534    0.1988  -10.6955 C   0  0  0  0  0  0  0  0  0  0  0  0
  -11.0355    0.4459   -8.7826 C   0  0  0  0  0  0  0  0  0  0  0  0
  -11.6306    1.8594   -8.7960 C   0  0  0  0  0  0  0  0  0  0  0  0
  -10.5282    3.3270  -10.3134 O   0  0  0  0  0  0  0  0  0  0  0  0
  -10.5957    2.9204   -9.1233 C   0  0  0  0  0  0  0  0  0  0  0  0
   -9.5856    2.9203   -8.3838 O   0  0  0  0  0  0  0  0  0  0  0  0
   -9.6516    2.6147   -7.5005 H   0  0  0  0  0  0  0  0  0  0  0  0
  1  2  1  0  0  0
  1 12  1  0  0  0
  2  3  1  0  0  0
  3  4  1  0  0  0
  3  5  1  0  0  0
  5  6  1  0  0  0
  6  7  1  0  0  0
  6 12  1  0  0  0
  7  8  1  0  0  0
  8  9  1  0  0  0
  8 10  1  0  0  0
 10 11  1  0  0  0
 10 17  1  0  0  0
 11 12  1  0  0  0
 11 13  1  0  0  0
 12 22  1  0  0  0
 13 14  1  0  0  0
 14 15  1  0  0  0
 14 16  1  0  0  0
 16 17  1  0  0  0
 16 20  1  0  0  0
 16 21  1  0  0  0
 17 18  1  0  0  0
 18 19  1  0  0  0
 19 20  1  0  0  0
 20 26  1  0  0  0
 26 27  1  0  0  0
 26 28  1  0  0  0
 28 29  1  0  0  0
 29 31  1  0  0  0
 30 31  2  0  0  0
 31 32  1  0  0  0
  4 23  1  0  0  0
  9 24  1  0  0  0
 15 25  1  0  0  0
 32 33  1  0  0  0
M  END
> <minimizedAffinity>
-9.37323

$$$$
3QPS_CHD_A_211


 33 36  0  0  0  0  0  0  0  0999 V2000
   -7.5212   -7.7913  -13.7390 C   0  0  0  0  0  0  0  0  0  0  0  0
   -7.3621   -9.0108  -14.6309 C   0  0  0  0  0  0  0  0  0  0  0  0
   -8.7510   -9.4616  -15.0243 C   0  0  0  0  0  0  0  0  0  0  0  0
   -9.3634  -10.0454  -13.8694 O   0  0  0  0  0  0  0  0  0  0  0  0
   -9.5666   -8.2554  -15.4904 C   0  0  0  0  0  0  0  0  0  0  0  0
   -8.7812   -6.9615  -15.7533 C   0  0  0  0  0  0  0  0  0  0  0  0
   -9.7705   -5.8381  -16.0805 C   0  0  0  0  0  0  0  0  0  0  0  0
   -9.1379   -4.4548  -15.9166 C   0  0  0  0  0  0  0  0  0  0  0  0
  -10.0140   -3.4411  -16.4179 O   0  0  0  0  0  0  0  0  0  0  0  0
   -8.7452   -4.2010  -14.4546 C   0  0  0  0  0  0  0  0  0  0  0  0
   -8.5904   -5.5400  -13.7371 C   0  0  0  0  0  0  0  0  0  0  0  0
   -7.8657   -6.5767  -14.5900 C   0  0  0  0  0  0  0  0  0  0  0  0
   -7.9258   -5.3396  -12.3777 C   0  0  0  0  0  0  0  0  0  0  0  0
   -8.7295   -4.4083  -11.4471 C   0  0  0  0  0  0  0  0  0  0  0  0
   -9.7705   -5.1071  -10.7266 O   0  0  0  0  0  0  0  0  0  0  0  0
   -9.2135   -3.1342  -12.1842 C   0  0  0  0  0  0  0  0  0  0  0  0
   -9.7276   -3.3948  -13.6000 C   0  0  0  0  0  0  0  0  0  0  0  0
  -10.1375   -1.9923  -14.0321 C   0  0  0  0  0  0  0  0  0  0  0  0
  -10.7749   -1.4313  -12.7451 C   0  0  0  0  0  0  0  0  0  0  0  0
  -10.4018   -2.3738  -11.5933 C   0  0  0  0  0  0  0  0  0  0  0  0
   -8.0501   -2.1453  -12.2773 C   0  0  0  0  0  0  0  0  0  0  0  0
   -6.5540   -6.0088  -15.1391 C   0  0  0  0  0  0  0  0  0  0  0  0
   -9.3972   -9.3899  -13.1552 H   0  0  0  0  0  0  0  0  0  0  0  0
  -10.8411   -3.4490  -15.9113 H   0  0  0  0  0  0  0  0  0  0  0  0
  -10.4222   -5.4540  -11.3558 H   0  0  0  0  0  0  0  0  0  0  0  0
  -10.0994   -1.6147  -10.2958 C   0  0  0  0  0  0  0  0  0  0  0  0
  -10.7867   -2.2505   -9.0829 C   0  0  0  0  0  0  0  0  0  0  0  0
  -10.4677   -0.1338  -10.4080 C   0  0  0  0  0  0  0  0  0  0  0  0
   -9.2852    0.8084  -10.1504 C   0  0  0  0  0  0  0  0  0  0  0  0
  -10.5780    1.6041   -8.3155 O   0  0  0  0  0  0  0  0  0  0  0  0
   -9.4451    1.6007   -8.8657 C   0  0  0  0  0  0  0  0  0  0  0  0
   -8.6659    2.5728   -8.7431 O   0  0  0  0  0  0  0  0  0  0  0  0
   -7.8262    2.5555   -9.1585 H   0  0  0  0  0  0  0  0  0  0  0  0
  1  2  1  0  0  0
  1 12  1  0  0  0
  2  3  1  0  0  0
  3  4  1  0  0  0
  3  5  1  0  0  0
  5  6  1  0  0  0
  6  7  1  0  0  0
  6 12  1  0  0  0
  7  8  1  0  0  0
  8  9  1  0  0  0
  8 10  1  0  0  0
 10 11  1  0  0  0
 10 17  1  0  0  0
 11 12  1  0  0  0
 11 13  1  0  0  0
 12 22  1  0  0  0
 13 14  1  0  0  0
 14 15  1  0  0  0
 14 16  1  0  0  0
 16 17  1  0  0  0
 16 20  1  0  0  0
 16 21  1  0  0  0
 17 18  1  0  0  0
 18 19  1  0  0  0
 19 20  1  0  0  0
 20 26  1  0  0  0
 26 27  1  0  0  0
 26 28  1  0  0  0
 28 29  1  0  0  0
 29 31  1  0  0  0
 30 31  2  0  0  0
 31 32  1  0  0  0
  4 23  1  0  0  0
  9 24  1  0  0  0
 15 25  1  0  0  0
 32 33  1  0  0  0
M  END
> <minimizedAffinity>
-9.15444

$$$$
3QPS_CHD_A_211


 33 36  0  0  0  0  0  0  0  0999 V2000
  -10.4367    0.8026  -11.1153 C   0  0  0  0  0  0  0  0  0  0  0  0
  -10.9859    1.8016  -10.1111 C   0  0  0  0  0  0  0  0  0  0  0  0
  -12.3050    1.2553   -9.6124 C   0  0  0  0  0  0  0  0  0  0  0  0
  -13.2582    1.3815  -10.6731 O   0  0  0  0  0  0  0  0  0  0  0  0
  -12.1386   -0.2173   -9.2367 C   0  0  0  0  0  0  0  0  0  0  0  0
  -10.6965   -0.7385   -9.1428 C   0  0  0  0  0  0  0  0  0  0  0  0
  -10.7302   -2.2492   -8.8889 C   0  0  0  0  0  0  0  0  0  0  0  0
   -9.3930   -2.9138   -9.2215 C   0  0  0  0  0  0  0  0  0  0  0  0
   -9.3901   -4.2772   -8.7883 O   0  0  0  0  0  0  0  0  0  0  0  0
   -9.0748   -2.7873  -10.7177 C   0  0  0  0  0  0  0  0  0  0  0  0
   -9.8612   -1.6152  -11.3005 C   0  0  0  0  0  0  0  0  0  0  0  0
   -9.8618   -0.3994  -10.3788 C   0  0  0  0  0  0  0  0  0  0  0  0
   -9.3553   -1.2813  -12.7014 C   0  0  0  0  0  0  0  0  0  0  0  0
   -9.4894   -2.4612  -13.6859 C   0  0  0  0  0  0  0  0  0  0  0  0
  -10.8036   -2.5384  -14.2841 O   0  0  0  0  0  0  0  0  0  0  0  0
   -8.9968   -3.7913  -13.0625 C   0  0  0  0  0  0  0  0  0  0  0  0
   -9.4179   -3.9867  -11.6061 C   0  0  0  0  0  0  0  0  0  0  0  0
   -8.8179   -5.3540  -11.3022 C   0  0  0  0  0  0  0  0  0  0  0  0
   -9.0893   -6.1237  -12.6104 C   0  0  0  0  0  0  0  0  0  0  0  0
   -9.5020   -5.0986  -13.6750 C   0  0  0  0  0  0  0  0  0  0  0  0
   -7.4687   -3.8293  -13.1228 C   0  0  0  0  0  0  0  0  0  0  0  0
   -8.4363   -0.0414   -9.9495 C   0  0  0  0  0  0  0  0  0  0  0  0
  -12.9461    0.8894  -11.4485 H   0  0  0  0  0  0  0  0  0  0  0  0
  -10.0864   -4.7660   -9.2543 H   0  0  0  0  0  0  0  0  0  0  0  0
  -11.4630   -2.7129  -13.5945 H   0  0  0  0  0  0  0  0  0  0  0  0
   -8.9223   -5.4291  -15.0555 C   0  0  0  0  0  0  0  0  0  0  0  0
   -9.9546   -5.2451  -16.1728 C   0  0  0  0  0  0  0  0  0  0  0  0
   -8.3297   -6.8391  -15.0973 C   0  0  0  0  0  0  0  0  0  0  0  0
   -6.8657   -6.8705  -15.5534 C   0  0  0  0  0  0  0  0  0  0  0  0
   -6.0971   -7.8576  -17.5798 O   0  0  0  0  0  0  0  0  0  0  0  0
   -6.7303   -6.8984  -17.0649 C   0  0  0  0  0  0  0  0  0  0  0  0
   -6.7651   -5.7769  -17.6201 O   0  0  0  0  0  0  0  0  0  0  0  0
   -7.2406   -5.0729  -17.2247 H   0  0  0  0  0  0  0  0  0  0  0  0
  1  2  1  0  0  0
  1 12  1  0  0  0
  2  3  1  0  0  0
  3  4  1  0  0  0
  3  5  1  0  0  0
  5  6  1  0  0  0
  6  7  1  0  0  0
  6 12  1  0  0  0
  7  8  1  0  0  0
  8  9  1  0  0  0
  8 10  1  0  0  0
 10 11  1  0  0  0
 10 17  1  0  0  0
 11 12  1  0  0  0
 11 13  1  0  0  0
 12 22  1  0  0  0
 13 14  1  0  0  0
 14 15  1  0  0  0
 14 16  1  0  0  0
 16 17  1  0  0  0
 16 20  1  0  0  0
 16 21  1  0  0  0
 17 18  1  0  0  0
 18 19  1  0  0  0
 19 20  1  0  0  0
 20 26  1  0  0  0
 26 27  1  0  0  0
 26 28  1  0  0  0
 28 29  1  0  0  0
 29 31  1  0  0  0
 30 31  2  0  0  0
 31 32  1  0  0  0
  4 23  1  0  0  0
  9 24  1  0  0  0
 15 25  1  0  0  0
 32 33  1  0  0  0
M  END
> <minimizedAffinity>
-9.13865

$$$$
3QPS_CHD_A_211


 33 36  0  0  0  0  0  0  0  0999 V2000
  -11.3078   -0.6697  -10.5036 C   0  0  0  0  0  0  0  0  0  0  0  0
  -12.1685    0.2835   -9.6921 C   0  0  0  0  0  0  0  0  0  0  0  0
  -12.1445    1.6203  -10.3991 C   0  0  0  0  0  0  0  0  0  0  0  0
  -10.8463    2.1922  -10.2062 O   0  0  0  0  0  0  0  0  0  0  0  0
  -12.4038    1.4132  -11.8915 C   0  0  0  0  0  0  0  0  0  0  0  0
  -12.9171    0.0267  -12.3088 C   0  0  0  0  0  0  0  0  0  0  0  0
  -12.9921   -0.0354  -13.8379 C   0  0  0  0  0  0  0  0  0  0  0  0
  -13.0560   -1.4763  -14.3481 C   0  0  0  0  0  0  0  0  0  0  0  0
  -13.3261   -1.4985  -15.7527 O   0  0  0  0  0  0  0  0  0  0  0  0
  -11.7705   -2.2392  -13.9996 C   0  0  0  0  0  0  0  0  0  0  0  0
  -11.0813   -1.5501  -12.8241 C   0  0  0  0  0  0  0  0  0  0  0  0
  -12.0682   -1.1141  -11.7454 C   0  0  0  0  0  0  0  0  0  0  0  0
   -9.9682   -2.4349  -12.2690 C   0  0  0  0  0  0  0  0  0  0  0  0
   -8.8813   -2.7601  -13.3142 C   0  0  0  0  0  0  0  0  0  0  0  0
   -7.8770   -1.7244  -13.4114 O   0  0  0  0  0  0  0  0  0  0  0  0
   -9.4955   -3.1782  -14.6739 C   0  0  0  0  0  0  0  0  0  0  0  0
  -10.7026   -2.3393  -15.0929 C   0  0  0  0  0  0  0  0  0  0  0  0
  -11.0488   -2.9648  -16.4385 C   0  0  0  0  0  0  0  0  0  0  0  0
   -9.6542   -3.2169  -17.0458 C   0  0  0  0  0  0  0  0  0  0  0  0
   -8.6219   -3.0503  -15.9228 C   0  0  0  0  0  0  0  0  0  0  0  0
   -9.9412   -4.6390  -14.5865 C   0  0  0  0  0  0  0  0  0  0  0  0
  -12.9792   -2.2760  -11.3397 C   0  0  0  0  0  0  0  0  0  0  0  0
  -10.1727    1.5938  -10.5654 H   0  0  0  0  0  0  0  0  0  0  0  0
  -12.6091   -1.0492  -16.2270 H   0  0  0  0  0  0  0  0  0  0  0  0
   -8.2880   -0.9040  -13.7260 H   0  0  0  0  0  0  0  0  0  0  0  0
   -7.4855   -4.0750  -16.0214 C   0  0  0  0  0  0  0  0  0  0  0  0
   -6.9089   -4.4295  -14.6467 C   0  0  0  0  0  0  0  0  0  0  0  0
   -6.3771   -3.6016  -16.9640 C   0  0  0  0  0  0  0  0  0  0  0  0
   -5.6744   -2.3256  -16.4843 C   0  0  0  0  0  0  0  0  0  0  0  0
   -4.5967   -0.6131  -17.7403 O   0  0  0  0  0  0  0  0  0  0  0  0
   -5.6741   -1.2334  -17.5382 C   0  0  0  0  0  0  0  0  0  0  0  0
   -6.7813   -0.6810  -17.7282 O   0  0  0  0  0  0  0  0  0  0  0  0
   -7.5743   -1.1555  -17.5734 H   0  0  0  0  0  0  0  0  0  0  0  0
  1  2  1  0  0  0
  1 12  1  0  0  0
  2  3  1  0  0  0
  3  4  1  0  0  0
  3  5  1  0  0  0
  5  6  1  0  0  0
  6  7  1  0  0  0
  6 12  1  0  0  0
  7  8  1  0  0  0
  8  9  1  0  0  0
  8 10  1  0  0  0
 10 11  1  0  0  0
 10 17  1  0  0  0
 11 12  1  0  0  0
 11 13  1  0  0  0
 12 22  1  0  0  0
 13 14  1  0  0  0
 14 15  1  0  0  0
 14 16  1  0  0  0
 16 17  1  0  0  0
 16 20  1  0  0  0
 16 21  1  0  0  0
 17 18  1  0  0  0
 18 19  1  0  0  0
 19 20  1  0  0  0
 20 26  1  0  0  0
 26 27  1  0  0  0
 26 28  1  0  0  0
 28 29  1  0  0  0
 29 31  1  0  0  0
 30 31  2  0  0  0
 31 32  1  0  0  0
  4 23  1  0  0  0
  9 24  1  0  0  0
 15 25  1  0  0  0
 32 33  1  0  0  0
M  END
> <minimizedAffinity>
-9.07844

$$$$
3QPS_CHD_A_211


 33 36  0  0  0  0  0  0  0  0999 V2000
   -6.4262   -6.3916  -16.0423 C   0  0  0  0  0  0  0  0  0  0  0  0
   -6.6651   -7.1152  -17.3566 C   0  0  0  0  0  0  0  0  0  0  0  0
   -8.0194   -7.7816  -17.2607 C   0  0  0  0  0  0  0  0  0  0  0  0
   -7.8987   -8.8863  -16.3582 O   0  0  0  0  0  0  0  0  0  0  0  0
   -9.0435   -6.7817  -16.7231 C   0  0  0  0  0  0  0  0  0  0  0  0
   -8.6053   -5.3098  -16.6861 C   0  0  0  0  0  0  0  0  0  0  0  0
   -9.6992   -4.4832  -16.0020 C   0  0  0  0  0  0  0  0  0  0  0  0
   -9.1760   -3.1268  -15.5258 C   0  0  0  0  0  0  0  0  0  0  0  0
  -10.2560   -2.3034  -15.0763 O   0  0  0  0  0  0  0  0  0  0  0  0
   -8.1009   -3.3026  -14.4445 C   0  0  0  0  0  0  0  0  0  0  0  0
   -7.4992   -4.7015  -14.5580 C   0  0  0  0  0  0  0  0  0  0  0  0
   -7.2496   -5.1116  -16.0061 C   0  0  0  0  0  0  0  0  0  0  0  0
   -6.2419   -4.8094  -13.6992 C   0  0  0  0  0  0  0  0  0  0  0  0
   -6.5108   -4.5434  -12.2038 C   0  0  0  0  0  0  0  0  0  0  0  0
   -6.9723   -5.7219  -11.5045 O   0  0  0  0  0  0  0  0  0  0  0  0
   -7.3983   -3.2912  -11.9912 C   0  0  0  0  0  0  0  0  0  0  0  0
   -8.5522   -3.1730  -12.9867 C   0  0  0  0  0  0  0  0  0  0  0  0
   -9.2276   -1.8926  -12.5111 C   0  0  0  0  0  0  0  0  0  0  0  0
   -9.1428   -2.0332  -10.9779 C   0  0  0  0  0  0  0  0  0  0  0  0
   -8.1585   -3.1692  -10.6697 C   0  0  0  0  0  0  0  0  0  0  0  0
   -6.5278   -2.0402  -12.1246 C   0  0  0  0  0  0  0  0  0  0  0  0
   -6.4591   -4.0311  -16.7491 C   0  0  0  0  0  0  0  0  0  0  0  0
   -7.6042   -8.5652  -15.4915 H   0  0  0  0  0  0  0  0  0  0  0  0
  -10.6966   -2.7299  -14.3247 H   0  0  0  0  0  0  0  0  0  0  0  0
   -7.8288   -5.9981  -11.8666 H   0  0  0  0  0  0  0  0  0  0  0  0
   -7.2825   -2.8638   -9.4488 C   0  0  0  0  0  0  0  0  0  0  0  0
   -7.4547   -3.9080   -8.3407 C   0  0  0  0  0  0  0  0  0  0  0  0
   -7.5390   -1.4563   -8.9065 C   0  0  0  0  0  0  0  0  0  0  0  0
   -6.2642   -0.7422   -8.4404 C   0  0  0  0  0  0  0  0  0  0  0  0
   -7.0009    1.4146   -9.1311 O   0  0  0  0  0  0  0  0  0  0  0  0
   -6.0532    0.5853   -9.1456 C   0  0  0  0  0  0  0  0  0  0  0  0
   -5.2357    0.5570  -10.0933 O   0  0  0  0  0  0  0  0  0  0  0  0
   -4.5358   -0.0660  -10.0898 H   0  0  0  0  0  0  0  0  0  0  0  0
  1  2  1  0  0  0
  1 12  1  0  0  0
  2  3  1  0  0  0
  3  4  1  0  0  0
  3  5  1  0  0  0
  5  6  1  0  0  0
  6  7  1  0  0  0
  6 12  1  0  0  0
  7  8  1  0  0  0
  8  9  1  0  0  0
  8 10  1  0  0  0
 10 11  1  0  0  0
 10 17  1  0  0  0
 11 12  1  0  0  0
 11 13  1  0  0  0
 12 22  1  0  0  0
 13 14  1  0  0  0
 14 15  1  0  0  0
 14 16  1  0  0  0
 16 17  1  0  0  0
 16 20  1  0  0  0
 16 21  1  0  0  0
 17 18  1  0  0  0
 18 19  1  0  0  0
 19 20  1  0  0  0
 20 26  1  0  0  0
 26 27  1  0  0  0
 26 28  1  0  0  0
 28 29  1  0  0  0
 29 31  1  0  0  0
 30 31  2  0  0  0
 31 32  1  0  0  0
  4 23  1  0  0  0
  9 24  1  0  0  0
 15 25  1  0  0  0
 32 33  1  0  0  0
M  END
> <minimizedAffinity>
-9.01774

$$$$
