1E6Q_NTZ_M_999


 18 19  0  0  0  0  0  0  0  0999 V2000
   47.5361  119.5249   52.3769 C   0  0  0  0  0  0  0  0  0  0  0  0
   48.1592  118.9609   53.6951 C   0  0  0  0  0  0  0  0  0  0  0  0
   48.3467  120.1186   54.6594 C   0  0  0  0  0  0  0  0  0  0  0  0
   48.7260  121.3983   53.8256 C   0  0  0  0  0  0  0  0  0  0  0  0
   47.4400  121.8791   53.0736 C   0  0  0  0  0  0  0  0  0  0  0  0
   47.1661  120.8300   52.1932 N   0  0  0  0  0  0  0  0  0  0  0  0
   46.6842  120.9349   50.9012 N   0  0  0  0  0  0  0  0  0  0  0  0
   46.7192  119.6129   50.3560 N   0  0  0  0  0  0  0  0  0  0  0  0
   47.2641  118.8731   51.2340 N   0  0  0  0  0  0  0  0  0  0  0  0
   47.4736  117.8534   54.3404 O   0  0  0  0  0  0  0  0  0  0  0  0
   49.4158  119.7035   55.5093 O   0  0  0  0  0  0  0  0  0  0  0  0
   49.1140  122.4517   54.7224 O   0  0  0  0  0  0  0  0  0  0  0  0
   46.6040  118.1491   54.6524 H   0  0  0  0  0  0  0  0  0  0  0  0
   50.1934  119.4901   54.9701 H   0  0  0  0  0  0  0  0  0  0  0  0
   48.3821  122.6463   55.3285 H   0  0  0  0  0  0  0  0  0  0  0  0
   47.4521  123.1917   52.2966 C   0  0  0  0  0  0  0  0  0  0  0  0
   48.4107  123.0521   51.1983 O   0  0  0  0  0  0  0  0  0  0  0  0
   49.2892  122.8547   51.5590 H   0  0  0  0  0  0  0  0  0  0  0  0
  1  2  1  0  0  0
  1  6  1  0  0  0
  1  9  2  0  0  0
  2  3  1  0  0  0
  2 10  1  0  0  0
  3  4  1  0  0  0
  3 11  1  0  0  0
  4  5  1  0  0  0
  4 12  1  0  0  0
  5 16  1  0  0  0
  5  6  1  0  0  0
 16 17  1  0  0  0
  6  7  1  0  0  0
  7  8  2  0  0  0
  8  9  1  0  0  0
 10 13  1  0  0  0
 11 14  1  0  0  0
 12 15  1  0  0  0
 17 18  1  0  0  0
M  END
> <minimizedAffinity>
-7.83219

$$$$
1E6Q_NTZ_M_999


 18 19  0  0  0  0  0  0  0  0999 V2000
   49.6100  118.9244   49.1136 C   0  0  0  0  0  0  0  0  0  0  0  0
   50.9552  119.6296   49.4836 C   0  0  0  0  0  0  0  0  0  0  0  0
   50.7493  120.3808   50.7869 C   0  0  0  0  0  0  0  0  0  0  0  0
   49.2757  120.9326   50.8103 C   0  0  0  0  0  0  0  0  0  0  0  0
   48.3133  119.7202   51.0429 C   0  0  0  0  0  0  0  0  0  0  0  0
   48.4869  118.9419   49.8961 N   0  0  0  0  0  0  0  0  0  0  0  0
   47.5122  118.2319   49.2192 N   0  0  0  0  0  0  0  0  0  0  0  0
   48.1366  117.7320   48.0334 N   0  0  0  0  0  0  0  0  0  0  0  0
   49.3142  118.2097   48.0151 N   0  0  0  0  0  0  0  0  0  0  0  0
   52.1505  118.8045   49.5431 O   0  0  0  0  0  0  0  0  0  0  0  0
   51.7100  121.4358   50.7445 O   0  0  0  0  0  0  0  0  0  0  0  0
   49.1191  121.8214   51.9284 O   0  0  0  0  0  0  0  0  0  0  0  0
   52.0659  118.1644   50.2670 H   0  0  0  0  0  0  0  0  0  0  0  0
   51.5751  121.9639   49.9421 H   0  0  0  0  0  0  0  0  0  0  0  0
   49.3161  121.3450   52.7501 H   0  0  0  0  0  0  0  0  0  0  0  0
   46.8226  119.9563   51.2640 C   0  0  0  0  0  0  0  0  0  0  0  0
   46.4861  119.4659   52.6023 O   0  0  0  0  0  0  0  0  0  0  0  0
   46.7004  118.5219   52.6641 H   0  0  0  0  0  0  0  0  0  0  0  0
  1  2  1  0  0  0
  1  6  1  0  0  0
  1  9  2  0  0  0
  2  3  1  0  0  0
  2 10  1  0  0  0
  3  4  1  0  0  0
  3 11  1  0  0  0
  4  5  1  0  0  0
  4 12  1  0  0  0
  5 16  1  0  0  0
  5  6  1  0  0  0
 16 17  1  0  0  0
  6  7  1  0  0  0
  7  8  2  0  0  0
  8  9  1  0  0  0
 10 13  1  0  0  0
 11 14  1  0  0  0
 12 15  1  0  0  0
 17 18  1  0  0  0
M  END
> <minimizedAffinity>
-7.46855

$$$$
1E6Q_NTZ_M_999


 18 19  0  0  0  0  0  0  0  0999 V2000
   47.0168  122.6232   51.2147 C   0  0  0  0  0  0  0  0  0  0  0  0
   47.2301  122.6073   52.7633 C   0  0  0  0  0  0  0  0  0  0  0  0
   47.6913  121.2162   53.1600 C   0  0  0  0  0  0  0  0  0  0  0  0
   46.9738  120.1735   52.2250 C   0  0  0  0  0  0  0  0  0  0  0  0
   47.6224  120.2777   50.8041 C   0  0  0  0  0  0  0  0  0  0  0  0
   47.2857  121.5672   50.3862 N   0  0  0  0  0  0  0  0  0  0  0  0
   46.9468  121.9627   49.1051 N   0  0  0  0  0  0  0  0  0  0  0  0
   46.5342  123.3285   49.2075 N   0  0  0  0  0  0  0  0  0  0  0  0
   46.5501  123.6201   50.4443 N   0  0  0  0  0  0  0  0  0  0  0  0
   48.0999  123.6244   53.3308 O   0  0  0  0  0  0  0  0  0  0  0  0
   47.2799  121.0799   54.5202 O   0  0  0  0  0  0  0  0  0  0  0  0
   47.2267  118.8457   52.7123 O   0  0  0  0  0  0  0  0  0  0  0  0
   49.0062  123.4890   53.0125 H   0  0  0  0  0  0  0  0  0  0  0  0
   46.3234  121.2278   54.5850 H   0  0  0  0  0  0  0  0  0  0  0  0
   48.1830  118.6843   52.7295 H   0  0  0  0  0  0  0  0  0  0  0  0
   47.2396  119.2839   49.7121 C   0  0  0  0  0  0  0  0  0  0  0  0
   45.8313  118.9305   49.9029 O   0  0  0  0  0  0  0  0  0  0  0  0
   45.7121  118.5411   50.7833 H   0  0  0  0  0  0  0  0  0  0  0  0
  1  2  1  0  0  0
  1  6  1  0  0  0
  1  9  2  0  0  0
  2  3  1  0  0  0
  2 10  1  0  0  0
  3  4  1  0  0  0
  3 11  1  0  0  0
  4  5  1  0  0  0
  4 12  1  0  0  0
  5 16  1  0  0  0
  5  6  1  0  0  0
 16 17  1  0  0  0
  6  7  1  0  0  0
  7  8  2  0  0  0
  8  9  1  0  0  0
 10 13  1  0  0  0
 11 14  1  0  0  0
 12 15  1  0  0  0
 17 18  1  0  0  0
M  END
> <minimizedAffinity>
-7.37052

$$$$
1E6Q_NTZ_M_999


 18 19  0  0  0  0  0  0  0  0999 V2000
   47.1031  121.8601   51.5924 C   0  0  0  0  0  0  0  0  0  0  0  0
   47.0079  121.7174   50.0385 C   0  0  0  0  0  0  0  0  0  0  0  0
   47.1716  120.2486   49.6904 C   0  0  0  0  0  0  0  0  0  0  0  0
   48.1910  119.6118   50.7062 C   0  0  0  0  0  0  0  0  0  0  0  0
   47.4713  119.4824   52.0902 C   0  0  0  0  0  0  0  0  0  0  0  0
   47.2336  120.8084   52.4590 N   0  0  0  0  0  0  0  0  0  0  0  0
   47.3066  121.3417   53.7328 N   0  0  0  0  0  0  0  0  0  0  0  0
   47.1387  122.7542   53.5820 N   0  0  0  0  0  0  0  0  0  0  0  0
   47.0809  122.9809   52.3329 N   0  0  0  0  0  0  0  0  0  0  0  0
   45.8377  122.2789   49.3841 O   0  0  0  0  0  0  0  0  0  0  0  0
   47.6841  120.2542   48.3581 O   0  0  0  0  0  0  0  0  0  0  0  0
   48.5249  118.2828   50.2737 O   0  0  0  0  0  0  0  0  0  0  0  0
   45.0456  121.7965   49.6683 H   0  0  0  0  0  0  0  0  0  0  0  0
   48.5017  120.7753   48.3283 H   0  0  0  0  0  0  0  0  0  0  0  0
   47.7178  117.7473   50.2223 H   0  0  0  0  0  0  0  0  0  0  0  0
   48.1559  118.7588   53.2455 C   0  0  0  0  0  0  0  0  0  0  0  0
   47.1324  117.9985   53.9660 O   0  0  0  0  0  0  0  0  0  0  0  0
   46.4494  118.6049   54.2928 H   0  0  0  0  0  0  0  0  0  0  0  0
  1  2  1  0  0  0
  1  6  1  0  0  0
  1  9  2  0  0  0
  2  3  1  0  0  0
  2 10  1  0  0  0
  3  4  1  0  0  0
  3 11  1  0  0  0
  4  5  1  0  0  0
  4 12  1  0  0  0
  5 16  1  0  0  0
  5  6  1  0  0  0
 16 17  1  0  0  0
  6  7  1  0  0  0
  7  8  2  0  0  0
  8  9  1  0  0  0
 10 13  1  0  0  0
 11 14  1  0  0  0
 12 15  1  0  0  0
 17 18  1  0  0  0
M  END
> <minimizedAffinity>
-7.20939

$$$$
1E6Q_NTZ_M_999


 18 19  0  0  0  0  0  0  0  0999 V2000
   48.2425  119.6974   49.3398 C   0  0  0  0  0  0  0  0  0  0  0  0
   49.2791  119.9531   48.1978 C   0  0  0  0  0  0  0  0  0  0  0  0
   50.6242  120.2419   48.8400 C   0  0  0  0  0  0  0  0  0  0  0  0
   50.3727  121.0337   50.1765 C   0  0  0  0  0  0  0  0  0  0  0  0
   49.7834  120.0311   51.2242 C   0  0  0  0  0  0  0  0  0  0  0  0
   48.5517  119.6706   50.6731 N   0  0  0  0  0  0  0  0  0  0  0  0
   47.3716  119.4412   51.3566 N   0  0  0  0  0  0  0  0  0  0  0  0
   46.3634  119.2605   50.3582 N   0  0  0  0  0  0  0  0  0  0  0  0
   46.9220  119.4721   49.2365 N   0  0  0  0  0  0  0  0  0  0  0  0
   49.4037  118.9370   47.1657 O   0  0  0  0  0  0  0  0  0  0  0  0
   51.3153  121.0356   47.8754 O   0  0  0  0  0  0  0  0  0  0  0  0
   51.6284  121.5021   50.6945 O   0  0  0  0  0  0  0  0  0  0  0  0
   49.7494  118.1195   47.5569 H   0  0  0  0  0  0  0  0  0  0  0  0
   50.7861  121.8204   47.6636 H   0  0  0  0  0  0  0  0  0  0  0  0
   52.2149  120.7459   50.8533 H   0  0  0  0  0  0  0  0  0  0  0  0
   49.5735  120.4689   52.6703 C   0  0  0  0  0  0  0  0  0  0  0  0
   49.1734  121.8776   52.6572 O   0  0  0  0  0  0  0  0  0  0  0  0
   49.8664  122.4066   52.2320 H   0  0  0  0  0  0  0  0  0  0  0  0
  1  2  1  0  0  0
  1  6  1  0  0  0
  1  9  2  0  0  0
  2  3  1  0  0  0
  2 10  1  0  0  0
  3  4  1  0  0  0
  3 11  1  0  0  0
  4  5  1  0  0  0
  4 12  1  0  0  0
  5 16  1  0  0  0
  5  6  1  0  0  0
 16 17  1  0  0  0
  6  7  1  0  0  0
  7  8  2  0  0  0
  8  9  1  0  0  0
 10 13  1  0  0  0
 11 14  1  0  0  0
 12 15  1  0  0  0
 17 18  1  0  0  0
M  END
> <minimizedAffinity>
-7.03136

$$$$
1E6Q_NTZ_M_999


 18 19  0  0  0  0  0  0  0  0999 V2000
   47.9860  120.7176   50.5959 C   0  0  0  0  0  0  0  0  0  0  0  0
   47.6029  122.1669   51.0393 C   0  0  0  0  0  0  0  0  0  0  0  0
   47.7453  122.2499   52.5486 C   0  0  0  0  0  0  0  0  0  0  0  0
   47.3314  120.8601   53.1600 C   0  0  0  0  0  0  0  0  0  0  0  0
   48.4706  119.8361   52.8375 C   0  0  0  0  0  0  0  0  0  0  0  0
   48.4412  119.7443   51.4441 N   0  0  0  0  0  0  0  0  0  0  0  0
   48.6453  118.6082   50.6825 N   0  0  0  0  0  0  0  0  0  0  0  0
   48.3589  118.9796   49.3312 N   0  0  0  0  0  0  0  0  0  0  0  0
   47.9399  120.1789   49.3659 N   0  0  0  0  0  0  0  0  0  0  0  0
   48.2920  123.2706   50.3912 O   0  0  0  0  0  0  0  0  0  0  0  0
   46.8445  123.2881   52.9339 O   0  0  0  0  0  0  0  0  0  0  0  0
   47.2539  120.9746   54.5902 O   0  0  0  0  0  0  0  0  0  0  0  0
   49.2338  123.2438   50.6218 H   0  0  0  0  0  0  0  0  0  0  0  0
   45.9522  123.0757   52.6182 H   0  0  0  0  0  0  0  0  0  0  0  0
   48.1141  121.2562   54.9391 H   0  0  0  0  0  0  0  0  0  0  0  0
   48.4289  118.4313   53.4306 C   0  0  0  0  0  0  0  0  0  0  0  0
   47.0483  118.1577   53.8353 O   0  0  0  0  0  0  0  0  0  0  0  0
   46.7656  118.8178   54.4874 H   0  0  0  0  0  0  0  0  0  0  0  0
  1  2  1  0  0  0
  1  6  1  0  0  0
  1  9  2  0  0  0
  2  3  1  0  0  0
  2 10  1  0  0  0
  3  4  1  0  0  0
  3 11  1  0  0  0
  4  5  1  0  0  0
  4 12  1  0  0  0
  5 16  1  0  0  0
  5  6  1  0  0  0
 16 17  1  0  0  0
  6  7  1  0  0  0
  7  8  2  0  0  0
  8  9  1  0  0  0
 10 13  1  0  0  0
 11 14  1  0  0  0
 12 15  1  0  0  0
 17 18  1  0  0  0
M  END
> <minimizedAffinity>
-6.91432

$$$$
1E6Q_NTZ_M_999


 18 19  0  0  0  0  0  0  0  0999 V2000
   48.4904  120.0053   49.4454 C   0  0  0  0  0  0  0  0  0  0  0  0
   49.9402  120.5177   49.1631 C   0  0  0  0  0  0  0  0  0  0  0  0
   50.6721  120.6123   50.4899 C   0  0  0  0  0  0  0  0  0  0  0  0
   49.6389  121.0510   51.5928 C   0  0  0  0  0  0  0  0  0  0  0  0
   48.7042  119.8303   51.8869 C   0  0  0  0  0  0  0  0  0  0  0  0
   48.0257  119.6416   50.6806 N   0  0  0  0  0  0  0  0  0  0  0  0
   46.7028  119.2714   50.5213 N   0  0  0  0  0  0  0  0  0  0  0  0
   46.4309  119.3640   49.1200 N   0  0  0  0  0  0  0  0  0  0  0  0
   47.4782  119.8377   48.5781 N   0  0  0  0  0  0  0  0  0  0  0  0
   50.7304  119.7885   48.1848 O   0  0  0  0  0  0  0  0  0  0  0  0
   51.6720  121.6080   50.2739 O   0  0  0  0  0  0  0  0  0  0  0  0
   50.3419  121.3520   52.8093 O   0  0  0  0  0  0  0  0  0  0  0  0
   50.9058  118.8930   48.5136 H   0  0  0  0  0  0  0  0  0  0  0  0
   51.2507  122.4306   49.9795 H   0  0  0  0  0  0  0  0  0  0  0  0
   50.8359  120.5692   53.0994 H   0  0  0  0  0  0  0  0  0  0  0  0
   47.6897  119.8981   53.0240 C   0  0  0  0  0  0  0  0  0  0  0  0
   47.2338  118.5337   53.2984 O   0  0  0  0  0  0  0  0  0  0  0  0
   46.8331  118.1597   52.4981 H   0  0  0  0  0  0  0  0  0  0  0  0
  1  2  1  0  0  0
  1  6  1  0  0  0
  1  9  2  0  0  0
  2  3  1  0  0  0
  2 10  1  0  0  0
  3  4  1  0  0  0
  3 11  1  0  0  0
  4  5  1  0  0  0
  4 12  1  0  0  0
  5 16  1  0  0  0
  5  6  1  0  0  0
 16 17  1  0  0  0
  6  7  1  0  0  0
  7  8  2  0  0  0
  8  9  1  0  0  0
 10 13  1  0  0  0
 11 14  1  0  0  0
 12 15  1  0  0  0
 17 18  1  0  0  0
M  END
> <minimizedAffinity>
-6.86357

$$$$
1E6Q_NTZ_M_999


 18 19  0  0  0  0  0  0  0  0999 V2000
   47.0409  119.9963   49.9135 C   0  0  0  0  0  0  0  0  0  0  0  0
   46.9438  121.3643   50.6639 C   0  0  0  0  0  0  0  0  0  0  0  0
   48.3535  121.8900   50.8673 C   0  0  0  0  0  0  0  0  0  0  0  0
   49.3063  120.6626   51.1167 C   0  0  0  0  0  0  0  0  0  0  0  0
   49.4914  119.9147   49.7541 C   0  0  0  0  0  0  0  0  0  0  0  0
   48.2094  119.4412   49.4657 N   0  0  0  0  0  0  0  0  0  0  0  0
   47.8833  118.2312   48.8808 N   0  0  0  0  0  0  0  0  0  0  0  0
   46.4575  118.1334   48.9396 N   0  0  0  0  0  0  0  0  0  0  0  0
   46.0509  119.1487   49.5869 N   0  0  0  0  0  0  0  0  0  0  0  0
   46.0866  122.3864   50.0863 O   0  0  0  0  0  0  0  0  0  0  0  0
   48.2573  122.7290   52.0182 O   0  0  0  0  0  0  0  0  0  0  0  0
   50.6002  121.1400   51.5197 O   0  0  0  0  0  0  0  0  0  0  0  0
   46.4470  122.6645   49.2297 H   0  0  0  0  0  0  0  0  0  0  0  0
   47.8998  122.2185   52.7615 H   0  0  0  0  0  0  0  0  0  0  0  0
   50.9624  121.7156   50.8280 H   0  0  0  0  0  0  0  0  0  0  0  0
   50.4852  118.7631   49.6406 C   0  0  0  0  0  0  0  0  0  0  0  0
   51.8108  119.3385   49.4030 O   0  0  0  0  0  0  0  0  0  0  0  0
   51.7940  119.8635   48.5876 H   0  0  0  0  0  0  0  0  0  0  0  0
  1  2  1  0  0  0
  1  6  1  0  0  0
  1  9  2  0  0  0
  2  3  1  0  0  0
  2 10  1  0  0  0
  3  4  1  0  0  0
  3 11  1  0  0  0
  4  5  1  0  0  0
  4 12  1  0  0  0
  5 16  1  0  0  0
  5  6  1  0  0  0
 16 17  1  0  0  0
  6  7  1  0  0  0
  7  8  2  0  0  0
  8  9  1  0  0  0
 10 13  1  0  0  0
 11 14  1  0  0  0
 12 15  1  0  0  0
 17 18  1  0  0  0
M  END
> <minimizedAffinity>
-6.75298

$$$$
1E6Q_NTZ_M_999


 18 19  0  0  0  0  0  0  0  0999 V2000
   46.2116  121.7457   49.4059 C   0  0  0  0  0  0  0  0  0  0  0  0
   46.0314  120.3969   48.6364 C   0  0  0  0  0  0  0  0  0  0  0  0
   46.4013  119.2652   49.5785 C   0  0  0  0  0  0  0  0  0  0  0  0
   47.5776  119.7563   50.5013 C   0  0  0  0  0  0  0  0  0  0  0  0
   46.9865  120.7795   51.5279 C   0  0  0  0  0  0  0  0  0  0  0  0
   46.5678  121.8423   50.7242 N   0  0  0  0  0  0  0  0  0  0  0  0
   46.6444  123.1902   51.0239 N   0  0  0  0  0  0  0  0  0  0  0  0
   46.2443  123.8837   49.8385 N   0  0  0  0  0  0  0  0  0  0  0  0
   46.0638  122.9988   48.9444 N   0  0  0  0  0  0  0  0  0  0  0  0
   44.7438  120.1501   48.0084 O   0  0  0  0  0  0  0  0  0  0  0  0
   46.8116  118.2044   48.7157 O   0  0  0  0  0  0  0  0  0  0  0  0
   48.0870  118.6435   51.2541 O   0  0  0  0  0  0  0  0  0  0  0  0
   44.0603  120.0718   48.6922 H   0  0  0  0  0  0  0  0  0  0  0  0
   47.5320  118.5129   48.1441 H   0  0  0  0  0  0  0  0  0  0  0  0
   47.3735  118.2610   51.7885 H   0  0  0  0  0  0  0  0  0  0  0  0
   47.8566  121.3215   52.6575 C   0  0  0  0  0  0  0  0  0  0  0  0
   46.9917  121.5527   53.8164 O   0  0  0  0  0  0  0  0  0  0  0  0
   46.2965  122.1864   53.5797 H   0  0  0  0  0  0  0  0  0  0  0  0
  1  2  1  0  0  0
  1  6  1  0  0  0
  1  9  2  0  0  0
  2  3  1  0  0  0
  2 10  1  0  0  0
  3  4  1  0  0  0
  3 11  1  0  0  0
  4  5  1  0  0  0
  4 12  1  0  0  0
  5 16  1  0  0  0
  5  6  1  0  0  0
 16 17  1  0  0  0
  6  7  1  0  0  0
  7  8  2  0  0  0
  8  9  1  0  0  0
 10 13  1  0  0  0
 11 14  1  0  0  0
 12 15  1  0  0  0
 17 18  1  0  0  0
M  END
> <minimizedAffinity>
-6.61975

$$$$
1E6Q_NTZ_M_999


 18 19  0  0  0  0  0  0  0  0999 V2000
   49.1554  121.0297   50.9694 C   0  0  0  0  0  0  0  0  0  0  0  0
   50.6216  120.5733   50.6764 C   0  0  0  0  0  0  0  0  0  0  0  0
   50.6362  119.8756   49.3280 C   0  0  0  0  0  0  0  0  0  0  0  0
   49.2796  119.0957   49.1616 C   0  0  0  0  0  0  0  0  0  0  0  0
   48.1492  120.1485   48.9083 C   0  0  0  0  0  0  0  0  0  0  0  0
   48.1095  120.8768   50.0995 N   0  0  0  0  0  0  0  0  0  0  0  0
   46.9850  121.3798   50.7279 N   0  0  0  0  0  0  0  0  0  0  0  0
   47.4320  121.9042   51.9814 N   0  0  0  0  0  0  0  0  0  0  0  0
   48.6678  121.6224   52.0721 N   0  0  0  0  0  0  0  0  0  0  0  0
   51.6653  121.5824   50.7503 O   0  0  0  0  0  0  0  0  0  0  0  0
   51.7525  118.9887   49.3989 O   0  0  0  0  0  0  0  0  0  0  0  0
   49.3522  118.2597   47.9952 O   0  0  0  0  0  0  0  0  0  0  0  0
   51.5280  122.2413   50.0519 H   0  0  0  0  0  0  0  0  0  0  0  0
   51.6497  118.4000   50.1630 H   0  0  0  0  0  0  0  0  0  0  0  0
   49.5261  118.8085   47.2145 H   0  0  0  0  0  0  0  0  0  0  0  0
   46.7377  119.6884   48.5581 C   0  0  0  0  0  0  0  0  0  0  0  0
   46.4540  118.4823   49.3389 O   0  0  0  0  0  0  0  0  0  0  0  0
   47.1056  117.7969   49.1233 H   0  0  0  0  0  0  0  0  0  0  0  0
  1  2  1  0  0  0
  1  6  1  0  0  0
  1  9  2  0  0  0
  2  3  1  0  0  0
  2 10  1  0  0  0
  3  4  1  0  0  0
  3 11  1  0  0  0
  4  5  1  0  0  0
  4 12  1  0  0  0
  5 16  1  0  0  0
  5  6  1  0  0  0
 16 17  1  0  0  0
  6  7  1  0  0  0
  7  8  2  0  0  0
  8  9  1  0  0  0
 10 13  1  0  0  0
 11 14  1  0  0  0
 12 15  1  0  0  0
 17 18  1  0  0  0
M  END
> <minimizedAffinity>
-6.53887

$$$$
