6GOT_F6W_A_304


 21 22  0  0  0  0  0  0  0  0999 V2000
   -4.7495    2.3256   15.5639 C   0  0  0  0  0  0  0  0  0  0  0  0
   -4.3309    3.2184   14.5667 C   0  0  0  0  0  0  0  0  0  0  0  0
   -6.6115    3.7314   16.0185 C   0  0  0  0  0  0  0  0  0  0  0  0
   -6.2048    4.6421   15.0336 C   0  0  0  0  0  0  0  0  0  0  0  0
   -5.0555    4.3818   14.3074 C   0  0  0  0  0  0  0  0  0  0  0  0
   -5.8931    2.5596   16.3266 C   0  0  0  0  0  0  0  0  0  0  0  0
   -7.6977    1.0437   17.0678 O   0  0  0  0  0  0  0  0  0  0  0  0
   -6.4036    1.4912   17.4444 S   0  0  0  0  0  0  0  0  0  0  0  0
   -6.4184    2.1222   18.7261 O   0  0  0  0  0  0  0  0  0  0  0  0
   -5.4353    0.1696   17.5199 N   0  0  0  0  0  0  0  0  0  0  0  0
   -5.4163   -0.2903   16.6097 H   0  0  0  0  0  0  0  0  0  0  0  0
   -5.7973   -0.4775   18.2204 H   0  0  0  0  0  0  0  0  0  0  0  0
   -4.5216    5.4066   13.0733 S   0  0  0  0  0  0  0  0  0  0  0  0
   -2.8628    5.8546   13.3921 C   0  0  0  0  0  0  0  0  0  0  0  0
   -2.8453    6.7449   14.6248 C   0  0  0  0  0  0  0  0  0  0  0  0
    0.2220    9.6720   14.3050 C   0  0  0  0  0  0  0  0  0  0  0  0
   -1.7542    7.7576   14.5035 C   0  0  0  0  0  0  0  0  0  0  0  0
   -0.9535    7.7746   13.3672 C   0  0  0  0  0  0  0  0  0  0  0  0
    0.0300    8.7518   13.2789 C   0  0  0  0  0  0  0  0  0  0  0  0
   -0.5839    9.6393   15.4330 C   0  0  0  0  0  0  0  0  0  0  0  0
   -1.5747    8.6774   15.5351 C   0  0  0  0  0  0  0  0  0  0  0  0
 19 18  2  0  0  0
 19 16  1  0  0  0
 18 17  1  0  0  0
 16 20  2  0  0  0
 14 13  1  0  0  0
 14 15  1  0  0  0
 13  5  1  0  0  0
 17 15  1  0  0  0
 17 21  2  0  0  0
  5  2  2  0  0  0
  5  4  1  0  0  0
 20 21  1  0  0  0
  2  1  1  0  0  0
  4  3  2  0  0  0
  1  6  2  0  0  0
  3  6  1  0  0  0
  6  8  1  0  0  0
 10  8  1  0  0  0
  7  8  2  0  0  0
  8  9  2  0  0  0
 10 11  1  0  0  0
 10 12  1  0  0  0
M  END
> <minimizedAffinity>
-7.47104

$$$$
6GOT_F6W_A_304


 21 22  0  0  0  0  0  0  0  0999 V2000
   -6.5767    3.7655   16.0322 C   0  0  0  0  0  0  0  0  0  0  0  0
   -6.1481    4.6591   15.0401 C   0  0  0  0  0  0  0  0  0  0  0  0
   -4.7990    2.2969   15.4548 C   0  0  0  0  0  0  0  0  0  0  0  0
   -4.3605    3.1712   14.4508 C   0  0  0  0  0  0  0  0  0  0  0  0
   -5.0436    4.3573   14.2434 C   0  0  0  0  0  0  0  0  0  0  0  0
   -5.9244    2.5546   16.2619 C   0  0  0  0  0  0  0  0  0  0  0  0
   -7.6934    1.0690   17.1378 O   0  0  0  0  0  0  0  0  0  0  0  0
   -6.3938    1.5477   17.4523 S   0  0  0  0  0  0  0  0  0  0  0  0
   -6.3797    2.2506   18.6960 O   0  0  0  0  0  0  0  0  0  0  0  0
   -5.4112    0.2404   17.5757 N   0  0  0  0  0  0  0  0  0  0  0  0
   -5.4127   -0.2706   16.6929 H   0  0  0  0  0  0  0  0  0  0  0  0
   -5.7477   -0.3686   18.3216 H   0  0  0  0  0  0  0  0  0  0  0  0
   -4.5531    5.4851   13.0834 S   0  0  0  0  0  0  0  0  0  0  0  0
   -2.8865    5.9151   13.3861 C   0  0  0  0  0  0  0  0  0  0  0  0
   -2.8274    6.6645   14.7080 C   0  0  0  0  0  0  0  0  0  0  0  0
   -0.5636   10.2250   14.1822 C   0  0  0  0  0  0  0  0  0  0  0  0
   -2.0409    7.9233   14.5425 C   0  0  0  0  0  0  0  0  0  0  0  0
   -1.4444    8.5135   15.6508 C   0  0  0  0  0  0  0  0  0  0  0  0
   -0.6955    9.6662   15.4498 C   0  0  0  0  0  0  0  0  0  0  0  0
   -1.1675    9.6249   13.0877 C   0  0  0  0  0  0  0  0  0  0  0  0
   -1.9113    8.4708   13.2672 C   0  0  0  0  0  0  0  0  0  0  0  0
 19 18  2  0  0  0
 19 16  1  0  0  0
 18 17  1  0  0  0
 16 20  2  0  0  0
 14 13  1  0  0  0
 14 15  1  0  0  0
 13  5  1  0  0  0
 17 15  1  0  0  0
 17 21  2  0  0  0
  5  2  2  0  0  0
  5  4  1  0  0  0
 20 21  1  0  0  0
  2  1  1  0  0  0
  4  3  2  0  0  0
  1  6  2  0  0  0
  3  6  1  0  0  0
  6  8  1  0  0  0
 10  8  1  0  0  0
  7  8  2  0  0  0
  8  9  2  0  0  0
 10 11  1  0  0  0
 10 12  1  0  0  0
M  END
> <minimizedAffinity>
-7.40511

$$$$
6GOT_F6W_A_304


 21 22  0  0  0  0  0  0  0  0999 V2000
   -4.5307    2.3745   15.7627 C   0  0  0  0  0  0  0  0  0  0  0  0
   -4.0107    3.3464   14.8957 C   0  0  0  0  0  0  0  0  0  0  0  0
   -6.5129    3.6655   15.9954 C   0  0  0  0  0  0  0  0  0  0  0  0
   -6.0076    4.6540   15.1397 C   0  0  0  0  0  0  0  0  0  0  0  0
   -4.7473    4.4911   14.5907 C   0  0  0  0  0  0  0  0  0  0  0  0
   -5.7896    2.5091   16.3471 C   0  0  0  0  0  0  0  0  0  0  0  0
   -7.7284    1.0678   16.8641 O   0  0  0  0  0  0  0  0  0  0  0  0
   -6.4095    1.3504   17.3086 S   0  0  0  0  0  0  0  0  0  0  0  0
   -6.3980    1.8065   18.6624 O   0  0  0  0  0  0  0  0  0  0  0  0
   -5.5560   -0.0471   17.2170 N   0  0  0  0  0  0  0  0  0  0  0  0
   -5.5568   -0.3834   16.2540 H   0  0  0  0  0  0  0  0  0  0  0  0
   -5.9846   -0.7475   17.8221 H   0  0  0  0  0  0  0  0  0  0  0  0
   -4.0839    5.6147   13.5158 S   0  0  0  0  0  0  0  0  0  0  0  0
   -4.3527    5.0568   11.8816 C   0  0  0  0  0  0  0  0  0  0  0  0
   -3.7414    6.0745   10.9314 C   0  0  0  0  0  0  0  0  0  0  0  0
   -6.3742    9.3854   10.5012 C   0  0  0  0  0  0  0  0  0  0  0  0
   -4.6523    7.2500   10.7929 C   0  0  0  0  0  0  0  0  0  0  0  0
   -4.1160    8.5185   10.6039 C   0  0  0  0  0  0  0  0  0  0  0  0
   -4.9975    9.5810   10.4484 C   0  0  0  0  0  0  0  0  0  0  0  0
   -6.8926    8.1137   10.6933 C   0  0  0  0  0  0  0  0  0  0  0  0
   -6.0295    7.0411   10.8422 C   0  0  0  0  0  0  0  0  0  0  0  0
 19 18  2  0  0  0
 19 16  1  0  0  0
 18 17  1  0  0  0
 16 20  2  0  0  0
 14 13  1  0  0  0
 14 15  1  0  0  0
 13  5  1  0  0  0
 17 15  1  0  0  0
 17 21  2  0  0  0
  5  2  2  0  0  0
  5  4  1  0  0  0
 20 21  1  0  0  0
  2  1  1  0  0  0
  4  3  2  0  0  0
  1  6  2  0  0  0
  3  6  1  0  0  0
  6  8  1  0  0  0
 10  8  1  0  0  0
  7  8  2  0  0  0
  8  9  2  0  0  0
 10 11  1  0  0  0
 10 12  1  0  0  0
M  END
> <minimizedAffinity>
-6.92230

$$$$
6GOT_F6W_A_304


 21 22  0  0  0  0  0  0  0  0999 V2000
   -4.5200    3.5179   14.6367 C   0  0  0  0  0  0  0  0  0  0  0  0
   -4.4301    4.4459   13.5891 C   0  0  0  0  0  0  0  0  0  0  0  0
   -4.4663    1.7474   13.0516 C   0  0  0  0  0  0  0  0  0  0  0  0
   -4.3867    2.6584   11.9892 C   0  0  0  0  0  0  0  0  0  0  0  0
   -4.3716    4.0151   12.2637 C   0  0  0  0  0  0  0  0  0  0  0  0
   -4.5526    2.1441   14.4004 C   0  0  0  0  0  0  0  0  0  0  0  0
   -5.8586    1.1979   16.2721 O   0  0  0  0  0  0  0  0  0  0  0  0
   -4.6011    1.0712   15.6244 S   0  0  0  0  0  0  0  0  0  0  0  0
   -3.5198    1.3314   16.5212 O   0  0  0  0  0  0  0  0  0  0  0  0
   -4.4824   -0.4755   15.0920 N   0  0  0  0  0  0  0  0  0  0  0  0
   -5.2498   -0.6739   14.4500 H   0  0  0  0  0  0  0  0  0  0  0  0
   -4.5304   -1.1132   15.8866 H   0  0  0  0  0  0  0  0  0  0  0  0
   -4.2332    5.1767   11.0431 S   0  0  0  0  0  0  0  0  0  0  0  0
   -4.0557    6.7506   11.7816 C   0  0  0  0  0  0  0  0  0  0  0  0
   -2.5859    7.1356   11.7194 C   0  0  0  0  0  0  0  0  0  0  0  0
   -1.5050    9.4729   15.1028 C   0  0  0  0  0  0  0  0  0  0  0  0
   -2.2231    7.9471   12.9196 C   0  0  0  0  0  0  0  0  0  0  0  0
   -2.2640    7.3663   14.1819 C   0  0  0  0  0  0  0  0  0  0  0  0
   -1.8893    8.1457   15.2691 C   0  0  0  0  0  0  0  0  0  0  0  0
   -1.4723   10.0375   13.8367 C   0  0  0  0  0  0  0  0  0  0  0  0
   -1.8347    9.2737   12.7401 C   0  0  0  0  0  0  0  0  0  0  0  0
 19 18  2  0  0  0
 19 16  1  0  0  0
 18 17  1  0  0  0
 16 20  2  0  0  0
 14 13  1  0  0  0
 14 15  1  0  0  0
 13  5  1  0  0  0
 17 15  1  0  0  0
 17 21  2  0  0  0
  5  2  2  0  0  0
  5  4  1  0  0  0
 20 21  1  0  0  0
  2  1  1  0  0  0
  4  3  2  0  0  0
  1  6  2  0  0  0
  3  6  1  0  0  0
  6  8  1  0  0  0
 10  8  1  0  0  0
  7  8  2  0  0  0
  8  9  2  0  0  0
 10 11  1  0  0  0
 10 12  1  0  0  0
M  END
> <minimizedAffinity>
-6.72950

$$$$
6GOT_F6W_A_304


 21 22  0  0  0  0  0  0  0  0999 V2000
   -4.2802    3.1518   14.4595 C   0  0  0  0  0  0  0  0  0  0  0  0
   -4.1468    4.0024   13.3526 C   0  0  0  0  0  0  0  0  0  0  0  0
   -4.5290    1.3018   12.9879 C   0  0  0  0  0  0  0  0  0  0  0  0
   -4.4087    2.1360   11.8678 C   0  0  0  0  0  0  0  0  0  0  0  0
   -4.2193    3.4943   12.0555 C   0  0  0  0  0  0  0  0  0  0  0  0
   -4.4866    1.7807   14.3120 C   0  0  0  0  0  0  0  0  0  0  0  0
   -3.5135    1.1039   16.4796 O   0  0  0  0  0  0  0  0  0  0  0  0
   -4.5851    0.7915   15.6015 S   0  0  0  0  0  0  0  0  0  0  0  0
   -4.5232   -0.5656   15.1593 O   0  0  0  0  0  0  0  0  0  0  0  0
   -5.9784    1.0088   16.4389 N   0  0  0  0  0  0  0  0  0  0  0  0
   -6.0346    1.9752   16.7605 H   0  0  0  0  0  0  0  0  0  0  0  0
   -5.9932    0.3815   17.2430 H   0  0  0  0  0  0  0  0  0  0  0  0
   -4.0212    4.5610   10.7589 S   0  0  0  0  0  0  0  0  0  0  0  0
   -3.9449    6.1929   11.3794 C   0  0  0  0  0  0  0  0  0  0  0  0
   -5.3149    6.8281   11.2000 C   0  0  0  0  0  0  0  0  0  0  0  0
   -4.9264   10.9371   10.1784 C   0  0  0  0  0  0  0  0  0  0  0  0
   -5.1625    8.2737   10.8570 C   0  0  0  0  0  0  0  0  0  0  0  0
   -3.8950    8.8437   10.8232 C   0  0  0  0  0  0  0  0  0  0  0  0
   -3.7934   10.1833   10.4694 C   0  0  0  0  0  0  0  0  0  0  0  0
   -6.1836   10.3536   10.2196 C   0  0  0  0  0  0  0  0  0  0  0  0
   -6.3039    9.0174   10.5623 C   0  0  0  0  0  0  0  0  0  0  0  0
 19 18  2  0  0  0
 19 16  1  0  0  0
 18 17  1  0  0  0
 16 20  2  0  0  0
 14 13  1  0  0  0
 14 15  1  0  0  0
 13  5  1  0  0  0
 17 15  1  0  0  0
 17 21  2  0  0  0
  5  2  2  0  0  0
  5  4  1  0  0  0
 20 21  1  0  0  0
  2  1  1  0  0  0
  4  3  2  0  0  0
  1  6  2  0  0  0
  3  6  1  0  0  0
  6  8  1  0  0  0
 10  8  1  0  0  0
  7  8  2  0  0  0
  8  9  2  0  0  0
 10 11  1  0  0  0
 10 12  1  0  0  0
M  END
> <minimizedAffinity>
-6.41649

$$$$
6GOT_F6W_A_304


 21 22  0  0  0  0  0  0  0  0999 V2000
   -6.4578    3.7586   15.8192 C   0  0  0  0  0  0  0  0  0  0  0  0
   -5.9220    4.6459   14.8747 C   0  0  0  0  0  0  0  0  0  0  0  0
   -4.4492    2.4898   15.7432 C   0  0  0  0  0  0  0  0  0  0  0  0
   -3.8990    3.3586   14.7906 C   0  0  0  0  0  0  0  0  0  0  0  0
   -4.6442    4.4405   14.3543 C   0  0  0  0  0  0  0  0  0  0  0  0
   -5.7446    2.6495   16.2728 C   0  0  0  0  0  0  0  0  0  0  0  0
   -7.6669    1.2895   17.0204 O   0  0  0  0  0  0  0  0  0  0  0  0
   -6.3512    1.6551   17.4105 S   0  0  0  0  0  0  0  0  0  0  0  0
   -6.3445    2.3246   18.6726 O   0  0  0  0  0  0  0  0  0  0  0  0
   -5.4819    0.2708   17.5447 N   0  0  0  0  0  0  0  0  0  0  0  0
   -5.4791   -0.2171   16.6490 H   0  0  0  0  0  0  0  0  0  0  0  0
   -5.9024   -0.3271   18.2562 H   0  0  0  0  0  0  0  0  0  0  0  0
   -4.0369    5.5589   13.2413 S   0  0  0  0  0  0  0  0  0  0  0  0
   -4.2720    4.9312   11.6274 C   0  0  0  0  0  0  0  0  0  0  0  0
   -3.2606    3.8177   11.4046 C   0  0  0  0  0  0  0  0  0  0  0  0
    0.4211    5.4564   10.0491 C   0  0  0  0  0  0  0  0  0  0  0  0
   -1.9611    4.3965   10.9499 C   0  0  0  0  0  0  0  0  0  0  0  0
   -0.7907    4.0808   11.6305 C   0  0  0  0  0  0  0  0  0  0  0  0
    0.4013    4.6148   11.1572 C   0  0  0  0  0  0  0  0  0  0  0  0
   -0.7559    5.7633    9.3834 C   0  0  0  0  0  0  0  0  0  0  0  0
   -1.9528    5.2340    9.8358 C   0  0  0  0  0  0  0  0  0  0  0  0
 19 18  2  0  0  0
 19 16  1  0  0  0
 18 17  1  0  0  0
 16 20  2  0  0  0
 14 13  1  0  0  0
 14 15  1  0  0  0
 13  5  1  0  0  0
 17 15  1  0  0  0
 17 21  2  0  0  0
  5  2  2  0  0  0
  5  4  1  0  0  0
 20 21  1  0  0  0
  2  1  1  0  0  0
  4  3  2  0  0  0
  1  6  2  0  0  0
  3  6  1  0  0  0
  6  8  1  0  0  0
 10  8  1  0  0  0
  7  8  2  0  0  0
  8  9  2  0  0  0
 10 11  1  0  0  0
 10 12  1  0  0  0
M  END
> <minimizedAffinity>
-6.28989

$$$$
6GOT_F6W_A_304


 21 22  0  0  0  0  0  0  0  0999 V2000
   -1.9905    8.5453   12.6361 C   0  0  0  0  0  0  0  0  0  0  0  0
   -2.7853    7.4115   12.4139 C   0  0  0  0  0  0  0  0  0  0  0  0
   -1.9446    8.0385   14.9580 C   0  0  0  0  0  0  0  0  0  0  0  0
   -2.7473    6.9067   14.7592 C   0  0  0  0  0  0  0  0  0  0  0  0
   -3.1704    6.5962   13.4783 C   0  0  0  0  0  0  0  0  0  0  0  0
   -1.5564    8.8996   13.9130 C   0  0  0  0  0  0  0  0  0  0  0  0
    0.4360   10.1587   13.1723 O   0  0  0  0  0  0  0  0  0  0  0  0
   -0.5880   10.1858   14.1560 S   0  0  0  0  0  0  0  0  0  0  0  0
   -0.0486   10.1256   15.4776 O   0  0  0  0  0  0  0  0  0  0  0  0
   -1.3929   11.6040   13.9804 N   0  0  0  0  0  0  0  0  0  0  0  0
   -1.7832   11.6592   13.0397 H   0  0  0  0  0  0  0  0  0  0  0  0
   -0.7486   12.3810   14.1273 H   0  0  0  0  0  0  0  0  0  0  0  0
   -4.1033    5.2255   13.1482 S   0  0  0  0  0  0  0  0  0  0  0  0
   -4.1673    4.2296   14.5828 C   0  0  0  0  0  0  0  0  0  0  0  0
   -5.6218    4.1172   15.0121 C   0  0  0  0  0  0  0  0  0  0  0  0
   -6.2196    0.5642   17.2697 C   0  0  0  0  0  0  0  0  0  0  0  0
   -5.8258    2.8569   15.7871 C   0  0  0  0  0  0  0  0  0  0  0  0
   -4.9309    1.8037   15.6374 C   0  0  0  0  0  0  0  0  0  0  0  0
   -5.1381    0.6607   16.3992 C   0  0  0  0  0  0  0  0  0  0  0  0
   -7.1045    1.6232   17.4050 C   0  0  0  0  0  0  0  0  0  0  0  0
   -6.9095    2.7738   16.6597 C   0  0  0  0  0  0  0  0  0  0  0  0
 19 18  2  0  0  0
 19 16  1  0  0  0
 18 17  1  0  0  0
 16 20  2  0  0  0
 14 13  1  0  0  0
 14 15  1  0  0  0
 13  5  1  0  0  0
 17 15  1  0  0  0
 17 21  2  0  0  0
  5  2  2  0  0  0
  5  4  1  0  0  0
 20 21  1  0  0  0
  2  1  1  0  0  0
  4  3  2  0  0  0
  1  6  2  0  0  0
  3  6  1  0  0  0
  6  8  1  0  0  0
 10  8  1  0  0  0
  7  8  2  0  0  0
  8  9  2  0  0  0
 10 11  1  0  0  0
 10 12  1  0  0  0
M  END
> <minimizedAffinity>
-6.25696

$$$$
6GOT_F6W_A_304


 21 22  0  0  0  0  0  0  0  0999 V2000
   -1.9704    6.0252   14.3110 C   0  0  0  0  0  0  0  0  0  0  0  0
   -2.5619    4.8245   13.8928 C   0  0  0  0  0  0  0  0  0  0  0  0
   -2.5016    7.0004   12.2094 C   0  0  0  0  0  0  0  0  0  0  0  0
   -3.0882    5.8064   11.7678 C   0  0  0  0  0  0  0  0  0  0  0  0
   -3.1140    4.7132   12.6167 C   0  0  0  0  0  0  0  0  0  0  0  0
   -1.9116    7.1437   13.4805 C   0  0  0  0  0  0  0  0  0  0  0  0
   -1.9672    9.6102   13.3496 O   0  0  0  0  0  0  0  0  0  0  0  0
   -1.2730    8.5512   13.9927 S   0  0  0  0  0  0  0  0  0  0  0  0
    0.1220    8.5745   13.6851 O   0  0  0  0  0  0  0  0  0  0  0  0
   -1.4588    8.7593   15.6089 N   0  0  0  0  0  0  0  0  0  0  0  0
   -2.4518    8.7445   15.8416 H   0  0  0  0  0  0  0  0  0  0  0  0
   -1.0583    9.6559   15.8845 H   0  0  0  0  0  0  0  0  0  0  0  0
   -3.8411    3.2517   12.1767 S   0  0  0  0  0  0  0  0  0  0  0  0
   -5.0874    2.8703   13.3409 C   0  0  0  0  0  0  0  0  0  0  0  0
   -4.5328    1.8266   14.2977 C   0  0  0  0  0  0  0  0  0  0  0  0
   -6.8217    1.7472   17.8800 C   0  0  0  0  0  0  0  0  0  0  0  0
   -5.3315    1.8203   15.5597 C   0  0  0  0  0  0  0  0  0  0  0  0
   -6.1130    2.9228   15.8858 C   0  0  0  0  0  0  0  0  0  0  0  0
   -6.8651    2.8651   17.0524 C   0  0  0  0  0  0  0  0  0  0  0  0
   -6.0347    0.6569   17.5413 C   0  0  0  0  0  0  0  0  0  0  0  0
   -5.2843    0.6931   16.3782 C   0  0  0  0  0  0  0  0  0  0  0  0
 19 18  2  0  0  0
 19 16  1  0  0  0
 18 17  1  0  0  0
 16 20  2  0  0  0
 14 13  1  0  0  0
 14 15  1  0  0  0
 13  5  1  0  0  0
 17 15  1  0  0  0
 17 21  2  0  0  0
  5  2  2  0  0  0
  5  4  1  0  0  0
 20 21  1  0  0  0
  2  1  1  0  0  0
  4  3  2  0  0  0
  1  6  2  0  0  0
  3  6  1  0  0  0
  6  8  1  0  0  0
 10  8  1  0  0  0
  7  8  2  0  0  0
  8  9  2  0  0  0
 10 11  1  0  0  0
 10 12  1  0  0  0
M  END
> <minimizedAffinity>
-6.04099

$$$$
6GOT_F6W_A_304


 21 22  0  0  0  0  0  0  0  0999 V2000
   -3.5220    3.6716   10.4142 C   0  0  0  0  0  0  0  0  0  0  0  0
   -2.5306    4.5297    9.9168 C   0  0  0  0  0  0  0  0  0  0  0  0
   -2.3898    3.6004   12.5030 C   0  0  0  0  0  0  0  0  0  0  0  0
   -1.3829    4.4487   12.0222 C   0  0  0  0  0  0  0  0  0  0  0  0
   -1.4559    4.9119   10.7197 C   0  0  0  0  0  0  0  0  0  0  0  0
   -3.4763    3.1722   11.7153 C   0  0  0  0  0  0  0  0  0  0  0  0
   -5.3652    2.9561   13.2930 O   0  0  0  0  0  0  0  0  0  0  0  0
   -4.6597    2.2210   12.3037 S   0  0  0  0  0  0  0  0  0  0  0  0
   -4.0819    1.0319   12.8452 O   0  0  0  0  0  0  0  0  0  0  0  0
   -5.7430    1.7998   11.1466 N   0  0  0  0  0  0  0  0  0  0  0  0
   -6.1631    2.6412   10.7517 H   0  0  0  0  0  0  0  0  0  0  0  0
   -6.4718    1.2175   11.5591 H   0  0  0  0  0  0  0  0  0  0  0  0
   -0.3064    5.9725   10.0780 S   0  0  0  0  0  0  0  0  0  0  0  0
    0.1764    7.0996   11.3232 C   0  0  0  0  0  0  0  0  0  0  0  0
   -0.9668    8.0787   11.5395 C   0  0  0  0  0  0  0  0  0  0  0  0
   -1.4434    8.7763   15.7066 C   0  0  0  0  0  0  0  0  0  0  0  0
   -1.1566    8.3217   13.0009 C   0  0  0  0  0  0  0  0  0  0  0  0
   -2.1017    7.5843   13.7047 C   0  0  0  0  0  0  0  0  0  0  0  0
   -2.2257    7.8185   15.0685 C   0  0  0  0  0  0  0  0  0  0  0  0
   -0.5072    9.5051   14.9889 C   0  0  0  0  0  0  0  0  0  0  0  0
   -0.3637    9.2798   13.6303 C   0  0  0  0  0  0  0  0  0  0  0  0
 19 18  2  0  0  0
 19 16  1  0  0  0
 18 17  1  0  0  0
 16 20  2  0  0  0
 14 13  1  0  0  0
 14 15  1  0  0  0
 13  5  1  0  0  0
 17 15  1  0  0  0
 17 21  2  0  0  0
  5  2  2  0  0  0
  5  4  1  0  0  0
 20 21  1  0  0  0
  2  1  1  0  0  0
  4  3  2  0  0  0
  1  6  2  0  0  0
  3  6  1  0  0  0
  6  8  1  0  0  0
 10  8  1  0  0  0
  7  8  2  0  0  0
  8  9  2  0  0  0
 10 11  1  0  0  0
 10 12  1  0  0  0
M  END
> <minimizedAffinity>
-6.03741

$$$$
6GOT_F6W_A_304


 21 22  0  0  0  0  0  0  0  0999 V2000
   -4.8660    3.3895   15.2268 C   0  0  0  0  0  0  0  0  0  0  0  0
   -4.8429    4.5708   14.4713 C   0  0  0  0  0  0  0  0  0  0  0  0
   -4.4492    2.1362   13.2505 C   0  0  0  0  0  0  0  0  0  0  0  0
   -4.4328    3.3040   12.4754 C   0  0  0  0  0  0  0  0  0  0  0  0
   -4.6340    4.5265   13.0928 C   0  0  0  0  0  0  0  0  0  0  0  0
   -4.6822    2.1382   14.6398 C   0  0  0  0  0  0  0  0  0  0  0  0
   -3.5441    0.8481   16.4130 O   0  0  0  0  0  0  0  0  0  0  0  0
   -4.6550    0.7759   15.5312 S   0  0  0  0  0  0  0  0  0  0  0  0
   -4.5627   -0.3538   14.6615 O   0  0  0  0  0  0  0  0  0  0  0  0
   -6.0002    0.6190   16.4563 N   0  0  0  0  0  0  0  0  0  0  0  0
   -6.0776    1.4204   17.0825 H   0  0  0  0  0  0  0  0  0  0  0  0
   -5.9364   -0.2375   17.0066 H   0  0  0  0  0  0  0  0  0  0  0  0
   -4.5855    5.9836   12.2369 S   0  0  0  0  0  0  0  0  0  0  0  0
   -2.9174    6.3878   11.9080 C   0  0  0  0  0  0  0  0  0  0  0  0
   -2.5857    5.9070   10.5040 C   0  0  0  0  0  0  0  0  0  0  0  0
    1.3549    4.3103   10.4836 C   0  0  0  0  0  0  0  0  0  0  0  0
   -1.2026    5.3443   10.4744 C   0  0  0  0  0  0  0  0  0  0  0  0
   -0.3224    5.7324    9.4708 C   0  0  0  0  0  0  0  0  0  0  0  0
    0.9647    5.2102    9.4965 C   0  0  0  0  0  0  0  0  0  0  0  0
    0.4635    3.9315   11.4759 C   0  0  0  0  0  0  0  0  0  0  0  0
   -0.8214    4.4478   11.4713 C   0  0  0  0  0  0  0  0  0  0  0  0
 19 18  2  0  0  0
 19 16  1  0  0  0
 18 17  1  0  0  0
 16 20  2  0  0  0
 14 13  1  0  0  0
 14 15  1  0  0  0
 13  5  1  0  0  0
 17 15  1  0  0  0
 17 21  2  0  0  0
  5  2  2  0  0  0
  5  4  1  0  0  0
 20 21  1  0  0  0
  2  1  1  0  0  0
  4  3  2  0  0  0
  1  6  2  0  0  0
  3  6  1  0  0  0
  6  8  1  0  0  0
 10  8  1  0  0  0
  7  8  2  0  0  0
  8  9  2  0  0  0
 10 11  1  0  0  0
 10 12  1  0  0  0
M  END
> <minimizedAffinity>
-5.94842

$$$$
