5ULP_KB1_A_301


 41 44  0  0  0  0  0  0  0  0999 V2000
   -5.9270   -2.3587   26.5106 C   0  0  0  0  0  0  0  0  0  0  0  0
   -5.0765   -1.3286   26.9846 O   0  0  0  0  0  0  0  0  0  0  0  0
   -5.2717   -0.1505   26.2220 C   0  0  0  0  0  0  0  0  0  0  0  0
   -6.7289   -0.3129   25.6431 C   0  0  0  0  0  0  0  0  0  0  0  0
   -6.6936   -0.3872   24.2332 O   0  0  0  0  0  0  0  0  0  0  0  0
   -7.2620   -1.6384   26.2513 C   0  0  0  0  0  0  0  0  0  0  0  0
   -8.0393   -2.3596   25.3267 O   0  0  0  0  0  0  0  0  0  0  0  0
   -6.1330   -1.1311   23.9625 H   0  0  0  0  0  0  0  0  0  0  0  0
   -7.5235   -2.5112   24.5194 H   0  0  0  0  0  0  0  0  0  0  0  0
   -6.2960   -7.4183   29.8809 N   0  0  0  0  0  0  0  0  0  0  0  0
   -6.0857   -6.7114   28.6901 C   0  0  0  0  0  0  0  0  0  0  0  0
   -5.8010   -7.3995   27.5606 N   0  0  0  0  0  0  0  0  0  0  0  0
   -5.6125   -6.6993   26.4026 C   0  0  0  0  0  0  0  0  0  0  0  0
   -5.6516   -5.3729   26.2211 N   0  0  0  0  0  0  0  0  0  0  0  0
   -5.9368   -4.7076   27.3510 C   0  0  0  0  0  0  0  0  0  0  0  0
   -6.1505   -5.3139   28.6309 C   0  0  0  0  0  0  0  0  0  0  0  0
   -6.4138   -4.3207   29.5780 N   0  0  0  0  0  0  0  0  0  0  0  0
   -6.3463   -3.1699   28.9004 C   0  0  0  0  0  0  0  0  0  0  0  0
   -6.0754   -3.3536   27.5397 N   0  0  0  0  0  0  0  0  0  0  0  0
   -6.2427   -8.4014   29.8857 H   0  0  0  0  0  0  0  0  0  0  0  0
   -6.4971   -6.9322   30.7130 H   0  0  0  0  0  0  0  0  0  0  0  0
   -5.1120    1.0812   27.1347 C   0  0  0  0  0  0  0  0  0  0  0  0
   -3.8151    1.7847   26.9906 N   0  0  0  0  0  0  0  0  0  0  0  0
   -3.3273    2.1011   28.3841 C   0  0  0  0  0  0  0  0  0  0  0  0
   -4.1987    1.5058   29.5043 C   0  0  0  0  0  0  0  0  0  0  0  0
   -3.3563    0.7011   30.4677 C   0  0  0  0  0  0  0  0  0  0  0  0
   -1.9225    0.7921   30.0662 N   0  0  0  0  0  0  0  0  0  0  0  0
   -1.8027    0.3855   29.1385 H   0  0  0  0  0  0  0  0  0  0  0  0
   -1.3484    0.2821   30.7376 H   0  0  0  0  0  0  0  0  0  0  0  0
   -3.7557   -0.7897   30.5341 C   0  0  0  0  0  0  0  0  0  0  0  0
   -3.6264   -1.4549   29.5087 O   0  0  0  0  0  0  0  0  0  0  0  0
   -4.1570   -1.2305   31.6526 O   0  0  0  0  0  0  0  0  0  0  0  0
   -3.3223   -1.0479   28.7214 H   0  0  0  0  0  0  0  0  0  0  0  0
   -3.9995    3.0342   26.1689 C   0  0  0  0  0  0  0  0  0  0  0  0
   -3.3547    2.8881   24.7984 C   0  0  0  0  0  0  0  0  0  0  0  0
   -2.4317    1.8740   24.5604 C   0  0  0  0  0  0  0  0  0  0  0  0
   -1.8378    1.7009   23.3117 C   0  0  0  0  0  0  0  0  0  0  0  0
   -2.1863    2.5542   22.2715 C   0  0  0  0  0  0  0  0  0  0  0  0
   -1.6238    2.4028   21.0635 F   0  0  0  0  0  0  0  0  0  0  0  0
   -3.1140    3.5747   22.4648 C   0  0  0  0  0  0  0  0  0  0  0  0
   -3.6948    3.7192   23.7252 C   0  0  0  0  0  0  0  0  0  0  0  0
 32 30  2  0  0  0
 31 30  1  0  0  0
 30 26  1  0  0  0
 26 27  1  0  0  0
 26 25  1  0  0  0
 25 24  1  0  0  0
 24 23  1  0  0  0
  5  4  1  0  0  0
 23 22  1  0  0  0
 23 34  1  0  0  0
  3  4  1  0  0  0
  3  2  1  0  0  0
  3 22  1  0  0  0
  4  6  1  0  0  0
 14 13  2  0  0  0
 14 15  1  0  0  0
 13 12  1  0  0  0
  7  6  1  0  0  0
  1  2  1  0  0  0
  1  6  1  0  0  0
  1 19  1  0  0  0
 34 35  1  0  0  0
 15 19  1  0  0  0
 15 16  2  0  0  0
 12 11  2  0  0  0
 19 18  1  0  0  0
 36 35  2  0  0  0
 36 37  1  0  0  0
 35 41  1  0  0  0
 16 11  1  0  0  0
 16 17  1  0  0  0
 11 10  1  0  0  0
 37 38  2  0  0  0
 18 17  2  0  0  0
 41 40  2  0  0  0
 38 40  1  0  0  0
 38 39  1  0  0  0
 10 20  1  0  0  0
 10 21  1  0  0  0
 27 28  1  0  0  0
 27 29  1  0  0  0
 31 33  1  0  0  0
  5  8  1  0  0  0
  7  9  1  0  0  0
M  END
> <minimizedAffinity>
-9.73577

$$$$
5ULP_KB1_A_301


 41 44  0  0  0  0  0  0  0  0999 V2000
   -5.9068   -2.3306   26.5730 C   0  0  0  0  0  0  0  0  0  0  0  0
   -5.1221   -1.2657   27.0824 O   0  0  0  0  0  0  0  0  0  0  0  0
   -5.3487   -0.0912   26.3229 C   0  0  0  0  0  0  0  0  0  0  0  0
   -6.7771   -0.3172   25.6956 C   0  0  0  0  0  0  0  0  0  0  0  0
   -6.6930   -0.3767   24.2871 O   0  0  0  0  0  0  0  0  0  0  0  0
   -7.2657   -1.6720   26.2759 C   0  0  0  0  0  0  0  0  0  0  0  0
   -7.9775   -2.4207   25.3211 O   0  0  0  0  0  0  0  0  0  0  0  0
   -6.0891   -1.0907   24.0291 H   0  0  0  0  0  0  0  0  0  0  0  0
   -7.4293   -2.5403   24.5298 H   0  0  0  0  0  0  0  0  0  0  0  0
   -6.2459   -7.4413   29.8686 N   0  0  0  0  0  0  0  0  0  0  0  0
   -6.0569   -6.7168   28.6847 C   0  0  0  0  0  0  0  0  0  0  0  0
   -5.8060   -7.3889   27.5377 N   0  0  0  0  0  0  0  0  0  0  0  0
   -5.6380   -6.6716   26.3871 C   0  0  0  0  0  0  0  0  0  0  0  0
   -5.6682   -5.3421   26.2281 N   0  0  0  0  0  0  0  0  0  0  0  0
   -5.9199   -4.6928   27.3752 C   0  0  0  0  0  0  0  0  0  0  0  0
   -6.1092   -5.3180   28.6498 C   0  0  0  0  0  0  0  0  0  0  0  0
   -6.3402   -4.3381   29.6190 N   0  0  0  0  0  0  0  0  0  0  0  0
   -6.2773   -3.1769   28.9587 C   0  0  0  0  0  0  0  0  0  0  0  0
   -6.0406   -3.3408   27.5892 N   0  0  0  0  0  0  0  0  0  0  0  0
   -6.2022   -8.4247   29.8561 H   0  0  0  0  0  0  0  0  0  0  0  0
   -6.4224   -6.9670   30.7130 H   0  0  0  0  0  0  0  0  0  0  0  0
   -5.2773    1.1382   27.2497 C   0  0  0  0  0  0  0  0  0  0  0  0
   -4.2691    2.1483   26.8487 N   0  0  0  0  0  0  0  0  0  0  0  0
   -4.1419    3.1239   27.9942 C   0  0  0  0  0  0  0  0  0  0  0  0
   -2.6996    3.3210   28.4935 C   0  0  0  0  0  0  0  0  0  0  0  0
   -1.8282    2.1543   28.0874 C   0  0  0  0  0  0  0  0  0  0  0  0
   -1.8243    1.1365   29.1780 N   0  0  0  0  0  0  0  0  0  0  0  0
   -1.4205    1.5437   30.0216 H   0  0  0  0  0  0  0  0  0  0  0  0
   -1.2686    0.3312   28.8896 H   0  0  0  0  0  0  0  0  0  0  0  0
   -0.3679    2.5560   27.7833 C   0  0  0  0  0  0  0  0  0  0  0  0
    0.5201    1.9482   28.3770 O   0  0  0  0  0  0  0  0  0  0  0  0
   -0.1873    3.4626   26.9160 O   0  0  0  0  0  0  0  0  0  0  0  0
    0.2977    1.2900   29.0056 H   0  0  0  0  0  0  0  0  0  0  0  0
   -4.7080    2.8337   25.5807 C   0  0  0  0  0  0  0  0  0  0  0  0
   -3.6910    2.6286   24.4675 C   0  0  0  0  0  0  0  0  0  0  0  0
   -3.7351    3.4165   23.3213 C   0  0  0  0  0  0  0  0  0  0  0  0
   -2.8071    3.2673   22.2924 C   0  0  0  0  0  0  0  0  0  0  0  0
   -1.8016    2.3163   22.4195 C   0  0  0  0  0  0  0  0  0  0  0  0
   -0.9007    2.1584   21.4386 F   0  0  0  0  0  0  0  0  0  0  0  0
   -1.7154    1.5151   23.5553 C   0  0  0  0  0  0  0  0  0  0  0  0
   -2.6564    1.6919   24.5701 C   0  0  0  0  0  0  0  0  0  0  0  0
 32 30  2  0  0  0
 31 30  1  0  0  0
 30 26  1  0  0  0
 26 27  1  0  0  0
 26 25  1  0  0  0
 25 24  1  0  0  0
 24 23  1  0  0  0
  5  4  1  0  0  0
 23 22  1  0  0  0
 23 34  1  0  0  0
  3  4  1  0  0  0
  3  2  1  0  0  0
  3 22  1  0  0  0
  4  6  1  0  0  0
 14 13  2  0  0  0
 14 15  1  0  0  0
 13 12  1  0  0  0
  7  6  1  0  0  0
  1  2  1  0  0  0
  1  6  1  0  0  0
  1 19  1  0  0  0
 34 35  1  0  0  0
 15 19  1  0  0  0
 15 16  2  0  0  0
 12 11  2  0  0  0
 19 18  1  0  0  0
 36 35  2  0  0  0
 36 37  1  0  0  0
 35 41  1  0  0  0
 16 11  1  0  0  0
 16 17  1  0  0  0
 11 10  1  0  0  0
 37 38  2  0  0  0
 18 17  2  0  0  0
 41 40  2  0  0  0
 38 40  1  0  0  0
 38 39  1  0  0  0
 10 20  1  0  0  0
 10 21  1  0  0  0
 27 28  1  0  0  0
 27 29  1  0  0  0
 31 33  1  0  0  0
  5  8  1  0  0  0
  7  9  1  0  0  0
M  END
> <minimizedAffinity>
-9.38798

$$$$
5ULP_KB1_A_301


 41 44  0  0  0  0  0  0  0  0999 V2000
   -5.3166   -2.2492   26.7478 C   0  0  0  0  0  0  0  0  0  0  0  0
   -3.9161   -2.0302   26.7553 O   0  0  0  0  0  0  0  0  0  0  0  0
   -3.6200   -0.7714   26.1761 C   0  0  0  0  0  0  0  0  0  0  0  0
   -4.9504    0.0530   26.3644 C   0  0  0  0  0  0  0  0  0  0  0  0
   -5.5061    0.3853   25.1093 O   0  0  0  0  0  0  0  0  0  0  0  0
   -5.9008   -0.8853   27.1565 C   0  0  0  0  0  0  0  0  0  0  0  0
   -7.2322   -0.7684   26.7176 O   0  0  0  0  0  0  0  0  0  0  0  0
   -5.6748   -0.4261   24.6054 H   0  0  0  0  0  0  0  0  0  0  0  0
   -7.2732   -0.9311   25.7622 H   0  0  0  0  0  0  0  0  0  0  0  0
   -6.5302   -7.3410   29.8616 N   0  0  0  0  0  0  0  0  0  0  0  0
   -6.1884   -6.6209   28.7098 C   0  0  0  0  0  0  0  0  0  0  0  0
   -5.9888   -7.2919   27.5521 N   0  0  0  0  0  0  0  0  0  0  0  0
   -5.6702   -6.5766   26.4324 C   0  0  0  0  0  0  0  0  0  0  0  0
   -5.5012   -5.2532   26.3154 N   0  0  0  0  0  0  0  0  0  0  0  0
   -5.7050   -4.6046   27.4723 C   0  0  0  0  0  0  0  0  0  0  0  0
   -6.0366   -5.2289   28.7180 C   0  0  0  0  0  0  0  0  0  0  0  0
   -6.1645   -4.2516   29.7087 N   0  0  0  0  0  0  0  0  0  0  0  0
   -5.9065   -3.0951   29.0891 C   0  0  0  0  0  0  0  0  0  0  0  0
   -5.6380   -3.2556   27.7250 N   0  0  0  0  0  0  0  0  0  0  0  0
   -6.6286   -8.3196   29.8191 H   0  0  0  0  0  0  0  0  0  0  0  0
   -6.6720   -6.8684   30.7135 H   0  0  0  0  0  0  0  0  0  0  0  0
   -2.4094   -0.1487   26.8986 C   0  0  0  0  0  0  0  0  0  0  0  0
   -2.3485    1.3307   26.8255 N   0  0  0  0  0  0  0  0  0  0  0  0
   -1.2244    1.6801   25.8797 C   0  0  0  0  0  0  0  0  0  0  0  0
   -1.6739    2.4614   24.6323 C   0  0  0  0  0  0  0  0  0  0  0  0
   -1.7257    1.5558   23.4230 C   0  0  0  0  0  0  0  0  0  0  0  0
   -1.0342    0.2717   23.7366 N   0  0  0  0  0  0  0  0  0  0  0  0
   -0.0521    0.4557   23.9420 H   0  0  0  0  0  0  0  0  0  0  0  0
   -1.1022   -0.3556   22.9352 H   0  0  0  0  0  0  0  0  0  0  0  0
   -1.0727    2.1728   22.1663 C   0  0  0  0  0  0  0  0  0  0  0  0
   -1.5810    1.9091   21.0788 O   0  0  0  0  0  0  0  0  0  0  0  0
   -0.0774    2.9363   22.3487 O   0  0  0  0  0  0  0  0  0  0  0  0
   -2.3180    1.3323   21.0336 H   0  0  0  0  0  0  0  0  0  0  0  0
   -2.1160    1.9016   28.2004 C   0  0  0  0  0  0  0  0  0  0  0  0
   -3.3327    1.6968   29.0910 C   0  0  0  0  0  0  0  0  0  0  0  0
   -3.3115    0.7392   30.1005 C   0  0  0  0  0  0  0  0  0  0  0  0
   -4.4016    0.5400   30.9456 C   0  0  0  0  0  0  0  0  0  0  0  0
   -5.5353    1.3278   30.7862 C   0  0  0  0  0  0  0  0  0  0  0  0
   -6.5940    1.1491   31.5899 F   0  0  0  0  0  0  0  0  0  0  0  0
   -5.5931    2.3047   29.7954 C   0  0  0  0  0  0  0  0  0  0  0  0
   -4.4836    2.4833   28.9683 C   0  0  0  0  0  0  0  0  0  0  0  0
 32 30  2  0  0  0
 31 30  1  0  0  0
 30 26  1  0  0  0
 26 27  1  0  0  0
 26 25  1  0  0  0
 25 24  1  0  0  0
 24 23  1  0  0  0
  5  4  1  0  0  0
 23 22  1  0  0  0
 23 34  1  0  0  0
  3  4  1  0  0  0
  3  2  1  0  0  0
  3 22  1  0  0  0
  4  6  1  0  0  0
 14 13  2  0  0  0
 14 15  1  0  0  0
 13 12  1  0  0  0
  7  6  1  0  0  0
  1  2  1  0  0  0
  1  6  1  0  0  0
  1 19  1  0  0  0
 34 35  1  0  0  0
 15 19  1  0  0  0
 15 16  2  0  0  0
 12 11  2  0  0  0
 19 18  1  0  0  0
 36 35  2  0  0  0
 36 37  1  0  0  0
 35 41  1  0  0  0
 16 11  1  0  0  0
 16 17  1  0  0  0
 11 10  1  0  0  0
 37 38  2  0  0  0
 18 17  2  0  0  0
 41 40  2  0  0  0
 38 40  1  0  0  0
 38 39  1  0  0  0
 10 20  1  0  0  0
 10 21  1  0  0  0
 27 28  1  0  0  0
 27 29  1  0  0  0
 31 33  1  0  0  0
  5  8  1  0  0  0
  7  9  1  0  0  0
M  END
> <minimizedAffinity>
-9.14151

$$$$
5ULP_KB1_A_301


 41 44  0  0  0  0  0  0  0  0999 V2000
   -5.8999   -2.3637   26.3987 C   0  0  0  0  0  0  0  0  0  0  0  0
   -4.9803   -1.3569   26.7860 O   0  0  0  0  0  0  0  0  0  0  0  0
   -5.1731   -0.1958   25.9972 C   0  0  0  0  0  0  0  0  0  0  0  0
   -6.6685   -0.3132   25.5122 C   0  0  0  0  0  0  0  0  0  0  0  0
   -6.7226   -0.4328   24.1060 O   0  0  0  0  0  0  0  0  0  0  0  0
   -7.2175   -1.5948   26.1956 C   0  0  0  0  0  0  0  0  0  0  0  0
   -8.0789   -2.3102   25.3440 O   0  0  0  0  0  0  0  0  0  0  0  0
   -6.2107   -1.2083   23.8276 H   0  0  0  0  0  0  0  0  0  0  0  0
   -7.6201   -2.5091   24.5128 H   0  0  0  0  0  0  0  0  0  0  0  0
   -6.2209   -7.2931   29.9613 N   0  0  0  0  0  0  0  0  0  0  0  0
   -6.0428   -6.6326   28.7391 C   0  0  0  0  0  0  0  0  0  0  0  0
   -5.8077   -7.3649   27.6261 N   0  0  0  0  0  0  0  0  0  0  0  0
   -5.6503   -6.7096   26.4376 C   0  0  0  0  0  0  0  0  0  0  0  0
   -5.6771   -5.3901   26.2095 N   0  0  0  0  0  0  0  0  0  0  0  0
   -5.9130   -4.6805   27.3237 C   0  0  0  0  0  0  0  0  0  0  0  0
   -6.0900   -5.2373   28.6314 C   0  0  0  0  0  0  0  0  0  0  0  0
   -6.3060   -4.2068   29.5504 N   0  0  0  0  0  0  0  0  0  0  0  0
   -6.2462   -3.0822   28.8295 C   0  0  0  0  0  0  0  0  0  0  0  0
   -6.0259   -3.3187   27.4678 N   0  0  0  0  0  0  0  0  0  0  0  0
   -6.1813   -8.2760   30.0000 H   0  0  0  0  0  0  0  0  0  0  0  0
   -6.3858   -6.7744   30.7817 H   0  0  0  0  0  0  0  0  0  0  0  0
   -4.9073    1.0556   26.8566 C   0  0  0  0  0  0  0  0  0  0  0  0
   -3.6692    1.7895   26.5012 N   0  0  0  0  0  0  0  0  0  0  0  0
   -3.4876    1.6519   25.0085 C   0  0  0  0  0  0  0  0  0  0  0  0
   -2.1589    2.2235   24.4827 C   0  0  0  0  0  0  0  0  0  0  0  0
   -1.5283    1.2804   23.4836 C   0  0  0  0  0  0  0  0  0  0  0  0
   -0.4267    0.5229   24.1454 N   0  0  0  0  0  0  0  0  0  0  0  0
    0.2959    1.1734   24.4536 H   0  0  0  0  0  0  0  0  0  0  0  0
   -0.0259   -0.1419   23.4836 H   0  0  0  0  0  0  0  0  0  0  0  0
   -0.9559    1.9969   22.2405 C   0  0  0  0  0  0  0  0  0  0  0  0
   -1.5182    1.7988   21.1658 O   0  0  0  0  0  0  0  0  0  0  0  0
    0.0344    2.7669   22.4230 O   0  0  0  0  0  0  0  0  0  0  0  0
   -2.2464    1.2110   21.1194 H   0  0  0  0  0  0  0  0  0  0  0  0
   -2.4996    1.2166   27.2588 C   0  0  0  0  0  0  0  0  0  0  0  0
   -1.7416    2.3070   28.0017 C   0  0  0  0  0  0  0  0  0  0  0  0
   -0.4099    2.5707   27.6955 C   0  0  0  0  0  0  0  0  0  0  0  0
    0.3068    3.5750   28.3433 C   0  0  0  0  0  0  0  0  0  0  0  0
   -0.3283    4.3441   29.3111 C   0  0  0  0  0  0  0  0  0  0  0  0
    0.3465    5.3142   29.9453 F   0  0  0  0  0  0  0  0  0  0  0  0
   -1.6630    4.1201   29.6393 C   0  0  0  0  0  0  0  0  0  0  0  0
   -2.3549    3.1104   28.9695 C   0  0  0  0  0  0  0  0  0  0  0  0
 32 30  2  0  0  0
 31 30  1  0  0  0
 30 26  1  0  0  0
 26 27  1  0  0  0
 26 25  1  0  0  0
 25 24  1  0  0  0
 24 23  1  0  0  0
  5  4  1  0  0  0
 23 22  1  0  0  0
 23 34  1  0  0  0
  3  4  1  0  0  0
  3  2  1  0  0  0
  3 22  1  0  0  0
  4  6  1  0  0  0
 14 13  2  0  0  0
 14 15  1  0  0  0
 13 12  1  0  0  0
  7  6  1  0  0  0
  1  2  1  0  0  0
  1  6  1  0  0  0
  1 19  1  0  0  0
 34 35  1  0  0  0
 15 19  1  0  0  0
 15 16  2  0  0  0
 12 11  2  0  0  0
 19 18  1  0  0  0
 36 35  2  0  0  0
 36 37  1  0  0  0
 35 41  1  0  0  0
 16 11  1  0  0  0
 16 17  1  0  0  0
 11 10  1  0  0  0
 37 38  2  0  0  0
 18 17  2  0  0  0
 41 40  2  0  0  0
 38 40  1  0  0  0
 38 39  1  0  0  0
 10 20  1  0  0  0
 10 21  1  0  0  0
 27 28  1  0  0  0
 27 29  1  0  0  0
 31 33  1  0  0  0
  5  8  1  0  0  0
  7  9  1  0  0  0
M  END
> <minimizedAffinity>
-9.10241

$$$$
5ULP_KB1_A_301


 41 44  0  0  0  0  0  0  0  0999 V2000
   -5.2894   -1.9452   26.6230 C   0  0  0  0  0  0  0  0  0  0  0  0
   -3.8972   -1.7294   26.4664 O   0  0  0  0  0  0  0  0  0  0  0  0
   -3.6694   -0.4902   25.8183 C   0  0  0  0  0  0  0  0  0  0  0  0
   -4.9712    0.3429   26.1287 C   0  0  0  0  0  0  0  0  0  0  0  0
   -5.6646    0.6370   24.9340 O   0  0  0  0  0  0  0  0  0  0  0  0
   -5.8256   -0.5678   27.0516 C   0  0  0  0  0  0  0  0  0  0  0  0
   -7.1980   -0.4615   26.7613 O   0  0  0  0  0  0  0  0  0  0  0  0
   -5.8879   -0.1895   24.4780 H   0  0  0  0  0  0  0  0  0  0  0  0
   -7.3457   -0.6541   25.8222 H   0  0  0  0  0  0  0  0  0  0  0  0
   -6.1452   -6.9332   30.0115 N   0  0  0  0  0  0  0  0  0  0  0  0
   -5.9370   -6.2504   28.8064 C   0  0  0  0  0  0  0  0  0  0  0  0
   -5.8729   -6.9575   27.6548 N   0  0  0  0  0  0  0  0  0  0  0  0
   -5.6840   -6.2784   26.4843 C   0  0  0  0  0  0  0  0  0  0  0  0
   -5.5275   -4.9600   26.3078 N   0  0  0  0  0  0  0  0  0  0  0  0
   -5.5957   -4.2753   27.4598 C   0  0  0  0  0  0  0  0  0  0  0  0
   -5.7829   -4.8596   28.7540 C   0  0  0  0  0  0  0  0  0  0  0  0
   -5.7944   -3.8519   29.7222 N   0  0  0  0  0  0  0  0  0  0  0  0
   -5.6075   -2.7162   29.0416 C   0  0  0  0  0  0  0  0  0  0  0  0
   -5.4979   -2.9196   27.6613 N   0  0  0  0  0  0  0  0  0  0  0  0
   -6.2495   -7.9122   30.0109 H   0  0  0  0  0  0  0  0  0  0  0  0
   -6.1874   -6.4342   30.8591 H   0  0  0  0  0  0  0  0  0  0  0  0
   -2.3860    0.1520   26.3804 C   0  0  0  0  0  0  0  0  0  0  0  0
   -1.9701    1.3947   25.6872 N   0  0  0  0  0  0  0  0  0  0  0  0
   -1.2583    0.9776   24.4226 C   0  0  0  0  0  0  0  0  0  0  0  0
   -1.9328    1.4719   23.1306 C   0  0  0  0  0  0  0  0  0  0  0  0
   -0.9288    2.1545   22.2297 C   0  0  0  0  0  0  0  0  0  0  0  0
   -1.4923    2.2617   20.8527 N   0  0  0  0  0  0  0  0  0  0  0  0
   -1.6564    1.3270   20.4787 H   0  0  0  0  0  0  0  0  0  0  0  0
   -0.8325    2.7568   20.2528 H   0  0  0  0  0  0  0  0  0  0  0  0
    0.4261    1.4166   22.1515 C   0  0  0  0  0  0  0  0  0  0  0  0
    0.4964    0.4430   21.4047 O   0  0  0  0  0  0  0  0  0  0  0  0
    1.3811    1.8889   22.8383 O   0  0  0  0  0  0  0  0  0  0  0  0
   -0.2613    0.1595   20.9319 H   0  0  0  0  0  0  0  0  0  0  0  0
   -1.0753    2.2072   26.5868 C   0  0  0  0  0  0  0  0  0  0  0  0
   -0.7556    3.5587   25.9648 C   0  0  0  0  0  0  0  0  0  0  0  0
    0.5664    3.9500   25.7753 C   0  0  0  0  0  0  0  0  0  0  0  0
    0.8929    5.1723   25.1909 C   0  0  0  0  0  0  0  0  0  0  0  0
   -0.1279    6.0177   24.7728 C   0  0  0  0  0  0  0  0  0  0  0  0
    0.1681    7.1982   24.2094 F   0  0  0  0  0  0  0  0  0  0  0  0
   -1.4638    5.6589   24.9341 C   0  0  0  0  0  0  0  0  0  0  0  0
   -1.7584    4.4265   25.5181 C   0  0  0  0  0  0  0  0  0  0  0  0
 32 30  2  0  0  0
 31 30  1  0  0  0
 30 26  1  0  0  0
 26 27  1  0  0  0
 26 25  1  0  0  0
 25 24  1  0  0  0
 24 23  1  0  0  0
  5  4  1  0  0  0
 23 22  1  0  0  0
 23 34  1  0  0  0
  3  4  1  0  0  0
  3  2  1  0  0  0
  3 22  1  0  0  0
  4  6  1  0  0  0
 14 13  2  0  0  0
 14 15  1  0  0  0
 13 12  1  0  0  0
  7  6  1  0  0  0
  1  2  1  0  0  0
  1  6  1  0  0  0
  1 19  1  0  0  0
 34 35  1  0  0  0
 15 19  1  0  0  0
 15 16  2  0  0  0
 12 11  2  0  0  0
 19 18  1  0  0  0
 36 35  2  0  0  0
 36 37  1  0  0  0
 35 41  1  0  0  0
 16 11  1  0  0  0
 16 17  1  0  0  0
 11 10  1  0  0  0
 37 38  2  0  0  0
 18 17  2  0  0  0
 41 40  2  0  0  0
 38 40  1  0  0  0
 38 39  1  0  0  0
 10 20  1  0  0  0
 10 21  1  0  0  0
 27 28  1  0  0  0
 27 29  1  0  0  0
 31 33  1  0  0  0
  5  8  1  0  0  0
  7  9  1  0  0  0
M  END
> <minimizedAffinity>
-9.06447

$$$$
5ULP_KB1_A_301


 41 44  0  0  0  0  0  0  0  0999 V2000
   -1.9997    0.9667   26.4716 C   0  0  0  0  0  0  0  0  0  0  0  0
   -3.0333    0.0283   26.7166 O   0  0  0  0  0  0  0  0  0  0  0  0
   -3.1621   -0.1972   28.1096 C   0  0  0  0  0  0  0  0  0  0  0  0
   -2.5689    1.1106   28.7599 C   0  0  0  0  0  0  0  0  0  0  0  0
   -1.4191    0.8046   29.5208 O   0  0  0  0  0  0  0  0  0  0  0  0
   -2.2083    2.0316   27.5629 C   0  0  0  0  0  0  0  0  0  0  0  0
   -1.0155    2.7410   27.7932 O   0  0  0  0  0  0  0  0  0  0  0  0
   -0.7601    0.3758   28.9527 H   0  0  0  0  0  0  0  0  0  0  0  0
   -0.3025    2.1165   27.9995 H   0  0  0  0  0  0  0  0  0  0  0  0
   -1.6229    2.7806   20.6696 N   0  0  0  0  0  0  0  0  0  0  0  0
   -1.1701    2.1027   21.8087 C   0  0  0  0  0  0  0  0  0  0  0  0
    0.0005    1.4274   21.7477 N   0  0  0  0  0  0  0  0  0  0  0  0
    0.4385    0.7825   22.8698 C   0  0  0  0  0  0  0  0  0  0  0  0
   -0.1589    0.7034   24.0659 N   0  0  0  0  0  0  0  0  0  0  0  0
   -1.3169    1.3802   24.1080 C   0  0  0  0  0  0  0  0  0  0  0  0
   -1.8939    2.0922   23.0073 C   0  0  0  0  0  0  0  0  0  0  0  0
   -3.1030    2.6672   23.4077 N   0  0  0  0  0  0  0  0  0  0  0  0
   -3.2522    2.3040   24.6860 C   0  0  0  0  0  0  0  0  0  0  0  0
   -2.1844    1.5349   25.1623 N   0  0  0  0  0  0  0  0  0  0  0  0
   -1.0878    2.7667   19.8433 H   0  0  0  0  0  0  0  0  0  0  0  0
   -2.4762    3.2710   20.6953 H   0  0  0  0  0  0  0  0  0  0  0  0
   -4.6461   -0.4304   28.4543 C   0  0  0  0  0  0  0  0  0  0  0  0
   -5.1173   -1.8166   28.2213 N   0  0  0  0  0  0  0  0  0  0  0  0
   -6.6101   -1.7450   28.0058 C   0  0  0  0  0  0  0  0  0  0  0  0
   -7.0851   -2.3824   26.6879 C   0  0  0  0  0  0  0  0  0  0  0  0
   -7.4679   -1.3175   25.6855 C   0  0  0  0  0  0  0  0  0  0  0  0
   -8.0684   -1.9636   24.4825 N   0  0  0  0  0  0  0  0  0  0  0  0
   -7.3764   -2.5685   24.0403 H   0  0  0  0  0  0  0  0  0  0  0  0
   -8.3631   -1.2445   23.8218 H   0  0  0  0  0  0  0  0  0  0  0  0
   -6.2764   -0.4447   25.2329 C   0  0  0  0  0  0  0  0  0  0  0  0
   -5.2032   -1.0113   25.0385 O   0  0  0  0  0  0  0  0  0  0  0  0
   -6.4988    0.7912   25.0606 O   0  0  0  0  0  0  0  0  0  0  0  0
   -5.1253   -1.9324   25.1916 H   0  0  0  0  0  0  0  0  0  0  0  0
   -4.7671   -2.6815   29.4044 C   0  0  0  0  0  0  0  0  0  0  0  0
   -5.2888   -4.0989   29.2195 C   0  0  0  0  0  0  0  0  0  0  0  0
   -5.1466   -4.7461   27.9958 C   0  0  0  0  0  0  0  0  0  0  0  0
   -5.5958   -6.0506   27.7993 C   0  0  0  0  0  0  0  0  0  0  0  0
   -6.1889   -6.7295   28.8570 C   0  0  0  0  0  0  0  0  0  0  0  0
   -6.6280   -7.9851   28.6855 F   0  0  0  0  0  0  0  0  0  0  0  0
   -6.3402   -6.1219   30.1010 C   0  0  0  0  0  0  0  0  0  0  0  0
   -5.8759   -4.8168   30.2675 C   0  0  0  0  0  0  0  0  0  0  0  0
 32 30  2  0  0  0
 31 30  1  0  0  0
 30 26  1  0  0  0
 26 27  1  0  0  0
 26 25  1  0  0  0
 25 24  1  0  0  0
 24 23  1  0  0  0
  5  4  1  0  0  0
 23 22  1  0  0  0
 23 34  1  0  0  0
  3  4  1  0  0  0
  3  2  1  0  0  0
  3 22  1  0  0  0
  4  6  1  0  0  0
 14 13  2  0  0  0
 14 15  1  0  0  0
 13 12  1  0  0  0
  7  6  1  0  0  0
  1  2  1  0  0  0
  1  6  1  0  0  0
  1 19  1  0  0  0
 34 35  1  0  0  0
 15 19  1  0  0  0
 15 16  2  0  0  0
 12 11  2  0  0  0
 19 18  1  0  0  0
 36 35  2  0  0  0
 36 37  1  0  0  0
 35 41  1  0  0  0
 16 11  1  0  0  0
 16 17  1  0  0  0
 11 10  1  0  0  0
 37 38  2  0  0  0
 18 17  2  0  0  0
 41 40  2  0  0  0
 38 40  1  0  0  0
 38 39  1  0  0  0
 10 20  1  0  0  0
 10 21  1  0  0  0
 27 28  1  0  0  0
 27 29  1  0  0  0
 31 33  1  0  0  0
  5  8  1  0  0  0
  7  9  1  0  0  0
M  END
> <minimizedAffinity>
-8.96356

$$$$
5ULP_KB1_A_301


 41 44  0  0  0  0  0  0  0  0999 V2000
   -4.1232    1.1004   28.0142 C   0  0  0  0  0  0  0  0  0  0  0  0
   -3.8525    2.4832   27.8600 O   0  0  0  0  0  0  0  0  0  0  0  0
   -2.6410    2.8153   28.5156 C   0  0  0  0  0  0  0  0  0  0  0  0
   -1.8530    1.4510   28.5661 C   0  0  0  0  0  0  0  0  0  0  0  0
   -1.6563    1.0447   29.9042 O   0  0  0  0  0  0  0  0  0  0  0  0
   -2.7507    0.4354   27.8084 C   0  0  0  0  0  0  0  0  0  0  0  0
   -2.7234   -0.8348   28.4124 O   0  0  0  0  0  0  0  0  0  0  0  0
   -2.5156    0.9600   30.3461 H   0  0  0  0  0  0  0  0  0  0  0  0
   -2.9732   -0.7543   29.3462 H   0  0  0  0  0  0  0  0  0  0  0  0
   -8.1068   -1.7602   24.4027 N   0  0  0  0  0  0  0  0  0  0  0  0
   -7.2781   -1.6530   25.5269 C   0  0  0  0  0  0  0  0  0  0  0  0
   -7.2091   -2.6908   26.3920 N   0  0  0  0  0  0  0  0  0  0  0  0
   -6.3860   -2.5795   27.4769 C   0  0  0  0  0  0  0  0  0  0  0  0
   -5.6202   -1.5398   27.8322 N   0  0  0  0  0  0  0  0  0  0  0  0
   -5.7001   -0.5213   26.9621 C   0  0  0  0  0  0  0  0  0  0  0  0
   -6.5250   -0.5025   25.7914 C   0  0  0  0  0  0  0  0  0  0  0  0
   -6.3642    0.7172   25.1285 N   0  0  0  0  0  0  0  0  0  0  0  0
   -5.4940    1.4048   25.8756 C   0  0  0  0  0  0  0  0  0  0  0  0
   -5.0484    0.6880   26.9920 N   0  0  0  0  0  0  0  0  0  0  0  0
   -8.6223   -2.5845   24.2481 H   0  0  0  0  0  0  0  0  0  0  0  0
   -8.1736   -1.0113   23.7672 H   0  0  0  0  0  0  0  0  0  0  0  0
   -1.9111    3.9118   27.7155 C   0  0  0  0  0  0  0  0  0  0  0  0
   -0.8085    3.4125   26.8595 N   0  0  0  0  0  0  0  0  0  0  0  0
    0.4451    4.1377   27.2866 C   0  0  0  0  0  0  0  0  0  0  0  0
    0.1948    5.3049   28.2580 C   0  0  0  0  0  0  0  0  0  0  0  0
    0.9792    5.1153   29.5363 C   0  0  0  0  0  0  0  0  0  0  0  0
    1.7886    3.8659   29.4395 N   0  0  0  0  0  0  0  0  0  0  0  0
    1.1659    3.0644   29.3382 H   0  0  0  0  0  0  0  0  0  0  0  0
    2.3483    3.7570   30.2852 H   0  0  0  0  0  0  0  0  0  0  0  0
    0.0884    5.0287   30.7954 C   0  0  0  0  0  0  0  0  0  0  0  0
   -1.0237    5.5488   30.7370 O   0  0  0  0  0  0  0  0  0  0  0  0
    0.5547    4.3965   31.7901 O   0  0  0  0  0  0  0  0  0  0  0  0
   -1.2900    5.9991   29.9597 H   0  0  0  0  0  0  0  0  0  0  0  0
   -1.1312    3.6665   25.4098 C   0  0  0  0  0  0  0  0  0  0  0  0
   -0.5023    2.6081   24.5155 C   0  0  0  0  0  0  0  0  0  0  0  0
   -0.8745    1.2727   24.6384 C   0  0  0  0  0  0  0  0  0  0  0  0
   -0.3321    0.2820   23.8221 C   0  0  0  0  0  0  0  0  0  0  0  0
    0.5946    0.6377   22.8494 C   0  0  0  0  0  0  0  0  0  0  0  0
    1.1276   -0.3029   22.0557 F   0  0  0  0  0  0  0  0  0  0  0  0
    0.9857    1.9643   22.6862 C   0  0  0  0  0  0  0  0  0  0  0  0
    0.4210    2.9337   23.5157 C   0  0  0  0  0  0  0  0  0  0  0  0
 32 30  2  0  0  0
 31 30  1  0  0  0
 30 26  1  0  0  0
 26 27  1  0  0  0
 26 25  1  0  0  0
 25 24  1  0  0  0
 24 23  1  0  0  0
  5  4  1  0  0  0
 23 22  1  0  0  0
 23 34  1  0  0  0
  3  4  1  0  0  0
  3  2  1  0  0  0
  3 22  1  0  0  0
  4  6  1  0  0  0
 14 13  2  0  0  0
 14 15  1  0  0  0
 13 12  1  0  0  0
  7  6  1  0  0  0
  1  2  1  0  0  0
  1  6  1  0  0  0
  1 19  1  0  0  0
 34 35  1  0  0  0
 15 19  1  0  0  0
 15 16  2  0  0  0
 12 11  2  0  0  0
 19 18  1  0  0  0
 36 35  2  0  0  0
 36 37  1  0  0  0
 35 41  1  0  0  0
 16 11  1  0  0  0
 16 17  1  0  0  0
 11 10  1  0  0  0
 37 38  2  0  0  0
 18 17  2  0  0  0
 41 40  2  0  0  0
 38 40  1  0  0  0
 38 39  1  0  0  0
 10 20  1  0  0  0
 10 21  1  0  0  0
 27 28  1  0  0  0
 27 29  1  0  0  0
 31 33  1  0  0  0
  5  8  1  0  0  0
  7  9  1  0  0  0
M  END
> <minimizedAffinity>
-8.84555

$$$$
5ULP_KB1_A_301


 41 44  0  0  0  0  0  0  0  0999 V2000
   -5.8147   -2.2712   26.3613 C   0  0  0  0  0  0  0  0  0  0  0  0
   -4.9116   -1.2238   26.6721 O   0  0  0  0  0  0  0  0  0  0  0  0
   -5.0804   -0.1526   25.7601 C   0  0  0  0  0  0  0  0  0  0  0  0
   -6.5579   -0.3293   25.2397 C   0  0  0  0  0  0  0  0  0  0  0  0
   -6.5634   -0.5955   23.8528 O   0  0  0  0  0  0  0  0  0  0  0  0
   -7.1266   -1.5361   26.0344 C   0  0  0  0  0  0  0  0  0  0  0  0
   -7.9564   -2.3419   25.2337 O   0  0  0  0  0  0  0  0  0  0  0  0
   -6.0402   -1.3926   23.6745 H   0  0  0  0  0  0  0  0  0  0  0  0
   -7.4688   -2.6236   24.4438 H   0  0  0  0  0  0  0  0  0  0  0  0
   -6.3579   -6.8086   30.3877 N   0  0  0  0  0  0  0  0  0  0  0  0
   -6.1677   -6.2801   29.1045 C   0  0  0  0  0  0  0  0  0  0  0  0
   -6.0048   -7.1286   28.0635 N   0  0  0  0  0  0  0  0  0  0  0  0
   -5.8348   -6.6008   26.8148 C   0  0  0  0  0  0  0  0  0  0  0  0
   -5.7849   -5.3100   26.4610 N   0  0  0  0  0  0  0  0  0  0  0  0
   -5.9501   -4.4839   27.5055 C   0  0  0  0  0  0  0  0  0  0  0  0
   -6.1307   -4.9012   28.8637 C   0  0  0  0  0  0  0  0  0  0  0  0
   -6.2606   -3.7763   29.6827 N   0  0  0  0  0  0  0  0  0  0  0  0
   -6.1479   -2.7315   28.8557 C   0  0  0  0  0  0  0  0  0  0  0  0
   -5.9747   -3.1101   27.5196 N   0  0  0  0  0  0  0  0  0  0  0  0
   -6.3785   -7.7839   30.5203 H   0  0  0  0  0  0  0  0  0  0  0  0
   -6.4710   -6.2047   31.1570 H   0  0  0  0  0  0  0  0  0  0  0  0
   -4.8476    1.1834   26.4924 C   0  0  0  0  0  0  0  0  0  0  0  0
   -3.4790    1.7328   26.3415 N   0  0  0  0  0  0  0  0  0  0  0  0
   -2.9344    1.2083   25.0345 C   0  0  0  0  0  0  0  0  0  0  0  0
   -1.4350    1.4838   24.8237 C   0  0  0  0  0  0  0  0  0  0  0  0
   -0.9863    0.9941   23.4657 C   0  0  0  0  0  0  0  0  0  0  0  0
    0.4271    0.5247   23.5512 N   0  0  0  0  0  0  0  0  0  0  0  0
    1.0295    1.3055   23.8117 H   0  0  0  0  0  0  0  0  0  0  0  0
    0.7189    0.1576   22.6454 H   0  0  0  0  0  0  0  0  0  0  0  0
   -1.0816    2.0717   22.3629 C   0  0  0  0  0  0  0  0  0  0  0  0
   -1.5589    1.7328   21.2822 O   0  0  0  0  0  0  0  0  0  0  0  0
   -0.6915    3.2400   22.6622 O   0  0  0  0  0  0  0  0  0  0  0  0
   -1.8227    0.8443   21.1445 H   0  0  0  0  0  0  0  0  0  0  0  0
   -2.6261    1.3094   27.5092 C   0  0  0  0  0  0  0  0  0  0  0  0
   -3.1020    1.9611   28.7993 C   0  0  0  0  0  0  0  0  0  0  0  0
   -3.5714    1.1790   29.8503 C   0  0  0  0  0  0  0  0  0  0  0  0
   -3.9961    1.7431   31.0517 C   0  0  0  0  0  0  0  0  0  0  0  0
   -3.9365    3.1224   31.2110 C   0  0  0  0  0  0  0  0  0  0  0  0
   -4.3422    3.6825   32.3602 F   0  0  0  0  0  0  0  0  0  0  0  0
   -3.4629    3.9401   30.1880 C   0  0  0  0  0  0  0  0  0  0  0  0
   -3.0403    3.3448   28.9989 C   0  0  0  0  0  0  0  0  0  0  0  0
 32 30  2  0  0  0
 31 30  1  0  0  0
 30 26  1  0  0  0
 26 27  1  0  0  0
 26 25  1  0  0  0
 25 24  1  0  0  0
 24 23  1  0  0  0
  5  4  1  0  0  0
 23 22  1  0  0  0
 23 34  1  0  0  0
  3  4  1  0  0  0
  3  2  1  0  0  0
  3 22  1  0  0  0
  4  6  1  0  0  0
 14 13  2  0  0  0
 14 15  1  0  0  0
 13 12  1  0  0  0
  7  6  1  0  0  0
  1  2  1  0  0  0
  1  6  1  0  0  0
  1 19  1  0  0  0
 34 35  1  0  0  0
 15 19  1  0  0  0
 15 16  2  0  0  0
 12 11  2  0  0  0
 19 18  1  0  0  0
 36 35  2  0  0  0
 36 37  1  0  0  0
 35 41  1  0  0  0
 16 11  1  0  0  0
 16 17  1  0  0  0
 11 10  1  0  0  0
 37 38  2  0  0  0
 18 17  2  0  0  0
 41 40  2  0  0  0
 38 40  1  0  0  0
 38 39  1  0  0  0
 10 20  1  0  0  0
 10 21  1  0  0  0
 27 28  1  0  0  0
 27 29  1  0  0  0
 31 33  1  0  0  0
  5  8  1  0  0  0
  7  9  1  0  0  0
M  END
> <minimizedAffinity>
-8.71846

$$$$
5ULP_KB1_A_301


 41 44  0  0  0  0  0  0  0  0999 V2000
   -3.8781    0.9110   28.9248 C   0  0  0  0  0  0  0  0  0  0  0  0
   -4.3127    2.1162   28.3183 O   0  0  0  0  0  0  0  0  0  0  0  0
   -3.6049    3.2155   28.8643 C   0  0  0  0  0  0  0  0  0  0  0  0
   -2.2703    2.5739   29.4049 C   0  0  0  0  0  0  0  0  0  0  0  0
   -2.1878    2.7164   30.8076 O   0  0  0  0  0  0  0  0  0  0  0  0
   -2.3501    1.0751   29.0072 C   0  0  0  0  0  0  0  0  0  0  0  0
   -1.8186    0.2420   30.0085 O   0  0  0  0  0  0  0  0  0  0  0  0
   -2.9599    2.2992   31.2208 H   0  0  0  0  0  0  0  0  0  0  0  0
   -2.2683    0.4199   30.8494 H   0  0  0  0  0  0  0  0  0  0  0  0
   -5.5654   -4.3983   26.4634 N   0  0  0  0  0  0  0  0  0  0  0  0
   -5.3045   -3.5333   27.5337 C   0  0  0  0  0  0  0  0  0  0  0  0
   -5.4639   -3.9877   28.7979 N   0  0  0  0  0  0  0  0  0  0  0  0
   -5.1920   -3.1386   29.8333 C   0  0  0  0  0  0  0  0  0  0  0  0
   -4.7922   -1.8618   29.7741 N   0  0  0  0  0  0  0  0  0  0  0  0
   -4.6378   -1.4293   28.5132 C   0  0  0  0  0  0  0  0  0  0  0  0
   -4.8929   -2.2091   27.3392 C   0  0  0  0  0  0  0  0  0  0  0  0
   -4.6358   -1.4371   26.2030 N   0  0  0  0  0  0  0  0  0  0  0  0
   -4.2582   -0.2438   26.6738 C   0  0  0  0  0  0  0  0  0  0  0  0
   -4.2274   -0.1944   28.0721 N   0  0  0  0  0  0  0  0  0  0  0  0
   -5.8532   -5.3236   26.6372 H   0  0  0  0  0  0  0  0  0  0  0  0
   -5.4610   -4.0811   25.5373 H   0  0  0  0  0  0  0  0  0  0  0  0
   -3.3727    4.2704   27.7650 C   0  0  0  0  0  0  0  0  0  0  0  0
   -1.9727    4.3547   27.2845 N   0  0  0  0  0  0  0  0  0  0  0  0
   -1.3401    5.5401   27.9735 C   0  0  0  0  0  0  0  0  0  0  0  0
    0.1971    5.5607   27.9020 C   0  0  0  0  0  0  0  0  0  0  0  0
    0.7979    4.8335   29.0833 C   0  0  0  0  0  0  0  0  0  0  0  0
    1.8846    5.6659   29.6761 N   0  0  0  0  0  0  0  0  0  0  0  0
    2.6250    5.7992   28.9873 H   0  0  0  0  0  0  0  0  0  0  0  0
    2.2647    5.1945   30.4969 H   0  0  0  0  0  0  0  0  0  0  0  0
    1.3800    3.4494   28.7201 C   0  0  0  0  0  0  0  0  0  0  0  0
    0.6697    2.6935   28.0609 O   0  0  0  0  0  0  0  0  0  0  0  0
    2.5644    3.2038   29.0991 O   0  0  0  0  0  0  0  0  0  0  0  0
   -0.1979    2.9551   27.8223 H   0  0  0  0  0  0  0  0  0  0  0  0
   -1.9548    4.5080   25.7856 C   0  0  0  0  0  0  0  0  0  0  0  0
   -1.3743    3.2710   25.1159 C   0  0  0  0  0  0  0  0  0  0  0  0
   -0.4537    3.3992   24.0802 C   0  0  0  0  0  0  0  0  0  0  0  0
    0.1113    2.2870   23.4591 C   0  0  0  0  0  0  0  0  0  0  0  0
   -0.2425    1.0154   23.8942 C   0  0  0  0  0  0  0  0  0  0  0  0
    0.2905   -0.0662   23.3071 F   0  0  0  0  0  0  0  0  0  0  0  0
   -1.1517    0.8435   24.9350 C   0  0  0  0  0  0  0  0  0  0  0  0
   -1.6962    1.9768   25.5399 C   0  0  0  0  0  0  0  0  0  0  0  0
 32 30  2  0  0  0
 31 30  1  0  0  0
 30 26  1  0  0  0
 26 27  1  0  0  0
 26 25  1  0  0  0
 25 24  1  0  0  0
 24 23  1  0  0  0
  5  4  1  0  0  0
 23 22  1  0  0  0
 23 34  1  0  0  0
  3  4  1  0  0  0
  3  2  1  0  0  0
  3 22  1  0  0  0
  4  6  1  0  0  0
 14 13  2  0  0  0
 14 15  1  0  0  0
 13 12  1  0  0  0
  7  6  1  0  0  0
  1  2  1  0  0  0
  1  6  1  0  0  0
  1 19  1  0  0  0
 34 35  1  0  0  0
 15 19  1  0  0  0
 15 16  2  0  0  0
 12 11  2  0  0  0
 19 18  1  0  0  0
 36 35  2  0  0  0
 36 37  1  0  0  0
 35 41  1  0  0  0
 16 11  1  0  0  0
 16 17  1  0  0  0
 11 10  1  0  0  0
 37 38  2  0  0  0
 18 17  2  0  0  0
 41 40  2  0  0  0
 38 40  1  0  0  0
 38 39  1  0  0  0
 10 20  1  0  0  0
 10 21  1  0  0  0
 27 28  1  0  0  0
 27 29  1  0  0  0
 31 33  1  0  0  0
  5  8  1  0  0  0
  7  9  1  0  0  0
M  END
> <minimizedAffinity>
-8.62736

$$$$
5ULP_KB1_A_301


 41 44  0  0  0  0  0  0  0  0999 V2000
   -2.6411    1.9180   27.4494 C   0  0  0  0  0  0  0  0  0  0  0  0
   -2.6870    3.2979   27.7704 O   0  0  0  0  0  0  0  0  0  0  0  0
   -1.3890    3.7620   28.0981 C   0  0  0  0  0  0  0  0  0  0  0  0
   -0.4295    2.7451   27.3699 C   0  0  0  0  0  0  0  0  0  0  0  0
    0.3422    2.0330   28.3143 O   0  0  0  0  0  0  0  0  0  0  0  0
   -1.3702    1.7857   26.5915 C   0  0  0  0  0  0  0  0  0  0  0  0
   -0.8967    0.4612   26.6138 O   0  0  0  0  0  0  0  0  0  0  0  0
   -0.2470    1.5677   28.9285 H   0  0  0  0  0  0  0  0  0  0  0  0
   -0.7687    0.1790   27.5330 H   0  0  0  0  0  0  0  0  0  0  0  0
   -7.3022   -0.7646   24.5908 N   0  0  0  0  0  0  0  0  0  0  0  0
   -6.1574   -0.7554   25.3977 C   0  0  0  0  0  0  0  0  0  0  0  0
   -5.6957   -1.9262   25.8942 N   0  0  0  0  0  0  0  0  0  0  0  0
   -4.5698   -1.9056   26.6679 C   0  0  0  0  0  0  0  0  0  0  0  0
   -3.8377   -0.8465   27.0368 N   0  0  0  0  0  0  0  0  0  0  0  0
   -4.3092    0.3047   26.5339 C   0  0  0  0  0  0  0  0  0  0  0  0
   -5.4790    0.4273   25.7166 C   0  0  0  0  0  0  0  0  0  0  0  0
   -5.6755    1.7703   25.3839 N   0  0  0  0  0  0  0  0  0  0  0  0
   -4.6777    2.4255   25.9867 C   0  0  0  0  0  0  0  0  0  0  0  0
   -3.8111    1.5765   26.6843 N   0  0  0  0  0  0  0  0  0  0  0  0
   -7.7540   -1.6152   24.3869 H   0  0  0  0  0  0  0  0  0  0  0  0
   -7.6551    0.0796   24.2274 H   0  0  0  0  0  0  0  0  0  0  0  0
   -1.2260    5.2134   27.6059 C   0  0  0  0  0  0  0  0  0  0  0  0
    0.0189    5.4633   26.8406 N   0  0  0  0  0  0  0  0  0  0  0  0
    0.8472    6.4327   27.6495 C   0  0  0  0  0  0  0  0  0  0  0  0
    0.2892    6.7135   29.0560 C   0  0  0  0  0  0  0  0  0  0  0  0
    1.0173    5.8914   30.0949 C   0  0  0  0  0  0  0  0  0  0  0  0
    1.7609    4.7880   29.4205 N   0  0  0  0  0  0  0  0  0  0  0  0
    1.0997    4.1717   28.9478 H   0  0  0  0  0  0  0  0  0  0  0  0
    2.2842    4.2559   30.1158 H   0  0  0  0  0  0  0  0  0  0  0  0
    0.0799    5.2762   31.1574 C   0  0  0  0  0  0  0  0  0  0  0  0
    0.5675    4.4590   31.9353 O   0  0  0  0  0  0  0  0  0  0  0  0
   -1.1203    5.6837   31.1738 O   0  0  0  0  0  0  0  0  0  0  0  0
    1.4676    4.2123   31.8521 H   0  0  0  0  0  0  0  0  0  0  0  0
   -0.3190    6.0197   25.4818 C   0  0  0  0  0  0  0  0  0  0  0  0
   -0.7362    4.9122   24.5252 C   0  0  0  0  0  0  0  0  0  0  0  0
   -2.0543    4.8202   24.0885 C   0  0  0  0  0  0  0  0  0  0  0  0
   -2.4646    3.8301   23.1978 C   0  0  0  0  0  0  0  0  0  0  0  0
   -1.5304    2.9182   22.7211 C   0  0  0  0  0  0  0  0  0  0  0  0
   -1.9079    1.9581   21.8642 F   0  0  0  0  0  0  0  0  0  0  0  0
   -0.1990    2.9822   23.1246 C   0  0  0  0  0  0  0  0  0  0  0  0
    0.1817    3.9881   24.0134 C   0  0  0  0  0  0  0  0  0  0  0  0
 32 30  2  0  0  0
 31 30  1  0  0  0
 30 26  1  0  0  0
 26 27  1  0  0  0
 26 25  1  0  0  0
 25 24  1  0  0  0
 24 23  1  0  0  0
  5  4  1  0  0  0
 23 22  1  0  0  0
 23 34  1  0  0  0
  3  4  1  0  0  0
  3  2  1  0  0  0
  3 22  1  0  0  0
  4  6  1  0  0  0
 14 13  2  0  0  0
 14 15  1  0  0  0
 13 12  1  0  0  0
  7  6  1  0  0  0
  1  2  1  0  0  0
  1  6  1  0  0  0
  1 19  1  0  0  0
 34 35  1  0  0  0
 15 19  1  0  0  0
 15 16  2  0  0  0
 12 11  2  0  0  0
 19 18  1  0  0  0
 36 35  2  0  0  0
 36 37  1  0  0  0
 35 41  1  0  0  0
 16 11  1  0  0  0
 16 17  1  0  0  0
 11 10  1  0  0  0
 37 38  2  0  0  0
 18 17  2  0  0  0
 41 40  2  0  0  0
 38 40  1  0  0  0
 38 39  1  0  0  0
 10 20  1  0  0  0
 10 21  1  0  0  0
 27 28  1  0  0  0
 27 29  1  0  0  0
 31 33  1  0  0  0
  5  8  1  0  0  0
  7  9  1  0  0  0
M  END
> <minimizedAffinity>
-8.61359

$$$$
