2CEQ_GIM_A_1492


 19 20  0  0  0  0  0  0  0  0999 V2000
  118.5638   39.1852   63.5365 C   0  0  0  0  0  0  0  0  0  0  0  0
  118.2034   37.9730   62.7399 C   0  0  0  0  0  0  0  0  0  0  0  0
  119.6409   39.9733   63.3256 N   0  0  0  0  0  0  0  0  0  0  0  0
  119.2540   37.7427   61.6499 C   0  0  0  0  0  0  0  0  0  0  0  0
  119.7600   39.0674   61.0958 C   0  0  0  0  0  0  0  0  0  0  0  0
  120.6067   39.7269   62.2103 C   0  0  0  0  0  0  0  0  0  0  0  0
  118.5211   40.7986   65.0118 C   0  0  0  0  0  0  0  0  0  0  0  0
  119.6181   40.9869   64.2039 C   0  0  0  0  0  0  0  0  0  0  0  0
  117.8802   39.6831   64.5863 N   0  0  0  0  0  0  0  0  0  0  0  0
  118.6478   36.9596   60.6158 O   0  0  0  0  0  0  0  0  0  0  0  0
  118.1651   36.8020   63.5634 O   0  0  0  0  0  0  0  0  0  0  0  0
  120.5329   38.7822   59.9288 O   0  0  0  0  0  0  0  0  0  0  0  0
  117.0595   39.3031   64.9754 H   0  0  0  0  0  0  0  0  0  0  0  0
  117.8840   37.4363   60.2549 H   0  0  0  0  0  0  0  0  0  0  0  0
  119.0419   36.6492   63.9491 H   0  0  0  0  0  0  0  0  0  0  0  0
  121.2537   38.1752   60.1587 H   0  0  0  0  0  0  0  0  0  0  0  0
  121.3028   41.0033   61.7349 C   0  0  0  0  0  0  0  0  0  0  0  0
  122.2916   40.6717   60.7505 O   0  0  0  0  0  0  0  0  0  0  0  0
  122.9474   40.0725   61.1400 H   0  0  0  0  0  0  0  0  0  0  0  0
  1  2  1  0  0  0
  1  3  2  0  0  0
  1  9  1  0  0  0
  2  4  1  0  0  0
  2 11  1  0  0  0
  3  6  1  0  0  0
  3  8  1  0  0  0
  4  5  1  0  0  0
  4 10  1  0  0  0
  5  6  1  0  0  0
  5 12  1  0  0  0
  6 17  1  0  0  0
 17 18  1  0  0  0
  7  8  2  0  0  0
  7  9  1  0  0  0
  9 13  1  0  0  0
 10 14  1  0  0  0
 11 15  1  0  0  0
 12 16  1  0  0  0
 18 19  1  0  0  0
M  CHG 1   3   1
M  END
> <minimizedAffinity>
-8.49327

$$$$
2CEQ_GIM_A_1492


 19 20  0  0  0  0  0  0  0  0999 V2000
  118.2353   40.4927   64.4817 C   0  0  0  0  0  0  0  0  0  0  0  0
  118.7189   39.7156   63.3002 C   0  0  0  0  0  0  0  0  0  0  0  0
  117.6640   41.7164   64.4380 N   0  0  0  0  0  0  0  0  0  0  0  0
  118.4855   40.5252   62.0215 C   0  0  0  0  0  0  0  0  0  0  0  0
  117.1879   41.3165   62.1098 C   0  0  0  0  0  0  0  0  0  0  0  0
  117.4150   42.4378   63.1515 C   0  0  0  0  0  0  0  0  0  0  0  0
  117.7308   41.0775   66.5274 C   0  0  0  0  0  0  0  0  0  0  0  0
  117.3208   42.0819   65.6822 C   0  0  0  0  0  0  0  0  0  0  0  0
  118.2923   40.1033   65.7711 N   0  0  0  0  0  0  0  0  0  0  0  0
  118.4453   39.6075   60.9232 O   0  0  0  0  0  0  0  0  0  0  0  0
  120.1219   39.4443   63.3949 O   0  0  0  0  0  0  0  0  0  0  0  0
  116.9083   41.8373   60.8094 O   0  0  0  0  0  0  0  0  0  0  0  0
  118.6746   39.2596   66.1046 H   0  0  0  0  0  0  0  0  0  0  0  0
  117.7246   38.9727   61.0585 H   0  0  0  0  0  0  0  0  0  0  0  0
  120.6123   40.2809   63.4160 H   0  0  0  0  0  0  0  0  0  0  0  0
  117.6552   42.3793   60.5106 H   0  0  0  0  0  0  0  0  0  0  0  0
  116.2333   43.4056   63.2327 C   0  0  0  0  0  0  0  0  0  0  0  0
  115.0230   42.7134   62.8968 O   0  0  0  0  0  0  0  0  0  0  0  0
  115.0909   42.3622   61.9952 H   0  0  0  0  0  0  0  0  0  0  0  0
  1  2  1  0  0  0
  1  3  2  0  0  0
  1  9  1  0  0  0
  2  4  1  0  0  0
  2 11  1  0  0  0
  3  6  1  0  0  0
  3  8  1  0  0  0
  4  5  1  0  0  0
  4 10  1  0  0  0
  5  6  1  0  0  0
  5 12  1  0  0  0
  6 17  1  0  0  0
 17 18  1  0  0  0
  7  8  2  0  0  0
  7  9  1  0  0  0
  9 13  1  0  0  0
 10 14  1  0  0  0
 11 15  1  0  0  0
 12 16  1  0  0  0
 18 19  1  0  0  0
M  CHG 1   3   1
M  END
> <minimizedAffinity>
-6.56895

$$$$
2CEQ_GIM_A_1492


 19 20  0  0  0  0  0  0  0  0999 V2000
  117.7359   42.1866   62.4316 C   0  0  0  0  0  0  0  0  0  0  0  0
  118.5683   40.9454   62.4116 C   0  0  0  0  0  0  0  0  0  0  0  0
  116.8734   42.5396   63.4100 N   0  0  0  0  0  0  0  0  0  0  0  0
  118.2845   40.1155   63.6668 C   0  0  0  0  0  0  0  0  0  0  0  0
  118.0393   41.0168   64.8690 C   0  0  0  0  0  0  0  0  0  0  0  0
  116.6758   41.7113   64.6397 C   0  0  0  0  0  0  0  0  0  0  0  0
  116.8466   44.1090   61.8886 C   0  0  0  0  0  0  0  0  0  0  0  0
  116.3373   43.7318   63.1091 C   0  0  0  0  0  0  0  0  0  0  0  0
  117.7092   43.1454   61.4842 N   0  0  0  0  0  0  0  0  0  0  0  0
  119.4133   39.2644   63.8938 O   0  0  0  0  0  0  0  0  0  0  0  0
  118.2629   40.1326   61.2728 O   0  0  0  0  0  0  0  0  0  0  0  0
  118.0349   40.1922   66.0355 O   0  0  0  0  0  0  0  0  0  0  0  0
  118.2256   43.1454   60.6460 H   0  0  0  0  0  0  0  0  0  0  0  0
  120.2074   39.8072   64.0189 H   0  0  0  0  0  0  0  0  0  0  0  0
  117.3325   39.8608   61.3097 H   0  0  0  0  0  0  0  0  0  0  0  0
  117.3581   39.5037   65.9422 H   0  0  0  0  0  0  0  0  0  0  0  0
  116.2328   42.5385   65.8477 C   0  0  0  0  0  0  0  0  0  0  0  0
  117.3875   43.0434   66.5322 O   0  0  0  0  0  0  0  0  0  0  0  0
  117.9354   42.3015   66.8327 H   0  0  0  0  0  0  0  0  0  0  0  0
  1  2  1  0  0  0
  1  3  2  0  0  0
  1  9  1  0  0  0
  2  4  1  0  0  0
  2 11  1  0  0  0
  3  6  1  0  0  0
  3  8  1  0  0  0
  4  5  1  0  0  0
  4 10  1  0  0  0
  5  6  1  0  0  0
  5 12  1  0  0  0
  6 17  1  0  0  0
 17 18  1  0  0  0
  7  8  2  0  0  0
  7  9  1  0  0  0
  9 13  1  0  0  0
 10 14  1  0  0  0
 11 15  1  0  0  0
 12 16  1  0  0  0
 18 19  1  0  0  0
M  CHG 1   3   1
M  END
> <minimizedAffinity>
-6.28024

$$$$
2CEQ_GIM_A_1492


 19 20  0  0  0  0  0  0  0  0999 V2000
  116.6266   41.9866   63.5224 C   0  0  0  0  0  0  0  0  0  0  0  0
  116.9588   41.7557   64.9612 C   0  0  0  0  0  0  0  0  0  0  0  0
  117.2784   41.4480   62.4684 N   0  0  0  0  0  0  0  0  0  0  0  0
  118.1694   40.8239   65.0665 C   0  0  0  0  0  0  0  0  0  0  0  0
  118.1397   39.7700   63.9682 C   0  0  0  0  0  0  0  0  0  0  0  0
  118.4247   40.5017   62.6350 C   0  0  0  0  0  0  0  0  0  0  0  0
  115.6525   42.6874   61.6944 C   0  0  0  0  0  0  0  0  0  0  0  0
  116.6779   41.8437   61.3361 C   0  0  0  0  0  0  0  0  0  0  0  0
  115.6332   42.7643   63.0471 N   0  0  0  0  0  0  0  0  0  0  0  0
  118.1378   40.2092   66.3592 O   0  0  0  0  0  0  0  0  0  0  0  0
  117.2934   42.9820   65.6210 O   0  0  0  0  0  0  0  0  0  0  0  0
  119.1400   38.7970   64.2738 O   0  0  0  0  0  0  0  0  0  0  0  0
  115.0044   43.2948   63.5878 H   0  0  0  0  0  0  0  0  0  0  0  0
  117.3140   39.7069   66.4584 H   0  0  0  0  0  0  0  0  0  0  0  0
  118.0742   43.3735   65.1991 H   0  0  0  0  0  0  0  0  0  0  0  0
  120.0032   39.2331   64.3481 H   0  0  0  0  0  0  0  0  0  0  0  0
  118.5716   39.5344   61.4593 C   0  0  0  0  0  0  0  0  0  0  0  0
  119.8305   39.7574   60.8096 O   0  0  0  0  0  0  0  0  0  0  0  0
  119.8687   40.6700   60.4831 H   0  0  0  0  0  0  0  0  0  0  0  0
  1  2  1  0  0  0
  1  3  2  0  0  0
  1  9  1  0  0  0
  2  4  1  0  0  0
  2 11  1  0  0  0
  3  6  1  0  0  0
  3  8  1  0  0  0
  4  5  1  0  0  0
  4 10  1  0  0  0
  5  6  1  0  0  0
  5 12  1  0  0  0
  6 17  1  0  0  0
 17 18  1  0  0  0
  7  8  2  0  0  0
  7  9  1  0  0  0
  9 13  1  0  0  0
 10 14  1  0  0  0
 11 15  1  0  0  0
 12 16  1  0  0  0
 18 19  1  0  0  0
M  CHG 1   3   1
M  END
> <minimizedAffinity>
-6.26364

$$$$
2CEQ_GIM_A_1492


 19 20  0  0  0  0  0  0  0  0999 V2000
  116.9357   42.8274   64.1014 C   0  0  0  0  0  0  0  0  0  0  0  0
  116.4676   43.0797   62.7046 C   0  0  0  0  0  0  0  0  0  0  0  0
  117.4782   41.6752   64.5531 N   0  0  0  0  0  0  0  0  0  0  0  0
  116.6789   41.8225   61.8563 C   0  0  0  0  0  0  0  0  0  0  0  0
  117.9579   41.1031   62.2619 C   0  0  0  0  0  0  0  0  0  0  0  0
  117.7072   40.4954   63.6626 C   0  0  0  0  0  0  0  0  0  0  0  0
  117.4313   43.0954   66.2142 C   0  0  0  0  0  0  0  0  0  0  0  0
  117.8157   41.8284   65.8423 C   0  0  0  0  0  0  0  0  0  0  0  0
  116.8910   43.6996   65.1283 N   0  0  0  0  0  0  0  0  0  0  0  0
  116.7379   42.2251   60.4835 O   0  0  0  0  0  0  0  0  0  0  0  0
  115.0716   43.3977   62.6733 O   0  0  0  0  0  0  0  0  0  0  0  0
  118.2221   40.1010   61.2788 O   0  0  0  0  0  0  0  0  0  0  0  0
  116.5293   44.6147   65.0951 H   0  0  0  0  0  0  0  0  0  0  0  0
  117.4737   42.8450   60.3598 H   0  0  0  0  0  0  0  0  0  0  0  0
  114.5618   42.6500   63.0226 H   0  0  0  0  0  0  0  0  0  0  0  0
  117.4620   39.5017   61.2155 H   0  0  0  0  0  0  0  0  0  0  0  0
  118.8661   39.6140   64.1312 C   0  0  0  0  0  0  0  0  0  0  0  0
  118.5946   38.2466   63.7948 O   0  0  0  0  0  0  0  0  0  0  0  0
  117.7763   37.9625   64.2313 H   0  0  0  0  0  0  0  0  0  0  0  0
  1  2  1  0  0  0
  1  3  2  0  0  0
  1  9  1  0  0  0
  2  4  1  0  0  0
  2 11  1  0  0  0
  3  6  1  0  0  0
  3  8  1  0  0  0
  4  5  1  0  0  0
  4 10  1  0  0  0
  5  6  1  0  0  0
  5 12  1  0  0  0
  6 17  1  0  0  0
 17 18  1  0  0  0
  7  8  2  0  0  0
  7  9  1  0  0  0
  9 13  1  0  0  0
 10 14  1  0  0  0
 11 15  1  0  0  0
 12 16  1  0  0  0
 18 19  1  0  0  0
M  CHG 1   3   1
M  END
> <minimizedAffinity>
-6.20253

$$$$
2CEQ_GIM_A_1492


 19 20  0  0  0  0  0  0  0  0999 V2000
  118.7635   40.3529   63.7538 C   0  0  0  0  0  0  0  0  0  0  0  0
  118.5272   41.0294   65.0654 C   0  0  0  0  0  0  0  0  0  0  0  0
  118.0070   40.5022   62.6442 N   0  0  0  0  0  0  0  0  0  0  0  0
  117.2792   41.9118   64.9716 C   0  0  0  0  0  0  0  0  0  0  0  0
  117.1701   42.5523   63.5948 C   0  0  0  0  0  0  0  0  0  0  0  0
  116.8267   41.4199   62.5979 C   0  0  0  0  0  0  0  0  0  0  0  0
  119.6354   39.1232   62.1698 C   0  0  0  0  0  0  0  0  0  0  0  0
  118.5422   39.7767   61.6510 C   0  0  0  0  0  0  0  0  0  0  0  0
  119.7594   39.4903   63.4683 N   0  0  0  0  0  0  0  0  0  0  0  0
  117.3735   42.9136   65.9902 O   0  0  0  0  0  0  0  0  0  0  0  0
  118.3094   40.0753   66.1109 O   0  0  0  0  0  0  0  0  0  0  0  0
  116.1442   43.5443   63.6581 O   0  0  0  0  0  0  0  0  0  0  0  0
  120.4545   39.1814   64.0933 H   0  0  0  0  0  0  0  0  0  0  0  0
  118.1741   43.4430   65.8499 H   0  0  0  0  0  0  0  0  0  0  0  0
  117.5218   39.5470   65.9076 H   0  0  0  0  0  0  0  0  0  0  0  0
  115.3137   43.1327   63.9442 H   0  0  0  0  0  0  0  0  0  0  0  0
  116.5407   41.9487   61.1914 C   0  0  0  0  0  0  0  0  0  0  0  0
  117.2492   43.1790   60.9887 O   0  0  0  0  0  0  0  0  0  0  0  0
  116.9577   43.8318   61.6443 H   0  0  0  0  0  0  0  0  0  0  0  0
  1  2  1  0  0  0
  1  3  2  0  0  0
  1  9  1  0  0  0
  2  4  1  0  0  0
  2 11  1  0  0  0
  3  6  1  0  0  0
  3  8  1  0  0  0
  4  5  1  0  0  0
  4 10  1  0  0  0
  5  6  1  0  0  0
  5 12  1  0  0  0
  6 17  1  0  0  0
 17 18  1  0  0  0
  7  8  2  0  0  0
  7  9  1  0  0  0
  9 13  1  0  0  0
 10 14  1  0  0  0
 11 15  1  0  0  0
 12 16  1  0  0  0
 18 19  1  0  0  0
M  CHG 1   3   1
M  END
> <minimizedAffinity>
-6.17052

$$$$
2CEQ_GIM_A_1492


 19 20  0  0  0  0  0  0  0  0999 V2000
  120.2028   40.0290   61.6990 C   0  0  0  0  0  0  0  0  0  0  0  0
  120.3035   38.6393   61.1582 C   0  0  0  0  0  0  0  0  0  0  0  0
  119.2279   40.4867   62.5150 N   0  0  0  0  0  0  0  0  0  0  0  0
  119.1183   37.8068   61.6551 C   0  0  0  0  0  0  0  0  0  0  0  0
  118.7419   38.1947   63.0784 C   0  0  0  0  0  0  0  0  0  0  0  0
  118.1212   39.6103   63.0094 C   0  0  0  0  0  0  0  0  0  0  0  0
  120.6285   42.1253   62.1522 C   0  0  0  0  0  0  0  0  0  0  0  0
  119.4861   41.7652   62.8281 C   0  0  0  0  0  0  0  0  0  0  0  0
  121.0593   41.0425   61.4609 N   0  0  0  0  0  0  0  0  0  0  0  0
  119.4939   36.4267   61.5889 O   0  0  0  0  0  0  0  0  0  0  0  0
  120.2701   38.6347   59.7265 O   0  0  0  0  0  0  0  0  0  0  0  0
  117.8140   37.2221   63.5619 O   0  0  0  0  0  0  0  0  0  0  0  0
  121.8574   41.0028   60.8858 H   0  0  0  0  0  0  0  0  0  0  0  0
  120.2720   36.2763   62.1483 H   0  0  0  0  0  0  0  0  0  0  0  0
  119.4281   39.0076   59.4215 H   0  0  0  0  0  0  0  0  0  0  0  0
  117.0461   37.1859   62.9704 H   0  0  0  0  0  0  0  0  0  0  0  0
  117.5596   40.0666   64.3571 C   0  0  0  0  0  0  0  0  0  0  0  0
  116.2143   40.5319   64.1829 O   0  0  0  0  0  0  0  0  0  0  0  0
  116.2077   41.2769   63.5618 H   0  0  0  0  0  0  0  0  0  0  0  0
  1  2  1  0  0  0
  1  3  2  0  0  0
  1  9  1  0  0  0
  2  4  1  0  0  0
  2 11  1  0  0  0
  3  6  1  0  0  0
  3  8  1  0  0  0
  4  5  1  0  0  0
  4 10  1  0  0  0
  5  6  1  0  0  0
  5 12  1  0  0  0
  6 17  1  0  0  0
 17 18  1  0  0  0
  7  8  2  0  0  0
  7  9  1  0  0  0
  9 13  1  0  0  0
 10 14  1  0  0  0
 11 15  1  0  0  0
 12 16  1  0  0  0
 18 19  1  0  0  0
M  CHG 1   3   1
M  END
> <minimizedAffinity>
-6.12725

$$$$
2CEQ_GIM_A_1492


 19 20  0  0  0  0  0  0  0  0999 V2000
  118.0975   40.8352   62.0630 C   0  0  0  0  0  0  0  0  0  0  0  0
  116.7551   41.3234   61.6230 C   0  0  0  0  0  0  0  0  0  0  0  0
  118.6429   41.0276   63.2841 N   0  0  0  0  0  0  0  0  0  0  0  0
  116.0893   42.0966   62.7648 C   0  0  0  0  0  0  0  0  0  0  0  0
  116.4232   41.4696   64.1114 C   0  0  0  0  0  0  0  0  0  0  0  0
  117.9215   41.7487   64.3782 C   0  0  0  0  0  0  0  0  0  0  0  0
  120.0569   39.8650   62.0894 C   0  0  0  0  0  0  0  0  0  0  0  0
  119.8354   40.4150   63.3303 C   0  0  0  0  0  0  0  0  0  0  0  0
  118.9746   40.1320   61.3190 N   0  0  0  0  0  0  0  0  0  0  0  0
  114.6759   42.0837   62.5367 O   0  0  0  0  0  0  0  0  0  0  0  0
  116.8652   42.2085   60.5026 O   0  0  0  0  0  0  0  0  0  0  0  0
  115.5791   42.0743   65.0924 O   0  0  0  0  0  0  0  0  0  0  0  0
  118.8507   39.8603   60.3809 H   0  0  0  0  0  0  0  0  0  0  0  0
  114.3596   41.1669   62.5187 H   0  0  0  0  0  0  0  0  0  0  0  0
  117.3912   42.9839   60.7536 H   0  0  0  0  0  0  0  0  0  0  0  0
  115.7124   43.0351   65.0857 H   0  0  0  0  0  0  0  0  0  0  0  0
  118.3583   41.2998   65.7737 C   0  0  0  0  0  0  0  0  0  0  0  0
  117.3846   40.3953   66.3127 O   0  0  0  0  0  0  0  0  0  0  0  0
  116.5258   40.8423   66.3717 H   0  0  0  0  0  0  0  0  0  0  0  0
  1  2  1  0  0  0
  1  3  2  0  0  0
  1  9  1  0  0  0
  2  4  1  0  0  0
  2 11  1  0  0  0
  3  6  1  0  0  0
  3  8  1  0  0  0
  4  5  1  0  0  0
  4 10  1  0  0  0
  5  6  1  0  0  0
  5 12  1  0  0  0
  6 17  1  0  0  0
 17 18  1  0  0  0
  7  8  2  0  0  0
  7  9  1  0  0  0
  9 13  1  0  0  0
 10 14  1  0  0  0
 11 15  1  0  0  0
 12 16  1  0  0  0
 18 19  1  0  0  0
M  CHG 1   3   1
M  END
> <minimizedAffinity>
-5.93655

$$$$
2CEQ_GIM_A_1492


 19 20  0  0  0  0  0  0  0  0999 V2000
  117.0800   42.6555   62.9392 C   0  0  0  0  0  0  0  0  0  0  0  0
  117.5805   41.8861   61.7596 C   0  0  0  0  0  0  0  0  0  0  0  0
  117.1115   42.2355   64.2230 N   0  0  0  0  0  0  0  0  0  0  0  0
  118.1236   40.5311   62.2220 C   0  0  0  0  0  0  0  0  0  0  0  0
  118.8115   40.6555   63.5745 C   0  0  0  0  0  0  0  0  0  0  0  0
  117.7024   40.9201   64.6205 C   0  0  0  0  0  0  0  0  0  0  0  0
  116.2254   44.2335   64.1885 C   0  0  0  0  0  0  0  0  0  0  0  0
  116.6166   43.2023   65.0102 C   0  0  0  0  0  0  0  0  0  0  0  0
  116.5191   43.8811   62.9135 N   0  0  0  0  0  0  0  0  0  0  0  0
  119.0422   40.0648   61.2277 O   0  0  0  0  0  0  0  0  0  0  0  0
  116.5309   41.6370   60.8177 O   0  0  0  0  0  0  0  0  0  0  0  0
  119.5053   39.4316   63.8223 O   0  0  0  0  0  0  0  0  0  0  0  0
  116.3523   44.4245   62.1097 H   0  0  0  0  0  0  0  0  0  0  0  0
  119.7651   40.7042   61.1301 H   0  0  0  0  0  0  0  0  0  0  0  0
  115.8366   41.1073   61.2399 H   0  0  0  0  0  0  0  0  0  0  0  0
  118.8783   38.6922   63.7901 H   0  0  0  0  0  0  0  0  0  0  0  0
  118.2399   40.9191   66.0525 C   0  0  0  0  0  0  0  0  0  0  0  0
  117.2550   40.3623   66.9338 O   0  0  0  0  0  0  0  0  0  0  0  0
  116.4461   40.8961   66.8931 H   0  0  0  0  0  0  0  0  0  0  0  0
  1  2  1  0  0  0
  1  3  2  0  0  0
  1  9  1  0  0  0
  2  4  1  0  0  0
  2 11  1  0  0  0
  3  6  1  0  0  0
  3  8  1  0  0  0
  4  5  1  0  0  0
  4 10  1  0  0  0
  5  6  1  0  0  0
  5 12  1  0  0  0
  6 17  1  0  0  0
 17 18  1  0  0  0
  7  8  2  0  0  0
  7  9  1  0  0  0
  9 13  1  0  0  0
 10 14  1  0  0  0
 11 15  1  0  0  0
 12 16  1  0  0  0
 18 19  1  0  0  0
M  CHG 1   3   1
M  END
> <minimizedAffinity>
-5.75490

$$$$
2CEQ_GIM_A_1492


 19 20  0  0  0  0  0  0  0  0999 V2000
  116.0289   42.0578   63.6519 C   0  0  0  0  0  0  0  0  0  0  0  0
  115.4924   42.3027   65.0252 C   0  0  0  0  0  0  0  0  0  0  0  0
  117.2680   41.6046   63.3608 N   0  0  0  0  0  0  0  0  0  0  0  0
  116.5698   41.9782   66.0638 C   0  0  0  0  0  0  0  0  0  0  0  0
  117.4065   40.7852   65.6228 C   0  0  0  0  0  0  0  0  0  0  0  0
  118.2622   41.2552   64.4224 C   0  0  0  0  0  0  0  0  0  0  0  0
  116.1946   41.8896   61.4781 C   0  0  0  0  0  0  0  0  0  0  0  0
  117.3808   41.4674   62.0312 C   0  0  0  0  0  0  0  0  0  0  0  0
  115.3702   42.2496   62.4914 N   0  0  0  0  0  0  0  0  0  0  0  0
  115.9126   41.7043   67.3060 O   0  0  0  0  0  0  0  0  0  0  0  0
  115.1166   43.6735   65.2000 O   0  0  0  0  0  0  0  0  0  0  0  0
  118.2101   40.3848   66.7338 O   0  0  0  0  0  0  0  0  0  0  0  0
  114.4517   42.5911   62.3968 H   0  0  0  0  0  0  0  0  0  0  0  0
  115.3116   40.9511   67.1946 H   0  0  0  0  0  0  0  0  0  0  0  0
  115.8958   44.2396   65.0845 H   0  0  0  0  0  0  0  0  0  0  0  0
  118.7537   41.1331   67.0261 H   0  0  0  0  0  0  0  0  0  0  0  0
  119.2649   40.1924   63.9701 C   0  0  0  0  0  0  0  0  0  0  0  0
  118.7974   38.8946   64.3623 O   0  0  0  0  0  0  0  0  0  0  0  0
  118.7060   38.8619   65.3274 H   0  0  0  0  0  0  0  0  0  0  0  0
  1  2  1  0  0  0
  1  3  2  0  0  0
  1  9  1  0  0  0
  2  4  1  0  0  0
  2 11  1  0  0  0
  3  6  1  0  0  0
  3  8  1  0  0  0
  4  5  1  0  0  0
  4 10  1  0  0  0
  5  6  1  0  0  0
  5 12  1  0  0  0
  6 17  1  0  0  0
 17 18  1  0  0  0
  7  8  2  0  0  0
  7  9  1  0  0  0
  9 13  1  0  0  0
 10 14  1  0  0  0
 11 15  1  0  0  0
 12 16  1  0  0  0
 18 19  1  0  0  0
M  CHG 1   3   1
M  END
> <minimizedAffinity>
-5.69257

$$$$
