5KEJ_GTX_A_301


 33 32  0  0  0  0  0  0  0  0999 V2000
  -34.0607    5.6290  -31.9062 C   0  0  0  0  0  0  0  0  0  0  0  0
  -32.7028    7.0375  -30.4942 C   0  0  0  0  0  0  0  0  0  0  0  0
  -33.0847    6.4746  -29.5300 O   0  0  0  0  0  0  0  0  0  0  0  0
  -33.2088    6.7701  -31.6759 N   0  0  0  0  0  0  0  0  0  0  0  0
  -33.0000    7.3680  -32.4296 H   0  0  0  0  0  0  0  0  0  0  0  0
  -31.6556    8.1029  -30.3721 C   0  0  0  0  0  0  0  0  0  0  0  0
  -31.7834    9.1533  -31.4504 C   0  0  0  0  0  0  0  0  0  0  0  0
  -30.0557   10.2984  -32.7648 N   0  0  0  0  0  0  0  0  0  0  0  0
  -30.6977    9.0114  -32.5093 C   0  0  0  0  0  0  0  0  0  0  0  0
  -29.3330   10.1828  -33.4753 H   0  0  0  0  0  0  0  0  0  0  0  0
  -29.6332   10.6445  -31.9033 H   0  0  0  0  0  0  0  0  0  0  0  0
  -30.7525   10.9666  -33.0941 H   0  0  0  0  0  0  0  0  0  0  0  0
  -31.2512    8.5005  -33.7911 C   0  0  0  0  0  0  0  0  0  0  0  0
  -32.3810    8.7766  -34.0630 O   0  0  0  0  0  0  0  0  0  0  0  0
  -30.5828    7.8064  -34.5257 O   0  0  0  0  0  0  0  0  0  0  0  0
  -29.6979    7.5992  -34.2975 H   0  0  0  0  0  0  0  0  0  0  0  0
  -33.6366    4.8945  -33.1184 C   0  0  0  0  0  0  0  0  0  0  0  0
  -33.3544    5.4904  -34.1267 O   0  0  0  0  0  0  0  0  0  0  0  0
  -33.5626    3.5952  -33.0122 N   0  0  0  0  0  0  0  0  0  0  0  0
  -33.7171    3.1803  -32.1328 H   0  0  0  0  0  0  0  0  0  0  0  0
  -33.2681    2.7641  -34.1176 C   0  0  0  0  0  0  0  0  0  0  0  0
  -32.6827    1.4970  -33.5799 C   0  0  0  0  0  0  0  0  0  0  0  0
  -32.4182    1.4028  -32.3658 O   0  0  0  0  0  0  0  0  0  0  0  0
  -32.4877    0.5944  -34.4077 O   0  0  0  0  0  0  0  0  0  0  0  0
  -32.7089    0.7288  -35.3082 H   0  0  0  0  0  0  0  0  0  0  0  0
  -35.5199    6.0087  -32.1030 C   0  0  0  0  0  0  0  0  0  0  0  0
  -36.7143    5.0363  -31.2408 S   0  0  0  0  0  0  0  0  0  0  0  0
  -37.2647    3.8547  -32.4049 C   0  0  0  0  0  0  0  0  0  0  0  0
  -38.7907    3.8720  -32.5223 C   0  0  0  0  0  0  0  0  0  0  0  0
  -39.4007    5.0809  -31.8133 C   0  0  0  0  0  0  0  0  0  0  0  0
  -40.8884    5.2191  -32.0685 C   0  0  0  0  0  0  0  0  0  0  0  0
  -41.2485    5.8214  -33.4205 C   0  0  0  0  0  0  0  0  0  0  0  0
  -41.7512    7.2399  -33.3208 C   0  0  0  0  0  0  0  0  0  0  0  0
  8  9  1  0  0  0
  9 13  1  0  0  0
  9  7  1  0  0  0
 13 14  2  0  0  0
 13 15  1  0  0  0
  7  6  1  0  0  0
  6  2  1  0  0  0
  2  3  2  0  0  0
  2  4  1  0  0  0
  4  1  1  0  0  0
  1 17  1  0  0  0
  1 26  1  0  0  0
 17 18  2  0  0  0
 17 19  1  0  0  0
 26 27  1  0  0  0
 27 28  1  0  0  0
 28 29  1  0  0  0
 29 30  1  0  0  0
 30 31  1  0  0  0
 31 32  1  0  0  0
 32 33  1  0  0  0
 19 21  1  0  0  0
 21 22  1  0  0  0
 22 23  2  0  0  0
 22 24  1  0  0  0
  8 10  1  0  0  0
  8 11  1  0  0  0
  8 12  1  0  0  0
 15 16  1  0  0  0
  4  5  1  0  0  0
 19 20  1  0  0  0
 24 25  1  0  0  0
M  CHG 1   8   1
M  END
> <minimizedAffinity>
-6.95463

$$$$
5KEJ_GTX_A_301


 33 32  0  0  0  0  0  0  0  0999 V2000
  -34.7574    5.1264  -31.5375 C   0  0  0  0  0  0  0  0  0  0  0  0
  -33.1416    6.3526  -30.2308 C   0  0  0  0  0  0  0  0  0  0  0  0
  -32.9641    5.4170  -29.5341 O   0  0  0  0  0  0  0  0  0  0  0  0
  -34.0748    6.3380  -31.1545 N   0  0  0  0  0  0  0  0  0  0  0  0
  -34.3165    7.1819  -31.6004 H   0  0  0  0  0  0  0  0  0  0  0  0
  -32.3235    7.5937  -30.0385 C   0  0  0  0  0  0  0  0  0  0  0  0
  -32.5010    8.5744  -31.1738 C   0  0  0  0  0  0  0  0  0  0  0  0
  -30.7975    9.8205  -32.4266 N   0  0  0  0  0  0  0  0  0  0  0  0
  -31.3554    8.4941  -32.1745 C   0  0  0  0  0  0  0  0  0  0  0  0
  -30.0332    9.7458  -33.0979 H   0  0  0  0  0  0  0  0  0  0  0  0
  -30.4460   10.2131  -31.5533 H   0  0  0  0  0  0  0  0  0  0  0  0
  -31.5239   10.4286  -32.8047 H   0  0  0  0  0  0  0  0  0  0  0  0
  -31.8039    7.9197  -33.4702 C   0  0  0  0  0  0  0  0  0  0  0  0
  -30.9672    7.5614  -34.2438 O   0  0  0  0  0  0  0  0  0  0  0  0
  -32.9821    7.8390  -33.7415 O   0  0  0  0  0  0  0  0  0  0  0  0
  -33.6257    8.1246  -33.1233 H   0  0  0  0  0  0  0  0  0  0  0  0
  -34.2152    4.5990  -32.8090 C   0  0  0  0  0  0  0  0  0  0  0  0
  -34.2357    5.2719  -33.8081 O   0  0  0  0  0  0  0  0  0  0  0  0
  -33.7005    3.3998  -32.7660 N   0  0  0  0  0  0  0  0  0  0  0  0
  -33.6318    2.9425  -31.8969 H   0  0  0  0  0  0  0  0  0  0  0  0
  -33.2384    2.7358  -33.9258 C   0  0  0  0  0  0  0  0  0  0  0  0
  -32.5983    1.4583  -33.4836 C   0  0  0  0  0  0  0  0  0  0  0  0
  -32.2465    1.3199  -32.2961 O   0  0  0  0  0  0  0  0  0  0  0  0
  -32.4502    0.5931  -34.3597 O   0  0  0  0  0  0  0  0  0  0  0  0
  -32.7370    0.7597  -35.2360 H   0  0  0  0  0  0  0  0  0  0  0  0
  -36.2513    5.3259  -31.7389 C   0  0  0  0  0  0  0  0  0  0  0  0
  -37.2504    3.8708  -31.7472 S   0  0  0  0  0  0  0  0  0  0  0  0
  -38.5510    4.2185  -32.8615 C   0  0  0  0  0  0  0  0  0  0  0  0
  -39.3434    2.9509  -33.1903 C   0  0  0  0  0  0  0  0  0  0  0  0
  -38.8108    1.7359  -32.4309 C   0  0  0  0  0  0  0  0  0  0  0  0
  -39.8399    0.6306  -32.3010 C   0  0  0  0  0  0  0  0  0  0  0  0
  -41.1255    0.8634  -33.0842 C   0  0  0  0  0  0  0  0  0  0  0  0
  -41.9976   -0.3643  -33.1675 C   0  0  0  0  0  0  0  0  0  0  0  0
  8  9  1  0  0  0
  9 13  1  0  0  0
  9  7  1  0  0  0
 13 14  2  0  0  0
 13 15  1  0  0  0
  7  6  1  0  0  0
  6  2  1  0  0  0
  2  3  2  0  0  0
  2  4  1  0  0  0
  4  1  1  0  0  0
  1 17  1  0  0  0
  1 26  1  0  0  0
 17 18  2  0  0  0
 17 19  1  0  0  0
 26 27  1  0  0  0
 27 28  1  0  0  0
 28 29  1  0  0  0
 29 30  1  0  0  0
 30 31  1  0  0  0
 31 32  1  0  0  0
 32 33  1  0  0  0
 19 21  1  0  0  0
 21 22  1  0  0  0
 22 23  2  0  0  0
 22 24  1  0  0  0
  8 10  1  0  0  0
  8 11  1  0  0  0
  8 12  1  0  0  0
 15 16  1  0  0  0
  4  5  1  0  0  0
 19 20  1  0  0  0
 24 25  1  0  0  0
M  CHG 1   8   1
M  END
> <minimizedAffinity>
-6.66611

$$$$
5KEJ_GTX_A_301


 33 32  0  0  0  0  0  0  0  0999 V2000
  -43.2825    2.2914  -34.4227 C   0  0  0  0  0  0  0  0  0  0  0  0
  -41.9818    4.2877  -34.0422 C   0  0  0  0  0  0  0  0  0  0  0  0
  -41.0435    3.6425  -33.7330 O   0  0  0  0  0  0  0  0  0  0  0  0
  -43.1415    3.7199  -34.2809 N   0  0  0  0  0  0  0  0  0  0  0  0
  -43.9411    4.2879  -34.3659 H   0  0  0  0  0  0  0  0  0  0  0  0
  -41.8681    5.7799  -34.1258 C   0  0  0  0  0  0  0  0  0  0  0  0
  -42.8469    6.4777  -33.2108 C   0  0  0  0  0  0  0  0  0  0  0  0
  -44.6852    8.1031  -33.1540 N   0  0  0  0  0  0  0  0  0  0  0  0
  -43.9786    7.1355  -33.9899 C   0  0  0  0  0  0  0  0  0  0  0  0
  -45.4378    8.5320  -33.6925 H   0  0  0  0  0  0  0  0  0  0  0  0
  -44.0341    8.8250  -32.8451 H   0  0  0  0  0  0  0  0  0  0  0  0
  -45.0769    7.6280  -32.3409 H   0  0  0  0  0  0  0  0  0  0  0  0
  -44.9603    6.1306  -34.4764 C   0  0  0  0  0  0  0  0  0  0  0  0
  -45.6487    5.5831  -33.6683 O   0  0  0  0  0  0  0  0  0  0  0  0
  -45.0426    5.8597  -35.6545 O   0  0  0  0  0  0  0  0  0  0  0  0
  -44.4952    6.2986  -36.2755 H   0  0  0  0  0  0  0  0  0  0  0  0
  -44.3195    1.9641  -35.4259 C   0  0  0  0  0  0  0  0  0  0  0  0
  -44.6933    2.7966  -36.2124 O   0  0  0  0  0  0  0  0  0  0  0  0
  -44.7656    0.7370  -35.4185 N   0  0  0  0  0  0  0  0  0  0  0  0
  -44.3500    0.0834  -34.8108 H   0  0  0  0  0  0  0  0  0  0  0  0
  -45.8256    0.3153  -36.2541 C   0  0  0  0  0  0  0  0  0  0  0  0
  -45.8873   -1.1773  -36.1778 C   0  0  0  0  0  0  0  0  0  0  0  0
  -45.1178   -1.7912  -35.4137 O   0  0  0  0  0  0  0  0  0  0  0  0
  -46.7260   -1.7245  -36.9094 O   0  0  0  0  0  0  0  0  0  0  0  0
  -47.2758   -1.2047  -37.4621 H   0  0  0  0  0  0  0  0  0  0  0  0
  -43.6832    1.6037  -33.1270 C   0  0  0  0  0  0  0  0  0  0  0  0
  -42.5333    0.4438  -32.4577 S   0  0  0  0  0  0  0  0  0  0  0  0
  -43.5091   -0.8963  -31.9045 C   0  0  0  0  0  0  0  0  0  0  0  0
  -43.1168   -2.1910  -32.6207 C   0  0  0  0  0  0  0  0  0  0  0  0
  -41.9839   -1.9649  -33.6216 C   0  0  0  0  0  0  0  0  0  0  0  0
  -40.8592   -2.9695  -33.4681 C   0  0  0  0  0  0  0  0  0  0  0  0
  -39.4753   -2.3547  -33.3033 C   0  0  0  0  0  0  0  0  0  0  0  0
  -39.4154   -1.3183  -32.2092 C   0  0  0  0  0  0  0  0  0  0  0  0
  8  9  1  0  0  0
  9 13  1  0  0  0
  9  7  1  0  0  0
 13 14  2  0  0  0
 13 15  1  0  0  0
  7  6  1  0  0  0
  6  2  1  0  0  0
  2  3  2  0  0  0
  2  4  1  0  0  0
  4  1  1  0  0  0
  1 17  1  0  0  0
  1 26  1  0  0  0
 17 18  2  0  0  0
 17 19  1  0  0  0
 26 27  1  0  0  0
 27 28  1  0  0  0
 28 29  1  0  0  0
 29 30  1  0  0  0
 30 31  1  0  0  0
 31 32  1  0  0  0
 32 33  1  0  0  0
 19 21  1  0  0  0
 21 22  1  0  0  0
 22 23  2  0  0  0
 22 24  1  0  0  0
  8 10  1  0  0  0
  8 11  1  0  0  0
  8 12  1  0  0  0
 15 16  1  0  0  0
  4  5  1  0  0  0
 19 20  1  0  0  0
 24 25  1  0  0  0
M  CHG 1   8   1
M  END
> <minimizedAffinity>
-6.25233

$$$$
5KEJ_GTX_A_301


 33 32  0  0  0  0  0  0  0  0999 V2000
  -39.1980    3.3073  -32.5210 C   0  0  0  0  0  0  0  0  0  0  0  0
  -37.2479    4.7033  -32.2563 C   0  0  0  0  0  0  0  0  0  0  0  0
  -37.8125    5.3790  -31.4708 O   0  0  0  0  0  0  0  0  0  0  0  0
  -37.8778    3.7479  -32.9001 N   0  0  0  0  0  0  0  0  0  0  0  0
  -37.4345    3.3180  -33.6669 H   0  0  0  0  0  0  0  0  0  0  0  0
  -35.8026    4.9589  -32.5600 C   0  0  0  0  0  0  0  0  0  0  0  0
  -35.1564    3.7954  -33.2747 C   0  0  0  0  0  0  0  0  0  0  0  0
  -32.9545    4.8634  -33.0876 N   0  0  0  0  0  0  0  0  0  0  0  0
  -33.6974    3.6242  -32.8719 C   0  0  0  0  0  0  0  0  0  0  0  0
  -31.9815    4.7288  -32.8125 H   0  0  0  0  0  0  0  0  0  0  0  0
  -33.3665    5.6089  -32.5265 H   0  0  0  0  0  0  0  0  0  0  0  0
  -32.9967    5.1177  -34.0745 H   0  0  0  0  0  0  0  0  0  0  0  0
  -33.0409    2.5418  -33.6515 C   0  0  0  0  0  0  0  0  0  0  0  0
  -32.3708    1.7511  -33.0578 O   0  0  0  0  0  0  0  0  0  0  0  0
  -33.1642    2.4784  -34.8552 O   0  0  0  0  0  0  0  0  0  0  0  0
  -33.6936    3.1066  -35.3057 H   0  0  0  0  0  0  0  0  0  0  0  0
  -39.1268    2.0599  -31.7287 C   0  0  0  0  0  0  0  0  0  0  0  0
  -38.8680    2.0966  -30.5527 O   0  0  0  0  0  0  0  0  0  0  0  0
  -39.3866    0.9517  -32.3686 N   0  0  0  0  0  0  0  0  0  0  0  0
  -39.6822    1.0020  -33.3063 H   0  0  0  0  0  0  0  0  0  0  0  0
  -39.2578   -0.3181  -31.7600 C   0  0  0  0  0  0  0  0  0  0  0  0
  -39.7428   -1.3356  -32.7432 C   0  0  0  0  0  0  0  0  0  0  0  0
  -40.9385   -1.3374  -33.0944 O   0  0  0  0  0  0  0  0  0  0  0  0
  -38.8945   -2.1414  -33.1544 O   0  0  0  0  0  0  0  0  0  0  0  0
  -38.0099   -2.0862  -32.8505 H   0  0  0  0  0  0  0  0  0  0  0  0
  -40.0950    3.0255  -33.7160 C   0  0  0  0  0  0  0  0  0  0  0  0
  -41.7341    3.6765  -33.6467 S   0  0  0  0  0  0  0  0  0  0  0  0
  -42.7790    2.2759  -33.6219 C   0  0  0  0  0  0  0  0  0  0  0  0
  -42.8847    1.6474  -35.0135 C   0  0  0  0  0  0  0  0  0  0  0  0
  -43.8946    0.5005  -35.0430 C   0  0  0  0  0  0  0  0  0  0  0  0
  -45.3080    0.9732  -35.3197 C   0  0  0  0  0  0  0  0  0  0  0  0
  -45.9995    0.2668  -36.4786 C   0  0  0  0  0  0  0  0  0  0  0  0
  -46.0810   -1.2281  -36.2959 C   0  0  0  0  0  0  0  0  0  0  0  0
  8  9  1  0  0  0
  9 13  1  0  0  0
  9  7  1  0  0  0
 13 14  2  0  0  0
 13 15  1  0  0  0
  7  6  1  0  0  0
  6  2  1  0  0  0
  2  3  2  0  0  0
  2  4  1  0  0  0
  4  1  1  0  0  0
  1 17  1  0  0  0
  1 26  1  0  0  0
 17 18  2  0  0  0
 17 19  1  0  0  0
 26 27  1  0  0  0
 27 28  1  0  0  0
 28 29  1  0  0  0
 29 30  1  0  0  0
 30 31  1  0  0  0
 31 32  1  0  0  0
 32 33  1  0  0  0
 19 21  1  0  0  0
 21 22  1  0  0  0
 22 23  2  0  0  0
 22 24  1  0  0  0
  8 10  1  0  0  0
  8 11  1  0  0  0
  8 12  1  0  0  0
 15 16  1  0  0  0
  4  5  1  0  0  0
 19 20  1  0  0  0
 24 25  1  0  0  0
M  CHG 1   8   1
M  END
> <minimizedAffinity>
-6.06783

$$$$
5KEJ_GTX_A_301


 33 32  0  0  0  0  0  0  0  0999 V2000
  -39.9759    3.9565  -33.1291 C   0  0  0  0  0  0  0  0  0  0  0  0
  -37.7328    4.4420  -32.3845 C   0  0  0  0  0  0  0  0  0  0  0  0
  -38.1449    5.1616  -31.5450 O   0  0  0  0  0  0  0  0  0  0  0  0
  -38.5412    3.9057  -33.2694 N   0  0  0  0  0  0  0  0  0  0  0  0
  -38.1553    3.4541  -34.0546 H   0  0  0  0  0  0  0  0  0  0  0  0
  -36.2628    4.1636  -32.4747 C   0  0  0  0  0  0  0  0  0  0  0  0
  -35.4407    5.4308  -32.4524 C   0  0  0  0  0  0  0  0  0  0  0  0
  -33.2514    5.7287  -31.3836 N   0  0  0  0  0  0  0  0  0  0  0  0
  -33.9477    5.1374  -32.5236 C   0  0  0  0  0  0  0  0  0  0  0  0
  -32.2548    5.5216  -31.4492 H   0  0  0  0  0  0  0  0  0  0  0  0
  -33.6235    5.3380  -30.5180 H   0  0  0  0  0  0  0  0  0  0  0  0
  -33.3897    6.7392  -31.3875 H   0  0  0  0  0  0  0  0  0  0  0  0
  -33.3461    5.6764  -33.7717 C   0  0  0  0  0  0  0  0  0  0  0  0
  -33.8631    5.3930  -34.8106 O   0  0  0  0  0  0  0  0  0  0  0  0
  -32.3485    6.3633  -33.7364 O   0  0  0  0  0  0  0  0  0  0  0  0
  -31.9554    6.5764  -32.9130 H   0  0  0  0  0  0  0  0  0  0  0  0
  -40.5962    2.7118  -33.6338 C   0  0  0  0  0  0  0  0  0  0  0  0
  -40.9583    2.6306  -34.7800 O   0  0  0  0  0  0  0  0  0  0  0  0
  -40.6927    1.7263  -32.7827 N   0  0  0  0  0  0  0  0  0  0  0  0
  -40.2923    1.8286  -31.8892 H   0  0  0  0  0  0  0  0  0  0  0  0
  -41.3530    0.5172  -33.1013 C   0  0  0  0  0  0  0  0  0  0  0  0
  -40.4839   -0.6042  -32.6275 C   0  0  0  0  0  0  0  0  0  0  0  0
  -39.2442   -0.4793  -32.6493 O   0  0  0  0  0  0  0  0  0  0  0  0
  -41.0750   -1.6215  -32.2355 O   0  0  0  0  0  0  0  0  0  0  0  0
  -42.0115   -1.6519  -32.2444 H   0  0  0  0  0  0  0  0  0  0  0  0
  -40.6059    5.1100  -33.8937 C   0  0  0  0  0  0  0  0  0  0  0  0
  -42.1599    5.6992  -33.2990 S   0  0  0  0  0  0  0  0  0  0  0  0
  -43.3069    5.3066  -34.5578 C   0  0  0  0  0  0  0  0  0  0  0  0
  -44.5434    6.2047  -34.4707 C   0  0  0  0  0  0  0  0  0  0  0  0
  -44.3263    7.3781  -33.5155 C   0  0  0  0  0  0  0  0  0  0  0  0
  -45.5561    7.6927  -32.6872 C   0  0  0  0  0  0  0  0  0  0  0  0
  -45.3460    8.7535  -31.6143 C   0  0  0  0  0  0  0  0  0  0  0  0
  -46.1390   10.0119  -31.8639 C   0  0  0  0  0  0  0  0  0  0  0  0
  8  9  1  0  0  0
  9 13  1  0  0  0
  9  7  1  0  0  0
 13 14  2  0  0  0
 13 15  1  0  0  0
  7  6  1  0  0  0
  6  2  1  0  0  0
  2  3  2  0  0  0
  2  4  1  0  0  0
  4  1  1  0  0  0
  1 17  1  0  0  0
  1 26  1  0  0  0
 17 18  2  0  0  0
 17 19  1  0  0  0
 26 27  1  0  0  0
 27 28  1  0  0  0
 28 29  1  0  0  0
 29 30  1  0  0  0
 30 31  1  0  0  0
 31 32  1  0  0  0
 32 33  1  0  0  0
 19 21  1  0  0  0
 21 22  1  0  0  0
 22 23  2  0  0  0
 22 24  1  0  0  0
  8 10  1  0  0  0
  8 11  1  0  0  0
  8 12  1  0  0  0
 15 16  1  0  0  0
  4  5  1  0  0  0
 19 20  1  0  0  0
 24 25  1  0  0  0
M  CHG 1   8   1
M  END
> <minimizedAffinity>
-6.05958

$$$$
5KEJ_GTX_A_301


 33 32  0  0  0  0  0  0  0  0999 V2000
  -42.1195    1.8555  -34.2841 C   0  0  0  0  0  0  0  0  0  0  0  0
  -41.0455    4.0022  -34.0388 C   0  0  0  0  0  0  0  0  0  0  0  0
  -40.0369    3.5705  -34.4734 O   0  0  0  0  0  0  0  0  0  0  0  0
  -42.0705    3.2154  -33.8055 N   0  0  0  0  0  0  0  0  0  0  0  0
  -42.8307    3.5651  -33.2868 H   0  0  0  0  0  0  0  0  0  0  0  0
  -41.1531    5.4598  -33.7069 C   0  0  0  0  0  0  0  0  0  0  0  0
  -42.4383    5.7857  -32.9827 C   0  0  0  0  0  0  0  0  0  0  0  0
  -44.0189    7.6631  -33.0121 N   0  0  0  0  0  0  0  0  0  0  0  0
  -43.3630    6.6478  -33.8324 C   0  0  0  0  0  0  0  0  0  0  0  0
  -44.6327    8.2291  -33.5980 H   0  0  0  0  0  0  0  0  0  0  0  0
  -43.3131    8.2609  -32.5820 H   0  0  0  0  0  0  0  0  0  0  0  0
  -44.5690    7.2082  -32.2834 H   0  0  0  0  0  0  0  0  0  0  0  0
  -44.4128    5.8301  -34.4953 C   0  0  0  0  0  0  0  0  0  0  0  0
  -44.8305    4.8750  -33.9120 O   0  0  0  0  0  0  0  0  0  0  0  0
  -44.8151    6.1118  -35.6029 O   0  0  0  0  0  0  0  0  0  0  0  0
  -44.4769    6.8645  -36.0468 H   0  0  0  0  0  0  0  0  0  0  0  0
  -43.3335    1.6301  -35.0991 C   0  0  0  0  0  0  0  0  0  0  0  0
  -43.6988    2.4588  -35.8936 O   0  0  0  0  0  0  0  0  0  0  0  0
  -43.9455    0.4902  -34.9235 N   0  0  0  0  0  0  0  0  0  0  0  0
  -43.5409   -0.1800  -34.3267 H   0  0  0  0  0  0  0  0  0  0  0  0
  -45.1701    0.1860  -35.5619 C   0  0  0  0  0  0  0  0  0  0  0  0
  -45.1805   -1.2857  -35.8292 C   0  0  0  0  0  0  0  0  0  0  0  0
  -44.2620   -2.0024  -35.3870 O   0  0  0  0  0  0  0  0  0  0  0  0
  -46.1331   -1.7091  -36.5009 O   0  0  0  0  0  0  0  0  0  0  0  0
  -46.7926   -1.1166  -36.8041 H   0  0  0  0  0  0  0  0  0  0  0  0
  -42.1412    0.8318  -33.1599 C   0  0  0  0  0  0  0  0  0  0  0  0
  -41.8314    1.4375  -31.5313 S   0  0  0  0  0  0  0  0  0  0  0  0
  -40.0978    1.3414  -31.3324 C   0  0  0  0  0  0  0  0  0  0  0  0
  -39.5124    2.7078  -30.9675 C   0  0  0  0  0  0  0  0  0  0  0  0
  -38.1425    2.9278  -31.6089 C   0  0  0  0  0  0  0  0  0  0  0  0
  -37.8453    4.3919  -31.8650 C   0  0  0  0  0  0  0  0  0  0  0  0
  -36.5591    4.6541  -32.6379 C   0  0  0  0  0  0  0  0  0  0  0  0
  -35.7481    5.7907  -32.0678 C   0  0  0  0  0  0  0  0  0  0  0  0
  8  9  1  0  0  0
  9 13  1  0  0  0
  9  7  1  0  0  0
 13 14  2  0  0  0
 13 15  1  0  0  0
  7  6  1  0  0  0
  6  2  1  0  0  0
  2  3  2  0  0  0
  2  4  1  0  0  0
  4  1  1  0  0  0
  1 17  1  0  0  0
  1 26  1  0  0  0
 17 18  2  0  0  0
 17 19  1  0  0  0
 26 27  1  0  0  0
 27 28  1  0  0  0
 28 29  1  0  0  0
 29 30  1  0  0  0
 30 31  1  0  0  0
 31 32  1  0  0  0
 32 33  1  0  0  0
 19 21  1  0  0  0
 21 22  1  0  0  0
 22 23  2  0  0  0
 22 24  1  0  0  0
  8 10  1  0  0  0
  8 11  1  0  0  0
  8 12  1  0  0  0
 15 16  1  0  0  0
  4  5  1  0  0  0
 19 20  1  0  0  0
 24 25  1  0  0  0
M  CHG 1   8   1
M  END
> <minimizedAffinity>
-6.01270

$$$$
5KEJ_GTX_A_301


 33 32  0  0  0  0  0  0  0  0999 V2000
  -43.7890    2.4138  -34.0488 C   0  0  0  0  0  0  0  0  0  0  0  0
  -43.6650    0.6917  -32.3633 C   0  0  0  0  0  0  0  0  0  0  0  0
  -44.3869    1.3021  -31.6570 O   0  0  0  0  0  0  0  0  0  0  0  0
  -43.2315    1.2060  -33.4910 N   0  0  0  0  0  0  0  0  0  0  0  0
  -42.5019    0.7523  -33.9717 H   0  0  0  0  0  0  0  0  0  0  0  0
  -43.1986   -0.6732  -31.9559 C   0  0  0  0  0  0  0  0  0  0  0  0
  -42.0128   -1.1361  -32.7693 C   0  0  0  0  0  0  0  0  0  0  0  0
  -43.6077   -2.9553  -33.1828 N   0  0  0  0  0  0  0  0  0  0  0  0
  -42.3525   -2.3514  -33.6226 C   0  0  0  0  0  0  0  0  0  0  0  0
  -43.8175   -3.7659  -33.7653 H   0  0  0  0  0  0  0  0  0  0  0  0
  -44.3610   -2.2727  -33.2661 H   0  0  0  0  0  0  0  0  0  0  0  0
  -43.5212   -3.2491  -32.2098 H   0  0  0  0  0  0  0  0  0  0  0  0
  -41.2845   -3.3831  -33.5498 C   0  0  0  0  0  0  0  0  0  0  0  0
  -40.1483   -3.0177  -33.5977 O   0  0  0  0  0  0  0  0  0  0  0  0
  -41.5601   -4.5602  -33.4674 O   0  0  0  0  0  0  0  0  0  0  0  0
  -42.4566   -4.8301  -33.4308 H   0  0  0  0  0  0  0  0  0  0  0  0
  -44.6731    2.1029  -35.1936 C   0  0  0  0  0  0  0  0  0  0  0  0
  -45.0810    2.9835  -35.9076 O   0  0  0  0  0  0  0  0  0  0  0  0
  -44.9472    0.8412  -35.3878 N   0  0  0  0  0  0  0  0  0  0  0  0
  -44.5056    0.1661  -34.8234 H   0  0  0  0  0  0  0  0  0  0  0  0
  -45.8569    0.4117  -36.3815 C   0  0  0  0  0  0  0  0  0  0  0  0
  -46.1417   -1.0350  -36.1306 C   0  0  0  0  0  0  0  0  0  0  0  0
  -45.2406   -1.7778  -35.6955 O   0  0  0  0  0  0  0  0  0  0  0  0
  -47.2946   -1.4141  -36.3861 O   0  0  0  0  0  0  0  0  0  0  0  0
  -47.9270   -0.8041  -36.7116 H   0  0  0  0  0  0  0  0  0  0  0  0
  -42.7277    3.3781  -34.5546 C   0  0  0  0  0  0  0  0  0  0  0  0
  -42.9810    5.0894  -34.2038 S   0  0  0  0  0  0  0  0  0  0  0  0
  -44.2079    5.1218  -32.9598 C   0  0  0  0  0  0  0  0  0  0  0  0
  -45.4948    5.7693  -33.4773 C   0  0  0  0  0  0  0  0  0  0  0  0
  -46.0103    6.8476  -32.5245 C   0  0  0  0  0  0  0  0  0  0  0  0
  -45.2410    8.1482  -32.6425 C   0  0  0  0  0  0  0  0  0  0  0  0
  -45.9889    9.3772  -32.1421 C   0  0  0  0  0  0  0  0  0  0  0  0
  -46.4731    9.2365  -30.7206 C   0  0  0  0  0  0  0  0  0  0  0  0
  8  9  1  0  0  0
  9 13  1  0  0  0
  9  7  1  0  0  0
 13 14  2  0  0  0
 13 15  1  0  0  0
  7  6  1  0  0  0
  6  2  1  0  0  0
  2  3  2  0  0  0
  2  4  1  0  0  0
  4  1  1  0  0  0
  1 17  1  0  0  0
  1 26  1  0  0  0
 17 18  2  0  0  0
 17 19  1  0  0  0
 26 27  1  0  0  0
 27 28  1  0  0  0
 28 29  1  0  0  0
 29 30  1  0  0  0
 30 31  1  0  0  0
 31 32  1  0  0  0
 32 33  1  0  0  0
 19 21  1  0  0  0
 21 22  1  0  0  0
 22 23  2  0  0  0
 22 24  1  0  0  0
  8 10  1  0  0  0
  8 11  1  0  0  0
  8 12  1  0  0  0
 15 16  1  0  0  0
  4  5  1  0  0  0
 19 20  1  0  0  0
 24 25  1  0  0  0
M  CHG 1   8   1
M  END
> <minimizedAffinity>
-5.99086

$$$$
5KEJ_GTX_A_301


 33 32  0  0  0  0  0  0  0  0999 V2000
  -43.9853    2.3612  -34.2079 C   0  0  0  0  0  0  0  0  0  0  0  0
  -43.5093    0.6792  -32.5448 C   0  0  0  0  0  0  0  0  0  0  0  0
  -44.3960    1.0664  -31.8694 O   0  0  0  0  0  0  0  0  0  0  0  0
  -43.1666    1.3185  -33.6394 N   0  0  0  0  0  0  0  0  0  0  0  0
  -42.3232    1.0783  -34.0867 H   0  0  0  0  0  0  0  0  0  0  0  0
  -42.7313   -0.5342  -32.1337 C   0  0  0  0  0  0  0  0  0  0  0  0
  -41.8193   -1.0255  -33.2334 C   0  0  0  0  0  0  0  0  0  0  0  0
  -43.5068   -2.8055  -33.1416 N   0  0  0  0  0  0  0  0  0  0  0  0
  -42.2467   -2.3918  -33.7540 C   0  0  0  0  0  0  0  0  0  0  0  0
  -43.7757   -3.7209  -33.5023 H   0  0  0  0  0  0  0  0  0  0  0  0
  -44.2331   -2.1251  -33.3654 H   0  0  0  0  0  0  0  0  0  0  0  0
  -43.3915   -2.8592  -32.1296 H   0  0  0  0  0  0  0  0  0  0  0  0
  -41.2218   -3.4292  -33.4650 C   0  0  0  0  0  0  0  0  0  0  0  0
  -40.1082   -3.0664  -33.2302 O   0  0  0  0  0  0  0  0  0  0  0  0
  -41.5037   -4.6074  -33.4898 O   0  0  0  0  0  0  0  0  0  0  0  0
  -42.3821   -4.8751  -33.6756 H   0  0  0  0  0  0  0  0  0  0  0  0
  -44.6510    1.8905  -35.4424 C   0  0  0  0  0  0  0  0  0  0  0  0
  -44.5699    2.5277  -36.4616 O   0  0  0  0  0  0  0  0  0  0  0  0
  -45.2881    0.7538  -35.3595 N   0  0  0  0  0  0  0  0  0  0  0  0
  -45.2361    0.2393  -34.5217 H   0  0  0  0  0  0  0  0  0  0  0  0
  -46.0504    0.2369  -36.4325 C   0  0  0  0  0  0  0  0  0  0  0  0
  -46.0190   -1.2546  -36.3244 C   0  0  0  0  0  0  0  0  0  0  0  0
  -45.1617   -1.8062  -35.6077 O   0  0  0  0  0  0  0  0  0  0  0  0
  -46.8749   -1.8651  -36.9823 O   0  0  0  0  0  0  0  0  0  0  0  0
  -47.4927   -1.3901  -37.5026 H   0  0  0  0  0  0  0  0  0  0  0  0
  -43.1907    3.6042  -34.5765 C   0  0  0  0  0  0  0  0  0  0  0  0
  -42.7318    4.6731  -33.2490 S   0  0  0  0  0  0  0  0  0  0  0  0
  -41.0446    5.0382  -33.5215 C   0  0  0  0  0  0  0  0  0  0  0  0
  -40.1834    3.7803  -33.3832 C   0  0  0  0  0  0  0  0  0  0  0  0
  -39.0700    3.9654  -32.3525 C   0  0  0  0  0  0  0  0  0  0  0  0
  -38.1672    2.7527  -32.2432 C   0  0  0  0  0  0  0  0  0  0  0  0
  -38.8903    1.4136  -32.3090 C   0  0  0  0  0  0  0  0  0  0  0  0
  -39.3536    0.9250  -30.9594 C   0  0  0  0  0  0  0  0  0  0  0  0
  8  9  1  0  0  0
  9 13  1  0  0  0
  9  7  1  0  0  0
 13 14  2  0  0  0
 13 15  1  0  0  0
  7  6  1  0  0  0
  6  2  1  0  0  0
  2  3  2  0  0  0
  2  4  1  0  0  0
  4  1  1  0  0  0
  1 17  1  0  0  0
  1 26  1  0  0  0
 17 18  2  0  0  0
 17 19  1  0  0  0
 26 27  1  0  0  0
 27 28  1  0  0  0
 28 29  1  0  0  0
 29 30  1  0  0  0
 30 31  1  0  0  0
 31 32  1  0  0  0
 32 33  1  0  0  0
 19 21  1  0  0  0
 21 22  1  0  0  0
 22 23  2  0  0  0
 22 24  1  0  0  0
  8 10  1  0  0  0
  8 11  1  0  0  0
  8 12  1  0  0  0
 15 16  1  0  0  0
  4  5  1  0  0  0
 19 20  1  0  0  0
 24 25  1  0  0  0
M  CHG 1   8   1
M  END
> <minimizedAffinity>
-5.95532

$$$$
5KEJ_GTX_A_301


 33 32  0  0  0  0  0  0  0  0999 V2000
  -42.7190    1.2202  -32.3923 C   0  0  0  0  0  0  0  0  0  0  0  0
  -41.8078    3.4512  -32.2744 C   0  0  0  0  0  0  0  0  0  0  0  0
  -42.0198    3.4989  -31.1146 O   0  0  0  0  0  0  0  0  0  0  0  0
  -42.2179    2.4319  -32.9934 N   0  0  0  0  0  0  0  0  0  0  0  0
  -42.1822    2.4967  -33.9751 H   0  0  0  0  0  0  0  0  0  0  0  0
  -41.0978    4.5843  -32.9517 C   0  0  0  0  0  0  0  0  0  0  0  0
  -39.7373    4.8452  -32.3492 C   0  0  0  0  0  0  0  0  0  0  0  0
  -38.9829    3.7744  -34.4249 N   0  0  0  0  0  0  0  0  0  0  0  0
  -38.6522    4.0148  -33.0224 C   0  0  0  0  0  0  0  0  0  0  0  0
  -38.2457    3.2178  -34.8574 H   0  0  0  0  0  0  0  0  0  0  0  0
  -39.0658    4.6665  -34.9124 H   0  0  0  0  0  0  0  0  0  0  0  0
  -39.8681    3.2711  -34.4840 H   0  0  0  0  0  0  0  0  0  0  0  0
  -38.4768    2.7005  -32.3498 C   0  0  0  0  0  0  0  0  0  0  0  0
  -38.3749    2.6895  -31.1598 O   0  0  0  0  0  0  0  0  0  0  0  0
  -38.4164    1.6750  -32.9923 O   0  0  0  0  0  0  0  0  0  0  0  0
  -38.4983    1.7012  -33.9254 H   0  0  0  0  0  0  0  0  0  0  0  0
  -42.0198    0.0362  -32.9384 C   0  0  0  0  0  0  0  0  0  0  0  0
  -40.8168   -0.0257  -32.9199 O   0  0  0  0  0  0  0  0  0  0  0  0
  -42.7773   -0.9218  -33.4002 N   0  0  0  0  0  0  0  0  0  0  0  0
  -43.7538   -0.8467  -33.2994 H   0  0  0  0  0  0  0  0  0  0  0  0
  -42.2423   -2.0637  -34.0401 C   0  0  0  0  0  0  0  0  0  0  0  0
  -42.5307   -3.2419  -33.1650 C   0  0  0  0  0  0  0  0  0  0  0  0
  -43.4375   -3.1740  -32.3130 O   0  0  0  0  0  0  0  0  0  0  0  0
  -41.8199   -4.2416  -33.3481 O   0  0  0  0  0  0  0  0  0  0  0  0
  -41.1535   -4.2284  -34.0067 H   0  0  0  0  0  0  0  0  0  0  0  0
  -44.2057    1.0099  -32.6328 C   0  0  0  0  0  0  0  0  0  0  0  0
  -45.0676    2.3145  -33.4517 S   0  0  0  0  0  0  0  0  0  0  0  0
  -44.8681    1.9909  -35.1574 C   0  0  0  0  0  0  0  0  0  0  0  0
  -44.4742    3.2624  -35.9131 C   0  0  0  0  0  0  0  0  0  0  0  0
  -45.0783    4.5125  -35.2739 C   0  0  0  0  0  0  0  0  0  0  0  0
  -44.0538    5.6066  -35.0476 C   0  0  0  0  0  0  0  0  0  0  0  0
  -44.4610    6.6570  -34.0224 C   0  0  0  0  0  0  0  0  0  0  0  0
  -45.5914    6.2065  -33.1314 C   0  0  0  0  0  0  0  0  0  0  0  0
  8  9  1  0  0  0
  9 13  1  0  0  0
  9  7  1  0  0  0
 13 14  2  0  0  0
 13 15  1  0  0  0
  7  6  1  0  0  0
  6  2  1  0  0  0
  2  3  2  0  0  0
  2  4  1  0  0  0
  4  1  1  0  0  0
  1 17  1  0  0  0
  1 26  1  0  0  0
 17 18  2  0  0  0
 17 19  1  0  0  0
 26 27  1  0  0  0
 27 28  1  0  0  0
 28 29  1  0  0  0
 29 30  1  0  0  0
 30 31  1  0  0  0
 31 32  1  0  0  0
 32 33  1  0  0  0
 19 21  1  0  0  0
 21 22  1  0  0  0
 22 23  2  0  0  0
 22 24  1  0  0  0
  8 10  1  0  0  0
  8 11  1  0  0  0
  8 12  1  0  0  0
 15 16  1  0  0  0
  4  5  1  0  0  0
 19 20  1  0  0  0
 24 25  1  0  0  0
M  CHG 1   8   1
M  END
> <minimizedAffinity>
-5.94908

$$$$
5KEJ_GTX_A_301


 33 32  0  0  0  0  0  0  0  0999 V2000
  -42.8371    2.1756  -34.5310 C   0  0  0  0  0  0  0  0  0  0  0  0
  -44.0423    0.1247  -34.9345 C   0  0  0  0  0  0  0  0  0  0  0  0
  -44.6997    0.6494  -35.7621 O   0  0  0  0  0  0  0  0  0  0  0  0
  -43.1948    0.8161  -34.2079 N   0  0  0  0  0  0  0  0  0  0  0  0
  -42.7902    0.3927  -33.4165 H   0  0  0  0  0  0  0  0  0  0  0  0
  -44.2001   -1.3429  -34.6739 C   0  0  0  0  0  0  0  0  0  0  0  0
  -42.8849   -2.0064  -34.3385 C   0  0  0  0  0  0  0  0  0  0  0  0
  -44.2486   -2.7758  -32.4484 N   0  0  0  0  0  0  0  0  0  0  0  0
  -42.8826   -2.5743  -32.9251 C   0  0  0  0  0  0  0  0  0  0  0  0
  -44.2259   -3.1559  -31.5022 H   0  0  0  0  0  0  0  0  0  0  0  0
  -44.7312   -3.4289  -33.0657 H   0  0  0  0  0  0  0  0  0  0  0  0
  -44.7426   -1.8834  -32.4447 H   0  0  0  0  0  0  0  0  0  0  0  0
  -42.1832   -1.6686  -31.9759 C   0  0  0  0  0  0  0  0  0  0  0  0
  -42.6924   -0.6173  -31.7265 O   0  0  0  0  0  0  0  0  0  0  0  0
  -41.1182   -1.9790  -31.4887 O   0  0  0  0  0  0  0  0  0  0  0  0
  -40.7324   -2.8076  -31.6948 H   0  0  0  0  0  0  0  0  0  0  0  0
  -41.6089    2.5794  -33.8117 C   0  0  0  0  0  0  0  0  0  0  0  0
  -40.8740    3.4128  -34.2774 O   0  0  0  0  0  0  0  0  0  0  0  0
  -41.3999    2.0080  -32.6565 N   0  0  0  0  0  0  0  0  0  0  0  0
  -42.0880    1.4053  -32.2924 H   0  0  0  0  0  0  0  0  0  0  0  0
  -40.2184    2.2257  -31.9106 C   0  0  0  0  0  0  0  0  0  0  0  0
  -39.1901    1.2622  -32.4121 C   0  0  0  0  0  0  0  0  0  0  0  0
  -39.2061    0.0792  -32.0208 O   0  0  0  0  0  0  0  0  0  0  0  0
  -38.3574    1.7218  -33.2080 O   0  0  0  0  0  0  0  0  0  0  0  0
  -38.4004    2.6224  -33.4629 H   0  0  0  0  0  0  0  0  0  0  0  0
  -43.9196    3.1774  -34.1613 C   0  0  0  0  0  0  0  0  0  0  0  0
  -44.6607    4.0695  -35.4919 S   0  0  0  0  0  0  0  0  0  0  0  0
  -44.8127    5.7104  -34.9104 C   0  0  0  0  0  0  0  0  0  0  0  0
  -45.6953    5.7686  -33.6611 C   0  0  0  0  0  0  0  0  0  0  0  0
  -45.4169    7.0191  -32.8274 C   0  0  0  0  0  0  0  0  0  0  0  0
  -46.4335    7.2226  -31.7216 C   0  0  0  0  0  0  0  0  0  0  0  0
  -46.8447    8.6717  -31.4946 C   0  0  0  0  0  0  0  0  0  0  0  0
  -45.9222    9.6597  -32.1636 C   0  0  0  0  0  0  0  0  0  0  0  0
  8  9  1  0  0  0
  9 13  1  0  0  0
  9  7  1  0  0  0
 13 14  2  0  0  0
 13 15  1  0  0  0
  7  6  1  0  0  0
  6  2  1  0  0  0
  2  3  2  0  0  0
  2  4  1  0  0  0
  4  1  1  0  0  0
  1 17  1  0  0  0
  1 26  1  0  0  0
 17 18  2  0  0  0
 17 19  1  0  0  0
 26 27  1  0  0  0
 27 28  1  0  0  0
 28 29  1  0  0  0
 29 30  1  0  0  0
 30 31  1  0  0  0
 31 32  1  0  0  0
 32 33  1  0  0  0
 19 21  1  0  0  0
 21 22  1  0  0  0
 22 23  2  0  0  0
 22 24  1  0  0  0
  8 10  1  0  0  0
  8 11  1  0  0  0
  8 12  1  0  0  0
 15 16  1  0  0  0
  4  5  1  0  0  0
 19 20  1  0  0  0
 24 25  1  0  0  0
M  CHG 1   8   1
M  END
> <minimizedAffinity>
-5.83572

$$$$
