5AQZ_SGV_A_1389


 29 31  0  0  0  0  0  0  0  0999 V2000
   17.8335  -10.5067  -13.0050 N   0  0  0  0  0  0  0  0  0  0  0  0
   16.7146   -9.8508  -13.3142 C   0  0  0  0  0  0  0  0  0  0  0  0
   15.6239   -9.6605  -12.5719 N   0  0  0  0  0  0  0  0  0  0  0  0
   15.7320  -10.2192  -11.3618 C   0  0  0  0  0  0  0  0  0  0  0  0
   16.8459  -10.9368  -10.8930 C   0  0  0  0  0  0  0  0  0  0  0  0
   17.9317  -11.0783  -11.7866 C   0  0  0  0  0  0  0  0  0  0  0  0
   19.0361  -11.7694  -11.5029 N   0  0  0  0  0  0  0  0  0  0  0  0
   16.5667  -11.3498   -9.5395 C   0  0  0  0  0  0  0  0  0  0  0  0
   15.3147  -10.8844   -9.2402 C   0  0  0  0  0  0  0  0  0  0  0  0
   14.7985  -10.1884  -10.3545 N   0  0  0  0  0  0  0  0  0  0  0  0
   19.7608  -11.8332  -12.1662 H   0  0  0  0  0  0  0  0  0  0  0  0
   19.1268  -12.2158  -10.6302 H   0  0  0  0  0  0  0  0  0  0  0  0
   13.4871   -9.5536  -10.4118 C   0  0  0  0  0  0  0  0  0  0  0  0
   12.3303  -10.4512   -9.9972 C   0  0  0  0  0  0  0  0  0  0  0  0
   11.9100  -11.2715  -11.0776 O   0  0  0  0  0  0  0  0  0  0  0  0
   11.2761   -9.4051   -9.6325 C   0  0  0  0  0  0  0  0  0  0  0  0
   10.5464   -8.9698  -10.7691 O   0  0  0  0  0  0  0  0  0  0  0  0
   12.1099   -8.2666   -9.0443 C   0  0  0  0  0  0  0  0  0  0  0  0
   13.4632   -8.4678   -9.5108 O   0  0  0  0  0  0  0  0  0  0  0  0
   11.6871  -10.7139  -11.8393 H   0  0  0  0  0  0  0  0  0  0  0  0
   11.1599   -8.6109  -11.4292 H   0  0  0  0  0  0  0  0  0  0  0  0
   12.1079   -8.1900   -7.5361 C   0  0  0  0  0  0  0  0  0  0  0  0
   13.0299   -7.2147   -7.0759 O   0  0  0  0  0  0  0  0  0  0  0  0
   13.9245   -7.4536   -7.3650 H   0  0  0  0  0  0  0  0  0  0  0  0
   17.4684  -12.0872   -8.6564 C   0  0  0  0  0  0  0  0  0  0  0  0
   17.3863  -11.7516   -7.3786 N   0  0  0  0  0  0  0  0  0  0  0  0
   18.2484  -12.9473   -9.0738 O   0  0  0  0  0  0  0  0  0  0  0  0
   16.7483  -11.0589   -7.0916 H   0  0  0  0  0  0  0  0  0  0  0  0
   17.9631  -12.1947   -6.7152 H   0  0  0  0  0  0  0  0  0  0  0  0
  1  2  2  0  0  0
  1  6  1  0  0  0
  2  3  1  0  0  0
  3  4  2  0  0  0
  4  5  1  0  0  0
  4 10  1  0  0  0
  5  6  2  0  0  0
  5  8  1  0  0  0
  6  7  1  0  0  0
  8  9  2  0  0  0
  8 25  1  0  0  0
  9 10  1  0  0  0
 10 13  1  0  0  0
 13 14  1  0  0  0
 13 19  1  0  0  0
 25 26  1  0  0  0
 25 27  2  0  0  0
 14 15  1  0  0  0
 14 16  1  0  0  0
 16 17  1  0  0  0
 16 18  1  0  0  0
 18 19  1  0  0  0
 18 22  1  0  0  0
 22 23  1  0  0  0
  7 11  1  0  0  0
  7 12  1  0  0  0
 26 28  1  0  0  0
 26 29  1  0  0  0
 15 20  1  0  0  0
 17 21  1  0  0  0
 23 24  1  0  0  0
M  END
> <minimizedAffinity>
-8.83383

$$$$
5AQZ_SGV_A_1389


 29 31  0  0  0  0  0  0  0  0999 V2000
   17.1368  -11.9359   -8.0041 N   0  0  0  0  0  0  0  0  0  0  0  0
   15.9472  -11.4862   -7.6034 C   0  0  0  0  0  0  0  0  0  0  0  0
   15.0175  -10.8388   -8.3057 N   0  0  0  0  0  0  0  0  0  0  0  0
   15.3828  -10.6540   -9.5787 C   0  0  0  0  0  0  0  0  0  0  0  0
   16.5990  -11.0725  -10.1456 C   0  0  0  0  0  0  0  0  0  0  0  0
   17.5045  -11.7359   -9.2869 C   0  0  0  0  0  0  0  0  0  0  0  0
   18.7137  -12.1499   -9.6667 N   0  0  0  0  0  0  0  0  0  0  0  0
   16.5878  -10.6989  -11.5387 C   0  0  0  0  0  0  0  0  0  0  0  0
   15.3921  -10.0724  -11.7649 C   0  0  0  0  0  0  0  0  0  0  0  0
   14.6479  -10.0436  -10.5657 N   0  0  0  0  0  0  0  0  0  0  0  0
   19.3020  -12.6073   -9.0233 H   0  0  0  0  0  0  0  0  0  0  0  0
   19.0182  -11.9982  -10.5905 H   0  0  0  0  0  0  0  0  0  0  0  0
   13.3229   -9.4536  -10.4160 C   0  0  0  0  0  0  0  0  0  0  0  0
   12.2454  -10.4247   -9.9561 C   0  0  0  0  0  0  0  0  0  0  0  0
   11.7235  -11.1622  -11.0518 O   0  0  0  0  0  0  0  0  0  0  0  0
   11.2144   -9.4528   -9.3806 C   0  0  0  0  0  0  0  0  0  0  0  0
   10.3467   -8.9464  -10.3830 O   0  0  0  0  0  0  0  0  0  0  0  0
   12.0816   -8.3408   -8.7900 C   0  0  0  0  0  0  0  0  0  0  0  0
   13.3762   -8.4520   -9.4233 O   0  0  0  0  0  0  0  0  0  0  0  0
   11.3995  -10.5486  -11.7295 H   0  0  0  0  0  0  0  0  0  0  0  0
   10.8700   -8.5096  -11.0731 H   0  0  0  0  0  0  0  0  0  0  0  0
   12.2529   -8.3961   -7.2907 C   0  0  0  0  0  0  0  0  0  0  0  0
   13.5913   -8.7147   -6.9438 O   0  0  0  0  0  0  0  0  0  0  0  0
   13.8209   -9.5846   -7.3063 H   0  0  0  0  0  0  0  0  0  0  0  0
   17.6380  -10.9757  -12.5172 C   0  0  0  0  0  0  0  0  0  0  0  0
   17.2838  -10.7795  -13.7774 N   0  0  0  0  0  0  0  0  0  0  0  0
   18.7611  -11.3687  -12.1910 O   0  0  0  0  0  0  0  0  0  0  0  0
   16.3755  -10.4649  -13.9902 H   0  0  0  0  0  0  0  0  0  0  0  0
   17.9286  -10.9482  -14.5020 H   0  0  0  0  0  0  0  0  0  0  0  0
  1  2  2  0  0  0
  1  6  1  0  0  0
  2  3  1  0  0  0
  3  4  2  0  0  0
  4  5  1  0  0  0
  4 10  1  0  0  0
  5  6  2  0  0  0
  5  8  1  0  0  0
  6  7  1  0  0  0
  8  9  2  0  0  0
  8 25  1  0  0  0
  9 10  1  0  0  0
 10 13  1  0  0  0
 13 14  1  0  0  0
 13 19  1  0  0  0
 25 26  1  0  0  0
 25 27  2  0  0  0
 14 15  1  0  0  0
 14 16  1  0  0  0
 16 17  1  0  0  0
 16 18  1  0  0  0
 18 19  1  0  0  0
 18 22  1  0  0  0
 22 23  1  0  0  0
  7 11  1  0  0  0
  7 12  1  0  0  0
 26 28  1  0  0  0
 26 29  1  0  0  0
 15 20  1  0  0  0
 17 21  1  0  0  0
 23 24  1  0  0  0
M  END
> <minimizedAffinity>
-8.60742

$$$$
5AQZ_SGV_A_1389


 29 31  0  0  0  0  0  0  0  0999 V2000
    9.3776  -10.6344   -9.7381 N   0  0  0  0  0  0  0  0  0  0  0  0
   10.0652  -11.0976  -10.7824 C   0  0  0  0  0  0  0  0  0  0  0  0
   11.3734  -11.0170  -11.0252 N   0  0  0  0  0  0  0  0  0  0  0  0
   12.0308  -10.3829  -10.0485 C   0  0  0  0  0  0  0  0  0  0  0  0
   11.4455   -9.8443   -8.8896 C   0  0  0  0  0  0  0  0  0  0  0  0
   10.0451   -9.9851   -8.7616 C   0  0  0  0  0  0  0  0  0  0  0  0
    9.3431   -9.4872   -7.7433 N   0  0  0  0  0  0  0  0  0  0  0  0
   12.4992   -9.2687   -8.0902 C   0  0  0  0  0  0  0  0  0  0  0  0
   13.6647   -9.4669   -8.7800 C   0  0  0  0  0  0  0  0  0  0  0  0
   13.3833  -10.1518   -9.9819 N   0  0  0  0  0  0  0  0  0  0  0  0
    8.3679   -9.6171   -7.7076 H   0  0  0  0  0  0  0  0  0  0  0  0
    9.8000   -8.9896   -7.0271 H   0  0  0  0  0  0  0  0  0  0  0  0
   14.3751  -10.5364  -10.9790 C   0  0  0  0  0  0  0  0  0  0  0  0
   15.1770   -9.3781  -11.5543 C   0  0  0  0  0  0  0  0  0  0  0  0
   14.4649   -8.7370  -12.6026 O   0  0  0  0  0  0  0  0  0  0  0  0
   16.4112  -10.1174  -12.0729 C   0  0  0  0  0  0  0  0  0  0  0  0
   16.2071  -10.6392  -13.3768 O   0  0  0  0  0  0  0  0  0  0  0  0
   16.5935  -11.2412  -11.0525 C   0  0  0  0  0  0  0  0  0  0  0  0
   15.3243  -11.3895  -10.3766 O   0  0  0  0  0  0  0  0  0  0  0  0
   14.2272   -9.3905  -13.2788 H   0  0  0  0  0  0  0  0  0  0  0  0
   15.4393  -11.2320  -13.3713 H   0  0  0  0  0  0  0  0  0  0  0  0
   17.6787  -11.0022  -10.0300 C   0  0  0  0  0  0  0  0  0  0  0  0
   17.1249  -10.6121   -8.7833 O   0  0  0  0  0  0  0  0  0  0  0  0
   16.6276   -9.7867   -8.8945 H   0  0  0  0  0  0  0  0  0  0  0  0
   12.3449   -8.6350   -6.7820 C   0  0  0  0  0  0  0  0  0  0  0  0
   12.9655   -9.2559   -5.7913 N   0  0  0  0  0  0  0  0  0  0  0  0
   11.6815   -7.6079   -6.6171 O   0  0  0  0  0  0  0  0  0  0  0  0
   13.4838  -10.0734   -5.9706 H   0  0  0  0  0  0  0  0  0  0  0  0
   12.9086   -8.9001   -4.8751 H   0  0  0  0  0  0  0  0  0  0  0  0
  1  2  2  0  0  0
  1  6  1  0  0  0
  2  3  1  0  0  0
  3  4  2  0  0  0
  4  5  1  0  0  0
  4 10  1  0  0  0
  5  6  2  0  0  0
  5  8  1  0  0  0
  6  7  1  0  0  0
  8  9  2  0  0  0
  8 25  1  0  0  0
  9 10  1  0  0  0
 10 13  1  0  0  0
 13 14  1  0  0  0
 13 19  1  0  0  0
 25 26  1  0  0  0
 25 27  2  0  0  0
 14 15  1  0  0  0
 14 16  1  0  0  0
 16 17  1  0  0  0
 16 18  1  0  0  0
 18 19  1  0  0  0
 18 22  1  0  0  0
 22 23  1  0  0  0
  7 11  1  0  0  0
  7 12  1  0  0  0
 26 28  1  0  0  0
 26 29  1  0  0  0
 15 20  1  0  0  0
 17 21  1  0  0  0
 23 24  1  0  0  0
M  END
> <minimizedAffinity>
-8.24521

$$$$
5AQZ_SGV_A_1389


 29 31  0  0  0  0  0  0  0  0999 V2000
   18.0350  -12.2335   -8.9926 N   0  0  0  0  0  0  0  0  0  0  0  0
   17.2361  -12.0627   -7.9389 C   0  0  0  0  0  0  0  0  0  0  0  0
   16.0690  -11.4227   -7.8688 N   0  0  0  0  0  0  0  0  0  0  0  0
   15.6999  -10.9133   -9.0488 C   0  0  0  0  0  0  0  0  0  0  0  0
   16.4328  -11.0138  -10.2439 C   0  0  0  0  0  0  0  0  0  0  0  0
   17.6627  -11.7069  -10.1778 C   0  0  0  0  0  0  0  0  0  0  0  0
   18.4890  -11.8448  -11.2151 N   0  0  0  0  0  0  0  0  0  0  0  0
   15.6791  -10.3517  -11.2804 C   0  0  0  0  0  0  0  0  0  0  0  0
   14.5400   -9.8748  -10.6901 C   0  0  0  0  0  0  0  0  0  0  0  0
   14.5468  -10.2181   -9.3209 N   0  0  0  0  0  0  0  0  0  0  0  0
   19.3338  -12.3392  -11.1092 H   0  0  0  0  0  0  0  0  0  0  0  0
   18.2544  -11.4523  -12.0870 H   0  0  0  0  0  0  0  0  0  0  0  0
   13.4984   -9.8774   -8.3666 C   0  0  0  0  0  0  0  0  0  0  0  0
   12.4955   -8.8485   -8.8679 C   0  0  0  0  0  0  0  0  0  0  0  0
   12.9916   -7.5288   -8.6972 O   0  0  0  0  0  0  0  0  0  0  0  0
   11.3099   -9.1352   -7.9455 C   0  0  0  0  0  0  0  0  0  0  0  0
   11.4198   -8.4439   -6.7110 O   0  0  0  0  0  0  0  0  0  0  0  0
   11.3923  -10.6478   -7.7387 C   0  0  0  0  0  0  0  0  0  0  0  0
   12.7417  -11.0345   -8.0837 O   0  0  0  0  0  0  0  0  0  0  0  0
   13.2262   -7.3895   -7.7663 H   0  0  0  0  0  0  0  0  0  0  0  0
   12.2505   -8.6906   -6.2752 H   0  0  0  0  0  0  0  0  0  0  0  0
   10.4160  -11.4562   -8.5595 C   0  0  0  0  0  0  0  0  0  0  0  0
   11.0319  -11.9532   -9.7371 O   0  0  0  0  0  0  0  0  0  0  0  0
   11.3395  -11.2101  -10.2793 H   0  0  0  0  0  0  0  0  0  0  0  0
   16.0512  -10.2505  -12.6904 C   0  0  0  0  0  0  0  0  0  0  0  0
   15.9149   -9.0415  -13.2118 N   0  0  0  0  0  0  0  0  0  0  0  0
   16.4521  -11.2189  -13.3413 O   0  0  0  0  0  0  0  0  0  0  0  0
   15.5911   -8.2982  -12.6533 H   0  0  0  0  0  0  0  0  0  0  0  0
   16.1373   -8.8856  -14.1581 H   0  0  0  0  0  0  0  0  0  0  0  0
  1  2  2  0  0  0
  1  6  1  0  0  0
  2  3  1  0  0  0
  3  4  2  0  0  0
  4  5  1  0  0  0
  4 10  1  0  0  0
  5  6  2  0  0  0
  5  8  1  0  0  0
  6  7  1  0  0  0
  8  9  2  0  0  0
  8 25  1  0  0  0
  9 10  1  0  0  0
 10 13  1  0  0  0
 13 14  1  0  0  0
 13 19  1  0  0  0
 25 26  1  0  0  0
 25 27  2  0  0  0
 14 15  1  0  0  0
 14 16  1  0  0  0
 16 17  1  0  0  0
 16 18  1  0  0  0
 18 19  1  0  0  0
 18 22  1  0  0  0
 22 23  1  0  0  0
  7 11  1  0  0  0
  7 12  1  0  0  0
 26 28  1  0  0  0
 26 29  1  0  0  0
 15 20  1  0  0  0
 17 21  1  0  0  0
 23 24  1  0  0  0
M  END
> <minimizedAffinity>
-8.11170

$$$$
5AQZ_SGV_A_1389


 29 31  0  0  0  0  0  0  0  0999 V2000
   13.5967  -10.8631   -8.8607 N   0  0  0  0  0  0  0  0  0  0  0  0
   14.0610  -10.2489   -7.7722 C   0  0  0  0  0  0  0  0  0  0  0  0
   13.3905   -9.5533   -6.8538 N   0  0  0  0  0  0  0  0  0  0  0  0
   12.0789   -9.5098   -7.1104 C   0  0  0  0  0  0  0  0  0  0  0  0
   11.4446  -10.1089   -8.2124 C   0  0  0  0  0  0  0  0  0  0  0  0
   12.2738  -10.8056   -9.1203 C   0  0  0  0  0  0  0  0  0  0  0  0
   11.8254  -11.3852  -10.2343 N   0  0  0  0  0  0  0  0  0  0  0  0
   10.0308   -9.8439   -8.1052 C   0  0  0  0  0  0  0  0  0  0  0  0
    9.8583   -9.1016   -6.9681 C   0  0  0  0  0  0  0  0  0  0  0  0
   11.1118   -8.8951   -6.3528 N   0  0  0  0  0  0  0  0  0  0  0  0
   12.4512  -11.8575  -10.8297 H   0  0  0  0  0  0  0  0  0  0  0  0
   10.8685  -11.3408  -10.4613 H   0  0  0  0  0  0  0  0  0  0  0  0
   11.3269   -8.1454   -5.1209 C   0  0  0  0  0  0  0  0  0  0  0  0
   11.9109   -6.7543   -5.3197 C   0  0  0  0  0  0  0  0  0  0  0  0
   13.3232   -6.8100   -5.4575 O   0  0  0  0  0  0  0  0  0  0  0  0
   11.4920   -6.0812   -4.0119 C   0  0  0  0  0  0  0  0  0  0  0  0
   12.4179   -6.3332   -2.9663 O   0  0  0  0  0  0  0  0  0  0  0  0
   10.1366   -6.7222   -3.7134 C   0  0  0  0  0  0  0  0  0  0  0  0
   10.0842   -7.9448   -4.4829 O   0  0  0  0  0  0  0  0  0  0  0  0
   13.7055   -7.2621   -4.6891 H   0  0  0  0  0  0  0  0  0  0  0  0
   12.5067   -7.2904   -2.8368 H   0  0  0  0  0  0  0  0  0  0  0  0
    8.9395   -5.8668   -4.0535 C   0  0  0  0  0  0  0  0  0  0  0  0
    8.3096   -5.3839   -2.8775 O   0  0  0  0  0  0  0  0  0  0  0  0
    8.0031   -6.1337   -2.3438 H   0  0  0  0  0  0  0  0  0  0  0  0
    8.9907  -10.3147   -9.0179 C   0  0  0  0  0  0  0  0  0  0  0  0
    8.1366  -11.1744   -8.4851 N   0  0  0  0  0  0  0  0  0  0  0  0
    8.9224   -9.9444  -10.1928 O   0  0  0  0  0  0  0  0  0  0  0  0
    8.2304  -11.4411   -7.5421 H   0  0  0  0  0  0  0  0  0  0  0  0
    7.4076  -11.5470   -9.0319 H   0  0  0  0  0  0  0  0  0  0  0  0
  1  2  2  0  0  0
  1  6  1  0  0  0
  2  3  1  0  0  0
  3  4  2  0  0  0
  4  5  1  0  0  0
  4 10  1  0  0  0
  5  6  2  0  0  0
  5  8  1  0  0  0
  6  7  1  0  0  0
  8  9  2  0  0  0
  8 25  1  0  0  0
  9 10  1  0  0  0
 10 13  1  0  0  0
 13 14  1  0  0  0
 13 19  1  0  0  0
 25 26  1  0  0  0
 25 27  2  0  0  0
 14 15  1  0  0  0
 14 16  1  0  0  0
 16 17  1  0  0  0
 16 18  1  0  0  0
 18 19  1  0  0  0
 18 22  1  0  0  0
 22 23  1  0  0  0
  7 11  1  0  0  0
  7 12  1  0  0  0
 26 28  1  0  0  0
 26 29  1  0  0  0
 15 20  1  0  0  0
 17 21  1  0  0  0
 23 24  1  0  0  0
M  END
> <minimizedAffinity>
-8.10197

$$$$
5AQZ_SGV_A_1389


 29 31  0  0  0  0  0  0  0  0999 V2000
   17.4791  -10.2213  -13.0928 N   0  0  0  0  0  0  0  0  0  0  0  0
   16.3072   -9.5878  -13.0372 C   0  0  0  0  0  0  0  0  0  0  0  0
   15.4078   -9.5768  -12.0534 N   0  0  0  0  0  0  0  0  0  0  0  0
   15.7956  -10.3115  -11.0055 C   0  0  0  0  0  0  0  0  0  0  0  0
   16.9998  -11.0311  -10.9168 C   0  0  0  0  0  0  0  0  0  0  0  0
   17.8594  -10.9705  -12.0370 C   0  0  0  0  0  0  0  0  0  0  0  0
   19.0121  -11.6355  -12.1197 N   0  0  0  0  0  0  0  0  0  0  0  0
   17.0396  -11.6660   -9.6222 C   0  0  0  0  0  0  0  0  0  0  0  0
   15.8784  -11.3232   -8.9838 C   0  0  0  0  0  0  0  0  0  0  0  0
   15.1120  -10.4906   -9.8276 N   0  0  0  0  0  0  0  0  0  0  0  0
   19.5703  -11.5544  -12.9266 H   0  0  0  0  0  0  0  0  0  0  0  0
   19.3050  -12.2076  -11.3740 H   0  0  0  0  0  0  0  0  0  0  0  0
   13.8095   -9.9282   -9.4910 C   0  0  0  0  0  0  0  0  0  0  0  0
   12.6537  -10.9147   -9.5715 C   0  0  0  0  0  0  0  0  0  0  0  0
   12.1837  -11.0404  -10.9058 O   0  0  0  0  0  0  0  0  0  0  0  0
   11.6292  -10.2255   -8.6692 C   0  0  0  0  0  0  0  0  0  0  0  0
   10.8679   -9.2578   -9.3748 O   0  0  0  0  0  0  0  0  0  0  0  0
   12.5004   -9.5672   -7.5991 C   0  0  0  0  0  0  0  0  0  0  0  0
   13.8337   -9.4844   -8.1516 O   0  0  0  0  0  0  0  0  0  0  0  0
   11.9436  -10.1650  -11.2479 H   0  0  0  0  0  0  0  0  0  0  0  0
   11.4640   -8.6009   -9.7673 H   0  0  0  0  0  0  0  0  0  0  0  0
   12.5514  -10.3009   -6.2803 C   0  0  0  0  0  0  0  0  0  0  0  0
   13.8924  -10.5108   -5.8672 O   0  0  0  0  0  0  0  0  0  0  0  0
   14.3545  -11.0480   -6.5297 H   0  0  0  0  0  0  0  0  0  0  0  0
   18.1305  -12.4818   -9.0920 C   0  0  0  0  0  0  0  0  0  0  0  0
   18.2412  -12.4655   -7.7730 N   0  0  0  0  0  0  0  0  0  0  0  0
   18.8905  -13.1262   -9.8195 O   0  0  0  0  0  0  0  0  0  0  0  0
   17.6111  -11.9361   -7.2326 H   0  0  0  0  0  0  0  0  0  0  0  0
   18.9536  -12.9828   -7.3323 H   0  0  0  0  0  0  0  0  0  0  0  0
  1  2  2  0  0  0
  1  6  1  0  0  0
  2  3  1  0  0  0
  3  4  2  0  0  0
  4  5  1  0  0  0
  4 10  1  0  0  0
  5  6  2  0  0  0
  5  8  1  0  0  0
  6  7  1  0  0  0
  8  9  2  0  0  0
  8 25  1  0  0  0
  9 10  1  0  0  0
 10 13  1  0  0  0
 13 14  1  0  0  0
 13 19  1  0  0  0
 25 26  1  0  0  0
 25 27  2  0  0  0
 14 15  1  0  0  0
 14 16  1  0  0  0
 16 17  1  0  0  0
 16 18  1  0  0  0
 18 19  1  0  0  0
 18 22  1  0  0  0
 22 23  1  0  0  0
  7 11  1  0  0  0
  7 12  1  0  0  0
 26 28  1  0  0  0
 26 29  1  0  0  0
 15 20  1  0  0  0
 17 21  1  0  0  0
 23 24  1  0  0  0
M  END
> <minimizedAffinity>
-7.96490

$$$$
5AQZ_SGV_A_1389


 29 31  0  0  0  0  0  0  0  0999 V2000
   16.1436   -9.4108  -13.0549 N   0  0  0  0  0  0  0  0  0  0  0  0
   14.9677   -8.9304  -12.6496 C   0  0  0  0  0  0  0  0  0  0  0  0
   14.3217   -9.1542  -11.5053 N   0  0  0  0  0  0  0  0  0  0  0  0
   15.0004   -9.9716  -10.6932 C   0  0  0  0  0  0  0  0  0  0  0  0
   16.2479  -10.5522  -10.9796 C   0  0  0  0  0  0  0  0  0  0  0  0
   16.8179  -10.2444  -12.2357 C   0  0  0  0  0  0  0  0  0  0  0  0
   17.9715  -10.7544  -12.6678 N   0  0  0  0  0  0  0  0  0  0  0  0
   16.6379  -11.3444   -9.8390 C   0  0  0  0  0  0  0  0  0  0  0  0
   15.6309  -11.2262   -8.9194 C   0  0  0  0  0  0  0  0  0  0  0  0
   14.6241  -10.3834   -9.4378 N   0  0  0  0  0  0  0  0  0  0  0  0
   18.3199  -10.5029  -13.5536 H   0  0  0  0  0  0  0  0  0  0  0  0
   18.4750  -11.3826  -12.1012 H   0  0  0  0  0  0  0  0  0  0  0  0
   13.3924  -10.0253   -8.7447 C   0  0  0  0  0  0  0  0  0  0  0  0
   12.6410   -8.8509   -9.3543 C   0  0  0  0  0  0  0  0  0  0  0  0
   13.1778   -7.6150   -8.9056 O   0  0  0  0  0  0  0  0  0  0  0  0
   11.2360   -9.0957   -8.8023 C   0  0  0  0  0  0  0  0  0  0  0  0
   11.0724   -8.5425   -7.5057 O   0  0  0  0  0  0  0  0  0  0  0  0
   11.1412  -10.6212   -8.7660 C   0  0  0  0  0  0  0  0  0  0  0  0
   12.4989  -11.1160   -8.8039 O   0  0  0  0  0  0  0  0  0  0  0  0
   13.1701   -7.5921   -7.9359 H   0  0  0  0  0  0  0  0  0  0  0  0
   11.7373   -8.9182   -6.9076 H   0  0  0  0  0  0  0  0  0  0  0  0
   10.3538  -11.2368   -9.8979 C   0  0  0  0  0  0  0  0  0  0  0  0
   11.1443  -11.3354  -11.0719 O   0  0  0  0  0  0  0  0  0  0  0  0
   11.4263  -10.4491  -11.3473 H   0  0  0  0  0  0  0  0  0  0  0  0
   17.8855  -12.0915   -9.6903 C   0  0  0  0  0  0  0  0  0  0  0  0
   18.2112  -12.3786   -8.4398 N   0  0  0  0  0  0  0  0  0  0  0  0
   18.5809  -12.4193  -10.6552 O   0  0  0  0  0  0  0  0  0  0  0  0
   17.6248  -12.0963   -7.7011 H   0  0  0  0  0  0  0  0  0  0  0  0
   19.0399  -12.8745   -8.2484 H   0  0  0  0  0  0  0  0  0  0  0  0
  1  2  2  0  0  0
  1  6  1  0  0  0
  2  3  1  0  0  0
  3  4  2  0  0  0
  4  5  1  0  0  0
  4 10  1  0  0  0
  5  6  2  0  0  0
  5  8  1  0  0  0
  6  7  1  0  0  0
  8  9  2  0  0  0
  8 25  1  0  0  0
  9 10  1  0  0  0
 10 13  1  0  0  0
 13 14  1  0  0  0
 13 19  1  0  0  0
 25 26  1  0  0  0
 25 27  2  0  0  0
 14 15  1  0  0  0
 14 16  1  0  0  0
 16 17  1  0  0  0
 16 18  1  0  0  0
 18 19  1  0  0  0
 18 22  1  0  0  0
 22 23  1  0  0  0
  7 11  1  0  0  0
  7 12  1  0  0  0
 26 28  1  0  0  0
 26 29  1  0  0  0
 15 20  1  0  0  0
 17 21  1  0  0  0
 23 24  1  0  0  0
M  END
> <minimizedAffinity>
-7.88884

$$$$
5AQZ_SGV_A_1389


 29 31  0  0  0  0  0  0  0  0999 V2000
   11.8836  -10.0552  -10.9695 N   0  0  0  0  0  0  0  0  0  0  0  0
   11.0964   -9.1347  -10.4121 C   0  0  0  0  0  0  0  0  0  0  0  0
   11.1930   -8.5684   -9.2093 N   0  0  0  0  0  0  0  0  0  0  0  0
   12.2470   -9.0196   -8.5211 C   0  0  0  0  0  0  0  0  0  0  0  0
   13.1643   -9.9826   -8.9757 C   0  0  0  0  0  0  0  0  0  0  0  0
   12.9388  -10.5151  -10.2653 C   0  0  0  0  0  0  0  0  0  0  0  0
   13.6943  -11.4672  -10.8134 N   0  0  0  0  0  0  0  0  0  0  0  0
   14.1550  -10.1695   -7.9441 C   0  0  0  0  0  0  0  0  0  0  0  0
   13.8089   -9.3355   -6.9154 C   0  0  0  0  0  0  0  0  0  0  0  0
   12.6396   -8.6262   -7.2649 N   0  0  0  0  0  0  0  0  0  0  0  0
   13.4886  -11.7996  -11.7169 H   0  0  0  0  0  0  0  0  0  0  0  0
   14.4578  -11.8378  -10.3145 H   0  0  0  0  0  0  0  0  0  0  0  0
   11.9693   -7.6467   -6.4180 C   0  0  0  0  0  0  0  0  0  0  0  0
   10.7682   -8.1857   -5.6548 C   0  0  0  0  0  0  0  0  0  0  0  0
    9.6047   -8.1833   -6.4692 O   0  0  0  0  0  0  0  0  0  0  0  0
   10.6716   -7.1647   -4.5203 C   0  0  0  0  0  0  0  0  0  0  0  0
    9.9289   -6.0173   -4.9021 O   0  0  0  0  0  0  0  0  0  0  0  0
   12.1340   -6.8096   -4.2511 C   0  0  0  0  0  0  0  0  0  0  0  0
   12.8730   -7.1988   -5.4309 O   0  0  0  0  0  0  0  0  0  0  0  0
    9.4511   -7.2886   -6.8110 H   0  0  0  0  0  0  0  0  0  0  0  0
   10.3380   -5.6125   -5.6829 H   0  0  0  0  0  0  0  0  0  0  0  0
   12.7387   -7.4789   -3.0400 C   0  0  0  0  0  0  0  0  0  0  0  0
   13.0777   -8.8276   -3.3212 O   0  0  0  0  0  0  0  0  0  0  0  0
   12.2778   -9.3172   -3.5689 H   0  0  0  0  0  0  0  0  0  0  0  0
   15.3188  -11.0515   -8.0118 C   0  0  0  0  0  0  0  0  0  0  0  0
   15.7001  -11.5525   -6.8473 N   0  0  0  0  0  0  0  0  0  0  0  0
   15.9015  -11.3001   -9.0704 O   0  0  0  0  0  0  0  0  0  0  0  0
   15.2039  -11.3258   -6.0278 H   0  0  0  0  0  0  0  0  0  0  0  0
   16.4798  -12.1517   -6.8009 H   0  0  0  0  0  0  0  0  0  0  0  0
  1  2  2  0  0  0
  1  6  1  0  0  0
  2  3  1  0  0  0
  3  4  2  0  0  0
  4  5  1  0  0  0
  4 10  1  0  0  0
  5  6  2  0  0  0
  5  8  1  0  0  0
  6  7  1  0  0  0
  8  9  2  0  0  0
  8 25  1  0  0  0
  9 10  1  0  0  0
 10 13  1  0  0  0
 13 14  1  0  0  0
 13 19  1  0  0  0
 25 26  1  0  0  0
 25 27  2  0  0  0
 14 15  1  0  0  0
 14 16  1  0  0  0
 16 17  1  0  0  0
 16 18  1  0  0  0
 18 19  1  0  0  0
 18 22  1  0  0  0
 22 23  1  0  0  0
  7 11  1  0  0  0
  7 12  1  0  0  0
 26 28  1  0  0  0
 26 29  1  0  0  0
 15 20  1  0  0  0
 17 21  1  0  0  0
 23 24  1  0  0  0
M  END
> <minimizedAffinity>
-7.48528

$$$$
5AQZ_SGV_A_1389


 29 31  0  0  0  0  0  0  0  0999 V2000
    9.4830  -10.6428   -8.4226 N   0  0  0  0  0  0  0  0  0  0  0  0
    8.8673   -9.6874   -7.7254 C   0  0  0  0  0  0  0  0  0  0  0  0
    9.3981   -8.7520   -6.9381 N   0  0  0  0  0  0  0  0  0  0  0  0
   10.7322   -8.8294   -6.8896 C   0  0  0  0  0  0  0  0  0  0  0  0
   11.5180   -9.7761   -7.5692 C   0  0  0  0  0  0  0  0  0  0  0  0
   10.8285  -10.7229   -8.3601 C   0  0  0  0  0  0  0  0  0  0  0  0
   11.4318  -11.7085   -9.0252 N   0  0  0  0  0  0  0  0  0  0  0  0
   12.9010   -9.5005   -7.2660 C   0  0  0  0  0  0  0  0  0  0  0  0
   12.9081   -8.4216   -6.4236 C   0  0  0  0  0  0  0  0  0  0  0  0
   11.5798   -8.0046   -6.1906 N   0  0  0  0  0  0  0  0  0  0  0  0
   10.8985  -12.3393   -9.5609 H   0  0  0  0  0  0  0  0  0  0  0  0
   12.4105  -11.8055   -8.9806 H   0  0  0  0  0  0  0  0  0  0  0  0
   11.1897   -6.8859   -5.3407 C   0  0  0  0  0  0  0  0  0  0  0  0
   10.6162   -7.2869   -3.9895 C   0  0  0  0  0  0  0  0  0  0  0  0
    9.2361   -7.6044   -4.0962 O   0  0  0  0  0  0  0  0  0  0  0  0
   10.8453   -6.0025   -3.1916 C   0  0  0  0  0  0  0  0  0  0  0  0
    9.7917   -5.0697   -3.3753 O   0  0  0  0  0  0  0  0  0  0  0  0
   12.1583   -5.4700   -3.7658 C   0  0  0  0  0  0  0  0  0  0  0  0
   12.3324   -6.1105   -5.0500 O   0  0  0  0  0  0  0  0  0  0  0  0
    8.7613   -6.8550   -4.4887 H   0  0  0  0  0  0  0  0  0  0  0  0
    9.7012   -4.8659   -4.3193 H   0  0  0  0  0  0  0  0  0  0  0  0
   13.3767   -5.7260   -2.9111 C   0  0  0  0  0  0  0  0  0  0  0  0
   13.6926   -7.1088   -2.8781 O   0  0  0  0  0  0  0  0  0  0  0  0
   12.9483   -7.6015   -2.4983 H   0  0  0  0  0  0  0  0  0  0  0  0
   14.0615  -10.2163   -7.7928 C   0  0  0  0  0  0  0  0  0  0  0  0
   14.8377  -10.7636   -6.8707 N   0  0  0  0  0  0  0  0  0  0  0  0
   14.2996  -10.2950   -9.0008 O   0  0  0  0  0  0  0  0  0  0  0  0
   14.6076  -10.6748   -5.9176 H   0  0  0  0  0  0  0  0  0  0  0  0
   15.6452  -11.2595   -7.1380 H   0  0  0  0  0  0  0  0  0  0  0  0
  1  2  2  0  0  0
  1  6  1  0  0  0
  2  3  1  0  0  0
  3  4  2  0  0  0
  4  5  1  0  0  0
  4 10  1  0  0  0
  5  6  2  0  0  0
  5  8  1  0  0  0
  6  7  1  0  0  0
  8  9  2  0  0  0
  8 25  1  0  0  0
  9 10  1  0  0  0
 10 13  1  0  0  0
 13 14  1  0  0  0
 13 19  1  0  0  0
 25 26  1  0  0  0
 25 27  2  0  0  0
 14 15  1  0  0  0
 14 16  1  0  0  0
 16 17  1  0  0  0
 16 18  1  0  0  0
 18 19  1  0  0  0
 18 22  1  0  0  0
 22 23  1  0  0  0
  7 11  1  0  0  0
  7 12  1  0  0  0
 26 28  1  0  0  0
 26 29  1  0  0  0
 15 20  1  0  0  0
 17 21  1  0  0  0
 23 24  1  0  0  0
M  END
> <minimizedAffinity>
-7.36721

$$$$
5AQZ_SGV_A_1389


 29 31  0  0  0  0  0  0  0  0999 V2000
   17.9133  -12.2763   -8.8449 N   0  0  0  0  0  0  0  0  0  0  0  0
   17.1332  -12.1431   -7.7718 C   0  0  0  0  0  0  0  0  0  0  0  0
   15.9760  -11.4921   -7.6542 N   0  0  0  0  0  0  0  0  0  0  0  0
   15.5956  -10.9251   -8.8040 C   0  0  0  0  0  0  0  0  0  0  0  0
   16.3085  -10.9808  -10.0141 C   0  0  0  0  0  0  0  0  0  0  0  0
   17.5298  -11.6919   -9.9991 C   0  0  0  0  0  0  0  0  0  0  0  0
   18.3380  -11.7933  -11.0547 N   0  0  0  0  0  0  0  0  0  0  0  0
   15.5478  -10.2630  -11.0074 C   0  0  0  0  0  0  0  0  0  0  0  0
   14.4245   -9.7987  -10.3780 C   0  0  0  0  0  0  0  0  0  0  0  0
   14.4479  -10.2036   -9.0259 N   0  0  0  0  0  0  0  0  0  0  0  0
   19.1775  -12.3028  -10.9847 H   0  0  0  0  0  0  0  0  0  0  0  0
   18.0952  -11.3588  -11.9041 H   0  0  0  0  0  0  0  0  0  0  0  0
   13.4191   -9.8930   -8.0405 C   0  0  0  0  0  0  0  0  0  0  0  0
   12.2716  -10.8910   -7.9868 C   0  0  0  0  0  0  0  0  0  0  0  0
   11.3058  -10.6107   -8.9896 O   0  0  0  0  0  0  0  0  0  0  0  0
   11.7287  -10.6237   -6.5823 C   0  0  0  0  0  0  0  0  0  0  0  0
   10.8067   -9.5449   -6.5673 O   0  0  0  0  0  0  0  0  0  0  0  0
   12.9880  -10.2828   -5.7854 C   0  0  0  0  0  0  0  0  0  0  0  0
   13.9963   -9.9127   -6.7528 O   0  0  0  0  0  0  0  0  0  0  0  0
   11.0003   -9.6948   -8.8972 H   0  0  0  0  0  0  0  0  0  0  0  0
   11.2353   -8.7484   -6.9178 H   0  0  0  0  0  0  0  0  0  0  0  0
   13.5147  -11.4016   -4.9186 C   0  0  0  0  0  0  0  0  0  0  0  0
   12.5807  -11.7428   -3.9065 O   0  0  0  0  0  0  0  0  0  0  0  0
   12.4214  -10.9715   -3.3403 H   0  0  0  0  0  0  0  0  0  0  0  0
   15.8994  -10.1029  -12.4172 C   0  0  0  0  0  0  0  0  0  0  0  0
   15.6344   -8.9072  -12.9198 N   0  0  0  0  0  0  0  0  0  0  0  0
   16.3956  -11.0144  -13.0843 O   0  0  0  0  0  0  0  0  0  0  0  0
   15.2379   -8.2101  -12.3488 H   0  0  0  0  0  0  0  0  0  0  0  0
   15.8340   -8.7152  -13.8645 H   0  0  0  0  0  0  0  0  0  0  0  0
  1  2  2  0  0  0
  1  6  1  0  0  0
  2  3  1  0  0  0
  3  4  2  0  0  0
  4  5  1  0  0  0
  4 10  1  0  0  0
  5  6  2  0  0  0
  5  8  1  0  0  0
  6  7  1  0  0  0
  8  9  2  0  0  0
  8 25  1  0  0  0
  9 10  1  0  0  0
 10 13  1  0  0  0
 13 14  1  0  0  0
 13 19  1  0  0  0
 25 26  1  0  0  0
 25 27  2  0  0  0
 14 15  1  0  0  0
 14 16  1  0  0  0
 16 17  1  0  0  0
 16 18  1  0  0  0
 18 19  1  0  0  0
 18 22  1  0  0  0
 22 23  1  0  0  0
  7 11  1  0  0  0
  7 12  1  0  0  0
 26 28  1  0  0  0
 26 29  1  0  0  0
 15 20  1  0  0  0
 17 21  1  0  0  0
 23 24  1  0  0  0
M  END
> <minimizedAffinity>
-7.20455

$$$$
