5AAN_XOC_A_1189


 25 28  0  0  0  0  0  0  0  0999 V2000
   -7.8529   -6.1657   13.5554 C   0  0  0  0  0  0  0  0  0  0  0  0
   -8.5610   -4.9809   13.7408 C   0  0  0  0  0  0  0  0  0  0  0  0
   -8.7853   -4.1632   12.6404 C   0  0  0  0  0  0  0  0  0  0  0  0
   -8.3094   -4.5484   11.3865 C   0  0  0  0  0  0  0  0  0  0  0  0
   -7.6068   -5.7383   11.2081 C   0  0  0  0  0  0  0  0  0  0  0  0
   -7.3721   -6.5543   12.3150 C   0  0  0  0  0  0  0  0  0  0  0  0
   -7.5531   -8.8510   12.6967 C   0  0  0  0  0  0  0  0  0  0  0  0
   -7.9447   -9.9465   11.9214 C   0  0  0  0  0  0  0  0  0  0  0  0
   -8.8187  -10.8855   12.4717 C   0  0  0  0  0  0  0  0  0  0  0  0
   -9.3139  -10.7380   13.7605 C   0  0  0  0  0  0  0  0  0  0  0  0
   -8.9362   -9.6438   14.5349 C   0  0  0  0  0  0  0  0  0  0  0  0
   -8.0560   -8.7163   13.9874 C   0  0  0  0  0  0  0  0  0  0  0  0
   -6.6961   -7.8024   12.2668 N   0  0  0  0  0  0  0  0  0  0  0  0
   -7.5337   -7.2857   14.8773 S   0  0  0  0  0  0  0  0  0  0  0  0
   -4.3068   -7.4460   12.0428 C   0  0  0  0  0  0  0  0  0  0  0  0
   -5.4604   -7.9634   11.5811 N   0  0  0  0  0  0  0  0  0  0  0  0
   -3.9501   -7.4312   13.2236 O   0  0  0  0  0  0  0  0  0  0  0  0
   -5.4484   -8.4717   10.7380 H   0  0  0  0  0  0  0  0  0  0  0  0
   -3.4107   -6.8734   10.9466 C   0  0  0  0  0  0  0  0  0  0  0  0
   -4.0552   -4.5622   10.9868 C   0  0  0  0  0  0  0  0  0  0  0  0
   -4.4920   -3.3526   10.1919 C   0  0  0  0  0  0  0  0  0  0  0  0
   -5.2196   -3.8334    8.9932 C   0  0  0  0  0  0  0  0  0  0  0  0
   -4.2111   -4.5717    8.1226 C   0  0  0  0  0  0  0  0  0  0  0  0
   -3.3611   -5.5177    8.9315 C   0  0  0  0  0  0  0  0  0  0  0  0
   -4.0580   -5.8052   10.1771 N   0  0  0  0  0  0  0  0  0  0  0  0
  1  2  1  0  0  0
  1  6  2  0  0  0
  1 14  1  0  0  0
  2  3  2  0  0  0
  3  4  1  0  0  0
  4  5  2  0  0  0
  5  6  1  0  0  0
  6 13  1  0  0  0
  7  8  1  0  0  0
  7 12  2  0  0  0
  7 13  1  0  0  0
  8  9  2  0  0  0
  9 10  1  0  0  0
 10 11  2  0  0  0
 11 12  1  0  0  0
 12 14  1  0  0  0
 15 19  1  0  0  0
 15 16  1  0  0  0
 15 17  2  0  0  0
 19 25  1  0  0  0
 20 21  1  0  0  0
 20 25  1  0  0  0
 21 22  1  0  0  0
 22 23  1  0  0  0
 23 24  1  0  0  0
 24 25  1  0  0  0
 13 16  1  0  0  0
 16 18  1  0  0  0
M  END
> <minimizedAffinity>
-7.81636

$$$$
5AAN_XOC_A_1189


 25 28  0  0  0  0  0  0  0  0999 V2000
   -6.8524   -3.1693   11.2975 C   0  0  0  0  0  0  0  0  0  0  0  0
   -7.0431   -1.9126   11.8668 C   0  0  0  0  0  0  0  0  0  0  0  0
   -6.7400   -1.7409   13.2116 C   0  0  0  0  0  0  0  0  0  0  0  0
   -6.2476   -2.8172   13.9505 C   0  0  0  0  0  0  0  0  0  0  0  0
   -6.0540   -4.0700   13.3722 C   0  0  0  0  0  0  0  0  0  0  0  0
   -6.3686   -4.2455   12.0244 C   0  0  0  0  0  0  0  0  0  0  0  0
   -5.2819   -5.2759   10.2325 C   0  0  0  0  0  0  0  0  0  0  0  0
   -4.0657   -5.9477   10.0779 C   0  0  0  0  0  0  0  0  0  0  0  0
   -3.2589   -5.6401    8.9812 C   0  0  0  0  0  0  0  0  0  0  0  0
   -3.6360   -4.6718    8.0602 C   0  0  0  0  0  0  0  0  0  0  0  0
   -4.8414   -3.9913    8.2136 C   0  0  0  0  0  0  0  0  0  0  0  0
   -5.6483   -4.3087    9.3012 C   0  0  0  0  0  0  0  0  0  0  0  0
   -6.1928   -5.4588   11.3076 N   0  0  0  0  0  0  0  0  0  0  0  0
   -7.1823   -3.4898    9.5969 S   0  0  0  0  0  0  0  0  0  0  0  0
   -7.9367   -7.0011   11.9905 C   0  0  0  0  0  0  0  0  0  0  0  0
   -6.6334   -6.7089   11.8238 N   0  0  0  0  0  0  0  0  0  0  0  0
   -8.8426   -6.7086   11.2060 O   0  0  0  0  0  0  0  0  0  0  0  0
   -5.9607   -7.3850   12.0679 H   0  0  0  0  0  0  0  0  0  0  0  0
   -8.2298   -7.7832   13.2691 C   0  0  0  0  0  0  0  0  0  0  0  0
   -7.3375   -9.8512   12.4410 C   0  0  0  0  0  0  0  0  0  0  0  0
   -7.4800  -11.3544   12.3639 C   0  0  0  0  0  0  0  0  0  0  0  0
   -8.9229  -11.6808   12.4580 C   0  0  0  0  0  0  0  0  0  0  0  0
   -9.3828  -11.2821   13.8543 C   0  0  0  0  0  0  0  0  0  0  0  0
   -8.8820   -9.9133   14.2381 C   0  0  0  0  0  0  0  0  0  0  0  0
   -8.5363   -9.1959   13.0191 N   0  0  0  0  0  0  0  0  0  0  0  0
  1  2  1  0  0  0
  1  6  2  0  0  0
  1 14  1  0  0  0
  2  3  2  0  0  0
  3  4  1  0  0  0
  4  5  2  0  0  0
  5  6  1  0  0  0
  6 13  1  0  0  0
  7  8  1  0  0  0
  7 12  2  0  0  0
  7 13  1  0  0  0
  8  9  2  0  0  0
  9 10  1  0  0  0
 10 11  2  0  0  0
 11 12  1  0  0  0
 12 14  1  0  0  0
 15 19  1  0  0  0
 15 16  1  0  0  0
 15 17  2  0  0  0
 19 25  1  0  0  0
 20 21  1  0  0  0
 20 25  1  0  0  0
 21 22  1  0  0  0
 22 23  1  0  0  0
 23 24  1  0  0  0
 24 25  1  0  0  0
 13 16  1  0  0  0
 16 18  1  0  0  0
M  END
> <minimizedAffinity>
-7.64275

$$$$
5AAN_XOC_A_1189


 25 28  0  0  0  0  0  0  0  0999 V2000
   -6.9393   -2.4717   10.4631 C   0  0  0  0  0  0  0  0  0  0  0  0
   -7.0489   -1.0882   10.5792 C   0  0  0  0  0  0  0  0  0  0  0  0
   -6.9287   -0.5168   11.8397 C   0  0  0  0  0  0  0  0  0  0  0  0
   -6.6940   -1.3325   12.9472 C   0  0  0  0  0  0  0  0  0  0  0  0
   -6.5797   -2.7155   12.8220 C   0  0  0  0  0  0  0  0  0  0  0  0
   -6.7111   -3.2905   11.5578 C   0  0  0  0  0  0  0  0  0  0  0  0
   -5.5129   -4.9209   10.3918 C   0  0  0  0  0  0  0  0  0  0  0  0
   -4.3839   -5.6965   10.6717 C   0  0  0  0  0  0  0  0  0  0  0  0
   -3.3907   -5.8193    9.6987 C   0  0  0  0  0  0  0  0  0  0  0  0
   -3.4994   -5.1728    8.4747 C   0  0  0  0  0  0  0  0  0  0  0  0
   -4.6164   -4.3902    8.1929 C   0  0  0  0  0  0  0  0  0  0  0  0
   -5.6097   -4.2795    9.1604 C   0  0  0  0  0  0  0  0  0  0  0  0
   -6.5888   -4.6795   11.2879 N   0  0  0  0  0  0  0  0  0  0  0  0
   -7.0521   -3.2958    8.9102 S   0  0  0  0  0  0  0  0  0  0  0  0
   -8.4773   -6.1311   11.7484 C   0  0  0  0  0  0  0  0  0  0  0  0
   -7.2583   -5.6604   12.0707 N   0  0  0  0  0  0  0  0  0  0  0  0
   -8.8632   -6.3993   10.6079 O   0  0  0  0  0  0  0  0  0  0  0  0
   -6.8138   -6.0077   12.8776 H   0  0  0  0  0  0  0  0  0  0  0  0
   -9.3884   -6.3478   12.9548 C   0  0  0  0  0  0  0  0  0  0  0  0
   -9.2473   -8.6697   12.3653 C   0  0  0  0  0  0  0  0  0  0  0  0
   -8.9339  -10.0773   12.8192 C   0  0  0  0  0  0  0  0  0  0  0  0
   -9.2323  -10.1661   14.2684 C   0  0  0  0  0  0  0  0  0  0  0  0
   -8.2421   -9.2584   14.9866 C   0  0  0  0  0  0  0  0  0  0  0  0
   -8.1230   -7.9161   14.3114 C   0  0  0  0  0  0  0  0  0  0  0  0
   -9.3105   -7.7097   13.4945 N   0  0  0  0  0  0  0  0  0  0  0  0
  1  2  1  0  0  0
  1  6  2  0  0  0
  1 14  1  0  0  0
  2  3  2  0  0  0
  3  4  1  0  0  0
  4  5  2  0  0  0
  5  6  1  0  0  0
  6 13  1  0  0  0
  7  8  1  0  0  0
  7 12  2  0  0  0
  7 13  1  0  0  0
  8  9  2  0  0  0
  9 10  1  0  0  0
 10 11  2  0  0  0
 11 12  1  0  0  0
 12 14  1  0  0  0
 15 19  1  0  0  0
 15 16  1  0  0  0
 15 17  2  0  0  0
 19 25  1  0  0  0
 20 21  1  0  0  0
 20 25  1  0  0  0
 21 22  1  0  0  0
 22 23  1  0  0  0
 23 24  1  0  0  0
 24 25  1  0  0  0
 13 16  1  0  0  0
 16 18  1  0  0  0
M  END
> <minimizedAffinity>
-7.56529

$$$$
5AAN_XOC_A_1189


 25 28  0  0  0  0  0  0  0  0999 V2000
   -3.7680   -6.1785   10.0060 C   0  0  0  0  0  0  0  0  0  0  0  0
   -3.1290   -5.6922    8.8681 C   0  0  0  0  0  0  0  0  0  0  0  0
   -3.7410   -4.6741    8.1479 C   0  0  0  0  0  0  0  0  0  0  0  0
   -4.9639   -4.1611    8.5820 C   0  0  0  0  0  0  0  0  0  0  0  0
   -5.5941   -4.6490    9.7249 C   0  0  0  0  0  0  0  0  0  0  0  0
   -4.9849   -5.6789   10.4421 C   0  0  0  0  0  0  0  0  0  0  0  0
   -4.5987   -6.0569   12.7140 C   0  0  0  0  0  0  0  0  0  0  0  0
   -4.8722   -5.3471   13.8870 C   0  0  0  0  0  0  0  0  0  0  0  0
   -3.8688   -5.2199   14.8490 C   0  0  0  0  0  0  0  0  0  0  0  0
   -2.6088   -5.7683   14.6504 C   0  0  0  0  0  0  0  0  0  0  0  0
   -2.3261   -6.4678   13.4798 C   0  0  0  0  0  0  0  0  0  0  0  0
   -3.3319   -6.6026   12.5285 C   0  0  0  0  0  0  0  0  0  0  0  0
   -5.5047   -6.2461   11.6359 N   0  0  0  0  0  0  0  0  0  0  0  0
   -3.0688   -7.4505   11.0044 S   0  0  0  0  0  0  0  0  0  0  0  0
   -7.7810   -5.9025   12.4017 C   0  0  0  0  0  0  0  0  0  0  0  0
   -6.8656   -6.6436   11.7502 N   0  0  0  0  0  0  0  0  0  0  0  0
   -7.8710   -4.6731   12.3568 O   0  0  0  0  0  0  0  0  0  0  0  0
   -7.1483   -7.4917   11.3378 H   0  0  0  0  0  0  0  0  0  0  0  0
   -8.7685   -6.7308   13.2209 C   0  0  0  0  0  0  0  0  0  0  0  0
   -8.9098   -8.8731   14.2929 C   0  0  0  0  0  0  0  0  0  0  0  0
   -8.9987  -10.3730   14.1246 C   0  0  0  0  0  0  0  0  0  0  0  0
   -8.3204  -10.7303   12.8560 C   0  0  0  0  0  0  0  0  0  0  0  0
   -9.1408  -10.1268   11.7234 C   0  0  0  0  0  0  0  0  0  0  0  0
   -9.5224   -8.6971   12.0098 C   0  0  0  0  0  0  0  0  0  0  0  0
   -8.6111   -8.1753   13.0184 N   0  0  0  0  0  0  0  0  0  0  0  0
  1  2  1  0  0  0
  1  6  2  0  0  0
  1 14  1  0  0  0
  2  3  2  0  0  0
  3  4  1  0  0  0
  4  5  2  0  0  0
  5  6  1  0  0  0
  6 13  1  0  0  0
  7  8  1  0  0  0
  7 12  2  0  0  0
  7 13  1  0  0  0
  8  9  2  0  0  0
  9 10  1  0  0  0
 10 11  2  0  0  0
 11 12  1  0  0  0
 12 14  1  0  0  0
 15 19  1  0  0  0
 15 16  1  0  0  0
 15 17  2  0  0  0
 19 25  1  0  0  0
 20 21  1  0  0  0
 20 25  1  0  0  0
 21 22  1  0  0  0
 22 23  1  0  0  0
 23 24  1  0  0  0
 24 25  1  0  0  0
 13 16  1  0  0  0
 16 18  1  0  0  0
M  END
> <minimizedAffinity>
-6.96713

$$$$
5AAN_XOC_A_1189


 25 28  0  0  0  0  0  0  0  0999 V2000
   -4.6143   -9.5446   12.8020 C   0  0  0  0  0  0  0  0  0  0  0  0
   -3.3943  -10.1719   13.0422 C   0  0  0  0  0  0  0  0  0  0  0  0
   -2.5801   -9.6742   14.0517 C   0  0  0  0  0  0  0  0  0  0  0  0
   -3.0031   -8.5751   14.8001 C   0  0  0  0  0  0  0  0  0  0  0  0
   -4.2278   -7.9566   14.5575 C   0  0  0  0  0  0  0  0  0  0  0  0
   -5.0408   -8.4495   13.5365 C   0  0  0  0  0  0  0  0  0  0  0  0
   -7.3212   -8.9258   13.3745 C   0  0  0  0  0  0  0  0  0  0  0  0
   -8.4056   -8.8424   14.2529 C   0  0  0  0  0  0  0  0  0  0  0  0
   -9.2943   -9.9159   14.3326 C   0  0  0  0  0  0  0  0  0  0  0  0
   -9.1074  -11.0621   13.5715 C   0  0  0  0  0  0  0  0  0  0  0  0
   -8.0235  -11.1562   12.7020 C   0  0  0  0  0  0  0  0  0  0  0  0
   -7.1465  -10.0799   12.6166 C   0  0  0  0  0  0  0  0  0  0  0  0
   -6.3208   -7.9312   13.2048 N   0  0  0  0  0  0  0  0  0  0  0  0
   -5.7324  -10.1085   11.5628 S   0  0  0  0  0  0  0  0  0  0  0  0
   -6.9949   -6.0069   11.8900 C   0  0  0  0  0  0  0  0  0  0  0  0
   -6.5500   -6.5365   13.0447 N   0  0  0  0  0  0  0  0  0  0  0  0
   -7.8614   -6.4990   11.1630 O   0  0  0  0  0  0  0  0  0  0  0  0
   -6.3768   -5.9369   13.8060 H   0  0  0  0  0  0  0  0  0  0  0  0
   -6.3405   -4.6731   11.5363 C   0  0  0  0  0  0  0  0  0  0  0  0
   -5.0906   -3.3821    9.9457 C   0  0  0  0  0  0  0  0  0  0  0  0
   -4.0164   -3.3740    8.8819 C   0  0  0  0  0  0  0  0  0  0  0  0
   -3.9937   -4.7132    8.2468 C   0  0  0  0  0  0  0  0  0  0  0  0
   -3.5330   -5.7047    9.3074 C   0  0  0  0  0  0  0  0  0  0  0  0
   -4.2458   -5.4923   10.6183 C   0  0  0  0  0  0  0  0  0  0  0  0
   -5.4738   -4.7554   10.3555 N   0  0  0  0  0  0  0  0  0  0  0  0
  1  2  1  0  0  0
  1  6  2  0  0  0
  1 14  1  0  0  0
  2  3  2  0  0  0
  3  4  1  0  0  0
  4  5  2  0  0  0
  5  6  1  0  0  0
  6 13  1  0  0  0
  7  8  1  0  0  0
  7 12  2  0  0  0
  7 13  1  0  0  0
  8  9  2  0  0  0
  9 10  1  0  0  0
 10 11  2  0  0  0
 11 12  1  0  0  0
 12 14  1  0  0  0
 15 19  1  0  0  0
 15 16  1  0  0  0
 15 17  2  0  0  0
 19 25  1  0  0  0
 20 21  1  0  0  0
 20 25  1  0  0  0
 21 22  1  0  0  0
 22 23  1  0  0  0
 23 24  1  0  0  0
 24 25  1  0  0  0
 13 16  1  0  0  0
 16 18  1  0  0  0
M  END
> <minimizedAffinity>
-6.95136

$$$$
5AAN_XOC_A_1189


 25 28  0  0  0  0  0  0  0  0999 V2000
   -7.2595   -3.0183   10.5245 C   0  0  0  0  0  0  0  0  0  0  0  0
   -8.6344   -3.2178   10.6223 C   0  0  0  0  0  0  0  0  0  0  0  0
   -9.4518   -2.7043    9.6234 C   0  0  0  0  0  0  0  0  0  0  0  0
   -8.8818   -2.0162    8.5516 C   0  0  0  0  0  0  0  0  0  0  0  0
   -7.5047   -1.8258    8.4579 C   0  0  0  0  0  0  0  0  0  0  0  0
   -6.6846   -2.3320    9.4666 C   0  0  0  0  0  0  0  0  0  0  0  0
   -4.6768   -3.5244    9.4703 C   0  0  0  0  0  0  0  0  0  0  0  0
   -3.8286   -4.0207    8.4759 C   0  0  0  0  0  0  0  0  0  0  0  0
   -3.3463   -5.3257    8.5890 C   0  0  0  0  0  0  0  0  0  0  0  0
   -3.7087   -6.1361    9.6566 C   0  0  0  0  0  0  0  0  0  0  0  0
   -4.5614   -5.6518   10.6455 C   0  0  0  0  0  0  0  0  0  0  0  0
   -5.0307   -4.3471   10.5357 C   0  0  0  0  0  0  0  0  0  0  0  0
   -5.2679   -2.2324    9.4788 N   0  0  0  0  0  0  0  0  0  0  0  0
   -6.1316   -3.6472   11.7228 S   0  0  0  0  0  0  0  0  0  0  0  0
   -4.9198    0.1416    9.8379 C   0  0  0  0  0  0  0  0  0  0  0  0
   -4.5970   -1.0065    9.2138 N   0  0  0  0  0  0  0  0  0  0  0  0
   -5.2031    0.2521   11.0333 O   0  0  0  0  0  0  0  0  0  0  0  0
   -3.8702   -0.9974    8.5499 H   0  0  0  0  0  0  0  0  0  0  0  0
   -4.8832    1.3655    8.9252 C   0  0  0  0  0  0  0  0  0  0  0  0
   -7.1553    1.3007    8.1558 C   0  0  0  0  0  0  0  0  0  0  0  0
   -8.5519    1.8674    8.2746 C   0  0  0  0  0  0  0  0  0  0  0  0
   -8.4353    3.2800    8.7084 C   0  0  0  0  0  0  0  0  0  0  0  0
   -7.8601    3.2699   10.1188 C   0  0  0  0  0  0  0  0  0  0  0  0
   -6.6841    2.3345   10.2362 C   0  0  0  0  0  0  0  0  0  0  0  0
   -6.1526    2.1005    8.9011 N   0  0  0  0  0  0  0  0  0  0  0  0
  1  2  1  0  0  0
  1  6  2  0  0  0
  1 14  1  0  0  0
  2  3  2  0  0  0
  3  4  1  0  0  0
  4  5  2  0  0  0
  5  6  1  0  0  0
  6 13  1  0  0  0
  7  8  1  0  0  0
  7 12  2  0  0  0
  7 13  1  0  0  0
  8  9  2  0  0  0
  9 10  1  0  0  0
 10 11  2  0  0  0
 11 12  1  0  0  0
 12 14  1  0  0  0
 15 19  1  0  0  0
 15 16  1  0  0  0
 15 17  2  0  0  0
 19 25  1  0  0  0
 20 21  1  0  0  0
 20 25  1  0  0  0
 21 22  1  0  0  0
 22 23  1  0  0  0
 23 24  1  0  0  0
 24 25  1  0  0  0
 13 16  1  0  0  0
 16 18  1  0  0  0
M  END
> <minimizedAffinity>
-6.94046

$$$$
5AAN_XOC_A_1189


 25 28  0  0  0  0  0  0  0  0999 V2000
   -6.1090   -6.0833   12.1133 C   0  0  0  0  0  0  0  0  0  0  0  0
   -6.7898   -7.2061   12.5776 C   0  0  0  0  0  0  0  0  0  0  0  0
   -8.1722   -7.2445   12.4467 C   0  0  0  0  0  0  0  0  0  0  0  0
   -8.8387   -6.1732   11.8508 C   0  0  0  0  0  0  0  0  0  0  0  0
   -8.1497   -5.0559   11.3835 C   0  0  0  0  0  0  0  0  0  0  0  0
   -6.7625   -5.0123   11.5246 C   0  0  0  0  0  0  0  0  0  0  0  0
   -5.0112   -4.4173   10.0990 C   0  0  0  0  0  0  0  0  0  0  0  0
   -4.9309   -3.9767    8.7747 C   0  0  0  0  0  0  0  0  0  0  0  0
   -3.9829   -4.5530    7.9275 C   0  0  0  0  0  0  0  0  0  0  0  0
   -3.1388   -5.5613    8.3732 C   0  0  0  0  0  0  0  0  0  0  0  0
   -3.2203   -6.0123    9.6884 C   0  0  0  0  0  0  0  0  0  0  0  0
   -4.1581   -5.4277   10.5330 C   0  0  0  0  0  0  0  0  0  0  0  0
   -5.9393   -3.9491   11.0676 N   0  0  0  0  0  0  0  0  0  0  0  0
   -4.3555   -5.9423   12.2085 S   0  0  0  0  0  0  0  0  0  0  0  0
   -6.8487   -1.7942   10.4229 C   0  0  0  0  0  0  0  0  0  0  0  0
   -6.2524   -2.5871   11.3326 N   0  0  0  0  0  0  0  0  0  0  0  0
   -7.7660   -2.1314    9.6702 O   0  0  0  0  0  0  0  0  0  0  0  0
   -6.0248   -2.2106   12.2133 H   0  0  0  0  0  0  0  0  0  0  0  0
   -6.3035   -0.3678   10.4033 C   0  0  0  0  0  0  0  0  0  0  0  0
   -7.1009    1.8936   10.3086 C   0  0  0  0  0  0  0  0  0  0  0  0
   -7.7645    2.9716    9.4819 C   0  0  0  0  0  0  0  0  0  0  0  0
   -8.6601    2.3095    8.5037 C   0  0  0  0  0  0  0  0  0  0  0  0
   -7.7746    1.5242    7.5450 C   0  0  0  0  0  0  0  0  0  0  0  0
   -6.7232    0.7310    8.2777 C   0  0  0  0  0  0  0  0  0  0  0  0
   -7.1582    0.5621    9.6569 N   0  0  0  0  0  0  0  0  0  0  0  0
  1  2  1  0  0  0
  1  6  2  0  0  0
  1 14  1  0  0  0
  2  3  2  0  0  0
  3  4  1  0  0  0
  4  5  2  0  0  0
  5  6  1  0  0  0
  6 13  1  0  0  0
  7  8  1  0  0  0
  7 12  2  0  0  0
  7 13  1  0  0  0
  8  9  2  0  0  0
  9 10  1  0  0  0
 10 11  2  0  0  0
 11 12  1  0  0  0
 12 14  1  0  0  0
 15 19  1  0  0  0
 15 16  1  0  0  0
 15 17  2  0  0  0
 19 25  1  0  0  0
 20 21  1  0  0  0
 20 25  1  0  0  0
 21 22  1  0  0  0
 22 23  1  0  0  0
 23 24  1  0  0  0
 24 25  1  0  0  0
 13 16  1  0  0  0
 16 18  1  0  0  0
M  END
> <minimizedAffinity>
-6.87529

$$$$
5AAN_XOC_A_1189


 25 28  0  0  0  0  0  0  0  0999 V2000
   -7.0044   -8.9675   13.9667 C   0  0  0  0  0  0  0  0  0  0  0  0
   -8.1201   -9.3780   14.6922 C   0  0  0  0  0  0  0  0  0  0  0  0
   -9.3720   -9.2732   14.0994 C   0  0  0  0  0  0  0  0  0  0  0  0
   -9.4807   -8.7735   12.8012 C   0  0  0  0  0  0  0  0  0  0  0  0
   -8.3591   -8.3702   12.0796 C   0  0  0  0  0  0  0  0  0  0  0  0
   -7.1028   -8.4653   12.6788 C   0  0  0  0  0  0  0  0  0  0  0  0
   -5.0236   -9.2464   11.9576 C   0  0  0  0  0  0  0  0  0  0  0  0
   -4.5449   -9.8090   10.7706 C   0  0  0  0  0  0  0  0  0  0  0  0
   -3.7320  -10.9416   10.8399 C   0  0  0  0  0  0  0  0  0  0  0  0
   -3.4103  -11.5223   12.0594 C   0  0  0  0  0  0  0  0  0  0  0  0
   -3.8922  -10.9733   13.2452 C   0  0  0  0  0  0  0  0  0  0  0  0
   -4.6923   -9.8378   13.1731 C   0  0  0  0  0  0  0  0  0  0  0  0
   -5.8801   -8.1162   12.0461 N   0  0  0  0  0  0  0  0  0  0  0  0
   -5.3698   -9.0793   14.6142 S   0  0  0  0  0  0  0  0  0  0  0  0
   -4.7552   -6.0040   11.6472 C   0  0  0  0  0  0  0  0  0  0  0  0
   -5.7200   -6.8912   11.3412 N   0  0  0  0  0  0  0  0  0  0  0  0
   -3.5927   -6.2854   11.9490 O   0  0  0  0  0  0  0  0  0  0  0  0
   -6.3374   -6.6847   10.6027 H   0  0  0  0  0  0  0  0  0  0  0  0
   -5.2128   -4.5493   11.5649 C   0  0  0  0  0  0  0  0  0  0  0  0
   -7.3740   -3.5063   11.5795 C   0  0  0  0  0  0  0  0  0  0  0  0
   -8.5877   -3.0904   10.7797 C   0  0  0  0  0  0  0  0  0  0  0  0
   -8.7311   -4.0335    9.6450 C   0  0  0  0  0  0  0  0  0  0  0  0
   -7.5295   -3.8235    8.7329 C   0  0  0  0  0  0  0  0  0  0  0  0
   -6.2412   -3.7553    9.5122 C   0  0  0  0  0  0  0  0  0  0  0  0
   -6.4585   -4.3824   10.8081 N   0  0  0  0  0  0  0  0  0  0  0  0
  1  2  1  0  0  0
  1  6  2  0  0  0
  1 14  1  0  0  0
  2  3  2  0  0  0
  3  4  1  0  0  0
  4  5  2  0  0  0
  5  6  1  0  0  0
  6 13  1  0  0  0
  7  8  1  0  0  0
  7 12  2  0  0  0
  7 13  1  0  0  0
  8  9  2  0  0  0
  9 10  1  0  0  0
 10 11  2  0  0  0
 11 12  1  0  0  0
 12 14  1  0  0  0
 15 19  1  0  0  0
 15 16  1  0  0  0
 15 17  2  0  0  0
 19 25  1  0  0  0
 20 21  1  0  0  0
 20 25  1  0  0  0
 21 22  1  0  0  0
 22 23  1  0  0  0
 23 24  1  0  0  0
 24 25  1  0  0  0
 13 16  1  0  0  0
 16 18  1  0  0  0
M  END
> <minimizedAffinity>
-6.70467

$$$$
5AAN_XOC_A_1189


 25 28  0  0  0  0  0  0  0  0999 V2000
   -6.1279   -8.3873   14.7847 C   0  0  0  0  0  0  0  0  0  0  0  0
   -5.8788   -8.4089   16.1548 C   0  0  0  0  0  0  0  0  0  0  0  0
   -6.4865   -7.4493   16.9545 C   0  0  0  0  0  0  0  0  0  0  0  0
   -7.3310   -6.5021   16.3743 C   0  0  0  0  0  0  0  0  0  0  0  0
   -7.5798   -6.4907   15.0034 C   0  0  0  0  0  0  0  0  0  0  0  0
   -6.9611   -7.4476   14.1986 C   0  0  0  0  0  0  0  0  0  0  0  0
   -7.7054   -8.8316   12.4712 C   0  0  0  0  0  0  0  0  0  0  0  0
   -8.9363   -9.0396   11.8419 C   0  0  0  0  0  0  0  0  0  0  0  0
   -9.3656  -10.3480   11.6135 C   0  0  0  0  0  0  0  0  0  0  0  0
   -8.6020  -11.4357   12.0154 C   0  0  0  0  0  0  0  0  0  0  0  0
   -7.3795  -11.2361   12.6521 C   0  0  0  0  0  0  0  0  0  0  0  0
   -6.9494   -9.9309   12.8675 C   0  0  0  0  0  0  0  0  0  0  0  0
   -7.1503   -7.5647   12.7959 N   0  0  0  0  0  0  0  0  0  0  0  0
   -5.4279   -9.5714   13.6841 S   0  0  0  0  0  0  0  0  0  0  0  0
   -5.9262   -6.0302   11.3701 C   0  0  0  0  0  0  0  0  0  0  0  0
   -7.0801   -6.4382   11.9301 N   0  0  0  0  0  0  0  0  0  0  0  0
   -5.0533   -6.7693   10.9082 O   0  0  0  0  0  0  0  0  0  0  0  0
   -7.9054   -5.9390   11.7334 H   0  0  0  0  0  0  0  0  0  0  0  0
   -5.7749   -4.5114   11.3176 C   0  0  0  0  0  0  0  0  0  0  0  0
   -6.9782   -2.4760   10.9079 C   0  0  0  0  0  0  0  0  0  0  0  0
   -7.8003   -1.6618    9.9348 C   0  0  0  0  0  0  0  0  0  0  0  0
   -8.5182   -2.6046    9.0443 C   0  0  0  0  0  0  0  0  0  0  0  0
   -7.4655   -3.3247    8.2116 C   0  0  0  0  0  0  0  0  0  0  0  0
   -6.3124   -3.8000    9.0578 C   0  0  0  0  0  0  0  0  0  0  0  0
   -6.7599   -3.8673   10.4418 N   0  0  0  0  0  0  0  0  0  0  0  0
  1  2  1  0  0  0
  1  6  2  0  0  0
  1 14  1  0  0  0
  2  3  2  0  0  0
  3  4  1  0  0  0
  4  5  2  0  0  0
  5  6  1  0  0  0
  6 13  1  0  0  0
  7  8  1  0  0  0
  7 12  2  0  0  0
  7 13  1  0  0  0
  8  9  2  0  0  0
  9 10  1  0  0  0
 10 11  2  0  0  0
 11 12  1  0  0  0
 12 14  1  0  0  0
 15 19  1  0  0  0
 15 16  1  0  0  0
 15 17  2  0  0  0
 19 25  1  0  0  0
 20 21  1  0  0  0
 20 25  1  0  0  0
 21 22  1  0  0  0
 22 23  1  0  0  0
 23 24  1  0  0  0
 24 25  1  0  0  0
 13 16  1  0  0  0
 16 18  1  0  0  0
M  END
> <minimizedAffinity>
-6.66535

$$$$
5AAN_XOC_A_1189


 25 28  0  0  0  0  0  0  0  0999 V2000
   -6.0891   -7.2907   13.7959 C   0  0  0  0  0  0  0  0  0  0  0  0
   -5.4399   -7.0129   14.9964 C   0  0  0  0  0  0  0  0  0  0  0  0
   -6.0722   -6.1861   15.9164 C   0  0  0  0  0  0  0  0  0  0  0  0
   -7.3337   -5.6664   15.6237 C   0  0  0  0  0  0  0  0  0  0  0  0
   -7.9792   -5.9537   14.4228 C   0  0  0  0  0  0  0  0  0  0  0  0
   -7.3397   -6.7753   13.4942 C   0  0  0  0  0  0  0  0  0  0  0  0
   -8.0339   -8.5811   12.1864 C   0  0  0  0  0  0  0  0  0  0  0  0
   -9.2391   -9.2717   12.0280 C   0  0  0  0  0  0  0  0  0  0  0  0
   -9.2210  -10.6674   12.0149 C   0  0  0  0  0  0  0  0  0  0  0  0
   -8.0355  -11.3726   12.1738 C   0  0  0  0  0  0  0  0  0  0  0  0
   -6.8326  -10.6913   12.3424 C   0  0  0  0  0  0  0  0  0  0  0  0
   -6.8528   -9.3005   12.3432 C   0  0  0  0  0  0  0  0  0  0  0  0
   -7.8966   -7.1683   12.2482 N   0  0  0  0  0  0  0  0  0  0  0  0
   -5.3878   -8.3450   12.5711 S   0  0  0  0  0  0  0  0  0  0  0  0
   -7.8266   -5.1939   10.8400 C   0  0  0  0  0  0  0  0  0  0  0  0
   -8.5031   -6.2319   11.3658 N   0  0  0  0  0  0  0  0  0  0  0  0
   -6.6665   -5.2325   10.4225 O   0  0  0  0  0  0  0  0  0  0  0  0
   -9.4522   -6.3473   11.1311 H   0  0  0  0  0  0  0  0  0  0  0  0
   -8.6432   -3.9055   10.7662 C   0  0  0  0  0  0  0  0  0  0  0  0
   -8.6287   -2.3330    8.9536 C   0  0  0  0  0  0  0  0  0  0  0  0
   -8.0682   -1.0442    8.3962 C   0  0  0  0  0  0  0  0  0  0  0  0
   -6.7003   -0.8693    8.9398 C   0  0  0  0  0  0  0  0  0  0  0  0
   -6.8383   -0.6573   10.4418 C   0  0  0  0  0  0  0  0  0  0  0  0
   -7.7860   -1.6518   11.0619 C   0  0  0  0  0  0  0  0  0  0  0  0
   -7.9030   -2.7916   10.1634 N   0  0  0  0  0  0  0  0  0  0  0  0
  1  2  1  0  0  0
  1  6  2  0  0  0
  1 14  1  0  0  0
  2  3  2  0  0  0
  3  4  1  0  0  0
  4  5  2  0  0  0
  5  6  1  0  0  0
  6 13  1  0  0  0
  7  8  1  0  0  0
  7 12  2  0  0  0
  7 13  1  0  0  0
  8  9  2  0  0  0
  9 10  1  0  0  0
 10 11  2  0  0  0
 11 12  1  0  0  0
 12 14  1  0  0  0
 15 19  1  0  0  0
 15 16  1  0  0  0
 15 17  2  0  0  0
 19 25  1  0  0  0
 20 21  1  0  0  0
 20 25  1  0  0  0
 21 22  1  0  0  0
 22 23  1  0  0  0
 23 24  1  0  0  0
 24 25  1  0  0  0
 13 16  1  0  0  0
 16 18  1  0  0  0
M  END
> <minimizedAffinity>
-6.57638

$$$$
