2XB8_XNW_A_1144


 26 27  0  0  0  0  0  0  0  0999 V2000
   13.5080    2.7123   38.8016 C   0  0  0  0  0  0  0  0  0  0  0  0
   13.7757    3.3445   40.1668 C   0  0  0  0  0  0  0  0  0  0  0  0
   14.4774    4.3515   40.2883 O   0  0  0  0  0  0  0  0  0  0  0  0
   13.1491    2.7279   41.3985 C   0  0  0  0  0  0  0  0  0  0  0  0
   13.2853    3.6568   42.4969 O   0  0  0  0  0  0  0  0  0  0  0  0
   11.6578    2.5268   41.1271 C   0  0  0  0  0  0  0  0  0  0  0  0
   11.1014    1.7604   42.2030 O   0  0  0  0  0  0  0  0  0  0  0  0
   11.3611    1.8607   39.7605 C   0  0  0  0  0  0  0  0  0  0  0  0
   11.9985    2.5897   38.5697 C   0  0  0  0  0  0  0  0  0  0  0  0
   11.3634    3.8898   38.4066 O   0  0  0  0  0  0  0  0  0  0  0  0
   12.8517    4.4938   42.2682 H   0  0  0  0  0  0  0  0  0  0  0  0
   11.5288    0.8901   42.2349 H   0  0  0  0  0  0  0  0  0  0  0  0
   11.5101    4.4235   39.2032 H   0  0  0  0  0  0  0  0  0  0  0  0
   11.7477    1.7655   37.2882 C   0  0  0  0  0  0  0  0  0  0  0  0
   11.3761    0.5671   37.4400 O   0  0  0  0  0  0  0  0  0  0  0  0
   11.8550    2.3715   36.1855 O   0  0  0  0  0  0  0  0  0  0  0  0
   11.3254    0.1976   38.2996 H   0  0  0  0  0  0  0  0  0  0  0  0
   14.1945    3.5497   37.7300 C   0  0  0  0  0  0  0  0  0  0  0  0
   18.0881    2.1424   36.3412 C   0  0  0  0  0  0  0  0  0  0  0  0
   16.9334    2.0886   35.6062 C   0  0  0  0  0  0  0  0  0  0  0  0
   15.7138    2.5285   36.0858 C   0  0  0  0  0  0  0  0  0  0  0  0
   17.9953    2.6815   37.6231 C   0  0  0  0  0  0  0  0  0  0  0  0
   16.7488    3.1372   38.1052 C   0  0  0  0  0  0  0  0  0  0  0  0
   15.5921    3.0659   37.3313 C   0  0  0  0  0  0  0  0  0  0  0  0
   20.1451    1.1250   36.6911 C   0  0  0  0  0  0  0  0  0  0  0  0
   19.2313    1.6557   35.7309 O   0  0  0  0  0  0  0  0  0  0  0  0
 25 26  1  0  0  0
 26 19  1  0  0  0
 19 20  1  0  0  0
 19 22  2  0  0  0
 20 21  2  0  0  0
 21 24  1  0  0  0
 22 23  1  0  0  0
 23 24  2  0  0  0
 24 18  1  0  0  0
 18  1  1  0  0  0
  1  2  1  0  0  0
  1  9  1  0  0  0
  2  3  2  0  0  0
  2  4  1  0  0  0
  4  5  1  0  0  0
  4  6  1  0  0  0
  6  7  1  0  0  0
  6  8  1  0  0  0
  8  9  1  0  0  0
  9 14  1  0  0  0
  9 10  1  0  0  0
 14 15  1  0  0  0
 14 16  2  0  0  0
  5 11  1  0  0  0
  7 12  1  0  0  0
 15 17  1  0  0  0
 10 13  1  0  0  0
M  END
> <minimizedAffinity>
-11.78889

$$$$
2XB8_XNW_A_1144


 26 27  0  0  0  0  0  0  0  0999 V2000
   14.3067    2.9126   38.5623 C   0  0  0  0  0  0  0  0  0  0  0  0
   14.3507    3.4657   39.9861 C   0  0  0  0  0  0  0  0  0  0  0  0
   15.1275    4.3681   40.3071 O   0  0  0  0  0  0  0  0  0  0  0  0
   13.4040    2.9021   41.0236 C   0  0  0  0  0  0  0  0  0  0  0  0
   13.4140    3.7740   42.1759 O   0  0  0  0  0  0  0  0  0  0  0  0
   11.9925    2.9060   40.4358 C   0  0  0  0  0  0  0  0  0  0  0  0
   11.1290    2.1892   41.3275 O   0  0  0  0  0  0  0  0  0  0  0  0
   11.9166    2.3232   39.0027 C   0  0  0  0  0  0  0  0  0  0  0  0
   12.8787    2.9955   38.0135 C   0  0  0  0  0  0  0  0  0  0  0  0
   12.4569    4.3717   37.7935 O   0  0  0  0  0  0  0  0  0  0  0  0
   13.1450    4.6667   41.9083 H   0  0  0  0  0  0  0  0  0  0  0  0
   11.4301    1.2699   41.3999 H   0  0  0  0  0  0  0  0  0  0  0  0
   12.4935    4.8590   38.6314 H   0  0  0  0  0  0  0  0  0  0  0  0
   12.8097    2.2476   36.6643 C   0  0  0  0  0  0  0  0  0  0  0  0
   11.6606    1.9447   36.2341 O   0  0  0  0  0  0  0  0  0  0  0  0
   13.8993    2.0645   36.0529 O   0  0  0  0  0  0  0  0  0  0  0  0
   10.9034    2.1177   36.7582 H   0  0  0  0  0  0  0  0  0  0  0  0
   15.3040    3.6825   37.7059 C   0  0  0  0  0  0  0  0  0  0  0  0
   19.2676    1.8500   37.7201 C   0  0  0  0  0  0  0  0  0  0  0  0
   18.5767    2.2193   38.8439 C   0  0  0  0  0  0  0  0  0  0  0  0
   17.3294    2.8135   38.8000 C   0  0  0  0  0  0  0  0  0  0  0  0
   18.6507    2.0885   36.4934 C   0  0  0  0  0  0  0  0  0  0  0  0
   17.3728    2.6880   36.4543 C   0  0  0  0  0  0  0  0  0  0  0  0
   16.6979    3.0536   37.6175 C   0  0  0  0  0  0  0  0  0  0  0  0
   21.0223    0.7118   36.7129 C   0  0  0  0  0  0  0  0  0  0  0  0
   20.5104    1.2743   37.9212 O   0  0  0  0  0  0  0  0  0  0  0  0
 25 26  1  0  0  0
 26 19  1  0  0  0
 19 20  1  0  0  0
 19 22  2  0  0  0
 20 21  2  0  0  0
 21 24  1  0  0  0
 22 23  1  0  0  0
 23 24  2  0  0  0
 24 18  1  0  0  0
 18  1  1  0  0  0
  1  2  1  0  0  0
  1  9  1  0  0  0
  2  3  2  0  0  0
  2  4  1  0  0  0
  4  5  1  0  0  0
  4  6  1  0  0  0
  6  7  1  0  0  0
  6  8  1  0  0  0
  8  9  1  0  0  0
  9 14  1  0  0  0
  9 10  1  0  0  0
 14 15  1  0  0  0
 14 16  2  0  0  0
  5 11  1  0  0  0
  7 12  1  0  0  0
 15 17  1  0  0  0
 10 13  1  0  0  0
M  END
> <minimizedAffinity>
-9.89161

$$$$
2XB8_XNW_A_1144


 26 27  0  0  0  0  0  0  0  0999 V2000
   17.9945    2.1601   37.3282 C   0  0  0  0  0  0  0  0  0  0  0  0
   18.8478    1.9127   36.0850 C   0  0  0  0  0  0  0  0  0  0  0  0
   18.7997    2.6616   35.1063 O   0  0  0  0  0  0  0  0  0  0  0  0
   19.7883    0.7272   36.0624 C   0  0  0  0  0  0  0  0  0  0  0  0
   20.6903    0.8780   34.9436 O   0  0  0  0  0  0  0  0  0  0  0  0
   20.6161    0.7485   37.3477 C   0  0  0  0  0  0  0  0  0  0  0  0
   21.3579   -0.4753   37.4286 O   0  0  0  0  0  0  0  0  0  0  0  0
   19.7699    0.9694   38.6261 C   0  0  0  0  0  0  0  0  0  0  0  0
   18.8883    2.2247   38.5709 C   0  0  0  0  0  0  0  0  0  0  0  0
   19.7370    3.4080   38.5726 O   0  0  0  0  0  0  0  0  0  0  0  0
   21.1813    1.7097   35.0340 H   0  0  0  0  0  0  0  0  0  0  0  0
   20.7427   -1.2241   37.4708 H   0  0  0  0  0  0  0  0  0  0  0  0
   20.3040    3.4003   37.7856 H   0  0  0  0  0  0  0  0  0  0  0  0
   17.9997    2.2659   39.8331 C   0  0  0  0  0  0  0  0  0  0  0  0
   17.3937    3.3487   40.0733 O   0  0  0  0  0  0  0  0  0  0  0  0
   17.8813    1.1924   40.4874 O   0  0  0  0  0  0  0  0  0  0  0  0
   17.5434    4.0993   39.5328 H   0  0  0  0  0  0  0  0  0  0  0  0
   17.1893    3.4372   37.1244 C   0  0  0  0  0  0  0  0  0  0  0  0
   12.8895    2.6892   36.9805 C   0  0  0  0  0  0  0  0  0  0  0  0
   13.8111    2.0935   36.1605 C   0  0  0  0  0  0  0  0  0  0  0  0
   15.1644    2.3681   36.2236 C   0  0  0  0  0  0  0  0  0  0  0  0
   13.3740    3.6004   37.9170 C   0  0  0  0  0  0  0  0  0  0  0  0
   14.7583    3.8712   37.9831 C   0  0  0  0  0  0  0  0  0  0  0  0
   15.6692    3.2485   37.1318 C   0  0  0  0  0  0  0  0  0  0  0  0
   11.1303    1.4265   37.8169 C   0  0  0  0  0  0  0  0  0  0  0  0
   11.5681    2.3209   36.7938 O   0  0  0  0  0  0  0  0  0  0  0  0
 25 26  1  0  0  0
 26 19  1  0  0  0
 19 20  1  0  0  0
 19 22  2  0  0  0
 20 21  2  0  0  0
 21 24  1  0  0  0
 22 23  1  0  0  0
 23 24  2  0  0  0
 24 18  1  0  0  0
 18  1  1  0  0  0
  1  2  1  0  0  0
  1  9  1  0  0  0
  2  3  2  0  0  0
  2  4  1  0  0  0
  4  5  1  0  0  0
  4  6  1  0  0  0
  6  7  1  0  0  0
  6  8  1  0  0  0
  8  9  1  0  0  0
  9 14  1  0  0  0
  9 10  1  0  0  0
 14 15  1  0  0  0
 14 16  2  0  0  0
  5 11  1  0  0  0
  7 12  1  0  0  0
 15 17  1  0  0  0
 10 13  1  0  0  0
M  END
> <minimizedAffinity>
-9.40679

$$$$
2XB8_XNW_A_1144


 26 27  0  0  0  0  0  0  0  0999 V2000
   18.0700    2.0302   37.3647 C   0  0  0  0  0  0  0  0  0  0  0  0
   18.9564    1.8091   36.1398 C   0  0  0  0  0  0  0  0  0  0  0  0
   18.8744    2.5292   35.1419 O   0  0  0  0  0  0  0  0  0  0  0  0
   19.9724    0.6877   36.1599 C   0  0  0  0  0  0  0  0  0  0  0  0
   20.8796    0.8701   35.0500 O   0  0  0  0  0  0  0  0  0  0  0  0
   20.7775    0.7945   37.4554 C   0  0  0  0  0  0  0  0  0  0  0  0
   21.5962   -0.3757   37.5772 O   0  0  0  0  0  0  0  0  0  0  0  0
   19.8993    0.9904   38.7162 C   0  0  0  0  0  0  0  0  0  0  0  0
   18.9387    2.1835   38.6174 C   0  0  0  0  0  0  0  0  0  0  0  0
   19.7083    3.4196   38.6007 O   0  0  0  0  0  0  0  0  0  0  0  0
   21.3138    1.7341   35.1260 H   0  0  0  0  0  0  0  0  0  0  0  0
   21.0306   -1.1620   37.6300 H   0  0  0  0  0  0  0  0  0  0  0  0
   20.2864    3.4300   37.8219 H   0  0  0  0  0  0  0  0  0  0  0  0
   18.0302    2.1970   39.8660 C   0  0  0  0  0  0  0  0  0  0  0  0
   17.3853    3.2595   40.0951 O   0  0  0  0  0  0  0  0  0  0  0  0
   17.9374    1.1209   40.5203 O   0  0  0  0  0  0  0  0  0  0  0  0
   17.5183    4.0139   39.5555 H   0  0  0  0  0  0  0  0  0  0  0  0
   17.1864    3.2463   37.1178 C   0  0  0  0  0  0  0  0  0  0  0  0
   12.8880    2.5350   36.8238 C   0  0  0  0  0  0  0  0  0  0  0  0
   13.4951    3.2250   37.8396 C   0  0  0  0  0  0  0  0  0  0  0  0
   14.8625    3.4159   37.9086 C   0  0  0  0  0  0  0  0  0  0  0  0
   13.7153    2.0253   35.8248 C   0  0  0  0  0  0  0  0  0  0  0  0
   15.1106    2.2303   35.8954 C   0  0  0  0  0  0  0  0  0  0  0  0
   15.6964    2.9358   36.9448 C   0  0  0  0  0  0  0  0  0  0  0  0
   11.1107    1.7132   38.0707 C   0  0  0  0  0  0  0  0  0  0  0  0
   11.5104    2.4174   36.8948 O   0  0  0  0  0  0  0  0  0  0  0  0
 25 26  1  0  0  0
 26 19  1  0  0  0
 19 20  1  0  0  0
 19 22  2  0  0  0
 20 21  2  0  0  0
 21 24  1  0  0  0
 22 23  1  0  0  0
 23 24  2  0  0  0
 24 18  1  0  0  0
 18  1  1  0  0  0
  1  2  1  0  0  0
  1  9  1  0  0  0
  2  3  2  0  0  0
  2  4  1  0  0  0
  4  5  1  0  0  0
  4  6  1  0  0  0
  6  7  1  0  0  0
  6  8  1  0  0  0
  8  9  1  0  0  0
  9 14  1  0  0  0
  9 10  1  0  0  0
 14 15  1  0  0  0
 14 16  2  0  0  0
  5 11  1  0  0  0
  7 12  1  0  0  0
 15 17  1  0  0  0
 10 13  1  0  0  0
M  END
> <minimizedAffinity>
-9.28508

$$$$
