5ZO8_4C5_A_602


 31 33  0  0  0  0  0  0  0  0999 V2000
   40.5728   -6.5997   19.2800 C   0  0  0  0  0  0  0  0  0  0  0  0
   40.6968   -7.0697   17.8711 C   0  0  0  0  0  0  0  0  0  0  0  0
   40.3684   -8.3808   17.5396 C   0  0  0  0  0  0  0  0  0  0  0  0
   40.5326   -8.7813   16.2337 C   0  0  0  0  0  0  0  0  0  0  0  0
   40.9659   -7.9161   15.2268 C   0  0  0  0  0  0  0  0  0  0  0  0
   41.3091   -6.6252   15.5366 C   0  0  0  0  0  0  0  0  0  0  0  0
   41.1835   -6.2091   16.8607 C   0  0  0  0  0  0  0  0  0  0  0  0
   41.9907   -6.6241   19.8402 C   0  0  0  0  0  0  0  0  0  0  0  0
   42.9864   -5.7510   19.4002 C   0  0  0  0  0  0  0  0  0  0  0  0
   44.2568   -5.7796   19.9575 C   0  0  0  0  0  0  0  0  0  0  0  0
   44.5745   -6.6780   20.9537 C   0  0  0  0  0  0  0  0  0  0  0  0
   43.6165   -7.5657   21.3856 C   0  0  0  0  0  0  0  0  0  0  0  0
   42.3352   -7.5223   20.8509 C   0  0  0  0  0  0  0  0  0  0  0  0
   39.8650   -5.2902   19.4670 C   0  0  0  0  0  0  0  0  0  0  0  0
   40.2749   -4.3208   20.4079 C   0  0  0  0  0  0  0  0  0  0  0  0
   39.5408   -3.1556   20.5932 C   0  0  0  0  0  0  0  0  0  0  0  0
   38.3442   -2.9763   19.8843 C   0  0  0  0  0  0  0  0  0  0  0  0
   37.9320   -3.9078   18.9593 C   0  0  0  0  0  0  0  0  0  0  0  0
   38.6912   -5.0658   18.7710 C   0  0  0  0  0  0  0  0  0  0  0  0
   37.5755   -1.8837   20.0036 O   0  0  0  0  0  0  0  0  0  0  0  0
   37.9267   -0.7433   20.7510 C   0  0  0  0  0  0  0  0  0  0  0  0
   39.4185   -7.6435   20.2158 S   0  0  0  0  0  0  0  0  0  0  0  0
   38.8924   -6.7330   21.6688 C   0  0  0  0  0  0  0  0  0  0  0  0
   38.9886   -7.4716   22.9941 C   0  0  0  0  0  0  0  0  0  0  0  0
   37.6286   -7.6068   23.5351 N   0  0  0  0  0  0  0  0  0  0  0  0
   37.2289   -6.6805   23.6854 H   0  0  0  0  0  0  0  0  0  0  0  0
   37.6639   -8.1099   24.4217 H   0  0  0  0  0  0  0  0  0  0  0  0
   40.9609   -7.1355   24.3521 O   0  0  0  0  0  0  0  0  0  0  0  0
   39.8700   -6.7243   24.0119 C   0  0  0  0  0  0  0  0  0  0  0  0
   39.4853   -5.5975   24.6082 O   0  0  0  0  0  0  0  0  0  0  0  0
   41.3023   -7.9236   23.9775 H   0  0  0  0  0  0  0  0  0  0  0  0
  5  4  2  0  0  0
  5  6  1  0  0  0
  4  3  1  0  0  0
  6  7  2  0  0  0
  3  2  2  0  0  0
  7  2  1  0  0  0
  2  1  1  0  0  0
 19 18  2  0  0  0
 19 14  1  0  0  0
 18 17  1  0  0  0
 13 12  2  0  0  0
 13  8  1  0  0  0
  1 14  1  0  0  0
  1  8  1  0  0  0
  1 22  1  0  0  0
 14 15  2  0  0  0
 12 11  1  0  0  0
  8  9  2  0  0  0
 17 20  1  0  0  0
 17 16  2  0  0  0
 20 21  1  0  0  0
 15 16  1  0  0  0
 11 10  2  0  0  0
 22 23  1  0  0  0
  9 10  1  0  0  0
 23 24  1  0  0  0
 25 24  1  0  0  0
 24 29  1  0  0  0
 29 30  2  0  0  0
 29 28  1  0  0  0
 28 31  1  0  0  0
 25 26  1  0  0  0
 25 27  1  0  0  0
M  END
> <minimizedAffinity>
-10.56445

$$$$
5ZO8_4C5_A_602


 31 33  0  0  0  0  0  0  0  0999 V2000
   40.7323   -6.5369   19.5281 C   0  0  0  0  0  0  0  0  0  0  0  0
   39.9325   -5.2807   19.5869 C   0  0  0  0  0  0  0  0  0  0  0  0
   40.3212   -4.2427   20.4286 C   0  0  0  0  0  0  0  0  0  0  0  0
   39.5330   -3.1161   20.4775 C   0  0  0  0  0  0  0  0  0  0  0  0
   38.3945   -2.9556   19.6849 C   0  0  0  0  0  0  0  0  0  0  0  0
   37.9868   -3.9731   18.8611 C   0  0  0  0  0  0  0  0  0  0  0  0
   38.7519   -5.1374   18.8228 C   0  0  0  0  0  0  0  0  0  0  0  0
   40.7995   -6.9041   18.0497 C   0  0  0  0  0  0  0  0  0  0  0  0
   41.2630   -6.0176   17.0769 C   0  0  0  0  0  0  0  0  0  0  0  0
   41.3420   -6.3986   15.7449 C   0  0  0  0  0  0  0  0  0  0  0  0
   40.9551   -7.6593   15.3434 C   0  0  0  0  0  0  0  0  0  0  0  0
   40.4707   -8.5417   16.2811 C   0  0  0  0  0  0  0  0  0  0  0  0
   40.4161   -8.1750   17.6198 C   0  0  0  0  0  0  0  0  0  0  0  0
   42.0697   -6.4867   20.2061 C   0  0  0  0  0  0  0  0  0  0  0  0
   43.2040   -5.8774   19.6273 C   0  0  0  0  0  0  0  0  0  0  0  0
   44.4379   -5.9230   20.2647 C   0  0  0  0  0  0  0  0  0  0  0  0
   44.5675   -6.6410   21.4622 C   0  0  0  0  0  0  0  0  0  0  0  0
   43.4718   -7.2365   22.0437 C   0  0  0  0  0  0  0  0  0  0  0  0
   42.2338   -7.1659   21.3995 C   0  0  0  0  0  0  0  0  0  0  0  0
   45.7202   -6.7365   22.1412 O   0  0  0  0  0  0  0  0  0  0  0  0
   45.9442   -6.1680   23.4098 C   0  0  0  0  0  0  0  0  0  0  0  0
   39.9817   -7.8356   20.5517 S   0  0  0  0  0  0  0  0  0  0  0  0
   38.8330   -7.0582   21.6889 C   0  0  0  0  0  0  0  0  0  0  0  0
   38.8746   -7.5522   23.1261 C   0  0  0  0  0  0  0  0  0  0  0  0
   37.4942   -7.5938   23.6291 N   0  0  0  0  0  0  0  0  0  0  0  0
   37.0928   -6.6565   23.5987 H   0  0  0  0  0  0  0  0  0  0  0  0
   37.4928   -7.9332   24.5909 H   0  0  0  0  0  0  0  0  0  0  0  0
   39.4625   -5.4582   24.1830 O   0  0  0  0  0  0  0  0  0  0  0  0
   39.7191   -6.6354   24.0303 C   0  0  0  0  0  0  0  0  0  0  0  0
   40.8007   -7.0617   24.6798 O   0  0  0  0  0  0  0  0  0  0  0  0
   38.7166   -5.0824   23.7584 H   0  0  0  0  0  0  0  0  0  0  0  0
  5  4  2  0  0  0
  5  6  1  0  0  0
  4  3  1  0  0  0
  6  7  2  0  0  0
  3  2  2  0  0  0
  7  2  1  0  0  0
  2  1  1  0  0  0
 19 18  2  0  0  0
 19 14  1  0  0  0
 18 17  1  0  0  0
 13 12  2  0  0  0
 13  8  1  0  0  0
  1 14  1  0  0  0
  1  8  1  0  0  0
  1 22  1  0  0  0
 14 15  2  0  0  0
 12 11  1  0  0  0
  8  9  2  0  0  0
 17 20  1  0  0  0
 17 16  2  0  0  0
 20 21  1  0  0  0
 15 16  1  0  0  0
 11 10  2  0  0  0
 22 23  1  0  0  0
  9 10  1  0  0  0
 23 24  1  0  0  0
 25 24  1  0  0  0
 24 29  1  0  0  0
 29 30  2  0  0  0
 29 28  1  0  0  0
 28 31  1  0  0  0
 25 26  1  0  0  0
 25 27  1  0  0  0
M  END
> <minimizedAffinity>
-10.30260

$$$$
5ZO8_4C5_A_602


 31 33  0  0  0  0  0  0  0  0999 V2000
   40.1243   -6.5990   20.6316 C   0  0  0  0  0  0  0  0  0  0  0  0
   39.4787   -5.2975   20.2992 C   0  0  0  0  0  0  0  0  0  0  0  0
   38.6059   -5.2052   19.2191 C   0  0  0  0  0  0  0  0  0  0  0  0
   38.0612   -3.9760   18.9273 C   0  0  0  0  0  0  0  0  0  0  0  0
   38.3098   -2.8374   19.6966 C   0  0  0  0  0  0  0  0  0  0  0  0
   39.1789   -2.9049   20.7551 C   0  0  0  0  0  0  0  0  0  0  0  0
   39.7691   -4.1333   21.0466 C   0  0  0  0  0  0  0  0  0  0  0  0
   41.6139   -6.3855   20.3853 C   0  0  0  0  0  0  0  0  0  0  0  0
   42.0953   -5.5591   19.3692 C   0  0  0  0  0  0  0  0  0  0  0  0
   43.4579   -5.3618   19.1963 C   0  0  0  0  0  0  0  0  0  0  0  0
   44.3746   -5.9847   20.0162 C   0  0  0  0  0  0  0  0  0  0  0  0
   43.9240   -6.8242   21.0084 C   0  0  0  0  0  0  0  0  0  0  0  0
   42.5604   -7.0029   21.2037 C   0  0  0  0  0  0  0  0  0  0  0  0
   39.8033   -7.1547   21.9877 C   0  0  0  0  0  0  0  0  0  0  0  0
   39.7250   -6.3553   23.1486 C   0  0  0  0  0  0  0  0  0  0  0  0
   39.4972   -6.9302   24.3930 C   0  0  0  0  0  0  0  0  0  0  0  0
   39.4124   -8.3258   24.5010 C   0  0  0  0  0  0  0  0  0  0  0  0
   39.4809   -9.1203   23.3797 C   0  0  0  0  0  0  0  0  0  0  0  0
   39.6918   -8.5255   22.1329 C   0  0  0  0  0  0  0  0  0  0  0  0
   39.1952   -8.9616   25.6617 O   0  0  0  0  0  0  0  0  0  0  0  0
   38.3317  -10.0632   25.8145 C   0  0  0  0  0  0  0  0  0  0  0  0
   39.4233   -7.9469   19.6368 S   0  0  0  0  0  0  0  0  0  0  0  0
   40.6195   -8.3934   18.3771 C   0  0  0  0  0  0  0  0  0  0  0  0
   40.0565   -8.7156   17.0021 C   0  0  0  0  0  0  0  0  0  0  0  0
   40.3729  -10.1194   16.7026 N   0  0  0  0  0  0  0  0  0  0  0  0
   41.3850  -10.2464   16.6986 H   0  0  0  0  0  0  0  0  0  0  0  0
   39.9958  -10.3651   15.7873 H   0  0  0  0  0  0  0  0  0  0  0  0
   40.6083   -8.1072   14.7278 O   0  0  0  0  0  0  0  0  0  0  0  0
   40.6523   -7.8137   15.9055 C   0  0  0  0  0  0  0  0  0  0  0  0
   41.2799   -6.6704   16.1747 O   0  0  0  0  0  0  0  0  0  0  0  0
   40.1835   -8.8974   14.4575 H   0  0  0  0  0  0  0  0  0  0  0  0
  5  4  2  0  0  0
  5  6  1  0  0  0
  4  3  1  0  0  0
  6  7  2  0  0  0
  3  2  2  0  0  0
  7  2  1  0  0  0
  2  1  1  0  0  0
 19 18  2  0  0  0
 19 14  1  0  0  0
 18 17  1  0  0  0
 13 12  2  0  0  0
 13  8  1  0  0  0
  1 14  1  0  0  0
  1  8  1  0  0  0
  1 22  1  0  0  0
 14 15  2  0  0  0
 12 11  1  0  0  0
  8  9  2  0  0  0
 17 20  1  0  0  0
 17 16  2  0  0  0
 20 21  1  0  0  0
 15 16  1  0  0  0
 11 10  2  0  0  0
 22 23  1  0  0  0
  9 10  1  0  0  0
 23 24  1  0  0  0
 25 24  1  0  0  0
 24 29  1  0  0  0
 29 30  2  0  0  0
 29 28  1  0  0  0
 28 31  1  0  0  0
 25 26  1  0  0  0
 25 27  1  0  0  0
M  END
> <minimizedAffinity>
-9.64133

$$$$
5ZO8_4C5_A_602


 31 33  0  0  0  0  0  0  0  0999 V2000
   40.1906   -6.6223   21.2681 C   0  0  0  0  0  0  0  0  0  0  0  0
   39.6526   -6.8164   22.6444 C   0  0  0  0  0  0  0  0  0  0  0  0
   38.4674   -7.5193   22.8395 C   0  0  0  0  0  0  0  0  0  0  0  0
   37.9893   -7.6429   24.1236 C   0  0  0  0  0  0  0  0  0  0  0  0
   38.6675   -7.1367   25.2345 C   0  0  0  0  0  0  0  0  0  0  0  0
   39.8285   -6.4279   25.0611 C   0  0  0  0  0  0  0  0  0  0  0  0
   40.3119   -6.2609   23.7647 C   0  0  0  0  0  0  0  0  0  0  0  0
   39.5407   -5.3410   20.7574 C   0  0  0  0  0  0  0  0  0  0  0  0
   39.7109   -4.1094   21.3909 C   0  0  0  0  0  0  0  0  0  0  0  0
   39.1315   -2.9577   20.8778 C   0  0  0  0  0  0  0  0  0  0  0  0
   38.3628   -2.9992   19.7343 C   0  0  0  0  0  0  0  0  0  0  0  0
   38.1599   -4.2065   19.1070 C   0  0  0  0  0  0  0  0  0  0  0  0
   38.7609   -5.3575   19.6005 C   0  0  0  0  0  0  0  0  0  0  0  0
   41.6859   -6.6382   21.1480 C   0  0  0  0  0  0  0  0  0  0  0  0
   42.4179   -5.6150   20.5073 C   0  0  0  0  0  0  0  0  0  0  0  0
   43.7958   -5.7140   20.3581 C   0  0  0  0  0  0  0  0  0  0  0  0
   44.4530   -6.8752   20.7897 C   0  0  0  0  0  0  0  0  0  0  0  0
   43.7567   -7.8801   21.4211 C   0  0  0  0  0  0  0  0  0  0  0  0
   42.3738   -7.7574   21.5802 C   0  0  0  0  0  0  0  0  0  0  0  0
   45.7781   -7.0529   20.6832 O   0  0  0  0  0  0  0  0  0  0  0  0
   46.5370   -7.8910   21.5224 C   0  0  0  0  0  0  0  0  0  0  0  0
   39.8404   -8.0650   20.2222 S   0  0  0  0  0  0  0  0  0  0  0  0
   40.5209   -7.7531   18.5923 C   0  0  0  0  0  0  0  0  0  0  0  0
   39.6612   -8.1812   17.4137 C   0  0  0  0  0  0  0  0  0  0  0  0
   38.4498   -8.8200   17.9474 N   0  0  0  0  0  0  0  0  0  0  0  0
   38.7111   -9.6380   18.4979 H   0  0  0  0  0  0  0  0  0  0  0  0
   37.8488   -9.1078   17.1751 H   0  0  0  0  0  0  0  0  0  0  0  0
   40.3369  -10.3735   16.6495 O   0  0  0  0  0  0  0  0  0  0  0  0
   40.3947   -9.1710   16.4900 C   0  0  0  0  0  0  0  0  0  0  0  0
   41.1628   -8.7768   15.4761 O   0  0  0  0  0  0  0  0  0  0  0  0
   39.8165  -10.7297   17.3426 H   0  0  0  0  0  0  0  0  0  0  0  0
  5  4  2  0  0  0
  5  6  1  0  0  0
  4  3  1  0  0  0
  6  7  2  0  0  0
  3  2  2  0  0  0
  7  2  1  0  0  0
  2  1  1  0  0  0
 19 18  2  0  0  0
 19 14  1  0  0  0
 18 17  1  0  0  0
 13 12  2  0  0  0
 13  8  1  0  0  0
  1 14  1  0  0  0
  1  8  1  0  0  0
  1 22  1  0  0  0
 14 15  2  0  0  0
 12 11  1  0  0  0
  8  9  2  0  0  0
 17 20  1  0  0  0
 17 16  2  0  0  0
 20 21  1  0  0  0
 15 16  1  0  0  0
 11 10  2  0  0  0
 22 23  1  0  0  0
  9 10  1  0  0  0
 23 24  1  0  0  0
 25 24  1  0  0  0
 24 29  1  0  0  0
 29 30  2  0  0  0
 29 28  1  0  0  0
 28 31  1  0  0  0
 25 26  1  0  0  0
 25 27  1  0  0  0
M  END
> <minimizedAffinity>
-9.18679

$$$$
5ZO8_4C5_A_602


 31 33  0  0  0  0  0  0  0  0999 V2000
   40.2746   -6.5464   21.1729 C   0  0  0  0  0  0  0  0  0  0  0  0
   39.6710   -5.2393   20.7875 C   0  0  0  0  0  0  0  0  0  0  0  0
   38.7533   -5.1734   19.7433 C   0  0  0  0  0  0  0  0  0  0  0  0
   38.2492   -3.9406   19.3984 C   0  0  0  0  0  0  0  0  0  0  0  0
   38.5828   -2.7696   20.0823 C   0  0  0  0  0  0  0  0  0  0  0  0
   39.4968   -2.8120   21.1035 C   0  0  0  0  0  0  0  0  0  0  0  0
   40.0464   -4.0461   21.4460 C   0  0  0  0  0  0  0  0  0  0  0  0
   41.7667   -6.3999   20.8948 C   0  0  0  0  0  0  0  0  0  0  0  0
   42.7399   -7.0292   21.6719 C   0  0  0  0  0  0  0  0  0  0  0  0
   44.0878   -6.9004   21.3682 C   0  0  0  0  0  0  0  0  0  0  0  0
   44.5040   -6.1388   20.2972 C   0  0  0  0  0  0  0  0  0  0  0  0
   43.5639   -5.4882   19.5323 C   0  0  0  0  0  0  0  0  0  0  0  0
   42.2120   -5.6367   19.8149 C   0  0  0  0  0  0  0  0  0  0  0  0
   39.9560   -7.0245   22.5587 C   0  0  0  0  0  0  0  0  0  0  0  0
   39.5571   -8.3484   22.8438 C   0  0  0  0  0  0  0  0  0  0  0  0
   39.2019   -8.7210   24.1345 C   0  0  0  0  0  0  0  0  0  0  0  0
   39.1759   -7.7520   25.1478 C   0  0  0  0  0  0  0  0  0  0  0  0
   39.5667   -6.4582   24.8895 C   0  0  0  0  0  0  0  0  0  0  0  0
   39.9389   -6.1035   23.5902 C   0  0  0  0  0  0  0  0  0  0  0  0
   38.8448   -8.0254   26.4184 O   0  0  0  0  0  0  0  0  0  0  0  0
   37.9208   -7.2808   27.1762 C   0  0  0  0  0  0  0  0  0  0  0  0
   39.5093   -7.9135   20.2546 S   0  0  0  0  0  0  0  0  0  0  0  0
   40.4610   -8.1851   18.7588 C   0  0  0  0  0  0  0  0  0  0  0  0
   39.6645   -8.2995   17.4689 C   0  0  0  0  0  0  0  0  0  0  0  0
   38.3424   -8.8485   17.8022 N   0  0  0  0  0  0  0  0  0  0  0  0
   38.4534   -9.7717   18.2212 H   0  0  0  0  0  0  0  0  0  0  0  0
   37.7824   -8.9255   16.9531 H   0  0  0  0  0  0  0  0  0  0  0  0
   40.4428  -10.4175   16.5998 O   0  0  0  0  0  0  0  0  0  0  0  0
   40.3530   -9.2167   16.4414 C   0  0  0  0  0  0  0  0  0  0  0  0
   40.9205   -8.7546   15.3290 O   0  0  0  0  0  0  0  0  0  0  0  0
   40.0684  -10.8192   17.3590 H   0  0  0  0  0  0  0  0  0  0  0  0
  5  4  2  0  0  0
  5  6  1  0  0  0
  4  3  1  0  0  0
  6  7  2  0  0  0
  3  2  2  0  0  0
  7  2  1  0  0  0
  2  1  1  0  0  0
 19 18  2  0  0  0
 19 14  1  0  0  0
 18 17  1  0  0  0
 13 12  2  0  0  0
 13  8  1  0  0  0
  1 14  1  0  0  0
  1  8  1  0  0  0
  1 22  1  0  0  0
 14 15  2  0  0  0
 12 11  1  0  0  0
  8  9  2  0  0  0
 17 20  1  0  0  0
 17 16  2  0  0  0
 20 21  1  0  0  0
 15 16  1  0  0  0
 11 10  2  0  0  0
 22 23  1  0  0  0
  9 10  1  0  0  0
 23 24  1  0  0  0
 25 24  1  0  0  0
 24 29  1  0  0  0
 29 30  2  0  0  0
 29 28  1  0  0  0
 28 31  1  0  0  0
 25 26  1  0  0  0
 25 27  1  0  0  0
M  END
> <minimizedAffinity>
-9.17190

$$$$
5ZO8_4C5_A_602


 31 33  0  0  0  0  0  0  0  0999 V2000
   40.5283   -6.1672   19.9776 C   0  0  0  0  0  0  0  0  0  0  0  0
   40.2680   -7.1125   21.1001 C   0  0  0  0  0  0  0  0  0  0  0  0
   40.9635   -8.3155   21.1771 C   0  0  0  0  0  0  0  0  0  0  0  0
   40.6650   -9.1734   22.2104 C   0  0  0  0  0  0  0  0  0  0  0  0
   39.7338   -8.8643   23.2042 C   0  0  0  0  0  0  0  0  0  0  0  0
   39.0274   -7.6910   23.1369 C   0  0  0  0  0  0  0  0  0  0  0  0
   39.2894   -6.8231   22.0784 C   0  0  0  0  0  0  0  0  0  0  0  0
   40.4332   -7.0095   18.7101 C   0  0  0  0  0  0  0  0  0  0  0  0
   39.4188   -7.9456   18.5058 C   0  0  0  0  0  0  0  0  0  0  0  0
   39.3447   -8.6701   17.3246 C   0  0  0  0  0  0  0  0  0  0  0  0
   40.2766   -8.4934   16.3243 C   0  0  0  0  0  0  0  0  0  0  0  0
   41.3005   -7.5944   16.5139 C   0  0  0  0  0  0  0  0  0  0  0  0
   41.3630   -6.8464   17.6827 C   0  0  0  0  0  0  0  0  0  0  0  0
   39.6740   -4.9341   19.9567 C   0  0  0  0  0  0  0  0  0  0  0  0
   38.5420   -4.7957   19.1245 C   0  0  0  0  0  0  0  0  0  0  0  0
   37.8276   -3.6043   19.0893 C   0  0  0  0  0  0  0  0  0  0  0  0
   38.2795   -2.5087   19.8390 C   0  0  0  0  0  0  0  0  0  0  0  0
   39.3775   -2.6270   20.6598 C   0  0  0  0  0  0  0  0  0  0  0  0
   40.0744   -3.8376   20.6982 C   0  0  0  0  0  0  0  0  0  0  0  0
   37.6513   -1.3240   19.8617 O   0  0  0  0  0  0  0  0  0  0  0  0
   37.3034   -0.6319   21.0375 C   0  0  0  0  0  0  0  0  0  0  0  0
   42.1392   -5.3520   20.1725 S   0  0  0  0  0  0  0  0  0  0  0  0
   42.9832   -6.1055   21.5642 C   0  0  0  0  0  0  0  0  0  0  0  0
   44.4453   -6.4618   21.3486 C   0  0  0  0  0  0  0  0  0  0  0  0
   44.7935   -6.1194   19.9623 N   0  0  0  0  0  0  0  0  0  0  0  0
   44.2100   -6.6581   19.3222 H   0  0  0  0  0  0  0  0  0  0  0  0
   45.7752   -6.3393   19.7941 H   0  0  0  0  0  0  0  0  0  0  0  0
   44.2443   -8.5632   22.5281 O   0  0  0  0  0  0  0  0  0  0  0  0
   44.7192   -7.9581   21.5882 C   0  0  0  0  0  0  0  0  0  0  0  0
   45.5155   -8.6800   20.8021 O   0  0  0  0  0  0  0  0  0  0  0  0
   43.6734   -8.1243   23.1276 H   0  0  0  0  0  0  0  0  0  0  0  0
  5  4  2  0  0  0
  5  6  1  0  0  0
  4  3  1  0  0  0
  6  7  2  0  0  0
  3  2  2  0  0  0
  7  2  1  0  0  0
  2  1  1  0  0  0
 19 18  2  0  0  0
 19 14  1  0  0  0
 18 17  1  0  0  0
 13 12  2  0  0  0
 13  8  1  0  0  0
  1 14  1  0  0  0
  1  8  1  0  0  0
  1 22  1  0  0  0
 14 15  2  0  0  0
 12 11  1  0  0  0
  8  9  2  0  0  0
 17 20  1  0  0  0
 17 16  2  0  0  0
 20 21  1  0  0  0
 15 16  1  0  0  0
 11 10  2  0  0  0
 22 23  1  0  0  0
  9 10  1  0  0  0
 23 24  1  0  0  0
 25 24  1  0  0  0
 24 29  1  0  0  0
 29 30  2  0  0  0
 29 28  1  0  0  0
 28 31  1  0  0  0
 25 26  1  0  0  0
 25 27  1  0  0  0
M  END
> <minimizedAffinity>
-9.03121

$$$$
5ZO8_4C5_A_602


 31 33  0  0  0  0  0  0  0  0999 V2000
   40.7401   -5.8338   19.8451 C   0  0  0  0  0  0  0  0  0  0  0  0
   40.7176   -6.4571   18.4914 C   0  0  0  0  0  0  0  0  0  0  0  0
   41.4557   -5.8988   17.4520 C   0  0  0  0  0  0  0  0  0  0  0  0
   41.3766   -6.4864   16.2105 C   0  0  0  0  0  0  0  0  0  0  0  0
   40.6292   -7.6407   15.9671 C   0  0  0  0  0  0  0  0  0  0  0  0
   39.8830   -8.1962   16.9745 C   0  0  0  0  0  0  0  0  0  0  0  0
   39.9214   -7.5959   18.2316 C   0  0  0  0  0  0  0  0  0  0  0  0
   39.7409   -4.6841   19.7771 C   0  0  0  0  0  0  0  0  0  0  0  0
   38.5868   -4.7385   18.9946 C   0  0  0  0  0  0  0  0  0  0  0  0
   37.6825   -3.6861   18.9839 C   0  0  0  0  0  0  0  0  0  0  0  0
   37.9036   -2.5530   19.7373 C   0  0  0  0  0  0  0  0  0  0  0  0
   39.0474   -2.4662   20.4966 C   0  0  0  0  0  0  0  0  0  0  0  0
   39.9417   -3.5285   20.5328 C   0  0  0  0  0  0  0  0  0  0  0  0
   40.5148   -6.7712   20.9946 C   0  0  0  0  0  0  0  0  0  0  0  0
   40.7105   -8.1662   20.9003 C   0  0  0  0  0  0  0  0  0  0  0  0
   40.4166   -8.9988   21.9733 C   0  0  0  0  0  0  0  0  0  0  0  0
   39.8564   -8.4508   23.1362 C   0  0  0  0  0  0  0  0  0  0  0  0
   39.6638   -7.0930   23.2478 C   0  0  0  0  0  0  0  0  0  0  0  0
   39.9817   -6.2667   22.1667 C   0  0  0  0  0  0  0  0  0  0  0  0
   39.5425   -9.1816   24.2161 O   0  0  0  0  0  0  0  0  0  0  0  0
   39.5016   -8.6790   25.5307 C   0  0  0  0  0  0  0  0  0  0  0  0
   42.4173   -5.2954   20.2867 S   0  0  0  0  0  0  0  0  0  0  0  0
   43.4955   -6.7279   20.2400 C   0  0  0  0  0  0  0  0  0  0  0  0
   44.4901   -6.8559   21.3827 C   0  0  0  0  0  0  0  0  0  0  0  0
   45.7699   -7.3080   20.8186 N   0  0  0  0  0  0  0  0  0  0  0  0
   45.6422   -8.2152   20.3701 H   0  0  0  0  0  0  0  0  0  0  0  0
   46.4598   -7.3919   21.5651 H   0  0  0  0  0  0  0  0  0  0  0  0
   44.2880   -9.0441   22.3918 O   0  0  0  0  0  0  0  0  0  0  0  0
   44.0204   -7.8610   22.4507 C   0  0  0  0  0  0  0  0  0  0  0  0
   43.2673   -7.5082   23.4906 O   0  0  0  0  0  0  0  0  0  0  0  0
   44.8143   -9.3710   21.6888 H   0  0  0  0  0  0  0  0  0  0  0  0
  5  4  2  0  0  0
  5  6  1  0  0  0
  4  3  1  0  0  0
  6  7  2  0  0  0
  3  2  2  0  0  0
  7  2  1  0  0  0
  2  1  1  0  0  0
 19 18  2  0  0  0
 19 14  1  0  0  0
 18 17  1  0  0  0
 13 12  2  0  0  0
 13  8  1  0  0  0
  1 14  1  0  0  0
  1  8  1  0  0  0
  1 22  1  0  0  0
 14 15  2  0  0  0
 12 11  1  0  0  0
  8  9  2  0  0  0
 17 20  1  0  0  0
 17 16  2  0  0  0
 20 21  1  0  0  0
 15 16  1  0  0  0
 11 10  2  0  0  0
 22 23  1  0  0  0
  9 10  1  0  0  0
 23 24  1  0  0  0
 25 24  1  0  0  0
 24 29  1  0  0  0
 29 30  2  0  0  0
 29 28  1  0  0  0
 28 31  1  0  0  0
 25 26  1  0  0  0
 25 27  1  0  0  0
M  END
> <minimizedAffinity>
-8.93359

$$$$
5ZO8_4C5_A_602


 31 33  0  0  0  0  0  0  0  0999 V2000
   41.4917   -6.9966   20.8347 C   0  0  0  0  0  0  0  0  0  0  0  0
   40.8823   -7.5733   19.6029 C   0  0  0  0  0  0  0  0  0  0  0  0
   41.6682   -7.8117   18.4794 C   0  0  0  0  0  0  0  0  0  0  0  0
   41.0565   -8.3111   17.3528 C   0  0  0  0  0  0  0  0  0  0  0  0
   39.6979   -8.6315   17.3097 C   0  0  0  0  0  0  0  0  0  0  0  0
   38.9042   -8.3892   18.4014 C   0  0  0  0  0  0  0  0  0  0  0  0
   39.4975   -7.8506   19.5416 C   0  0  0  0  0  0  0  0  0  0  0  0
   40.6294   -7.5015   21.9864 C   0  0  0  0  0  0  0  0  0  0  0  0
   40.3670   -8.8569   22.1890 C   0  0  0  0  0  0  0  0  0  0  0  0
   39.6055   -9.2821   23.2683 C   0  0  0  0  0  0  0  0  0  0  0  0
   39.0779   -8.3773   24.1646 C   0  0  0  0  0  0  0  0  0  0  0  0
   39.3019   -7.0340   23.9706 C   0  0  0  0  0  0  0  0  0  0  0  0
   40.0870   -6.6051   22.9080 C   0  0  0  0  0  0  0  0  0  0  0  0
   42.9592   -7.2523   21.0132 C   0  0  0  0  0  0  0  0  0  0  0  0
   43.4665   -8.3423   21.7531 C   0  0  0  0  0  0  0  0  0  0  0  0
   44.8338   -8.4924   21.9501 C   0  0  0  0  0  0  0  0  0  0  0  0
   45.7106   -7.5116   21.4644 C   0  0  0  0  0  0  0  0  0  0  0  0
   45.2346   -6.4454   20.7364 C   0  0  0  0  0  0  0  0  0  0  0  0
   43.8582   -6.3185   20.5311 C   0  0  0  0  0  0  0  0  0  0  0  0
   47.0421   -7.5780   21.6111 O   0  0  0  0  0  0  0  0  0  0  0  0
   47.7137   -8.5941   22.3175 C   0  0  0  0  0  0  0  0  0  0  0  0
   41.5635   -5.1846   20.7391 S   0  0  0  0  0  0  0  0  0  0  0  0
   40.1621   -4.6190   19.7730 C   0  0  0  0  0  0  0  0  0  0  0  0
   39.0243   -3.9800   20.5530 C   0  0  0  0  0  0  0  0  0  0  0  0
   38.1292   -3.3240   19.5892 N   0  0  0  0  0  0  0  0  0  0  0  0
   38.6446   -2.6052   19.0812 H   0  0  0  0  0  0  0  0  0  0  0  0
   37.3491   -2.8951   20.0871 H   0  0  0  0  0  0  0  0  0  0  0  0
   40.0825   -1.9129   21.2273 O   0  0  0  0  0  0  0  0  0  0  0  0
   39.5302   -2.9392   21.5688 C   0  0  0  0  0  0  0  0  0  0  0  0
   39.4239   -3.1065   22.8857 O   0  0  0  0  0  0  0  0  0  0  0  0
   40.1959   -1.7225   20.3168 H   0  0  0  0  0  0  0  0  0  0  0  0
  5  4  2  0  0  0
  5  6  1  0  0  0
  4  3  1  0  0  0
  6  7  2  0  0  0
  3  2  2  0  0  0
  7  2  1  0  0  0
  2  1  1  0  0  0
 19 18  2  0  0  0
 19 14  1  0  0  0
 18 17  1  0  0  0
 13 12  2  0  0  0
 13  8  1  0  0  0
  1 14  1  0  0  0
  1  8  1  0  0  0
  1 22  1  0  0  0
 14 15  2  0  0  0
 12 11  1  0  0  0
  8  9  2  0  0  0
 17 20  1  0  0  0
 17 16  2  0  0  0
 20 21  1  0  0  0
 15 16  1  0  0  0
 11 10  2  0  0  0
 22 23  1  0  0  0
  9 10  1  0  0  0
 23 24  1  0  0  0
 25 24  1  0  0  0
 24 29  1  0  0  0
 29 30  2  0  0  0
 29 28  1  0  0  0
 28 31  1  0  0  0
 25 26  1  0  0  0
 25 27  1  0  0  0
M  END
> <minimizedAffinity>
-8.33271

$$$$
5ZO8_4C5_A_602


 31 33  0  0  0  0  0  0  0  0999 V2000
   40.1404   -6.5704   20.9075 C   0  0  0  0  0  0  0  0  0  0  0  0
   41.6160   -6.5696   20.6980 C   0  0  0  0  0  0  0  0  0  0  0  0
   42.2585   -5.4188   20.2512 C   0  0  0  0  0  0  0  0  0  0  0  0
   43.6164   -5.4744   20.0371 C   0  0  0  0  0  0  0  0  0  0  0  0
   44.3759   -6.6174   20.2958 C   0  0  0  0  0  0  0  0  0  0  0  0
   43.7588   -7.7656   20.7214 C   0  0  0  0  0  0  0  0  0  0  0  0
   42.3783   -7.7409   20.9110 C   0  0  0  0  0  0  0  0  0  0  0  0
   39.9354   -7.0652   22.3351 C   0  0  0  0  0  0  0  0  0  0  0  0
   38.7726   -7.7202   22.7423 C   0  0  0  0  0  0  0  0  0  0  0  0
   38.6352   -8.1870   24.0419 C   0  0  0  0  0  0  0  0  0  0  0  0
   39.6386   -8.0076   24.9699 C   0  0  0  0  0  0  0  0  0  0  0  0
   40.7837   -7.3420   24.5982 C   0  0  0  0  0  0  0  0  0  0  0  0
   40.9378   -6.8978   23.2911 C   0  0  0  0  0  0  0  0  0  0  0  0
   39.4414   -5.2783   20.6029 C   0  0  0  0  0  0  0  0  0  0  0  0
   38.6790   -5.0725   19.4327 C   0  0  0  0  0  0  0  0  0  0  0  0
   38.1128   -3.8326   19.1627 C   0  0  0  0  0  0  0  0  0  0  0  0
   38.3604   -2.7594   20.0307 C   0  0  0  0  0  0  0  0  0  0  0  0
   39.0964   -2.9428   21.1787 C   0  0  0  0  0  0  0  0  0  0  0  0
   39.6437   -4.2006   21.4456 C   0  0  0  0  0  0  0  0  0  0  0  0
   37.8542   -1.5314   19.8447 O   0  0  0  0  0  0  0  0  0  0  0  0
   37.6703   -0.5844   20.8703 C   0  0  0  0  0  0  0  0  0  0  0  0
   39.3069   -7.6036   19.6683 S   0  0  0  0  0  0  0  0  0  0  0  0
   39.9706   -7.1876   18.0548 C   0  0  0  0  0  0  0  0  0  0  0  0
   39.8563   -8.2623   16.9855 C   0  0  0  0  0  0  0  0  0  0  0  0
   40.3940   -9.5118   17.5422 N   0  0  0  0  0  0  0  0  0  0  0  0
   41.3737   -9.3785   17.7929 H   0  0  0  0  0  0  0  0  0  0  0  0
   40.3191  -10.2540   16.8466 H   0  0  0  0  0  0  0  0  0  0  0  0
   40.5651   -8.5562   14.6923 O   0  0  0  0  0  0  0  0  0  0  0  0
   40.6360   -7.8959   15.7092 C   0  0  0  0  0  0  0  0  0  0  0  0
   41.4605   -6.8522   15.6429 O   0  0  0  0  0  0  0  0  0  0  0  0
   40.0060   -9.3074   14.6595 H   0  0  0  0  0  0  0  0  0  0  0  0
  5  4  2  0  0  0
  5  6  1  0  0  0
  4  3  1  0  0  0
  6  7  2  0  0  0
  3  2  2  0  0  0
  7  2  1  0  0  0
  2  1  1  0  0  0
 19 18  2  0  0  0
 19 14  1  0  0  0
 18 17  1  0  0  0
 13 12  2  0  0  0
 13  8  1  0  0  0
  1 14  1  0  0  0
  1  8  1  0  0  0
  1 22  1  0  0  0
 14 15  2  0  0  0
 12 11  1  0  0  0
  8  9  2  0  0  0
 17 20  1  0  0  0
 17 16  2  0  0  0
 20 21  1  0  0  0
 15 16  1  0  0  0
 11 10  2  0  0  0
 22 23  1  0  0  0
  9 10  1  0  0  0
 23 24  1  0  0  0
 25 24  1  0  0  0
 24 29  1  0  0  0
 29 30  2  0  0  0
 29 28  1  0  0  0
 28 31  1  0  0  0
 25 26  1  0  0  0
 25 27  1  0  0  0
M  END
> <minimizedAffinity>
-8.26315

$$$$
5ZO8_4C5_A_602


 31 33  0  0  0  0  0  0  0  0999 V2000
   41.0704   -7.0758   21.1458 C   0  0  0  0  0  0  0  0  0  0  0  0
   42.5604   -7.0912   21.1776 C   0  0  0  0  0  0  0  0  0  0  0  0
   43.2806   -5.9764   20.7587 C   0  0  0  0  0  0  0  0  0  0  0  0
   44.6544   -6.0484   20.7711 C   0  0  0  0  0  0  0  0  0  0  0  0
   45.3482   -7.1699   21.2304 C   0  0  0  0  0  0  0  0  0  0  0  0
   44.6565   -8.2835   21.6324 C   0  0  0  0  0  0  0  0  0  0  0  0
   43.2639   -8.2443   21.5945 C   0  0  0  0  0  0  0  0  0  0  0  0
   40.6913   -7.5525   19.7479 C   0  0  0  0  0  0  0  0  0  0  0  0
   39.4181   -8.0324   19.4386 C   0  0  0  0  0  0  0  0  0  0  0  0
   39.0990   -8.4260   18.1467 C   0  0  0  0  0  0  0  0  0  0  0  0
   40.0334   -8.3641   17.1351 C   0  0  0  0  0  0  0  0  0  0  0  0
   41.3028   -7.9185   17.4220 C   0  0  0  0  0  0  0  0  0  0  0  0
   41.6190   -7.4968   18.7072 C   0  0  0  0  0  0  0  0  0  0  0  0
   40.3902   -7.8267   22.2522 C   0  0  0  0  0  0  0  0  0  0  0  0
   40.5891   -9.2051   22.4831 C   0  0  0  0  0  0  0  0  0  0  0  0
   39.8782   -9.8691   23.4754 C   0  0  0  0  0  0  0  0  0  0  0  0
   38.9052   -9.1733   24.2073 C   0  0  0  0  0  0  0  0  0  0  0  0
   38.7016   -7.8284   23.9997 C   0  0  0  0  0  0  0  0  0  0  0  0
   39.4377   -7.1708   23.0106 C   0  0  0  0  0  0  0  0  0  0  0  0
   38.1745   -9.7370   25.1806 O   0  0  0  0  0  0  0  0  0  0  0  0
   36.9738   -9.2009   25.6841 C   0  0  0  0  0  0  0  0  0  0  0  0
   40.4275   -5.4223   21.5337 S   0  0  0  0  0  0  0  0  0  0  0  0
   39.8966   -4.6546   20.0021 C   0  0  0  0  0  0  0  0  0  0  0  0
   38.6081   -3.8503   20.0668 C   0  0  0  0  0  0  0  0  0  0  0  0
   37.9882   -3.8834   18.7345 N   0  0  0  0  0  0  0  0  0  0  0  0
   38.6220   -3.4640   18.0541 H   0  0  0  0  0  0  0  0  0  0  0  0
   37.1138   -3.3585   18.7532 H   0  0  0  0  0  0  0  0  0  0  0  0
   39.9131   -2.0155   20.9487 O   0  0  0  0  0  0  0  0  0  0  0  0
   38.8576   -2.3872   20.4767 C   0  0  0  0  0  0  0  0  0  0  0  0
   37.9275   -1.4402   20.3700 O   0  0  0  0  0  0  0  0  0  0  0  0
   40.6180   -2.6233   21.0563 H   0  0  0  0  0  0  0  0  0  0  0  0
  5  4  2  0  0  0
  5  6  1  0  0  0
  4  3  1  0  0  0
  6  7  2  0  0  0
  3  2  2  0  0  0
  7  2  1  0  0  0
  2  1  1  0  0  0
 19 18  2  0  0  0
 19 14  1  0  0  0
 18 17  1  0  0  0
 13 12  2  0  0  0
 13  8  1  0  0  0
  1 14  1  0  0  0
  1  8  1  0  0  0
  1 22  1  0  0  0
 14 15  2  0  0  0
 12 11  1  0  0  0
  8  9  2  0  0  0
 17 20  1  0  0  0
 17 16  2  0  0  0
 20 21  1  0  0  0
 15 16  1  0  0  0
 11 10  2  0  0  0
 22 23  1  0  0  0
  9 10  1  0  0  0
 23 24  1  0  0  0
 25 24  1  0  0  0
 24 29  1  0  0  0
 29 30  2  0  0  0
 29 28  1  0  0  0
 28 31  1  0  0  0
 25 26  1  0  0  0
 25 27  1  0  0  0
M  END
> <minimizedAffinity>
-7.72919

$$$$
