3EKO_PYU_A_901


 19 20  0  0  0  0  0  0  0  0999 V2000
   14.6179   -1.4494   50.6973 C   0  0  0  0  0  0  0  0  0  0  0  0
   16.0067    0.7819   49.6125 C   0  0  0  0  0  0  0  0  0  0  0  0
   13.9839   -0.1781   50.6658 C   0  0  0  0  0  0  0  0  0  0  0  0
   15.9458   -1.6081   50.1893 C   0  0  0  0  0  0  0  0  0  0  0  0
   14.6855    0.9301   50.1226 C   0  0  0  0  0  0  0  0  0  0  0  0
   16.6294   -0.4924   49.6504 C   0  0  0  0  0  0  0  0  0  0  0  0
   14.0606    2.1427   50.1086 O   0  0  0  0  0  0  0  0  0  0  0  0
   17.8977   -0.5920   49.1525 O   0  0  0  0  0  0  0  0  0  0  0  0
   13.9538   -2.5271   51.2228 O   0  0  0  0  0  0  0  0  0  0  0  0
   14.4994    2.8919   49.7562 H   0  0  0  0  0  0  0  0  0  0  0  0
   18.3243    0.1651   48.8021 H   0  0  0  0  0  0  0  0  0  0  0  0
   14.3682   -3.3672   51.2454 H   0  0  0  0  0  0  0  0  0  0  0  0
   17.2042   -3.4780   51.3919 N   0  0  0  0  0  0  0  0  0  0  0  0
   17.8398   -4.7024   51.4765 C   0  0  0  0  0  0  0  0  0  0  0  0
   17.2600   -2.9002   52.6599 C   0  0  0  0  0  0  0  0  0  0  0  0
   18.2812   -4.8864   52.7667 C   0  0  0  0  0  0  0  0  0  0  0  0
   17.9156   -3.7504   53.5091 C   0  0  0  0  0  0  0  0  0  0  0  0
   16.6155   -2.9267   50.2257 C   0  0  0  0  0  0  0  0  0  0  0  0
   16.6707   -3.5791   49.1772 O   0  0  0  0  0  0  0  0  0  0  0  0
 18 13  1  0  0  0
 13 14  1  0  0  0
 13 15  1  0  0  0
  4  1  2  0  0  0
  3  1  1  0  0  0
  1  9  1  0  0  0
  2  6  2  0  0  0
  2  5  1  0  0  0
  5  3  2  0  0  0
 14 16  2  0  0  0
 15 17  2  0  0  0
 16 17  1  0  0  0
  6  4  1  0  0  0
  4 18  1  0  0  0
  7  5  1  0  0  0
  8  6  1  0  0  0
 19 18  2  0  0  0
  7 10  1  0  0  0
  8 11  1  0  0  0
  9 12  1  0  0  0
M  END
> <minimizedAffinity>
-7.43456

$$$$
3EKO_PYU_A_901


 19 20  0  0  0  0  0  0  0  0999 V2000
   16.6147   -0.4356   49.6602 C   0  0  0  0  0  0  0  0  0  0  0  0
   13.9654   -0.1924   50.6634 C   0  0  0  0  0  0  0  0  0  0  0  0
   15.9663    0.8283   49.6255 C   0  0  0  0  0  0  0  0  0  0  0  0
   15.9413   -1.5795   50.1937 C   0  0  0  0  0  0  0  0  0  0  0  0
   14.6433    0.9398   50.1283 C   0  0  0  0  0  0  0  0  0  0  0  0
   14.6230   -1.4493   50.6916 C   0  0  0  0  0  0  0  0  0  0  0  0
   14.0373    2.1610   50.0789 O   0  0  0  0  0  0  0  0  0  0  0  0
   13.9377   -2.5106   51.2116 O   0  0  0  0  0  0  0  0  0  0  0  0
   17.8904   -0.5586   49.1742 O   0  0  0  0  0  0  0  0  0  0  0  0
   13.1644    2.2643   50.4035 H   0  0  0  0  0  0  0  0  0  0  0  0
   13.0657   -2.3928   51.5336 H   0  0  0  0  0  0  0  0  0  0  0  0
   18.3216   -1.3902   49.1952 H   0  0  0  0  0  0  0  0  0  0  0  0
   17.2013   -3.4533   51.3885 N   0  0  0  0  0  0  0  0  0  0  0  0
   17.8332   -4.6798   51.4693 C   0  0  0  0  0  0  0  0  0  0  0  0
   17.2677   -2.8752   52.6559 C   0  0  0  0  0  0  0  0  0  0  0  0
   18.2827   -4.8649   52.7565 C   0  0  0  0  0  0  0  0  0  0  0  0
   17.9261   -3.7274   53.5009 C   0  0  0  0  0  0  0  0  0  0  0  0
   16.6066   -2.9003   50.2261 C   0  0  0  0  0  0  0  0  0  0  0  0
   16.6525   -3.5533   49.1775 O   0  0  0  0  0  0  0  0  0  0  0  0
 18 13  1  0  0  0
 13 14  1  0  0  0
 13 15  1  0  0  0
  4  1  2  0  0  0
  3  1  1  0  0  0
  1  9  1  0  0  0
  2  6  2  0  0  0
  2  5  1  0  0  0
  5  3  2  0  0  0
 14 16  2  0  0  0
 15 17  2  0  0  0
 16 17  1  0  0  0
  6  4  1  0  0  0
  4 18  1  0  0  0
  7  5  1  0  0  0
  8  6  1  0  0  0
 19 18  2  0  0  0
  7 10  1  0  0  0
  8 11  1  0  0  0
  9 12  1  0  0  0
M  END
> <minimizedAffinity>
-7.42451

$$$$
3EKO_PYU_A_901


 19 20  0  0  0  0  0  0  0  0999 V2000
   17.1940   -2.5033   52.4247 C   0  0  0  0  0  0  0  0  0  0  0  0
   17.6169   -4.9570   51.0519 C   0  0  0  0  0  0  0  0  0  0  0  0
   17.5160   -3.6729   53.1645 C   0  0  0  0  0  0  0  0  0  0  0  0
   17.0810   -2.5573   50.9996 C   0  0  0  0  0  0  0  0  0  0  0  0
   17.7249   -4.8935   52.4703 C   0  0  0  0  0  0  0  0  0  0  0  0
   17.2938   -3.7825   50.3243 C   0  0  0  0  0  0  0  0  0  0  0  0
   18.0263   -6.0055   53.2009 O   0  0  0  0  0  0  0  0  0  0  0  0
   17.1982   -3.8861   48.9654 O   0  0  0  0  0  0  0  0  0  0  0  0
   16.9855   -1.3190   53.0824 O   0  0  0  0  0  0  0  0  0  0  0  0
   18.1693   -6.8249   52.7695 H   0  0  0  0  0  0  0  0  0  0  0  0
   17.3448   -4.7116   48.5470 H   0  0  0  0  0  0  0  0  0  0  0  0
   16.7730   -0.5454   52.5983 H   0  0  0  0  0  0  0  0  0  0  0  0
   15.4115   -0.8847   50.0291 N   0  0  0  0  0  0  0  0  0  0  0  0
   15.0411    0.2382   49.3135 C   0  0  0  0  0  0  0  0  0  0  0  0
   14.2396   -1.4672   50.5107 C   0  0  0  0  0  0  0  0  0  0  0  0
   13.6707    0.3560   49.3482 C   0  0  0  0  0  0  0  0  0  0  0  0
   13.1688   -0.7191   50.1016 C   0  0  0  0  0  0  0  0  0  0  0  0
   16.7384   -1.3457   50.2230 C   0  0  0  0  0  0  0  0  0  0  0  0
   17.6621   -0.7054   49.7084 O   0  0  0  0  0  0  0  0  0  0  0  0
 18 13  1  0  0  0
 13 14  1  0  0  0
 13 15  1  0  0  0
  4  1  2  0  0  0
  3  1  1  0  0  0
  1  9  1  0  0  0
  2  6  2  0  0  0
  2  5  1  0  0  0
  5  3  2  0  0  0
 14 16  2  0  0  0
 15 17  2  0  0  0
 16 17  1  0  0  0
  6  4  1  0  0  0
  4 18  1  0  0  0
  7  5  1  0  0  0
  8  6  1  0  0  0
 19 18  2  0  0  0
  7 10  1  0  0  0
  8 11  1  0  0  0
  9 12  1  0  0  0
M  END
> <minimizedAffinity>
-7.39478

$$$$
3EKO_PYU_A_901


 19 20  0  0  0  0  0  0  0  0999 V2000
   17.2258   -3.7971   50.3255 C   0  0  0  0  0  0  0  0  0  0  0  0
   17.4652   -3.6779   53.1562 C   0  0  0  0  0  0  0  0  0  0  0  0
   17.4813   -4.9880   51.0572 C   0  0  0  0  0  0  0  0  0  0  0  0
   17.0913   -2.5455   51.0053 C   0  0  0  0  0  0  0  0  0  0  0  0
   17.5997   -4.9185   52.4702 C   0  0  0  0  0  0  0  0  0  0  0  0
   17.2111   -2.4954   52.4144 C   0  0  0  0  0  0  0  0  0  0  0  0
   17.8519   -6.0728   53.1521 O   0  0  0  0  0  0  0  0  0  0  0  0
   17.0902   -1.3258   53.1100 O   0  0  0  0  0  0  0  0  0  0  0  0
   17.1135   -3.8489   48.9605 O   0  0  0  0  0  0  0  0  0  0  0  0
   17.9350   -6.0572   54.0852 H   0  0  0  0  0  0  0  0  0  0  0  0
   17.1746   -1.3248   54.0432 H   0  0  0  0  0  0  0  0  0  0  0  0
   16.9450   -3.0659   48.4742 H   0  0  0  0  0  0  0  0  0  0  0  0
   15.5376   -0.7663   50.0321 N   0  0  0  0  0  0  0  0  0  0  0  0
   15.2454    0.3907   49.3349 C   0  0  0  0  0  0  0  0  0  0  0  0
   14.3243   -1.2983   50.4678 C   0  0  0  0  0  0  0  0  0  0  0  0
   13.8823    0.5786   49.3359 C   0  0  0  0  0  0  0  0  0  0  0  0
   13.3051   -0.4863   50.0488 C   0  0  0  0  0  0  0  0  0  0  0  0
   16.8331   -1.3000   50.2499 C   0  0  0  0  0  0  0  0  0  0  0  0
   17.8024   -0.6966   49.7762 O   0  0  0  0  0  0  0  0  0  0  0  0
 18 13  1  0  0  0
 13 14  1  0  0  0
 13 15  1  0  0  0
  4  1  2  0  0  0
  3  1  1  0  0  0
  1  9  1  0  0  0
  2  6  2  0  0  0
  2  5  1  0  0  0
  5  3  2  0  0  0
 14 16  2  0  0  0
 15 17  2  0  0  0
 16 17  1  0  0  0
  6  4  1  0  0  0
  4 18  1  0  0  0
  7  5  1  0  0  0
  8  6  1  0  0  0
 19 18  2  0  0  0
  7 10  1  0  0  0
  8 11  1  0  0  0
  9 12  1  0  0  0
M  END
> <minimizedAffinity>
-7.28117

$$$$
3EKO_PYU_A_901


 19 20  0  0  0  0  0  0  0  0999 V2000
   15.7135   -0.5087   50.2652 C   0  0  0  0  0  0  0  0  0  0  0  0
   13.0485   -1.4996   50.2575 C   0  0  0  0  0  0  0  0  0  0  0  0
   14.8114   -0.0835   49.2530 C   0  0  0  0  0  0  0  0  0  0  0  0
   15.2872   -1.4300   51.2733 C   0  0  0  0  0  0  0  0  0  0  0  0
   13.4830   -0.5841   49.2572 C   0  0  0  0  0  0  0  0  0  0  0  0
   13.9587   -1.9176   51.2624 C   0  0  0  0  0  0  0  0  0  0  0  0
   12.6358   -0.1679   48.2722 O   0  0  0  0  0  0  0  0  0  0  0  0
   13.5031   -2.7978   52.2026 O   0  0  0  0  0  0  0  0  0  0  0  0
   17.0003   -0.0368   50.2709 O   0  0  0  0  0  0  0  0  0  0  0  0
   11.7532   -0.4817   48.2498 H   0  0  0  0  0  0  0  0  0  0  0  0
   12.6177   -3.1027   52.1688 H   0  0  0  0  0  0  0  0  0  0  0  0
   17.5983   -0.3147   50.9366 H   0  0  0  0  0  0  0  0  0  0  0  0
   16.9460   -3.1015   52.2637 N   0  0  0  0  0  0  0  0  0  0  0  0
   17.8292   -3.5681   53.2190 C   0  0  0  0  0  0  0  0  0  0  0  0
   16.9052   -4.0533   51.2453 C   0  0  0  0  0  0  0  0  0  0  0  0
   18.3297   -4.7818   52.8072 C   0  0  0  0  0  0  0  0  0  0  0  0
   17.7460   -5.0851   51.5652 C   0  0  0  0  0  0  0  0  0  0  0  0
   16.2225   -1.8836   52.3258 C   0  0  0  0  0  0  0  0  0  0  0  0
   16.3742   -1.1621   53.3181 O   0  0  0  0  0  0  0  0  0  0  0  0
 18 13  1  0  0  0
 13 14  1  0  0  0
 13 15  1  0  0  0
  4  1  2  0  0  0
  3  1  1  0  0  0
  1  9  1  0  0  0
  2  6  2  0  0  0
  2  5  1  0  0  0
  5  3  2  0  0  0
 14 16  2  0  0  0
 15 17  2  0  0  0
 16 17  1  0  0  0
  6  4  1  0  0  0
  4 18  1  0  0  0
  7  5  1  0  0  0
  8  6  1  0  0  0
 19 18  2  0  0  0
  7 10  1  0  0  0
  8 11  1  0  0  0
  9 12  1  0  0  0
M  END
> <minimizedAffinity>
-6.37642

$$$$
3EKO_PYU_A_901


 19 20  0  0  0  0  0  0  0  0999 V2000
   13.9077   -1.9167   51.2190 C   0  0  0  0  0  0  0  0  0  0  0  0
   14.8246   -0.0679   49.2631 C   0  0  0  0  0  0  0  0  0  0  0  0
   13.0208   -1.4800   50.1983 C   0  0  0  0  0  0  0  0  0  0  0  0
   15.2521   -1.4300   51.2657 C   0  0  0  0  0  0  0  0  0  0  0  0
   13.4876   -0.5565   49.2264 C   0  0  0  0  0  0  0  0  0  0  0  0
   15.7005   -0.5106   50.2878 C   0  0  0  0  0  0  0  0  0  0  0  0
   12.6173   -0.1454   48.2596 O   0  0  0  0  0  0  0  0  0  0  0  0
   16.9743   -0.0171   50.2885 O   0  0  0  0  0  0  0  0  0  0  0  0
   13.4691   -2.8049   52.1663 O   0  0  0  0  0  0  0  0  0  0  0  0
   12.8977    0.4637   47.6051 H   0  0  0  0  0  0  0  0  0  0  0  0
   17.2417    0.5907   49.6273 H   0  0  0  0  0  0  0  0  0  0  0  0
   14.0507   -3.0954   52.8411 H   0  0  0  0  0  0  0  0  0  0  0  0
   16.9301   -3.0750   52.2682 N   0  0  0  0  0  0  0  0  0  0  0  0
   17.8068   -3.5320   53.2339 C   0  0  0  0  0  0  0  0  0  0  0  0
   16.9274   -4.0172   51.2401 C   0  0  0  0  0  0  0  0  0  0  0  0
   18.3408   -4.7303   52.8190 C   0  0  0  0  0  0  0  0  0  0  0  0
   17.7850   -5.0336   51.5642 C   0  0  0  0  0  0  0  0  0  0  0  0
   16.1792   -1.8738   52.3297 C   0  0  0  0  0  0  0  0  0  0  0  0
   16.2981   -1.1593   53.3315 O   0  0  0  0  0  0  0  0  0  0  0  0
 18 13  1  0  0  0
 13 14  1  0  0  0
 13 15  1  0  0  0
  4  1  2  0  0  0
  3  1  1  0  0  0
  1  9  1  0  0  0
  2  6  2  0  0  0
  2  5  1  0  0  0
  5  3  2  0  0  0
 14 16  2  0  0  0
 15 17  2  0  0  0
 16 17  1  0  0  0
  6  4  1  0  0  0
  4 18  1  0  0  0
  7  5  1  0  0  0
  8  6  1  0  0  0
 19 18  2  0  0  0
  7 10  1  0  0  0
  8 11  1  0  0  0
  9 12  1  0  0  0
M  END
> <minimizedAffinity>
-6.35602

$$$$
3EKO_PYU_A_901


 19 20  0  0  0  0  0  0  0  0999 V2000
   14.5990   -0.0003   50.7389 C   0  0  0  0  0  0  0  0  0  0  0  0
   17.2102   -0.5776   49.7730 C   0  0  0  0  0  0  0  0  0  0  0  0
   15.2139    0.8838   49.8118 C   0  0  0  0  0  0  0  0  0  0  0  0
   15.2871   -1.1721   51.1862 C   0  0  0  0  0  0  0  0  0  0  0  0
   16.5180    0.5873   49.3356 C   0  0  0  0  0  0  0  0  0  0  0  0
   16.5861   -1.4522   50.6998 C   0  0  0  0  0  0  0  0  0  0  0  0
   17.0920    1.4532   48.4513 O   0  0  0  0  0  0  0  0  0  0  0  0
   17.2843   -2.5578   51.0954 O   0  0  0  0  0  0  0  0  0  0  0  0
   13.3420    0.2759   51.2103 O   0  0  0  0  0  0  0  0  0  0  0  0
   17.9518    1.2831   48.1201 H   0  0  0  0  0  0  0  0  0  0  0  0
   18.1430   -2.7162   50.7554 H   0  0  0  0  0  0  0  0  0  0  0  0
   12.9330   -0.3045   51.8217 H   0  0  0  0  0  0  0  0  0  0  0  0
   14.9350   -2.0810   53.5477 N   0  0  0  0  0  0  0  0  0  0  0  0
   14.3738   -2.9189   54.4928 C   0  0  0  0  0  0  0  0  0  0  0  0
   15.8180   -1.2380   54.2218 C   0  0  0  0  0  0  0  0  0  0  0  0
   14.8923   -2.6064   55.7284 C   0  0  0  0  0  0  0  0  0  0  0  0
   15.8015   -1.5488   55.5548 C   0  0  0  0  0  0  0  0  0  0  0  0
   14.6570   -2.0932   52.1573 C   0  0  0  0  0  0  0  0  0  0  0  0
   13.8488   -2.9246   51.7287 O   0  0  0  0  0  0  0  0  0  0  0  0
 18 13  1  0  0  0
 13 14  1  0  0  0
 13 15  1  0  0  0
  4  1  2  0  0  0
  3  1  1  0  0  0
  1  9  1  0  0  0
  2  6  2  0  0  0
  2  5  1  0  0  0
  5  3  2  0  0  0
 14 16  2  0  0  0
 15 17  2  0  0  0
 16 17  1  0  0  0
  6  4  1  0  0  0
  4 18  1  0  0  0
  7  5  1  0  0  0
  8  6  1  0  0  0
 19 18  2  0  0  0
  7 10  1  0  0  0
  8 11  1  0  0  0
  9 12  1  0  0  0
M  END
> <minimizedAffinity>
-6.22534

$$$$
3EKO_PYU_A_901


 19 20  0  0  0  0  0  0  0  0999 V2000
   16.6010   -1.3527   50.6422 C   0  0  0  0  0  0  0  0  0  0  0  0
   15.1192    0.9293   49.8170 C   0  0  0  0  0  0  0  0  0  0  0  0
   17.1675   -0.4539   49.6986 C   0  0  0  0  0  0  0  0  0  0  0  0
   15.2942   -1.1148   51.1734 C   0  0  0  0  0  0  0  0  0  0  0  0
   16.4198    0.6825   49.2924 C   0  0  0  0  0  0  0  0  0  0  0  0
   14.5639    0.0239   50.7578 C   0  0  0  0  0  0  0  0  0  0  0  0
   16.9800    1.5285   48.3804 O   0  0  0  0  0  0  0  0  0  0  0  0
   13.3133    0.2958   51.2357 O   0  0  0  0  0  0  0  0  0  0  0  0
   17.3100   -2.4562   51.0401 O   0  0  0  0  0  0  0  0  0  0  0  0
   16.5097    2.2866   48.0939 H   0  0  0  0  0  0  0  0  0  0  0  0
   12.8548    1.0580   50.9413 H   0  0  0  0  0  0  0  0  0  0  0  0
   16.9401   -3.0514   51.6621 H   0  0  0  0  0  0  0  0  0  0  0  0
   15.0243   -2.0657   53.5291 N   0  0  0  0  0  0  0  0  0  0  0  0
   14.4930   -2.9177   54.4789 C   0  0  0  0  0  0  0  0  0  0  0  0
   15.9376   -1.2411   54.1852 C   0  0  0  0  0  0  0  0  0  0  0  0
   15.0594   -2.6318   55.6998 C   0  0  0  0  0  0  0  0  0  0  0  0
   15.9688   -1.5767   55.5118 C   0  0  0  0  0  0  0  0  0  0  0  0
   14.6944   -2.0500   52.1501 C   0  0  0  0  0  0  0  0  0  0  0  0
   13.8651   -2.8683   51.7368 O   0  0  0  0  0  0  0  0  0  0  0  0
 18 13  1  0  0  0
 13 14  1  0  0  0
 13 15  1  0  0  0
  4  1  2  0  0  0
  3  1  1  0  0  0
  1  9  1  0  0  0
  2  6  2  0  0  0
  2  5  1  0  0  0
  5  3  2  0  0  0
 14 16  2  0  0  0
 15 17  2  0  0  0
 16 17  1  0  0  0
  6  4  1  0  0  0
  4 18  1  0  0  0
  7  5  1  0  0  0
  8  6  1  0  0  0
 19 18  2  0  0  0
  7 10  1  0  0  0
  8 11  1  0  0  0
  9 12  1  0  0  0
M  END
> <minimizedAffinity>
-6.21911

$$$$
3EKO_PYU_A_901


 19 20  0  0  0  0  0  0  0  0999 V2000
   15.5258   -1.1597   53.9279 C   0  0  0  0  0  0  0  0  0  0  0  0
   12.6833   -1.1399   53.8646 C   0  0  0  0  0  0  0  0  0  0  0  0
   14.7993   -1.0499   55.1441 C   0  0  0  0  0  0  0  0  0  0  0  0
   14.8349   -1.2578   52.6791 C   0  0  0  0  0  0  0  0  0  0  0  0
   13.3803   -1.0405   55.1024 C   0  0  0  0  0  0  0  0  0  0  0  0
   13.4200   -1.2480   52.6568 C   0  0  0  0  0  0  0  0  0  0  0  0
   12.7029   -0.9275   56.2812 O   0  0  0  0  0  0  0  0  0  0  0  0
   12.7138   -1.3397   51.4909 O   0  0  0  0  0  0  0  0  0  0  0  0
   16.8962   -1.1657   53.9530 O   0  0  0  0  0  0  0  0  0  0  0  0
   11.7660   -0.9185   56.2841 H   0  0  0  0  0  0  0  0  0  0  0  0
   11.7770   -1.3306   51.5086 H   0  0  0  0  0  0  0  0  0  0  0  0
   17.3791   -1.2379   53.1533 H   0  0  0  0  0  0  0  0  0  0  0  0
   16.2592   -2.5388   50.9888 N   0  0  0  0  0  0  0  0  0  0  0  0
   16.9710   -2.6876   49.8136 C   0  0  0  0  0  0  0  0  0  0  0  0
   16.3393   -3.7522   51.6715 C   0  0  0  0  0  0  0  0  0  0  0  0
   17.4827   -3.9638   49.7617 C   0  0  0  0  0  0  0  0  0  0  0  0
   17.0843   -4.6313   50.9326 C   0  0  0  0  0  0  0  0  0  0  0  0
   15.5842   -1.3644   51.4080 C   0  0  0  0  0  0  0  0  0  0  0  0
   15.6295   -0.3696   50.6755 O   0  0  0  0  0  0  0  0  0  0  0  0
 18 13  1  0  0  0
 13 14  1  0  0  0
 13 15  1  0  0  0
  4  1  2  0  0  0
  3  1  1  0  0  0
  1  9  1  0  0  0
  2  6  2  0  0  0
  2  5  1  0  0  0
  5  3  2  0  0  0
 14 16  2  0  0  0
 15 17  2  0  0  0
 16 17  1  0  0  0
  6  4  1  0  0  0
  4 18  1  0  0  0
  7  5  1  0  0  0
  8  6  1  0  0  0
 19 18  2  0  0  0
  7 10  1  0  0  0
  8 11  1  0  0  0
  9 12  1  0  0  0
M  END
> <minimizedAffinity>
-6.16885

$$$$
3EKO_PYU_A_901


 19 20  0  0  0  0  0  0  0  0999 V2000
   13.4156   -1.2469   52.5372 C   0  0  0  0  0  0  0  0  0  0  0  0
   14.7363   -1.0833   55.0498 C   0  0  0  0  0  0  0  0  0  0  0  0
   12.6458   -1.1557   53.7281 C   0  0  0  0  0  0  0  0  0  0  0  0
   14.8448   -1.2584   52.5991 C   0  0  0  0  0  0  0  0  0  0  0  0
   13.3142   -1.0749   54.9779 C   0  0  0  0  0  0  0  0  0  0  0  0
   15.4940   -1.1758   53.8538 C   0  0  0  0  0  0  0  0  0  0  0  0
   12.5556   -0.9949   56.1090 O   0  0  0  0  0  0  0  0  0  0  0  0
   16.8555   -1.1823   53.9661 O   0  0  0  0  0  0  0  0  0  0  0  0
   12.7834   -1.3299   51.3239 O   0  0  0  0  0  0  0  0  0  0  0  0
   12.9695   -0.9405   56.9478 H   0  0  0  0  0  0  0  0  0  0  0  0
   17.2562   -1.1263   54.8112 H   0  0  0  0  0  0  0  0  0  0  0  0
   13.2873   -1.3901   50.5363 H   0  0  0  0  0  0  0  0  0  0  0  0
   16.3152   -2.5459   50.9538 N   0  0  0  0  0  0  0  0  0  0  0  0
   17.0803   -2.6916   49.8120 C   0  0  0  0  0  0  0  0  0  0  0  0
   16.3275   -3.7745   51.6134 C   0  0  0  0  0  0  0  0  0  0  0  0
   17.5582   -3.9807   49.7581 C   0  0  0  0  0  0  0  0  0  0  0  0
   17.0835   -4.6598   50.8934 C   0  0  0  0  0  0  0  0  0  0  0  0
   15.6532   -1.3611   51.3644 C   0  0  0  0  0  0  0  0  0  0  0  0
   15.7626   -0.3536   50.6565 O   0  0  0  0  0  0  0  0  0  0  0  0
 18 13  1  0  0  0
 13 14  1  0  0  0
 13 15  1  0  0  0
  4  1  2  0  0  0
  3  1  1  0  0  0
  1  9  1  0  0  0
  2  6  2  0  0  0
  2  5  1  0  0  0
  5  3  2  0  0  0
 14 16  2  0  0  0
 15 17  2  0  0  0
 16 17  1  0  0  0
  6  4  1  0  0  0
  4 18  1  0  0  0
  7  5  1  0  0  0
  8  6  1  0  0  0
 19 18  2  0  0  0
  7 10  1  0  0  0
  8 11  1  0  0  0
  9 12  1  0  0  0
M  END
> <minimizedAffinity>
-6.14647

$$$$
