3D2E_ATP_A_1001


 39 41  0  0  0  0  0  0  0  0999 V2000
   87.5579   81.8751  178.8603 C   0  0  0  0  0  0  0  0  0  0  0  0
   86.4572   82.3479  178.0574 O   0  0  0  0  0  0  0  0  0  0  0  0
   88.7914   82.6603  178.4483 C   0  0  0  0  0  0  0  0  0  0  0  0
   89.5224   81.8796  177.5087 O   0  0  0  0  0  0  0  0  0  0  0  0
   88.2080   83.8578  177.7292 C   0  0  0  0  0  0  0  0  0  0  0  0
   89.0738   84.3277  176.7286 O   0  0  0  0  0  0  0  0  0  0  0  0
   86.9723   83.2825  177.0833 C   0  0  0  0  0  0  0  0  0  0  0  0
   88.9443   81.6413  176.7672 H   0  0  0  0  0  0  0  0  0  0  0  0
   89.2675   83.6100  176.1054 H   0  0  0  0  0  0  0  0  0  0  0  0
   86.0233   84.3604  176.7517 N   0  0  0  0  0  0  0  0  0  0  0  0
   85.4382   85.1759  177.6475 C   0  0  0  0  0  0  0  0  0  0  0  0
   84.6187   86.0537  177.0385 N   0  0  0  0  0  0  0  0  0  0  0  0
   84.6832   85.8093  175.7110 C   0  0  0  0  0  0  0  0  0  0  0  0
   84.0527   86.3804  174.4894 C   0  0  0  0  0  0  0  0  0  0  0  0
   83.1811   87.4096  174.5854 N   0  0  0  0  0  0  0  0  0  0  0  0
   84.3863   85.8305  173.2960 N   0  0  0  0  0  0  0  0  0  0  0  0
   85.2596   84.7860  173.1983 C   0  0  0  0  0  0  0  0  0  0  0  0
   85.8504   84.2102  174.2648 N   0  0  0  0  0  0  0  0  0  0  0  0
   85.6097   84.6759  175.5241 C   0  0  0  0  0  0  0  0  0  0  0  0
   82.9598   87.7866  175.4675 H   0  0  0  0  0  0  0  0  0  0  0  0
   82.7678   87.7820  173.7732 H   0  0  0  0  0  0  0  0  0  0  0  0
   87.1881   82.0979  180.3121 C   0  0  0  0  0  0  0  0  0  0  0  0
   85.9101   81.4831  180.4210 O   0  0  0  0  0  0  0  0  0  0  0  0
   85.5555   80.3908  181.5254 P   0  0  0  0  0  0  0  0  0  0  0  0
   85.4534   81.0614  182.8601 O   0  0  0  0  0  0  0  0  0  0  0  0
   84.3467   79.6723  180.9238 O   0  0  0  0  0  0  0  0  0  0  0  0
   84.0494   78.9763  181.5305 H   0  0  0  0  0  0  0  0  0  0  0  0
   86.8202   79.4072  181.5197 O   0  0  0  0  0  0  0  0  0  0  0  0
   87.3830   78.4028  182.6530 P   0  0  0  0  0  0  0  0  0  0  0  0
   88.8486   78.5441  182.8175 O   0  0  0  0  0  0  0  0  0  0  0  0
   86.5250   78.4174  183.9005 O   0  0  0  0  0  0  0  0  0  0  0  0
   86.8947   77.8037  184.5544 H   0  0  0  0  0  0  0  0  0  0  0  0
   87.1567   77.0154  181.7968 O   0  0  0  0  0  0  0  0  0  0  0  0
   87.8691   75.5461  181.9677 P   0  0  0  0  0  0  0  0  0  0  0  0
   86.8009   74.6773  182.5757 O   0  0  0  0  0  0  0  0  0  0  0  0
   88.9546   75.7385  182.9696 O   0  0  0  0  0  0  0  0  0  0  0  0
   88.3506   75.2069  180.5881 O   0  0  0  0  0  0  0  0  0  0  0  0
   89.4151   74.8969  183.1130 H   0  0  0  0  0  0  0  0  0  0  0  0
   88.7894   74.3419  180.6023 H   0  0  0  0  0  0  0  0  0  0  0  0
 34 35  2  0  0  0
 34 36  1  0  0  0
 34 37  1  0  0  0
 34 33  1  0  0  0
 29 30  2  0  0  0
 29 31  1  0  0  0
 29 33  1  0  0  0
 29 28  1  0  0  0
 24 25  2  0  0  0
 24 26  1  0  0  0
 24 28  1  0  0  0
 24 23  1  0  0  0
 23 22  1  0  0  0
 22  1  1  0  0  0
  1  2  1  0  0  0
  1  3  1  0  0  0
  2  7  1  0  0  0
  3  4  1  0  0  0
  3  5  1  0  0  0
  5  6  1  0  0  0
  5  7  1  0  0  0
  7 10  1  0  0  0
 10 11  1  0  0  0
 10 19  1  0  0  0
 11 12  2  0  0  0
 12 13  1  0  0  0
 13 14  1  0  0  0
 13 19  2  0  0  0
 14 15  1  0  0  0
 14 16  2  0  0  0
 16 17  1  0  0  0
 17 18  2  0  0  0
 18 19  1  0  0  0
 36 38  1  0  0  0
 37 39  1  0  0  0
 31 32  1  0  0  0
 26 27  1  0  0  0
  4  8  1  0  0  0
  6  9  1  0  0  0
 15 20  1  0  0  0
 15 21  1  0  0  0
M  END
> <minimizedAffinity>
-12.22869

$$$$
3D2E_ATP_A_1001


 39 41  0  0  0  0  0  0  0  0999 V2000
   87.4773   81.5893  178.6062 C   0  0  0  0  0  0  0  0  0  0  0  0
   86.4196   82.1418  177.7966 O   0  0  0  0  0  0  0  0  0  0  0  0
   88.7335   82.3962  178.3256 C   0  0  0  0  0  0  0  0  0  0  0  0
   89.5053   81.6949  177.3565 O   0  0  0  0  0  0  0  0  0  0  0  0
   88.1921   83.6581  177.6886 C   0  0  0  0  0  0  0  0  0  0  0  0
   89.1080   84.2067  176.7766 O   0  0  0  0  0  0  0  0  0  0  0  0
   86.9863   83.1541  176.9353 C   0  0  0  0  0  0  0  0  0  0  0  0
   88.9629   81.5287  176.5697 H   0  0  0  0  0  0  0  0  0  0  0  0
   89.3282   83.5452  176.1021 H   0  0  0  0  0  0  0  0  0  0  0  0
   86.0603   84.2661  176.6557 N   0  0  0  0  0  0  0  0  0  0  0  0
   85.5145   85.0687  177.5874 C   0  0  0  0  0  0  0  0  0  0  0  0
   84.7071   85.9859  177.0218 N   0  0  0  0  0  0  0  0  0  0  0  0
   84.7394   85.7808  175.6865 C   0  0  0  0  0  0  0  0  0  0  0  0
   84.1008   86.4054  174.4958 C   0  0  0  0  0  0  0  0  0  0  0  0
   83.2590   87.4537  174.6404 N   0  0  0  0  0  0  0  0  0  0  0  0
   84.3965   85.8841  173.2797 N   0  0  0  0  0  0  0  0  0  0  0  0
   85.2396   84.8206  173.1329 C   0  0  0  0  0  0  0  0  0  0  0  0
   85.8353   84.1971  174.1694 N   0  0  0  0  0  0  0  0  0  0  0  0
   85.6315   84.6299  175.4468 C   0  0  0  0  0  0  0  0  0  0  0  0
   83.0650   87.8090  175.5378 H   0  0  0  0  0  0  0  0  0  0  0  0
   82.8402   87.8615  173.8483 H   0  0  0  0  0  0  0  0  0  0  0  0
   87.0383   81.6861  180.0526 C   0  0  0  0  0  0  0  0  0  0  0  0
   86.4453   80.4168  180.2988 O   0  0  0  0  0  0  0  0  0  0  0  0
   86.2278   79.8211  181.7604 P   0  0  0  0  0  0  0  0  0  0  0  0
   86.7523   78.4193  181.7993 O   0  0  0  0  0  0  0  0  0  0  0  0
   86.8275   80.8991  182.6646 O   0  0  0  0  0  0  0  0  0  0  0  0
   86.7432   80.6269  183.5918 H   0  0  0  0  0  0  0  0  0  0  0  0
   84.6357   79.7983  181.9381 O   0  0  0  0  0  0  0  0  0  0  0  0
   83.6193   80.9190  182.5045 P   0  0  0  0  0  0  0  0  0  0  0  0
   83.9832   81.3291  183.8809 O   0  0  0  0  0  0  0  0  0  0  0  0
   83.3525   82.0086  181.4874 O   0  0  0  0  0  0  0  0  0  0  0  0
   82.7400   82.6596  181.8642 H   0  0  0  0  0  0  0  0  0  0  0  0
   82.3174   79.9240  182.6594 O   0  0  0  0  0  0  0  0  0  0  0  0
   82.1137   78.5985  183.6065 P   0  0  0  0  0  0  0  0  0  0  0  0
   81.3160   77.6463  182.7563 O   0  0  0  0  0  0  0  0  0  0  0  0
   81.2655   79.0443  184.7470 O   0  0  0  0  0  0  0  0  0  0  0  0
   83.5086   78.2003  183.9886 O   0  0  0  0  0  0  0  0  0  0  0  0
   81.1099   78.2971  185.3456 H   0  0  0  0  0  0  0  0  0  0  0  0
   83.4764   77.4143  184.5562 H   0  0  0  0  0  0  0  0  0  0  0  0
 34 35  2  0  0  0
 34 36  1  0  0  0
 34 37  1  0  0  0
 34 33  1  0  0  0
 29 30  2  0  0  0
 29 31  1  0  0  0
 29 33  1  0  0  0
 29 28  1  0  0  0
 24 25  2  0  0  0
 24 26  1  0  0  0
 24 28  1  0  0  0
 24 23  1  0  0  0
 23 22  1  0  0  0
 22  1  1  0  0  0
  1  2  1  0  0  0
  1  3  1  0  0  0
  2  7  1  0  0  0
  3  4  1  0  0  0
  3  5  1  0  0  0
  5  6  1  0  0  0
  5  7  1  0  0  0
  7 10  1  0  0  0
 10 11  1  0  0  0
 10 19  1  0  0  0
 11 12  2  0  0  0
 12 13  1  0  0  0
 13 14  1  0  0  0
 13 19  2  0  0  0
 14 15  1  0  0  0
 14 16  2  0  0  0
 16 17  1  0  0  0
 17 18  2  0  0  0
 18 19  1  0  0  0
 36 38  1  0  0  0
 37 39  1  0  0  0
 31 32  1  0  0  0
 26 27  1  0  0  0
  4  8  1  0  0  0
  6  9  1  0  0  0
 15 20  1  0  0  0
 15 21  1  0  0  0
M  END
> <minimizedAffinity>
-11.63026

$$$$
3D2E_ATP_A_1001


 39 41  0  0  0  0  0  0  0  0999 V2000
   87.1894   82.1707  179.0344 C   0  0  0  0  0  0  0  0  0  0  0  0
   86.1315   82.6218  178.1645 O   0  0  0  0  0  0  0  0  0  0  0  0
   88.4628   82.8807  178.6078 C   0  0  0  0  0  0  0  0  0  0  0  0
   89.1923   82.0091  177.7507 O   0  0  0  0  0  0  0  0  0  0  0  0
   87.9458   84.0423  177.7864 C   0  0  0  0  0  0  0  0  0  0  0  0
   88.8579   84.4082  176.7835 O   0  0  0  0  0  0  0  0  0  0  0  0
   86.7096   83.4649  177.1433 C   0  0  0  0  0  0  0  0  0  0  0  0
   88.6283   81.7377  177.0096 H   0  0  0  0  0  0  0  0  0  0  0  0
   89.0437   83.6409  176.2199 H   0  0  0  0  0  0  0  0  0  0  0  0
   85.8115   84.5481  176.7049 N   0  0  0  0  0  0  0  0  0  0  0  0
   85.2185   85.4372  177.5221 C   0  0  0  0  0  0  0  0  0  0  0  0
   84.4540   86.2990  176.8251 N   0  0  0  0  0  0  0  0  0  0  0  0
   84.5636   85.9679  175.5195 C   0  0  0  0  0  0  0  0  0  0  0  0
   84.0021   86.4786  174.2389 C   0  0  0  0  0  0  0  0  0  0  0  0
   83.1624   87.5384  174.2332 N   0  0  0  0  0  0  0  0  0  0  0  0
   84.3648   85.8433  173.0976 N   0  0  0  0  0  0  0  0  0  0  0  0
   85.2058   84.7682  173.1027 C   0  0  0  0  0  0  0  0  0  0  0  0
   85.7336   84.2440  174.2273 N   0  0  0  0  0  0  0  0  0  0  0  0
   85.4583   84.7968  175.4435 C   0  0  0  0  0  0  0  0  0  0  0  0
   82.9186   87.9779  175.0797 H   0  0  0  0  0  0  0  0  0  0  0  0
   82.7948   87.8705  173.3824 H   0  0  0  0  0  0  0  0  0  0  0  0
   86.7847   82.5109  180.4538 C   0  0  0  0  0  0  0  0  0  0  0  0
   85.4512   82.0232  180.5383 O   0  0  0  0  0  0  0  0  0  0  0  0
   84.5892   82.0595  181.8777 P   0  0  0  0  0  0  0  0  0  0  0  0
   84.6297   83.4437  182.4470 O   0  0  0  0  0  0  0  0  0  0  0  0
   83.2601   81.4357  181.4492 O   0  0  0  0  0  0  0  0  0  0  0  0
   82.6550   81.4115  182.2070 H   0  0  0  0  0  0  0  0  0  0  0  0
   85.3583   81.0568  182.8625 O   0  0  0  0  0  0  0  0  0  0  0  0
   84.8369   79.7535  183.6623 P   0  0  0  0  0  0  0  0  0  0  0  0
   85.0879   79.8788  185.1170 O   0  0  0  0  0  0  0  0  0  0  0  0
   83.4535   79.3299  183.2155 O   0  0  0  0  0  0  0  0  0  0  0  0
   83.1772   78.5472  183.7174 H   0  0  0  0  0  0  0  0  0  0  0  0
   85.9837   78.7188  183.0938 O   0  0  0  0  0  0  0  0  0  0  0  0
   87.5624   78.9926  182.7355 P   0  0  0  0  0  0  0  0  0  0  0  0
   88.2144   77.6405  182.8462 O   0  0  0  0  0  0  0  0  0  0  0  0
   88.0791   79.8620  183.8292 O   0  0  0  0  0  0  0  0  0  0  0  0
   87.5262   79.6475  181.3864 O   0  0  0  0  0  0  0  0  0  0  0  0
   89.0155   80.0591  183.6705 H   0  0  0  0  0  0  0  0  0  0  0  0
   88.4312   79.8447  181.0983 H   0  0  0  0  0  0  0  0  0  0  0  0
 34 35  2  0  0  0
 34 36  1  0  0  0
 34 37  1  0  0  0
 34 33  1  0  0  0
 29 30  2  0  0  0
 29 31  1  0  0  0
 29 33  1  0  0  0
 29 28  1  0  0  0
 24 25  2  0  0  0
 24 26  1  0  0  0
 24 28  1  0  0  0
 24 23  1  0  0  0
 23 22  1  0  0  0
 22  1  1  0  0  0
  1  2  1  0  0  0
  1  3  1  0  0  0
  2  7  1  0  0  0
  3  4  1  0  0  0
  3  5  1  0  0  0
  5  6  1  0  0  0
  5  7  1  0  0  0
  7 10  1  0  0  0
 10 11  1  0  0  0
 10 19  1  0  0  0
 11 12  2  0  0  0
 12 13  1  0  0  0
 13 14  1  0  0  0
 13 19  2  0  0  0
 14 15  1  0  0  0
 14 16  2  0  0  0
 16 17  1  0  0  0
 17 18  2  0  0  0
 18 19  1  0  0  0
 36 38  1  0  0  0
 37 39  1  0  0  0
 31 32  1  0  0  0
 26 27  1  0  0  0
  4  8  1  0  0  0
  6  9  1  0  0  0
 15 20  1  0  0  0
 15 21  1  0  0  0
M  END
> <minimizedAffinity>
-11.42278

$$$$
3D2E_ATP_A_1001


 39 41  0  0  0  0  0  0  0  0999 V2000
   87.6984   83.0623  179.9893 C   0  0  0  0  0  0  0  0  0  0  0  0
   87.8628   83.3303  178.5820 O   0  0  0  0  0  0  0  0  0  0  0  0
   86.5209   83.8899  180.4754 C   0  0  0  0  0  0  0  0  0  0  0  0
   87.0283   85.0847  181.0601 O   0  0  0  0  0  0  0  0  0  0  0  0
   85.8042   84.2488  179.1913 C   0  0  0  0  0  0  0  0  0  0  0  0
   85.1470   85.4850  179.2984 O   0  0  0  0  0  0  0  0  0  0  0  0
   86.9397   84.3766  178.2066 C   0  0  0  0  0  0  0  0  0  0  0  0
   87.5918   85.5447  180.4185 H   0  0  0  0  0  0  0  0  0  0  0  0
   85.7875   86.1718  179.5412 H   0  0  0  0  0  0  0  0  0  0  0  0
   86.4349   84.2412  176.8284 N   0  0  0  0  0  0  0  0  0  0  0  0
   86.7881   83.2678  175.9694 C   0  0  0  0  0  0  0  0  0  0  0  0
   86.1627   83.4174  174.7864 N   0  0  0  0  0  0  0  0  0  0  0  0
   85.3734   84.5099  174.8844 C   0  0  0  0  0  0  0  0  0  0  0  0
   84.4383   85.2345  173.9810 C   0  0  0  0  0  0  0  0  0  0  0  0
   84.2261   84.7960  172.7196 N   0  0  0  0  0  0  0  0  0  0  0  0
   83.8194   86.3363  174.4720 N   0  0  0  0  0  0  0  0  0  0  0  0
   84.0390   86.7849  175.7424 C   0  0  0  0  0  0  0  0  0  0  0  0
   84.8863   86.1876  176.6045 N   0  0  0  0  0  0  0  0  0  0  0  0
   85.5645   85.0617  176.2397 C   0  0  0  0  0  0  0  0  0  0  0  0
   84.6914   83.9921  172.3932 H   0  0  0  0  0  0  0  0  0  0  0  0
   83.6064   85.2805  172.1277 H   0  0  0  0  0  0  0  0  0  0  0  0
   87.4623   81.5740  180.1425 C   0  0  0  0  0  0  0  0  0  0  0  0
   86.1566   81.5072  180.7028 O   0  0  0  0  0  0  0  0  0  0  0  0
   85.6699   80.3213  181.6490 P   0  0  0  0  0  0  0  0  0  0  0  0
   85.5672   80.8285  183.0540 O   0  0  0  0  0  0  0  0  0  0  0  0
   84.4329   79.7880  180.9246 O   0  0  0  0  0  0  0  0  0  0  0  0
   84.0557   79.0503  181.4290 H   0  0  0  0  0  0  0  0  0  0  0  0
   86.8503   79.2418  181.5582 O   0  0  0  0  0  0  0  0  0  0  0  0
   87.4357   78.2202  182.6644 P   0  0  0  0  0  0  0  0  0  0  0  0
   88.9079   78.3397  182.7814 O   0  0  0  0  0  0  0  0  0  0  0  0
   86.6196   78.2367  183.9396 O   0  0  0  0  0  0  0  0  0  0  0  0
   87.0018   77.6125  184.5762 H   0  0  0  0  0  0  0  0  0  0  0  0
   87.1615   76.8433  181.8054 O   0  0  0  0  0  0  0  0  0  0  0  0
   87.8681   75.3667  181.9318 P   0  0  0  0  0  0  0  0  0  0  0  0
   86.8103   74.4941  182.5525 O   0  0  0  0  0  0  0  0  0  0  0  0
   88.9808   75.5344  182.9078 O   0  0  0  0  0  0  0  0  0  0  0  0
   88.3108   75.0488  180.5342 O   0  0  0  0  0  0  0  0  0  0  0  0
   89.4391   74.6875  183.0243 H   0  0  0  0  0  0  0  0  0  0  0  0
   88.7438   74.1809  180.5217 H   0  0  0  0  0  0  0  0  0  0  0  0
 34 35  2  0  0  0
 34 36  1  0  0  0
 34 37  1  0  0  0
 34 33  1  0  0  0
 29 30  2  0  0  0
 29 31  1  0  0  0
 29 33  1  0  0  0
 29 28  1  0  0  0
 24 25  2  0  0  0
 24 26  1  0  0  0
 24 28  1  0  0  0
 24 23  1  0  0  0
 23 22  1  0  0  0
 22  1  1  0  0  0
  1  2  1  0  0  0
  1  3  1  0  0  0
  2  7  1  0  0  0
  3  4  1  0  0  0
  3  5  1  0  0  0
  5  6  1  0  0  0
  5  7  1  0  0  0
  7 10  1  0  0  0
 10 11  1  0  0  0
 10 19  1  0  0  0
 11 12  2  0  0  0
 12 13  1  0  0  0
 13 14  1  0  0  0
 13 19  2  0  0  0
 14 15  1  0  0  0
 14 16  2  0  0  0
 16 17  1  0  0  0
 17 18  2  0  0  0
 18 19  1  0  0  0
 36 38  1  0  0  0
 37 39  1  0  0  0
 31 32  1  0  0  0
 26 27  1  0  0  0
  4  8  1  0  0  0
  6  9  1  0  0  0
 15 20  1  0  0  0
 15 21  1  0  0  0
M  END
> <minimizedAffinity>
-11.15301

$$$$
3D2E_ATP_A_1001


 39 41  0  0  0  0  0  0  0  0999 V2000
   87.6750   82.7653  180.1553 C   0  0  0  0  0  0  0  0  0  0  0  0
   87.9007   83.0927  178.7692 O   0  0  0  0  0  0  0  0  0  0  0  0
   86.4483   83.5369  180.6109 C   0  0  0  0  0  0  0  0  0  0  0  0
   86.8865   84.7231  181.2649 O   0  0  0  0  0  0  0  0  0  0  0  0
   85.7853   83.9232  179.3061 C   0  0  0  0  0  0  0  0  0  0  0  0
   85.0835   85.1335  179.4253 O   0  0  0  0  0  0  0  0  0  0  0  0
   86.9638   84.1238  178.3862 C   0  0  0  0  0  0  0  0  0  0  0  0
   87.4660   85.2248  180.6705 H   0  0  0  0  0  0  0  0  0  0  0  0
   85.6884   85.8297  179.7259 H   0  0  0  0  0  0  0  0  0  0  0  0
   86.5333   84.0266  176.9799 N   0  0  0  0  0  0  0  0  0  0  0  0
   86.9464   83.0875  176.1096 C   0  0  0  0  0  0  0  0  0  0  0  0
   86.3806   83.2668  174.9010 N   0  0  0  0  0  0  0  0  0  0  0  0
   85.5693   84.3436  174.9928 C   0  0  0  0  0  0  0  0  0  0  0  0
   84.6703   85.0838  174.0656 C   0  0  0  0  0  0  0  0  0  0  0  0
   84.5309   84.6840  172.7815 N   0  0  0  0  0  0  0  0  0  0  0  0
   84.0087   86.1593  174.5589 N   0  0  0  0  0  0  0  0  0  0  0  0
   84.1549   86.5690  175.8528 C   0  0  0  0  0  0  0  0  0  0  0  0
   84.9663   85.9562  176.7383 N   0  0  0  0  0  0  0  0  0  0  0  0
   85.6810   84.8531  176.3733 C   0  0  0  0  0  0  0  0  0  0  0  0
   85.0256   83.8983  172.4540 H   0  0  0  0  0  0  0  0  0  0  0  0
   83.9347   85.1786  172.1739 H   0  0  0  0  0  0  0  0  0  0  0  0
   87.4802   81.2657  180.2407 C   0  0  0  0  0  0  0  0  0  0  0  0
   86.6305   81.1113  181.3709 O   0  0  0  0  0  0  0  0  0  0  0  0
   86.7042   79.8621  182.3571 P   0  0  0  0  0  0  0  0  0  0  0  0
   87.2745   78.6907  181.6194 O   0  0  0  0  0  0  0  0  0  0  0  0
   87.4219   80.4317  183.5817 O   0  0  0  0  0  0  0  0  0  0  0  0
   87.5178   79.7374  184.2523 H   0  0  0  0  0  0  0  0  0  0  0  0
   85.1731   79.5654  182.7240 O   0  0  0  0  0  0  0  0  0  0  0  0
   83.8862   80.5414  182.7581 P   0  0  0  0  0  0  0  0  0  0  0  0
   83.6435   81.0644  184.1229 O   0  0  0  0  0  0  0  0  0  0  0  0
   83.8935   81.5298  181.6111 O   0  0  0  0  0  0  0  0  0  0  0  0
   83.1076   82.0956  181.6668 H   0  0  0  0  0  0  0  0  0  0  0  0
   82.7588   79.3665  182.5179 O   0  0  0  0  0  0  0  0  0  0  0  0
   82.0769   78.3282  183.5915 P   0  0  0  0  0  0  0  0  0  0  0  0
   81.0126   77.6143  182.8021 O   0  0  0  0  0  0  0  0  0  0  0  0
   81.4168   79.1840  184.6166 O   0  0  0  0  0  0  0  0  0  0  0  0
   83.2309   77.5201  184.1071 O   0  0  0  0  0  0  0  0  0  0  0  0
   80.9929   78.6212  185.2833 H   0  0  0  0  0  0  0  0  0  0  0  0
   82.9093   76.8742  184.7554 H   0  0  0  0  0  0  0  0  0  0  0  0
 34 35  2  0  0  0
 34 36  1  0  0  0
 34 37  1  0  0  0
 34 33  1  0  0  0
 29 30  2  0  0  0
 29 31  1  0  0  0
 29 33  1  0  0  0
 29 28  1  0  0  0
 24 25  2  0  0  0
 24 26  1  0  0  0
 24 28  1  0  0  0
 24 23  1  0  0  0
 23 22  1  0  0  0
 22  1  1  0  0  0
  1  2  1  0  0  0
  1  3  1  0  0  0
  2  7  1  0  0  0
  3  4  1  0  0  0
  3  5  1  0  0  0
  5  6  1  0  0  0
  5  7  1  0  0  0
  7 10  1  0  0  0
 10 11  1  0  0  0
 10 19  1  0  0  0
 11 12  2  0  0  0
 12 13  1  0  0  0
 13 14  1  0  0  0
 13 19  2  0  0  0
 14 15  1  0  0  0
 14 16  2  0  0  0
 16 17  1  0  0  0
 17 18  2  0  0  0
 18 19  1  0  0  0
 36 38  1  0  0  0
 37 39  1  0  0  0
 31 32  1  0  0  0
 26 27  1  0  0  0
  4  8  1  0  0  0
  6  9  1  0  0  0
 15 20  1  0  0  0
 15 21  1  0  0  0
M  END
> <minimizedAffinity>
-10.83965

$$$$
3D2E_ATP_A_1001


 39 41  0  0  0  0  0  0  0  0999 V2000
   85.7382   83.7200  180.8248 C   0  0  0  0  0  0  0  0  0  0  0  0
   85.7651   83.7076  179.3830 O   0  0  0  0  0  0  0  0  0  0  0  0
   86.0012   85.1477  181.2723 C   0  0  0  0  0  0  0  0  0  0  0  0
   87.3842   85.2672  181.5879 O   0  0  0  0  0  0  0  0  0  0  0  0
   85.7213   85.9533  180.0216 C   0  0  0  0  0  0  0  0  0  0  0  0
   86.5031   87.1187  179.9759 O   0  0  0  0  0  0  0  0  0  0  0  0
   86.1632   85.0183  178.9235 C   0  0  0  0  0  0  0  0  0  0  0  0
   87.9152   84.9923  180.8241 H   0  0  0  0  0  0  0  0  0  0  0  0
   87.4418   86.8807  180.0317 H   0  0  0  0  0  0  0  0  0  0  0  0
   85.5368   85.4028  177.6459 N   0  0  0  0  0  0  0  0  0  0  0  0
   84.7053   86.4470  177.4776 C   0  0  0  0  0  0  0  0  0  0  0  0
   84.2942   86.5357  176.1985 N   0  0  0  0  0  0  0  0  0  0  0  0
   84.8843   85.5296  175.5160 C   0  0  0  0  0  0  0  0  0  0  0  0
   84.8725   85.0448  174.1087 C   0  0  0  0  0  0  0  0  0  0  0  0
   84.1337   85.6800  173.1712 N   0  0  0  0  0  0  0  0  0  0  0  0
   85.6235   83.9551  173.8145 N   0  0  0  0  0  0  0  0  0  0  0  0
   86.3633   83.3079  174.7616 C   0  0  0  0  0  0  0  0  0  0  0  0
   86.4033   83.6826  176.0562 N   0  0  0  0  0  0  0  0  0  0  0  0
   85.7015   84.7716  176.4831 C   0  0  0  0  0  0  0  0  0  0  0  0
   83.5989   86.4691  173.4173 H   0  0  0  0  0  0  0  0  0  0  0  0
   84.1306   85.3535  172.2424 H   0  0  0  0  0  0  0  0  0  0  0  0
   84.3753   83.2199  181.2567 C   0  0  0  0  0  0  0  0  0  0  0  0
   84.6744   82.3655  182.3539 O   0  0  0  0  0  0  0  0  0  0  0  0
   83.5961   81.4166  183.0436 P   0  0  0  0  0  0  0  0  0  0  0  0
   83.3428   81.8985  184.4383 O   0  0  0  0  0  0  0  0  0  0  0  0
   82.4625   81.3804  182.0175 O   0  0  0  0  0  0  0  0  0  0  0  0
   81.7444   80.8188  182.3488 H   0  0  0  0  0  0  0  0  0  0  0  0
   84.3151   79.9859  183.0976 O   0  0  0  0  0  0  0  0  0  0  0  0
   84.7462   78.9743  181.9141 P   0  0  0  0  0  0  0  0  0  0  0  0
   83.9418   77.7306  181.9496 O   0  0  0  0  0  0  0  0  0  0  0  0
   84.8933   79.6857  180.5855 O   0  0  0  0  0  0  0  0  0  0  0  0
   85.1520   79.0465  179.9034 H   0  0  0  0  0  0  0  0  0  0  0  0
   86.2170   78.5786  182.5380 O   0  0  0  0  0  0  0  0  0  0  0  0
   87.5802   79.4835  182.6726 P   0  0  0  0  0  0  0  0  0  0  0  0
   87.7032   80.1802  181.3440 O   0  0  0  0  0  0  0  0  0  0  0  0
   88.6993   78.5094  182.8055 O   0  0  0  0  0  0  0  0  0  0  0  0
   87.3440   80.3276  183.8900 O   0  0  0  0  0  0  0  0  0  0  0  0
   89.5379   78.9898  182.8892 H   0  0  0  0  0  0  0  0  0  0  0  0
   88.1130   80.8991  184.0414 H   0  0  0  0  0  0  0  0  0  0  0  0
 34 35  2  0  0  0
 34 36  1  0  0  0
 34 37  1  0  0  0
 34 33  1  0  0  0
 29 30  2  0  0  0
 29 31  1  0  0  0
 29 33  1  0  0  0
 29 28  1  0  0  0
 24 25  2  0  0  0
 24 26  1  0  0  0
 24 28  1  0  0  0
 24 23  1  0  0  0
 23 22  1  0  0  0
 22  1  1  0  0  0
  1  2  1  0  0  0
  1  3  1  0  0  0
  2  7  1  0  0  0
  3  4  1  0  0  0
  3  5  1  0  0  0
  5  6  1  0  0  0
  5  7  1  0  0  0
  7 10  1  0  0  0
 10 11  1  0  0  0
 10 19  1  0  0  0
 11 12  2  0  0  0
 12 13  1  0  0  0
 13 14  1  0  0  0
 13 19  2  0  0  0
 14 15  1  0  0  0
 14 16  2  0  0  0
 16 17  1  0  0  0
 17 18  2  0  0  0
 18 19  1  0  0  0
 36 38  1  0  0  0
 37 39  1  0  0  0
 31 32  1  0  0  0
 26 27  1  0  0  0
  4  8  1  0  0  0
  6  9  1  0  0  0
 15 20  1  0  0  0
 15 21  1  0  0  0
M  END
> <minimizedAffinity>
-10.60800

$$$$
3D2E_ATP_A_1001


 39 41  0  0  0  0  0  0  0  0999 V2000
   85.9212   83.3725  180.7638 C   0  0  0  0  0  0  0  0  0  0  0  0
   86.2261   82.8353  179.4608 O   0  0  0  0  0  0  0  0  0  0  0  0
   86.3364   84.8339  180.7618 C   0  0  0  0  0  0  0  0  0  0  0  0
   87.6307   84.9294  181.3469 O   0  0  0  0  0  0  0  0  0  0  0  0
   86.4500   85.1532  179.2865 C   0  0  0  0  0  0  0  0  0  0  0  0
   87.4164   86.1437  179.0485 O   0  0  0  0  0  0  0  0  0  0  0  0
   86.9279   83.8464  178.7039 C   0  0  0  0  0  0  0  0  0  0  0  0
   88.2441   84.3475  180.8716 H   0  0  0  0  0  0  0  0  0  0  0  0
   88.2702   85.8552  179.4072 H   0  0  0  0  0  0  0  0  0  0  0  0
   86.6392   83.7980  177.2594 N   0  0  0  0  0  0  0  0  0  0  0  0
   87.1612   82.9065  176.3976 C   0  0  0  0  0  0  0  0  0  0  0  0
   86.7110   83.1227  175.1472 N   0  0  0  0  0  0  0  0  0  0  0  0
   85.8647   84.1749  175.2012 C   0  0  0  0  0  0  0  0  0  0  0  0
   85.0397   84.9315  174.2200 C   0  0  0  0  0  0  0  0  0  0  0  0
   85.0372   84.5828  172.9135 N   0  0  0  0  0  0  0  0  0  0  0  0
   84.3033   85.9692  174.6878 N   0  0  0  0  0  0  0  0  0  0  0  0
   84.3114   86.3275  176.0050 C   0  0  0  0  0  0  0  0  0  0  0  0
   85.0496   85.6977  176.9411 N   0  0  0  0  0  0  0  0  0  0  0  0
   85.8271   84.6285  176.6049 C   0  0  0  0  0  0  0  0  0  0  0  0
   85.5833   83.8237  172.6056 H   0  0  0  0  0  0  0  0  0  0  0  0
   84.4892   85.0880  172.2703 H   0  0  0  0  0  0  0  0  0  0  0  0
   84.4345   83.1935  180.9912 C   0  0  0  0  0  0  0  0  0  0  0  0
   84.3389   83.0189  182.3996 O   0  0  0  0  0  0  0  0  0  0  0  0
   83.6746   81.7405  183.0799 P   0  0  0  0  0  0  0  0  0  0  0  0
   83.1561   82.1210  184.4320 O   0  0  0  0  0  0  0  0  0  0  0  0
   82.7204   81.2313  181.9984 O   0  0  0  0  0  0  0  0  0  0  0  0
   82.2593   80.4409  182.3201 H   0  0  0  0  0  0  0  0  0  0  0  0
   84.8918   80.7122  183.2472 O   0  0  0  0  0  0  0  0  0  0  0  0
   84.9988   79.3259  184.0697 P   0  0  0  0  0  0  0  0  0  0  0  0
   85.6661   79.5262  185.3773 O   0  0  0  0  0  0  0  0  0  0  0  0
   83.6972   78.5525  184.0493 O   0  0  0  0  0  0  0  0  0  0  0  0
   83.8022   77.7296  184.5521 H   0  0  0  0  0  0  0  0  0  0  0  0
   86.1206   78.6201  183.0939 O   0  0  0  0  0  0  0  0  0  0  0  0
   87.6309   79.1235  182.6923 P   0  0  0  0  0  0  0  0  0  0  0  0
   87.4995   79.6196  181.2773 O   0  0  0  0  0  0  0  0  0  0  0  0
   88.4774   77.8978  182.6910 O   0  0  0  0  0  0  0  0  0  0  0  0
   87.9829   80.1199  183.7570 O   0  0  0  0  0  0  0  0  0  0  0  0
   89.3889   78.1346  182.4586 H   0  0  0  0  0  0  0  0  0  0  0  0
   88.8722   80.4699  183.5911 H   0  0  0  0  0  0  0  0  0  0  0  0
 34 35  2  0  0  0
 34 36  1  0  0  0
 34 37  1  0  0  0
 34 33  1  0  0  0
 29 30  2  0  0  0
 29 31  1  0  0  0
 29 33  1  0  0  0
 29 28  1  0  0  0
 24 25  2  0  0  0
 24 26  1  0  0  0
 24 28  1  0  0  0
 24 23  1  0  0  0
 23 22  1  0  0  0
 22  1  1  0  0  0
  1  2  1  0  0  0
  1  3  1  0  0  0
  2  7  1  0  0  0
  3  4  1  0  0  0
  3  5  1  0  0  0
  5  6  1  0  0  0
  5  7  1  0  0  0
  7 10  1  0  0  0
 10 11  1  0  0  0
 10 19  1  0  0  0
 11 12  2  0  0  0
 12 13  1  0  0  0
 13 14  1  0  0  0
 13 19  2  0  0  0
 14 15  1  0  0  0
 14 16  2  0  0  0
 16 17  1  0  0  0
 17 18  2  0  0  0
 18 19  1  0  0  0
 36 38  1  0  0  0
 37 39  1  0  0  0
 31 32  1  0  0  0
 26 27  1  0  0  0
  4  8  1  0  0  0
  6  9  1  0  0  0
 15 20  1  0  0  0
 15 21  1  0  0  0
M  END
> <minimizedAffinity>
-10.38658

$$$$
3D2E_ATP_A_1001


 39 41  0  0  0  0  0  0  0  0999 V2000
   86.6897   82.5793  179.2782 C   0  0  0  0  0  0  0  0  0  0  0  0
   86.0448   82.4922  177.9914 O   0  0  0  0  0  0  0  0  0  0  0  0
   88.0310   83.2614  179.0693 C   0  0  0  0  0  0  0  0  0  0  0  0
   89.0307   82.2535  178.9623 O   0  0  0  0  0  0  0  0  0  0  0  0
   87.8688   83.9243  177.7182 C   0  0  0  0  0  0  0  0  0  0  0  0
   89.0953   84.0160  177.0408 O   0  0  0  0  0  0  0  0  0  0  0  0
   86.9704   82.9594  176.9852 C   0  0  0  0  0  0  0  0  0  0  0  0
   88.7916   81.6349  178.2544 H   0  0  0  0  0  0  0  0  0  0  0  0
   89.4806   83.1307  176.9482 H   0  0  0  0  0  0  0  0  0  0  0  0
   86.3096   83.6380  175.8559 N   0  0  0  0  0  0  0  0  0  0  0  0
   86.3733   83.2398  174.5723 C   0  0  0  0  0  0  0  0  0  0  0  0
   85.6713   84.0669  173.7747 N   0  0  0  0  0  0  0  0  0  0  0  0
   85.1275   85.0201  174.5634 C   0  0  0  0  0  0  0  0  0  0  0  0
   84.2659   86.2154  174.3521 C   0  0  0  0  0  0  0  0  0  0  0  0
   83.8425   86.5443  173.1108 N   0  0  0  0  0  0  0  0  0  0  0  0
   83.9306   86.9474  175.4428 N   0  0  0  0  0  0  0  0  0  0  0  0
   84.3641   86.6214  176.6954 C   0  0  0  0  0  0  0  0  0  0  0  0
   85.1611   85.5649  176.9535 N   0  0  0  0  0  0  0  0  0  0  0  0
   85.5624   84.7385  175.9452 C   0  0  0  0  0  0  0  0  0  0  0  0
   84.1037   85.9916  172.3391 H   0  0  0  0  0  0  0  0  0  0  0  0
   83.2730   87.3364  172.9787 H   0  0  0  0  0  0  0  0  0  0  0  0
   85.7748   83.3689  180.1910 C   0  0  0  0  0  0  0  0  0  0  0  0
   85.7861   82.6138  181.3964 O   0  0  0  0  0  0  0  0  0  0  0  0
   84.4693   82.2637  182.2223 P   0  0  0  0  0  0  0  0  0  0  0  0
   84.2265   83.3409  183.2335 O   0  0  0  0  0  0  0  0  0  0  0  0
   83.4400   81.9821  181.1267 O   0  0  0  0  0  0  0  0  0  0  0  0
   82.5890   81.7553  181.5331 H   0  0  0  0  0  0  0  0  0  0  0  0
   84.8350   80.8986  182.9769 O   0  0  0  0  0  0  0  0  0  0  0  0
   84.9318   79.3816  182.4297 P   0  0  0  0  0  0  0  0  0  0  0  0
   84.3815   79.2680  181.0588 O   0  0  0  0  0  0  0  0  0  0  0  0
   86.2879   78.7658  182.7024 O   0  0  0  0  0  0  0  0  0  0  0  0
   86.3058   77.8584  182.3600 H   0  0  0  0  0  0  0  0  0  0  0  0
   83.7857   78.7527  183.4296 O   0  0  0  0  0  0  0  0  0  0  0  0
   82.3356   79.3715  183.8877 P   0  0  0  0  0  0  0  0  0  0  0  0
   81.4836   78.1641  184.1741 O   0  0  0  0  0  0  0  0  0  0  0  0
   81.7939   80.0626  182.6844 O   0  0  0  0  0  0  0  0  0  0  0  0
   82.6685   80.2844  185.0306 O   0  0  0  0  0  0  0  0  0  0  0  0
   80.9307   80.4513  182.8959 H   0  0  0  0  0  0  0  0  0  0  0  0
   81.8555   80.6955  185.3634 H   0  0  0  0  0  0  0  0  0  0  0  0
 34 35  2  0  0  0
 34 36  1  0  0  0
 34 37  1  0  0  0
 34 33  1  0  0  0
 29 30  2  0  0  0
 29 31  1  0  0  0
 29 33  1  0  0  0
 29 28  1  0  0  0
 24 25  2  0  0  0
 24 26  1  0  0  0
 24 28  1  0  0  0
 24 23  1  0  0  0
 23 22  1  0  0  0
 22  1  1  0  0  0
  1  2  1  0  0  0
  1  3  1  0  0  0
  2  7  1  0  0  0
  3  4  1  0  0  0
  3  5  1  0  0  0
  5  6  1  0  0  0
  5  7  1  0  0  0
  7 10  1  0  0  0
 10 11  1  0  0  0
 10 19  1  0  0  0
 11 12  2  0  0  0
 12 13  1  0  0  0
 13 14  1  0  0  0
 13 19  2  0  0  0
 14 15  1  0  0  0
 14 16  2  0  0  0
 16 17  1  0  0  0
 17 18  2  0  0  0
 18 19  1  0  0  0
 36 38  1  0  0  0
 37 39  1  0  0  0
 31 32  1  0  0  0
 26 27  1  0  0  0
  4  8  1  0  0  0
  6  9  1  0  0  0
 15 20  1  0  0  0
 15 21  1  0  0  0
M  END
> <minimizedAffinity>
-10.34927

$$$$
3D2E_ATP_A_1001


 39 41  0  0  0  0  0  0  0  0999 V2000
   85.4604   84.8384  181.5435 C   0  0  0  0  0  0  0  0  0  0  0  0
   85.9503   84.4351  180.2486 O   0  0  0  0  0  0  0  0  0  0  0  0
   85.1443   86.3224  181.4682 C   0  0  0  0  0  0  0  0  0  0  0  0
   86.2572   87.0412  181.9891 O   0  0  0  0  0  0  0  0  0  0  0  0
   85.0609   86.5772  179.9784 C   0  0  0  0  0  0  0  0  0  0  0  0
   85.4465   87.8892  179.6596 O   0  0  0  0  0  0  0  0  0  0  0  0
   86.0803   85.6139  179.4233 C   0  0  0  0  0  0  0  0  0  0  0  0
   87.0602   86.7871  181.5079 H   0  0  0  0  0  0  0  0  0  0  0  0
   86.3443   88.0515  179.9890 H   0  0  0  0  0  0  0  0  0  0  0  0
   85.8138   85.3582  177.9964 N   0  0  0  0  0  0  0  0  0  0  0  0
   84.9598   86.0634  177.2325 C   0  0  0  0  0  0  0  0  0  0  0  0
   84.9302   85.5856  175.9739 N   0  0  0  0  0  0  0  0  0  0  0  0
   85.7972   84.5507  175.9165 C   0  0  0  0  0  0  0  0  0  0  0  0
   86.2461   83.5922  174.8698 C   0  0  0  0  0  0  0  0  0  0  0  0
   85.7472   83.6644  173.6151 N   0  0  0  0  0  0  0  0  0  0  0  0
   87.1625   82.6587  175.2257 N   0  0  0  0  0  0  0  0  0  0  0  0
   87.6608   82.5793  176.4941 C   0  0  0  0  0  0  0  0  0  0  0  0
   87.2833   83.4027  177.4928 N   0  0  0  0  0  0  0  0  0  0  0  0
   86.3753   84.3950  177.2654 C   0  0  0  0  0  0  0  0  0  0  0  0
   85.0825   84.3545  173.3887 H   0  0  0  0  0  0  0  0  0  0  0  0
   86.0486   83.0270  172.9281 H   0  0  0  0  0  0  0  0  0  0  0  0
   84.2355   84.0003  181.8457 C   0  0  0  0  0  0  0  0  0  0  0  0
   84.7729   82.8685  182.5190 O   0  0  0  0  0  0  0  0  0  0  0  0
   84.2521   81.3812  182.2838 P   0  0  0  0  0  0  0  0  0  0  0  0
   84.5817   80.5526  183.4864 O   0  0  0  0  0  0  0  0  0  0  0  0
   82.7973   81.5886  181.8597 O   0  0  0  0  0  0  0  0  0  0  0  0
   82.3841   80.7276  181.6901 H   0  0  0  0  0  0  0  0  0  0  0  0
   85.1063   80.8637  181.0310 O   0  0  0  0  0  0  0  0  0  0  0  0
   86.6999   80.8644  180.7656 P   0  0  0  0  0  0  0  0  0  0  0  0
   87.0052   80.7152  179.3235 O   0  0  0  0  0  0  0  0  0  0  0  0
   87.4013   81.9686  181.5282 O   0  0  0  0  0  0  0  0  0  0  0  0
   88.3528   81.9354  181.3429 H   0  0  0  0  0  0  0  0  0  0  0  0
   86.9993   79.3953  181.4447 O   0  0  0  0  0  0  0  0  0  0  0  0
   87.6402   79.0253  182.9103 P   0  0  0  0  0  0  0  0  0  0  0  0
   86.6828   78.0239  183.4987 O   0  0  0  0  0  0  0  0  0  0  0  0
   87.5688   80.2800  183.7100 O   0  0  0  0  0  0  0  0  0  0  0  0
   89.0339   78.5664  182.5982 O   0  0  0  0  0  0  0  0  0  0  0  0
   87.9365   80.1217  184.5935 H   0  0  0  0  0  0  0  0  0  0  0  0
   89.4870   78.3258  183.4214 H   0  0  0  0  0  0  0  0  0  0  0  0
 34 35  2  0  0  0
 34 36  1  0  0  0
 34 37  1  0  0  0
 34 33  1  0  0  0
 29 30  2  0  0  0
 29 31  1  0  0  0
 29 33  1  0  0  0
 29 28  1  0  0  0
 24 25  2  0  0  0
 24 26  1  0  0  0
 24 28  1  0  0  0
 24 23  1  0  0  0
 23 22  1  0  0  0
 22  1  1  0  0  0
  1  2  1  0  0  0
  1  3  1  0  0  0
  2  7  1  0  0  0
  3  4  1  0  0  0
  3  5  1  0  0  0
  5  6  1  0  0  0
  5  7  1  0  0  0
  7 10  1  0  0  0
 10 11  1  0  0  0
 10 19  1  0  0  0
 11 12  2  0  0  0
 12 13  1  0  0  0
 13 14  1  0  0  0
 13 19  2  0  0  0
 14 15  1  0  0  0
 14 16  2  0  0  0
 16 17  1  0  0  0
 17 18  2  0  0  0
 18 19  1  0  0  0
 36 38  1  0  0  0
 37 39  1  0  0  0
 31 32  1  0  0  0
 26 27  1  0  0  0
  4  8  1  0  0  0
  6  9  1  0  0  0
 15 20  1  0  0  0
 15 21  1  0  0  0
M  END
> <minimizedAffinity>
-10.29014

$$$$
3D2E_ATP_A_1001


 39 41  0  0  0  0  0  0  0  0999 V2000
   85.5785   80.1252  182.4592 C   0  0  0  0  0  0  0  0  0  0  0  0
   85.6858   81.5504  182.6508 O   0  0  0  0  0  0  0  0  0  0  0  0
   84.1420   79.8262  182.0655 C   0  0  0  0  0  0  0  0  0  0  0  0
   83.4341   79.4281  183.2348 O   0  0  0  0  0  0  0  0  0  0  0  0
   83.6219   81.1775  181.6243 C   0  0  0  0  0  0  0  0  0  0  0  0
   82.2436   81.3001  181.8631 O   0  0  0  0  0  0  0  0  0  0  0  0
   84.3666   82.1271  182.5292 C   0  0  0  0  0  0  0  0  0  0  0  0
   83.5189   80.1155  183.9138 H   0  0  0  0  0  0  0  0  0  0  0  0
   82.0640   81.1504  182.8045 H   0  0  0  0  0  0  0  0  0  0  0  0
   84.3743   83.4818  181.9485 N   0  0  0  0  0  0  0  0  0  0  0  0
   84.4944   83.7587  180.6374 C   0  0  0  0  0  0  0  0  0  0  0  0
   84.4727   85.0874  180.4204 N   0  0  0  0  0  0  0  0  0  0  0  0
   84.3221   85.6882  181.6214 C   0  0  0  0  0  0  0  0  0  0  0  0
   84.2271   87.0921  182.1072 C   0  0  0  0  0  0  0  0  0  0  0  0
   84.2858   88.1243  181.2357 N   0  0  0  0  0  0  0  0  0  0  0  0
   84.0817   87.2857  183.4411 N   0  0  0  0  0  0  0  0  0  0  0  0
   84.0307   86.2449  184.3229 C   0  0  0  0  0  0  0  0  0  0  0  0
   84.1299   84.9524  183.9521 N   0  0  0  0  0  0  0  0  0  0  0  0
   84.2677   84.6187  182.6367 C   0  0  0  0  0  0  0  0  0  0  0  0
   84.3918   87.9500  180.2726 H   0  0  0  0  0  0  0  0  0  0  0  0
   84.2225   89.0502  181.5643 H   0  0  0  0  0  0  0  0  0  0  0  0
   86.5672   79.7376  181.3792 C   0  0  0  0  0  0  0  0  0  0  0  0
   86.6951   78.3306  181.5443 O   0  0  0  0  0  0  0  0  0  0  0  0
   87.4960   77.6596  182.7472 P   0  0  0  0  0  0  0  0  0  0  0  0
   88.9544   77.9596  182.5901 O   0  0  0  0  0  0  0  0  0  0  0  0
   86.7331   78.1435  183.9814 O   0  0  0  0  0  0  0  0  0  0  0  0
   87.1492   77.7836  184.7803 H   0  0  0  0  0  0  0  0  0  0  0  0
   87.2517   76.0887  182.5487 O   0  0  0  0  0  0  0  0  0  0  0  0
   88.1117   74.9779  181.7508 P   0  0  0  0  0  0  0  0  0  0  0  0
   88.2233   75.3149  180.3124 O   0  0  0  0  0  0  0  0  0  0  0  0
   89.3779   74.6017  182.4911 O   0  0  0  0  0  0  0  0  0  0  0  0
   89.8643   73.9349  181.9815 H   0  0  0  0  0  0  0  0  0  0  0  0
   86.9919   73.7755  181.8471 O   0  0  0  0  0  0  0  0  0  0  0  0
   85.3598   73.8427  181.6820 P   0  0  0  0  0  0  0  0  0  0  0  0
   84.9863   72.5143  181.0808 O   0  0  0  0  0  0  0  0  0  0  0  0
   85.0999   74.9109  180.6768 O   0  0  0  0  0  0  0  0  0  0  0  0
   84.8620   74.1548  183.0623 O   0  0  0  0  0  0  0  0  0  0  0  0
   84.1440   74.9973  180.5366 H   0  0  0  0  0  0  0  0  0  0  0  0
   83.8937   74.2124  183.0515 H   0  0  0  0  0  0  0  0  0  0  0  0
 34 35  2  0  0  0
 34 36  1  0  0  0
 34 37  1  0  0  0
 34 33  1  0  0  0
 29 30  2  0  0  0
 29 31  1  0  0  0
 29 33  1  0  0  0
 29 28  1  0  0  0
 24 25  2  0  0  0
 24 26  1  0  0  0
 24 28  1  0  0  0
 24 23  1  0  0  0
 23 22  1  0  0  0
 22  1  1  0  0  0
  1  2  1  0  0  0
  1  3  1  0  0  0
  2  7  1  0  0  0
  3  4  1  0  0  0
  3  5  1  0  0  0
  5  6  1  0  0  0
  5  7  1  0  0  0
  7 10  1  0  0  0
 10 11  1  0  0  0
 10 19  1  0  0  0
 11 12  2  0  0  0
 12 13  1  0  0  0
 13 14  1  0  0  0
 13 19  2  0  0  0
 14 15  1  0  0  0
 14 16  2  0  0  0
 16 17  1  0  0  0
 17 18  2  0  0  0
 18 19  1  0  0  0
 36 38  1  0  0  0
 37 39  1  0  0  0
 31 32  1  0  0  0
 26 27  1  0  0  0
  4  8  1  0  0  0
  6  9  1  0  0  0
 15 20  1  0  0  0
 15 21  1  0  0  0
M  END
> <minimizedAffinity>
-10.00382

$$$$
