3T0D_149_A_2001


 16 16  0  0  0  0  0  0  0  0999 V2000
  -11.3021  -28.8276  -27.9732 C   0  0  0  0  0  0  0  0  0  0  0  0
  -12.2307  -27.8518  -27.2948 C   0  0  0  0  0  0  0  0  0  0  0  0
  -11.6206  -27.3562  -25.9938 C   0  0  0  0  0  0  0  0  0  0  0  0
  -11.0793  -28.5381  -25.1967 C   0  0  0  0  0  0  0  0  0  0  0  0
   -9.9038  -29.1838  -25.9320 C   0  0  0  0  0  0  0  0  0  0  0  0
  -11.4655  -29.1231  -29.1404 O   0  0  0  0  0  0  0  0  0  0  0  0
  -12.5499  -26.7441  -28.1478 O   0  0  0  0  0  0  0  0  0  0  0  0
  -12.6372  -26.6961  -25.2367 O   0  0  0  0  0  0  0  0  0  0  0  0
  -12.1207  -29.5031  -24.9879 O   0  0  0  0  0  0  0  0  0  0  0  0
  -10.1849  -29.4764  -27.3039 O   0  0  0  0  0  0  0  0  0  0  0  0
  -11.7393  -26.2556  -28.3604 H   0  0  0  0  0  0  0  0  0  0  0  0
  -13.3591  -27.3177  -25.0536 H   0  0  0  0  0  0  0  0  0  0  0  0
  -12.4378  -29.8272  -25.8454 H   0  0  0  0  0  0  0  0  0  0  0  0
   -9.5182  -30.5139  -25.3001 C   0  0  0  0  0  0  0  0  0  0  0  0
   -9.6949  -30.4511  -23.8862 O   0  0  0  0  0  0  0  0  0  0  0  0
   -9.1306  -29.7520  -23.5205 H   0  0  0  0  0  0  0  0  0  0  0  0
  1  2  1  0  0  0
  1  6  2  0  0  0
  1 10  1  0  0  0
  2  3  1  0  0  0
  2  7  1  0  0  0
  3  4  1  0  0  0
  3  8  1  0  0  0
  4  5  1  0  0  0
  4  9  1  0  0  0
  5 14  1  0  0  0
  5 10  1  0  0  0
 14 15  1  0  0  0
  7 11  1  0  0  0
  8 12  1  0  0  0
  9 13  1  0  0  0
 15 16  1  0  0  0
M  END
> <minimizedAffinity>
-7.24378

$$$$
3T0D_149_A_2001


 16 16  0  0  0  0  0  0  0  0999 V2000
  -13.0673  -27.8945  -25.5406 C   0  0  0  0  0  0  0  0  0  0  0  0
  -13.3329  -27.5909  -26.9939 C   0  0  0  0  0  0  0  0  0  0  0  0
  -12.5139  -28.5099  -27.8857 C   0  0  0  0  0  0  0  0  0  0  0  0
  -11.0721  -28.5553  -27.3913 C   0  0  0  0  0  0  0  0  0  0  0  0
  -11.0008  -29.2187  -26.0150 C   0  0  0  0  0  0  0  0  0  0  0  0
  -13.8144  -27.4770  -24.6780 O   0  0  0  0  0  0  0  0  0  0  0  0
  -14.7268  -27.7023  -27.3120 O   0  0  0  0  0  0  0  0  0  0  0  0
  -12.5448  -27.9962  -29.2190 O   0  0  0  0  0  0  0  0  0  0  0  0
  -10.5371  -27.2252  -27.3262 O   0  0  0  0  0  0  0  0  0  0  0  0
  -11.9305  -28.6736  -25.0741 O   0  0  0  0  0  0  0  0  0  0  0  0
  -15.0215  -28.6138  -27.1593 H   0  0  0  0  0  0  0  0  0  0  0  0
  -12.1734  -27.1002  -29.2291 H   0  0  0  0  0  0  0  0  0  0  0  0
  -11.0610  -26.6960  -26.7046 H   0  0  0  0  0  0  0  0  0  0  0  0
   -9.6271  -29.0398  -25.3842 C   0  0  0  0  0  0  0  0  0  0  0  0
   -9.6435  -27.9314  -24.4866 O   0  0  0  0  0  0  0  0  0  0  0  0
   -9.8756  -27.1249  -24.9730 H   0  0  0  0  0  0  0  0  0  0  0  0
  1  2  1  0  0  0
  1  6  2  0  0  0
  1 10  1  0  0  0
  2  3  1  0  0  0
  2  7  1  0  0  0
  3  4  1  0  0  0
  3  8  1  0  0  0
  4  5  1  0  0  0
  4  9  1  0  0  0
  5 14  1  0  0  0
  5 10  1  0  0  0
 14 15  1  0  0  0
  7 11  1  0  0  0
  8 12  1  0  0  0
  9 13  1  0  0  0
 15 16  1  0  0  0
M  END
> <minimizedAffinity>
-6.69652

$$$$
3T0D_149_A_2001


 16 16  0  0  0  0  0  0  0  0999 V2000
  -11.0898  -29.5348  -25.1168 C   0  0  0  0  0  0  0  0  0  0  0  0
  -10.4493  -28.7513  -26.2352 C   0  0  0  0  0  0  0  0  0  0  0  0
  -11.3372  -27.5870  -26.6431 C   0  0  0  0  0  0  0  0  0  0  0  0
  -12.7745  -28.0692  -26.8070 C   0  0  0  0  0  0  0  0  0  0  0  0
  -13.3452  -28.5127  -25.4590 C   0  0  0  0  0  0  0  0  0  0  0  0
  -10.4346  -30.3215  -24.4624 O   0  0  0  0  0  0  0  0  0  0  0  0
   -9.1453  -28.2783  -25.8711 O   0  0  0  0  0  0  0  0  0  0  0  0
  -10.8636  -27.0677  -27.8876 O   0  0  0  0  0  0  0  0  0  0  0  0
  -12.8203  -29.1555  -27.7436 O   0  0  0  0  0  0  0  0  0  0  0  0
  -12.4944  -29.4218  -24.7545 O   0  0  0  0  0  0  0  0  0  0  0  0
   -9.2196  -27.6751  -25.1152 H   0  0  0  0  0  0  0  0  0  0  0  0
  -10.8937  -27.7650  -28.5613 H   0  0  0  0  0  0  0  0  0  0  0  0
  -12.2828  -29.8915  -27.4116 H   0  0  0  0  0  0  0  0  0  0  0  0
  -14.6704  -29.2416  -25.6312 C   0  0  0  0  0  0  0  0  0  0  0  0
  -15.4881  -28.5502  -26.5734 O   0  0  0  0  0  0  0  0  0  0  0  0
  -15.6611  -27.6511  -26.2530 H   0  0  0  0  0  0  0  0  0  0  0  0
  1  2  1  0  0  0
  1  6  2  0  0  0
  1 10  1  0  0  0
  2  3  1  0  0  0
  2  7  1  0  0  0
  3  4  1  0  0  0
  3  8  1  0  0  0
  4  5  1  0  0  0
  4  9  1  0  0  0
  5 14  1  0  0  0
  5 10  1  0  0  0
 14 15  1  0  0  0
  7 11  1  0  0  0
  8 12  1  0  0  0
  9 13  1  0  0  0
 15 16  1  0  0  0
M  END
> <minimizedAffinity>
-6.51613

$$$$
3T0D_149_A_2001


 16 16  0  0  0  0  0  0  0  0999 V2000
  -12.0260  -28.2612  -28.1209 C   0  0  0  0  0  0  0  0  0  0  0  0
  -10.8998  -28.7652  -27.2535 C   0  0  0  0  0  0  0  0  0  0  0  0
  -11.4302  -29.2048  -25.8985 C   0  0  0  0  0  0  0  0  0  0  0  0
  -12.3707  -28.1400  -25.3444 C   0  0  0  0  0  0  0  0  0  0  0  0
  -13.6249  -28.0320  -26.2131 C   0  0  0  0  0  0  0  0  0  0  0  0
  -11.8685  -28.1278  -29.3183 O   0  0  0  0  0  0  0  0  0  0  0  0
  -10.1882  -29.8404  -27.8814 O   0  0  0  0  0  0  0  0  0  0  0  0
  -10.3238  -29.3730  -25.0095 O   0  0  0  0  0  0  0  0  0  0  0  0
  -11.6966  -26.8742  -25.2914 O   0  0  0  0  0  0  0  0  0  0  0  0
  -13.3384  -27.8980  -27.6083 O   0  0  0  0  0  0  0  0  0  0  0  0
  -10.7896  -30.5887  -28.0200 H   0  0  0  0  0  0  0  0  0  0  0  0
   -9.8452  -28.5334  -24.9264 H   0  0  0  0  0  0  0  0  0  0  0  0
  -11.4270  -26.6138  -26.1860 H   0  0  0  0  0  0  0  0  0  0  0  0
  -14.4501  -26.8070  -25.8448 C   0  0  0  0  0  0  0  0  0  0  0  0
  -14.4506  -26.6271  -24.4299 O   0  0  0  0  0  0  0  0  0  0  0  0
  -14.8375  -27.4085  -24.0048 H   0  0  0  0  0  0  0  0  0  0  0  0
  1  2  1  0  0  0
  1  6  2  0  0  0
  1 10  1  0  0  0
  2  3  1  0  0  0
  2  7  1  0  0  0
  3  4  1  0  0  0
  3  8  1  0  0  0
  4  5  1  0  0  0
  4  9  1  0  0  0
  5 14  1  0  0  0
  5 10  1  0  0  0
 14 15  1  0  0  0
  7 11  1  0  0  0
  8 12  1  0  0  0
  9 13  1  0  0  0
 15 16  1  0  0  0
M  END
> <minimizedAffinity>
-6.26075

$$$$
3T0D_149_A_2001


 16 16  0  0  0  0  0  0  0  0999 V2000
  -11.7004  -26.8003  -25.6081 C   0  0  0  0  0  0  0  0  0  0  0  0
  -10.7624  -27.8103  -24.9960 C   0  0  0  0  0  0  0  0  0  0  0  0
   -9.9034  -28.4558  -26.0712 C   0  0  0  0  0  0  0  0  0  0  0  0
  -10.7801  -28.8774  -27.2454 C   0  0  0  0  0  0  0  0  0  0  0  0
  -11.3731  -27.6486  -27.9366 C   0  0  0  0  0  0  0  0  0  0  0  0
  -12.2658  -25.9826  -24.9093 O   0  0  0  0  0  0  0  0  0  0  0  0
   -9.9336  -27.2192  -23.9859 O   0  0  0  0  0  0  0  0  0  0  0  0
   -9.2662  -29.6074  -25.5141 O   0  0  0  0  0  0  0  0  0  0  0  0
  -11.8308  -29.7393  -26.7843 O   0  0  0  0  0  0  0  0  0  0  0  0
  -11.9993  -26.7355  -27.0305 O   0  0  0  0  0  0  0  0  0  0  0  0
   -9.3795  -26.5301  -24.3848 H   0  0  0  0  0  0  0  0  0  0  0  0
   -9.9406  -30.2316  -25.2036 H   0  0  0  0  0  0  0  0  0  0  0  0
  -12.3809  -29.2636  -26.1424 H   0  0  0  0  0  0  0  0  0  0  0  0
  -12.4535  -28.0415  -28.9342 C   0  0  0  0  0  0  0  0  0  0  0  0
  -11.9379  -28.9957  -29.8605 O   0  0  0  0  0  0  0  0  0  0  0  0
  -11.1896  -28.6082  -30.3410 H   0  0  0  0  0  0  0  0  0  0  0  0
  1  2  1  0  0  0
  1  6  2  0  0  0
  1 10  1  0  0  0
  2  3  1  0  0  0
  2  7  1  0  0  0
  3  4  1  0  0  0
  3  8  1  0  0  0
  4  5  1  0  0  0
  4  9  1  0  0  0
  5 14  1  0  0  0
  5 10  1  0  0  0
 14 15  1  0  0  0
  7 11  1  0  0  0
  8 12  1  0  0  0
  9 13  1  0  0  0
 15 16  1  0  0  0
M  END
> <minimizedAffinity>
-6.25593

$$$$
3T0D_149_A_2001


 16 16  0  0  0  0  0  0  0  0999 V2000
  -12.8672  -29.4661  -25.5558 C   0  0  0  0  0  0  0  0  0  0  0  0
  -14.2022  -28.7895  -25.3687 C   0  0  0  0  0  0  0  0  0  0  0  0
  -14.6855  -28.1981  -26.6829 C   0  0  0  0  0  0  0  0  0  0  0  0
  -13.5513  -27.4248  -27.3468 C   0  0  0  0  0  0  0  0  0  0  0  0
  -12.4286  -28.3767  -27.7625 C   0  0  0  0  0  0  0  0  0  0  0  0
  -12.4423  -30.2327  -24.7143 O   0  0  0  0  0  0  0  0  0  0  0  0
  -15.1832  -29.6914  -24.8388 O   0  0  0  0  0  0  0  0  0  0  0  0
  -15.7721  -27.3106  -26.4102 O   0  0  0  0  0  0  0  0  0  0  0  0
  -13.0459  -26.4301  -26.4443 O   0  0  0  0  0  0  0  0  0  0  0  0
  -12.0098  -29.2527  -26.7118 O   0  0  0  0  0  0  0  0  0  0  0  0
  -15.3247  -30.4192  -25.4643 H   0  0  0  0  0  0  0  0  0  0  0  0
  -15.4723  -26.6058  -25.8150 H   0  0  0  0  0  0  0  0  0  0  0  0
  -12.7010  -26.8621  -25.6472 H   0  0  0  0  0  0  0  0  0  0  0  0
  -11.1804  -27.6123  -28.1806 C   0  0  0  0  0  0  0  0  0  0  0  0
  -10.3087  -27.4538  -27.0628 O   0  0  0  0  0  0  0  0  0  0  0  0
  -10.7646  -26.9576  -26.3650 H   0  0  0  0  0  0  0  0  0  0  0  0
  1  2  1  0  0  0
  1  6  2  0  0  0
  1 10  1  0  0  0
  2  3  1  0  0  0
  2  7  1  0  0  0
  3  4  1  0  0  0
  3  8  1  0  0  0
  4  5  1  0  0  0
  4  9  1  0  0  0
  5 14  1  0  0  0
  5 10  1  0  0  0
 14 15  1  0  0  0
  7 11  1  0  0  0
  8 12  1  0  0  0
  9 13  1  0  0  0
 15 16  1  0  0  0
M  END
> <minimizedAffinity>
-6.23532

$$$$
3T0D_149_A_2001


 16 16  0  0  0  0  0  0  0  0999 V2000
  -11.6545  -27.5851  -25.6423 C   0  0  0  0  0  0  0  0  0  0  0  0
  -11.2994  -28.1173  -27.0081 C   0  0  0  0  0  0  0  0  0  0  0  0
  -12.4833  -27.9860  -27.9524 C   0  0  0  0  0  0  0  0  0  0  0  0
  -13.7470  -28.4938  -27.2665 C   0  0  0  0  0  0  0  0  0  0  0  0
  -14.1141  -27.5903  -26.0883 C   0  0  0  0  0  0  0  0  0  0  0  0
  -10.7832  -27.3397  -24.8316 O   0  0  0  0  0  0  0  0  0  0  0  0
  -10.1521  -27.4521  -27.5538 O   0  0  0  0  0  0  0  0  0  0  0  0
  -12.2249  -28.7715  -29.1181 O   0  0  0  0  0  0  0  0  0  0  0  0
  -13.5474  -29.8404  -26.8123 O   0  0  0  0  0  0  0  0  0  0  0  0
  -13.0196  -27.3431  -25.2008 O   0  0  0  0  0  0  0  0  0  0  0  0
  -10.3477  -26.5085  -27.6646 H   0  0  0  0  0  0  0  0  0  0  0  0
  -12.1009  -29.6989  -28.8621 H   0  0  0  0  0  0  0  0  0  0  0  0
  -12.8184  -29.8612  -26.1728 H   0  0  0  0  0  0  0  0  0  0  0  0
  -15.2046  -28.2153  -25.2297 C   0  0  0  0  0  0  0  0  0  0  0  0
  -16.0927  -28.9755  -26.0469 O   0  0  0  0  0  0  0  0  0  0  0  0
  -16.5033  -28.3941  -26.7059 H   0  0  0  0  0  0  0  0  0  0  0  0
  1  2  1  0  0  0
  1  6  2  0  0  0
  1 10  1  0  0  0
  2  3  1  0  0  0
  2  7  1  0  0  0
  3  4  1  0  0  0
  3  8  1  0  0  0
  4  5  1  0  0  0
  4  9  1  0  0  0
  5 14  1  0  0  0
  5 10  1  0  0  0
 14 15  1  0  0  0
  7 11  1  0  0  0
  8 12  1  0  0  0
  9 13  1  0  0  0
 15 16  1  0  0  0
M  END
> <minimizedAffinity>
-6.01886

$$$$
3T0D_149_A_2001


 16 16  0  0  0  0  0  0  0  0999 V2000
  -12.4906  -28.3477  -27.8504 C   0  0  0  0  0  0  0  0  0  0  0  0
  -11.6118  -27.4136  -27.0567 C   0  0  0  0  0  0  0  0  0  0  0  0
  -11.8411  -27.6079  -25.5667 C   0  0  0  0  0  0  0  0  0  0  0  0
  -13.3379  -27.6400  -25.2768 C   0  0  0  0  0  0  0  0  0  0  0  0
  -13.9778  -28.8755  -25.9118 C   0  0  0  0  0  0  0  0  0  0  0  0
  -12.2668  -28.5525  -29.0271 O   0  0  0  0  0  0  0  0  0  0  0  0
  -10.2248  -27.5941  -27.3738 O   0  0  0  0  0  0  0  0  0  0  0  0
  -11.2434  -26.5139  -24.8678 O   0  0  0  0  0  0  0  0  0  0  0  0
  -13.9578  -26.4484  -25.7820 O   0  0  0  0  0  0  0  0  0  0  0  0
  -13.6403  -29.0428  -27.2920 O   0  0  0  0  0  0  0  0  0  0  0  0
   -9.9547  -28.4961  -27.1411 H   0  0  0  0  0  0  0  0  0  0  0  0
  -11.6459  -25.6825  -25.1638 H   0  0  0  0  0  0  0  0  0  0  0  0
  -13.8295  -26.3994  -26.7422 H   0  0  0  0  0  0  0  0  0  0  0  0
  -15.4973  -28.7968  -25.8683 C   0  0  0  0  0  0  0  0  0  0  0  0
  -15.9676  -27.8972  -26.8703 O   0  0  0  0  0  0  0  0  0  0  0  0
  -15.6005  -27.0138  -26.7098 H   0  0  0  0  0  0  0  0  0  0  0  0
  1  2  1  0  0  0
  1  6  2  0  0  0
  1 10  1  0  0  0
  2  3  1  0  0  0
  2  7  1  0  0  0
  3  4  1  0  0  0
  3  8  1  0  0  0
  4  5  1  0  0  0
  4  9  1  0  0  0
  5 14  1  0  0  0
  5 10  1  0  0  0
 14 15  1  0  0  0
  7 11  1  0  0  0
  8 12  1  0  0  0
  9 13  1  0  0  0
 15 16  1  0  0  0
M  END
> <minimizedAffinity>
-5.87091

$$$$
3T0D_149_A_2001


 16 16  0  0  0  0  0  0  0  0999 V2000
  -10.1390  -29.4979  -26.4388 C   0  0  0  0  0  0  0  0  0  0  0  0
  -10.0601  -28.3435  -25.4714 C   0  0  0  0  0  0  0  0  0  0  0  0
  -11.4030  -27.6376  -25.3777 C   0  0  0  0  0  0  0  0  0  0  0  0
  -11.9538  -27.3923  -26.7783 C   0  0  0  0  0  0  0  0  0  0  0  0
  -12.2830  -28.7203  -27.4620 C   0  0  0  0  0  0  0  0  0  0  0  0
   -9.2745  -30.3517  -26.4502 O   0  0  0  0  0  0  0  0  0  0  0  0
   -9.6311  -28.7705  -24.1712 O   0  0  0  0  0  0  0  0  0  0  0  0
  -11.2139  -26.3862  -24.7137 O   0  0  0  0  0  0  0  0  0  0  0  0
  -10.9963  -26.6603  -27.5572 O   0  0  0  0  0  0  0  0  0  0  0  0
  -11.2122  -29.6673  -27.4065 O   0  0  0  0  0  0  0  0  0  0  0  0
  -10.2770  -29.3958  -23.8069 H   0  0  0  0  0  0  0  0  0  0  0  0
  -10.5847  -25.8454  -25.2162 H   0  0  0  0  0  0  0  0  0  0  0  0
  -10.1783  -27.1762  -27.6322 H   0  0  0  0  0  0  0  0  0  0  0  0
  -12.5790  -28.5229  -28.9420 C   0  0  0  0  0  0  0  0  0  0  0  0
  -11.4586  -28.9354  -29.7224 O   0  0  0  0  0  0  0  0  0  0  0  0
  -10.6836  -28.4042  -29.4814 H   0  0  0  0  0  0  0  0  0  0  0  0
  1  2  1  0  0  0
  1  6  2  0  0  0
  1 10  1  0  0  0
  2  3  1  0  0  0
  2  7  1  0  0  0
  3  4  1  0  0  0
  3  8  1  0  0  0
  4  5  1  0  0  0
  4  9  1  0  0  0
  5 14  1  0  0  0
  5 10  1  0  0  0
 14 15  1  0  0  0
  7 11  1  0  0  0
  8 12  1  0  0  0
  9 13  1  0  0  0
 15 16  1  0  0  0
M  END
> <minimizedAffinity>
-5.79096

$$$$
3T0D_149_A_2001


 16 16  0  0  0  0  0  0  0  0999 V2000
  -12.5710  -27.5109  -27.4714 C   0  0  0  0  0  0  0  0  0  0  0  0
  -13.7867  -28.2544  -26.9773 C   0  0  0  0  0  0  0  0  0  0  0  0
  -13.6581  -28.5532  -25.4925 C   0  0  0  0  0  0  0  0  0  0  0  0
  -12.2739  -29.1225  -25.2005 C   0  0  0  0  0  0  0  0  0  0  0  0
  -11.1977  -28.0665  -25.4580 C   0  0  0  0  0  0  0  0  0  0  0  0
  -12.5932  -26.9378  -28.5427 O   0  0  0  0  0  0  0  0  0  0  0  0
  -14.9944  -27.5250  -27.2348 O   0  0  0  0  0  0  0  0  0  0  0  0
  -14.6540  -29.5134  -25.1336 O   0  0  0  0  0  0  0  0  0  0  0  0
  -12.0387  -30.2766  -26.0203 O   0  0  0  0  0  0  0  0  0  0  0  0
  -11.3183  -27.4338  -26.7354 O   0  0  0  0  0  0  0  0  0  0  0  0
  -14.9705  -26.6811  -26.7571 H   0  0  0  0  0  0  0  0  0  0  0  0
  -14.5239  -30.3232  -25.6515 H   0  0  0  0  0  0  0  0  0  0  0  0
  -12.0780  -30.0223  -26.9556 H   0  0  0  0  0  0  0  0  0  0  0  0
   -9.8042  -28.6783  -25.4337 C   0  0  0  0  0  0  0  0  0  0  0  0
   -9.7009  -29.6132  -24.3613 O   0  0  0  0  0  0  0  0  0  0  0  0
   -9.8615  -29.1586  -23.5196 H   0  0  0  0  0  0  0  0  0  0  0  0
  1  2  1  0  0  0
  1  6  2  0  0  0
  1 10  1  0  0  0
  2  3  1  0  0  0
  2  7  1  0  0  0
  3  4  1  0  0  0
  3  8  1  0  0  0
  4  5  1  0  0  0
  4  9  1  0  0  0
  5 14  1  0  0  0
  5 10  1  0  0  0
 14 15  1  0  0  0
  7 11  1  0  0  0
  8 12  1  0  0  0
  9 13  1  0  0  0
 15 16  1  0  0  0
M  END
> <minimizedAffinity>
-5.78802

$$$$
