3Q7Q_GNP_A_1


 42 44  0  0  0  0  0  0  0  0999 V2000
   -1.9923  -19.6335    6.6858 C   0  0  0  0  0  0  0  0  0  0  0  0
   -0.5726  -19.8850    6.8206 O   0  0  0  0  0  0  0  0  0  0  0  0
   -2.4927  -19.2881    8.0840 C   0  0  0  0  0  0  0  0  0  0  0  0
   -2.9895  -20.4530    8.7224 O   0  0  0  0  0  0  0  0  0  0  0  0
   -1.2402  -18.7932    8.7915 C   0  0  0  0  0  0  0  0  0  0  0  0
   -1.3137  -19.0023   10.1899 O   0  0  0  0  0  0  0  0  0  0  0  0
   -0.1884  -19.7010    8.1679 C   0  0  0  0  0  0  0  0  0  0  0  0
   -2.2966  -21.1315    8.7419 H   0  0  0  0  0  0  0  0  0  0  0  0
   -1.4781  -19.9415   10.3681 H   0  0  0  0  0  0  0  0  0  0  0  0
    1.1580  -19.1397    8.1774 N   0  0  0  0  0  0  0  0  0  0  0  0
    1.5704  -17.9416    7.6483 C   0  0  0  0  0  0  0  0  0  0  0  0
    2.8468  -17.7229    7.8123 N   0  0  0  0  0  0  0  0  0  0  0  0
    3.3087  -18.8464    8.4896 C   0  0  0  0  0  0  0  0  0  0  0  0
    4.6053  -19.1832    8.9447 C   0  0  0  0  0  0  0  0  0  0  0  0
    5.6503  -18.5286    8.8380 O   0  0  0  0  0  0  0  0  0  0  0  0
    4.6217  -20.4235    9.5796 N   0  0  0  0  0  0  0  0  0  0  0  0
    3.5238  -21.2333    9.7578 C   0  0  0  0  0  0  0  0  0  0  0  0
    3.7261  -22.3918   10.3978 N   0  0  0  0  0  0  0  0  0  0  0  0
    2.3051  -20.9320    9.3401 N   0  0  0  0  0  0  0  0  0  0  0  0
    2.2756  -19.7277    8.7196 C   0  0  0  0  0  0  0  0  0  0  0  0
    5.4849  -20.7449    9.9272 H   0  0  0  0  0  0  0  0  0  0  0  0
    4.6279  -22.6286   10.7140 H   0  0  0  0  0  0  0  0  0  0  0  0
    2.9731  -23.0070   10.5522 H   0  0  0  0  0  0  0  0  0  0  0  0
   -2.2150  -18.5665    5.6305 C   0  0  0  0  0  0  0  0  0  0  0  0
   -2.5428  -17.3217    6.2209 O   0  0  0  0  0  0  0  0  0  0  0  0
   -2.3206  -16.0059    5.3858 P   0  0  0  0  0  0  0  0  0  0  0  0
   -3.6616  -15.4785    5.0534 O   0  0  0  0  0  0  0  0  0  0  0  0
   -1.4098  -15.1317    6.1511 O   0  0  0  0  0  0  0  0  0  0  0  0
   -1.2567  -14.3117    5.6560 H   0  0  0  0  0  0  0  0  0  0  0  0
   -1.6736  -16.4504    4.0841 O   0  0  0  0  0  0  0  0  0  0  0  0
   -1.9551  -15.7330    2.7742 P   0  0  0  0  0  0  0  0  0  0  0  0
   -0.8405  -16.0756    1.8609 O   0  0  0  0  0  0  0  0  0  0  0  0
   -2.1576  -14.3060    3.1134 O   0  0  0  0  0  0  0  0  0  0  0  0
   -2.3415  -13.8042    2.3039 H   0  0  0  0  0  0  0  0  0  0  0  0
   -3.3151  -16.3396    2.2237 N   0  0  0  0  0  0  0  0  0  0  0  0
   -3.0409  -17.1028    1.6051 H   0  0  0  0  0  0  0  0  0  0  0  0
   -4.4227  -15.5269    1.4263 P   0  0  0  0  0  0  0  0  0  0  0  0
   -3.7701  -14.4356    0.6096 O   0  0  0  0  0  0  0  0  0  0  0  0
   -5.1779  -16.5725    0.6413 O   0  0  0  0  0  0  0  0  0  0  0  0
   -5.2420  -14.7812    2.4373 O   0  0  0  0  0  0  0  0  0  0  0  0
   -5.8783  -16.1451    0.1240 H   0  0  0  0  0  0  0  0  0  0  0  0
   -5.9311  -14.2718    1.9828 H   0  0  0  0  0  0  0  0  0  0  0  0
 37 38  2  0  0  0
 37 39  1  0  0  0
 37 40  1  0  0  0
 37 35  1  0  0  0
 35 31  1  0  0  0
 31 32  2  0  0  0
 31 33  1  0  0  0
 31 30  1  0  0  0
 30 26  1  0  0  0
 26 27  2  0  0  0
 26 28  1  0  0  0
 26 25  1  0  0  0
 25 24  1  0  0  0
 24  1  1  0  0  0
  1  2  1  0  0  0
  1  3  1  0  0  0
  2  7  1  0  0  0
  3  4  1  0  0  0
  3  5  1  0  0  0
  5  6  1  0  0  0
  5  7  1  0  0  0
  7 10  1  0  0  0
 10 11  1  0  0  0
 10 20  1  0  0  0
 11 12  2  0  0  0
 12 13  1  0  0  0
 13 14  1  0  0  0
 13 20  2  0  0  0
 14 15  2  0  0  0
 14 16  1  0  0  0
 16 17  1  0  0  0
 17 18  1  0  0  0
 17 19  2  0  0  0
 19 20  1  0  0  0
 39 41  1  0  0  0
 40 42  1  0  0  0
 35 36  1  0  0  0
 33 34  1  0  0  0
 28 29  1  0  0  0
  4  8  1  0  0  0
  6  9  1  0  0  0
 16 21  1  0  0  0
 18 22  1  0  0  0
 18 23  1  0  0  0
M  END
> <minimizedAffinity>
-9.44447

$$$$
3Q7Q_GNP_A_1


 42 44  0  0  0  0  0  0  0  0999 V2000
   -2.0295  -19.7626    6.6091 C   0  0  0  0  0  0  0  0  0  0  0  0
   -0.5997  -19.9682    6.7109 O   0  0  0  0  0  0  0  0  0  0  0  0
   -2.5272  -19.5574    8.0355 C   0  0  0  0  0  0  0  0  0  0  0  0
   -2.9714  -20.7912    8.5760 O   0  0  0  0  0  0  0  0  0  0  0  0
   -1.2871  -19.0752    8.7729 C   0  0  0  0  0  0  0  0  0  0  0  0
   -1.3368  -19.4053   10.1489 O   0  0  0  0  0  0  0  0  0  0  0  0
   -0.2079  -19.8845    8.0659 C   0  0  0  0  0  0  0  0  0  0  0  0
   -2.2525  -21.4409    8.5321 H   0  0  0  0  0  0  0  0  0  0  0  0
   -1.4626  -20.3620   10.2476 H   0  0  0  0  0  0  0  0  0  0  0  0
    1.1157  -19.2730    8.1127 N   0  0  0  0  0  0  0  0  0  0  0  0
    1.4982  -18.0610    7.5928 C   0  0  0  0  0  0  0  0  0  0  0  0
    2.7602  -17.7945    7.7929 N   0  0  0  0  0  0  0  0  0  0  0  0
    3.2440  -18.8990    8.4860 C   0  0  0  0  0  0  0  0  0  0  0  0
    4.5387  -19.1864    8.9789 C   0  0  0  0  0  0  0  0  0  0  0  0
    5.5611  -18.4932    8.9008 O   0  0  0  0  0  0  0  0  0  0  0  0
    4.5831  -20.4244    9.6171 N   0  0  0  0  0  0  0  0  0  0  0  0
    3.5116  -21.2745    9.7656 C   0  0  0  0  0  0  0  0  0  0  0  0
    3.7386  -22.4237   10.4140 N   0  0  0  0  0  0  0  0  0  0  0  0
    2.2951  -21.0196    9.3123 N   0  0  0  0  0  0  0  0  0  0  0  0
    2.2384  -19.8180    8.6882 C   0  0  0  0  0  0  0  0  0  0  0  0
    5.4473  -20.7128    9.9902 H   0  0  0  0  0  0  0  0  0  0  0  0
    4.6391  -22.6261   10.7566 H   0  0  0  0  0  0  0  0  0  0  0  0
    3.0050  -23.0664   10.5482 H   0  0  0  0  0  0  0  0  0  0  0  0
   -2.3052  -18.6194    5.6505 C   0  0  0  0  0  0  0  0  0  0  0  0
   -3.5474  -18.7901    4.9923 O   0  0  0  0  0  0  0  0  0  0  0  0
   -4.7144  -17.7807    5.3042 P   0  0  0  0  0  0  0  0  0  0  0  0
   -5.7297  -18.5265    6.0787 O   0  0  0  0  0  0  0  0  0  0  0  0
   -4.1215  -16.5806    5.9268 O   0  0  0  0  0  0  0  0  0  0  0  0
   -4.8225  -15.9415    6.1291 H   0  0  0  0  0  0  0  0  0  0  0  0
   -5.3325  -17.4397    3.9580 O   0  0  0  0  0  0  0  0  0  0  0  0
   -4.7738  -16.3246    3.0894 P   0  0  0  0  0  0  0  0  0  0  0  0
   -5.0633  -15.0565    3.7978 O   0  0  0  0  0  0  0  0  0  0  0  0
   -5.3564  -16.5123    1.7412 O   0  0  0  0  0  0  0  0  0  0  0  0
   -5.0271  -15.8196    1.1474 H   0  0  0  0  0  0  0  0  0  0  0  0
   -3.2057  -16.5637    3.0212 N   0  0  0  0  0  0  0  0  0  0  0  0
   -2.9446  -16.9146    3.9427 H   0  0  0  0  0  0  0  0  0  0  0  0
   -2.1255  -15.4531    2.6705 P   0  0  0  0  0  0  0  0  0  0  0  0
   -0.9207  -16.0955    2.0226 O   0  0  0  0  0  0  0  0  0  0  0  0
   -2.8679  -14.4466    1.8246 O   0  0  0  0  0  0  0  0  0  0  0  0
   -1.5969  -14.9204    3.9690 O   0  0  0  0  0  0  0  0  0  0  0  0
   -2.2648  -13.7308    1.5699 H   0  0  0  0  0  0  0  0  0  0  0  0
   -0.9319  -14.2370    3.7913 H   0  0  0  0  0  0  0  0  0  0  0  0
 37 38  2  0  0  0
 37 39  1  0  0  0
 37 40  1  0  0  0
 37 35  1  0  0  0
 35 31  1  0  0  0
 31 32  2  0  0  0
 31 33  1  0  0  0
 31 30  1  0  0  0
 30 26  1  0  0  0
 26 27  2  0  0  0
 26 28  1  0  0  0
 26 25  1  0  0  0
 25 24  1  0  0  0
 24  1  1  0  0  0
  1  2  1  0  0  0
  1  3  1  0  0  0
  2  7  1  0  0  0
  3  4  1  0  0  0
  3  5  1  0  0  0
  5  6  1  0  0  0
  5  7  1  0  0  0
  7 10  1  0  0  0
 10 11  1  0  0  0
 10 20  1  0  0  0
 11 12  2  0  0  0
 12 13  1  0  0  0
 13 14  1  0  0  0
 13 20  2  0  0  0
 14 15  2  0  0  0
 14 16  1  0  0  0
 16 17  1  0  0  0
 17 18  1  0  0  0
 17 19  2  0  0  0
 19 20  1  0  0  0
 39 41  1  0  0  0
 40 42  1  0  0  0
 35 36  1  0  0  0
 33 34  1  0  0  0
 28 29  1  0  0  0
  4  8  1  0  0  0
  6  9  1  0  0  0
 16 21  1  0  0  0
 18 22  1  0  0  0
 18 23  1  0  0  0
M  END
> <minimizedAffinity>
-8.59082

$$$$
3Q7Q_GNP_A_1


 42 44  0  0  0  0  0  0  0  0999 V2000
   -2.0849  -18.3707    6.0270 C   0  0  0  0  0  0  0  0  0  0  0  0
   -0.6910  -18.7544    6.1098 O   0  0  0  0  0  0  0  0  0  0  0  0
   -2.6716  -18.6170    7.4125 C   0  0  0  0  0  0  0  0  0  0  0  0
   -3.2634  -19.9048    7.4662 O   0  0  0  0  0  0  0  0  0  0  0  0
   -1.4546  -18.5581    8.3234 C   0  0  0  0  0  0  0  0  0  0  0  0
   -1.6398  -19.3351    9.4925 O   0  0  0  0  0  0  0  0  0  0  0  0
   -0.3995  -19.1869    7.4230 C   0  0  0  0  0  0  0  0  0  0  0  0
   -2.6034  -20.5742    7.2270 H   0  0  0  0  0  0  0  0  0  0  0  0
   -1.8568  -20.2472    9.2435 H   0  0  0  0  0  0  0  0  0  0  0  0
    0.9652  -18.7784    7.7369 N   0  0  0  0  0  0  0  0  0  0  0  0
    1.5615  -17.5708    7.4689 C   0  0  0  0  0  0  0  0  0  0  0  0
    2.8021  -17.5132    7.8704 N   0  0  0  0  0  0  0  0  0  0  0  0
    3.0433  -18.7603    8.4370 C   0  0  0  0  0  0  0  0  0  0  0  0
    4.2069  -19.2913    9.0418 C   0  0  0  0  0  0  0  0  0  0  0  0
    5.3043  -18.7433    9.2073 O   0  0  0  0  0  0  0  0  0  0  0  0
    4.0091  -20.6003    9.4767 N   0  0  0  0  0  0  0  0  0  0  0  0
    2.8345  -21.3052    9.3489 C   0  0  0  0  0  0  0  0  0  0  0  0
    2.8248  -22.5542    9.8315 N   0  0  0  0  0  0  0  0  0  0  0  0
    1.7378  -20.8226    8.7879 N   0  0  0  0  0  0  0  0  0  0  0  0
    1.9173  -19.5495    8.3596 C   0  0  0  0  0  0  0  0  0  0  0  0
    4.7679  -21.0556    9.9083 H   0  0  0  0  0  0  0  0  0  0  0  0
    3.6340  -22.9259   10.2515 H   0  0  0  0  0  0  0  0  0  0  0  0
    2.0086  -23.1008    9.7663 H   0  0  0  0  0  0  0  0  0  0  0  0
   -2.1835  -16.9440    5.5204 C   0  0  0  0  0  0  0  0  0  0  0  0
   -1.3666  -16.7469    4.3806 O   0  0  0  0  0  0  0  0  0  0  0  0
   -1.9446  -15.9268    3.1676 P   0  0  0  0  0  0  0  0  0  0  0  0
   -2.2101  -14.5591    3.6635 O   0  0  0  0  0  0  0  0  0  0  0  0
   -1.0116  -16.0764    2.0334 O   0  0  0  0  0  0  0  0  0  0  0  0
   -1.3466  -15.5786    1.2712 H   0  0  0  0  0  0  0  0  0  0  0  0
   -3.2885  -16.5607    2.8469 O   0  0  0  0  0  0  0  0  0  0  0  0
   -4.1965  -15.9906    1.7698 P   0  0  0  0  0  0  0  0  0  0  0  0
   -4.8475  -17.1484    1.1144 O   0  0  0  0  0  0  0  0  0  0  0  0
   -3.3514  -15.1077    0.9339 O   0  0  0  0  0  0  0  0  0  0  0  0
   -3.8905  -14.7180    0.2279 H   0  0  0  0  0  0  0  0  0  0  0  0
   -5.2817  -15.1140    2.5279 N   0  0  0  0  0  0  0  0  0  0  0  0
   -4.8762  -14.1806    2.5971 H   0  0  0  0  0  0  0  0  0  0  0  0
   -5.8661  -15.4286    3.9710 P   0  0  0  0  0  0  0  0  0  0  0  0
   -7.1729  -14.6951    4.1667 O   0  0  0  0  0  0  0  0  0  0  0  0
   -5.9423  -16.9351    4.0362 O   0  0  0  0  0  0  0  0  0  0  0  0
   -4.9441  -14.7982    4.9719 O   0  0  0  0  0  0  0  0  0  0  0  0
   -6.2944  -17.2040    4.8991 H   0  0  0  0  0  0  0  0  0  0  0  0
   -5.2725  -14.9715    5.8681 H   0  0  0  0  0  0  0  0  0  0  0  0
 37 38  2  0  0  0
 37 39  1  0  0  0
 37 40  1  0  0  0
 37 35  1  0  0  0
 35 31  1  0  0  0
 31 32  2  0  0  0
 31 33  1  0  0  0
 31 30  1  0  0  0
 30 26  1  0  0  0
 26 27  2  0  0  0
 26 28  1  0  0  0
 26 25  1  0  0  0
 25 24  1  0  0  0
 24  1  1  0  0  0
  1  2  1  0  0  0
  1  3  1  0  0  0
  2  7  1  0  0  0
  3  4  1  0  0  0
  3  5  1  0  0  0
  5  6  1  0  0  0
  5  7  1  0  0  0
  7 10  1  0  0  0
 10 11  1  0  0  0
 10 20  1  0  0  0
 11 12  2  0  0  0
 12 13  1  0  0  0
 13 14  1  0  0  0
 13 20  2  0  0  0
 14 15  2  0  0  0
 14 16  1  0  0  0
 16 17  1  0  0  0
 17 18  1  0  0  0
 17 19  2  0  0  0
 19 20  1  0  0  0
 39 41  1  0  0  0
 40 42  1  0  0  0
 35 36  1  0  0  0
 33 34  1  0  0  0
 28 29  1  0  0  0
  4  8  1  0  0  0
  6  9  1  0  0  0
 16 21  1  0  0  0
 18 22  1  0  0  0
 18 23  1  0  0  0
M  END
> <minimizedAffinity>
-8.32461

$$$$
3Q7Q_GNP_A_1


 42 44  0  0  0  0  0  0  0  0999 V2000
   -4.2720  -17.1375    7.9778 C   0  0  0  0  0  0  0  0  0  0  0  0
   -3.1422  -18.0221    8.1731 O   0  0  0  0  0  0  0  0  0  0  0  0
   -3.9493  -15.8658    8.7546 C   0  0  0  0  0  0  0  0  0  0  0  0
   -4.5159  -15.9340   10.0529 O   0  0  0  0  0  0  0  0  0  0  0  0
   -2.4306  -15.8844    8.8409 C   0  0  0  0  0  0  0  0  0  0  0  0
   -1.9644  -15.1914    9.9842 O   0  0  0  0  0  0  0  0  0  0  0  0
   -2.1757  -17.3796    8.9791 C   0  0  0  0  0  0  0  0  0  0  0  0
   -4.1920  -16.7283   10.5058 H   0  0  0  0  0  0  0  0  0  0  0  0
   -2.3728  -15.5679   10.7794 H   0  0  0  0  0  0  0  0  0  0  0  0
   -0.8570  -17.7996    8.5183 N   0  0  0  0  0  0  0  0  0  0  0  0
   -0.5317  -18.3637    7.3093 C   0  0  0  0  0  0  0  0  0  0  0  0
    0.7400  -18.6360    7.1981 N   0  0  0  0  0  0  0  0  0  0  0  0
    1.2906  -18.2295    8.4088 C   0  0  0  0  0  0  0  0  0  0  0  0
    2.6250  -18.2702    8.8773 C   0  0  0  0  0  0  0  0  0  0  0  0
    3.6316  -18.6897    8.2919 O   0  0  0  0  0  0  0  0  0  0  0  0
    2.7328  -17.7573   10.1685 N   0  0  0  0  0  0  0  0  0  0  0  0
    1.6856  -17.2621   10.9108 C   0  0  0  0  0  0  0  0  0  0  0  0
    1.9773  -16.8034   12.1345 N   0  0  0  0  0  0  0  0  0  0  0  0
    0.4333  -17.2154   10.4866 N   0  0  0  0  0  0  0  0  0  0  0  0
    0.3146  -17.7126    9.2315 C   0  0  0  0  0  0  0  0  0  0  0  0
    3.6267  -17.7485   10.5810 H   0  0  0  0  0  0  0  0  0  0  0  0
    2.9050  -16.8321   12.4628 H   0  0  0  0  0  0  0  0  0  0  0  0
    1.2640  -16.4373   12.7059 H   0  0  0  0  0  0  0  0  0  0  0  0
   -4.5127  -16.9514    6.4915 C   0  0  0  0  0  0  0  0  0  0  0  0
   -3.2942  -16.9569    5.7700 O   0  0  0  0  0  0  0  0  0  0  0  0
   -2.9632  -15.7352    4.8340 P   0  0  0  0  0  0  0  0  0  0  0  0
   -4.1321  -14.8306    4.8817 O   0  0  0  0  0  0  0  0  0  0  0  0
   -1.6554  -15.1889    5.2470 O   0  0  0  0  0  0  0  0  0  0  0  0
   -1.4283  -14.4327    4.6836 H   0  0  0  0  0  0  0  0  0  0  0  0
   -2.8890  -16.3049    3.4267 O   0  0  0  0  0  0  0  0  0  0  0  0
   -2.2438  -15.5283    2.2907 P   0  0  0  0  0  0  0  0  0  0  0  0
   -0.8862  -16.0937    2.1145 O   0  0  0  0  0  0  0  0  0  0  0  0
   -2.3554  -14.0954    2.6467 O   0  0  0  0  0  0  0  0  0  0  0  0
   -1.9547  -13.5562    1.9469 H   0  0  0  0  0  0  0  0  0  0  0  0
   -3.1252  -15.8191    1.0026 N   0  0  0  0  0  0  0  0  0  0  0  0
   -2.4940  -15.7022    0.2100 H   0  0  0  0  0  0  0  0  0  0  0  0
   -4.4505  -15.0386    0.6058 P   0  0  0  0  0  0  0  0  0  0  0  0
   -5.1806  -15.7880   -0.4847 O   0  0  0  0  0  0  0  0  0  0  0  0
   -5.2026  -14.8706    1.9042 O   0  0  0  0  0  0  0  0  0  0  0  0
   -4.0325  -13.7577   -0.0531 O   0  0  0  0  0  0  0  0  0  0  0  0
   -6.0325  -14.3967    1.7382 H   0  0  0  0  0  0  0  0  0  0  0  0
   -4.8207  -13.2538   -0.3095 H   0  0  0  0  0  0  0  0  0  0  0  0
 37 38  2  0  0  0
 37 39  1  0  0  0
 37 40  1  0  0  0
 37 35  1  0  0  0
 35 31  1  0  0  0
 31 32  2  0  0  0
 31 33  1  0  0  0
 31 30  1  0  0  0
 30 26  1  0  0  0
 26 27  2  0  0  0
 26 28  1  0  0  0
 26 25  1  0  0  0
 25 24  1  0  0  0
 24  1  1  0  0  0
  1  2  1  0  0  0
  1  3  1  0  0  0
  2  7  1  0  0  0
  3  4  1  0  0  0
  3  5  1  0  0  0
  5  6  1  0  0  0
  5  7  1  0  0  0
  7 10  1  0  0  0
 10 11  1  0  0  0
 10 20  1  0  0  0
 11 12  2  0  0  0
 12 13  1  0  0  0
 13 14  1  0  0  0
 13 20  2  0  0  0
 14 15  2  0  0  0
 14 16  1  0  0  0
 16 17  1  0  0  0
 17 18  1  0  0  0
 17 19  2  0  0  0
 19 20  1  0  0  0
 39 41  1  0  0  0
 40 42  1  0  0  0
 35 36  1  0  0  0
 33 34  1  0  0  0
 28 29  1  0  0  0
  4  8  1  0  0  0
  6  9  1  0  0  0
 16 21  1  0  0  0
 18 22  1  0  0  0
 18 23  1  0  0  0
M  END
> <minimizedAffinity>
-8.12612

$$$$
3Q7Q_GNP_A_1


 42 44  0  0  0  0  0  0  0  0999 V2000
   -2.1812  -17.0690    5.4769 C   0  0  0  0  0  0  0  0  0  0  0  0
   -1.1353  -17.2055    6.4692 O   0  0  0  0  0  0  0  0  0  0  0  0
   -3.3301  -17.9508    5.9532 C   0  0  0  0  0  0  0  0  0  0  0  0
   -3.2390  -19.2321    5.3519 O   0  0  0  0  0  0  0  0  0  0  0  0
   -3.0935  -18.0543    7.4524 C   0  0  0  0  0  0  0  0  0  0  0  0
   -3.6224  -19.2561    7.9823 O   0  0  0  0  0  0  0  0  0  0  0  0
   -1.5713  -18.0733    7.4955 C   0  0  0  0  0  0  0  0  0  0  0  0
   -2.3741  -19.6227    5.5526 H   0  0  0  0  0  0  0  0  0  0  0  0
   -3.2448  -20.0127    7.5072 H   0  0  0  0  0  0  0  0  0  0  0  0
   -1.0095  -17.5963    8.7545 N   0  0  0  0  0  0  0  0  0  0  0  0
   -1.6427  -16.8716    9.7339 C   0  0  0  0  0  0  0  0  0  0  0  0
   -0.8655  -16.5892   10.7438 N   0  0  0  0  0  0  0  0  0  0  0  0
    0.3586  -17.1598   10.4118 C   0  0  0  0  0  0  0  0  0  0  0  0
    1.5866  -17.1867   11.1139 C   0  0  0  0  0  0  0  0  0  0  0  0
    1.8508  -16.6926   12.2175 O   0  0  0  0  0  0  0  0  0  0  0  0
    2.5701  -17.8730   10.4042 N   0  0  0  0  0  0  0  0  0  0  0  0
    2.3889  -18.4637    9.1749 C   0  0  0  0  0  0  0  0  0  0  0  0
    3.4477  -19.0873    8.6433 N   0  0  0  0  0  0  0  0  0  0  0  0
    1.2471  -18.4489    8.5067 N   0  0  0  0  0  0  0  0  0  0  0  0
    0.2818  -17.7832    9.1861 C   0  0  0  0  0  0  0  0  0  0  0  0
    3.4628  -17.9404   10.8138 H   0  0  0  0  0  0  0  0  0  0  0  0
    4.3035  -19.1060    9.1297 H   0  0  0  0  0  0  0  0  0  0  0  0
    3.3706  -19.5273    7.7659 H   0  0  0  0  0  0  0  0  0  0  0  0
   -2.5158  -15.5999    5.2994 C   0  0  0  0  0  0  0  0  0  0  0  0
   -1.7086  -15.0073    4.2981 O   0  0  0  0  0  0  0  0  0  0  0  0
   -2.1578  -15.1278    2.7941 P   0  0  0  0  0  0  0  0  0  0  0  0
   -2.1609  -13.7576    2.2375 O   0  0  0  0  0  0  0  0  0  0  0  0
   -1.2937  -16.1314    2.1419 O   0  0  0  0  0  0  0  0  0  0  0  0
   -1.5514  -16.2241    1.2114 H   0  0  0  0  0  0  0  0  0  0  0  0
   -3.6009  -15.6035    2.8338 O   0  0  0  0  0  0  0  0  0  0  0  0
   -4.3404  -15.9974    1.5658 P   0  0  0  0  0  0  0  0  0  0  0  0
   -4.8965  -17.3487    1.8075 O   0  0  0  0  0  0  0  0  0  0  0  0
   -3.3781  -15.8345    0.4522 O   0  0  0  0  0  0  0  0  0  0  0  0
   -3.8071  -16.0757   -0.3837 H   0  0  0  0  0  0  0  0  0  0  0  0
   -5.5186  -14.9463    1.3990 N   0  0  0  0  0  0  0  0  0  0  0  0
   -6.3625  -15.5037    1.2664 H   0  0  0  0  0  0  0  0  0  0  0  0
   -5.5826  -13.8124    0.2885 P   0  0  0  0  0  0  0  0  0  0  0  0
   -5.3293  -14.4139   -1.0745 O   0  0  0  0  0  0  0  0  0  0  0  0
   -6.9317  -13.1617    0.4790 O   0  0  0  0  0  0  0  0  0  0  0  0
   -4.4073  -12.9070    0.5084 O   0  0  0  0  0  0  0  0  0  0  0  0
   -7.0428  -12.4512   -0.1719 H   0  0  0  0  0  0  0  0  0  0  0  0
   -4.4153  -12.1998   -0.1554 H   0  0  0  0  0  0  0  0  0  0  0  0
 37 38  2  0  0  0
 37 39  1  0  0  0
 37 40  1  0  0  0
 37 35  1  0  0  0
 35 31  1  0  0  0
 31 32  2  0  0  0
 31 33  1  0  0  0
 31 30  1  0  0  0
 30 26  1  0  0  0
 26 27  2  0  0  0
 26 28  1  0  0  0
 26 25  1  0  0  0
 25 24  1  0  0  0
 24  1  1  0  0  0
  1  2  1  0  0  0
  1  3  1  0  0  0
  2  7  1  0  0  0
  3  4  1  0  0  0
  3  5  1  0  0  0
  5  6  1  0  0  0
  5  7  1  0  0  0
  7 10  1  0  0  0
 10 11  1  0  0  0
 10 20  1  0  0  0
 11 12  2  0  0  0
 12 13  1  0  0  0
 13 14  1  0  0  0
 13 20  2  0  0  0
 14 15  2  0  0  0
 14 16  1  0  0  0
 16 17  1  0  0  0
 17 18  1  0  0  0
 17 19  2  0  0  0
 19 20  1  0  0  0
 39 41  1  0  0  0
 40 42  1  0  0  0
 35 36  1  0  0  0
 33 34  1  0  0  0
 28 29  1  0  0  0
  4  8  1  0  0  0
  6  9  1  0  0  0
 16 21  1  0  0  0
 18 22  1  0  0  0
 18 23  1  0  0  0
M  END
> <minimizedAffinity>
-8.02864

$$$$
3Q7Q_GNP_A_1


 42 44  0  0  0  0  0  0  0  0999 V2000
   -1.3545  -18.0058    5.6650 C   0  0  0  0  0  0  0  0  0  0  0  0
   -0.7728  -17.3437    6.8141 O   0  0  0  0  0  0  0  0  0  0  0  0
   -1.9989  -19.2813    6.1965 C   0  0  0  0  0  0  0  0  0  0  0  0
   -1.0936  -20.3667    6.0796 O   0  0  0  0  0  0  0  0  0  0  0  0
   -2.2514  -18.9613    7.6622 C   0  0  0  0  0  0  0  0  0  0  0  0
   -2.2566  -20.1320    8.4584 O   0  0  0  0  0  0  0  0  0  0  0  0
   -1.0322  -18.1044    7.9762 C   0  0  0  0  0  0  0  0  0  0  0  0
   -0.2709  -20.1534    6.5471 H   0  0  0  0  0  0  0  0  0  0  0  0
   -1.4220  -20.6107    8.3351 H   0  0  0  0  0  0  0  0  0  0  0  0
   -1.2312  -17.1765    9.0841 N   0  0  0  0  0  0  0  0  0  0  0  0
   -1.9872  -16.0302    9.0920 C   0  0  0  0  0  0  0  0  0  0  0  0
   -1.9605  -15.4084   10.2394 N   0  0  0  0  0  0  0  0  0  0  0  0
   -1.1340  -16.1896   11.0400 C   0  0  0  0  0  0  0  0  0  0  0  0
   -0.7276  -16.0265   12.3854 C   0  0  0  0  0  0  0  0  0  0  0  0
   -1.0301  -15.1220   13.1743 O   0  0  0  0  0  0  0  0  0  0  0  0
    0.1195  -17.0542   12.7952 N   0  0  0  0  0  0  0  0  0  0  0  0
    0.5188  -18.1091   12.0074 C   0  0  0  0  0  0  0  0  0  0  0  0
    1.3331  -19.0095   12.5721 N   0  0  0  0  0  0  0  0  0  0  0  0
    0.1464  -18.2768   10.7490 N   0  0  0  0  0  0  0  0  0  0  0  0
   -0.6776  -17.2827   10.3375 C   0  0  0  0  0  0  0  0  0  0  0  0
    0.4581  -17.0231   13.7191 H   0  0  0  0  0  0  0  0  0  0  0  0
    1.6180  -18.8970   13.5078 H   0  0  0  0  0  0  0  0  0  0  0  0
    1.6470  -19.7841   12.0518 H   0  0  0  0  0  0  0  0  0  0  0  0
   -2.2921  -17.0474    4.9549 C   0  0  0  0  0  0  0  0  0  0  0  0
   -1.5722  -16.0362    4.2734 O   0  0  0  0  0  0  0  0  0  0  0  0
   -2.0260  -15.6318    2.8212 P   0  0  0  0  0  0  0  0  0  0  0  0
   -2.3852  -14.1981    2.8689 O   0  0  0  0  0  0  0  0  0  0  0  0
   -0.9623  -16.0419    1.8832 O   0  0  0  0  0  0  0  0  0  0  0  0
   -1.2190  -15.8029    0.9788 H   0  0  0  0  0  0  0  0  0  0  0  0
   -3.3049  -16.4105    2.5593 O   0  0  0  0  0  0  0  0  0  0  0  0
   -4.2967  -15.9700    1.4953 P   0  0  0  0  0  0  0  0  0  0  0  0
   -4.8666  -17.2080    0.9153 O   0  0  0  0  0  0  0  0  0  0  0  0
   -3.5620  -15.0569    0.5904 O   0  0  0  0  0  0  0  0  0  0  0  0
   -4.1575  -14.7474   -0.1100 H   0  0  0  0  0  0  0  0  0  0  0  0
   -5.4271  -15.1561    2.2572 N   0  0  0  0  0  0  0  0  0  0  0  0
   -5.1148  -14.1852    2.2484 H   0  0  0  0  0  0  0  0  0  0  0  0
   -5.9069  -15.4320    3.7461 P   0  0  0  0  0  0  0  0  0  0  0  0
   -7.2361  -14.7558    3.9906 O   0  0  0  0  0  0  0  0  0  0  0  0
   -5.9002  -16.9358    3.8811 O   0  0  0  0  0  0  0  0  0  0  0  0
   -4.9608  -14.7109    4.6596 O   0  0  0  0  0  0  0  0  0  0  0  0
   -6.1856  -17.1815    4.7750 H   0  0  0  0  0  0  0  0  0  0  0  0
   -5.2255  -14.8585    5.5811 H   0  0  0  0  0  0  0  0  0  0  0  0
 37 38  2  0  0  0
 37 39  1  0  0  0
 37 40  1  0  0  0
 37 35  1  0  0  0
 35 31  1  0  0  0
 31 32  2  0  0  0
 31 33  1  0  0  0
 31 30  1  0  0  0
 30 26  1  0  0  0
 26 27  2  0  0  0
 26 28  1  0  0  0
 26 25  1  0  0  0
 25 24  1  0  0  0
 24  1  1  0  0  0
  1  2  1  0  0  0
  1  3  1  0  0  0
  2  7  1  0  0  0
  3  4  1  0  0  0
  3  5  1  0  0  0
  5  6  1  0  0  0
  5  7  1  0  0  0
  7 10  1  0  0  0
 10 11  1  0  0  0
 10 20  1  0  0  0
 11 12  2  0  0  0
 12 13  1  0  0  0
 13 14  1  0  0  0
 13 20  2  0  0  0
 14 15  2  0  0  0
 14 16  1  0  0  0
 16 17  1  0  0  0
 17 18  1  0  0  0
 17 19  2  0  0  0
 19 20  1  0  0  0
 39 41  1  0  0  0
 40 42  1  0  0  0
 35 36  1  0  0  0
 33 34  1  0  0  0
 28 29  1  0  0  0
  4  8  1  0  0  0
  6  9  1  0  0  0
 16 21  1  0  0  0
 18 22  1  0  0  0
 18 23  1  0  0  0
M  END
> <minimizedAffinity>
-7.96482

$$$$
3Q7Q_GNP_A_1


 42 44  0  0  0  0  0  0  0  0999 V2000
   -2.0713  -19.8835    6.8430 C   0  0  0  0  0  0  0  0  0  0  0  0
   -0.6366  -20.0745    6.8914 O   0  0  0  0  0  0  0  0  0  0  0  0
   -2.5131  -19.6515    8.2837 C   0  0  0  0  0  0  0  0  0  0  0  0
   -2.9234  -20.8769    8.8681 O   0  0  0  0  0  0  0  0  0  0  0  0
   -1.2489  -19.1426    8.9598 C   0  0  0  0  0  0  0  0  0  0  0  0
   -1.2402  -19.4428   10.3434 O   0  0  0  0  0  0  0  0  0  0  0  0
   -0.1914  -19.9577    8.2273 C   0  0  0  0  0  0  0  0  0  0  0  0
   -2.2007  -21.5212    8.8092 H   0  0  0  0  0  0  0  0  0  0  0  0
   -1.3528  -20.3982   10.4677 H   0  0  0  0  0  0  0  0  0  0  0  0
    1.1271  -19.3340    8.2074 N   0  0  0  0  0  0  0  0  0  0  0  0
    1.4784  -18.1340    7.6399 C   0  0  0  0  0  0  0  0  0  0  0  0
    2.7444  -17.8512    7.7851 N   0  0  0  0  0  0  0  0  0  0  0  0
    3.2642  -18.9316    8.4901 C   0  0  0  0  0  0  0  0  0  0  0  0
    4.5790  -19.1939    8.9421 C   0  0  0  0  0  0  0  0  0  0  0  0
    5.5912  -18.4947    8.8064 O   0  0  0  0  0  0  0  0  0  0  0  0
    4.6589  -20.4130    9.6124 N   0  0  0  0  0  0  0  0  0  0  0  0
    3.6018  -21.2676    9.8246 C   0  0  0  0  0  0  0  0  0  0  0  0
    3.8637  -22.3962   10.4959 N   0  0  0  0  0  0  0  0  0  0  0  0
    2.3669  -21.0360    9.4103 N   0  0  0  0  0  0  0  0  0  0  0  0
    2.2756  -19.8530    8.7555 C   0  0  0  0  0  0  0  0  0  0  0  0
    5.5391  -20.6834    9.9608 H   0  0  0  0  0  0  0  0  0  0  0  0
    4.7782  -22.5811   10.8100 H   0  0  0  0  0  0  0  0  0  0  0  0
    3.1417  -23.0410   10.6753 H   0  0  0  0  0  0  0  0  0  0  0  0
   -2.3961  -18.7640    5.8720 C   0  0  0  0  0  0  0  0  0  0  0  0
   -3.4997  -17.9991    6.3218 O   0  0  0  0  0  0  0  0  0  0  0  0
   -3.2821  -16.4739    6.6454 P   0  0  0  0  0  0  0  0  0  0  0  0
   -3.6119  -16.2886    8.0750 O   0  0  0  0  0  0  0  0  0  0  0  0
   -1.9232  -16.1056    6.2013 O   0  0  0  0  0  0  0  0  0  0  0  0
   -1.7644  -15.1676    6.3904 H   0  0  0  0  0  0  0  0  0  0  0  0
   -4.3331  -15.7293    5.8382 O   0  0  0  0  0  0  0  0  0  0  0  0
   -4.3299  -15.7550    4.3186 P   0  0  0  0  0  0  0  0  0  0  0  0
   -5.3092  -14.7339    3.8801 O   0  0  0  0  0  0  0  0  0  0  0  0
   -4.5728  -17.1611    3.9231 O   0  0  0  0  0  0  0  0  0  0  0  0
   -4.5797  -17.2282    2.9555 H   0  0  0  0  0  0  0  0  0  0  0  0
   -2.8660  -15.3304    3.8744 N   0  0  0  0  0  0  0  0  0  0  0  0
   -2.7257  -14.3966    4.2599 H   0  0  0  0  0  0  0  0  0  0  0  0
   -2.3530  -15.2490    2.3732 P   0  0  0  0  0  0  0  0  0  0  0  0
   -3.3055  -15.9909    1.4643 O   0  0  0  0  0  0  0  0  0  0  0  0
   -2.1985  -13.7724    2.0981 O   0  0  0  0  0  0  0  0  0  0  0  0
   -1.0835  -16.0434    2.2927 O   0  0  0  0  0  0  0  0  0  0  0  0
   -1.8847  -13.6439    1.1893 H   0  0  0  0  0  0  0  0  0  0  0  0
   -0.7412  -16.0149    1.3856 H   0  0  0  0  0  0  0  0  0  0  0  0
 37 38  2  0  0  0
 37 39  1  0  0  0
 37 40  1  0  0  0
 37 35  1  0  0  0
 35 31  1  0  0  0
 31 32  2  0  0  0
 31 33  1  0  0  0
 31 30  1  0  0  0
 30 26  1  0  0  0
 26 27  2  0  0  0
 26 28  1  0  0  0
 26 25  1  0  0  0
 25 24  1  0  0  0
 24  1  1  0  0  0
  1  2  1  0  0  0
  1  3  1  0  0  0
  2  7  1  0  0  0
  3  4  1  0  0  0
  3  5  1  0  0  0
  5  6  1  0  0  0
  5  7  1  0  0  0
  7 10  1  0  0  0
 10 11  1  0  0  0
 10 20  1  0  0  0
 11 12  2  0  0  0
 12 13  1  0  0  0
 13 14  1  0  0  0
 13 20  2  0  0  0
 14 15  2  0  0  0
 14 16  1  0  0  0
 16 17  1  0  0  0
 17 18  1  0  0  0
 17 19  2  0  0  0
 19 20  1  0  0  0
 39 41  1  0  0  0
 40 42  1  0  0  0
 35 36  1  0  0  0
 33 34  1  0  0  0
 28 29  1  0  0  0
  4  8  1  0  0  0
  6  9  1  0  0  0
 16 21  1  0  0  0
 18 22  1  0  0  0
 18 23  1  0  0  0
M  END
> <minimizedAffinity>
-7.95771

$$$$
3Q7Q_GNP_A_1


 42 44  0  0  0  0  0  0  0  0999 V2000
   -2.2396  -19.0156    7.2684 C   0  0  0  0  0  0  0  0  0  0  0  0
   -0.8382  -19.1950    6.9505 O   0  0  0  0  0  0  0  0  0  0  0  0
   -2.4140  -19.5182    8.6973 C   0  0  0  0  0  0  0  0  0  0  0  0
   -2.8232  -20.8761    8.6868 O   0  0  0  0  0  0  0  0  0  0  0  0
   -1.0165  -19.3935    9.2852 C   0  0  0  0  0  0  0  0  0  0  0  0
   -0.8027  -20.3297   10.3256 O   0  0  0  0  0  0  0  0  0  0  0  0
   -0.1684  -19.7405    8.0687 C   0  0  0  0  0  0  0  0  0  0  0  0
   -2.1774  -21.4046    8.1923 H   0  0  0  0  0  0  0  0  0  0  0  0
   -0.9733  -21.2254    9.9947 H   0  0  0  0  0  0  0  0  0  0  0  0
    1.1762  -19.1761    8.1050 N   0  0  0  0  0  0  0  0  0  0  0  0
    1.5990  -17.9825    7.5739 C   0  0  0  0  0  0  0  0  0  0  0  0
    2.8706  -17.7594    7.7664 N   0  0  0  0  0  0  0  0  0  0  0  0
    3.3182  -18.8751    8.4658 C   0  0  0  0  0  0  0  0  0  0  0  0
    4.6042  -19.2046    8.9553 C   0  0  0  0  0  0  0  0  0  0  0  0
    5.6502  -18.5488    8.8672 O   0  0  0  0  0  0  0  0  0  0  0  0
    4.6077  -20.4385    9.6028 N   0  0  0  0  0  0  0  0  0  0  0  0
    3.5073  -21.2488    9.7627 C   0  0  0  0  0  0  0  0  0  0  0  0
    3.6964  -22.4005   10.4189 N   0  0  0  0  0  0  0  0  0  0  0  0
    2.2985  -20.9543    9.3128 N   0  0  0  0  0  0  0  0  0  0  0  0
    2.2816  -19.7563    8.6797 C   0  0  0  0  0  0  0  0  0  0  0  0
    5.4628  -20.7545    9.9743 H   0  0  0  0  0  0  0  0  0  0  0  0
    4.5908  -22.6321   10.7591 H   0  0  0  0  0  0  0  0  0  0  0  0
    2.9411  -23.0156   10.5614 H   0  0  0  0  0  0  0  0  0  0  0  0
   -2.6260  -17.5674    7.0339 C   0  0  0  0  0  0  0  0  0  0  0  0
   -2.8713  -17.3178    5.6617 O   0  0  0  0  0  0  0  0  0  0  0  0
   -2.3267  -15.9849    5.0255 P   0  0  0  0  0  0  0  0  0  0  0  0
   -1.4616  -15.3480    6.0419 O   0  0  0  0  0  0  0  0  0  0  0  0
   -1.7212  -16.3194    3.7213 O   0  0  0  0  0  0  0  0  0  0  0  0
   -1.3771  -15.5121    3.3080 H   0  0  0  0  0  0  0  0  0  0  0  0
   -3.5425  -15.0913    4.8417 O   0  0  0  0  0  0  0  0  0  0  0  0
   -4.8857  -15.6592    4.4139 P   0  0  0  0  0  0  0  0  0  0  0  0
   -5.6670  -14.5241    3.8710 O   0  0  0  0  0  0  0  0  0  0  0  0
   -5.4314  -16.3749    5.5898 O   0  0  0  0  0  0  0  0  0  0  0  0
   -6.2938  -16.7571    5.3640 H   0  0  0  0  0  0  0  0  0  0  0  0
   -4.5740  -16.7055    3.2611 N   0  0  0  0  0  0  0  0  0  0  0  0
   -4.6958  -16.1917    2.3884 H   0  0  0  0  0  0  0  0  0  0  0  0
   -5.3321  -18.0850    3.0483 P   0  0  0  0  0  0  0  0  0  0  0  0
   -6.7857  -17.9368    3.4344 O   0  0  0  0  0  0  0  0  0  0  0  0
   -5.0693  -18.4512    1.6073 O   0  0  0  0  0  0  0  0  0  0  0  0
   -4.7871  -19.0528    4.0562 O   0  0  0  0  0  0  0  0  0  0  0  0
   -5.5065  -19.2926    1.4025 H   0  0  0  0  0  0  0  0  0  0  0  0
   -5.2300  -19.9097    3.9541 H   0  0  0  0  0  0  0  0  0  0  0  0
 37 38  2  0  0  0
 37 39  1  0  0  0
 37 40  1  0  0  0
 37 35  1  0  0  0
 35 31  1  0  0  0
 31 32  2  0  0  0
 31 33  1  0  0  0
 31 30  1  0  0  0
 30 26  1  0  0  0
 26 27  2  0  0  0
 26 28  1  0  0  0
 26 25  1  0  0  0
 25 24  1  0  0  0
 24  1  1  0  0  0
  1  2  1  0  0  0
  1  3  1  0  0  0
  2  7  1  0  0  0
  3  4  1  0  0  0
  3  5  1  0  0  0
  5  6  1  0  0  0
  5  7  1  0  0  0
  7 10  1  0  0  0
 10 11  1  0  0  0
 10 20  1  0  0  0
 11 12  2  0  0  0
 12 13  1  0  0  0
 13 14  1  0  0  0
 13 20  2  0  0  0
 14 15  2  0  0  0
 14 16  1  0  0  0
 16 17  1  0  0  0
 17 18  1  0  0  0
 17 19  2  0  0  0
 19 20  1  0  0  0
 39 41  1  0  0  0
 40 42  1  0  0  0
 35 36  1  0  0  0
 33 34  1  0  0  0
 28 29  1  0  0  0
  4  8  1  0  0  0
  6  9  1  0  0  0
 16 21  1  0  0  0
 18 22  1  0  0  0
 18 23  1  0  0  0
M  END
> <minimizedAffinity>
-7.33099

$$$$
3Q7Q_GNP_A_1


 42 44  0  0  0  0  0  0  0  0999 V2000
   -2.8469  -21.2790    7.7106 C   0  0  0  0  0  0  0  0  0  0  0  0
   -1.4874  -21.0418    7.2720 O   0  0  0  0  0  0  0  0  0  0  0  0
   -2.7449  -21.7605    9.1537 C   0  0  0  0  0  0  0  0  0  0  0  0
   -2.7254  -23.1781    9.1913 O   0  0  0  0  0  0  0  0  0  0  0  0
   -1.4068  -21.2028    9.6149 C   0  0  0  0  0  0  0  0  0  0  0  0
   -0.8369  -21.9951   10.6407 O   0  0  0  0  0  0  0  0  0  0  0  0
   -0.5957  -21.3223    8.3315 C   0  0  0  0  0  0  0  0  0  0  0  0
   -1.9930  -23.5060    8.6465 H   0  0  0  0  0  0  0  0  0  0  0  0
   -0.7562  -22.9118   10.3340 H   0  0  0  0  0  0  0  0  0  0  0  0
    0.5148  -20.3804    8.2440 N   0  0  0  0  0  0  0  0  0  0  0  0
    0.5604  -19.2009    7.5424 C   0  0  0  0  0  0  0  0  0  0  0  0
    1.7034  -18.5813    7.6582 N   0  0  0  0  0  0  0  0  0  0  0  0
    2.4625  -19.4021    8.4855 C   0  0  0  0  0  0  0  0  0  0  0  0
    3.7843  -19.2582    8.9693 C   0  0  0  0  0  0  0  0  0  0  0  0
    4.5834  -18.3372    8.7569 O   0  0  0  0  0  0  0  0  0  0  0  0
    4.1563  -20.3313    9.7767 N   0  0  0  0  0  0  0  0  0  0  0  0
    3.3517  -21.4045   10.0829 C   0  0  0  0  0  0  0  0  0  0  0  0
    3.8757  -22.3430   10.8814 N   0  0  0  0  0  0  0  0  0  0  0  0
    2.1138  -21.5528    9.6403 N   0  0  0  0  0  0  0  0  0  0  0  0
    1.7397  -20.5155    8.8525 C   0  0  0  0  0  0  0  0  0  0  0  0
    5.0643  -20.3207   10.1571 H   0  0  0  0  0  0  0  0  0  0  0  0
    4.7957  -22.2452   11.2180 H   0  0  0  0  0  0  0  0  0  0  0  0
    3.3409  -23.1307   11.1319 H   0  0  0  0  0  0  0  0  0  0  0  0
   -3.6693  -20.0220    7.4983 C   0  0  0  0  0  0  0  0  0  0  0  0
   -2.8491  -18.8676    7.4907 O   0  0  0  0  0  0  0  0  0  0  0  0
   -3.4315  -17.5290    6.9016 P   0  0  0  0  0  0  0  0  0  0  0  0
   -4.4406  -17.9101    5.8899 O   0  0  0  0  0  0  0  0  0  0  0  0
   -3.8764  -16.6915    8.0329 O   0  0  0  0  0  0  0  0  0  0  0  0
   -4.2404  -15.8583    7.6949 H   0  0  0  0  0  0  0  0  0  0  0  0
   -2.2777  -16.8693    6.1638 O   0  0  0  0  0  0  0  0  0  0  0  0
   -2.4998  -15.6707    5.2561 P   0  0  0  0  0  0  0  0  0  0  0  0
   -1.2592  -14.8637    5.3165 O   0  0  0  0  0  0  0  0  0  0  0  0
   -3.7606  -15.0353    5.7024 O   0  0  0  0  0  0  0  0  0  0  0  0
   -3.9456  -14.2604    5.1492 H   0  0  0  0  0  0  0  0  0  0  0  0
   -2.6966  -16.2567    3.7937 N   0  0  0  0  0  0  0  0  0  0  0  0
   -2.2229  -17.1600    3.7976 H   0  0  0  0  0  0  0  0  0  0  0  0
   -2.2339  -15.5429    2.4523 P   0  0  0  0  0  0  0  0  0  0  0  0
   -3.1112  -15.9879    1.3051 O   0  0  0  0  0  0  0  0  0  0  0  0
   -2.2661  -14.0671    2.7698 O   0  0  0  0  0  0  0  0  0  0  0  0
   -0.8798  -16.0851    2.1035 O   0  0  0  0  0  0  0  0  0  0  0  0
   -1.9924  -13.5621    1.9882 H   0  0  0  0  0  0  0  0  0  0  0  0
   -0.5656  -15.6688    1.2857 H   0  0  0  0  0  0  0  0  0  0  0  0
 37 38  2  0  0  0
 37 39  1  0  0  0
 37 40  1  0  0  0
 37 35  1  0  0  0
 35 31  1  0  0  0
 31 32  2  0  0  0
 31 33  1  0  0  0
 31 30  1  0  0  0
 30 26  1  0  0  0
 26 27  2  0  0  0
 26 28  1  0  0  0
 26 25  1  0  0  0
 25 24  1  0  0  0
 24  1  1  0  0  0
  1  2  1  0  0  0
  1  3  1  0  0  0
  2  7  1  0  0  0
  3  4  1  0  0  0
  3  5  1  0  0  0
  5  6  1  0  0  0
  5  7  1  0  0  0
  7 10  1  0  0  0
 10 11  1  0  0  0
 10 20  1  0  0  0
 11 12  2  0  0  0
 12 13  1  0  0  0
 13 14  1  0  0  0
 13 20  2  0  0  0
 14 15  2  0  0  0
 14 16  1  0  0  0
 16 17  1  0  0  0
 17 18  1  0  0  0
 17 19  2  0  0  0
 19 20  1  0  0  0
 39 41  1  0  0  0
 40 42  1  0  0  0
 35 36  1  0  0  0
 33 34  1  0  0  0
 28 29  1  0  0  0
  4  8  1  0  0  0
  6  9  1  0  0  0
 16 21  1  0  0  0
 18 22  1  0  0  0
 18 23  1  0  0  0
M  END
> <minimizedAffinity>
-7.31516

$$$$
3Q7Q_GNP_A_1


 42 44  0  0  0  0  0  0  0  0999 V2000
   -2.6768  -19.4054    5.4113 C   0  0  0  0  0  0  0  0  0  0  0  0
   -1.5906  -18.6104    5.9455 O   0  0  0  0  0  0  0  0  0  0  0  0
   -2.4664  -20.8177    5.9458 C   0  0  0  0  0  0  0  0  0  0  0  0
   -1.7391  -21.5890    5.0038 O   0  0  0  0  0  0  0  0  0  0  0  0
   -1.6347  -20.5967    7.2003 C   0  0  0  0  0  0  0  0  0  0  0  0
   -0.8308  -21.7235    7.4984 O   0  0  0  0  0  0  0  0  0  0  0  0
   -0.7704  -19.4224    6.7606 C   0  0  0  0  0  0  0  0  0  0  0  0
   -0.8989  -21.1474    4.8041 H   0  0  0  0  0  0  0  0  0  0  0  0
   -0.2743  -21.9354    6.7327 H   0  0  0  0  0  0  0  0  0  0  0  0
   -0.2823  -18.6019    7.8636 N   0  0  0  0  0  0  0  0  0  0  0  0
   -0.8589  -17.4704    8.3859 C   0  0  0  0  0  0  0  0  0  0  0  0
   -0.1739  -16.9557    9.3705 N   0  0  0  0  0  0  0  0  0  0  0  0
    0.9255  -17.7965    9.5072 C   0  0  0  0  0  0  0  0  0  0  0  0
    2.0171  -17.7519   10.4062 C   0  0  0  0  0  0  0  0  0  0  0  0
    2.2411  -16.9269   11.3013 O   0  0  0  0  0  0  0  0  0  0  0  0
    2.9064  -18.8023   10.1882 N   0  0  0  0  0  0  0  0  0  0  0  0
    2.7573  -19.7760    9.2276 C   0  0  0  0  0  0  0  0  0  0  0  0
    3.7106  -20.7142    9.1665 N   0  0  0  0  0  0  0  0  0  0  0  0
    1.7420  -19.8327    8.3813 N   0  0  0  0  0  0  0  0  0  0  0  0
    0.8696  -18.8153    8.5822 C   0  0  0  0  0  0  0  0  0  0  0  0
    3.7022  -18.8515   10.7656 H   0  0  0  0  0  0  0  0  0  0  0  0
    4.4716  -20.6841    9.7903 H   0  0  0  0  0  0  0  0  0  0  0  0
    3.6505  -21.4342    8.4977 H   0  0  0  0  0  0  0  0  0  0  0  0
   -3.9994  -18.7587    5.7778 C   0  0  0  0  0  0  0  0  0  0  0  0
   -4.3204  -17.7065    4.8861 O   0  0  0  0  0  0  0  0  0  0  0  0
   -5.4246  -17.9524    3.7913 P   0  0  0  0  0  0  0  0  0  0  0  0
   -4.8558  -18.9088    2.8173 O   0  0  0  0  0  0  0  0  0  0  0  0
   -6.6710  -18.3368    4.4828 O   0  0  0  0  0  0  0  0  0  0  0  0
   -7.3688  -18.4942    3.8277 H   0  0  0  0  0  0  0  0  0  0  0  0
   -5.5943  -16.6230    3.0741 O   0  0  0  0  0  0  0  0  0  0  0  0
   -4.6319  -16.1828    1.9832 P   0  0  0  0  0  0  0  0  0  0  0  0
   -4.8249  -14.7237    1.8177 O   0  0  0  0  0  0  0  0  0  0  0  0
   -4.8975  -17.0526    0.8146 O   0  0  0  0  0  0  0  0  0  0  0  0
   -4.3034  -16.8080    0.0879 H   0  0  0  0  0  0  0  0  0  0  0  0
   -3.1738  -16.4791    2.5370 N   0  0  0  0  0  0  0  0  0  0  0  0
   -3.3108  -16.8470    3.4784 H   0  0  0  0  0  0  0  0  0  0  0  0
   -2.0096  -15.4064    2.6682 P   0  0  0  0  0  0  0  0  0  0  0  0
   -1.8204  -15.0291    4.1193 O   0  0  0  0  0  0  0  0  0  0  0  0
   -0.8187  -16.0454    1.9950 O   0  0  0  0  0  0  0  0  0  0  0  0
   -2.4955  -14.1412    2.0259 O   0  0  0  0  0  0  0  0  0  0  0  0
   -0.0610  -15.4412    2.0366 H   0  0  0  0  0  0  0  0  0  0  0  0
   -1.8062  -13.4615    2.0883 H   0  0  0  0  0  0  0  0  0  0  0  0
 37 38  2  0  0  0
 37 39  1  0  0  0
 37 40  1  0  0  0
 37 35  1  0  0  0
 35 31  1  0  0  0
 31 32  2  0  0  0
 31 33  1  0  0  0
 31 30  1  0  0  0
 30 26  1  0  0  0
 26 27  2  0  0  0
 26 28  1  0  0  0
 26 25  1  0  0  0
 25 24  1  0  0  0
 24  1  1  0  0  0
  1  2  1  0  0  0
  1  3  1  0  0  0
  2  7  1  0  0  0
  3  4  1  0  0  0
  3  5  1  0  0  0
  5  6  1  0  0  0
  5  7  1  0  0  0
  7 10  1  0  0  0
 10 11  1  0  0  0
 10 20  1  0  0  0
 11 12  2  0  0  0
 12 13  1  0  0  0
 13 14  1  0  0  0
 13 20  2  0  0  0
 14 15  2  0  0  0
 14 16  1  0  0  0
 16 17  1  0  0  0
 17 18  1  0  0  0
 17 19  2  0  0  0
 19 20  1  0  0  0
 39 41  1  0  0  0
 40 42  1  0  0  0
 35 36  1  0  0  0
 33 34  1  0  0  0
 28 29  1  0  0  0
  4  8  1  0  0  0
  6  9  1  0  0  0
 16 21  1  0  0  0
 18 22  1  0  0  0
 18 23  1  0  0  0
M  END
> <minimizedAffinity>
-7.14538

$$$$
