4W9D_3JK_C_301


 31 33  0  0  0  0  0  0  0  0999 V2000
   12.2710   53.2283   89.5212 C   0  0  0  0  0  0  0  0  0  0  0  0
   12.6011   52.1817   90.0758 O   0  0  0  0  0  0  0  0  0  0  0  0
   11.5287   53.2553   88.3772 N   0  0  0  0  0  0  0  0  0  0  0  0
   11.3029   54.1205   87.9652 H   0  0  0  0  0  0  0  0  0  0  0  0
   12.2920   54.2608   92.4643 C   0  0  0  0  0  0  0  0  0  0  0  0
   11.0902   54.0899   92.2467 O   0  0  0  0  0  0  0  0  0  0  0  0
   13.2010   54.4261   91.4513 N   0  0  0  0  0  0  0  0  0  0  0  0
   14.6631   54.7087   91.5180 C   0  0  0  0  0  0  0  0  0  0  0  0
   14.9656   55.4734   90.2429 C   0  0  0  0  0  0  0  0  0  0  0  0
   14.6319   56.8644   90.3857 O   0  0  0  0  0  0  0  0  0  0  0  0
   14.0641   54.8128   89.2409 C   0  0  0  0  0  0  0  0  0  0  0  0
   12.7658   54.4503   90.0042 C   0  0  0  0  0  0  0  0  0  0  0  0
   13.6982   56.9490   90.6344 H   0  0  0  0  0  0  0  0  0  0  0  0
   12.7839   54.3865   93.9581 C   0  0  0  0  0  0  0  0  0  0  0  0
   11.4151   52.5365   94.9717 C   0  0  0  0  0  0  0  0  0  0  0  0
   12.8459   53.0275   94.6107 C   0  0  0  0  0  0  0  0  0  0  0  0
   13.5281   51.9939   93.6924 C   0  0  0  0  0  0  0  0  0  0  0  0
   13.6436   53.2036   95.9349 C   0  0  0  0  0  0  0  0  0  0  0  0
   11.0585   52.0028   87.7472 C   0  0  0  0  0  0  0  0  0  0  0  0
   11.7734   51.7393   86.5192 C   0  0  0  0  0  0  0  0  0  0  0  0
   12.4683   52.7924   85.8887 C   0  0  0  0  0  0  0  0  0  0  0  0
   13.1671   52.6077   84.6851 C   0  0  0  0  0  0  0  0  0  0  0  0
   11.8155   50.4878   85.8888 C   0  0  0  0  0  0  0  0  0  0  0  0
   12.5233   50.2960   84.6798 C   0  0  0  0  0  0  0  0  0  0  0  0
   13.2292   51.3379   84.0689 C   0  0  0  0  0  0  0  0  0  0  0  0
   13.8853   51.0945   82.9098 C   0  0  0  0  0  0  0  0  0  0  0  0
   13.3708   50.3351   81.9050 O   0  0  0  0  0  0  0  0  0  0  0  0
   14.2716   50.3132   80.8919 C   0  0  0  0  0  0  0  0  0  0  0  0
   15.3257   51.0244   81.2437 N   0  0  0  0  0  0  0  0  0  0  0  0
   15.0937   51.4983   82.4794 C   0  0  0  0  0  0  0  0  0  0  0  0
   16.1218   52.3805   83.2120 C   0  0  0  0  0  0  0  0  0  0  0  0
 29 28  2  0  0  0
 29 30  1  0  0  0
 31 30  1  0  0  0
 28 27  1  0  0  0
 30 26  2  0  0  0
 27 26  1  0  0  0
 26 25  1  0  0  0
 25 22  2  0  0  0
 25 24  1  0  0  0
 22 21  1  0  0  0
 24 23  2  0  0  0
 21 20  2  0  0  0
 23 20  1  0  0  0
 20 19  1  0  0  0
 19  3  1  0  0  0
  3  1  1  0  0  0
 11 12  1  0  0  0
 11  9  1  0  0  0
  1  2  2  0  0  0
  1 12  1  0  0  0
 12  7  1  0  0  0
  9 10  1  0  0  0
  9  8  1  0  0  0
  7  8  1  0  0  0
  7  5  1  0  0  0
  6  5  2  0  0  0
  5 14  1  0  0  0
 17 16  1  0  0  0
 14 16  1  0  0  0
 16 15  1  0  0  0
 16 18  1  0  0  0
 10 13  1  0  0  0
  3  4  1  0  0  0
M  END
> <minimizedAffinity>
-8.45045

$$$$
4W9D_3JK_C_301


 31 33  0  0  0  0  0  0  0  0999 V2000
   11.4953   51.9631   87.9643 C   0  0  0  0  0  0  0  0  0  0  0  0
   10.3710   51.4960   87.7918 O   0  0  0  0  0  0  0  0  0  0  0  0
   12.0906   52.8037   87.0701 N   0  0  0  0  0  0  0  0  0  0  0  0
   12.9988   53.1390   87.2493 H   0  0  0  0  0  0  0  0  0  0  0  0
   12.1778   53.5477   90.5626 C   0  0  0  0  0  0  0  0  0  0  0  0
   12.6588   54.2597   89.6780 O   0  0  0  0  0  0  0  0  0  0  0  0
   11.9218   52.2149   90.3683 N   0  0  0  0  0  0  0  0  0  0  0  0
   11.4135   51.1915   91.3256 C   0  0  0  0  0  0  0  0  0  0  0  0
   11.9981   49.8807   90.8336 C   0  0  0  0  0  0  0  0  0  0  0  0
   13.3518   49.7178   91.2891 O   0  0  0  0  0  0  0  0  0  0  0  0
   11.9571   50.0412   89.3417 C   0  0  0  0  0  0  0  0  0  0  0  0
   12.2591   51.5345   89.0617 C   0  0  0  0  0  0  0  0  0  0  0  0
   13.8847   50.4735   90.9960 H   0  0  0  0  0  0  0  0  0  0  0  0
   11.9370   54.1699   91.9924 C   0  0  0  0  0  0  0  0  0  0  0  0
   13.8015   52.9463   93.1543 C   0  0  0  0  0  0  0  0  0  0  0  0
   13.2458   54.3339   92.7250 C   0  0  0  0  0  0  0  0  0  0  0  0
   14.2905   55.0592   91.8536 C   0  0  0  0  0  0  0  0  0  0  0  0
   12.9373   55.1493   94.0138 C   0  0  0  0  0  0  0  0  0  0  0  0
   11.3906   53.2184   85.8354 C   0  0  0  0  0  0  0  0  0  0  0  0
   11.8607   52.4659   84.6946 C   0  0  0  0  0  0  0  0  0  0  0  0
   10.9489   52.1218   83.6749 C   0  0  0  0  0  0  0  0  0  0  0  0
   11.3366   51.3771   82.5497 C   0  0  0  0  0  0  0  0  0  0  0  0
   13.1839   52.0324   84.5317 C   0  0  0  0  0  0  0  0  0  0  0  0
   13.5801   51.2875   83.3969 C   0  0  0  0  0  0  0  0  0  0  0  0
   12.6775   50.9668   82.3773 C   0  0  0  0  0  0  0  0  0  0  0  0
   13.1146   50.2479   81.3165 C   0  0  0  0  0  0  0  0  0  0  0  0
   12.4711   49.1462   80.8439 O   0  0  0  0  0  0  0  0  0  0  0  0
   13.1604   48.6853   79.7712 C   0  0  0  0  0  0  0  0  0  0  0  0
   14.2104   49.4596   79.5748 N   0  0  0  0  0  0  0  0  0  0  0  0
   14.1871   50.4123   80.5220 C   0  0  0  0  0  0  0  0  0  0  0  0
   15.2728   51.5020   80.5978 C   0  0  0  0  0  0  0  0  0  0  0  0
 29 28  2  0  0  0
 29 30  1  0  0  0
 31 30  1  0  0  0
 28 27  1  0  0  0
 30 26  2  0  0  0
 27 26  1  0  0  0
 26 25  1  0  0  0
 25 22  2  0  0  0
 25 24  1  0  0  0
 22 21  1  0  0  0
 24 23  2  0  0  0
 21 20  2  0  0  0
 23 20  1  0  0  0
 20 19  1  0  0  0
 19  3  1  0  0  0
  3  1  1  0  0  0
 11 12  1  0  0  0
 11  9  1  0  0  0
  1  2  2  0  0  0
  1 12  1  0  0  0
 12  7  1  0  0  0
  9 10  1  0  0  0
  9  8  1  0  0  0
  7  8  1  0  0  0
  7  5  1  0  0  0
  6  5  2  0  0  0
  5 14  1  0  0  0
 17 16  1  0  0  0
 14 16  1  0  0  0
 16 15  1  0  0  0
 16 18  1  0  0  0
 10 13  1  0  0  0
  3  4  1  0  0  0
M  END
> <minimizedAffinity>
-7.17440

$$$$
4W9D_3JK_C_301


 31 33  0  0  0  0  0  0  0  0999 V2000
   10.7175   50.6557   89.4800 C   0  0  0  0  0  0  0  0  0  0  0  0
    9.4922   50.5547   89.5014 O   0  0  0  0  0  0  0  0  0  0  0  0
   11.4312   50.7409   88.3207 N   0  0  0  0  0  0  0  0  0  0  0  0
   12.4128   50.8064   88.3585 H   0  0  0  0  0  0  0  0  0  0  0  0
   12.0598   52.9637   91.0922 C   0  0  0  0  0  0  0  0  0  0  0  0
   12.6288   53.0308   90.0002 O   0  0  0  0  0  0  0  0  0  0  0  0
   11.4300   51.8229   91.5183 N   0  0  0  0  0  0  0  0  0  0  0  0
   10.7565   51.5328   92.8162 C   0  0  0  0  0  0  0  0  0  0  0  0
   10.9076   50.0345   93.0014 C   0  0  0  0  0  0  0  0  0  0  0  0
   12.2025   49.7100   93.5351 O   0  0  0  0  0  0  0  0  0  0  0  0
   10.7665   49.5135   91.6008 C   0  0  0  0  0  0  0  0  0  0  0  0
   11.4379   50.5643   90.6818 C   0  0  0  0  0  0  0  0  0  0  0  0
   12.8910   50.0642   92.9508 H   0  0  0  0  0  0  0  0  0  0  0  0
   12.1403   54.2004   92.0688 C   0  0  0  0  0  0  0  0  0  0  0  0
   13.3719   55.0272   94.0993 C   0  0  0  0  0  0  0  0  0  0  0  0
   13.4797   54.2403   92.7623 C   0  0  0  0  0  0  0  0  0  0  0  0
   14.0099   52.8201   93.0425 C   0  0  0  0  0  0  0  0  0  0  0  0
   14.4465   55.0170   91.8225 C   0  0  0  0  0  0  0  0  0  0  0  0
   10.7506   50.7363   87.0080 C   0  0  0  0  0  0  0  0  0  0  0  0
   11.6953   50.9369   85.9328 C   0  0  0  0  0  0  0  0  0  0  0  0
   12.1278   49.8245   85.1811 C   0  0  0  0  0  0  0  0  0  0  0  0
   13.0570   49.9480   84.1360 C   0  0  0  0  0  0  0  0  0  0  0  0
   12.2349   52.1831   85.5846 C   0  0  0  0  0  0  0  0  0  0  0  0
   13.1663   52.3129   84.5286 C   0  0  0  0  0  0  0  0  0  0  0  0
   13.5762   51.2103   83.7714 C   0  0  0  0  0  0  0  0  0  0  0  0
   14.4737   51.3963   82.7748 C   0  0  0  0  0  0  0  0  0  0  0  0
   15.7722   51.7393   82.9927 O   0  0  0  0  0  0  0  0  0  0  0  0
   16.3917   51.8234   81.7895 C   0  0  0  0  0  0  0  0  0  0  0  0
   15.5163   51.5539   80.8399 N   0  0  0  0  0  0  0  0  0  0  0  0
   14.3417   51.2980   81.4401 C   0  0  0  0  0  0  0  0  0  0  0  0
   13.0820   50.9402   80.6295 C   0  0  0  0  0  0  0  0  0  0  0  0
 29 28  2  0  0  0
 29 30  1  0  0  0
 31 30  1  0  0  0
 28 27  1  0  0  0
 30 26  2  0  0  0
 27 26  1  0  0  0
 26 25  1  0  0  0
 25 22  2  0  0  0
 25 24  1  0  0  0
 22 21  1  0  0  0
 24 23  2  0  0  0
 21 20  2  0  0  0
 23 20  1  0  0  0
 20 19  1  0  0  0
 19  3  1  0  0  0
  3  1  1  0  0  0
 11 12  1  0  0  0
 11  9  1  0  0  0
  1  2  2  0  0  0
  1 12  1  0  0  0
 12  7  1  0  0  0
  9 10  1  0  0  0
  9  8  1  0  0  0
  7  8  1  0  0  0
  7  5  1  0  0  0
  6  5  2  0  0  0
  5 14  1  0  0  0
 17 16  1  0  0  0
 14 16  1  0  0  0
 16 15  1  0  0  0
 16 18  1  0  0  0
 10 13  1  0  0  0
  3  4  1  0  0  0
M  END
> <minimizedAffinity>
-6.91426

$$$$
4W9D_3JK_C_301


 31 33  0  0  0  0  0  0  0  0999 V2000
   11.9317   53.8229   89.6844 C   0  0  0  0  0  0  0  0  0  0  0  0
   10.7158   53.9674   89.7972 O   0  0  0  0  0  0  0  0  0  0  0  0
   12.4967   52.6880   89.1809 N   0  0  0  0  0  0  0  0  0  0  0  0
   13.4771   52.6175   89.1247 H   0  0  0  0  0  0  0  0  0  0  0  0
   12.6218   54.4036   92.6701 C   0  0  0  0  0  0  0  0  0  0  0  0
   11.3998   54.5667   92.6388 O   0  0  0  0  0  0  0  0  0  0  0  0
   13.3971   54.4766   91.5417 N   0  0  0  0  0  0  0  0  0  0  0  0
   14.8770   54.3770   91.3928 C   0  0  0  0  0  0  0  0  0  0  0  0
   15.1972   55.2109   90.1663 C   0  0  0  0  0  0  0  0  0  0  0  0
   15.2669   56.6080   90.4979 O   0  0  0  0  0  0  0  0  0  0  0  0
   14.0263   54.9379   89.2676 C   0  0  0  0  0  0  0  0  0  0  0  0
   12.7934   54.8063   90.1961 C   0  0  0  0  0  0  0  0  0  0  0  0
   14.4314   56.8858   90.9048 H   0  0  0  0  0  0  0  0  0  0  0  0
   13.3258   54.1973   94.0669 C   0  0  0  0  0  0  0  0  0  0  0  0
   11.6805   52.5679   95.0476 C   0  0  0  0  0  0  0  0  0  0  0  0
   13.1383   52.7800   94.5495 C   0  0  0  0  0  0  0  0  0  0  0  0
   13.4552   51.7611   93.4367 C   0  0  0  0  0  0  0  0  0  0  0  0
   14.0945   52.5908   95.7623 C   0  0  0  0  0  0  0  0  0  0  0  0
   11.6568   51.5624   88.7183 C   0  0  0  0  0  0  0  0  0  0  0  0
   11.6151   51.5048   87.2748 C   0  0  0  0  0  0  0  0  0  0  0  0
   12.1053   52.5969   86.5288 C   0  0  0  0  0  0  0  0  0  0  0  0
   12.0773   52.6122   85.1252 C   0  0  0  0  0  0  0  0  0  0  0  0
   11.0985   50.4236   86.5472 C   0  0  0  0  0  0  0  0  0  0  0  0
   11.0741   50.4322   85.1334 C   0  0  0  0  0  0  0  0  0  0  0  0
   11.5811   51.5081   84.3968 C   0  0  0  0  0  0  0  0  0  0  0  0
   11.5269   51.4608   83.0447 C   0  0  0  0  0  0  0  0  0  0  0  0
   12.5097   50.9184   82.2759 O   0  0  0  0  0  0  0  0  0  0  0  0
   12.1298   51.0167   80.9780 C   0  0  0  0  0  0  0  0  0  0  0  0
   10.9524   51.6096   80.9226 N   0  0  0  0  0  0  0  0  0  0  0  0
   10.5849   51.8869   82.1849 C   0  0  0  0  0  0  0  0  0  0  0  0
    9.2493   52.5854   82.5018 C   0  0  0  0  0  0  0  0  0  0  0  0
 29 28  2  0  0  0
 29 30  1  0  0  0
 31 30  1  0  0  0
 28 27  1  0  0  0
 30 26  2  0  0  0
 27 26  1  0  0  0
 26 25  1  0  0  0
 25 22  2  0  0  0
 25 24  1  0  0  0
 22 21  1  0  0  0
 24 23  2  0  0  0
 21 20  2  0  0  0
 23 20  1  0  0  0
 20 19  1  0  0  0
 19  3  1  0  0  0
  3  1  1  0  0  0
 11 12  1  0  0  0
 11  9  1  0  0  0
  1  2  2  0  0  0
  1 12  1  0  0  0
 12  7  1  0  0  0
  9 10  1  0  0  0
  9  8  1  0  0  0
  7  8  1  0  0  0
  7  5  1  0  0  0
  6  5  2  0  0  0
  5 14  1  0  0  0
 17 16  1  0  0  0
 14 16  1  0  0  0
 16 15  1  0  0  0
 16 18  1  0  0  0
 10 13  1  0  0  0
  3  4  1  0  0  0
M  END
> <minimizedAffinity>
-6.87659

$$$$
4W9D_3JK_C_301


 31 33  0  0  0  0  0  0  0  0999 V2000
   11.8498   52.9194   88.5868 C   0  0  0  0  0  0  0  0  0  0  0  0
   12.4045   51.8651   88.8915 O   0  0  0  0  0  0  0  0  0  0  0  0
   12.2697   54.1337   89.0447 N   0  0  0  0  0  0  0  0  0  0  0  0
   11.7816   54.9472   88.7815 H   0  0  0  0  0  0  0  0  0  0  0  0
   11.5542   52.7997   85.4842 C   0  0  0  0  0  0  0  0  0  0  0  0
   12.1802   53.8483   85.6555 O   0  0  0  0  0  0  0  0  0  0  0  0
   10.8020   52.2279   86.4777 N   0  0  0  0  0  0  0  0  0  0  0  0
    9.9336   51.0170   86.4399 C   0  0  0  0  0  0  0  0  0  0  0  0
    8.8646   51.2775   87.4847 C   0  0  0  0  0  0  0  0  0  0  0  0
    7.8210   52.1129   86.9558 O   0  0  0  0  0  0  0  0  0  0  0  0
    9.6243   51.9970   88.5609 C   0  0  0  0  0  0  0  0  0  0  0  0
   10.6659   52.8828   87.8329 C   0  0  0  0  0  0  0  0  0  0  0  0
    8.2046   52.9419   86.6295 H   0  0  0  0  0  0  0  0  0  0  0  0
   11.5442   52.1461   84.0482 C   0  0  0  0  0  0  0  0  0  0  0  0
   14.0540   52.2939   83.9971 C   0  0  0  0  0  0  0  0  0  0  0  0
   12.8165   51.3705   83.8112 C   0  0  0  0  0  0  0  0  0  0  0  0
   12.9259   50.1652   84.7662 C   0  0  0  0  0  0  0  0  0  0  0  0
   12.7839   50.9008   82.3282 C   0  0  0  0  0  0  0  0  0  0  0  0
   13.4482   54.2451   89.9310 C   0  0  0  0  0  0  0  0  0  0  0  0
   13.0471   54.4296   91.3071 C   0  0  0  0  0  0  0  0  0  0  0  0
   13.9999   54.8748   92.2471 C   0  0  0  0  0  0  0  0  0  0  0  0
   13.6803   55.0569   93.6020 C   0  0  0  0  0  0  0  0  0  0  0  0
   11.7542   54.1795   91.7880 C   0  0  0  0  0  0  0  0  0  0  0  0
   11.4264   54.3677   93.1506 C   0  0  0  0  0  0  0  0  0  0  0  0
   12.3687   54.8300   94.0755 C   0  0  0  0  0  0  0  0  0  0  0  0
   11.9968   54.9873   95.3679 C   0  0  0  0  0  0  0  0  0  0  0  0
   11.8262   53.9472   96.2283 O   0  0  0  0  0  0  0  0  0  0  0  0
   11.4759   54.4546   97.4359 C   0  0  0  0  0  0  0  0  0  0  0  0
   11.4156   55.7694   97.3442 N   0  0  0  0  0  0  0  0  0  0  0  0
   11.7283   56.0965   96.0791 C   0  0  0  0  0  0  0  0  0  0  0  0
   11.7595   57.5627   95.6085 C   0  0  0  0  0  0  0  0  0  0  0  0
 29 28  2  0  0  0
 29 30  1  0  0  0
 31 30  1  0  0  0
 28 27  1  0  0  0
 30 26  2  0  0  0
 27 26  1  0  0  0
 26 25  1  0  0  0
 25 22  2  0  0  0
 25 24  1  0  0  0
 22 21  1  0  0  0
 24 23  2  0  0  0
 21 20  2  0  0  0
 23 20  1  0  0  0
 20 19  1  0  0  0
 19  3  1  0  0  0
  3  1  1  0  0  0
 11 12  1  0  0  0
 11  9  1  0  0  0
  1  2  2  0  0  0
  1 12  1  0  0  0
 12  7  1  0  0  0
  9 10  1  0  0  0
  9  8  1  0  0  0
  7  8  1  0  0  0
  7  5  1  0  0  0
  6  5  2  0  0  0
  5 14  1  0  0  0
 17 16  1  0  0  0
 14 16  1  0  0  0
 16 15  1  0  0  0
 16 18  1  0  0  0
 10 13  1  0  0  0
  3  4  1  0  0  0
M  END
> <minimizedAffinity>
-6.76549

$$$$
4W9D_3JK_C_301


 31 33  0  0  0  0  0  0  0  0999 V2000
   12.9511   53.7416   86.2734 C   0  0  0  0  0  0  0  0  0  0  0  0
   13.9904   53.9545   85.6516 O   0  0  0  0  0  0  0  0  0  0  0  0
   12.8468   53.9231   87.6213 N   0  0  0  0  0  0  0  0  0  0  0  0
   11.9951   53.7246   88.0735 H   0  0  0  0  0  0  0  0  0  0  0  0
   12.9328   51.3109   84.3191 C   0  0  0  0  0  0  0  0  0  0  0  0
   13.6938   52.1026   83.7581 O   0  0  0  0  0  0  0  0  0  0  0  0
   12.0118   51.7183   85.2494 N   0  0  0  0  0  0  0  0  0  0  0  0
   10.9747   50.9300   85.9741 C   0  0  0  0  0  0  0  0  0  0  0  0
    9.8654   51.9249   86.2600 C   0  0  0  0  0  0  0  0  0  0  0  0
    9.0170   52.0936   85.1117 O   0  0  0  0  0  0  0  0  0  0  0  0
   10.6225   53.1884   86.5490 C   0  0  0  0  0  0  0  0  0  0  0  0
   11.8516   53.1781   85.6063 C   0  0  0  0  0  0  0  0  0  0  0  0
    9.5525   52.3713   84.3521 H   0  0  0  0  0  0  0  0  0  0  0  0
   12.9570   49.7946   83.8834 C   0  0  0  0  0  0  0  0  0  0  0  0
   11.1615   50.6102   82.3231 C   0  0  0  0  0  0  0  0  0  0  0  0
   12.3536   49.6293   82.5104 C   0  0  0  0  0  0  0  0  0  0  0  0
   13.3993   49.8731   81.4041 C   0  0  0  0  0  0  0  0  0  0  0  0
   11.7991   48.1773   82.4379 C   0  0  0  0  0  0  0  0  0  0  0  0
   13.9956   54.4139   88.4125 C   0  0  0  0  0  0  0  0  0  0  0  0
   13.6594   54.5033   89.8152 C   0  0  0  0  0  0  0  0  0  0  0  0
   14.6418   54.9331   90.7316 C   0  0  0  0  0  0  0  0  0  0  0  0
   14.3858   55.0246   92.1090 C   0  0  0  0  0  0  0  0  0  0  0  0
   12.4035   54.1734   90.3438 C   0  0  0  0  0  0  0  0  0  0  0  0
   12.1395   54.2702   91.7296 C   0  0  0  0  0  0  0  0  0  0  0  0
   13.1100   54.7175   92.6324 C   0  0  0  0  0  0  0  0  0  0  0  0
   12.7996   54.7856   93.9486 C   0  0  0  0  0  0  0  0  0  0  0  0
   12.1722   55.8522   94.5143 O   0  0  0  0  0  0  0  0  0  0  0  0
   11.9975   55.5858   95.8323 C   0  0  0  0  0  0  0  0  0  0  0  0
   12.5049   54.3972   96.0975 N   0  0  0  0  0  0  0  0  0  0  0  0
   13.0008   53.9088   94.9482 C   0  0  0  0  0  0  0  0  0  0  0  0
   13.6751   52.5257   94.8831 C   0  0  0  0  0  0  0  0  0  0  0  0
 29 28  2  0  0  0
 29 30  1  0  0  0
 31 30  1  0  0  0
 28 27  1  0  0  0
 30 26  2  0  0  0
 27 26  1  0  0  0
 26 25  1  0  0  0
 25 22  2  0  0  0
 25 24  1  0  0  0
 22 21  1  0  0  0
 24 23  2  0  0  0
 21 20  2  0  0  0
 23 20  1  0  0  0
 20 19  1  0  0  0
 19  3  1  0  0  0
  3  1  1  0  0  0
 11 12  1  0  0  0
 11  9  1  0  0  0
  1  2  2  0  0  0
  1 12  1  0  0  0
 12  7  1  0  0  0
  9 10  1  0  0  0
  9  8  1  0  0  0
  7  8  1  0  0  0
  7  5  1  0  0  0
  6  5  2  0  0  0
  5 14  1  0  0  0
 17 16  1  0  0  0
 14 16  1  0  0  0
 16 15  1  0  0  0
 16 18  1  0  0  0
 10 13  1  0  0  0
  3  4  1  0  0  0
M  END
> <minimizedAffinity>
-6.66177

$$$$
4W9D_3JK_C_301


 31 33  0  0  0  0  0  0  0  0999 V2000
   12.5356   51.3045   84.2444 C   0  0  0  0  0  0  0  0  0  0  0  0
   11.7882   52.1260   83.7168 O   0  0  0  0  0  0  0  0  0  0  0  0
   12.3555   50.8545   85.5194 N   0  0  0  0  0  0  0  0  0  0  0  0
   12.9913   50.2062   85.8999 H   0  0  0  0  0  0  0  0  0  0  0  0
   12.7448   49.3181   81.8489 C   0  0  0  0  0  0  0  0  0  0  0  0
   12.2271   48.6263   82.7289 O   0  0  0  0  0  0  0  0  0  0  0  0
   13.4617   50.4505   82.1378 N   0  0  0  0  0  0  0  0  0  0  0  0
   14.2082   51.3653   81.2279 C   0  0  0  0  0  0  0  0  0  0  0  0
   15.3217   51.9366   82.0856 C   0  0  0  0  0  0  0  0  0  0  0  0
   16.4282   51.0225   82.1682 O   0  0  0  0  0  0  0  0  0  0  0  0
   14.6606   52.0898   83.4245 C   0  0  0  0  0  0  0  0  0  0  0  0
   13.6923   50.8889   83.5656 C   0  0  0  0  0  0  0  0  0  0  0  0
   16.1188   50.1706   82.5137 H   0  0  0  0  0  0  0  0  0  0  0  0
   12.6578   48.8324   80.3503 C   0  0  0  0  0  0  0  0  0  0  0  0
   10.2357   48.2150   80.6259 C   0  0  0  0  0  0  0  0  0  0  0  0
   11.2662   49.0425   79.8062 C   0  0  0  0  0  0  0  0  0  0  0  0
   10.8702   50.5321   79.8360 C   0  0  0  0  0  0  0  0  0  0  0  0
   11.2699   48.4995   78.3481 C   0  0  0  0  0  0  0  0  0  0  0  0
   11.2182   51.3269   86.3379 C   0  0  0  0  0  0  0  0  0  0  0  0
   11.6810   52.0235   87.5166 C   0  0  0  0  0  0  0  0  0  0  0  0
   11.3934   51.4875   88.7892 C   0  0  0  0  0  0  0  0  0  0  0  0
   11.7980   52.1235   89.9736 C   0  0  0  0  0  0  0  0  0  0  0  0
   12.3990   53.2272   87.4855 C   0  0  0  0  0  0  0  0  0  0  0  0
   12.8139   53.8678   88.6759 C   0  0  0  0  0  0  0  0  0  0  0  0
   12.5455   53.3217   89.9356 C   0  0  0  0  0  0  0  0  0  0  0  0
   12.9651   53.9830   91.0400 C   0  0  0  0  0  0  0  0  0  0  0  0
   12.2801   53.9846   92.2156 O   0  0  0  0  0  0  0  0  0  0  0  0
   12.9838   54.7209   93.1106 C   0  0  0  0  0  0  0  0  0  0  0  0
   14.0721   55.1798   92.5225 N   0  0  0  0  0  0  0  0  0  0  0  0
   14.0595   54.7344   91.2549 C   0  0  0  0  0  0  0  0  0  0  0  0
   15.1895   55.0790   90.2669 C   0  0  0  0  0  0  0  0  0  0  0  0
 29 28  2  0  0  0
 29 30  1  0  0  0
 31 30  1  0  0  0
 28 27  1  0  0  0
 30 26  2  0  0  0
 27 26  1  0  0  0
 26 25  1  0  0  0
 25 22  2  0  0  0
 25 24  1  0  0  0
 22 21  1  0  0  0
 24 23  2  0  0  0
 21 20  2  0  0  0
 23 20  1  0  0  0
 20 19  1  0  0  0
 19  3  1  0  0  0
  3  1  1  0  0  0
 11 12  1  0  0  0
 11  9  1  0  0  0
  1  2  2  0  0  0
  1 12  1  0  0  0
 12  7  1  0  0  0
  9 10  1  0  0  0
  9  8  1  0  0  0
  7  8  1  0  0  0
  7  5  1  0  0  0
  6  5  2  0  0  0
  5 14  1  0  0  0
 17 16  1  0  0  0
 14 16  1  0  0  0
 16 15  1  0  0  0
 16 18  1  0  0  0
 10 13  1  0  0  0
  3  4  1  0  0  0
M  END
> <minimizedAffinity>
-6.45154

$$$$
4W9D_3JK_C_301


 31 33  0  0  0  0  0  0  0  0999 V2000
   12.4631   53.1635   86.0281 C   0  0  0  0  0  0  0  0  0  0  0  0
   13.4476   53.2802   85.3008 O   0  0  0  0  0  0  0  0  0  0  0  0
   12.4540   53.5718   87.3296 N   0  0  0  0  0  0  0  0  0  0  0  0
   11.6435   53.4427   87.8733 H   0  0  0  0  0  0  0  0  0  0  0  0
   11.7331   50.1569   86.4223 C   0  0  0  0  0  0  0  0  0  0  0  0
   12.8178   50.0971   85.8387 O   0  0  0  0  0  0  0  0  0  0  0  0
   10.9370   51.2719   86.3708 N   0  0  0  0  0  0  0  0  0  0  0  0
    9.5815   51.5038   86.9462 C   0  0  0  0  0  0  0  0  0  0  0  0
    8.9402   52.5217   86.0216 C   0  0  0  0  0  0  0  0  0  0  0  0
    8.3979   51.8850   84.8524 O   0  0  0  0  0  0  0  0  0  0  0  0
   10.0955   53.4071   85.6546 C   0  0  0  0  0  0  0  0  0  0  0  0
   11.3323   52.4799   85.5533 C   0  0  0  0  0  0  0  0  0  0  0  0
    9.0983   51.3896   84.3997 H   0  0  0  0  0  0  0  0  0  0  0  0
   11.2028   48.8754   87.1746 C   0  0  0  0  0  0  0  0  0  0  0  0
   13.2474   48.0533   88.3858 C   0  0  0  0  0  0  0  0  0  0  0  0
   11.8615   48.7448   88.5257 C   0  0  0  0  0  0  0  0  0  0  0  0
   12.0384   50.1200   89.1998 C   0  0  0  0  0  0  0  0  0  0  0  0
   10.9466   47.8221   89.3816 C   0  0  0  0  0  0  0  0  0  0  0  0
   13.6449   54.2056   87.9349 C   0  0  0  0  0  0  0  0  0  0  0  0
   13.5056   54.3080   89.3698 C   0  0  0  0  0  0  0  0  0  0  0  0
   12.3347   53.8164   89.9836 C   0  0  0  0  0  0  0  0  0  0  0  0
   12.1290   53.9013   91.3698 C   0  0  0  0  0  0  0  0  0  0  0  0
   14.4658   54.8859   90.2121 C   0  0  0  0  0  0  0  0  0  0  0  0
   14.2654   54.9678   91.6095 C   0  0  0  0  0  0  0  0  0  0  0  0
   13.1122   54.4594   92.2170 C   0  0  0  0  0  0  0  0  0  0  0  0
   12.9748   54.5702   93.5594 C   0  0  0  0  0  0  0  0  0  0  0  0
   12.4805   55.6805   94.1710 O   0  0  0  0  0  0  0  0  0  0  0  0
   12.4603   55.4500   95.5070 C   0  0  0  0  0  0  0  0  0  0  0  0
   12.9346   54.2406   95.7377 N   0  0  0  0  0  0  0  0  0  0  0  0
   13.2549   53.7034   94.5486 C   0  0  0  0  0  0  0  0  0  0  0  0
   13.8426   52.2842   94.4359 C   0  0  0  0  0  0  0  0  0  0  0  0
 29 28  2  0  0  0
 29 30  1  0  0  0
 31 30  1  0  0  0
 28 27  1  0  0  0
 30 26  2  0  0  0
 27 26  1  0  0  0
 26 25  1  0  0  0
 25 22  2  0  0  0
 25 24  1  0  0  0
 22 21  1  0  0  0
 24 23  2  0  0  0
 21 20  2  0  0  0
 23 20  1  0  0  0
 20 19  1  0  0  0
 19  3  1  0  0  0
  3  1  1  0  0  0
 11 12  1  0  0  0
 11  9  1  0  0  0
  1  2  2  0  0  0
  1 12  1  0  0  0
 12  7  1  0  0  0
  9 10  1  0  0  0
  9  8  1  0  0  0
  7  8  1  0  0  0
  7  5  1  0  0  0
  6  5  2  0  0  0
  5 14  1  0  0  0
 17 16  1  0  0  0
 14 16  1  0  0  0
 16 15  1  0  0  0
 16 18  1  0  0  0
 10 13  1  0  0  0
  3  4  1  0  0  0
M  END
> <minimizedAffinity>
-6.32146

$$$$
4W9D_3JK_C_301


 31 33  0  0  0  0  0  0  0  0999 V2000
    7.6523   51.7280   86.6274 C   0  0  0  0  0  0  0  0  0  0  0  0
    6.8851   52.5030   87.1955 O   0  0  0  0  0  0  0  0  0  0  0  0
    8.5663   50.9696   87.2983 N   0  0  0  0  0  0  0  0  0  0  0  0
    9.1673   50.3747   86.7943 H   0  0  0  0  0  0  0  0  0  0  0  0
    9.9788   52.5955   84.7398 C   0  0  0  0  0  0  0  0  0  0  0  0
    9.7301   53.6340   85.3566 O   0  0  0  0  0  0  0  0  0  0  0  0
    9.0679   51.5770   84.6279 N   0  0  0  0  0  0  0  0  0  0  0  0
    9.1599   50.2929   83.8764 C   0  0  0  0  0  0  0  0  0  0  0  0
    7.7252   49.9532   83.5183 C   0  0  0  0  0  0  0  0  0  0  0  0
    7.3023   50.6739   82.3485 O   0  0  0  0  0  0  0  0  0  0  0  0
    6.9657   50.4147   84.7279 C   0  0  0  0  0  0  0  0  0  0  0  0
    7.6841   51.6942   85.2241 C   0  0  0  0  0  0  0  0  0  0  0  0
    7.4123   51.6260   82.4980 H   0  0  0  0  0  0  0  0  0  0  0  0
   11.3546   52.4753   83.9768 C   0  0  0  0  0  0  0  0  0  0  0  0
   11.8067   51.1811   86.0850 C   0  0  0  0  0  0  0  0  0  0  0  0
   12.4341   51.9804   84.9077 C   0  0  0  0  0  0  0  0  0  0  0  0
   13.4511   51.0904   84.1659 C   0  0  0  0  0  0  0  0  0  0  0  0
   13.1285   53.2418   85.4973 C   0  0  0  0  0  0  0  0  0  0  0  0
    8.6666   51.0288   88.7725 C   0  0  0  0  0  0  0  0  0  0  0  0
    9.7953   51.8321   89.1840 C   0  0  0  0  0  0  0  0  0  0  0  0
   10.9811   51.1905   89.5985 C   0  0  0  0  0  0  0  0  0  0  0  0
   12.1068   51.9115   90.0273 C   0  0  0  0  0  0  0  0  0  0  0  0
    9.7914   53.2337   89.2145 C   0  0  0  0  0  0  0  0  0  0  0  0
   10.9252   53.9639   89.6398 C   0  0  0  0  0  0  0  0  0  0  0  0
   12.1067   53.3243   90.0295 C   0  0  0  0  0  0  0  0  0  0  0  0
   13.1584   54.0769   90.4305 C   0  0  0  0  0  0  0  0  0  0  0  0
   14.1732   54.4448   89.6022 O   0  0  0  0  0  0  0  0  0  0  0  0
   15.0422   55.2037   90.3144 C   0  0  0  0  0  0  0  0  0  0  0  0
   14.6015   55.3063   91.5538 N   0  0  0  0  0  0  0  0  0  0  0  0
   13.4527   54.6133   91.6280 C   0  0  0  0  0  0  0  0  0  0  0  0
   12.6523   54.5155   92.9402 C   0  0  0  0  0  0  0  0  0  0  0  0
 29 28  2  0  0  0
 29 30  1  0  0  0
 31 30  1  0  0  0
 28 27  1  0  0  0
 30 26  2  0  0  0
 27 26  1  0  0  0
 26 25  1  0  0  0
 25 22  2  0  0  0
 25 24  1  0  0  0
 22 21  1  0  0  0
 24 23  2  0  0  0
 21 20  2  0  0  0
 23 20  1  0  0  0
 20 19  1  0  0  0
 19  3  1  0  0  0
  3  1  1  0  0  0
 11 12  1  0  0  0
 11  9  1  0  0  0
  1  2  2  0  0  0
  1 12  1  0  0  0
 12  7  1  0  0  0
  9 10  1  0  0  0
  9  8  1  0  0  0
  7  8  1  0  0  0
  7  5  1  0  0  0
  6  5  2  0  0  0
  5 14  1  0  0  0
 17 16  1  0  0  0
 14 16  1  0  0  0
 16 15  1  0  0  0
 16 18  1  0  0  0
 10 13  1  0  0  0
  3  4  1  0  0  0
M  END
> <minimizedAffinity>
-6.00640

$$$$
4W9D_3JK_C_301


 31 33  0  0  0  0  0  0  0  0999 V2000
   10.7881   53.3196   88.9227 C   0  0  0  0  0  0  0  0  0  0  0  0
    9.7354   53.6880   88.4049 O   0  0  0  0  0  0  0  0  0  0  0  0
   11.4464   52.1900   88.5338 N   0  0  0  0  0  0  0  0  0  0  0  0
   12.2793   51.9318   88.9909 H   0  0  0  0  0  0  0  0  0  0  0  0
   10.0294   52.9266   91.9223 C   0  0  0  0  0  0  0  0  0  0  0  0
    8.9488   53.2231   91.4072 O   0  0  0  0  0  0  0  0  0  0  0  0
   11.2282   53.2409   91.3362 N   0  0  0  0  0  0  0  0  0  0  0  0
   12.6177   53.0293   91.8328 C   0  0  0  0  0  0  0  0  0  0  0  0
   13.4271   54.1447   91.1980 C   0  0  0  0  0  0  0  0  0  0  0  0
   13.2870   55.3683   91.9395 O   0  0  0  0  0  0  0  0  0  0  0  0
   12.8012   54.2739   89.8399 C   0  0  0  0  0  0  0  0  0  0  0  0
   11.2873   54.0118   90.0376 C   0  0  0  0  0  0  0  0  0  0  0  0
   12.3481   55.6043   91.9995 H   0  0  0  0  0  0  0  0  0  0  0  0
   10.0318   52.2471   93.3463 C   0  0  0  0  0  0  0  0  0  0  0  0
    8.1470   50.5828   93.3833 C   0  0  0  0  0  0  0  0  0  0  0  0
    9.6820   50.7836   93.2346 C   0  0  0  0  0  0  0  0  0  0  0  0
   10.1497   50.1953   91.8885 C   0  0  0  0  0  0  0  0  0  0  0  0
   10.3798   50.0652   94.4253 C   0  0  0  0  0  0  0  0  0  0  0  0
   10.9262   51.3481   87.4351 C   0  0  0  0  0  0  0  0  0  0  0  0
   11.8224   51.3620   86.3015 C   0  0  0  0  0  0  0  0  0  0  0  0
   12.3583   52.5912   85.8638 C   0  0  0  0  0  0  0  0  0  0  0  0
   13.2198   52.6764   84.7586 C   0  0  0  0  0  0  0  0  0  0  0  0
   12.1949   50.2183   85.5814 C   0  0  0  0  0  0  0  0  0  0  0  0
   13.0673   50.2988   84.4715 C   0  0  0  0  0  0  0  0  0  0  0  0
   13.6137   51.5170   84.0539 C   0  0  0  0  0  0  0  0  0  0  0  0
   14.4405   51.5318   82.9818 C   0  0  0  0  0  0  0  0  0  0  0  0
   15.7575   51.8649   83.0581 O   0  0  0  0  0  0  0  0  0  0  0  0
   16.2903   51.7574   81.8159 C   0  0  0  0  0  0  0  0  0  0  0  0
   15.3440   51.3796   80.9778 N   0  0  0  0  0  0  0  0  0  0  0  0
   14.2111   51.2466   81.6878 C   0  0  0  0  0  0  0  0  0  0  0  0
   12.8898   50.8126   81.0260 C   0  0  0  0  0  0  0  0  0  0  0  0
 29 28  2  0  0  0
 29 30  1  0  0  0
 31 30  1  0  0  0
 28 27  1  0  0  0
 30 26  2  0  0  0
 27 26  1  0  0  0
 26 25  1  0  0  0
 25 22  2  0  0  0
 25 24  1  0  0  0
 22 21  1  0  0  0
 24 23  2  0  0  0
 21 20  2  0  0  0
 23 20  1  0  0  0
 20 19  1  0  0  0
 19  3  1  0  0  0
  3  1  1  0  0  0
 11 12  1  0  0  0
 11  9  1  0  0  0
  1  2  2  0  0  0
  1 12  1  0  0  0
 12  7  1  0  0  0
  9 10  1  0  0  0
  9  8  1  0  0  0
  7  8  1  0  0  0
  7  5  1  0  0  0
  6  5  2  0  0  0
  5 14  1  0  0  0
 17 16  1  0  0  0
 14 16  1  0  0  0
 16 15  1  0  0  0
 16 18  1  0  0  0
 10 13  1  0  0  0
  3  4  1  0  0  0
M  END
> <minimizedAffinity>
-5.91995

$$$$
