1OAR_AZN_H_500


 25 27  0  0  0  0  0  0  0  0999 V2000
   37.4477   53.8756   79.2061 C   0  0  0  0  0  0  0  0  0  0  0  0
   36.0774   53.1067   77.1552 C   0  0  0  0  0  0  0  0  0  0  0  0
   38.1970   52.5964   79.0081 C   0  0  0  0  0  0  0  0  0  0  0  0
   37.8301   54.7057   80.2258 C   0  0  0  0  0  0  0  0  0  0  0  0
   37.8652   51.6490   77.9329 C   0  0  0  0  0  0  0  0  0  0  0  0
   39.2554   52.2374   79.8237 C   0  0  0  0  0  0  0  0  0  0  0  0
   38.9208   54.3079   81.0362 C   0  0  0  0  0  0  0  0  0  0  0  0
   36.4916   51.0546   75.9731 C   0  0  0  0  0  0  0  0  0  0  0  0
   34.7493   52.5135   75.2320 C   0  0  0  0  0  0  0  0  0  0  0  0
   35.4731   51.3493   75.0877 C   0  0  0  0  0  0  0  0  0  0  0  0
   39.5958   53.0966   80.7720 C   0  0  0  0  0  0  0  0  0  0  0  0
   36.3592   54.1258   78.2637 C   0  0  0  0  0  0  0  0  0  0  0  0
   36.7962   51.9409   77.0099 C   0  0  0  0  0  0  0  0  0  0  0  0
   35.0427   53.3884   76.2582 C   0  0  0  0  0  0  0  0  0  0  0  0
   39.3262   55.1058   82.0475 O   0  0  0  0  0  0  0  0  0  0  0  0
   37.1944   55.8688   80.4319 O   0  0  0  0  0  0  0  0  0  0  0  0
   35.6912   55.1451   78.3589 O   0  0  0  0  0  0  0  0  0  0  0  0
   38.5036   50.6161   77.8134 O   0  0  0  0  0  0  0  0  0  0  0  0
   38.8757   55.9091   82.2199 H   0  0  0  0  0  0  0  0  0  0  0  0
   36.4747   56.1130   79.8838 H   0  0  0  0  0  0  0  0  0  0  0  0
   41.8618   51.9467   81.4021 O   0  0  0  0  0  0  0  0  0  0  0  0
   40.1885   51.5190   82.9074 O   0  0  0  0  0  0  0  0  0  0  0  0
   41.3256   53.5779   82.8623 O   0  0  0  0  0  0  0  0  0  0  0  0
   40.7517   52.5396   82.0872 S   0  0  0  0  0  0  0  0  0  0  0  0
   41.5461   51.2188   80.8441 H   0  0  0  0  0  0  0  0  0  0  0  0
  1  3  2  0  0  0
  1  4  1  0  0  0
  1 12  1  0  0  0
  2 12  1  0  0  0
  2 13  2  0  0  0
  2 14  1  0  0  0
  3  5  1  0  0  0
  3  6  1  0  0  0
  4  7  2  0  0  0
  4 16  1  0  0  0
  5 13  1  0  0  0
  5 18  2  0  0  0
  6 11  2  0  0  0
  7 11  1  0  0  0
  7 15  1  0  0  0
  8 10  2  0  0  0
  8 13  1  0  0  0
  9 10  1  0  0  0
  9 14  2  0  0  0
 11 24  1  0  0  0
 12 17  2  0  0  0
 21 24  1  0  0  0
 22 24  2  0  0  0
 23 24  2  0  0  0
 21 25  1  0  0  0
 15 19  1  0  0  0
 16 20  1  0  0  0
M  END
> <minimizedAffinity>
-11.58190

$$$$
1OAR_AZN_H_500


 25 27  0  0  0  0  0  0  0  0999 V2000
   36.9701   53.5770   78.4452 C   0  0  0  0  0  0  0  0  0  0  0  0
   38.6603   53.7034   80.3951 C   0  0  0  0  0  0  0  0  0  0  0  0
   37.6413   52.2773   78.1337 C   0  0  0  0  0  0  0  0  0  0  0  0
   35.9251   53.9782   77.6565 C   0  0  0  0  0  0  0  0  0  0  0  0
   38.7633   51.7605   78.9322 C   0  0  0  0  0  0  0  0  0  0  0  0
   37.2346   51.4809   77.0778 C   0  0  0  0  0  0  0  0  0  0  0  0
   35.5334   53.1350   76.5887 C   0  0  0  0  0  0  0  0  0  0  0  0
   40.2983   52.0025   80.8470 C   0  0  0  0  0  0  0  0  0  0  0  0
   40.1638   53.9200   82.2678 C   0  0  0  0  0  0  0  0  0  0  0  0
   40.7464   52.7136   81.9432 C   0  0  0  0  0  0  0  0  0  0  0  0
   36.1994   51.9093   76.3720 C   0  0  0  0  0  0  0  0  0  0  0  0
   37.5017   54.3064   79.5945 C   0  0  0  0  0  0  0  0  0  0  0  0
   39.2472   52.5001   80.0718 C   0  0  0  0  0  0  0  0  0  0  0  0
   39.1298   54.4179   81.5013 C   0  0  0  0  0  0  0  0  0  0  0  0
   34.5035   53.4990   75.7946 O   0  0  0  0  0  0  0  0  0  0  0  0
   35.2858   55.1306   77.9071 O   0  0  0  0  0  0  0  0  0  0  0  0
   37.0151   55.3812   79.9140 O   0  0  0  0  0  0  0  0  0  0  0  0
   39.2811   50.6957   78.6369 O   0  0  0  0  0  0  0  0  0  0  0  0
   34.0638   54.3133   75.9414 H   0  0  0  0  0  0  0  0  0  0  0  0
   35.5614   55.6739   78.6190 H   0  0  0  0  0  0  0  0  0  0  0  0
   36.1871   52.0321   73.7568 O   0  0  0  0  0  0  0  0  0  0  0  0
   34.4361   50.8242   74.6075 O   0  0  0  0  0  0  0  0  0  0  0  0
   36.6139   49.9428   74.4868 O   0  0  0  0  0  0  0  0  0  0  0  0
   35.8274   51.0866   74.7717 S   0  0  0  0  0  0  0  0  0  0  0  0
   35.6845   52.8517   73.8857 H   0  0  0  0  0  0  0  0  0  0  0  0
  1  3  2  0  0  0
  1  4  1  0  0  0
  1 12  1  0  0  0
  2 12  1  0  0  0
  2 13  2  0  0  0
  2 14  1  0  0  0
  3  5  1  0  0  0
  3  6  1  0  0  0
  4  7  2  0  0  0
  4 16  1  0  0  0
  5 13  1  0  0  0
  5 18  2  0  0  0
  6 11  2  0  0  0
  7 11  1  0  0  0
  7 15  1  0  0  0
  8 10  2  0  0  0
  8 13  1  0  0  0
  9 10  1  0  0  0
  9 14  2  0  0  0
 11 24  1  0  0  0
 12 17  2  0  0  0
 21 24  1  0  0  0
 22 24  2  0  0  0
 23 24  2  0  0  0
 21 25  1  0  0  0
 15 19  1  0  0  0
 16 20  1  0  0  0
M  END
> <minimizedAffinity>
-11.31587

$$$$
1OAR_AZN_H_500


 25 27  0  0  0  0  0  0  0  0999 V2000
   37.9807   51.7989   78.1428 C   0  0  0  0  0  0  0  0  0  0  0  0
   39.3521   52.3975   80.2489 C   0  0  0  0  0  0  0  0  0  0  0  0
   37.3657   53.1491   78.3317 C   0  0  0  0  0  0  0  0  0  0  0  0
   37.5742   51.0389   77.0787 C   0  0  0  0  0  0  0  0  0  0  0  0
   37.7480   54.0394   79.4384 C   0  0  0  0  0  0  0  0  0  0  0  0
   36.4057   53.6411   77.4652 C   0  0  0  0  0  0  0  0  0  0  0  0
   36.5941   51.5774   76.2102 C   0  0  0  0  0  0  0  0  0  0  0  0
   39.1424   54.4851   81.4228 C   0  0  0  0  0  0  0  0  0  0  0  0
   40.7134   52.8533   82.1864 C   0  0  0  0  0  0  0  0  0  0  0  0
   40.1207   54.0911   82.3150 C   0  0  0  0  0  0  0  0  0  0  0  0
   36.0779   52.8711   76.4390 C   0  0  0  0  0  0  0  0  0  0  0  0
   38.9866   51.4158   79.1311 C   0  0  0  0  0  0  0  0  0  0  0  0
   38.7597   53.6337   80.3827 C   0  0  0  0  0  0  0  0  0  0  0  0
   40.3339   52.0069   81.1644 C   0  0  0  0  0  0  0  0  0  0  0  0
   36.1746   50.8556   75.1487 O   0  0  0  0  0  0  0  0  0  0  0  0
   38.1081   49.8272   76.8636 O   0  0  0  0  0  0  0  0  0  0  0  0
   39.5339   50.3255   79.0544 O   0  0  0  0  0  0  0  0  0  0  0  0
   37.2155   55.1313   79.5529 O   0  0  0  0  0  0  0  0  0  0  0  0
   36.5195   49.9972   75.0001 H   0  0  0  0  0  0  0  0  0  0  0  0
   38.7555   49.4896   77.4509 H   0  0  0  0  0  0  0  0  0  0  0  0
   35.0044   53.2776   74.0859 O   0  0  0  0  0  0  0  0  0  0  0  0
   34.1349   54.6326   75.7160 O   0  0  0  0  0  0  0  0  0  0  0  0
   33.5274   52.3679   75.5251 O   0  0  0  0  0  0  0  0  0  0  0  0
   34.5872   53.3060   75.4565 S   0  0  0  0  0  0  0  0  0  0  0  0
   35.7361   53.9013   73.9577 H   0  0  0  0  0  0  0  0  0  0  0  0
  1  3  2  0  0  0
  1  4  1  0  0  0
  1 12  1  0  0  0
  2 12  1  0  0  0
  2 13  2  0  0  0
  2 14  1  0  0  0
  3  5  1  0  0  0
  3  6  1  0  0  0
  4  7  2  0  0  0
  4 16  1  0  0  0
  5 13  1  0  0  0
  5 18  2  0  0  0
  6 11  2  0  0  0
  7 11  1  0  0  0
  7 15  1  0  0  0
  8 10  2  0  0  0
  8 13  1  0  0  0
  9 10  1  0  0  0
  9 14  2  0  0  0
 11 24  1  0  0  0
 12 17  2  0  0  0
 21 24  1  0  0  0
 22 24  2  0  0  0
 23 24  2  0  0  0
 21 25  1  0  0  0
 15 19  1  0  0  0
 16 20  1  0  0  0
M  END
> <minimizedAffinity>
-10.51041

$$$$
1OAR_AZN_H_500


 25 27  0  0  0  0  0  0  0  0999 V2000
   36.6702   52.3304   77.2337 C   0  0  0  0  0  0  0  0  0  0  0  0
   37.8014   53.5370   79.2185 C   0  0  0  0  0  0  0  0  0  0  0  0
   37.6623   51.2459   77.5104 C   0  0  0  0  0  0  0  0  0  0  0  0
   35.7710   52.1494   76.2169 C   0  0  0  0  0  0  0  0  0  0  0  0
   38.6576   51.3470   78.5887 C   0  0  0  0  0  0  0  0  0  0  0  0
   37.6914   50.0775   76.7696 C   0  0  0  0  0  0  0  0  0  0  0  0
   35.8273   50.9391   75.4843 C   0  0  0  0  0  0  0  0  0  0  0  0
   39.6242   52.6033   80.4777 C   0  0  0  0  0  0  0  0  0  0  0  0
   38.7533   54.7481   81.0737 C   0  0  0  0  0  0  0  0  0  0  0  0
   39.6438   53.7188   81.2922 C   0  0  0  0  0  0  0  0  0  0  0  0
   36.7765   49.9500   75.8209 C   0  0  0  0  0  0  0  0  0  0  0  0
   36.7530   53.5028   78.1020 C   0  0  0  0  0  0  0  0  0  0  0  0
   38.6950   52.5122   79.4378 C   0  0  0  0  0  0  0  0  0  0  0  0
   37.8382   54.6648   80.0439 C   0  0  0  0  0  0  0  0  0  0  0  0
   34.9518   50.7271   74.4782 O   0  0  0  0  0  0  0  0  0  0  0  0
   34.8554   53.0904   75.9420 O   0  0  0  0  0  0  0  0  0  0  0  0
   35.9834   54.4386   77.9397 O   0  0  0  0  0  0  0  0  0  0  0  0
   39.4490   50.4369   78.7739 O   0  0  0  0  0  0  0  0  0  0  0  0
   34.3231   51.3860   74.2576 H   0  0  0  0  0  0  0  0  0  0  0  0
   34.8356   53.8844   76.4392 H   0  0  0  0  0  0  0  0  0  0  0  0
   37.2686   49.2420   73.3489 O   0  0  0  0  0  0  0  0  0  0  0  0
   35.7585   47.8708   74.3923 O   0  0  0  0  0  0  0  0  0  0  0  0
   38.0679   47.7316   74.8187 O   0  0  0  0  0  0  0  0  0  0  0  0
   36.9686   48.5969   74.5928 S   0  0  0  0  0  0  0  0  0  0  0  0
   36.5538   49.8577   73.1234 H   0  0  0  0  0  0  0  0  0  0  0  0
  1  3  2  0  0  0
  1  4  1  0  0  0
  1 12  1  0  0  0
  2 12  1  0  0  0
  2 13  2  0  0  0
  2 14  1  0  0  0
  3  5  1  0  0  0
  3  6  1  0  0  0
  4  7  2  0  0  0
  4 16  1  0  0  0
  5 13  1  0  0  0
  5 18  2  0  0  0
  6 11  2  0  0  0
  7 11  1  0  0  0
  7 15  1  0  0  0
  8 10  2  0  0  0
  8 13  1  0  0  0
  9 10  1  0  0  0
  9 14  2  0  0  0
 11 24  1  0  0  0
 12 17  2  0  0  0
 21 24  1  0  0  0
 22 24  2  0  0  0
 23 24  2  0  0  0
 21 25  1  0  0  0
 15 19  1  0  0  0
 16 20  1  0  0  0
M  END
> <minimizedAffinity>
-10.27843

$$$$
1OAR_AZN_H_500


 25 27  0  0  0  0  0  0  0  0999 V2000
   37.1331   51.6740   77.1741 C   0  0  0  0  0  0  0  0  0  0  0  0
   38.4478   52.5669   79.2111 C   0  0  0  0  0  0  0  0  0  0  0  0
   36.3712   52.9565   77.2817 C   0  0  0  0  0  0  0  0  0  0  0  0
   36.8052   50.8014   76.1710 C   0  0  0  0  0  0  0  0  0  0  0  0
   36.6608   53.9585   78.3189 C   0  0  0  0  0  0  0  0  0  0  0  0
   35.3537   53.2766   76.4004 C   0  0  0  0  0  0  0  0  0  0  0  0
   35.7624   51.1652   75.2850 C   0  0  0  0  0  0  0  0  0  0  0  0
   38.0145   54.6940   80.2444 C   0  0  0  0  0  0  0  0  0  0  0  0
   39.7669   53.3055   81.0897 C   0  0  0  0  0  0  0  0  0  0  0  0
   39.0393   54.4749   81.1444 C   0  0  0  0  0  0  0  0  0  0  0  0
   35.1054   52.4057   75.4345 C   0  0  0  0  0  0  0  0  0  0  0  0
   38.1851   51.4754   78.1687 C   0  0  0  0  0  0  0  0  0  0  0  0
   37.7207   53.7351   79.2710 C   0  0  0  0  0  0  0  0  0  0  0  0
   39.4760   52.3532   80.1340 C   0  0  0  0  0  0  0  0  0  0  0  0
   35.4172   50.3293   74.2821 O   0  0  0  0  0  0  0  0  0  0  0  0
   37.4706   49.6454   76.0293 O   0  0  0  0  0  0  0  0  0  0  0  0
   38.8515   50.4507   78.1566 O   0  0  0  0  0  0  0  0  0  0  0  0
   36.0093   54.9891   78.3684 O   0  0  0  0  0  0  0  0  0  0  0  0
   35.8555   49.5068   74.1860 H   0  0  0  0  0  0  0  0  0  0  0  0
   38.1575   49.4239   76.6269 H   0  0  0  0  0  0  0  0  0  0  0  0
   33.9133   52.2336   73.1099 O   0  0  0  0  0  0  0  0  0  0  0  0
   33.1244   53.9559   74.3985 O   0  0  0  0  0  0  0  0  0  0  0  0
   32.5130   51.7199   74.7998 O   0  0  0  0  0  0  0  0  0  0  0  0
   33.5660   52.6016   74.4505 S   0  0  0  0  0  0  0  0  0  0  0  0
   34.6362   52.7992   72.7963 H   0  0  0  0  0  0  0  0  0  0  0  0
  1  3  2  0  0  0
  1  4  1  0  0  0
  1 12  1  0  0  0
  2 12  1  0  0  0
  2 13  2  0  0  0
  2 14  1  0  0  0
  3  5  1  0  0  0
  3  6  1  0  0  0
  4  7  2  0  0  0
  4 16  1  0  0  0
  5 13  1  0  0  0
  5 18  2  0  0  0
  6 11  2  0  0  0
  7 11  1  0  0  0
  7 15  1  0  0  0
  8 10  2  0  0  0
  8 13  1  0  0  0
  9 10  1  0  0  0
  9 14  2  0  0  0
 11 24  1  0  0  0
 12 17  2  0  0  0
 21 24  1  0  0  0
 22 24  2  0  0  0
 23 24  2  0  0  0
 21 25  1  0  0  0
 15 19  1  0  0  0
 16 20  1  0  0  0
M  END
> <minimizedAffinity>
-10.01151

$$$$
1OAR_AZN_H_500


 25 27  0  0  0  0  0  0  0  0999 V2000
   36.5341   51.3873   76.7005 C   0  0  0  0  0  0  0  0  0  0  0  0
   37.9060   52.5175   78.5755 C   0  0  0  0  0  0  0  0  0  0  0  0
   35.7217   52.6427   76.7317 C   0  0  0  0  0  0  0  0  0  0  0  0
   36.1967   50.4130   75.7995 C   0  0  0  0  0  0  0  0  0  0  0  0
   36.0168   53.7475   77.6569 C   0  0  0  0  0  0  0  0  0  0  0  0
   34.6487   52.8385   75.8803 C   0  0  0  0  0  0  0  0  0  0  0  0
   35.0963   50.6508   74.9408 C   0  0  0  0  0  0  0  0  0  0  0  0
   37.4291   54.7123   79.4333 C   0  0  0  0  0  0  0  0  0  0  0  0
   39.2815   53.4795   80.3067 C   0  0  0  0  0  0  0  0  0  0  0  0
   38.5057   54.6189   80.2937 C   0  0  0  0  0  0  0  0  0  0  0  0
   34.3925   51.8724   75.0118 C   0  0  0  0  0  0  0  0  0  0  0  0
   37.6416   51.3243   77.6518 C   0  0  0  0  0  0  0  0  0  0  0  0
   37.1312   53.6561   78.5678 C   0  0  0  0  0  0  0  0  0  0  0  0
   38.9868   52.4318   79.4581 C   0  0  0  0  0  0  0  0  0  0  0  0
   34.7401   49.7123   74.0375 O   0  0  0  0  0  0  0  0  0  0  0  0
   36.9054   49.2763   75.7281 O   0  0  0  0  0  0  0  0  0  0  0  0
   38.3518   50.3305   77.6973 O   0  0  0  0  0  0  0  0  0  0  0  0
   35.3230   54.7513   77.6473 O   0  0  0  0  0  0  0  0  0  0  0  0
   35.2095   48.9026   73.9933 H   0  0  0  0  0  0  0  0  0  0  0  0
   37.6301   49.1390   76.3060 H   0  0  0  0  0  0  0  0  0  0  0  0
   31.9124   51.0551   74.8242 O   0  0  0  0  0  0  0  0  0  0  0  0
   32.9122   51.3661   72.7864 O   0  0  0  0  0  0  0  0  0  0  0  0
   32.1460   53.1716   74.0853 O   0  0  0  0  0  0  0  0  0  0  0  0
   32.7994   51.9143   74.0973 S   0  0  0  0  0  0  0  0  0  0  0  0
   32.2946   50.1650   74.8759 H   0  0  0  0  0  0  0  0  0  0  0  0
  1  3  2  0  0  0
  1  4  1  0  0  0
  1 12  1  0  0  0
  2 12  1  0  0  0
  2 13  2  0  0  0
  2 14  1  0  0  0
  3  5  1  0  0  0
  3  6  1  0  0  0
  4  7  2  0  0  0
  4 16  1  0  0  0
  5 13  1  0  0  0
  5 18  2  0  0  0
  6 11  2  0  0  0
  7 11  1  0  0  0
  7 15  1  0  0  0
  8 10  2  0  0  0
  8 13  1  0  0  0
  9 10  1  0  0  0
  9 14  2  0  0  0
 11 24  1  0  0  0
 12 17  2  0  0  0
 21 24  1  0  0  0
 22 24  2  0  0  0
 23 24  2  0  0  0
 21 25  1  0  0  0
 15 19  1  0  0  0
 16 20  1  0  0  0
M  END
> <minimizedAffinity>
-9.68374

$$$$
1OAR_AZN_H_500


 25 27  0  0  0  0  0  0  0  0999 V2000
   35.4038   52.2475   76.2108 C   0  0  0  0  0  0  0  0  0  0  0  0
   36.9757   53.1669   78.0435 C   0  0  0  0  0  0  0  0  0  0  0  0
   36.2499   51.0175   76.3000 C   0  0  0  0  0  0  0  0  0  0  0  0
   34.3518   52.2547   75.3342 C   0  0  0  0  0  0  0  0  0  0  0  0
   37.3926   50.9143   77.2204 C   0  0  0  0  0  0  0  0  0  0  0  0
   35.9962   49.8998   75.5248 C   0  0  0  0  0  0  0  0  0  0  0  0
   34.1195   51.0912   74.5616 C   0  0  0  0  0  0  0  0  0  0  0  0
   38.7974   51.9117   78.9847 C   0  0  0  0  0  0  0  0  0  0  0  0
   38.3544   54.1237   79.7750 C   0  0  0  0  0  0  0  0  0  0  0  0
   39.1012   52.9661   79.8238 C   0  0  0  0  0  0  0  0  0  0  0  0
   34.9467   49.9583   74.7196 C   0  0  0  0  0  0  0  0  0  0  0  0
   35.7857   53.3461   77.0955 C   0  0  0  0  0  0  0  0  0  0  0  0
   37.7263   52.0132   78.0927 C   0  0  0  0  0  0  0  0  0  0  0  0
   37.2998   54.2304   78.8911 C   0  0  0  0  0  0  0  0  0  0  0  0
   33.0876   51.0636   73.6909 O   0  0  0  0  0  0  0  0  0  0  0  0
   33.5590   53.3318   75.2305 O   0  0  0  0  0  0  0  0  0  0  0  0
   35.1511   54.3908   77.0811 O   0  0  0  0  0  0  0  0  0  0  0  0
   38.0557   49.8905   77.2551 O   0  0  0  0  0  0  0  0  0  0  0  0
   32.5406   51.8175   73.5887 H   0  0  0  0  0  0  0  0  0  0  0  0
   33.7305   54.0917   75.7512 H   0  0  0  0  0  0  0  0  0  0  0  0
   33.4508   48.1034   73.6351 O   0  0  0  0  0  0  0  0  0  0  0  0
   35.6838   47.5927   73.5967 O   0  0  0  0  0  0  0  0  0  0  0  0
   34.7344   49.1373   72.0977 O   0  0  0  0  0  0  0  0  0  0  0  0
   34.7550   48.6613   73.4322 S   0  0  0  0  0  0  0  0  0  0  0  0
   33.3859   47.7525   74.5370 H   0  0  0  0  0  0  0  0  0  0  0  0
  1  3  2  0  0  0
  1  4  1  0  0  0
  1 12  1  0  0  0
  2 12  1  0  0  0
  2 13  2  0  0  0
  2 14  1  0  0  0
  3  5  1  0  0  0
  3  6  1  0  0  0
  4  7  2  0  0  0
  4 16  1  0  0  0
  5 13  1  0  0  0
  5 18  2  0  0  0
  6 11  2  0  0  0
  7 11  1  0  0  0
  7 15  1  0  0  0
  8 10  2  0  0  0
  8 13  1  0  0  0
  9 10  1  0  0  0
  9 14  2  0  0  0
 11 24  1  0  0  0
 12 17  2  0  0  0
 21 24  1  0  0  0
 22 24  2  0  0  0
 23 24  2  0  0  0
 21 25  1  0  0  0
 15 19  1  0  0  0
 16 20  1  0  0  0
M  END
> <minimizedAffinity>
-8.78645

$$$$
1OAR_AZN_H_500


 25 27  0  0  0  0  0  0  0  0999 V2000
   35.6712   51.3972   75.7761 C   0  0  0  0  0  0  0  0  0  0  0  0
   37.3128   51.9628   77.6892 C   0  0  0  0  0  0  0  0  0  0  0  0
   35.1057   52.7545   76.0497 C   0  0  0  0  0  0  0  0  0  0  0  0
   35.1191   50.6499   74.7702 C   0  0  0  0  0  0  0  0  0  0  0  0
   35.6413   53.6321   77.1016 C   0  0  0  0  0  0  0  0  0  0  0  0
   34.0487   53.2655   75.3174 C   0  0  0  0  0  0  0  0  0  0  0  0
   34.0427   51.2077   74.0388 C   0  0  0  0  0  0  0  0  0  0  0  0
   37.2877   54.0453   78.8903 C   0  0  0  0  0  0  0  0  0  0  0  0
   38.9204   52.3869   79.4358 C   0  0  0  0  0  0  0  0  0  0  0  0
   38.3675   53.6320   79.6462 C   0  0  0  0  0  0  0  0  0  0  0  0
   33.5794   52.5070   74.3388 C   0  0  0  0  0  0  0  0  0  0  0  0
   36.7911   50.9936   76.6237 C   0  0  0  0  0  0  0  0  0  0  0  0
   36.7609   53.2062   77.9047 C   0  0  0  0  0  0  0  0  0  0  0  0
   38.3992   51.5526   78.4678 C   0  0  0  0  0  0  0  0  0  0  0  0
   33.4785   50.4989   73.0373 O   0  0  0  0  0  0  0  0  0  0  0  0
   35.6028   49.4325   74.4819 O   0  0  0  0  0  0  0  0  0  0  0  0
   37.3079   49.8964   76.4715 O   0  0  0  0  0  0  0  0  0  0  0  0
   35.1441   54.7305   77.2895 O   0  0  0  0  0  0  0  0  0  0  0  0
   33.7886   49.6368   72.8411 H   0  0  0  0  0  0  0  0  0  0  0  0
   36.3159   49.0820   74.9785 H   0  0  0  0  0  0  0  0  0  0  0  0
   31.0453   51.9630   73.9688 O   0  0  0  0  0  0  0  0  0  0  0  0
   32.0358   52.9179   72.1368 O   0  0  0  0  0  0  0  0  0  0  0  0
   31.4174   54.1854   74.0197 O   0  0  0  0  0  0  0  0  0  0  0  0
   31.9804   52.9689   73.5602 S   0  0  0  0  0  0  0  0  0  0  0  0
   31.3644   51.0914   73.6870 H   0  0  0  0  0  0  0  0  0  0  0  0
  1  3  2  0  0  0
  1  4  1  0  0  0
  1 12  1  0  0  0
  2 12  1  0  0  0
  2 13  2  0  0  0
  2 14  1  0  0  0
  3  5  1  0  0  0
  3  6  1  0  0  0
  4  7  2  0  0  0
  4 16  1  0  0  0
  5 13  1  0  0  0
  5 18  2  0  0  0
  6 11  2  0  0  0
  7 11  1  0  0  0
  7 15  1  0  0  0
  8 10  2  0  0  0
  8 13  1  0  0  0
  9 10  1  0  0  0
  9 14  2  0  0  0
 11 24  1  0  0  0
 12 17  2  0  0  0
 21 24  1  0  0  0
 22 24  2  0  0  0
 23 24  2  0  0  0
 21 25  1  0  0  0
 15 19  1  0  0  0
 16 20  1  0  0  0
M  END
> <minimizedAffinity>
-8.68945

$$$$
