2P7A_43M_A_1


 10 10  0  0  0  0  0  0  0  0999 V2000
   49.2631  -28.5625  -96.4753 C   0  0  0  0  0  0  0  0  0  0  0  0
   47.9840  -28.1741  -96.9567 C   0  0  0  0  0  0  0  0  0  0  0  0
   47.3137  -27.0184  -96.4097 C   0  0  0  0  0  0  0  0  0  0  0  0
   45.9552  -26.5549  -96.8788 C   0  0  0  0  0  0  0  0  0  0  0  0
   47.9700  -26.2798  -95.3800 C   0  0  0  0  0  0  0  0  0  0  0  0
   49.2510  -26.6786  -94.9092 C   0  0  0  0  0  0  0  0  0  0  0  0
   49.9013  -27.8166  -95.4499 C   0  0  0  0  0  0  0  0  0  0  0  0
   47.2884  -29.1386  -98.2076 Cl  0  0  0  0  0  0  0  0  0  0  0  0
   49.8309  -25.9275  -93.9249 O   0  0  0  0  0  0  0  0  0  0  0  0
   49.3835  -25.1792  -93.5817 H   0  0  0  0  0  0  0  0  0  0  0  0
  1  2  2  0  0  0
  1  7  1  0  0  0
  2  3  1  0  0  0
  2  8  1  0  0  0
  3  4  1  0  0  0
  3  5  2  0  0  0
  5  6  1  0  0  0
  6  7  2  0  0  0
  6  9  1  0  0  0
  9 10  1  0  0  0
M  END
> <minimizedAffinity>
-6.34543

$$$$
2P7A_43M_A_1


 10 10  0  0  0  0  0  0  0  0999 V2000
   49.3695  -26.5425  -94.7739 C   0  0  0  0  0  0  0  0  0  0  0  0
   48.9026  -27.4250  -95.7848 C   0  0  0  0  0  0  0  0  0  0  0  0
   47.6233  -27.2059  -96.4169 C   0  0  0  0  0  0  0  0  0  0  0  0
   47.0725  -28.1069  -97.4964 C   0  0  0  0  0  0  0  0  0  0  0  0
   46.8471  -26.0826  -96.0020 C   0  0  0  0  0  0  0  0  0  0  0  0
   47.3277  -25.2063  -94.9907 C   0  0  0  0  0  0  0  0  0  0  0  0
   48.5840  -25.4302  -94.3729 C   0  0  0  0  0  0  0  0  0  0  0  0
   49.9277  -28.7470  -96.2096 Cl  0  0  0  0  0  0  0  0  0  0  0  0
   46.5408  -24.1446  -94.6402 O   0  0  0  0  0  0  0  0  0  0  0  0
   45.7138  -24.0153  -95.0613 H   0  0  0  0  0  0  0  0  0  0  0  0
  1  2  2  0  0  0
  1  7  1  0  0  0
  2  3  1  0  0  0
  2  8  1  0  0  0
  3  4  1  0  0  0
  3  5  2  0  0  0
  5  6  1  0  0  0
  6  7  2  0  0  0
  6  9  1  0  0  0
  9 10  1  0  0  0
M  END
> <minimizedAffinity>
-6.19490

$$$$
2P7A_43M_A_1


 10 10  0  0  0  0  0  0  0  0999 V2000
   46.8615  -26.4878  -95.9264 C   0  0  0  0  0  0  0  0  0  0  0  0
   47.6949  -27.4248  -96.5943 C   0  0  0  0  0  0  0  0  0  0  0  0
   49.0654  -27.6132  -96.1816 C   0  0  0  0  0  0  0  0  0  0  0  0
   50.0002  -28.5927  -96.8502 C   0  0  0  0  0  0  0  0  0  0  0  0
   49.5553  -26.8383  -95.0880 C   0  0  0  0  0  0  0  0  0  0  0  0
   48.7095  -25.9057  -94.4272 C   0  0  0  0  0  0  0  0  0  0  0  0
   47.3655  -25.7247  -94.8407 C   0  0  0  0  0  0  0  0  0  0  0  0
   46.9941  -28.3100  -97.8998 Cl  0  0  0  0  0  0  0  0  0  0  0  0
   49.2350  -25.1968  -93.3829 O   0  0  0  0  0  0  0  0  0  0  0  0
   50.1259  -25.3320  -93.1261 H   0  0  0  0  0  0  0  0  0  0  0  0
  1  2  2  0  0  0
  1  7  1  0  0  0
  2  3  1  0  0  0
  2  8  1  0  0  0
  3  4  1  0  0  0
  3  5  2  0  0  0
  5  6  1  0  0  0
  6  7  2  0  0  0
  6  9  1  0  0  0
  9 10  1  0  0  0
M  END
> <minimizedAffinity>
-5.96620

$$$$
2P7A_43M_A_1


 10 10  0  0  0  0  0  0  0  0999 V2000
   46.7810  -26.1289  -96.2416 C   0  0  0  0  0  0  0  0  0  0  0  0
   47.9089  -26.7031  -95.5960 C   0  0  0  0  0  0  0  0  0  0  0  0
   48.5083  -27.9139  -96.1047 C   0  0  0  0  0  0  0  0  0  0  0  0
   49.7071  -28.5721  -95.4642 C   0  0  0  0  0  0  0  0  0  0  0  0
   47.9408  -28.5124  -97.2693 C   0  0  0  0  0  0  0  0  0  0  0  0
   46.8133  -27.9257  -97.9066 C   0  0  0  0  0  0  0  0  0  0  0  0
   46.2288  -26.7378  -97.3989 C   0  0  0  0  0  0  0  0  0  0  0  0
   48.5136  -25.8903  -94.1986 Cl  0  0  0  0  0  0  0  0  0  0  0  0
   46.3183  -28.5427  -99.0216 O   0  0  0  0  0  0  0  0  0  0  0  0
   46.7198  -29.3271  -99.3402 H   0  0  0  0  0  0  0  0  0  0  0  0
  1  2  2  0  0  0
  1  7  1  0  0  0
  2  3  1  0  0  0
  2  8  1  0  0  0
  3  4  1  0  0  0
  3  5  2  0  0  0
  5  6  1  0  0  0
  6  7  2  0  0  0
  6  9  1  0  0  0
  9 10  1  0  0  0
M  END
> <minimizedAffinity>
-5.93222

$$$$
2P7A_43M_A_1


 10 10  0  0  0  0  0  0  0  0999 V2000
   46.5123  -27.0388  -97.2883 C   0  0  0  0  0  0  0  0  0  0  0  0
   47.5505  -27.9899  -97.0980 C   0  0  0  0  0  0  0  0  0  0  0  0
   48.4899  -27.8436  -96.0116 C   0  0  0  0  0  0  0  0  0  0  0  0
   49.6136  -28.8198  -95.7567 C   0  0  0  0  0  0  0  0  0  0  0  0
   48.3450  -26.7248  -95.1377 C   0  0  0  0  0  0  0  0  0  0  0  0
   47.2999  -25.7818  -95.3387 C   0  0  0  0  0  0  0  0  0  0  0  0
   46.3831  -25.9313  -96.4099 C   0  0  0  0  0  0  0  0  0  0  0  0
   47.6262  -29.3053  -98.2129 Cl  0  0  0  0  0  0  0  0  0  0  0  0
   47.2097  -24.7341  -94.4650 O   0  0  0  0  0  0  0  0  0  0  0  0
   47.8261  -24.6544  -93.7638 H   0  0  0  0  0  0  0  0  0  0  0  0
  1  2  2  0  0  0
  1  7  1  0  0  0
  2  3  1  0  0  0
  2  8  1  0  0  0
  3  4  1  0  0  0
  3  5  2  0  0  0
  5  6  1  0  0  0
  6  7  2  0  0  0
  6  9  1  0  0  0
  9 10  1  0  0  0
M  END
> <minimizedAffinity>
-5.90033

$$$$
2P7A_43M_A_1


 10 10  0  0  0  0  0  0  0  0999 V2000
   49.7612  -27.7385  -95.6710 C   0  0  0  0  0  0  0  0  0  0  0  0
   49.0321  -26.6263  -95.1708 C   0  0  0  0  0  0  0  0  0  0  0  0
   47.6848  -26.3692  -95.6213 C   0  0  0  0  0  0  0  0  0  0  0  0
   46.8589  -25.2053  -95.1276 C   0  0  0  0  0  0  0  0  0  0  0  0
   47.1086  -27.2604  -96.5753 C   0  0  0  0  0  0  0  0  0  0  0  0
   47.8491  -28.3708  -97.0658 C   0  0  0  0  0  0  0  0  0  0  0  0
   49.1728  -28.6147  -96.6203 C   0  0  0  0  0  0  0  0  0  0  0  0
   49.8275  -25.6192  -94.0167 Cl  0  0  0  0  0  0  0  0  0  0  0  0
   47.2407  -29.1917  -97.9743 O   0  0  0  0  0  0  0  0  0  0  0  0
   46.3651  -29.0121  -98.2552 H   0  0  0  0  0  0  0  0  0  0  0  0
  1  2  2  0  0  0
  1  7  1  0  0  0
  2  3  1  0  0  0
  2  8  1  0  0  0
  3  4  1  0  0  0
  3  5  2  0  0  0
  5  6  1  0  0  0
  6  7  2  0  0  0
  6  9  1  0  0  0
  9 10  1  0  0  0
M  END
> <minimizedAffinity>
-5.84741

$$$$
2P7A_43M_A_1


 10 10  0  0  0  0  0  0  0  0999 V2000
   47.5213  -28.8723  -97.5932 C   0  0  0  0  0  0  0  0  0  0  0  0
   47.8159  -28.4207  -96.2787 C   0  0  0  0  0  0  0  0  0  0  0  0
   47.4229  -27.0990  -95.8513 C   0  0  0  0  0  0  0  0  0  0  0  0
   47.7063  -26.5616  -94.4688 C   0  0  0  0  0  0  0  0  0  0  0  0
   46.7315  -26.2651  -96.7803 C   0  0  0  0  0  0  0  0  0  0  0  0
   46.4413  -26.7308  -98.0921 C   0  0  0  0  0  0  0  0  0  0  0  0
   46.8333  -28.0293  -98.5048 C   0  0  0  0  0  0  0  0  0  0  0  0
   48.6515  -29.5164  -95.2394 Cl  0  0  0  0  0  0  0  0  0  0  0  0
   45.7717  -25.8875  -98.9345 O   0  0  0  0  0  0  0  0  0  0  0  0
   45.5220  -25.0333  -98.6413 H   0  0  0  0  0  0  0  0  0  0  0  0
  1  2  2  0  0  0
  1  7  1  0  0  0
  2  3  1  0  0  0
  2  8  1  0  0  0
  3  4  1  0  0  0
  3  5  2  0  0  0
  5  6  1  0  0  0
  6  7  2  0  0  0
  6  9  1  0  0  0
  9 10  1  0  0  0
M  END
> <minimizedAffinity>
-5.65303

$$$$
2P7A_43M_A_1


 10 10  0  0  0  0  0  0  0  0999 V2000
   47.5493  -28.2341  -97.2128 C   0  0  0  0  0  0  0  0  0  0  0  0
   47.1103  -26.9739  -96.7250 C   0  0  0  0  0  0  0  0  0  0  0  0
   47.6730  -26.4178  -95.5173 C   0  0  0  0  0  0  0  0  0  0  0  0
   47.2492  -25.0846  -94.9487 C   0  0  0  0  0  0  0  0  0  0  0  0
   48.6788  -27.1642  -94.8333 C   0  0  0  0  0  0  0  0  0  0  0  0
   49.1101  -28.4231  -95.3341 C   0  0  0  0  0  0  0  0  0  0  0  0
   48.5504  -28.9635  -96.5194 C   0  0  0  0  0  0  0  0  0  0  0  0
   45.8928  -26.1583  -97.6367 Cl  0  0  0  0  0  0  0  0  0  0  0  0
   50.0806  -29.0879  -94.6374 O   0  0  0  0  0  0  0  0  0  0  0  0
   50.4370  -28.7126  -93.8563 H   0  0  0  0  0  0  0  0  0  0  0  0
  1  2  2  0  0  0
  1  7  1  0  0  0
  2  3  1  0  0  0
  2  8  1  0  0  0
  3  4  1  0  0  0
  3  5  2  0  0  0
  5  6  1  0  0  0
  6  7  2  0  0  0
  6  9  1  0  0  0
  9 10  1  0  0  0
M  END
> <minimizedAffinity>
-5.63416

$$$$
2P7A_43M_A_1


 10 10  0  0  0  0  0  0  0  0999 V2000
   47.6872  -26.4599  -95.5330 C   0  0  0  0  0  0  0  0  0  0  0  0
   47.1310  -27.0158  -96.7163 C   0  0  0  0  0  0  0  0  0  0  0  0
   47.5842  -28.2945  -97.2100 C   0  0  0  0  0  0  0  0  0  0  0  0
   47.0328  -28.9377  -98.4601 C   0  0  0  0  0  0  0  0  0  0  0  0
   48.5986  -28.9814  -96.4782 C   0  0  0  0  0  0  0  0  0  0  0  0
   49.1449  -28.4143  -95.2943 C   0  0  0  0  0  0  0  0  0  0  0  0
   48.6961  -27.1566  -94.8177 C   0  0  0  0  0  0  0  0  0  0  0  0
   45.9068  -26.0989  -97.5160 Cl  0  0  0  0  0  0  0  0  0  0  0  0
   50.1100  -29.1230  -94.6343 O   0  0  0  0  0  0  0  0  0  0  0  0
   50.3920  -29.9524  -94.9668 H   0  0  0  0  0  0  0  0  0  0  0  0
  1  2  2  0  0  0
  1  7  1  0  0  0
  2  3  1  0  0  0
  2  8  1  0  0  0
  3  4  1  0  0  0
  3  5  2  0  0  0
  5  6  1  0  0  0
  6  7  2  0  0  0
  6  9  1  0  0  0
  9 10  1  0  0  0
M  END
> <minimizedAffinity>
-5.58021

$$$$
2P7A_43M_A_1


 10 10  0  0  0  0  0  0  0  0999 V2000
   46.1762  -26.3221  -96.8949 C   0  0  0  0  0  0  0  0  0  0  0  0
   47.1602  -26.0827  -95.8984 C   0  0  0  0  0  0  0  0  0  0  0  0
   48.2825  -26.9777  -95.7450 C   0  0  0  0  0  0  0  0  0  0  0  0
   49.3602  -26.7775  -94.7063 C   0  0  0  0  0  0  0  0  0  0  0  0
   48.3764  -28.1014  -96.6197 C   0  0  0  0  0  0  0  0  0  0  0  0
   47.3855  -28.3276  -97.6140 C   0  0  0  0  0  0  0  0  0  0  0  0
   46.2848  -27.4452  -97.7562 C   0  0  0  0  0  0  0  0  0  0  0  0
   46.9470  -24.6904  -94.9010 Cl  0  0  0  0  0  0  0  0  0  0  0  0
   47.5335  -29.4181  -98.4253 O   0  0  0  0  0  0  0  0  0  0  0  0
   48.2686  -29.9884  -98.3141 H   0  0  0  0  0  0  0  0  0  0  0  0
  1  2  2  0  0  0
  1  7  1  0  0  0
  2  3  1  0  0  0
  2  8  1  0  0  0
  3  4  1  0  0  0
  3  5  2  0  0  0
  5  6  1  0  0  0
  6  7  2  0  0  0
  6  9  1  0  0  0
  9 10  1  0  0  0
M  END
> <minimizedAffinity>
-5.52752

$$$$
