4CWR_HAJ_A_1224


 27 31  0  0  0  0  0  0  0  0999 V2000
    7.7972   14.4510   24.8380 F   0  0  0  0  0  0  0  0  0  0  0  0
    6.4711   14.5928   24.8938 C   0  0  0  0  0  0  0  0  0  0  0  0
    5.9775   15.8073   25.3655 C   0  0  0  0  0  0  0  0  0  0  0  0
    4.5971   15.9906   25.4672 C   0  0  0  0  0  0  0  0  0  0  0  0
    3.7311   14.9785   25.0758 C   0  0  0  0  0  0  0  0  0  0  0  0
    4.2228   13.7635   24.5919 C   0  0  0  0  0  0  0  0  0  0  0  0
    5.6017   13.5678   24.4994 C   0  0  0  0  0  0  0  0  0  0  0  0
    3.3486   12.7834   24.2176 N   0  0  0  0  0  0  0  0  0  0  0  0
    3.8008   11.5919   23.7435 C   0  0  0  0  0  0  0  0  0  0  0  0
    5.1327   11.3702   23.6606 N   0  0  0  0  0  0  0  0  0  0  0  0
    5.7265   10.2158   23.1810 N   0  0  0  0  0  0  0  0  0  0  0  0
    7.0161   10.5830   23.3067 C   0  0  0  0  0  0  0  0  0  0  0  0
    8.0118    9.7233   22.9441 N   0  0  0  0  0  0  0  0  0  0  0  0
    7.2650   11.8339   23.7878 N   0  0  0  0  0  0  0  0  0  0  0  0
    6.0153   12.3210   24.0022 C   0  0  0  0  0  0  0  0  0  0  0  0
    7.7884    8.8279   22.6010 H   0  0  0  0  0  0  0  0  0  0  0  0
    8.9536    9.9983   23.0256 H   0  0  0  0  0  0  0  0  0  0  0  0
    2.7837   10.5391   23.3639 C   0  0  0  0  0  0  0  0  0  0  0  0
    1.5614   10.6717   24.2661 C   0  0  0  0  0  0  0  0  0  0  0  0
    0.4986   11.5174   23.8929 C   0  0  0  0  0  0  0  0  0  0  0  0
   -0.6461   11.6467   24.6924 C   0  0  0  0  0  0  0  0  0  0  0  0
   -0.6878   10.9110   25.8796 C   0  0  0  0  0  0  0  0  0  0  0  0
    0.3484   10.1078   26.2528 C   0  0  0  0  0  0  0  0  0  0  0  0
    1.4979    9.9517   25.4725 C   0  0  0  0  0  0  0  0  0  0  0  0
   -1.6762   10.8712   26.8439 O   0  0  0  0  0  0  0  0  0  0  0  0
   -1.2295   10.0101   27.9041 C   0  0  0  0  0  0  0  0  0  0  0  0
    0.0461    9.5291   27.4445 O   0  0  0  0  0  0  0  0  0  0  0  0
  1  2  1  0  0  0
  2  3  2  0  0  0
  2  7  1  0  0  0
  3  4  1  0  0  0
  4  5  2  0  0  0
  5  6  1  0  0  0
  6  7  2  0  0  0
  6  8  1  0  0  0
  7 15  1  0  0  0
  8  9  2  0  0  0
  9 10  1  0  0  0
  9 18  1  0  0  0
 10 11  1  0  0  0
 10 15  1  0  0  0
 11 12  2  0  0  0
 12 13  1  0  0  0
 12 14  1  0  0  0
 14 15  2  0  0  0
 18 19  1  0  0  0
 19 20  1  0  0  0
 19 24  2  0  0  0
 20 21  2  0  0  0
 21 22  1  0  0  0
 22 23  2  0  0  0
 22 25  1  0  0  0
 23 24  1  0  0  0
 23 27  1  0  0  0
 25 26  1  0  0  0
 26 27  1  0  0  0
 13 16  1  0  0  0
 13 17  1  0  0  0
M  END
> <minimizedAffinity>
-11.58882

$$$$
4CWR_HAJ_A_1224


 27 31  0  0  0  0  0  0  0  0999 V2000
    7.7452   14.5270   24.9180 F   0  0  0  0  0  0  0  0  0  0  0  0
    6.4112   14.5751   24.9114 C   0  0  0  0  0  0  0  0  0  0  0  0
    5.8128   15.7709   25.3027 C   0  0  0  0  0  0  0  0  0  0  0  0
    4.4198   15.8585   25.3377 C   0  0  0  0  0  0  0  0  0  0  0  0
    3.6455   14.7698   24.9599 C   0  0  0  0  0  0  0  0  0  0  0  0
    4.2425   13.5728   24.5564 C   0  0  0  0  0  0  0  0  0  0  0  0
    5.6345   13.4731   24.5312 C   0  0  0  0  0  0  0  0  0  0  0  0
    3.4570   12.5161   24.1939 N   0  0  0  0  0  0  0  0  0  0  0  0
    4.0126   11.3401   23.7973 C   0  0  0  0  0  0  0  0  0  0  0  0
    5.3592   11.2117   23.7809 N   0  0  0  0  0  0  0  0  0  0  0  0
    6.0535   10.0826   23.3830 N   0  0  0  0  0  0  0  0  0  0  0  0
    7.3072   10.5473   23.5445 C   0  0  0  0  0  0  0  0  0  0  0  0
    8.3762    9.7461   23.2658 N   0  0  0  0  0  0  0  0  0  0  0  0
    7.4458   11.8334   23.9744 N   0  0  0  0  0  0  0  0  0  0  0  0
    6.1566   12.2382   24.1127 C   0  0  0  0  0  0  0  0  0  0  0  0
    8.2318    8.8224   22.9575 H   0  0  0  0  0  0  0  0  0  0  0  0
    9.2917   10.0919   23.3732 H   0  0  0  0  0  0  0  0  0  0  0  0
    3.0901   10.2005   23.4271 C   0  0  0  0  0  0  0  0  0  0  0  0
    2.3793    9.7008   24.6804 C   0  0  0  0  0  0  0  0  0  0  0  0
    2.8943    8.5987   25.3905 C   0  0  0  0  0  0  0  0  0  0  0  0
    2.2735    8.1272   26.5560 C   0  0  0  0  0  0  0  0  0  0  0  0
    1.1177    8.7873   26.9811 C   0  0  0  0  0  0  0  0  0  0  0  0
    0.6060    9.8411   26.2841 C   0  0  0  0  0  0  0  0  0  0  0  0
    1.2076   10.3391   25.1245 C   0  0  0  0  0  0  0  0  0  0  0  0
    0.3132    8.5176   28.0713 O   0  0  0  0  0  0  0  0  0  0  0  0
   -0.7884    9.4402   28.0508 C   0  0  0  0  0  0  0  0  0  0  0  0
   -0.5178   10.2764   26.9119 O   0  0  0  0  0  0  0  0  0  0  0  0
  1  2  1  0  0  0
  2  3  2  0  0  0
  2  7  1  0  0  0
  3  4  1  0  0  0
  4  5  2  0  0  0
  5  6  1  0  0  0
  6  7  2  0  0  0
  6  8  1  0  0  0
  7 15  1  0  0  0
  8  9  2  0  0  0
  9 10  1  0  0  0
  9 18  1  0  0  0
 10 11  1  0  0  0
 10 15  1  0  0  0
 11 12  2  0  0  0
 12 13  1  0  0  0
 12 14  1  0  0  0
 14 15  2  0  0  0
 18 19  1  0  0  0
 19 20  1  0  0  0
 19 24  2  0  0  0
 20 21  2  0  0  0
 21 22  1  0  0  0
 22 23  2  0  0  0
 22 25  1  0  0  0
 23 24  1  0  0  0
 23 27  1  0  0  0
 25 26  1  0  0  0
 26 27  1  0  0  0
 13 16  1  0  0  0
 13 17  1  0  0  0
M  END
> <minimizedAffinity>
-11.20110

$$$$
4CWR_HAJ_A_1224


 27 31  0  0  0  0  0  0  0  0999 V2000
   -1.3542    9.4677   28.0636 F   0  0  0  0  0  0  0  0  0  0  0  0
   -0.0842    9.1055   27.8700 C   0  0  0  0  0  0  0  0  0  0  0  0
    0.5043    8.2954   28.8388 C   0  0  0  0  0  0  0  0  0  0  0  0
    1.8394    7.9143   28.6919 C   0  0  0  0  0  0  0  0  0  0  0  0
    2.5591    8.3204   27.5762 C   0  0  0  0  0  0  0  0  0  0  0  0
    1.9686    9.1236   26.5973 C   0  0  0  0  0  0  0  0  0  0  0  0
    0.6381    9.5195   26.7435 C   0  0  0  0  0  0  0  0  0  0  0  0
    2.7008    9.5120   25.5120 N   0  0  0  0  0  0  0  0  0  0  0  0
    2.1502   10.2936   24.5450 C   0  0  0  0  0  0  0  0  0  0  0  0
    0.8679   10.7057   24.6715 N   0  0  0  0  0  0  0  0  0  0  0  0
    0.1806   11.4844   23.7569 N   0  0  0  0  0  0  0  0  0  0  0  0
   -1.0094   11.5340   24.3856 C   0  0  0  0  0  0  0  0  0  0  0  0
   -2.0471   12.2279   23.8345 N   0  0  0  0  0  0  0  0  0  0  0  0
   -1.1219   10.8571   25.5634 N   0  0  0  0  0  0  0  0  0  0  0  0
    0.1181   10.3242   25.7164 C   0  0  0  0  0  0  0  0  0  0  0  0
   -1.9233   12.7036   22.9815 H   0  0  0  0  0  0  0  0  0  0  0  0
   -2.9196   12.2529   24.2899 H   0  0  0  0  0  0  0  0  0  0  0  0
    3.0177   10.7070   23.3773 C   0  0  0  0  0  0  0  0  0  0  0  0
    3.9366   11.8443   23.8109 C   0  0  0  0  0  0  0  0  0  0  0  0
    5.3335   11.7040   23.6966 C   0  0  0  0  0  0  0  0  0  0  0  0
    6.2035   12.7383   24.0701 C   0  0  0  0  0  0  0  0  0  0  0  0
    5.6313   13.9111   24.5696 C   0  0  0  0  0  0  0  0  0  0  0  0
    4.2807   14.0412   24.7004 C   0  0  0  0  0  0  0  0  0  0  0  0
    3.3883   13.0315   24.3281 C   0  0  0  0  0  0  0  0  0  0  0  0
    6.2537   15.0590   25.0204 O   0  0  0  0  0  0  0  0  0  0  0  0
    5.2382   15.9619   25.4880 C   0  0  0  0  0  0  0  0  0  0  0  0
    4.0075   15.2673   25.2185 O   0  0  0  0  0  0  0  0  0  0  0  0
  1  2  1  0  0  0
  2  3  2  0  0  0
  2  7  1  0  0  0
  3  4  1  0  0  0
  4  5  2  0  0  0
  5  6  1  0  0  0
  6  7  2  0  0  0
  6  8  1  0  0  0
  7 15  1  0  0  0
  8  9  2  0  0  0
  9 10  1  0  0  0
  9 18  1  0  0  0
 10 11  1  0  0  0
 10 15  1  0  0  0
 11 12  2  0  0  0
 12 13  1  0  0  0
 12 14  1  0  0  0
 14 15  2  0  0  0
 18 19  1  0  0  0
 19 20  1  0  0  0
 19 24  2  0  0  0
 20 21  2  0  0  0
 21 22  1  0  0  0
 22 23  2  0  0  0
 22 25  1  0  0  0
 23 24  1  0  0  0
 23 27  1  0  0  0
 25 26  1  0  0  0
 26 27  1  0  0  0
 13 16  1  0  0  0
 13 17  1  0  0  0
M  END
> <minimizedAffinity>
-10.97145

$$$$
4CWR_HAJ_A_1224


 27 31  0  0  0  0  0  0  0  0999 V2000
    7.6928   14.5896   24.8024 F   0  0  0  0  0  0  0  0  0  0  0  0
    6.3586   14.5745   24.8377 C   0  0  0  0  0  0  0  0  0  0  0  0
    5.7160   15.7494   25.2223 C   0  0  0  0  0  0  0  0  0  0  0  0
    4.3222   15.7719   25.3002 C   0  0  0  0  0  0  0  0  0  0  0  0
    3.5895   14.6395   24.9709 C   0  0  0  0  0  0  0  0  0  0  0  0
    4.2304   13.4631   24.5741 C   0  0  0  0  0  0  0  0  0  0  0  0
    5.6241   13.4286   24.5063 C   0  0  0  0  0  0  0  0  0  0  0  0
    3.4855   12.3625   24.2598 N   0  0  0  0  0  0  0  0  0  0  0  0
    4.0842   11.2053   23.8708 C   0  0  0  0  0  0  0  0  0  0  0  0
    5.4342   11.1401   23.8139 N   0  0  0  0  0  0  0  0  0  0  0  0
    6.1691   10.0362   23.4181 N   0  0  0  0  0  0  0  0  0  0  0  0
    7.4036   10.5632   23.5292 C   0  0  0  0  0  0  0  0  0  0  0  0
    8.5005    9.8072   23.2336 N   0  0  0  0  0  0  0  0  0  0  0  0
    7.4937   11.8639   23.9268 N   0  0  0  0  0  0  0  0  0  0  0  0
    6.1915   12.2105   24.0978 C   0  0  0  0  0  0  0  0  0  0  0  0
    8.3910    8.8708   22.9498 H   0  0  0  0  0  0  0  0  0  0  0  0
    9.4013   10.1981   23.3040 H   0  0  0  0  0  0  0  0  0  0  0  0
    3.2063   10.0151   23.5549 C   0  0  0  0  0  0  0  0  0  0  0  0
    3.1249    9.1105   24.7799 C   0  0  0  0  0  0  0  0  0  0  0  0
    2.1969    9.3902   25.8020 C   0  0  0  0  0  0  0  0  0  0  0  0
    2.0860    8.5673   26.9319 C   0  0  0  0  0  0  0  0  0  0  0  0
    2.9390    7.4634   27.0096 C   0  0  0  0  0  0  0  0  0  0  0  0
    3.8519    7.2024   26.0316 C   0  0  0  0  0  0  0  0  0  0  0  0
    3.9794    7.9990   24.8898 C   0  0  0  0  0  0  0  0  0  0  0  0
    3.0470    6.5164   28.0097 O   0  0  0  0  0  0  0  0  0  0  0  0
    4.1089    5.6148   27.6564 C   0  0  0  0  0  0  0  0  0  0  0  0
    4.5490    6.0862   26.3704 O   0  0  0  0  0  0  0  0  0  0  0  0
  1  2  1  0  0  0
  2  3  2  0  0  0
  2  7  1  0  0  0
  3  4  1  0  0  0
  4  5  2  0  0  0
  5  6  1  0  0  0
  6  7  2  0  0  0
  6  8  1  0  0  0
  7 15  1  0  0  0
  8  9  2  0  0  0
  9 10  1  0  0  0
  9 18  1  0  0  0
 10 11  1  0  0  0
 10 15  1  0  0  0
 11 12  2  0  0  0
 12 13  1  0  0  0
 12 14  1  0  0  0
 14 15  2  0  0  0
 18 19  1  0  0  0
 19 20  1  0  0  0
 19 24  2  0  0  0
 20 21  2  0  0  0
 21 22  1  0  0  0
 22 23  2  0  0  0
 22 25  1  0  0  0
 23 24  1  0  0  0
 23 27  1  0  0  0
 25 26  1  0  0  0
 26 27  1  0  0  0
 13 16  1  0  0  0
 13 17  1  0  0  0
M  END
> <minimizedAffinity>
-10.53126

$$$$
4CWR_HAJ_A_1224


 27 31  0  0  0  0  0  0  0  0999 V2000
   -2.2414   11.1787   24.6818 F   0  0  0  0  0  0  0  0  0  0  0  0
   -1.4628   11.7628   23.7684 C   0  0  0  0  0  0  0  0  0  0  0  0
   -2.0854   12.5753   22.8232 C   0  0  0  0  0  0  0  0  0  0  0  0
   -1.3140   13.1849   21.8318 C   0  0  0  0  0  0  0  0  0  0  0  0
    0.0618   13.0000   21.8102 C   0  0  0  0  0  0  0  0  0  0  0  0
    0.6906   12.1948   22.7632 C   0  0  0  0  0  0  0  0  0  0  0  0
   -0.0753   11.5715   23.7498 C   0  0  0  0  0  0  0  0  0  0  0  0
    2.0450   12.0269   22.7162 N   0  0  0  0  0  0  0  0  0  0  0  0
    2.6816   11.2486   23.6316 C   0  0  0  0  0  0  0  0  0  0  0  0
    1.9604   10.6191   24.5874 N   0  0  0  0  0  0  0  0  0  0  0  0
    2.4802    9.8163   25.5877 N   0  0  0  0  0  0  0  0  0  0  0  0
    1.3323    9.5160   26.2248 C   0  0  0  0  0  0  0  0  0  0  0  0
    1.3498    8.7075   27.3239 N   0  0  0  0  0  0  0  0  0  0  0  0
    0.1843   10.0631   25.7339 N   0  0  0  0  0  0  0  0  0  0  0  0
    0.6313   10.7807   24.6707 C   0  0  0  0  0  0  0  0  0  0  0  0
    2.2014    8.3327   27.6458 H   0  0  0  0  0  0  0  0  0  0  0  0
    0.5109    8.4990   27.7951 H   0  0  0  0  0  0  0  0  0  0  0  0
    4.1806   11.0856   23.5152 C   0  0  0  0  0  0  0  0  0  0  0  0
    4.8664   12.3338   24.0605 C   0  0  0  0  0  0  0  0  0  0  0  0
    4.0981   13.4540   24.4332 C   0  0  0  0  0  0  0  0  0  0  0  0
    4.6980   14.6093   24.9543 C   0  0  0  0  0  0  0  0  0  0  0  0
    6.0895   14.6103   25.0807 C   0  0  0  0  0  0  0  0  0  0  0  0
    6.8367   13.5351   24.7014 C   0  0  0  0  0  0  0  0  0  0  0  0
    6.2666   12.3666   24.1875 C   0  0  0  0  0  0  0  0  0  0  0  0
    6.9203   15.6132   25.5415 O   0  0  0  0  0  0  0  0  0  0  0  0
    8.2777   15.1559   25.4246 C   0  0  0  0  0  0  0  0  0  0  0  0
    8.1483   13.8144   24.9213 O   0  0  0  0  0  0  0  0  0  0  0  0
  1  2  1  0  0  0
  2  3  2  0  0  0
  2  7  1  0  0  0
  3  4  1  0  0  0
  4  5  2  0  0  0
  5  6  1  0  0  0
  6  7  2  0  0  0
  6  8  1  0  0  0
  7 15  1  0  0  0
  8  9  2  0  0  0
  9 10  1  0  0  0
  9 18  1  0  0  0
 10 11  1  0  0  0
 10 15  1  0  0  0
 11 12  2  0  0  0
 12 13  1  0  0  0
 12 14  1  0  0  0
 14 15  2  0  0  0
 18 19  1  0  0  0
 19 20  1  0  0  0
 19 24  2  0  0  0
 20 21  2  0  0  0
 21 22  1  0  0  0
 22 23  2  0  0  0
 22 25  1  0  0  0
 23 24  1  0  0  0
 23 27  1  0  0  0
 25 26  1  0  0  0
 26 27  1  0  0  0
 13 16  1  0  0  0
 13 17  1  0  0  0
M  END
> <minimizedAffinity>
-10.43856

$$$$
4CWR_HAJ_A_1224


 27 31  0  0  0  0  0  0  0  0999 V2000
   -0.0971    8.6244   28.8719 F   0  0  0  0  0  0  0  0  0  0  0  0
    1.0818    8.2819   28.3478 C   0  0  0  0  0  0  0  0  0  0  0  0
    1.8773    7.4050   29.0823 C   0  0  0  0  0  0  0  0  0  0  0  0
    3.1304    7.0405   28.5861 C   0  0  0  0  0  0  0  0  0  0  0  0
    3.5616    7.5299   27.3606 C   0  0  0  0  0  0  0  0  0  0  0  0
    2.7616    8.4007   26.6163 C   0  0  0  0  0  0  0  0  0  0  0  0
    1.5130    8.7801   27.1117 C   0  0  0  0  0  0  0  0  0  0  0  0
    3.2121    8.8704   25.4157 N   0  0  0  0  0  0  0  0  0  0  0  0
    2.4534    9.7188   24.6718 C   0  0  0  0  0  0  0  0  0  0  0  0
    1.2470   10.1159   25.1375 N   0  0  0  0  0  0  0  0  0  0  0  0
    0.3685   10.9573   24.4774 N   0  0  0  0  0  0  0  0  0  0  0  0
   -0.6311   10.9563   25.3800 C   0  0  0  0  0  0  0  0  0  0  0  0
   -1.7618   11.6851   25.1510 N   0  0  0  0  0  0  0  0  0  0  0  0
   -0.4624   10.1943   26.4976 N   0  0  0  0  0  0  0  0  0  0  0  0
    0.7696    9.6561   26.3038 C   0  0  0  0  0  0  0  0  0  0  0  0
   -1.8432   12.2225   24.3301 H   0  0  0  0  0  0  0  0  0  0  0  0
   -2.4962   11.6734   25.8066 H   0  0  0  0  0  0  0  0  0  0  0  0
    3.0154   10.2199   23.3603 C   0  0  0  0  0  0  0  0  0  0  0  0
    4.1839   11.1593   23.6396 C   0  0  0  0  0  0  0  0  0  0  0  0
    5.5058   10.7218   23.4274 C   0  0  0  0  0  0  0  0  0  0  0  0
    6.6001   11.5677   23.6581 C   0  0  0  0  0  0  0  0  0  0  0  0
    6.3289   12.8595   24.1162 C   0  0  0  0  0  0  0  0  0  0  0  0
    5.0515   13.2783   24.3418 C   0  0  0  0  0  0  0  0  0  0  0  0
    3.9405   12.4611   24.1124 C   0  0  0  0  0  0  0  0  0  0  0  0
    7.2123   13.8727   24.4349 O   0  0  0  0  0  0  0  0  0  0  0  0
    6.4508   14.9930   24.9147 C   0  0  0  0  0  0  0  0  0  0  0  0
    5.0843   14.5602   24.7914 O   0  0  0  0  0  0  0  0  0  0  0  0
  1  2  1  0  0  0
  2  3  2  0  0  0
  2  7  1  0  0  0
  3  4  1  0  0  0
  4  5  2  0  0  0
  5  6  1  0  0  0
  6  7  2  0  0  0
  6  8  1  0  0  0
  7 15  1  0  0  0
  8  9  2  0  0  0
  9 10  1  0  0  0
  9 18  1  0  0  0
 10 11  1  0  0  0
 10 15  1  0  0  0
 11 12  2  0  0  0
 12 13  1  0  0  0
 12 14  1  0  0  0
 14 15  2  0  0  0
 18 19  1  0  0  0
 19 20  1  0  0  0
 19 24  2  0  0  0
 20 21  2  0  0  0
 21 22  1  0  0  0
 22 23  2  0  0  0
 22 25  1  0  0  0
 23 24  1  0  0  0
 23 27  1  0  0  0
 25 26  1  0  0  0
 26 27  1  0  0  0
 13 16  1  0  0  0
 13 17  1  0  0  0
M  END
> <minimizedAffinity>
-10.11790

$$$$
4CWR_HAJ_A_1224


 27 31  0  0  0  0  0  0  0  0999 V2000
    7.7260   12.5268   24.4434 F   0  0  0  0  0  0  0  0  0  0  0  0
    7.0036   11.5407   23.9073 C   0  0  0  0  0  0  0  0  0  0  0  0
    7.6905   10.4107   23.4685 C   0  0  0  0  0  0  0  0  0  0  0  0
    6.9790    9.3658   22.8759 C   0  0  0  0  0  0  0  0  0  0  0  0
    5.5986    9.4474   22.7524 C   0  0  0  0  0  0  0  0  0  0  0  0
    4.9054   10.5744   23.2015 C   0  0  0  0  0  0  0  0  0  0  0  0
    5.6111   11.6289   23.7833 C   0  0  0  0  0  0  0  0  0  0  0  0
    3.5479   10.6302   23.0639 N   0  0  0  0  0  0  0  0  0  0  0  0
    2.8494   11.7153   23.4926 C   0  0  0  0  0  0  0  0  0  0  0  0
    3.5113   12.7584   24.0438 N   0  0  0  0  0  0  0  0  0  0  0  0
    2.9254   13.9111   24.5369 N   0  0  0  0  0  0  0  0  0  0  0  0
    4.0376   14.5357   24.9691 C   0  0  0  0  0  0  0  0  0  0  0  0
    3.9497   15.7662   25.5526 N   0  0  0  0  0  0  0  0  0  0  0  0
    5.2228   13.8812   24.8105 N   0  0  0  0  0  0  0  0  0  0  0  0
    4.8420   12.7240   24.2100 C   0  0  0  0  0  0  0  0  0  0  0  0
    3.0732   16.2043   25.6476 H   0  0  0  0  0  0  0  0  0  0  0  0
    4.7627   16.2156   25.8785 H   0  0  0  0  0  0  0  0  0  0  0  0
    1.3502   11.7265   23.2945 C   0  0  0  0  0  0  0  0  0  0  0  0
    0.6730   11.1793   24.5467 C   0  0  0  0  0  0  0  0  0  0  0  0
   -0.5948   11.6593   24.9289 C   0  0  0  0  0  0  0  0  0  0  0  0
   -1.2507   11.1632   26.0647 C   0  0  0  0  0  0  0  0  0  0  0  0
   -0.5931   10.1803   26.8089 C   0  0  0  0  0  0  0  0  0  0  0  0
    0.6428    9.7292   26.4525 C   0  0  0  0  0  0  0  0  0  0  0  0
    1.3171   10.1979   25.3210 C   0  0  0  0  0  0  0  0  0  0  0  0
   -1.0032    9.5450   27.9651 O   0  0  0  0  0  0  0  0  0  0  0  0
    0.0461    8.6553   28.3805 C   0  0  0  0  0  0  0  0  0  0  0  0
    1.0436    8.7939   27.3531 O   0  0  0  0  0  0  0  0  0  0  0  0
  1  2  1  0  0  0
  2  3  2  0  0  0
  2  7  1  0  0  0
  3  4  1  0  0  0
  4  5  2  0  0  0
  5  6  1  0  0  0
  6  7  2  0  0  0
  6  8  1  0  0  0
  7 15  1  0  0  0
  8  9  2  0  0  0
  9 10  1  0  0  0
  9 18  1  0  0  0
 10 11  1  0  0  0
 10 15  1  0  0  0
 11 12  2  0  0  0
 12 13  1  0  0  0
 12 14  1  0  0  0
 14 15  2  0  0  0
 18 19  1  0  0  0
 19 20  1  0  0  0
 19 24  2  0  0  0
 20 21  2  0  0  0
 21 22  1  0  0  0
 22 23  2  0  0  0
 22 25  1  0  0  0
 23 24  1  0  0  0
 23 27  1  0  0  0
 25 26  1  0  0  0
 26 27  1  0  0  0
 13 16  1  0  0  0
 13 17  1  0  0  0
M  END
> <minimizedAffinity>
-10.05612

$$$$
4CWR_HAJ_A_1224


 27 31  0  0  0  0  0  0  0  0999 V2000
    3.2339   15.5283   25.2337 F   0  0  0  0  0  0  0  0  0  0  0  0
    4.3481   14.8397   24.9768 C   0  0  0  0  0  0  0  0  0  0  0  0
    5.5625   15.4562   25.2704 C   0  0  0  0  0  0  0  0  0  0  0  0
    6.7546   14.7845   24.9927 C   0  0  0  0  0  0  0  0  0  0  0  0
    6.7220   13.5053   24.4540 C   0  0  0  0  0  0  0  0  0  0  0  0
    5.5057   12.8799   24.1686 C   0  0  0  0  0  0  0  0  0  0  0  0
    4.3097   13.5501   24.4314 C   0  0  0  0  0  0  0  0  0  0  0  0
    5.5026   11.6228   23.6352 N   0  0  0  0  0  0  0  0  0  0  0  0
    4.3328   10.9917   23.3483 C   0  0  0  0  0  0  0  0  0  0  0  0
    3.1602   11.6262   23.5769 N   0  0  0  0  0  0  0  0  0  0  0  0
    1.9023   11.0958   23.3496 N   0  0  0  0  0  0  0  0  0  0  0  0
    1.1623   12.1351   23.7809 C   0  0  0  0  0  0  0  0  0  0  0  0
   -0.2002   12.0689   23.7425 N   0  0  0  0  0  0  0  0  0  0  0  0
    1.8314   13.2216   24.2604 N   0  0  0  0  0  0  0  0  0  0  0  0
    3.1311   12.8533   24.1182 C   0  0  0  0  0  0  0  0  0  0  0  0
   -0.6441   11.2648   23.3880 H   0  0  0  0  0  0  0  0  0  0  0  0
   -0.7392   12.8251   24.0693 H   0  0  0  0  0  0  0  0  0  0  0  0
    4.3951    9.6083   22.7406 C   0  0  0  0  0  0  0  0  0  0  0  0
    4.5875    8.5796   23.8499 C   0  0  0  0  0  0  0  0  0  0  0  0
    5.7071    7.7251   23.8320 C   0  0  0  0  0  0  0  0  0  0  0  0
    5.9209    6.7814   24.8468 C   0  0  0  0  0  0  0  0  0  0  0  0
    4.9744    6.7146   25.8725 C   0  0  0  0  0  0  0  0  0  0  0  0
    3.8794    7.5263   25.8810 C   0  0  0  0  0  0  0  0  0  0  0  0
    3.6443    8.4825   24.8884 C   0  0  0  0  0  0  0  0  0  0  0  0
    4.9370    5.8738   26.9680 O   0  0  0  0  0  0  0  0  0  0  0  0
    3.7334    6.1522   27.7022 C   0  0  0  0  0  0  0  0  0  0  0  0
    3.1300    7.2387   26.9774 O   0  0  0  0  0  0  0  0  0  0  0  0
  1  2  1  0  0  0
  2  3  2  0  0  0
  2  7  1  0  0  0
  3  4  1  0  0  0
  4  5  2  0  0  0
  5  6  1  0  0  0
  6  7  2  0  0  0
  6  8  1  0  0  0
  7 15  1  0  0  0
  8  9  2  0  0  0
  9 10  1  0  0  0
  9 18  1  0  0  0
 10 11  1  0  0  0
 10 15  1  0  0  0
 11 12  2  0  0  0
 12 13  1  0  0  0
 12 14  1  0  0  0
 14 15  2  0  0  0
 18 19  1  0  0  0
 19 20  1  0  0  0
 19 24  2  0  0  0
 20 21  2  0  0  0
 21 22  1  0  0  0
 22 23  2  0  0  0
 22 25  1  0  0  0
 23 24  1  0  0  0
 23 27  1  0  0  0
 25 26  1  0  0  0
 26 27  1  0  0  0
 13 16  1  0  0  0
 13 17  1  0  0  0
M  END
> <minimizedAffinity>
-9.99550

$$$$
4CWR_HAJ_A_1224


 27 31  0  0  0  0  0  0  0  0999 V2000
    3.6760   15.6667   24.9225 F   0  0  0  0  0  0  0  0  0  0  0  0
    4.5912   14.7137   24.7331 C   0  0  0  0  0  0  0  0  0  0  0  0
    5.9260   15.0614   24.9295 C   0  0  0  0  0  0  0  0  0  0  0  0
    6.9199   14.1042   24.7161 C   0  0  0  0  0  0  0  0  0  0  0  0
    6.5726   12.8143   24.3379 C   0  0  0  0  0  0  0  0  0  0  0  0
    5.2342   12.4595   24.1509 C   0  0  0  0  0  0  0  0  0  0  0  0
    4.2355   13.4142   24.3496 C   0  0  0  0  0  0  0  0  0  0  0  0
    4.9208   11.1846   23.7747 N   0  0  0  0  0  0  0  0  0  0  0  0
    3.6264   10.8133   23.5861 C   0  0  0  0  0  0  0  0  0  0  0  0
    2.6407   11.7244   23.7549 N   0  0  0  0  0  0  0  0  0  0  0  0
    1.2862   11.4775   23.6147 N   0  0  0  0  0  0  0  0  0  0  0  0
    0.8227   12.7026   23.9282 C   0  0  0  0  0  0  0  0  0  0  0  0
   -0.5193   12.9500   23.9206 N   0  0  0  0  0  0  0  0  0  0  0  0
    1.7426   13.6519   24.2607 N   0  0  0  0  0  0  0  0  0  0  0  0
    2.9163   12.9786   24.1431 C   0  0  0  0  0  0  0  0  0  0  0  0
   -1.1502   12.2356   23.6740 H   0  0  0  0  0  0  0  0  0  0  0  0
   -0.8565   13.8430   24.1617 H   0  0  0  0  0  0  0  0  0  0  0  0
    3.3445    9.3928   23.1506 C   0  0  0  0  0  0  0  0  0  0  0  0
    2.4495    8.7177   24.1845 C   0  0  0  0  0  0  0  0  0  0  0  0
    1.3823    7.8994   23.7657 C   0  0  0  0  0  0  0  0  0  0  0  0
    0.5530    7.2510   24.6920 C   0  0  0  0  0  0  0  0  0  0  0  0
    0.8204    7.4559   26.0481 C   0  0  0  0  0  0  0  0  0  0  0  0
    1.8398    8.2637   26.4557 C   0  0  0  0  0  0  0  0  0  0  0  0
    2.6885    8.9157   25.5561 C   0  0  0  0  0  0  0  0  0  0  0  0
    0.1544    6.9571   27.1509 O   0  0  0  0  0  0  0  0  0  0  0  0
    0.7733    7.5008   28.3284 C   0  0  0  0  0  0  0  0  0  0  0  0
    1.8606    8.2902   27.8141 O   0  0  0  0  0  0  0  0  0  0  0  0
  1  2  1  0  0  0
  2  3  2  0  0  0
  2  7  1  0  0  0
  3  4  1  0  0  0
  4  5  2  0  0  0
  5  6  1  0  0  0
  6  7  2  0  0  0
  6  8  1  0  0  0
  7 15  1  0  0  0
  8  9  2  0  0  0
  9 10  1  0  0  0
  9 18  1  0  0  0
 10 11  1  0  0  0
 10 15  1  0  0  0
 11 12  2  0  0  0
 12 13  1  0  0  0
 12 14  1  0  0  0
 14 15  2  0  0  0
 18 19  1  0  0  0
 19 20  1  0  0  0
 19 24  2  0  0  0
 20 21  2  0  0  0
 21 22  1  0  0  0
 22 23  2  0  0  0
 22 25  1  0  0  0
 23 24  1  0  0  0
 23 27  1  0  0  0
 25 26  1  0  0  0
 26 27  1  0  0  0
 13 16  1  0  0  0
 13 17  1  0  0  0
M  END
> <minimizedAffinity>
-9.95366

$$$$
4CWR_HAJ_A_1224


 27 31  0  0  0  0  0  0  0  0999 V2000
    0.6511    7.5229   28.5278 F   0  0  0  0  0  0  0  0  0  0  0  0
    0.3067    8.5976   27.8150 C   0  0  0  0  0  0  0  0  0  0  0  0
   -0.8474    9.2768   28.1996 C   0  0  0  0  0  0  0  0  0  0  0  0
   -1.2613   10.3904   27.4663 C   0  0  0  0  0  0  0  0  0  0  0  0
   -0.5114   10.8264   26.3822 C   0  0  0  0  0  0  0  0  0  0  0  0
    0.6524   10.1541   26.0006 C   0  0  0  0  0  0  0  0  0  0  0  0
    1.0658    9.0321   26.7208 C   0  0  0  0  0  0  0  0  0  0  0  0
    1.3689   10.6020   24.9278 N   0  0  0  0  0  0  0  0  0  0  0  0
    2.5050    9.9660   24.5356 C   0  0  0  0  0  0  0  0  0  0  0  0
    2.9177    8.8658   25.2058 N   0  0  0  0  0  0  0  0  0  0  0  0
    4.0604    8.1367   24.9263 N   0  0  0  0  0  0  0  0  0  0  0  0
    3.9622    7.2203   25.9084 C   0  0  0  0  0  0  0  0  0  0  0  0
    4.9087    6.2453   26.0329 N   0  0  0  0  0  0  0  0  0  0  0  0
    2.9022    7.3275   26.7586 N   0  0  0  0  0  0  0  0  0  0  0  0
    2.2456    8.4139   26.2752 C   0  0  0  0  0  0  0  0  0  0  0  0
    5.6590    6.2035   25.3968 H   0  0  0  0  0  0  0  0  0  0  0  0
    4.8414    5.5836   26.7588 H   0  0  0  0  0  0  0  0  0  0  0  0
    3.2437   10.4981   23.3281 C   0  0  0  0  0  0  0  0  0  0  0  0
    4.1279   11.6657   23.7531 C   0  0  0  0  0  0  0  0  0  0  0  0
    5.5289   11.5621   23.6516 C   0  0  0  0  0  0  0  0  0  0  0  0
    6.3675   12.6247   24.0176 C   0  0  0  0  0  0  0  0  0  0  0  0
    5.7595   13.7880   24.4966 C   0  0  0  0  0  0  0  0  0  0  0  0
    4.4049   13.8830   24.6151 C   0  0  0  0  0  0  0  0  0  0  0  0
    3.5433   12.8444   24.2498 C   0  0  0  0  0  0  0  0  0  0  0  0
    6.3469   14.9584   24.9365 O   0  0  0  0  0  0  0  0  0  0  0  0
    5.3035   15.8396   25.3838 C   0  0  0  0  0  0  0  0  0  0  0  0
    4.0943   15.1081   25.1143 O   0  0  0  0  0  0  0  0  0  0  0  0
  1  2  1  0  0  0
  2  3  2  0  0  0
  2  7  1  0  0  0
  3  4  1  0  0  0
  4  5  2  0  0  0
  5  6  1  0  0  0
  6  7  2  0  0  0
  6  8  1  0  0  0
  7 15  1  0  0  0
  8  9  2  0  0  0
  9 10  1  0  0  0
  9 18  1  0  0  0
 10 11  1  0  0  0
 10 15  1  0  0  0
 11 12  2  0  0  0
 12 13  1  0  0  0
 12 14  1  0  0  0
 14 15  2  0  0  0
 18 19  1  0  0  0
 19 20  1  0  0  0
 19 24  2  0  0  0
 20 21  2  0  0  0
 21 22  1  0  0  0
 22 23  2  0  0  0
 22 25  1  0  0  0
 23 24  1  0  0  0
 23 27  1  0  0  0
 25 26  1  0  0  0
 26 27  1  0  0  0
 13 16  1  0  0  0
 13 17  1  0  0  0
M  END
> <minimizedAffinity>
-9.88239

$$$$
