2XBV_XBV_A_1245


 38 41  0  0  0  0  0  0  0  0999 V2000
   10.2485   66.4560    3.8064 C   0  0  0  0  0  0  0  0  0  0  0  0
    9.5685   66.1878    2.4551 C   0  0  0  0  0  0  0  0  0  0  0  0
    8.8676   67.5177    2.1034 C   0  0  0  0  0  0  0  0  0  0  0  0
    9.7967   68.5239    2.7073 N   0  0  0  0  0  0  0  0  0  0  0  0
   10.2564   67.9847    4.0107 C   0  0  0  0  0  0  0  0  0  0  0  0
   11.6154   65.8252    3.8999 C   0  0  0  0  0  0  0  0  0  0  0  0
   12.1512   65.2832    2.9449 O   0  0  0  0  0  0  0  0  0  0  0  0
   12.2591   65.9998    5.0765 N   0  0  0  0  0  0  0  0  0  0  0  0
   11.8370   66.6300    5.7041 H   0  0  0  0  0  0  0  0  0  0  0  0
   13.4395   65.4071    5.5188 C   0  0  0  0  0  0  0  0  0  0  0  0
   14.1839   64.6994    4.6528 N   0  0  0  0  0  0  0  0  0  0  0  0
   15.5820   63.8894    6.4254 C   0  0  0  0  0  0  0  0  0  0  0  0
   14.8012   64.6066    7.3528 C   0  0  0  0  0  0  0  0  0  0  0  0
   15.2532   63.9633    5.0574 C   0  0  0  0  0  0  0  0  0  0  0  0
   13.7127   65.3530    6.8935 C   0  0  0  0  0  0  0  0  0  0  0  0
   16.8732   62.8794    6.9974 Cl  0  0  0  0  0  0  0  0  0  0  0  0
    8.5694   65.0586    2.5910 C   0  0  0  0  0  0  0  0  0  0  0  0
    9.0882   63.9232    2.9743 N   0  0  0  0  0  0  0  0  0  0  0  0
    7.3693   65.2072    2.4175 O   0  0  0  0  0  0  0  0  0  0  0  0
   10.0512   63.9163    3.1787 H   0  0  0  0  0  0  0  0  0  0  0  0
    8.3906   62.7046    3.1215 C   0  0  0  0  0  0  0  0  0  0  0  0
    7.5965   62.3816    4.2273 C   0  0  0  0  0  0  0  0  0  0  0  0
    7.2579   60.2096    3.2364 C   0  0  0  0  0  0  0  0  0  0  0  0
    8.0613   60.5384    2.1344 C   0  0  0  0  0  0  0  0  0  0  0  0
    7.0009   61.1174    4.2688 C   0  0  0  0  0  0  0  0  0  0  0  0
    8.5910   61.8346    2.0859 C   0  0  0  0  0  0  0  0  0  0  0  0
    9.3839   62.1705    1.0575 F   0  0  0  0  0  0  0  0  0  0  0  0
    6.6869   58.9016    3.2199 N   0  0  0  0  0  0  0  0  0  0  0  0
    7.3552   57.8410    3.8509 C   0  0  0  0  0  0  0  0  0  0  0  0
    5.6271   56.3222    3.1746 C   0  0  0  0  0  0  0  0  0  0  0  0
    4.9516   57.3489    2.5518 C   0  0  0  0  0  0  0  0  0  0  0  0
    6.8425   56.5794    3.8206 C   0  0  0  0  0  0  0  0  0  0  0  0
    5.4700   58.6934    2.5593 C   0  0  0  0  0  0  0  0  0  0  0  0
    4.8958   59.6303    1.9898 O   0  0  0  0  0  0  0  0  0  0  0  0
    9.1221   69.8183    2.8982 C   0  0  0  0  0  0  0  0  0  0  0  0
    9.8295   70.9374    2.1322 C   0  0  0  0  0  0  0  0  0  0  0  0
    9.0955   72.1273    2.1202 F   0  0  0  0  0  0  0  0  0  0  0  0
   10.9844   71.2301    2.8264 F   0  0  0  0  0  0  0  0  0  0  0  0
  1  2  1  0  0  0
  1  5  1  0  0  0
  1  6  1  0  0  0
  2  3  1  0  0  0
  2 17  1  0  0  0
  3  4  1  0  0  0
  4  5  1  0  0  0
  4 35  1  0  0  0
  6  7  2  0  0  0
  6  8  1  0  0  0
 17 18  1  0  0  0
 17 19  2  0  0  0
 18 21  1  0  0  0
  8 10  1  0  0  0
 10 11  2  0  0  0
 10 15  1  0  0  0
 11 14  1  0  0  0
 12 13  1  0  0  0
 12 14  2  0  0  0
 12 16  1  0  0  0
 13 15  2  0  0  0
 21 22  1  0  0  0
 21 26  2  0  0  0
 22 25  2  0  0  0
 23 24  2  0  0  0
 23 25  1  0  0  0
 23 28  1  0  0  0
 24 26  1  0  0  0
 26 27  1  0  0  0
 28 29  1  0  0  0
 28 33  1  0  0  0
 29 32  2  0  0  0
 30 31  2  0  0  0
 30 32  1  0  0  0
 31 33  1  0  0  0
 33 34  2  0  0  0
 35 36  1  0  0  0
 36 37  1  0  0  0
 36 38  1  0  0  0
 18 20  1  0  0  0
  8  9  1  0  0  0
M  END
> <minimizedAffinity>
-11.56706

$$$$
2XBV_XBV_A_1245


 38 41  0  0  0  0  0  0  0  0999 V2000
   10.3519   66.3283    3.9244 C   0  0  0  0  0  0  0  0  0  0  0  0
    9.7374   66.0708    2.5401 C   0  0  0  0  0  0  0  0  0  0  0  0
    9.1872   67.4441    2.0989 C   0  0  0  0  0  0  0  0  0  0  0  0
   10.1654   68.3846    2.7305 N   0  0  0  0  0  0  0  0  0  0  0  0
   10.4888   67.8567    4.0787 C   0  0  0  0  0  0  0  0  0  0  0  0
   11.6454   65.5802    4.1299 C   0  0  0  0  0  0  0  0  0  0  0  0
   12.0118   64.6903    3.3772 O   0  0  0  0  0  0  0  0  0  0  0  0
   12.4296   66.0359    5.1332 N   0  0  0  0  0  0  0  0  0  0  0  0
   12.1490   66.8869    5.5410 H   0  0  0  0  0  0  0  0  0  0  0  0
   13.5813   65.4619    5.6666 C   0  0  0  0  0  0  0  0  0  0  0  0
   14.4783   64.8991    4.8398 N   0  0  0  0  0  0  0  0  0  0  0  0
   15.6890   63.9700    6.6902 C   0  0  0  0  0  0  0  0  0  0  0  0
   14.7474   64.5333    7.5735 C   0  0  0  0  0  0  0  0  0  0  0  0
   15.5349   64.1811    5.3058 C   0  0  0  0  0  0  0  0  0  0  0  0
   13.6781   65.2667    7.0522 C   0  0  0  0  0  0  0  0  0  0  0  0
   16.9625   62.9734    7.3223 Cl  0  0  0  0  0  0  0  0  0  0  0  0
    8.6311   65.0429    2.6454 C   0  0  0  0  0  0  0  0  0  0  0  0
    9.0466   63.8241    2.8618 N   0  0  0  0  0  0  0  0  0  0  0  0
    7.4456   65.3335    2.5944 O   0  0  0  0  0  0  0  0  0  0  0  0
   10.0155   63.6946    2.9789 H   0  0  0  0  0  0  0  0  0  0  0  0
    8.2297   62.6753    2.9425 C   0  0  0  0  0  0  0  0  0  0  0  0
    7.5215   62.2929    4.0871 C   0  0  0  0  0  0  0  0  0  0  0  0
    6.8299   60.3177    2.8896 C   0  0  0  0  0  0  0  0  0  0  0  0
    7.5483   60.7044    1.7484 C   0  0  0  0  0  0  0  0  0  0  0  0
    6.7891   61.1027    4.0463 C   0  0  0  0  0  0  0  0  0  0  0  0
    8.2186   61.9339    1.7939 C   0  0  0  0  0  0  0  0  0  0  0  0
    8.9351   62.3190    0.7274 F   0  0  0  0  0  0  0  0  0  0  0  0
    6.1106   59.0894    2.7834 N   0  0  0  0  0  0  0  0  0  0  0  0
    4.8198   59.0826    2.2326 C   0  0  0  0  0  0  0  0  0  0  0  0
    4.6542   56.7183    2.5968 C   0  0  0  0  0  0  0  0  0  0  0  0
    5.9213   56.7004    3.1375 C   0  0  0  0  0  0  0  0  0  0  0  0
    4.1047   57.9262    2.1501 C   0  0  0  0  0  0  0  0  0  0  0  0
    6.7015   57.9071    3.2456 C   0  0  0  0  0  0  0  0  0  0  0  0
    7.8331   57.9243    3.7466 O   0  0  0  0  0  0  0  0  0  0  0  0
    9.6034   69.7412    2.8334 C   0  0  0  0  0  0  0  0  0  0  0  0
    8.1231   69.7070    3.2170 C   0  0  0  0  0  0  0  0  0  0  0  0
    7.9268   69.7093    4.6013 F   0  0  0  0  0  0  0  0  0  0  0  0
    7.5659   70.8863    2.7693 F   0  0  0  0  0  0  0  0  0  0  0  0
  1  2  1  0  0  0
  1  5  1  0  0  0
  1  6  1  0  0  0
  2  3  1  0  0  0
  2 17  1  0  0  0
  3  4  1  0  0  0
  4  5  1  0  0  0
  4 35  1  0  0  0
  6  7  2  0  0  0
  6  8  1  0  0  0
 17 18  1  0  0  0
 17 19  2  0  0  0
 18 21  1  0  0  0
  8 10  1  0  0  0
 10 11  2  0  0  0
 10 15  1  0  0  0
 11 14  1  0  0  0
 12 13  1  0  0  0
 12 14  2  0  0  0
 12 16  1  0  0  0
 13 15  2  0  0  0
 21 22  1  0  0  0
 21 26  2  0  0  0
 22 25  2  0  0  0
 23 24  2  0  0  0
 23 25  1  0  0  0
 23 28  1  0  0  0
 24 26  1  0  0  0
 26 27  1  0  0  0
 28 29  1  0  0  0
 28 33  1  0  0  0
 29 32  2  0  0  0
 30 31  2  0  0  0
 30 32  1  0  0  0
 31 33  1  0  0  0
 33 34  2  0  0  0
 35 36  1  0  0  0
 36 37  1  0  0  0
 36 38  1  0  0  0
 18 20  1  0  0  0
  8  9  1  0  0  0
M  END
> <minimizedAffinity>
-10.96206

$$$$
2XBV_XBV_A_1245


 38 41  0  0  0  0  0  0  0  0999 V2000
    8.4721   67.8427    4.1695 C   0  0  0  0  0  0  0  0  0  0  0  0
    7.6181   67.4319    2.9603 C   0  0  0  0  0  0  0  0  0  0  0  0
    6.5922   68.5750    2.8044 C   0  0  0  0  0  0  0  0  0  0  0  0
    7.3807   69.7609    3.2651 N   0  0  0  0  0  0  0  0  0  0  0  0
    8.1889   69.3354    4.4342 C   0  0  0  0  0  0  0  0  0  0  0  0
    9.9346   67.5283    3.9768 C   0  0  0  0  0  0  0  0  0  0  0  0
   10.7373   68.3651    3.5916 O   0  0  0  0  0  0  0  0  0  0  0  0
   10.3222   66.2931    4.3685 N   0  0  0  0  0  0  0  0  0  0  0  0
    9.6490   65.7714    4.8623 H   0  0  0  0  0  0  0  0  0  0  0  0
   11.5468   65.6606    4.1666 C   0  0  0  0  0  0  0  0  0  0  0  0
   12.4839   65.7214    5.1274 N   0  0  0  0  0  0  0  0  0  0  0  0
   14.1266   64.7595    3.6682 C   0  0  0  0  0  0  0  0  0  0  0  0
   13.1650   64.7069    2.6402 C   0  0  0  0  0  0  0  0  0  0  0  0
   13.7505   65.2693    4.9266 C   0  0  0  0  0  0  0  0  0  0  0  0
   11.8739   65.1794    2.8903 C   0  0  0  0  0  0  0  0  0  0  0  0
   15.7587   64.2690    3.3362 Cl  0  0  0  0  0  0  0  0  0  0  0  0
    6.9321   66.1104    3.2332 C   0  0  0  0  0  0  0  0  0  0  0  0
    7.6921   65.0627    3.0603 N   0  0  0  0  0  0  0  0  0  0  0  0
    5.7832   66.0285    3.6403 O   0  0  0  0  0  0  0  0  0  0  0  0
    8.6322   65.2257    2.8179 H   0  0  0  0  0  0  0  0  0  0  0  0
    7.2852   63.7170    3.1902 C   0  0  0  0  0  0  0  0  0  0  0  0
    6.6767   63.1862    4.3329 C   0  0  0  0  0  0  0  0  0  0  0  0
    6.7237   61.0333    3.2481 C   0  0  0  0  0  0  0  0  0  0  0  0
    7.3402   61.5716    2.1088 C   0  0  0  0  0  0  0  0  0  0  0  0
    6.3697   61.8223    4.3472 C   0  0  0  0  0  0  0  0  0  0  0  0
    7.5757   62.9527    2.0944 C   0  0  0  0  0  0  0  0  0  0  0  0
    8.1869   63.4929    1.0296 F   0  0  0  0  0  0  0  0  0  0  0  0
    6.4448   59.6343    3.2003 N   0  0  0  0  0  0  0  0  0  0  0  0
    7.3676   58.7207    3.7329 C   0  0  0  0  0  0  0  0  0  0  0  0
    5.9587   56.8903    3.0891 C   0  0  0  0  0  0  0  0  0  0  0  0
    5.0367   57.7689    2.5633 C   0  0  0  0  0  0  0  0  0  0  0  0
    7.1346   57.3801    3.6701 C   0  0  0  0  0  0  0  0  0  0  0  0
    5.2559   59.1924    2.6072 C   0  0  0  0  0  0  0  0  0  0  0  0
    4.4557   60.0033    2.1236 O   0  0  0  0  0  0  0  0  0  0  0  0
    6.4925   70.8748    3.6351 C   0  0  0  0  0  0  0  0  0  0  0  0
    7.1155   72.2277    3.2875 C   0  0  0  0  0  0  0  0  0  0  0  0
    7.3882   73.0004    4.4204 F   0  0  0  0  0  0  0  0  0  0  0  0
    8.3453   71.9686    2.7201 F   0  0  0  0  0  0  0  0  0  0  0  0
  1  2  1  0  0  0
  1  5  1  0  0  0
  1  6  1  0  0  0
  2  3  1  0  0  0
  2 17  1  0  0  0
  3  4  1  0  0  0
  4  5  1  0  0  0
  4 35  1  0  0  0
  6  7  2  0  0  0
  6  8  1  0  0  0
 17 18  1  0  0  0
 17 19  2  0  0  0
 18 21  1  0  0  0
  8 10  1  0  0  0
 10 11  2  0  0  0
 10 15  1  0  0  0
 11 14  1  0  0  0
 12 13  1  0  0  0
 12 14  2  0  0  0
 12 16  1  0  0  0
 13 15  2  0  0  0
 21 22  1  0  0  0
 21 26  2  0  0  0
 22 25  2  0  0  0
 23 24  2  0  0  0
 23 25  1  0  0  0
 23 28  1  0  0  0
 24 26  1  0  0  0
 26 27  1  0  0  0
 28 29  1  0  0  0
 28 33  1  0  0  0
 29 32  2  0  0  0
 30 31  2  0  0  0
 30 32  1  0  0  0
 31 33  1  0  0  0
 33 34  2  0  0  0
 35 36  1  0  0  0
 36 37  1  0  0  0
 36 38  1  0  0  0
 18 20  1  0  0  0
  8  9  1  0  0  0
M  END
> <minimizedAffinity>
-9.55075

$$$$
2XBV_XBV_A_1245


 38 41  0  0  0  0  0  0  0  0999 V2000
   10.9471   64.6691    1.6334 C   0  0  0  0  0  0  0  0  0  0  0  0
    9.8634   65.0884    2.6383 C   0  0  0  0  0  0  0  0  0  0  0  0
    8.6461   64.2068    2.2857 C   0  0  0  0  0  0  0  0  0  0  0  0
    9.3045   62.9491    1.8112 N   0  0  0  0  0  0  0  0  0  0  0  0
   10.4866   63.3385    1.0039 C   0  0  0  0  0  0  0  0  0  0  0  0
   12.3184   64.6013    2.2580 C   0  0  0  0  0  0  0  0  0  0  0  0
   13.3174   64.3235    1.6118 O   0  0  0  0  0  0  0  0  0  0  0  0
   12.3883   64.9814    3.5541 N   0  0  0  0  0  0  0  0  0  0  0  0
   11.5726   65.3911    3.9230 H   0  0  0  0  0  0  0  0  0  0  0  0
   13.4603   64.8708    4.4367 C   0  0  0  0  0  0  0  0  0  0  0  0
   14.4513   64.0065    4.1614 N   0  0  0  0  0  0  0  0  0  0  0  0
   15.4136   64.3263    6.3350 C   0  0  0  0  0  0  0  0  0  0  0  0
   14.3712   65.2191    6.6519 C   0  0  0  0  0  0  0  0  0  0  0  0
   15.4367   63.7326    5.0576 C   0  0  0  0  0  0  0  0  0  0  0  0
   13.3804   65.4746    5.7002 C   0  0  0  0  0  0  0  0  0  0  0  0
   16.5916   63.9255    7.5459 Cl  0  0  0  0  0  0  0  0  0  0  0  0
    9.5436   66.5589    2.4746 C   0  0  0  0  0  0  0  0  0  0  0  0
    8.5417   66.9767    3.2004 N   0  0  0  0  0  0  0  0  0  0  0  0
   10.2028   67.3091    1.7709 O   0  0  0  0  0  0  0  0  0  0  0  0
    8.1245   66.3234    3.8074 H   0  0  0  0  0  0  0  0  0  0  0  0
    8.0038   68.2820    3.1921 C   0  0  0  0  0  0  0  0  0  0  0  0
    6.9071   68.6757    2.4173 C   0  0  0  0  0  0  0  0  0  0  0  0
    7.2430   70.9163    3.2422 C   0  0  0  0  0  0  0  0  0  0  0  0
    8.3460   70.5153    4.0107 C   0  0  0  0  0  0  0  0  0  0  0  0
    6.5079   70.0147    2.4660 C   0  0  0  0  0  0  0  0  0  0  0  0
    8.6830   69.1554    3.9952 C   0  0  0  0  0  0  0  0  0  0  0  0
    9.7483   68.7457    4.6998 F   0  0  0  0  0  0  0  0  0  0  0  0
    6.8935   72.2973    3.3316 N   0  0  0  0  0  0  0  0  0  0  0  0
    5.9852   72.7246    4.3125 C   0  0  0  0  0  0  0  0  0  0  0  0
    6.1510   74.9795    3.5136 C   0  0  0  0  0  0  0  0  0  0  0  0
    7.0475   74.5834    2.5452 C   0  0  0  0  0  0  0  0  0  0  0  0
    5.6152   74.0329    4.3953 C   0  0  0  0  0  0  0  0  0  0  0  0
    7.4543   73.2062    2.4261 C   0  0  0  0  0  0  0  0  0  0  0  0
    8.2407   72.8186    1.5525 O   0  0  0  0  0  0  0  0  0  0  0  0
    8.3775   62.1395    1.0037 C   0  0  0  0  0  0  0  0  0  0  0  0
    7.7136   61.0452    1.8411 C   0  0  0  0  0  0  0  0  0  0  0  0
    6.7355   60.3436    1.1299 F   0  0  0  0  0  0  0  0  0  0  0  0
    8.6894   60.1148    2.1306 F   0  0  0  0  0  0  0  0  0  0  0  0
  1  2  1  0  0  0
  1  5  1  0  0  0
  1  6  1  0  0  0
  2  3  1  0  0  0
  2 17  1  0  0  0
  3  4  1  0  0  0
  4  5  1  0  0  0
  4 35  1  0  0  0
  6  7  2  0  0  0
  6  8  1  0  0  0
 17 18  1  0  0  0
 17 19  2  0  0  0
 18 21  1  0  0  0
  8 10  1  0  0  0
 10 11  2  0  0  0
 10 15  1  0  0  0
 11 14  1  0  0  0
 12 13  1  0  0  0
 12 14  2  0  0  0
 12 16  1  0  0  0
 13 15  2  0  0  0
 21 22  1  0  0  0
 21 26  2  0  0  0
 22 25  2  0  0  0
 23 24  2  0  0  0
 23 25  1  0  0  0
 23 28  1  0  0  0
 24 26  1  0  0  0
 26 27  1  0  0  0
 28 29  1  0  0  0
 28 33  1  0  0  0
 29 32  2  0  0  0
 30 31  2  0  0  0
 30 32  1  0  0  0
 31 33  1  0  0  0
 33 34  2  0  0  0
 35 36  1  0  0  0
 36 37  1  0  0  0
 36 38  1  0  0  0
 18 20  1  0  0  0
  8  9  1  0  0  0
M  END
> <minimizedAffinity>
-8.96297

$$$$
2XBV_XBV_A_1245


 38 41  0  0  0  0  0  0  0  0999 V2000
   11.5297   65.3572    1.6460 C   0  0  0  0  0  0  0  0  0  0  0  0
   10.2968   65.3531    2.5627 C   0  0  0  0  0  0  0  0  0  0  0  0
    9.1632   64.7809    1.6847 C   0  0  0  0  0  0  0  0  0  0  0  0
    9.9073   63.8234    0.8073 N   0  0  0  0  0  0  0  0  0  0  0  0
   11.1937   64.4621    0.4359 C   0  0  0  0  0  0  0  0  0  0  0  0
   12.7886   64.9499    2.3700 C   0  0  0  0  0  0  0  0  0  0  0  0
   13.6953   64.3476    1.8151 O   0  0  0  0  0  0  0  0  0  0  0  0
   12.9001   65.3956    3.6421 N   0  0  0  0  0  0  0  0  0  0  0  0
   12.2209   66.0493    3.9260 H   0  0  0  0  0  0  0  0  0  0  0  0
   13.8475   65.0533    4.6042 C   0  0  0  0  0  0  0  0  0  0  0  0
   14.7977   64.1537    4.2996 N   0  0  0  0  0  0  0  0  0  0  0  0
   15.5137   64.0479    6.5862 C   0  0  0  0  0  0  0  0  0  0  0  0
   14.5098   64.9739    6.9308 C   0  0  0  0  0  0  0  0  0  0  0  0
   15.6456   63.6567    5.2392 C   0  0  0  0  0  0  0  0  0  0  0  0
   13.6617   65.4619    5.9331 C   0  0  0  0  0  0  0  0  0  0  0  0
   16.5053   63.3602    7.8346 Cl  0  0  0  0  0  0  0  0  0  0  0  0
    9.9825   66.7623    3.0175 C   0  0  0  0  0  0  0  0  0  0  0  0
    9.3693   67.4925    2.1254 N   0  0  0  0  0  0  0  0  0  0  0  0
   10.2247   67.1676    4.1442 O   0  0  0  0  0  0  0  0  0  0  0  0
    9.1326   67.0567    1.2749 H   0  0  0  0  0  0  0  0  0  0  0  0
    9.0157   68.8514    2.2721 C   0  0  0  0  0  0  0  0  0  0  0  0
    9.9338   69.8831    2.4971 C   0  0  0  0  0  0  0  0  0  0  0  0
    8.0603   71.3910    2.6705 C   0  0  0  0  0  0  0  0  0  0  0  0
    7.1457   70.3501    2.4514 C   0  0  0  0  0  0  0  0  0  0  0  0
    9.4429   71.1801    2.6745 C   0  0  0  0  0  0  0  0  0  0  0  0
    7.6679   69.0725    2.2102 C   0  0  0  0  0  0  0  0  0  0  0  0
    6.8179   68.0520    2.0226 F   0  0  0  0  0  0  0  0  0  0  0  0
    7.4927   72.6881    2.8514 N   0  0  0  0  0  0  0  0  0  0  0  0
    6.9296   73.0364    4.0889 C   0  0  0  0  0  0  0  0  0  0  0  0
    6.3352   75.1965    3.2340 C   0  0  0  0  0  0  0  0  0  0  0  0
    6.8855   74.8777    2.0118 C   0  0  0  0  0  0  0  0  0  0  0  0
    6.3558   74.2580    4.2729 C   0  0  0  0  0  0  0  0  0  0  0  0
    7.4939   73.5919    1.7820 C   0  0  0  0  0  0  0  0  0  0  0  0
    7.9762   73.2707    0.6884 O   0  0  0  0  0  0  0  0  0  0  0  0
    9.1297   63.4990   -0.3997 C   0  0  0  0  0  0  0  0  0  0  0  0
    9.4511   64.4570   -1.5479 C   0  0  0  0  0  0  0  0  0  0  0  0
   10.1413   63.8327   -2.5912 F   0  0  0  0  0  0  0  0  0  0  0  0
    8.2462   64.8483   -2.0925 F   0  0  0  0  0  0  0  0  0  0  0  0
  1  2  1  0  0  0
  1  5  1  0  0  0
  1  6  1  0  0  0
  2  3  1  0  0  0
  2 17  1  0  0  0
  3  4  1  0  0  0
  4  5  1  0  0  0
  4 35  1  0  0  0
  6  7  2  0  0  0
  6  8  1  0  0  0
 17 18  1  0  0  0
 17 19  2  0  0  0
 18 21  1  0  0  0
  8 10  1  0  0  0
 10 11  2  0  0  0
 10 15  1  0  0  0
 11 14  1  0  0  0
 12 13  1  0  0  0
 12 14  2  0  0  0
 12 16  1  0  0  0
 13 15  2  0  0  0
 21 22  1  0  0  0
 21 26  2  0  0  0
 22 25  2  0  0  0
 23 24  2  0  0  0
 23 25  1  0  0  0
 23 28  1  0  0  0
 24 26  1  0  0  0
 26 27  1  0  0  0
 28 29  1  0  0  0
 28 33  1  0  0  0
 29 32  2  0  0  0
 30 31  2  0  0  0
 30 32  1  0  0  0
 31 33  1  0  0  0
 33 34  2  0  0  0
 35 36  1  0  0  0
 36 37  1  0  0  0
 36 38  1  0  0  0
 18 20  1  0  0  0
  8  9  1  0  0  0
M  END
> <minimizedAffinity>
-8.57903

$$$$
2XBV_XBV_A_1245


 38 41  0  0  0  0  0  0  0  0999 V2000
    8.9381   63.8659    2.7102 C   0  0  0  0  0  0  0  0  0  0  0  0
    8.5805   64.7170    1.4822 C   0  0  0  0  0  0  0  0  0  0  0  0
    9.9413   65.0561    0.8365 C   0  0  0  0  0  0  0  0  0  0  0  0
   10.7454   63.8344    1.1544 N   0  0  0  0  0  0  0  0  0  0  0  0
   10.4043   63.4201    2.5375 C   0  0  0  0  0  0  0  0  0  0  0  0
    7.9775   62.7219    2.9190 C   0  0  0  0  0  0  0  0  0  0  0  0
    7.0254   62.7993    3.6808 O   0  0  0  0  0  0  0  0  0  0  0  0
    8.1697   61.6461    2.1222 N   0  0  0  0  0  0  0  0  0  0  0  0
    8.8247   61.7643    1.3968 H   0  0  0  0  0  0  0  0  0  0  0  0
    7.5648   60.3932    2.1909 C   0  0  0  0  0  0  0  0  0  0  0  0
    6.4024   60.1889    1.5489 N   0  0  0  0  0  0  0  0  0  0  0  0
    6.1251   58.0545    2.6073 C   0  0  0  0  0  0  0  0  0  0  0  0
    7.3305   58.2584    3.3070 C   0  0  0  0  0  0  0  0  0  0  0  0
    5.6821   59.0470    1.7109 C   0  0  0  0  0  0  0  0  0  0  0  0
    8.0410   59.4452    3.1084 C   0  0  0  0  0  0  0  0  0  0  0  0
    5.1852   56.6293    2.9236 Cl  0  0  0  0  0  0  0  0  0  0  0  0
    7.8487   65.9701    1.9133 C   0  0  0  0  0  0  0  0  0  0  0  0
    8.3808   67.0810    1.4800 N   0  0  0  0  0  0  0  0  0  0  0  0
    6.8128   65.9464    2.5604 O   0  0  0  0  0  0  0  0  0  0  0  0
    9.1644   67.0025    0.8892 H   0  0  0  0  0  0  0  0  0  0  0  0
    7.9321   68.3848    1.7835 C   0  0  0  0  0  0  0  0  0  0  0  0
    6.8142   68.9883    1.1969 C   0  0  0  0  0  0  0  0  0  0  0  0
    7.3545   70.9853    2.4354 C   0  0  0  0  0  0  0  0  0  0  0  0
    8.4777   70.3757    3.0139 C   0  0  0  0  0  0  0  0  0  0  0  0
    6.5097   70.3058    1.5519 C   0  0  0  0  0  0  0  0  0  0  0  0
    8.7211   69.0339    2.6920 C   0  0  0  0  0  0  0  0  0  0  0  0
    9.8018   68.4311    3.2094 F   0  0  0  0  0  0  0  0  0  0  0  0
    7.1051   72.3327    2.8348 N   0  0  0  0  0  0  0  0  0  0  0  0
    6.4423   72.5900    4.0449 C   0  0  0  0  0  0  0  0  0  0  0  0
    6.5600   74.9492    3.6319 C   0  0  0  0  0  0  0  0  0  0  0  0
    7.2154   74.7205    2.4417 C   0  0  0  0  0  0  0  0  0  0  0  0
    6.1677   73.8675    4.4297 C   0  0  0  0  0  0  0  0  0  0  0  0
    7.5150   73.3813    2.0023 C   0  0  0  0  0  0  0  0  0  0  0  0
    8.0827   73.1456    0.9281 O   0  0  0  0  0  0  0  0  0  0  0  0
   12.1876   64.1072    1.0428 C   0  0  0  0  0  0  0  0  0  0  0  0
   12.8002   64.4491    2.4020 C   0  0  0  0  0  0  0  0  0  0  0  0
   14.0974   63.9482    2.5479 F   0  0  0  0  0  0  0  0  0  0  0  0
   12.9333   65.8208    2.4479 F   0  0  0  0  0  0  0  0  0  0  0  0
  1  2  1  0  0  0
  1  5  1  0  0  0
  1  6  1  0  0  0
  2  3  1  0  0  0
  2 17  1  0  0  0
  3  4  1  0  0  0
  4  5  1  0  0  0
  4 35  1  0  0  0
  6  7  2  0  0  0
  6  8  1  0  0  0
 17 18  1  0  0  0
 17 19  2  0  0  0
 18 21  1  0  0  0
  8 10  1  0  0  0
 10 11  2  0  0  0
 10 15  1  0  0  0
 11 14  1  0  0  0
 12 13  1  0  0  0
 12 14  2  0  0  0
 12 16  1  0  0  0
 13 15  2  0  0  0
 21 22  1  0  0  0
 21 26  2  0  0  0
 22 25  2  0  0  0
 23 24  2  0  0  0
 23 25  1  0  0  0
 23 28  1  0  0  0
 24 26  1  0  0  0
 26 27  1  0  0  0
 28 29  1  0  0  0
 28 33  1  0  0  0
 29 32  2  0  0  0
 30 31  2  0  0  0
 30 32  1  0  0  0
 31 33  1  0  0  0
 33 34  2  0  0  0
 35 36  1  0  0  0
 36 37  1  0  0  0
 36 38  1  0  0  0
 18 20  1  0  0  0
  8  9  1  0  0  0
M  END
> <minimizedAffinity>
-8.57056

$$$$
