1I7Z_COC_A_301


 22 24  0  0  0  0  0  0  0  0999 V2000
   38.8055    4.4067   46.8499 C   0  0  0  0  0  0  0  0  0  0  0  0
   39.3587    3.6249   45.5844 C   0  0  0  0  0  0  0  0  0  0  0  0
   40.5089    4.3863   45.0495 N   0  0  0  0  0  0  0  0  0  0  0  0
   41.3854    3.5786   44.1654 C   0  0  0  0  0  0  0  0  0  0  0  0
   38.3427    3.5062   44.4128 C   0  0  0  0  0  0  0  0  0  0  0  0
   38.6530    4.7577   43.5436 C   0  0  0  0  0  0  0  0  0  0  0  0
   39.7935    5.4588   44.3228 C   0  0  0  0  0  0  0  0  0  0  0  0
   39.2326    6.4631   45.3954 C   0  0  0  0  0  0  0  0  0  0  0  0
   38.2519    5.7530   46.3326 C   0  0  0  0  0  0  0  0  0  0  0  0
   39.9309    4.5578   47.8956 C   0  0  0  0  0  0  0  0  0  0  0  0
   41.0523    4.9764   47.7471 O   0  0  0  0  0  0  0  0  0  0  0  0
   39.9079    4.7586   50.2984 C   0  0  0  0  0  0  0  0  0  0  0  0
   39.4420    4.1265   49.0750 O   0  0  0  0  0  0  0  0  0  0  0  0
   37.8824    6.6153   47.4674 O   0  0  0  0  0  0  0  0  0  0  0  0
   36.8344    6.3092   48.2722 C   0  0  0  0  0  0  0  0  0  0  0  0
   35.9403    5.5736   47.9527 O   0  0  0  0  0  0  0  0  0  0  0  0
   36.9298    7.0108   49.6291 C   0  0  0  0  0  0  0  0  0  0  0  0
   37.9552    7.9737   49.8266 C   0  0  0  0  0  0  0  0  0  0  0  0
   38.0574    8.6354   51.0782 C   0  0  0  0  0  0  0  0  0  0  0  0
   37.1785    8.3568   52.0935 C   0  0  0  0  0  0  0  0  0  0  0  0
   36.1724    7.4157   51.9092 C   0  0  0  0  0  0  0  0  0  0  0  0
   36.0468    6.7382   50.6720 C   0  0  0  0  0  0  0  0  0  0  0  0
 12 13  1  0  0  0
 13 10  1  0  0  0
 10 11  2  0  0  0
 10  1  1  0  0  0
  1  2  1  0  0  0
  1  9  1  0  0  0
  2  3  1  0  0  0
  2  5  1  0  0  0
  3  4  1  0  0  0
  3  7  1  0  0  0
  5  6  1  0  0  0
  6  7  1  0  0  0
  7  8  1  0  0  0
  8  9  1  0  0  0
  9 14  1  0  0  0
 14 15  1  0  0  0
 15 16  2  0  0  0
 15 17  1  0  0  0
 17 18  2  0  0  0
 17 22  1  0  0  0
 18 19  1  0  0  0
 19 20  2  0  0  0
 20 21  1  0  0  0
 21 22  2  0  0  0
M  END
> <minimizedAffinity>
-8.90203

$$$$
1I7Z_COC_A_301


 22 24  0  0  0  0  0  0  0  0999 V2000
   38.8447    5.0247   46.7658 C   0  0  0  0  0  0  0  0  0  0  0  0
   39.0005    4.0570   45.5176 C   0  0  0  0  0  0  0  0  0  0  0  0
   40.3712    4.2216   44.9859 N   0  0  0  0  0  0  0  0  0  0  0  0
   40.8038    3.0942   44.1232 C   0  0  0  0  0  0  0  0  0  0  0  0
   38.0421    4.3797   44.3360 C   0  0  0  0  0  0  0  0  0  0  0  0
   38.8780    5.3495   43.4535 C   0  0  0  0  0  0  0  0  0  0  0  0
   40.2076    5.4871   44.2363 C   0  0  0  0  0  0  0  0  0  0  0  0
   40.1442    6.6543   45.2886 C   0  0  0  0  0  0  0  0  0  0  0  0
   38.9463    6.4677   46.2239 C   0  0  0  0  0  0  0  0  0  0  0  0
   39.9161    4.6804   47.8225 C   0  0  0  0  0  0  0  0  0  0  0  0
   41.1152    4.7888   47.7492 O   0  0  0  0  0  0  0  0  0  0  0  0
   39.7417    4.6081   50.2264 C   0  0  0  0  0  0  0  0  0  0  0  0
   39.2709    4.2125   48.9091 O   0  0  0  0  0  0  0  0  0  0  0  0
   38.9915    7.4241   47.3424 O   0  0  0  0  0  0  0  0  0  0  0  0
   37.8824    8.0968   47.7388 C   0  0  0  0  0  0  0  0  0  0  0  0
   37.2876    8.8727   47.0409 O   0  0  0  0  0  0  0  0  0  0  0  0
   37.4834    7.7485   49.1747 C   0  0  0  0  0  0  0  0  0  0  0  0
   36.4686    6.7765   49.3822 C   0  0  0  0  0  0  0  0  0  0  0  0
   36.0872    6.4399   50.7073 C   0  0  0  0  0  0  0  0  0  0  0  0
   36.6875    7.0399   51.7846 C   0  0  0  0  0  0  0  0  0  0  0  0
   37.6810    7.9925   51.5909 C   0  0  0  0  0  0  0  0  0  0  0  0
   38.0812    8.3500   50.2803 C   0  0  0  0  0  0  0  0  0  0  0  0
 12 13  1  0  0  0
 13 10  1  0  0  0
 10 11  2  0  0  0
 10  1  1  0  0  0
  1  2  1  0  0  0
  1  9  1  0  0  0
  2  3  1  0  0  0
  2  5  1  0  0  0
  3  4  1  0  0  0
  3  7  1  0  0  0
  5  6  1  0  0  0
  6  7  1  0  0  0
  7  8  1  0  0  0
  8  9  1  0  0  0
  9 14  1  0  0  0
 14 15  1  0  0  0
 15 16  2  0  0  0
 15 17  1  0  0  0
 17 18  2  0  0  0
 17 22  1  0  0  0
 18 19  1  0  0  0
 19 20  2  0  0  0
 20 21  1  0  0  0
 21 22  2  0  0  0
M  END
> <minimizedAffinity>
-8.50220

$$$$
1I7Z_COC_A_301


 22 24  0  0  0  0  0  0  0  0999 V2000
   39.5997    5.6596   46.7426 C   0  0  0  0  0  0  0  0  0  0  0  0
   39.8301    5.4995   45.1805 C   0  0  0  0  0  0  0  0  0  0  0  0
   38.6956    4.7238   44.6330 N   0  0  0  0  0  0  0  0  0  0  0  0
   38.5411    4.8699   43.1643 C   0  0  0  0  0  0  0  0  0  0  0  0
   41.1128    4.7053   44.8025 C   0  0  0  0  0  0  0  0  0  0  0  0
   40.6048    3.2400   44.6900 C   0  0  0  0  0  0  0  0  0  0  0  0
   39.0990    3.3575   45.0340 C   0  0  0  0  0  0  0  0  0  0  0  0
   38.8441    3.2246   46.5803 C   0  0  0  0  0  0  0  0  0  0  0  0
   39.6883    4.2428   47.3517 C   0  0  0  0  0  0  0  0  0  0  0  0
   38.2484    6.3617   46.9955 C   0  0  0  0  0  0  0  0  0  0  0  0
   37.1675    5.8709   47.2088 O   0  0  0  0  0  0  0  0  0  0  0  0
   38.0714    8.5130   48.0703 C   0  0  0  0  0  0  0  0  0  0  0  0
   38.4708    7.6897   46.9406 O   0  0  0  0  0  0  0  0  0  0  0  0
   39.3073    4.2806   48.7734 O   0  0  0  0  0  0  0  0  0  0  0  0
   40.1602    4.7483   49.7187 C   0  0  0  0  0  0  0  0  0  0  0  0
   41.3208    4.4447   49.7791 O   0  0  0  0  0  0  0  0  0  0  0  0
   39.4678    5.7045   50.6927 C   0  0  0  0  0  0  0  0  0  0  0  0
   40.1736    6.1236   51.8521 C   0  0  0  0  0  0  0  0  0  0  0  0
   39.5474    7.0116   52.7654 C   0  0  0  0  0  0  0  0  0  0  0  0
   38.2742    7.4684   52.5395 C   0  0  0  0  0  0  0  0  0  0  0  0
   37.5760    7.0631   51.4080 C   0  0  0  0  0  0  0  0  0  0  0  0
   38.1742    6.1764   50.4799 C   0  0  0  0  0  0  0  0  0  0  0  0
 12 13  1  0  0  0
 13 10  1  0  0  0
 10 11  2  0  0  0
 10  1  1  0  0  0
  1  2  1  0  0  0
  1  9  1  0  0  0
  2  3  1  0  0  0
  2  5  1  0  0  0
  3  4  1  0  0  0
  3  7  1  0  0  0
  5  6  1  0  0  0
  6  7  1  0  0  0
  7  8  1  0  0  0
  8  9  1  0  0  0
  9 14  1  0  0  0
 14 15  1  0  0  0
 15 16  2  0  0  0
 15 17  1  0  0  0
 17 18  2  0  0  0
 17 22  1  0  0  0
 18 19  1  0  0  0
 19 20  2  0  0  0
 20 21  1  0  0  0
 21 22  2  0  0  0
M  END
> <minimizedAffinity>
-8.30014

$$$$
1I7Z_COC_A_301


 22 24  0  0  0  0  0  0  0  0999 V2000
   38.7507    6.0791   46.9720 C   0  0  0  0  0  0  0  0  0  0  0  0
   39.0378    6.2757   45.4235 C   0  0  0  0  0  0  0  0  0  0  0  0
   38.7763    4.9860   44.7476 N   0  0  0  0  0  0  0  0  0  0  0  0
   38.5736    5.1227   43.2839 C   0  0  0  0  0  0  0  0  0  0  0  0
   40.5118    6.6423   45.0891 C   0  0  0  0  0  0  0  0  0  0  0  0
   41.1776    5.2580   44.8474 C   0  0  0  0  0  0  0  0  0  0  0  0
   40.0191    4.2584   45.0889 C   0  0  0  0  0  0  0  0  0  0  0  0
   39.9200    3.8381   46.6012 C   0  0  0  0  0  0  0  0  0  0  0  0
   39.8030    5.0762   47.4946 C   0  0  0  0  0  0  0  0  0  0  0  0
   37.2932    5.6111   47.1711 C   0  0  0  0  0  0  0  0  0  0  0  0
   36.7592    4.6051   46.7740 O   0  0  0  0  0  0  0  0  0  0  0  0
   35.6200    6.1422   48.8243 C   0  0  0  0  0  0  0  0  0  0  0  0
   36.6666    6.5535   47.9029 O   0  0  0  0  0  0  0  0  0  0  0  0
   39.4951    4.7011   48.8847 O   0  0  0  0  0  0  0  0  0  0  0  0
   40.3752    4.9380   49.8892 C   0  0  0  0  0  0  0  0  0  0  0  0
   41.4840    4.4779   49.9272 O   0  0  0  0  0  0  0  0  0  0  0  0
   39.7868    5.8578   50.9617 C   0  0  0  0  0  0  0  0  0  0  0  0
   38.5777    6.5473   50.6779 C   0  0  0  0  0  0  0  0  0  0  0  0
   38.0169    7.4032   51.6616 C   0  0  0  0  0  0  0  0  0  0  0  0
   38.6271    7.5688   52.8786 C   0  0  0  0  0  0  0  0  0  0  0  0
   39.8107    6.8984   53.1646 C   0  0  0  0  0  0  0  0  0  0  0  0
   40.3947    6.0393   52.2022 C   0  0  0  0  0  0  0  0  0  0  0  0
 12 13  1  0  0  0
 13 10  1  0  0  0
 10 11  2  0  0  0
 10  1  1  0  0  0
  1  2  1  0  0  0
  1  9  1  0  0  0
  2  3  1  0  0  0
  2  5  1  0  0  0
  3  4  1  0  0  0
  3  7  1  0  0  0
  5  6  1  0  0  0
  6  7  1  0  0  0
  7  8  1  0  0  0
  8  9  1  0  0  0
  9 14  1  0  0  0
 14 15  1  0  0  0
 15 16  2  0  0  0
 15 17  1  0  0  0
 17 18  2  0  0  0
 17 22  1  0  0  0
 18 19  1  0  0  0
 19 20  2  0  0  0
 20 21  1  0  0  0
 21 22  2  0  0  0
M  END
> <minimizedAffinity>
-8.21912

$$$$
1I7Z_COC_A_301


 22 24  0  0  0  0  0  0  0  0999 V2000
   38.7160    5.1207   48.5093 C   0  0  0  0  0  0  0  0  0  0  0  0
   37.6365    5.7378   49.4954 C   0  0  0  0  0  0  0  0  0  0  0  0
   36.7298    6.5916   48.6968 N   0  0  0  0  0  0  0  0  0  0  0  0
   35.4409    6.8729   49.3763 C   0  0  0  0  0  0  0  0  0  0  0  0
   38.2317    6.6602   50.5972 C   0  0  0  0  0  0  0  0  0  0  0  0
   38.1753    8.0724   49.9490 C   0  0  0  0  0  0  0  0  0  0  0  0
   37.5747    7.7975   48.5478 C   0  0  0  0  0  0  0  0  0  0  0  0
   38.6917    7.4640   47.4920 C   0  0  0  0  0  0  0  0  0  0  0  0
   39.5601    6.3013   47.9803 C   0  0  0  0  0  0  0  0  0  0  0  0
   38.0024    4.3200   47.3990 C   0  0  0  0  0  0  0  0  0  0  0  0
   37.0558    4.6394   46.7232 O   0  0  0  0  0  0  0  0  0  0  0  0
   38.1370    2.1615   46.3325 C   0  0  0  0  0  0  0  0  0  0  0  0
   38.6362    3.1358   47.2891 O   0  0  0  0  0  0  0  0  0  0  0  0
   40.4695    5.8355   46.9202 O   0  0  0  0  0  0  0  0  0  0  0  0
   40.3256    6.2502   45.6368 C   0  0  0  0  0  0  0  0  0  0  0  0
   40.4557    7.3915   45.2858 O   0  0  0  0  0  0  0  0  0  0  0  0
   39.9799    5.0935   44.6961 C   0  0  0  0  0  0  0  0  0  0  0  0
   38.8000    5.1849   43.9104 C   0  0  0  0  0  0  0  0  0  0  0  0
   38.4648    4.1221   43.0313 C   0  0  0  0  0  0  0  0  0  0  0  0
   39.2664    3.0137   42.9320 C   0  0  0  0  0  0  0  0  0  0  0  0
   40.4225    2.9157   43.6974 C   0  0  0  0  0  0  0  0  0  0  0  0
   40.7816    3.9594   44.5846 C   0  0  0  0  0  0  0  0  0  0  0  0
 12 13  1  0  0  0
 13 10  1  0  0  0
 10 11  2  0  0  0
 10  1  1  0  0  0
  1  2  1  0  0  0
  1  9  1  0  0  0
  2  3  1  0  0  0
  2  5  1  0  0  0
  3  4  1  0  0  0
  3  7  1  0  0  0
  5  6  1  0  0  0
  6  7  1  0  0  0
  7  8  1  0  0  0
  8  9  1  0  0  0
  9 14  1  0  0  0
 14 15  1  0  0  0
 15 16  2  0  0  0
 15 17  1  0  0  0
 17 18  2  0  0  0
 17 22  1  0  0  0
 18 19  1  0  0  0
 19 20  2  0  0  0
 20 21  1  0  0  0
 21 22  2  0  0  0
M  END
> <minimizedAffinity>
-7.63542

$$$$
1I7Z_COC_A_301


 22 24  0  0  0  0  0  0  0  0999 V2000
   38.1571    5.8930   47.5380 C   0  0  0  0  0  0  0  0  0  0  0  0
   37.4412    7.0589   48.3425 C   0  0  0  0  0  0  0  0  0  0  0  0
   38.2305    7.3140   49.5675 N   0  0  0  0  0  0  0  0  0  0  0  0
   37.9498    8.6363   50.1800 C   0  0  0  0  0  0  0  0  0  0  0  0
   36.0037    6.7125   48.8248 C   0  0  0  0  0  0  0  0  0  0  0  0
   36.2360    6.1259   50.2460 C   0  0  0  0  0  0  0  0  0  0  0  0
   37.7754    6.1844   50.4084 C   0  0  0  0  0  0  0  0  0  0  0  0
   38.4672    4.8813   49.8632 C   0  0  0  0  0  0  0  0  0  0  0  0
   38.0544    4.6231   48.4115 C   0  0  0  0  0  0  0  0  0  0  0  0
   39.6078    6.3072   47.2110 C   0  0  0  0  0  0  0  0  0  0  0  0
   40.6408    5.8170   47.5949 O   0  0  0  0  0  0  0  0  0  0  0  0
   40.2159    7.2824   45.0912 C   0  0  0  0  0  0  0  0  0  0  0  0
   39.5441    7.3645   46.3778 O   0  0  0  0  0  0  0  0  0  0  0  0
   38.8517    3.5371   47.8176 O   0  0  0  0  0  0  0  0  0  0  0  0
   38.4145    2.8574   46.7282 C   0  0  0  0  0  0  0  0  0  0  0  0
   37.6532    1.9300   46.7816 O   0  0  0  0  0  0  0  0  0  0  0  0
   39.0057    3.4135   45.4305 C   0  0  0  0  0  0  0  0  0  0  0  0
   38.1330    4.0306   44.4950 C   0  0  0  0  0  0  0  0  0  0  0  0
   38.6643    4.5533   43.2870 C   0  0  0  0  0  0  0  0  0  0  0  0
   40.0063    4.4705   43.0164 C   0  0  0  0  0  0  0  0  0  0  0  0
   40.8674    3.8678   43.9259 C   0  0  0  0  0  0  0  0  0  0  0  0
   40.3659    3.3357   45.1387 C   0  0  0  0  0  0  0  0  0  0  0  0
 12 13  1  0  0  0
 13 10  1  0  0  0
 10 11  2  0  0  0
 10  1  1  0  0  0
  1  2  1  0  0  0
  1  9  1  0  0  0
  2  3  1  0  0  0
  2  5  1  0  0  0
  3  4  1  0  0  0
  3  7  1  0  0  0
  5  6  1  0  0  0
  6  7  1  0  0  0
  7  8  1  0  0  0
  8  9  1  0  0  0
  9 14  1  0  0  0
 14 15  1  0  0  0
 15 16  2  0  0  0
 15 17  1  0  0  0
 17 18  2  0  0  0
 17 22  1  0  0  0
 18 19  1  0  0  0
 19 20  2  0  0  0
 20 21  1  0  0  0
 21 22  2  0  0  0
M  END
> <minimizedAffinity>
-7.61539

$$$$
1I7Z_COC_A_301


 22 24  0  0  0  0  0  0  0  0999 V2000
   38.5206    5.5495   46.4596 C   0  0  0  0  0  0  0  0  0  0  0  0
   39.1641    5.0325   45.1040 C   0  0  0  0  0  0  0  0  0  0  0  0
   40.0120    3.8628   45.4230 N   0  0  0  0  0  0  0  0  0  0  0  0
   40.3163    3.0203   44.2398 C   0  0  0  0  0  0  0  0  0  0  0  0
   40.0998    6.0616   44.4082 C   0  0  0  0  0  0  0  0  0  0  0  0
   41.5013    5.7184   44.9880 C   0  0  0  0  0  0  0  0  0  0  0  0
   41.2077    4.5493   45.9609 C   0  0  0  0  0  0  0  0  0  0  0  0
   40.8463    5.0683   47.4009 C   0  0  0  0  0  0  0  0  0  0  0  0
   39.6846    6.0636   47.3355 C   0  0  0  0  0  0  0  0  0  0  0  0
   37.7074    4.4110   47.1118 C   0  0  0  0  0  0  0  0  0  0  0  0
   38.0974    3.3609   47.5590 O   0  0  0  0  0  0  0  0  0  0  0  0
   35.9283    5.6280   48.1926 C   0  0  0  0  0  0  0  0  0  0  0  0
   36.4142    4.7901   47.1085 O   0  0  0  0  0  0  0  0  0  0  0  0
   39.1928    6.3955   48.6831 O   0  0  0  0  0  0  0  0  0  0  0  0
   38.5110    7.5438   48.9207 C   0  0  0  0  0  0  0  0  0  0  0  0
   38.2995    8.3794   48.0842 O   0  0  0  0  0  0  0  0  0  0  0  0
   38.0466    7.6439   50.3756 C   0  0  0  0  0  0  0  0  0  0  0  0
   38.9574    7.2898   51.4064 C   0  0  0  0  0  0  0  0  0  0  0  0
   38.5442    7.3783   52.7615 C   0  0  0  0  0  0  0  0  0  0  0  0
   37.2803    7.8024   53.0838 C   0  0  0  0  0  0  0  0  0  0  0  0
   36.3824    8.1504   52.0815 C   0  0  0  0  0  0  0  0  0  0  0  0
   36.7658    8.0705   50.7206 C   0  0  0  0  0  0  0  0  0  0  0  0
 12 13  1  0  0  0
 13 10  1  0  0  0
 10 11  2  0  0  0
 10  1  1  0  0  0
  1  2  1  0  0  0
  1  9  1  0  0  0
  2  3  1  0  0  0
  2  5  1  0  0  0
  3  4  1  0  0  0
  3  7  1  0  0  0
  5  6  1  0  0  0
  6  7  1  0  0  0
  7  8  1  0  0  0
  8  9  1  0  0  0
  9 14  1  0  0  0
 14 15  1  0  0  0
 15 16  2  0  0  0
 15 17  1  0  0  0
 17 18  2  0  0  0
 17 22  1  0  0  0
 18 19  1  0  0  0
 19 20  2  0  0  0
 20 21  1  0  0  0
 21 22  2  0  0  0
M  END
> <minimizedAffinity>
-7.49641

$$$$
1I7Z_COC_A_301


 22 24  0  0  0  0  0  0  0  0999 V2000
   38.2865    7.9452   51.2177 C   0  0  0  0  0  0  0  0  0  0  0  0
   37.5406    8.5333   52.4891 C   0  0  0  0  0  0  0  0  0  0  0  0
   36.8749    7.4092   53.1833 N   0  0  0  0  0  0  0  0  0  0  0  0
   36.5213    7.7175   54.5912 C   0  0  0  0  0  0  0  0  0  0  0  0
   36.4165    9.5546   52.1542 C   0  0  0  0  0  0  0  0  0  0  0  0
   35.1454    8.6648   52.0508 C   0  0  0  0  0  0  0  0  0  0  0  0
   35.6866    7.2381   52.3178 C   0  0  0  0  0  0  0  0  0  0  0  0
   36.1647    6.5403   50.9919 C   0  0  0  0  0  0  0  0  0  0  0  0
   37.1909    7.4150   50.2664 C   0  0  0  0  0  0  0  0  0  0  0  0
   39.2966    6.8670   51.6649 C   0  0  0  0  0  0  0  0  0  0  0  0
   39.3746    5.7130   51.3229 O   0  0  0  0  0  0  0  0  0  0  0  0
   40.4635    6.7276   53.7705 C   0  0  0  0  0  0  0  0  0  0  0  0
   40.1330    7.4446   52.5498 O   0  0  0  0  0  0  0  0  0  0  0  0
   37.8069    6.6902   49.1425 O   0  0  0  0  0  0  0  0  0  0  0  0
   38.2260    7.3422   48.0294 C   0  0  0  0  0  0  0  0  0  0  0  0
   37.8125    8.4178   47.6907 O   0  0  0  0  0  0  0  0  0  0  0  0
   39.2840    6.5452   47.2625 C   0  0  0  0  0  0  0  0  0  0  0  0
   39.5334    6.8769   45.9040 C   0  0  0  0  0  0  0  0  0  0  0  0
   40.5124    6.1493   45.1781 C   0  0  0  0  0  0  0  0  0  0  0  0
   41.2180    5.1351   45.7733 C   0  0  0  0  0  0  0  0  0  0  0  0
   40.9800    4.8034   47.1020 C   0  0  0  0  0  0  0  0  0  0  0  0
   40.0081    5.5105   47.8510 C   0  0  0  0  0  0  0  0  0  0  0  0
 12 13  1  0  0  0
 13 10  1  0  0  0
 10 11  2  0  0  0
 10  1  1  0  0  0
  1  2  1  0  0  0
  1  9  1  0  0  0
  2  3  1  0  0  0
  2  5  1  0  0  0
  3  4  1  0  0  0
  3  7  1  0  0  0
  5  6  1  0  0  0
  6  7  1  0  0  0
  7  8  1  0  0  0
  8  9  1  0  0  0
  9 14  1  0  0  0
 14 15  1  0  0  0
 15 16  2  0  0  0
 15 17  1  0  0  0
 17 18  2  0  0  0
 17 22  1  0  0  0
 18 19  1  0  0  0
 19 20  2  0  0  0
 20 21  1  0  0  0
 21 22  2  0  0  0
M  END
> <minimizedAffinity>
-7.41810

$$$$
1I7Z_COC_A_301


 22 24  0  0  0  0  0  0  0  0999 V2000
   38.1481    4.6793   45.7306 C   0  0  0  0  0  0  0  0  0  0  0  0
   39.1683    5.1479   44.6089 C   0  0  0  0  0  0  0  0  0  0  0  0
   40.5354    4.8416   45.0843 N   0  0  0  0  0  0  0  0  0  0  0  0
   41.5413    4.8108   43.9937 C   0  0  0  0  0  0  0  0  0  0  0  0
   39.1471    6.6770   44.3252 C   0  0  0  0  0  0  0  0  0  0  0  0
   40.2357    7.2332   45.2863 C   0  0  0  0  0  0  0  0  0  0  0  0
   40.7412    5.9676   46.0225 C   0  0  0  0  0  0  0  0  0  0  0  0
   39.8932    5.6681   47.3128 C   0  0  0  0  0  0  0  0  0  0  0  0
   38.4051    5.5716   46.9651 C   0  0  0  0  0  0  0  0  0  0  0  0
   38.3374    3.1716   46.0029 C   0  0  0  0  0  0  0  0  0  0  0  0
   38.7924    2.6291   46.9793 O   0  0  0  0  0  0  0  0  0  0  0  0
   38.6137    2.6452   43.6660 C   0  0  0  0  0  0  0  0  0  0  0  0
   37.8883    2.5095   44.9184 O   0  0  0  0  0  0  0  0  0  0  0  0
   37.6221    5.0828   48.1122 O   0  0  0  0  0  0  0  0  0  0  0  0
   36.6483    5.8413   48.6744 C   0  0  0  0  0  0  0  0  0  0  0  0
   35.5240    5.9012   48.2559 O   0  0  0  0  0  0  0  0  0  0  0  0
   37.1536    6.6066   49.8998 C   0  0  0  0  0  0  0  0  0  0  0  0
   38.4173    6.2575   50.4465 C   0  0  0  0  0  0  0  0  0  0  0  0
   38.9023    6.9579   51.5818 C   0  0  0  0  0  0  0  0  0  0  0  0
   38.1669    7.9652   52.1523 C   0  0  0  0  0  0  0  0  0  0  0  0
   36.9291    8.3130   51.6242 C   0  0  0  0  0  0  0  0  0  0  0  0
   36.4185    7.6308   50.4932 C   0  0  0  0  0  0  0  0  0  0  0  0
 12 13  1  0  0  0
 13 10  1  0  0  0
 10 11  2  0  0  0
 10  1  1  0  0  0
  1  2  1  0  0  0
  1  9  1  0  0  0
  2  3  1  0  0  0
  2  5  1  0  0  0
  3  4  1  0  0  0
  3  7  1  0  0  0
  5  6  1  0  0  0
  6  7  1  0  0  0
  7  8  1  0  0  0
  8  9  1  0  0  0
  9 14  1  0  0  0
 14 15  1  0  0  0
 15 16  2  0  0  0
 15 17  1  0  0  0
 17 18  2  0  0  0
 17 22  1  0  0  0
 18 19  1  0  0  0
 19 20  2  0  0  0
 20 21  1  0  0  0
 21 22  2  0  0  0
M  END
> <minimizedAffinity>
-7.34139

$$$$
1I7Z_COC_A_301


 22 24  0  0  0  0  0  0  0  0999 V2000
   38.4204    4.2641   46.0610 C   0  0  0  0  0  0  0  0  0  0  0  0
   38.9619    4.9856   44.7552 C   0  0  0  0  0  0  0  0  0  0  0  0
   40.3937    4.6428   44.6098 N   0  0  0  0  0  0  0  0  0  0  0  0
   40.9133    4.8685   43.2382 C   0  0  0  0  0  0  0  0  0  0  0  0
   38.8977    6.5386   44.8108 C   0  0  0  0  0  0  0  0  0  0  0  0
   40.2895    6.9329   45.3813 C   0  0  0  0  0  0  0  0  0  0  0  0
   40.9830    5.5659   45.6053 C   0  0  0  0  0  0  0  0  0  0  0  0
   40.6711    4.9831   47.0324 C   0  0  0  0  0  0  0  0  0  0  0  0
   39.1590    4.9013   47.2588 C   0  0  0  0  0  0  0  0  0  0  0  0
   38.6367    2.7408   45.9360 C   0  0  0  0  0  0  0  0  0  0  0  0
   39.2919    2.1321   45.1266 O   0  0  0  0  0  0  0  0  0  0  0  0
   37.3935    0.8261   46.7125 C   0  0  0  0  0  0  0  0  0  0  0  0
   37.9416    2.1548   46.9308 O   0  0  0  0  0  0  0  0  0  0  0  0
   38.8458    4.1640   48.4942 O   0  0  0  0  0  0  0  0  0  0  0  0
   39.1943    4.6499   49.7116 C   0  0  0  0  0  0  0  0  0  0  0  0
   40.0828    4.1973   50.3812 O   0  0  0  0  0  0  0  0  0  0  0  0
   38.3230    5.8383   50.1253 C   0  0  0  0  0  0  0  0  0  0  0  0
   37.0220    5.9548   49.5672 C   0  0  0  0  0  0  0  0  0  0  0  0
   36.1995    7.0497   49.9409 C   0  0  0  0  0  0  0  0  0  0  0  0
   36.6460    7.9908   50.8331 C   0  0  0  0  0  0  0  0  0  0  0  0
   37.9179    7.8849   51.3836 C   0  0  0  0  0  0  0  0  0  0  0  0
   38.7616    6.8045   51.0283 C   0  0  0  0  0  0  0  0  0  0  0  0
 12 13  1  0  0  0
 13 10  1  0  0  0
 10 11  2  0  0  0
 10  1  1  0  0  0
  1  2  1  0  0  0
  1  9  1  0  0  0
  2  3  1  0  0  0
  2  5  1  0  0  0
  3  4  1  0  0  0
  3  7  1  0  0  0
  5  6  1  0  0  0
  6  7  1  0  0  0
  7  8  1  0  0  0
  8  9  1  0  0  0
  9 14  1  0  0  0
 14 15  1  0  0  0
 15 16  2  0  0  0
 15 17  1  0  0  0
 17 18  2  0  0  0
 17 22  1  0  0  0
 18 19  1  0  0  0
 19 20  2  0  0  0
 20 21  1  0  0  0
 21 22  2  0  0  0
M  END
> <minimizedAffinity>
-7.05474

$$$$
