3RM4_3RM_A_1


 25 27  0  0  0  0  0  0  0  0999 V2000
    3.5105    0.1453  -15.3157 N   0  0  0  0  0  0  0  0  0  0  0  0
    4.4573   -1.5035  -17.4465 N   0  0  0  0  0  0  0  0  0  0  0  0
    2.5330   -0.3565  -16.3657 C   0  0  0  0  0  0  0  0  0  0  0  0
    3.0467   -1.6066  -17.0548 C   0  0  0  0  0  0  0  0  0  0  0  0
    5.3855   -0.9977  -16.4311 C   0  0  0  0  0  0  0  0  0  0  0  0
    4.9075    0.3290  -15.8770 C   0  0  0  0  0  0  0  0  0  0  0  0
    5.2779   -3.7003  -17.9605 N   0  0  0  0  0  0  0  0  0  0  0  0
    5.6203   -4.4473  -19.0176 N   0  0  0  0  0  0  0  0  0  0  0  0
    4.9032   -2.3870  -19.6544 N   0  0  0  0  0  0  0  0  0  0  0  0
    5.5376   -3.8499  -21.3696 N   0  0  0  0  0  0  0  0  0  0  0  0
    4.8582   -2.4542  -18.3346 C   0  0  0  0  0  0  0  0  0  0  0  0
    5.3717   -3.6148  -20.0470 C   0  0  0  0  0  0  0  0  0  0  0  0
    4.6556   -1.6256  -20.2273 H   0  0  0  0  0  0  0  0  0  0  0  0
    5.8726   -4.7235  -21.6760 H   0  0  0  0  0  0  0  0  0  0  0  0
    5.3233   -3.1474  -22.0252 H   0  0  0  0  0  0  0  0  0  0  0  0
    3.0487    1.4505  -14.7088 C   0  0  0  0  0  0  0  0  0  0  0  0
    2.7652    2.4616  -15.8157 C   0  0  0  0  0  0  0  0  0  0  0  0
    1.4261    2.9385  -15.5902 O   0  0  0  0  0  0  0  0  0  0  0  0
   -0.6190    1.5611  -15.6464 C   0  0  0  0  0  0  0  0  0  0  0  0
   -2.7123   -0.0232  -18.8629 Br  0  0  0  0  0  0  0  0  0  0  0  0
   -1.5668    0.8852  -16.4290 C   0  0  0  0  0  0  0  0  0  0  0  0
   -1.4326    0.9041  -17.8173 C   0  0  0  0  0  0  0  0  0  0  0  0
   -0.3762    1.5822  -18.4363 C   0  0  0  0  0  0  0  0  0  0  0  0
    0.5659    2.2571  -17.6525 C   0  0  0  0  0  0  0  0  0  0  0  0
    0.4425    2.2507  -16.2557 C   0  0  0  0  0  0  0  0  0  0  0  0
 19 21  2  0  0  0
 19 25  1  0  0  0
  1 16  1  0  0  0
  1  3  1  0  0  0
  1  6  1  0  0  0
 18 25  1  0  0  0
 18 17  1  0  0  0
 20 22  1  0  0  0
 21 22  1  0  0  0
  2  4  1  0  0  0
  2  5  1  0  0  0
  2 11  1  0  0  0
 22 23  2  0  0  0
  7  8  1  0  0  0
  7 11  2  0  0  0
 23 24  1  0  0  0
  8 12  2  0  0  0
 24 25  2  0  0  0
  9 11  1  0  0  0
  9 12  1  0  0  0
 10 12  1  0  0  0
 17 16  1  0  0  0
  3  4  1  0  0  0
  5  6  1  0  0  0
  9 13  1  0  0  0
 10 14  1  0  0  0
 10 15  1  0  0  0
M  END
> <minimizedAffinity>
-8.23031

$$$$
3RM4_3RM_A_1


 25 27  0  0  0  0  0  0  0  0999 V2000
    3.2974    0.6307  -14.9929 N   0  0  0  0  0  0  0  0  0  0  0  0
    4.1395   -1.0775  -17.1209 N   0  0  0  0  0  0  0  0  0  0  0  0
    2.3712    0.3934  -16.1743 C   0  0  0  0  0  0  0  0  0  0  0  0
    2.7007   -0.9027  -16.8907 C   0  0  0  0  0  0  0  0  0  0  0  0
    5.0228   -0.8243  -15.9789 C   0  0  0  0  0  0  0  0  0  0  0  0
    4.7595    0.5454  -15.3872 C   0  0  0  0  0  0  0  0  0  0  0  0
    5.0743   -3.2140  -17.6912 N   0  0  0  0  0  0  0  0  0  0  0  0
    5.2614   -4.0013  -18.7580 N   0  0  0  0  0  0  0  0  0  0  0  0
    4.1919   -2.0775  -19.3235 N   0  0  0  0  0  0  0  0  0  0  0  0
    4.6006   -3.5960  -21.0589 N   0  0  0  0  0  0  0  0  0  0  0  0
    4.4434   -2.0483  -18.0257 C   0  0  0  0  0  0  0  0  0  0  0  0
    4.7010   -3.2786  -19.7470 C   0  0  0  0  0  0  0  0  0  0  0  0
    3.7400   -1.3906  -19.8649 H   0  0  0  0  0  0  0  0  0  0  0  0
    4.9585   -4.4525  -21.3869 H   0  0  0  0  0  0  0  0  0  0  0  0
    4.1697   -2.9704  -21.6852 H   0  0  0  0  0  0  0  0  0  0  0  0
    3.0394    1.9737  -14.3486 C   0  0  0  0  0  0  0  0  0  0  0  0
    3.8644    3.0486  -15.0498 C   0  0  0  0  0  0  0  0  0  0  0  0
    2.9587    3.7396  -15.9294 O   0  0  0  0  0  0  0  0  0  0  0  0
    2.9549    5.8472  -14.6483 C   0  0  0  0  0  0  0  0  0  0  0  0
    3.0888    9.7887  -15.9460 Br  0  0  0  0  0  0  0  0  0  0  0  0
    2.9897    7.2491  -14.6804 C   0  0  0  0  0  0  0  0  0  0  0  0
    3.0550    7.8943  -15.9154 C   0  0  0  0  0  0  0  0  0  0  0  0
    3.0871    7.1705  -17.1129 C   0  0  0  0  0  0  0  0  0  0  0  0
    3.0547    5.7723  -17.0767 C   0  0  0  0  0  0  0  0  0  0  0  0
    2.9929    5.1088  -15.8429 C   0  0  0  0  0  0  0  0  0  0  0  0
 19 21  2  0  0  0
 19 25  1  0  0  0
  1 16  1  0  0  0
  1  3  1  0  0  0
  1  6  1  0  0  0
 18 25  1  0  0  0
 18 17  1  0  0  0
 20 22  1  0  0  0
 21 22  1  0  0  0
  2  4  1  0  0  0
  2  5  1  0  0  0
  2 11  1  0  0  0
 22 23  2  0  0  0
  7  8  1  0  0  0
  7 11  2  0  0  0
 23 24  1  0  0  0
  8 12  2  0  0  0
 24 25  2  0  0  0
  9 11  1  0  0  0
  9 12  1  0  0  0
 10 12  1  0  0  0
 17 16  1  0  0  0
  3  4  1  0  0  0
  5  6  1  0  0  0
  9 13  1  0  0  0
 10 14  1  0  0  0
 10 15  1  0  0  0
M  END
> <minimizedAffinity>
-8.03739

$$$$
3RM4_3RM_A_1


 25 27  0  0  0  0  0  0  0  0999 V2000
    0.9938    3.0370  -14.7339 N   0  0  0  0  0  0  0  0  0  0  0  0
    1.8145    0.5577  -15.8892 N   0  0  0  0  0  0  0  0  0  0  0  0
    2.2160    2.3216  -14.1822 C   0  0  0  0  0  0  0  0  0  0  0  0
    2.8206    1.3788  -15.2055 C   0  0  0  0  0  0  0  0  0  0  0  0
    0.6308    1.2571  -16.3972 C   0  0  0  0  0  0  0  0  0  0  0  0
   -0.0274    2.0692  -15.3004 C   0  0  0  0  0  0  0  0  0  0  0  0
    1.5588   -1.4776  -17.1365 N   0  0  0  0  0  0  0  0  0  0  0  0
    2.3033   -2.4123  -17.7407 N   0  0  0  0  0  0  0  0  0  0  0  0
    3.5979   -0.7891  -16.8165 N   0  0  0  0  0  0  0  0  0  0  0  0
    4.7215   -2.5135  -17.9339 N   0  0  0  0  0  0  0  0  0  0  0  0
    2.3312   -0.5045  -16.5661 C   0  0  0  0  0  0  0  0  0  0  0  0
    3.5542   -1.9574  -17.5337 C   0  0  0  0  0  0  0  0  0  0  0  0
    4.3946   -0.2767  -16.5481 H   0  0  0  0  0  0  0  0  0  0  0  0
    4.7160   -3.3520  -18.4498 H   0  0  0  0  0  0  0  0  0  0  0  0
    5.5761   -2.0795  -17.7091 H   0  0  0  0  0  0  0  0  0  0  0  0
    0.3293    3.8911  -13.6784 C   0  0  0  0  0  0  0  0  0  0  0  0
    0.2836    5.3433  -14.1441 C   0  0  0  0  0  0  0  0  0  0  0  0
    0.9004    5.3672  -15.4443 O   0  0  0  0  0  0  0  0  0  0  0  0
    2.4793    6.6904  -16.8006 C   0  0  0  0  0  0  0  0  0  0  0  0
    3.5816   10.6833  -16.5208 Br  0  0  0  0  0  0  0  0  0  0  0  0
    3.0839    7.9350  -17.0306 C   0  0  0  0  0  0  0  0  0  0  0  0
    2.7486    9.0103  -16.2078 C   0  0  0  0  0  0  0  0  0  0  0  0
    1.8255    8.8679  -15.1655 C   0  0  0  0  0  0  0  0  0  0  0  0
    1.2228    7.6255  -14.9407 C   0  0  0  0  0  0  0  0  0  0  0  0
    1.5463    6.5358  -15.7617 C   0  0  0  0  0  0  0  0  0  0  0  0
 19 21  2  0  0  0
 19 25  1  0  0  0
  1 16  1  0  0  0
  1  3  1  0  0  0
  1  6  1  0  0  0
 18 25  1  0  0  0
 18 17  1  0  0  0
 20 22  1  0  0  0
 21 22  1  0  0  0
  2  4  1  0  0  0
  2  5  1  0  0  0
  2 11  1  0  0  0
 22 23  2  0  0  0
  7  8  1  0  0  0
  7 11  2  0  0  0
 23 24  1  0  0  0
  8 12  2  0  0  0
 24 25  2  0  0  0
  9 11  1  0  0  0
  9 12  1  0  0  0
 10 12  1  0  0  0
 17 16  1  0  0  0
  3  4  1  0  0  0
  5  6  1  0  0  0
  9 13  1  0  0  0
 10 14  1  0  0  0
 10 15  1  0  0  0
M  END
> <minimizedAffinity>
-7.95142

$$$$
3RM4_3RM_A_1


 25 27  0  0  0  0  0  0  0  0999 V2000
    1.6153    4.3431  -16.6584 N   0  0  0  0  0  0  0  0  0  0  0  0
    2.0615    6.8342  -15.3351 N   0  0  0  0  0  0  0  0  0  0  0  0
    1.2395    4.4910  -15.1932 C   0  0  0  0  0  0  0  0  0  0  0  0
    1.0158    5.9438  -14.8179 C   0  0  0  0  0  0  0  0  0  0  0  0
    2.4294    6.6661  -16.7440 C   0  0  0  0  0  0  0  0  0  0  0  0
    2.7899    5.2243  -17.0386 C   0  0  0  0  0  0  0  0  0  0  0  0
    1.9285    9.2272  -15.4738 N   0  0  0  0  0  0  0  0  0  0  0  0
    1.9776   10.3061  -14.6822 N   0  0  0  0  0  0  0  0  0  0  0  0
    2.1963    8.3871  -13.4846 N   0  0  0  0  0  0  0  0  0  0  0  0
    2.2447   10.3890  -12.2703 N   0  0  0  0  0  0  0  0  0  0  0  0
    2.0732    8.0691  -14.7620 C   0  0  0  0  0  0  0  0  0  0  0  0
    2.1354    9.7571  -13.4622 C   0  0  0  0  0  0  0  0  0  0  0  0
    2.3071    7.7767  -12.7201 H   0  0  0  0  0  0  0  0  0  0  0  0
    2.2040   11.3718  -12.2286 H   0  0  0  0  0  0  0  0  0  0  0  0
    2.3649    9.8659  -11.4450 H   0  0  0  0  0  0  0  0  0  0  0  0
    1.9449    2.9087  -17.0029 C   0  0  0  0  0  0  0  0  0  0  0  0
    2.3481    2.1547  -15.7392 C   0  0  0  0  0  0  0  0  0  0  0  0
    1.8931    0.8009  -15.9173 O   0  0  0  0  0  0  0  0  0  0  0  0
    2.7543   -1.0902  -17.2458 C   0  0  0  0  0  0  0  0  0  0  0  0
    6.4141   -3.0447  -17.0923 Br  0  0  0  0  0  0  0  0  0  0  0  0
    3.8192   -1.9671  -17.5002 C   0  0  0  0  0  0  0  0  0  0  0  0
    4.9874   -1.8461  -16.7476 C   0  0  0  0  0  0  0  0  0  0  0  0
    5.1126   -0.8709  -15.7516 C   0  0  0  0  0  0  0  0  0  0  0  0
    4.0493    0.0033  -15.5023 C   0  0  0  0  0  0  0  0  0  0  0  0
    2.8697   -0.1029  -16.2531 C   0  0  0  0  0  0  0  0  0  0  0  0
 19 21  2  0  0  0
 19 25  1  0  0  0
  1 16  1  0  0  0
  1  3  1  0  0  0
  1  6  1  0  0  0
 18 25  1  0  0  0
 18 17  1  0  0  0
 20 22  1  0  0  0
 21 22  1  0  0  0
  2  4  1  0  0  0
  2  5  1  0  0  0
  2 11  1  0  0  0
 22 23  2  0  0  0
  7  8  1  0  0  0
  7 11  2  0  0  0
 23 24  1  0  0  0
  8 12  2  0  0  0
 24 25  2  0  0  0
  9 11  1  0  0  0
  9 12  1  0  0  0
 10 12  1  0  0  0
 17 16  1  0  0  0
  3  4  1  0  0  0
  5  6  1  0  0  0
  9 13  1  0  0  0
 10 14  1  0  0  0
 10 15  1  0  0  0
M  END
> <minimizedAffinity>
-7.88761

$$$$
3RM4_3RM_A_1


 25 27  0  0  0  0  0  0  0  0999 V2000
    2.3300    4.3120  -13.1549 N   0  0  0  0  0  0  0  0  0  0  0  0
    2.2408    6.9598  -14.2211 N   0  0  0  0  0  0  0  0  0  0  0  0
    3.0911    4.6318  -14.4309 C   0  0  0  0  0  0  0  0  0  0  0  0
    3.3960    6.1137  -14.5428 C   0  0  0  0  0  0  0  0  0  0  0  0
    1.5029    6.6267  -12.9992 C   0  0  0  0  0  0  0  0  0  0  0  0
    1.0884    5.1694  -13.0002 C   0  0  0  0  0  0  0  0  0  0  0  0
    1.5447    9.2572  -14.1926 N   0  0  0  0  0  0  0  0  0  0  0  0
    1.8839   10.4397  -14.7214 N   0  0  0  0  0  0  0  0  0  0  0  0
    3.2858    8.7892  -15.4108 N   0  0  0  0  0  0  0  0  0  0  0  0
    3.7255   10.9417  -16.2220 N   0  0  0  0  0  0  0  0  0  0  0  0
    2.3754    8.2564  -14.6135 C   0  0  0  0  0  0  0  0  0  0  0  0
    2.9640   10.1215  -15.4609 C   0  0  0  0  0  0  0  0  0  0  0  0
    4.0289    8.3317  -15.8667 H   0  0  0  0  0  0  0  0  0  0  0  0
    3.5144   11.9019  -16.2739 H   0  0  0  0  0  0  0  0  0  0  0  0
    4.4906   10.5781  -16.7237 H   0  0  0  0  0  0  0  0  0  0  0  0
    1.9314    2.8549  -13.0988 C   0  0  0  0  0  0  0  0  0  0  0  0
    0.6618    2.6361  -13.9161 C   0  0  0  0  0  0  0  0  0  0  0  0
    1.0931    2.3561  -15.2603 O   0  0  0  0  0  0  0  0  0  0  0  0
   -1.0229    1.1449  -15.6322 C   0  0  0  0  0  0  0  0  0  0  0  0
   -2.8762   -0.0197  -19.1602 Br  0  0  0  0  0  0  0  0  0  0  0  0
   -1.9285    0.6058  -16.5580 C   0  0  0  0  0  0  0  0  0  0  0  0
   -1.6514    0.7237  -17.9200 C   0  0  0  0  0  0  0  0  0  0  0  0
   -0.4941    1.3670  -18.3733 C   0  0  0  0  0  0  0  0  0  0  0  0
    0.4055    1.9055  -17.4470 C   0  0  0  0  0  0  0  0  0  0  0  0
    0.1393    1.7986  -16.0745 C   0  0  0  0  0  0  0  0  0  0  0  0
 19 21  2  0  0  0
 19 25  1  0  0  0
  1 16  1  0  0  0
  1  3  1  0  0  0
  1  6  1  0  0  0
 18 25  1  0  0  0
 18 17  1  0  0  0
 20 22  1  0  0  0
 21 22  1  0  0  0
  2  4  1  0  0  0
  2  5  1  0  0  0
  2 11  1  0  0  0
 22 23  2  0  0  0
  7  8  1  0  0  0
  7 11  2  0  0  0
 23 24  1  0  0  0
  8 12  2  0  0  0
 24 25  2  0  0  0
  9 11  1  0  0  0
  9 12  1  0  0  0
 10 12  1  0  0  0
 17 16  1  0  0  0
  3  4  1  0  0  0
  5  6  1  0  0  0
  9 13  1  0  0  0
 10 14  1  0  0  0
 10 15  1  0  0  0
M  END
> <minimizedAffinity>
-7.53045

$$$$
3RM4_3RM_A_1


 25 27  0  0  0  0  0  0  0  0999 V2000
    2.0424    4.1359  -14.1601 N   0  0  0  0  0  0  0  0  0  0  0  0
    1.7645    1.7846  -15.7568 N   0  0  0  0  0  0  0  0  0  0  0  0
    2.3205    2.7747  -13.5439 C   0  0  0  0  0  0  0  0  0  0  0  0
    2.6680    1.7436  -14.6011 C   0  0  0  0  0  0  0  0  0  0  0  0
    1.4878    3.1060  -16.3276 C   0  0  0  0  0  0  0  0  0  0  0  0
    0.9997    4.0631  -15.2593 C   0  0  0  0  0  0  0  0  0  0  0  0
    2.0807    0.7597  -17.9046 N   0  0  0  0  0  0  0  0  0  0  0  0
    2.1054   -0.4540  -18.4697 N   0  0  0  0  0  0  0  0  0  0  0  0
    1.7284   -0.5874  -16.2326 N   0  0  0  0  0  0  0  0  0  0  0  0
    1.8195   -2.6152  -17.4007 N   0  0  0  0  0  0  0  0  0  0  0  0
    1.8407    0.6885  -16.5607 C   0  0  0  0  0  0  0  0  0  0  0  0
    1.8931   -1.2638  -17.4143 C   0  0  0  0  0  0  0  0  0  0  0  0
    1.5633   -0.9672  -15.3394 H   0  0  0  0  0  0  0  0  0  0  0  0
    1.9344   -3.1229  -18.2363 H   0  0  0  0  0  0  0  0  0  0  0  0
    1.6510   -3.0905  -16.5551 H   0  0  0  0  0  0  0  0  0  0  0  0
    1.5894    5.1328  -13.1179 C   0  0  0  0  0  0  0  0  0  0  0  0
    0.2463    5.7306  -13.5260 C   0  0  0  0  0  0  0  0  0  0  0  0
    0.2486    7.0875  -13.0462 O   0  0  0  0  0  0  0  0  0  0  0  0
    1.7439    9.0395  -13.2378 C   0  0  0  0  0  0  0  0  0  0  0  0
    3.5124   10.7609  -16.5765 Br  0  0  0  0  0  0  0  0  0  0  0  0
    2.4952    9.8740  -14.0785 C   0  0  0  0  0  0  0  0  0  0  0  0
    2.5037    9.6189  -15.4499 C   0  0  0  0  0  0  0  0  0  0  0  0
    1.7808    8.5517  -15.9952 C   0  0  0  0  0  0  0  0  0  0  0  0
    1.0345    7.7203  -15.1532 C   0  0  0  0  0  0  0  0  0  0  0  0
    1.0190    7.9612  -13.7719 C   0  0  0  0  0  0  0  0  0  0  0  0
 19 21  2  0  0  0
 19 25  1  0  0  0
  1 16  1  0  0  0
  1  3  1  0  0  0
  1  6  1  0  0  0
 18 25  1  0  0  0
 18 17  1  0  0  0
 20 22  1  0  0  0
 21 22  1  0  0  0
  2  4  1  0  0  0
  2  5  1  0  0  0
  2 11  1  0  0  0
 22 23  2  0  0  0
  7  8  1  0  0  0
  7 11  2  0  0  0
 23 24  1  0  0  0
  8 12  2  0  0  0
 24 25  2  0  0  0
  9 11  1  0  0  0
  9 12  1  0  0  0
 10 12  1  0  0  0
 17 16  1  0  0  0
  3  4  1  0  0  0
  5  6  1  0  0  0
  9 13  1  0  0  0
 10 14  1  0  0  0
 10 15  1  0  0  0
M  END
> <minimizedAffinity>
-7.47623

$$$$
3RM4_3RM_A_1


 25 27  0  0  0  0  0  0  0  0999 V2000
    0.3941    1.7721  -15.9033 N   0  0  0  0  0  0  0  0  0  0  0  0
    1.8249   -0.3448  -17.1789 N   0  0  0  0  0  0  0  0  0  0  0  0
    1.8007    1.4323  -15.4388 C   0  0  0  0  0  0  0  0  0  0  0  0
    2.5901    0.7213  -16.5219 C   0  0  0  0  0  0  0  0  0  0  0  0
    0.4622   -0.0099  -17.6023 C   0  0  0  0  0  0  0  0  0  0  0  0
   -0.3365    0.5593  -16.4474 C   0  0  0  0  0  0  0  0  0  0  0  0
    3.4555   -2.0974  -17.3610 N   0  0  0  0  0  0  0  0  0  0  0  0
    4.0846   -2.8218  -18.2950 N   0  0  0  0  0  0  0  0  0  0  0  0
    2.6243   -1.3519  -19.2285 N   0  0  0  0  0  0  0  0  0  0  0  0
    3.8165   -2.7230  -20.7062 N   0  0  0  0  0  0  0  0  0  0  0  0
    2.5850   -1.2010  -17.9155 C   0  0  0  0  0  0  0  0  0  0  0  0
    3.5467   -2.3458  -19.4346 C   0  0  0  0  0  0  0  0  0  0  0  0
    2.1069   -0.8605  -19.9068 H   0  0  0  0  0  0  0  0  0  0  0  0
    4.4748   -3.4342  -20.8795 H   0  0  0  0  0  0  0  0  0  0  0  0
    3.3544   -2.2861  -21.4578 H   0  0  0  0  0  0  0  0  0  0  0  0
   -0.4252    2.3802  -14.7879 C   0  0  0  0  0  0  0  0  0  0  0  0
    0.4415    3.3368  -13.9745 C   0  0  0  0  0  0  0  0  0  0  0  0
   -0.1861    4.6283  -14.0721 O   0  0  0  0  0  0  0  0  0  0  0  0
    1.8494    5.4146  -15.2218 C   0  0  0  0  0  0  0  0  0  0  0  0
    2.9609    9.2301  -16.4236 Br  0  0  0  0  0  0  0  0  0  0  0  0
    2.5565    6.4986  -15.7626 C   0  0  0  0  0  0  0  0  0  0  0  0
    1.9902    7.7719  -15.7007 C   0  0  0  0  0  0  0  0  0  0  0  0
    0.7376    7.9826  -15.1131 C   0  0  0  0  0  0  0  0  0  0  0  0
    0.0344    6.8986  -14.5768 C   0  0  0  0  0  0  0  0  0  0  0  0
    0.5883    5.6117  -14.6348 C   0  0  0  0  0  0  0  0  0  0  0  0
 19 21  2  0  0  0
 19 25  1  0  0  0
  1 16  1  0  0  0
  1  3  1  0  0  0
  1  6  1  0  0  0
 18 25  1  0  0  0
 18 17  1  0  0  0
 20 22  1  0  0  0
 21 22  1  0  0  0
  2  4  1  0  0  0
  2  5  1  0  0  0
  2 11  1  0  0  0
 22 23  2  0  0  0
  7  8  1  0  0  0
  7 11  2  0  0  0
 23 24  1  0  0  0
  8 12  2  0  0  0
 24 25  2  0  0  0
  9 11  1  0  0  0
  9 12  1  0  0  0
 10 12  1  0  0  0
 17 16  1  0  0  0
  3  4  1  0  0  0
  5  6  1  0  0  0
  9 13  1  0  0  0
 10 14  1  0  0  0
 10 15  1  0  0  0
M  END
> <minimizedAffinity>
-7.39362

$$$$
3RM4_3RM_A_1


 25 27  0  0  0  0  0  0  0  0999 V2000
    2.0869    4.6074  -16.8027 N   0  0  0  0  0  0  0  0  0  0  0  0
    2.2956    7.0584  -15.3520 N   0  0  0  0  0  0  0  0  0  0  0  0
    1.6804    4.6485  -15.3388 C   0  0  0  0  0  0  0  0  0  0  0  0
    1.3254    6.0557  -14.8970 C   0  0  0  0  0  0  0  0  0  0  0  0
    2.6952    6.9937  -16.7608 C   0  0  0  0  0  0  0  0  0  0  0  0
    3.1845    5.6053  -17.1191 C   0  0  0  0  0  0  0  0  0  0  0  0
    2.0341    9.4447  -15.3819 N   0  0  0  0  0  0  0  0  0  0  0  0
    1.9597   10.4803  -14.5364 N   0  0  0  0  0  0  0  0  0  0  0  0
    2.1983    8.5142  -13.4219 N   0  0  0  0  0  0  0  0  0  0  0  0
    2.0371   10.4473  -12.1098 N   0  0  0  0  0  0  0  0  0  0  0  0
    2.1915    8.2594  -14.7193 C   0  0  0  0  0  0  0  0  0  0  0  0
    2.0560    9.8756  -13.3365 C   0  0  0  0  0  0  0  0  0  0  0  0
    2.2859    7.8704  -12.6823 H   0  0  0  0  0  0  0  0  0  0  0  0
    1.9360   11.4228  -12.0228 H   0  0  0  0  0  0  0  0  0  0  0  0
    2.1245    9.8878  -11.3045 H   0  0  0  0  0  0  0  0  0  0  0  0
    2.5454    3.2261  -17.2111 C   0  0  0  0  0  0  0  0  0  0  0  0
    2.9302    2.4236  -15.9718 C   0  0  0  0  0  0  0  0  0  0  0  0
    2.6732    1.0440  -16.2914 O   0  0  0  0  0  0  0  0  0  0  0  0
    1.2179    0.3908  -18.1724 C   0  0  0  0  0  0  0  0  0  0  0  0
   -2.9154    0.0683  -18.3948 Br  0  0  0  0  0  0  0  0  0  0  0  0
   -0.0880    0.1682  -18.6336 C   0  0  0  0  0  0  0  0  0  0  0  0
   -1.1553    0.3601  -17.7562 C   0  0  0  0  0  0  0  0  0  0  0  0
   -0.9449    0.7669  -16.4337 C   0  0  0  0  0  0  0  0  0  0  0  0
    0.3591    0.9857  -15.9768 C   0  0  0  0  0  0  0  0  0  0  0  0
    1.4429    0.7933  -16.8454 C   0  0  0  0  0  0  0  0  0  0  0  0
 19 21  2  0  0  0
 19 25  1  0  0  0
  1 16  1  0  0  0
  1  3  1  0  0  0
  1  6  1  0  0  0
 18 25  1  0  0  0
 18 17  1  0  0  0
 20 22  1  0  0  0
 21 22  1  0  0  0
  2  4  1  0  0  0
  2  5  1  0  0  0
  2 11  1  0  0  0
 22 23  2  0  0  0
  7  8  1  0  0  0
  7 11  2  0  0  0
 23 24  1  0  0  0
  8 12  2  0  0  0
 24 25  2  0  0  0
  9 11  1  0  0  0
  9 12  1  0  0  0
 10 12  1  0  0  0
 17 16  1  0  0  0
  3  4  1  0  0  0
  5  6  1  0  0  0
  9 13  1  0  0  0
 10 14  1  0  0  0
 10 15  1  0  0  0
M  END
> <minimizedAffinity>
-7.29032

$$$$
3RM4_3RM_A_1


 25 27  0  0  0  0  0  0  0  0999 V2000
    2.1648    4.0753  -13.6750 N   0  0  0  0  0  0  0  0  0  0  0  0
    2.1213    6.7864  -14.5714 N   0  0  0  0  0  0  0  0  0  0  0  0
    3.0527    4.4952  -14.8348 C   0  0  0  0  0  0  0  0  0  0  0  0
    3.3275    5.9871  -14.8161 C   0  0  0  0  0  0  0  0  0  0  0  0
    1.2628    6.3574  -13.4635 C   0  0  0  0  0  0  0  0  0  0  0  0
    0.8908    4.8954  -13.6048 C   0  0  0  0  0  0  0  0  0  0  0  0
    1.5032    9.0885  -14.2855 N   0  0  0  0  0  0  0  0  0  0  0  0
    1.8332   10.3044  -14.7390 N   0  0  0  0  0  0  0  0  0  0  0  0
    3.1181    8.6876  -15.6875 N   0  0  0  0  0  0  0  0  0  0  0  0
    3.5548   10.8919  -16.3472 N   0  0  0  0  0  0  0  0  0  0  0  0
    2.2628    8.1089  -14.8618 C   0  0  0  0  0  0  0  0  0  0  0  0
    2.8355   10.0265  -15.5950 C   0  0  0  0  0  0  0  0  0  0  0  0
    3.8046    8.2542  -16.2444 H   0  0  0  0  0  0  0  0  0  0  0  0
    3.3705   11.8577  -16.2981 H   0  0  0  0  0  0  0  0  0  0  0  0
    4.2623   10.5555  -16.9434 H   0  0  0  0  0  0  0  0  0  0  0  0
    1.8024    2.6100  -13.7579 C   0  0  0  0  0  0  0  0  0  0  0  0
    2.9693    1.8231  -14.3470 C   0  0  0  0  0  0  0  0  0  0  0  0
    2.3975    0.9152  -15.3063 O   0  0  0  0  0  0  0  0  0  0  0  0
    2.9725   -0.9088  -16.8636 C   0  0  0  0  0  0  0  0  0  0  0  0
    6.5043   -3.0415  -17.3280 Br  0  0  0  0  0  0  0  0  0  0  0  0
    3.9443   -1.8137  -17.3157 C   0  0  0  0  0  0  0  0  0  0  0  0
    5.2041   -1.8058  -16.7168 C   0  0  0  0  0  0  0  0  0  0  0  0
    5.5111   -0.9159  -15.6812 C   0  0  0  0  0  0  0  0  0  0  0  0
    4.5399   -0.0133  -15.2346 C   0  0  0  0  0  0  0  0  0  0  0  0
    3.2700   -0.0061  -15.8291 C   0  0  0  0  0  0  0  0  0  0  0  0
 19 21  2  0  0  0
 19 25  1  0  0  0
  1 16  1  0  0  0
  1  3  1  0  0  0
  1  6  1  0  0  0
 18 25  1  0  0  0
 18 17  1  0  0  0
 20 22  1  0  0  0
 21 22  1  0  0  0
  2  4  1  0  0  0
  2  5  1  0  0  0
  2 11  1  0  0  0
 22 23  2  0  0  0
  7  8  1  0  0  0
  7 11  2  0  0  0
 23 24  1  0  0  0
  8 12  2  0  0  0
 24 25  2  0  0  0
  9 11  1  0  0  0
  9 12  1  0  0  0
 10 12  1  0  0  0
 17 16  1  0  0  0
  3  4  1  0  0  0
  5  6  1  0  0  0
  9 13  1  0  0  0
 10 14  1  0  0  0
 10 15  1  0  0  0
M  END
> <minimizedAffinity>
-7.11928

$$$$
3RM4_3RM_A_1


 25 27  0  0  0  0  0  0  0  0999 V2000
    1.5662    3.2539  -15.6161 N   0  0  0  0  0  0  0  0  0  0  0  0
    1.8121    5.9611  -14.7407 N   0  0  0  0  0  0  0  0  0  0  0  0
    0.5667    3.8116  -14.6162 C   0  0  0  0  0  0  0  0  0  0  0  0
    0.4905    5.3251  -14.6876 C   0  0  0  0  0  0  0  0  0  0  0  0
    2.7734    5.3994  -15.6940 C   0  0  0  0  0  0  0  0  0  0  0  0
    2.9291    3.9067  -15.4862 C   0  0  0  0  0  0  0  0  0  0  0  0
    1.3286    8.2259  -15.3733 N   0  0  0  0  0  0  0  0  0  0  0  0
    1.4222    9.4702  -14.8874 N   0  0  0  0  0  0  0  0  0  0  0  0
    2.1807    7.9359  -13.3922 N   0  0  0  0  0  0  0  0  0  0  0  0
    2.2517   10.1775  -12.7179 N   0  0  0  0  0  0  0  0  0  0  0  0
    1.7958    7.2981  -14.4846 C   0  0  0  0  0  0  0  0  0  0  0  0
    1.9432    9.2593  -13.6632 C   0  0  0  0  0  0  0  0  0  0  0  0
    2.5543    7.5476  -12.5683 H   0  0  0  0  0  0  0  0  0  0  0  0
    2.0904   11.1335  -12.8890 H   0  0  0  0  0  0  0  0  0  0  0  0
    2.6375    9.8894  -11.8591 H   0  0  0  0  0  0  0  0  0  0  0  0
    1.7214    1.7576  -15.4674 C   0  0  0  0  0  0  0  0  0  0  0  0
    1.3475    1.0682  -16.7761 C   0  0  0  0  0  0  0  0  0  0  0  0
    1.4228   -0.3462  -16.5203 O   0  0  0  0  0  0  0  0  0  0  0  0
    3.7297   -1.2172  -16.5664 C   0  0  0  0  0  0  0  0  0  0  0  0
    5.7933   -3.2212  -19.5602 Br  0  0  0  0  0  0  0  0  0  0  0  0
    4.7243   -1.8895  -17.2920 C   0  0  0  0  0  0  0  0  0  0  0  0
    4.4374   -2.3253  -18.5857 C   0  0  0  0  0  0  0  0  0  0  0  0
    3.1828   -2.1048  -19.1655 C   0  0  0  0  0  0  0  0  0  0  0  0
    2.1927   -1.4359  -18.4378 C   0  0  0  0  0  0  0  0  0  0  0  0
    2.4643   -0.9951  -17.1347 C   0  0  0  0  0  0  0  0  0  0  0  0
 19 21  2  0  0  0
 19 25  1  0  0  0
  1 16  1  0  0  0
  1  3  1  0  0  0
  1  6  1  0  0  0
 18 25  1  0  0  0
 18 17  1  0  0  0
 20 22  1  0  0  0
 21 22  1  0  0  0
  2  4  1  0  0  0
  2  5  1  0  0  0
  2 11  1  0  0  0
 22 23  2  0  0  0
  7  8  1  0  0  0
  7 11  2  0  0  0
 23 24  1  0  0  0
  8 12  2  0  0  0
 24 25  2  0  0  0
  9 11  1  0  0  0
  9 12  1  0  0  0
 10 12  1  0  0  0
 17 16  1  0  0  0
  3  4  1  0  0  0
  5  6  1  0  0  0
  9 13  1  0  0  0
 10 14  1  0  0  0
 10 15  1  0  0  0
M  END
> <minimizedAffinity>
-7.08081

$$$$
