3R88_14F_B_404


 17 17  0  0  0  0  0  0  0  0999 V2000
   -5.8771  -28.8925    4.6797 N   0  0  0  0  0  0  0  0  0  0  0  0
   -5.5836  -30.2858    6.5536 C   0  0  0  0  0  0  0  0  0  0  0  0
   -2.8265  -30.1595    6.1551 C   0  0  0  0  0  0  0  0  0  0  0  0
   -5.0577  -29.5386    5.4985 C   0  0  0  0  0  0  0  0  0  0  0  0
   -4.7308  -30.9645    7.4306 C   0  0  0  0  0  0  0  0  0  0  0  0
   -3.3450  -30.8882    7.2178 C   0  0  0  0  0  0  0  0  0  0  0  0
   -3.6716  -29.4736    5.3073 C   0  0  0  0  0  0  0  0  0  0  0  0
   -6.8506  -28.9412    4.8182 H   0  0  0  0  0  0  0  0  0  0  0  0
   -5.5118  -28.3643    3.9335 H   0  0  0  0  0  0  0  0  0  0  0  0
   -3.4964  -27.5372    3.9268 O   0  0  0  0  0  0  0  0  0  0  0  0
   -2.1306  -29.2294    3.5375 O   0  0  0  0  0  0  0  0  0  0  0  0
   -3.0544  -28.6839    4.1697 C   0  0  0  0  0  0  0  0  0  0  0  0
   -4.1952  -27.1854    4.4425 H   0  0  0  0  0  0  0  0  0  0  0  0
   -5.7524  -31.0594    9.6436 C   0  0  0  0  0  0  0  0  0  0  0  0
   -5.1924  -31.7120    8.4860 O   0  0  0  0  0  0  0  0  0  0  0  0
   -1.9243  -32.7328    7.3999 C   0  0  0  0  0  0  0  0  0  0  0  0
   -2.4847  -31.5400    8.0313 O   0  0  0  0  0  0  0  0  0  0  0  0
 14 15  1  0  0  0
 17 16  1  0  0  0
  1  4  1  0  0  0
 12 10  1  0  0  0
 11 12  2  0  0  0
  4  2  2  0  0  0
  2  5  1  0  0  0
  7  3  2  0  0  0
  3  6  1  0  0  0
  5 15  1  0  0  0
  6 17  1  0  0  0
 12  7  1  0  0  0
  4  7  1  0  0  0
  5  6  2  0  0  0
  1  8  1  0  0  0
  1  9  1  0  0  0
 10 13  1  0  0  0
M  END
> <minimizedAffinity>
-6.27205

$$$$
3R88_14F_B_404


 17 17  0  0  0  0  0  0  0  0999 V2000
   -1.4619  -30.1863    6.1208 N   0  0  0  0  0  0  0  0  0  0  0  0
   -3.3643  -30.9179    7.2975 C   0  0  0  0  0  0  0  0  0  0  0  0
   -4.9606  -29.5130    5.4935 C   0  0  0  0  0  0  0  0  0  0  0  0
   -2.7818  -30.2017    6.2506 C   0  0  0  0  0  0  0  0  0  0  0  0
   -4.7555  -30.9507    7.4409 C   0  0  0  0  0  0  0  0  0  0  0  0
   -5.5450  -30.2404    6.5223 C   0  0  0  0  0  0  0  0  0  0  0  0
   -3.5892  -29.5032    5.3438 C   0  0  0  0  0  0  0  0  0  0  0  0
   -0.8986  -30.6788    6.7607 H   0  0  0  0  0  0  0  0  0  0  0  0
   -1.0455  -29.6824    5.3846 H   0  0  0  0  0  0  0  0  0  0  0  0
   -3.4702  -27.5658    3.9587 O   0  0  0  0  0  0  0  0  0  0  0  0
   -2.0754  -29.2307    3.5547 O   0  0  0  0  0  0  0  0  0  0  0  0
   -3.0022  -28.7030    4.1976 C   0  0  0  0  0  0  0  0  0  0  0  0
   -4.1696  -27.2275    4.4826 H   0  0  0  0  0  0  0  0  0  0  0  0
   -5.0570  -31.3613    9.8263 C   0  0  0  0  0  0  0  0  0  0  0  0
   -5.3823  -31.6403    8.4495 O   0  0  0  0  0  0  0  0  0  0  0  0
   -7.5332  -29.5623    5.5019 C   0  0  0  0  0  0  0  0  0  0  0  0
   -6.8922  -30.2321    6.6315 O   0  0  0  0  0  0  0  0  0  0  0  0
 14 15  1  0  0  0
 17 16  1  0  0  0
  1  4  1  0  0  0
 12 10  1  0  0  0
 11 12  2  0  0  0
  4  2  2  0  0  0
  2  5  1  0  0  0
  7  3  2  0  0  0
  3  6  1  0  0  0
  5 15  1  0  0  0
  6 17  1  0  0  0
 12  7  1  0  0  0
  4  7  1  0  0  0
  5  6  2  0  0  0
  1  8  1  0  0  0
  1  9  1  0  0  0
 10 13  1  0  0  0
M  END
> <minimizedAffinity>
-5.93053

$$$$
3R88_14F_B_404


 17 17  0  0  0  0  0  0  0  0999 V2000
   -3.6465  -28.0656    4.0874 N   0  0  0  0  0  0  0  0  0  0  0  0
   -5.3595  -29.2570    5.1760 C   0  0  0  0  0  0  0  0  0  0  0  0
   -3.4273  -30.4857    6.7675 C   0  0  0  0  0  0  0  0  0  0  0  0
   -4.0089  -28.9456    5.0112 C   0  0  0  0  0  0  0  0  0  0  0  0
   -5.7570  -30.1761    6.1529 C   0  0  0  0  0  0  0  0  0  0  0  0
   -4.7719  -30.7836    6.9478 C   0  0  0  0  0  0  0  0  0  0  0  0
   -3.0435  -29.5613    5.8180 C   0  0  0  0  0  0  0  0  0  0  0  0
   -4.3287  -27.6355    3.5227 H   0  0  0  0  0  0  0  0  0  0  0  0
   -2.6953  -27.8425    3.9663 H   0  0  0  0  0  0  0  0  0  0  0  0
   -1.0263  -29.4419    4.5520 O   0  0  0  0  0  0  0  0  0  0  0  0
   -0.9652  -28.8510    6.6798 O   0  0  0  0  0  0  0  0  0  0  0  0
   -1.5645  -29.2633    5.6691 C   0  0  0  0  0  0  0  0  0  0  0  0
   -1.5362  -29.7551    3.8310 H   0  0  0  0  0  0  0  0  0  0  0  0
   -8.1250  -29.6465    5.9042 C   0  0  0  0  0  0  0  0  0  0  0  0
   -7.0707  -30.5180    6.3605 O   0  0  0  0  0  0  0  0  0  0  0  0
   -3.9379  -32.2453    8.5671 C   0  0  0  0  0  0  0  0  0  0  0  0
   -5.1090  -31.6885    7.8935 O   0  0  0  0  0  0  0  0  0  0  0  0
 14 15  1  0  0  0
 17 16  1  0  0  0
  1  4  1  0  0  0
 12 10  1  0  0  0
 11 12  2  0  0  0
  4  2  2  0  0  0
  2  5  1  0  0  0
  7  3  2  0  0  0
  3  6  1  0  0  0
  5 15  1  0  0  0
  6 17  1  0  0  0
 12  7  1  0  0  0
  4  7  1  0  0  0
  5  6  2  0  0  0
  1  8  1  0  0  0
  1  9  1  0  0  0
 10 13  1  0  0  0
M  END
> <minimizedAffinity>
-5.86842

$$$$
3R88_14F_B_404


 17 17  0  0  0  0  0  0  0  0999 V2000
   -4.8561  -28.4831    4.5747 N   0  0  0  0  0  0  0  0  0  0  0  0
   -2.9902  -29.3309    5.7317 C   0  0  0  0  0  0  0  0  0  0  0  0
   -4.7037  -30.9792    7.1889 C   0  0  0  0  0  0  0  0  0  0  0  0
   -4.3654  -29.3035    5.4941 C   0  0  0  0  0  0  0  0  0  0  0  0
   -2.4578  -30.1981    6.6917 C   0  0  0  0  0  0  0  0  0  0  0  0
   -3.3339  -31.0235    7.4146 C   0  0  0  0  0  0  0  0  0  0  0  0
   -5.2203  -30.1384    6.2248 C   0  0  0  0  0  0  0  0  0  0  0  0
   -4.2511  -27.8982    4.0637 H   0  0  0  0  0  0  0  0  0  0  0  0
   -5.8252  -28.4591    4.4032 H   0  0  0  0  0  0  0  0  0  0  0  0
   -7.1704  -29.7077    4.9217 O   0  0  0  0  0  0  0  0  0  0  0  0
   -7.4271  -30.5694    6.9396 O   0  0  0  0  0  0  0  0  0  0  0  0
   -6.7211  -30.1365    6.0097 C   0  0  0  0  0  0  0  0  0  0  0  0
   -6.5823  -29.3955    4.2624 H   0  0  0  0  0  0  0  0  0  0  0  0
   -0.2778  -29.1078    6.7854 C   0  0  0  0  0  0  0  0  0  0  0  0
   -1.1139  -30.2688    6.9651 O   0  0  0  0  0  0  0  0  0  0  0  0
   -3.6434  -33.1003    8.4371 C   0  0  0  0  0  0  0  0  0  0  0  0
   -2.8650  -31.8659    8.3620 O   0  0  0  0  0  0  0  0  0  0  0  0
 14 15  1  0  0  0
 17 16  1  0  0  0
  1  4  1  0  0  0
 12 10  1  0  0  0
 11 12  2  0  0  0
  4  2  2  0  0  0
  2  5  1  0  0  0
  7  3  2  0  0  0
  3  6  1  0  0  0
  5 15  1  0  0  0
  6 17  1  0  0  0
 12  7  1  0  0  0
  4  7  1  0  0  0
  5  6  2  0  0  0
  1  8  1  0  0  0
  1  9  1  0  0  0
 10 13  1  0  0  0
M  END
> <minimizedAffinity>
-5.79045

$$$$
3R88_14F_B_404


 17 17  0  0  0  0  0  0  0  0999 V2000
   -5.9027  -29.1128    4.2597 N   0  0  0  0  0  0  0  0  0  0  0  0
   -7.5843  -29.7472    5.7791 C   0  0  0  0  0  0  0  0  0  0  0  0
   -5.6012  -30.3867    7.6323 C   0  0  0  0  0  0  0  0  0  0  0  0
   -6.2371  -29.5759    5.4568 C   0  0  0  0  0  0  0  0  0  0  0  0
   -7.9519  -30.2256    7.0413 C   0  0  0  0  0  0  0  0  0  0  0  0
   -6.9412  -30.5401    7.9638 C   0  0  0  0  0  0  0  0  0  0  0  0
   -5.2457  -29.8928    6.3941 C   0  0  0  0  0  0  0  0  0  0  0  0
   -6.6032  -28.8914    3.6043 H   0  0  0  0  0  0  0  0  0  0  0  0
   -4.9541  -28.9904    4.0266 H   0  0  0  0  0  0  0  0  0  0  0  0
   -3.0010  -30.6942    6.3221 O   0  0  0  0  0  0  0  0  0  0  0  0
   -3.4053  -28.6429    5.6086 O   0  0  0  0  0  0  0  0  0  0  0  0
   -3.7698  -29.7336    6.0863 C   0  0  0  0  0  0  0  0  0  0  0  0
   -3.3415  -31.4891    6.6829 H   0  0  0  0  0  0  0  0  0  0  0  0
  -10.0542  -29.2887    7.8491 C   0  0  0  0  0  0  0  0  0  0  0  0
   -9.2607  -30.4111    7.4132 O   0  0  0  0  0  0  0  0  0  0  0  0
   -6.0588  -31.3469    9.9699 C   0  0  0  0  0  0  0  0  0  0  0  0
   -7.2499  -31.0193    9.1894 O   0  0  0  0  0  0  0  0  0  0  0  0
 14 15  1  0  0  0
 17 16  1  0  0  0
  1  4  1  0  0  0
 12 10  1  0  0  0
 11 12  2  0  0  0
  4  2  2  0  0  0
  2  5  1  0  0  0
  7  3  2  0  0  0
  3  6  1  0  0  0
  5 15  1  0  0  0
  6 17  1  0  0  0
 12  7  1  0  0  0
  4  7  1  0  0  0
  5  6  2  0  0  0
  1  8  1  0  0  0
  1  9  1  0  0  0
 10 13  1  0  0  0
M  END
> <minimizedAffinity>
-5.63885

$$$$
3R88_14F_B_404


 17 17  0  0  0  0  0  0  0  0999 V2000
   -6.6435  -29.3741    4.7842 N   0  0  0  0  0  0  0  0  0  0  0  0
   -8.6520  -29.4103    6.0103 C   0  0  0  0  0  0  0  0  0  0  0  0
   -7.2848  -30.6131    8.1221 C   0  0  0  0  0  0  0  0  0  0  0  0
   -7.2876  -29.6835    5.9017 C   0  0  0  0  0  0  0  0  0  0  0  0
   -9.3421  -29.7225    7.1865 C   0  0  0  0  0  0  0  0  0  0  0  0
   -8.6383  -30.3250    8.2415 C   0  0  0  0  0  0  0  0  0  0  0  0
   -6.6049  -30.2819    6.9683 C   0  0  0  0  0  0  0  0  0  0  0  0
   -7.1277  -28.9536    4.0373 H   0  0  0  0  0  0  0  0  0  0  0  0
   -5.6812  -29.5650    4.7018 H   0  0  0  0  0  0  0  0  0  0  0  0
   -4.3608  -29.7930    6.3267 O   0  0  0  0  0  0  0  0  0  0  0  0
   -4.7549  -31.6786    7.4083 O   0  0  0  0  0  0  0  0  0  0  0  0
   -5.1260  -30.6073    6.8932 C   0  0  0  0  0  0  0  0  0  0  0  0
   -4.7063  -29.0034    5.9591 H   0  0  0  0  0  0  0  0  0  0  0  0
  -11.1185  -28.3066    8.0750 C   0  0  0  0  0  0  0  0  0  0  0  0
  -10.6828  -29.4741    7.3494 O   0  0  0  0  0  0  0  0  0  0  0  0
   -9.5980  -32.0798    9.4473 C   0  0  0  0  0  0  0  0  0  0  0  0
   -9.2678  -30.6574    9.3904 O   0  0  0  0  0  0  0  0  0  0  0  0
 14 15  1  0  0  0
 17 16  1  0  0  0
  1  4  1  0  0  0
 12 10  1  0  0  0
 11 12  2  0  0  0
  4  2  2  0  0  0
  2  5  1  0  0  0
  7  3  2  0  0  0
  3  6  1  0  0  0
  5 15  1  0  0  0
  6 17  1  0  0  0
 12  7  1  0  0  0
  4  7  1  0  0  0
  5  6  2  0  0  0
  1  8  1  0  0  0
  1  9  1  0  0  0
 10 13  1  0  0  0
M  END
> <minimizedAffinity>
-5.57944

$$$$
3R88_14F_B_404


 17 17  0  0  0  0  0  0  0  0999 V2000
   -2.0730  -29.6663    5.0801 N   0  0  0  0  0  0  0  0  0  0  0  0
   -2.3444  -31.0946    6.9308 C   0  0  0  0  0  0  0  0  0  0  0  0
   -5.0399  -30.3857    7.0212 C   0  0  0  0  0  0  0  0  0  0  0  0
   -2.8672  -30.1921    6.0032 C   0  0  0  0  0  0  0  0  0  0  0  0
   -3.1725  -31.6644    7.9039 C   0  0  0  0  0  0  0  0  0  0  0  0
   -4.5279  -31.2991    7.9338 C   0  0  0  0  0  0  0  0  0  0  0  0
   -4.2233  -29.8448    6.0496 C   0  0  0  0  0  0  0  0  0  0  0  0
   -1.1205  -29.9135    5.0515 H   0  0  0  0  0  0  0  0  0  0  0  0
   -2.4360  -29.0288    4.4236 H   0  0  0  0  0  0  0  0  0  0  0  0
   -4.1528  -27.8744    4.7085 O   0  0  0  0  0  0  0  0  0  0  0  0
   -5.9917  -29.0984    4.6777 O   0  0  0  0  0  0  0  0  0  0  0  0
   -4.8340  -28.8615    5.0705 C   0  0  0  0  0  0  0  0  0  0  0  0
   -3.2859  -27.7552    5.0434 H   0  0  0  0  0  0  0  0  0  0  0  0
   -2.5468  -33.9480    8.4899 C   0  0  0  0  0  0  0  0  0  0  0  0
   -2.7131  -32.5588    8.8391 O   0  0  0  0  0  0  0  0  0  0  0  0
   -5.6629  -30.8536    9.9256 C   0  0  0  0  0  0  0  0  0  0  0  0
   -5.3610  -31.8132    8.8657 O   0  0  0  0  0  0  0  0  0  0  0  0
 14 15  1  0  0  0
 17 16  1  0  0  0
  1  4  1  0  0  0
 12 10  1  0  0  0
 11 12  2  0  0  0
  4  2  2  0  0  0
  2  5  1  0  0  0
  7  3  2  0  0  0
  3  6  1  0  0  0
  5 15  1  0  0  0
  6 17  1  0  0  0
 12  7  1  0  0  0
  4  7  1  0  0  0
  5  6  2  0  0  0
  1  8  1  0  0  0
  1  9  1  0  0  0
 10 13  1  0  0  0
M  END
> <minimizedAffinity>
-5.57811

$$$$
3R88_14F_B_404


 17 17  0  0  0  0  0  0  0  0999 V2000
   -9.0953  -29.2859    5.4095 N   0  0  0  0  0  0  0  0  0  0  0  0
   -6.7621  -29.5897    5.4604 C   0  0  0  0  0  0  0  0  0  0  0  0
   -6.9871  -30.5041    8.0852 C   0  0  0  0  0  0  0  0  0  0  0  0
   -8.0123  -29.6617    6.0768 C   0  0  0  0  0  0  0  0  0  0  0  0
   -5.6125  -29.9917    6.1489 C   0  0  0  0  0  0  0  0  0  0  0  0
   -5.7435  -30.4524    7.4688 C   0  0  0  0  0  0  0  0  0  0  0  0
   -8.1197  -30.1279    7.3932 C   0  0  0  0  0  0  0  0  0  0  0  0
   -9.0147  -28.9589    4.4844 H   0  0  0  0  0  0  0  0  0  0  0  0
   -9.9797  -29.3340    5.8394 H   0  0  0  0  0  0  0  0  0  0  0  0
   -9.6853  -29.4147    9.0445 O   0  0  0  0  0  0  0  0  0  0  0  0
  -10.2523  -31.0848    7.7141 O   0  0  0  0  0  0  0  0  0  0  0  0
   -9.4541  -30.2140    8.1079 C   0  0  0  0  0  0  0  0  0  0  0  0
   -9.0394  -28.7823    9.2909 H   0  0  0  0  0  0  0  0  0  0  0  0
   -3.8284  -28.6937    5.1087 C   0  0  0  0  0  0  0  0  0  0  0  0
   -4.3583  -29.9449    5.5916 O   0  0  0  0  0  0  0  0  0  0  0  0
   -5.0214  -31.4986    9.4279 C   0  0  0  0  0  0  0  0  0  0  0  0
   -4.6581  -30.8369    8.1767 O   0  0  0  0  0  0  0  0  0  0  0  0
 14 15  1  0  0  0
 17 16  1  0  0  0
  1  4  1  0  0  0
 12 10  1  0  0  0
 11 12  2  0  0  0
  4  2  2  0  0  0
  2  5  1  0  0  0
  7  3  2  0  0  0
  3  6  1  0  0  0
  5 15  1  0  0  0
  6 17  1  0  0  0
 12  7  1  0  0  0
  4  7  1  0  0  0
  5  6  2  0  0  0
  1  8  1  0  0  0
  1  9  1  0  0  0
 10 13  1  0  0  0
M  END
> <minimizedAffinity>
-5.45001

$$$$
3R88_14F_B_404


 17 17  0  0  0  0  0  0  0  0999 V2000
  -11.5485  -32.8436    6.5239 N   0  0  0  0  0  0  0  0  0  0  0  0
  -10.8541  -33.7080    8.5998 C   0  0  0  0  0  0  0  0  0  0  0  0
   -9.5230  -31.3090    9.0988 C   0  0  0  0  0  0  0  0  0  0  0  0
  -10.8862  -32.6758    7.6607 C   0  0  0  0  0  0  0  0  0  0  0  0
  -10.1675  -33.5414    9.8073 C   0  0  0  0  0  0  0  0  0  0  0  0
   -9.5050  -32.3263   10.0442 C   0  0  0  0  0  0  0  0  0  0  0  0
  -10.2210  -31.4707    7.9198 C   0  0  0  0  0  0  0  0  0  0  0  0
  -12.0145  -33.6924    6.3463 H   0  0  0  0  0  0  0  0  0  0  0  0
  -11.5741  -32.1192    5.8576 H   0  0  0  0  0  0  0  0  0  0  0  0
  -11.3100  -29.9564    6.4340 O   0  0  0  0  0  0  0  0  0  0  0  0
   -9.1168  -29.8116    6.6570 O   0  0  0  0  0  0  0  0  0  0  0  0
  -10.2187  -30.3255    6.9263 C   0  0  0  0  0  0  0  0  0  0  0  0
  -12.1047  -30.3874    6.6804 H   0  0  0  0  0  0  0  0  0  0  0  0
  -11.2396  -35.3802   10.9985 C   0  0  0  0  0  0  0  0  0  0  0  0
  -10.1048  -34.5211   10.7674 O   0  0  0  0  0  0  0  0  0  0  0  0
   -7.4084  -32.4940   11.0592 C   0  0  0  0  0  0  0  0  0  0  0  0
   -8.8168  -32.1273   11.1904 O   0  0  0  0  0  0  0  0  0  0  0  0
 14 15  1  0  0  0
 17 16  1  0  0  0
  1  4  1  0  0  0
 12 10  1  0  0  0
 11 12  2  0  0  0
  4  2  2  0  0  0
  2  5  1  0  0  0
  7  3  2  0  0  0
  3  6  1  0  0  0
  5 15  1  0  0  0
  6 17  1  0  0  0
 12  7  1  0  0  0
  4  7  1  0  0  0
  5  6  2  0  0  0
  1  8  1  0  0  0
  1  9  1  0  0  0
 10 13  1  0  0  0
M  END
> <minimizedAffinity>
-5.21364

$$$$
3R88_14F_B_404


 17 17  0  0  0  0  0  0  0  0999 V2000
   -6.4371  -30.2103    6.8956 N   0  0  0  0  0  0  0  0  0  0  0  0
   -4.6821  -31.4137    7.9007 C   0  0  0  0  0  0  0  0  0  0  0  0
   -2.8918  -30.1477    6.1779 C   0  0  0  0  0  0  0  0  0  0  0  0
   -5.1413  -30.4845    6.9660 C   0  0  0  0  0  0  0  0  0  0  0  0
   -3.3170  -31.7056    7.9926 C   0  0  0  0  0  0  0  0  0  0  0  0
   -2.4286  -31.0572    7.1198 C   0  0  0  0  0  0  0  0  0  0  0  0
   -4.2365  -29.8470    6.1076 C   0  0  0  0  0  0  0  0  0  0  0  0
   -7.0692  -30.6609    7.5011 H   0  0  0  0  0  0  0  0  0  0  0  0
   -6.7668  -29.5561    6.2379 H   0  0  0  0  0  0  0  0  0  0  0  0
   -5.8088  -28.9951    4.5302 O   0  0  0  0  0  0  0  0  0  0  0  0
   -3.9102  -27.9016    4.8133 O   0  0  0  0  0  0  0  0  0  0  0  0
   -4.6889  -28.8389    5.0696 C   0  0  0  0  0  0  0  0  0  0  0  0
   -6.3465  -29.7242    4.7695 H   0  0  0  0  0  0  0  0  0  0  0  0
   -3.5896  -33.0001   10.0420 C   0  0  0  0  0  0  0  0  0  0  0  0
   -2.8094  -32.6085    8.8942 O   0  0  0  0  0  0  0  0  0  0  0  0
   -0.6333  -31.9883    5.9519 C   0  0  0  0  0  0  0  0  0  0  0  0
   -1.1034  -31.3196    7.1632 O   0  0  0  0  0  0  0  0  0  0  0  0
 14 15  1  0  0  0
 17 16  1  0  0  0
  1  4  1  0  0  0
 12 10  1  0  0  0
 11 12  2  0  0  0
  4  2  2  0  0  0
  2  5  1  0  0  0
  7  3  2  0  0  0
  3  6  1  0  0  0
  5 15  1  0  0  0
  6 17  1  0  0  0
 12  7  1  0  0  0
  4  7  1  0  0  0
  5  6  2  0  0  0
  1  8  1  0  0  0
  1  9  1  0  0  0
 10 13  1  0  0  0
M  END
> <minimizedAffinity>
-5.19798

$$$$
