1M0Q_EPC_A_435


 27 27  0  0  0  0  0  0  0  0999 V2000
   17.2722   52.3291   13.6618 N   0  0  0  0  0  0  0  0  0  0  0  0
   16.0926   52.5537   14.4399 C   0  0  0  0  0  0  0  0  0  0  0  0
   14.9983   53.5082   13.9231 C   0  0  0  0  0  0  0  0  0  0  0  0
   15.9646   51.9345   15.6912 C   0  0  0  0  0  0  0  0  0  0  0  0
   14.8207   52.1723   16.4521 O   0  0  0  0  0  0  0  0  0  0  0  0
   17.0872   51.0388   16.2265 C   0  0  0  0  0  0  0  0  0  0  0  0
   18.2521   50.8584   15.4233 C   0  0  0  0  0  0  0  0  0  0  0  0
   18.2978   51.5486   14.0715 C   0  0  0  0  0  0  0  0  0  0  0  0
   14.1401   52.7215   16.1157 H   0  0  0  0  0  0  0  0  0  0  0  0
   16.2045   51.0095   18.4753 N   0  0  0  0  0  0  0  0  0  0  0  0
   16.9393   50.4288   17.6088 C   0  0  0  0  0  0  0  0  0  0  0  0
   16.1207   50.7185   19.8670 C   0  0  0  0  0  0  0  0  0  0  0  0
   16.7230   49.2834   20.2319 C   0  0  0  0  0  0  0  0  0  0  0  0
   14.5587   50.9191   20.4409 P   0  0  0  0  0  0  0  0  0  0  0  0
   14.5996   51.2467   21.9820 O   0  0  0  0  0  0  0  0  0  0  0  0
   13.9214   52.0298   19.5992 O   0  0  0  0  0  0  0  0  0  0  0  0
   13.6819   49.6131   20.1169 O   0  0  0  0  0  0  0  0  0  0  0  0
   14.4017   52.8603   19.7427 H   0  0  0  0  0  0  0  0  0  0  0  0
   14.0281   48.8585   20.6187 H   0  0  0  0  0  0  0  0  0  0  0  0
   19.4514   50.0260   15.8848 C   0  0  0  0  0  0  0  0  0  0  0  0
   19.3012   48.7539   15.3041 O   0  0  0  0  0  0  0  0  0  0  0  0
   19.8507   47.6278   16.2210 P   0  0  0  0  0  0  0  0  0  0  0  0
   19.3393   47.8775   17.6371 O   0  0  0  0  0  0  0  0  0  0  0  0
   19.5038   46.2468   15.7825 O   0  0  0  0  0  0  0  0  0  0  0  0
   21.3757   47.7002   16.0701 O   0  0  0  0  0  0  0  0  0  0  0  0
   18.5447   46.1180   15.8485 H   0  0  0  0  0  0  0  0  0  0  0  0
   21.6858   48.5791   16.3389 H   0  0  0  0  0  0  0  0  0  0  0  0
 12 10  1  0  0  0
 12 14  1  0  0  0
 12 13  1  0  0  0
 10 11  2  0  0  0
  1  2  2  0  0  0
  1  8  1  0  0  0
  2  3  1  0  0  0
  2  4  1  0  0  0
  4  5  1  0  0  0
  4  6  2  0  0  0
  6 11  1  0  0  0
  6  7  1  0  0  0
  7  8  2  0  0  0
  7 20  1  0  0  0
 20 21  1  0  0  0
 21 22  1  0  0  0
 22 23  2  0  0  0
 22 24  1  0  0  0
 22 25  1  0  0  0
 14 15  2  0  0  0
 14 16  1  0  0  0
 14 17  1  0  0  0
  5  9  1  0  0  0
 24 26  1  0  0  0
 25 27  1  0  0  0
 16 18  1  0  0  0
 17 19  1  0  0  0
M  END
> <minimizedAffinity>
-10.35083

$$$$
1M0Q_EPC_A_435


 27 27  0  0  0  0  0  0  0  0999 V2000
   17.2801   52.1909   13.6098 N   0  0  0  0  0  0  0  0  0  0  0  0
   16.1618   52.5887   14.4089 C   0  0  0  0  0  0  0  0  0  0  0  0
   15.2190   53.7035   13.9150 C   0  0  0  0  0  0  0  0  0  0  0  0
   15.9605   51.9880   15.6596 C   0  0  0  0  0  0  0  0  0  0  0  0
   14.8793   52.3935   16.4409 O   0  0  0  0  0  0  0  0  0  0  0  0
   16.9407   50.9269   16.1717 C   0  0  0  0  0  0  0  0  0  0  0  0
   18.0508   50.5752   15.3480 C   0  0  0  0  0  0  0  0  0  0  0  0
   18.1801   51.2594   13.9986 C   0  0  0  0  0  0  0  0  0  0  0  0
   14.2858   53.0429   16.1186 H   0  0  0  0  0  0  0  0  0  0  0  0
   16.1663   51.0455   18.4573 N   0  0  0  0  0  0  0  0  0  0  0  0
   16.7232   50.3373   17.5537 C   0  0  0  0  0  0  0  0  0  0  0  0
   16.0800   50.7537   19.8486 C   0  0  0  0  0  0  0  0  0  0  0  0
   16.7451   49.3494   20.2243 C   0  0  0  0  0  0  0  0  0  0  0  0
   14.5037   50.8815   20.4038 P   0  0  0  0  0  0  0  0  0  0  0  0
   13.7483   49.5183   20.1694 O   0  0  0  0  0  0  0  0  0  0  0  0
   14.5899   51.2836   21.8801 O   0  0  0  0  0  0  0  0  0  0  0  0
   13.7680   52.1182   19.6905 O   0  0  0  0  0  0  0  0  0  0  0  0
   15.0276   50.5785   22.3822 H   0  0  0  0  0  0  0  0  0  0  0  0
   13.6757   51.9362   18.7422 H   0  0  0  0  0  0  0  0  0  0  0  0
   19.1153   49.5653   15.7853 C   0  0  0  0  0  0  0  0  0  0  0  0
   20.0929   50.2943   16.4857 O   0  0  0  0  0  0  0  0  0  0  0  0
   20.5707   49.5492   17.7615 P   0  0  0  0  0  0  0  0  0  0  0  0
   20.0390   48.1198   17.7028 O   0  0  0  0  0  0  0  0  0  0  0  0
   22.0473   49.5434   17.9597 O   0  0  0  0  0  0  0  0  0  0  0  0
   20.0355   50.3826   18.9331 O   0  0  0  0  0  0  0  0  0  0  0  0
   22.4666   49.0305   17.2511 H   0  0  0  0  0  0  0  0  0  0  0  0
   19.0686   50.4356   18.8771 H   0  0  0  0  0  0  0  0  0  0  0  0
 12 10  1  0  0  0
 12 14  1  0  0  0
 12 13  1  0  0  0
 10 11  2  0  0  0
  1  2  2  0  0  0
  1  8  1  0  0  0
  2  3  1  0  0  0
  2  4  1  0  0  0
  4  5  1  0  0  0
  4  6  2  0  0  0
  6 11  1  0  0  0
  6  7  1  0  0  0
  7  8  2  0  0  0
  7 20  1  0  0  0
 20 21  1  0  0  0
 21 22  1  0  0  0
 22 23  2  0  0  0
 22 24  1  0  0  0
 22 25  1  0  0  0
 14 15  2  0  0  0
 14 16  1  0  0  0
 14 17  1  0  0  0
  5  9  1  0  0  0
 24 26  1  0  0  0
 25 27  1  0  0  0
 16 18  1  0  0  0
 17 19  1  0  0  0
M  END
> <minimizedAffinity>
-9.88591

$$$$
1M0Q_EPC_A_435


 27 27  0  0  0  0  0  0  0  0999 V2000
   14.7112   51.6967   19.1795 N   0  0  0  0  0  0  0  0  0  0  0  0
   15.6704   51.0718   20.0377 C   0  0  0  0  0  0  0  0  0  0  0  0
   15.4495   51.0621   21.5630 C   0  0  0  0  0  0  0  0  0  0  0  0
   16.8294   50.5112   19.4824 C   0  0  0  0  0  0  0  0  0  0  0  0
   17.7686   49.9201   20.3264 O   0  0  0  0  0  0  0  0  0  0  0  0
   17.0727   50.5835   17.9710 C   0  0  0  0  0  0  0  0  0  0  0  0
   16.0970   51.2319   17.1573 C   0  0  0  0  0  0  0  0  0  0  0  0
   14.8609   51.7918   17.8388 C   0  0  0  0  0  0  0  0  0  0  0  0
   17.6103   49.8809   21.2491 H   0  0  0  0  0  0  0  0  0  0  0  0
   18.8123   48.9101   17.8647 N   0  0  0  0  0  0  0  0  0  0  0  0
   18.3641   50.0151   17.4105 C   0  0  0  0  0  0  0  0  0  0  0  0
   20.0961   48.3401   17.6297 C   0  0  0  0  0  0  0  0  0  0  0  0
   21.2358   49.4463   17.4491 C   0  0  0  0  0  0  0  0  0  0  0  0
   20.0578   47.2504   16.3568 P   0  0  0  0  0  0  0  0  0  0  0  0
   18.7356   47.4560   15.5241 O   0  0  0  0  0  0  0  0  0  0  0  0
   21.3336   47.4842   15.5407 O   0  0  0  0  0  0  0  0  0  0  0  0
   20.2029   45.7504   16.9125 O   0  0  0  0  0  0  0  0  0  0  0  0
   21.3196   48.3797   15.1682 H   0  0  0  0  0  0  0  0  0  0  0  0
   19.4240   45.5263   17.4453 H   0  0  0  0  0  0  0  0  0  0  0  0
   16.2660   51.4032   15.6452 C   0  0  0  0  0  0  0  0  0  0  0  0
   15.0063   51.7758   15.1427 O   0  0  0  0  0  0  0  0  0  0  0  0
   15.0296   53.1926   14.5079 P   0  0  0  0  0  0  0  0  0  0  0  0
   13.9294   53.2571   13.4521 O   0  0  0  0  0  0  0  0  0  0  0  0
   14.8779   54.3104   15.4810 O   0  0  0  0  0  0  0  0  0  0  0  0
   16.4525   53.3597   13.9593 O   0  0  0  0  0  0  0  0  0  0  0  0
   13.9934   54.2759   15.8779 H   0  0  0  0  0  0  0  0  0  0  0  0
   16.6329   52.6617   13.3104 H   0  0  0  0  0  0  0  0  0  0  0  0
 12 10  1  0  0  0
 12 14  1  0  0  0
 12 13  1  0  0  0
 10 11  2  0  0  0
  1  2  2  0  0  0
  1  8  1  0  0  0
  2  3  1  0  0  0
  2  4  1  0  0  0
  4  5  1  0  0  0
  4  6  2  0  0  0
  6 11  1  0  0  0
  6  7  1  0  0  0
  7  8  2  0  0  0
  7 20  1  0  0  0
 20 21  1  0  0  0
 21 22  1  0  0  0
 22 23  2  0  0  0
 22 24  1  0  0  0
 22 25  1  0  0  0
 14 15  2  0  0  0
 14 16  1  0  0  0
 14 17  1  0  0  0
  5  9  1  0  0  0
 24 26  1  0  0  0
 25 27  1  0  0  0
 16 18  1  0  0  0
 17 19  1  0  0  0
M  END
> <minimizedAffinity>
-8.78942

$$$$
1M0Q_EPC_A_435


 27 27  0  0  0  0  0  0  0  0999 V2000
   16.2498   51.8105   15.7962 N   0  0  0  0  0  0  0  0  0  0  0  0
   17.4767   51.5178   15.1207 C   0  0  0  0  0  0  0  0  0  0  0  0
   17.6978   52.0084   13.6765 C   0  0  0  0  0  0  0  0  0  0  0  0
   18.4517   50.7453   15.7676 C   0  0  0  0  0  0  0  0  0  0  0  0
   19.6373   50.4484   15.0966 O   0  0  0  0  0  0  0  0  0  0  0  0
   18.1963   50.2060   17.1793 C   0  0  0  0  0  0  0  0  0  0  0  0
   16.9513   50.5087   17.8059 C   0  0  0  0  0  0  0  0  0  0  0  0
   15.9614   51.3704   17.0420 C   0  0  0  0  0  0  0  0  0  0  0  0
   19.7837   50.7831   14.2338 H   0  0  0  0  0  0  0  0  0  0  0  0
   20.4747   49.4670   17.4956 N   0  0  0  0  0  0  0  0  0  0  0  0
   19.2507   49.3272   17.8278 C   0  0  0  0  0  0  0  0  0  0  0  0
   21.5591   48.6027   17.8203 C   0  0  0  0  0  0  0  0  0  0  0  0
   22.9417   49.3876   17.9873 C   0  0  0  0  0  0  0  0  0  0  0  0
   21.6748   47.3317   16.7339 P   0  0  0  0  0  0  0  0  0  0  0  0
   20.7836   47.6338   15.4696 O   0  0  0  0  0  0  0  0  0  0  0  0
   23.1628   47.1697   16.4050 O   0  0  0  0  0  0  0  0  0  0  0  0
   21.2679   45.9546   17.4533 O   0  0  0  0  0  0  0  0  0  0  0  0
   23.4854   47.9709   15.9634 H   0  0  0  0  0  0  0  0  0  0  0  0
   20.3287   45.9810   17.6944 H   0  0  0  0  0  0  0  0  0  0  0  0
   16.5750   49.9785   19.1922 C   0  0  0  0  0  0  0  0  0  0  0  0
   16.1627   51.0916   19.9466 O   0  0  0  0  0  0  0  0  0  0  0  0
   14.7313   50.9075   20.5195 P   0  0  0  0  0  0  0  0  0  0  0  0
   14.2875   49.4751   20.2354 O   0  0  0  0  0  0  0  0  0  0  0  0
   14.6016   51.2099   21.9725 O   0  0  0  0  0  0  0  0  0  0  0  0
   13.8854   51.9869   19.8319 O   0  0  0  0  0  0  0  0  0  0  0  0
   15.1139   50.5644   22.4841 H   0  0  0  0  0  0  0  0  0  0  0  0
   13.9174   51.8594   18.8709 H   0  0  0  0  0  0  0  0  0  0  0  0
 12 10  1  0  0  0
 12 14  1  0  0  0
 12 13  1  0  0  0
 10 11  2  0  0  0
  1  2  2  0  0  0
  1  8  1  0  0  0
  2  3  1  0  0  0
  2  4  1  0  0  0
  4  5  1  0  0  0
  4  6  2  0  0  0
  6 11  1  0  0  0
  6  7  1  0  0  0
  7  8  2  0  0  0
  7 20  1  0  0  0
 20 21  1  0  0  0
 21 22  1  0  0  0
 22 23  2  0  0  0
 22 24  1  0  0  0
 22 25  1  0  0  0
 14 15  2  0  0  0
 14 16  1  0  0  0
 14 17  1  0  0  0
  5  9  1  0  0  0
 24 26  1  0  0  0
 25 27  1  0  0  0
 16 18  1  0  0  0
 17 19  1  0  0  0
M  END
> <minimizedAffinity>
-8.69468

$$$$
1M0Q_EPC_A_435


 27 27  0  0  0  0  0  0  0  0999 V2000
   19.1726   50.2459   14.7471 N   0  0  0  0  0  0  0  0  0  0  0  0
   19.3629   49.3635   15.8573 C   0  0  0  0  0  0  0  0  0  0  0  0
   20.4731   48.2954   15.8117 C   0  0  0  0  0  0  0  0  0  0  0  0
   18.5038   49.4511   16.9618 C   0  0  0  0  0  0  0  0  0  0  0  0
   18.6836   48.5759   18.0322 O   0  0  0  0  0  0  0  0  0  0  0  0
   17.3611   50.4724   16.9705 C   0  0  0  0  0  0  0  0  0  0  0  0
   17.1995   51.3189   15.8340 C   0  0  0  0  0  0  0  0  0  0  0  0
   18.1884   51.1717   14.6911 C   0  0  0  0  0  0  0  0  0  0  0  0
   19.3854   47.9553   18.0171 H   0  0  0  0  0  0  0  0  0  0  0  0
   16.8771   50.7638   19.3196 N   0  0  0  0  0  0  0  0  0  0  0  0
   16.4166   50.5023   18.1587 C   0  0  0  0  0  0  0  0  0  0  0  0
   16.2024   50.6209   20.5657 C   0  0  0  0  0  0  0  0  0  0  0  0
   16.3290   49.1453   21.1674 C   0  0  0  0  0  0  0  0  0  0  0  0
   14.6097   51.1323   20.4611 P   0  0  0  0  0  0  0  0  0  0  0  0
   13.6600   49.8812   20.3308 O   0  0  0  0  0  0  0  0  0  0  0  0
   14.3369   51.9759   21.7110 O   0  0  0  0  0  0  0  0  0  0  0  0
   14.4406   52.1578   19.2366 O   0  0  0  0  0  0  0  0  0  0  0  0
   14.4210   51.4198   22.5012 H   0  0  0  0  0  0  0  0  0  0  0  0
   14.5999   51.6922   18.4007 H   0  0  0  0  0  0  0  0  0  0  0  0
   16.0619   52.3373   15.7190 C   0  0  0  0  0  0  0  0  0  0  0  0
   15.3998   52.0608   14.5094 O   0  0  0  0  0  0  0  0  0  0  0  0
   14.5486   53.2654   14.0241 P   0  0  0  0  0  0  0  0  0  0  0  0
   13.7320   52.8131   12.8167 O   0  0  0  0  0  0  0  0  0  0  0  0
   13.6548   53.8511   15.0623 O   0  0  0  0  0  0  0  0  0  0  0  0
   15.5639   54.3770   13.7289 O   0  0  0  0  0  0  0  0  0  0  0  0
   12.9758   53.2032   15.3072 H   0  0  0  0  0  0  0  0  0  0  0  0
   16.1902   54.0720   13.0540 H   0  0  0  0  0  0  0  0  0  0  0  0
 12 10  1  0  0  0
 12 14  1  0  0  0
 12 13  1  0  0  0
 10 11  2  0  0  0
  1  2  2  0  0  0
  1  8  1  0  0  0
  2  3  1  0  0  0
  2  4  1  0  0  0
  4  5  1  0  0  0
  4  6  2  0  0  0
  6 11  1  0  0  0
  6  7  1  0  0  0
  7  8  2  0  0  0
  7 20  1  0  0  0
 20 21  1  0  0  0
 21 22  1  0  0  0
 22 23  2  0  0  0
 22 24  1  0  0  0
 22 25  1  0  0  0
 14 15  2  0  0  0
 14 16  1  0  0  0
 14 17  1  0  0  0
  5  9  1  0  0  0
 24 26  1  0  0  0
 25 27  1  0  0  0
 16 18  1  0  0  0
 17 19  1  0  0  0
M  END
> <minimizedAffinity>
-8.64678

$$$$
1M0Q_EPC_A_435


 27 27  0  0  0  0  0  0  0  0999 V2000
   15.1927   52.0047   18.7603 N   0  0  0  0  0  0  0  0  0  0  0  0
   15.9899   50.9142   19.2320 C   0  0  0  0  0  0  0  0  0  0  0  0
   16.0058   50.5634   20.7327 C   0  0  0  0  0  0  0  0  0  0  0  0
   16.7868   50.2010   18.3254 C   0  0  0  0  0  0  0  0  0  0  0  0
   17.5751   49.1512   18.7950 O   0  0  0  0  0  0  0  0  0  0  0  0
   16.8154   50.5986   16.8456 C   0  0  0  0  0  0  0  0  0  0  0  0
   16.0177   51.7037   16.4248 C   0  0  0  0  0  0  0  0  0  0  0  0
   15.1676   52.4057   17.4690 C   0  0  0  0  0  0  0  0  0  0  0  0
   17.5504   48.9160   19.7017 H   0  0  0  0  0  0  0  0  0  0  0  0
   17.9070   48.5872   16.0709 N   0  0  0  0  0  0  0  0  0  0  0  0
   17.7315   49.8398   15.9024 C   0  0  0  0  0  0  0  0  0  0  0  0
   18.8819   47.7619   15.4409 C   0  0  0  0  0  0  0  0  0  0  0  0
   18.2515   46.4303   14.8207 C   0  0  0  0  0  0  0  0  0  0  0  0
   20.1670   47.4406   16.4678 P   0  0  0  0  0  0  0  0  0  0  0  0
   20.0010   46.0014   17.0884 O   0  0  0  0  0  0  0  0  0  0  0  0
   21.4440   47.6010   15.6359 O   0  0  0  0  0  0  0  0  0  0  0  0
   20.2713   48.5826   17.5923 O   0  0  0  0  0  0  0  0  0  0  0  0
   21.4540   46.9381   14.9278 H   0  0  0  0  0  0  0  0  0  0  0  0
   19.4895   48.5445   18.1652 H   0  0  0  0  0  0  0  0  0  0  0  0
   16.0117   52.2145   14.9814 C   0  0  0  0  0  0  0  0  0  0  0  0
   14.6880   52.0951   14.5215 O   0  0  0  0  0  0  0  0  0  0  0  0
   14.2324   53.3505   13.7294 P   0  0  0  0  0  0  0  0  0  0  0  0
   15.4170   54.3083   13.6367 O   0  0  0  0  0  0  0  0  0  0  0  0
   13.6922   53.0639   12.3709 O   0  0  0  0  0  0  0  0  0  0  0  0
   13.0282   53.8967   14.5074 O   0  0  0  0  0  0  0  0  0  0  0  0
   14.3998   52.7105   11.8094 H   0  0  0  0  0  0  0  0  0  0  0  0
   13.2990   54.1106   15.4139 H   0  0  0  0  0  0  0  0  0  0  0  0
 12 10  1  0  0  0
 12 14  1  0  0  0
 12 13  1  0  0  0
 10 11  2  0  0  0
  1  2  2  0  0  0
  1  8  1  0  0  0
  2  3  1  0  0  0
  2  4  1  0  0  0
  4  5  1  0  0  0
  4  6  2  0  0  0
  6 11  1  0  0  0
  6  7  1  0  0  0
  7  8  2  0  0  0
  7 20  1  0  0  0
 20 21  1  0  0  0
 21 22  1  0  0  0
 22 23  2  0  0  0
 22 24  1  0  0  0
 22 25  1  0  0  0
 14 15  2  0  0  0
 14 16  1  0  0  0
 14 17  1  0  0  0
  5  9  1  0  0  0
 24 26  1  0  0  0
 25 27  1  0  0  0
 16 18  1  0  0  0
 17 19  1  0  0  0
M  END
> <minimizedAffinity>
-8.34220

$$$$
1M0Q_EPC_A_435


 27 27  0  0  0  0  0  0  0  0999 V2000
   14.5842   51.6147   19.3162 N   0  0  0  0  0  0  0  0  0  0  0  0
   15.5803   51.1696   20.2420 C   0  0  0  0  0  0  0  0  0  0  0  0
   15.3303   51.2855   21.7584 C   0  0  0  0  0  0  0  0  0  0  0  0
   16.7978   50.6715   19.7569 C   0  0  0  0  0  0  0  0  0  0  0  0
   17.7711   50.2566   20.6650 O   0  0  0  0  0  0  0  0  0  0  0  0
   17.0639   50.6211   18.2484 C   0  0  0  0  0  0  0  0  0  0  0  0
   16.0484   51.0922   17.3646 C   0  0  0  0  0  0  0  0  0  0  0  0
   14.7516   51.5943   17.9744 C   0  0  0  0  0  0  0  0  0  0  0  0
   17.5985   50.2914   21.5853 H   0  0  0  0  0  0  0  0  0  0  0  0
   18.7264   48.8999   17.9149 N   0  0  0  0  0  0  0  0  0  0  0  0
   18.4141   50.1274   17.7606 C   0  0  0  0  0  0  0  0  0  0  0  0
   20.0084   48.3078   17.7297 C   0  0  0  0  0  0  0  0  0  0  0  0
   21.1802   49.3922   17.6491 C   0  0  0  0  0  0  0  0  0  0  0  0
   20.0159   47.2625   16.4196 P   0  0  0  0  0  0  0  0  0  0  0  0
   19.8965   45.7756   16.9286 O   0  0  0  0  0  0  0  0  0  0  0  0
   18.8581   47.6895   15.5110 O   0  0  0  0  0  0  0  0  0  0  0  0
   21.3340   47.5009   15.5334 O   0  0  0  0  0  0  0  0  0  0  0  0
   18.0179   47.5731   15.9816 H   0  0  0  0  0  0  0  0  0  0  0  0
   22.1182   47.2502   16.0464 H   0  0  0  0  0  0  0  0  0  0  0  0
   16.2312   51.1327   15.8449 C   0  0  0  0  0  0  0  0  0  0  0  0
   17.4765   51.7424   15.6091 O   0  0  0  0  0  0  0  0  0  0  0  0
   18.2275   51.0883   14.4178 P   0  0  0  0  0  0  0  0  0  0  0  0
   18.1228   52.0267   13.2187 O   0  0  0  0  0  0  0  0  0  0  0  0
   19.6540   50.7567   14.6912 O   0  0  0  0  0  0  0  0  0  0  0  0
   17.5532   49.7242   14.2227 O   0  0  0  0  0  0  0  0  0  0  0  0
   20.1558   51.5755   14.8279 H   0  0  0  0  0  0  0  0  0  0  0  0
   16.6098   49.8534   14.0379 H   0  0  0  0  0  0  0  0  0  0  0  0
 12 10  1  0  0  0
 12 14  1  0  0  0
 12 13  1  0  0  0
 10 11  2  0  0  0
  1  2  2  0  0  0
  1  8  1  0  0  0
  2  3  1  0  0  0
  2  4  1  0  0  0
  4  5  1  0  0  0
  4  6  2  0  0  0
  6 11  1  0  0  0
  6  7  1  0  0  0
  7  8  2  0  0  0
  7 20  1  0  0  0
 20 21  1  0  0  0
 21 22  1  0  0  0
 22 23  2  0  0  0
 22 24  1  0  0  0
 22 25  1  0  0  0
 14 15  2  0  0  0
 14 16  1  0  0  0
 14 17  1  0  0  0
  5  9  1  0  0  0
 24 26  1  0  0  0
 25 27  1  0  0  0
 16 18  1  0  0  0
 17 19  1  0  0  0
M  END
> <minimizedAffinity>
-8.20541

$$$$
1M0Q_EPC_A_435


 27 27  0  0  0  0  0  0  0  0999 V2000
   16.1959   49.8655   20.8680 N   0  0  0  0  0  0  0  0  0  0  0  0
   15.3845   50.9432   20.3911 C   0  0  0  0  0  0  0  0  0  0  0  0
   14.2734   51.5263   21.2859 C   0  0  0  0  0  0  0  0  0  0  0  0
   15.5807   51.4298   19.0909 C   0  0  0  0  0  0  0  0  0  0  0  0
   14.7742   52.4679   18.6261 O   0  0  0  0  0  0  0  0  0  0  0  0
   16.6439   50.8001   18.1843 C   0  0  0  0  0  0  0  0  0  0  0  0
   17.4166   49.7163   18.6970 C   0  0  0  0  0  0  0  0  0  0  0  0
   17.1534   49.2673   20.1235 C   0  0  0  0  0  0  0  0  0  0  0  0
   14.1270   52.8461   19.1884 H   0  0  0  0  0  0  0  0  0  0  0  0
   15.7536   51.6819   16.1186 N   0  0  0  0  0  0  0  0  0  0  0  0
   16.7915   51.3153   16.7639 C   0  0  0  0  0  0  0  0  0  0  0  0
   15.6638   51.9764   14.7281 C   0  0  0  0  0  0  0  0  0  0  0  0
   17.0979   52.1138   14.0352 C   0  0  0  0  0  0  0  0  0  0  0  0
   14.6896   53.3110   14.4471 P   0  0  0  0  0  0  0  0  0  0  0  0
   14.0965   53.8296   15.8122 O   0  0  0  0  0  0  0  0  0  0  0  0
   15.5612   54.3471   13.7295 O   0  0  0  0  0  0  0  0  0  0  0  0
   13.5436   52.9414   13.3843 O   0  0  0  0  0  0  0  0  0  0  0  0
   16.2841   54.6225   14.3147 H   0  0  0  0  0  0  0  0  0  0  0  0
   12.9450   52.2828   13.7701 H   0  0  0  0  0  0  0  0  0  0  0  0
   18.4683   48.9841   17.8590 C   0  0  0  0  0  0  0  0  0  0  0  0
   19.7208   49.4602   18.2861 O   0  0  0  0  0  0  0  0  0  0  0  0
   20.8519   49.0993   17.2854 P   0  0  0  0  0  0  0  0  0  0  0  0
   22.1721   49.6064   17.8592 O   0  0  0  0  0  0  0  0  0  0  0  0
   20.9529   47.6487   16.9610 O   0  0  0  0  0  0  0  0  0  0  0  0
   20.4366   49.7544   15.9619 O   0  0  0  0  0  0  0  0  0  0  0  0
   21.2146   47.1572   17.7553 H   0  0  0  0  0  0  0  0  0  0  0  0
   20.3480   50.7119   16.0889 H   0  0  0  0  0  0  0  0  0  0  0  0
 12 10  1  0  0  0
 12 14  1  0  0  0
 12 13  1  0  0  0
 10 11  2  0  0  0
  1  2  2  0  0  0
  1  8  1  0  0  0
  2  3  1  0  0  0
  2  4  1  0  0  0
  4  5  1  0  0  0
  4  6  2  0  0  0
  6 11  1  0  0  0
  6  7  1  0  0  0
  7  8  2  0  0  0
  7 20  1  0  0  0
 20 21  1  0  0  0
 21 22  1  0  0  0
 22 23  2  0  0  0
 22 24  1  0  0  0
 22 25  1  0  0  0
 14 15  2  0  0  0
 14 16  1  0  0  0
 14 17  1  0  0  0
  5  9  1  0  0  0
 24 26  1  0  0  0
 25 27  1  0  0  0
 16 18  1  0  0  0
 17 19  1  0  0  0
M  END
> <minimizedAffinity>
-8.17274

$$$$
