5UFP_86D_A_401


 29 31  0  0  0  0  0  0  0  0999 V2000
   23.8882   -0.3735  -10.8858 C   0  0  0  0  0  0  0  0  0  0  0  0
   25.0230    0.1657  -11.4342 C   0  0  0  0  0  0  0  0  0  0  0  0
   25.1909    0.6660  -12.8836 C   0  0  0  0  0  0  0  0  0  0  0  0
   26.7406    0.6891  -12.9619 C   0  0  0  0  0  0  0  0  0  0  0  0
   27.0704    1.6779  -13.7797 F   0  0  0  0  0  0  0  0  0  0  0  0
   27.2688   -0.4363  -13.4324 F   0  0  0  0  0  0  0  0  0  0  0  0
   26.1627    0.1592  -10.6815 C   0  0  0  0  0  0  0  0  0  0  0  0
   27.2683    0.7633  -11.5284 C   0  0  0  0  0  0  0  0  0  0  0  0
   27.3909    2.1543  -11.1438 O   0  0  0  0  0  0  0  0  0  0  0  0
   26.1639   -0.3437   -9.3464 C   0  0  0  0  0  0  0  0  0  0  0  0
   24.9760   -0.8217   -8.7672 C   0  0  0  0  0  0  0  0  0  0  0  0
   23.7942   -0.8132   -9.5716 C   0  0  0  0  0  0  0  0  0  0  0  0
   26.5323    2.5944  -11.2442 H   0  0  0  0  0  0  0  0  0  0  0  0
   27.5239   -0.3608   -8.3831 S   0  0  0  0  0  0  0  0  0  0  0  0
   27.0277   -0.1069   -7.1056 O   0  0  0  0  0  0  0  0  0  0  0  0
   28.4200    0.7298   -8.7452 O   0  0  0  0  0  0  0  0  0  0  0  0
   28.2461   -1.8295   -8.5430 C   0  0  0  0  0  0  0  0  0  0  0  0
   27.7391   -2.2555   -9.7144 F   0  0  0  0  0  0  0  0  0  0  0  0
   27.7035   -2.6718   -7.6582 F   0  0  0  0  0  0  0  0  0  0  0  0
   22.8311   -0.4150  -11.7250 O   0  0  0  0  0  0  0  0  0  0  0  0
   19.5998    0.1704  -10.1533 C   0  0  0  0  0  0  0  0  0  0  0  0
   20.9178    0.3735  -10.6228 C   0  0  0  0  0  0  0  0  0  0  0  0
   21.5765   -0.6826  -11.2213 C   0  0  0  0  0  0  0  0  0  0  0  0
   20.9523   -1.9216  -11.3501 C   0  0  0  0  0  0  0  0  0  0  0  0
   19.6522   -2.1263  -10.8923 C   0  0  0  0  0  0  0  0  0  0  0  0
   19.0441   -3.3429  -11.0173 F   0  0  0  0  0  0  0  0  0  0  0  0
   18.9672   -1.0722  -10.2649 C   0  0  0  0  0  0  0  0  0  0  0  0
   18.4214    2.0388   -9.0209 N   0  0  0  0  0  0  0  0  0  0  0  0
   18.9725    1.1523   -9.5634 C   0  0  0  0  0  0  0  0  0  0  0  0
 28 29  3  0  0  0
 29 21  1  0  0  0
 21 22  2  0  0  0
 21 27  1  0  0  0
 22 23  1  0  0  0
 23 24  2  0  0  0
 23 20  1  0  0  0
 24 25  1  0  0  0
 25 26  1  0  0  0
 25 27  2  0  0  0
 20  1  1  0  0  0
  1  2  2  0  0  0
  1 12  1  0  0  0
  2  3  1  0  0  0
  2  7  1  0  0  0
  3  4  1  0  0  0
  4  5  1  0  0  0
  4  6  1  0  0  0
  4  8  1  0  0  0
  7  8  1  0  0  0
  7 10  2  0  0  0
  8  9  1  0  0  0
 10 11  1  0  0  0
 10 14  1  0  0  0
 11 12  2  0  0  0
 14 15  2  0  0  0
 14 16  2  0  0  0
 14 17  1  0  0  0
 17 18  1  0  0  0
 17 19  1  0  0  0
  9 13  1  0  0  0
M  END
> <minimizedAffinity>
-11.62817

$$$$
5UFP_86D_A_401


 29 31  0  0  0  0  0  0  0  0999 V2000
   23.9000   -0.0404  -10.7480 C   0  0  0  0  0  0  0  0  0  0  0  0
   25.1092    0.2207  -11.3386 C   0  0  0  0  0  0  0  0  0  0  0  0
   25.3328    0.7887  -12.7551 C   0  0  0  0  0  0  0  0  0  0  0  0
   26.8227    0.3996  -12.9479 C   0  0  0  0  0  0  0  0  0  0  0  0
   27.3690    1.3337  -13.7123 F   0  0  0  0  0  0  0  0  0  0  0  0
   26.9952   -0.7783  -13.5394 F   0  0  0  0  0  0  0  0  0  0  0  0
   26.2407   -0.1628  -10.6764 C   0  0  0  0  0  0  0  0  0  0  0  0
   27.4242    0.1959  -11.5568 C   0  0  0  0  0  0  0  0  0  0  0  0
   27.9450    1.4605  -11.0798 O   0  0  0  0  0  0  0  0  0  0  0  0
   26.1728   -0.7683   -9.3864 C   0  0  0  0  0  0  0  0  0  0  0  0
   24.9309   -0.9591   -8.7566 C   0  0  0  0  0  0  0  0  0  0  0  0
   23.7570   -0.5577   -9.4668 C   0  0  0  0  0  0  0  0  0  0  0  0
   27.2369    2.1234  -11.0822 H   0  0  0  0  0  0  0  0  0  0  0  0
   27.5236   -1.2408   -8.5322 S   0  0  0  0  0  0  0  0  0  0  0  0
   28.3349   -1.8343   -9.4978 O   0  0  0  0  0  0  0  0  0  0  0  0
   27.1755   -2.2570   -7.5474 O   0  0  0  0  0  0  0  0  0  0  0  0
   28.1801    0.0947   -7.8326 C   0  0  0  0  0  0  0  0  0  0  0  0
   27.2515    1.0293   -8.1068 F   0  0  0  0  0  0  0  0  0  0  0  0
   29.2271    0.4899   -8.5634 F   0  0  0  0  0  0  0  0  0  0  0  0
   22.8301    0.2828  -11.5059 O   0  0  0  0  0  0  0  0  0  0  0  0
   19.8376   -1.7623  -11.1636 C   0  0  0  0  0  0  0  0  0  0  0  0
   21.0949   -1.2907  -11.6063 C   0  0  0  0  0  0  0  0  0  0  0  0
   21.5704   -0.0982  -11.0970 C   0  0  0  0  0  0  0  0  0  0  0  0
   20.8189    0.6235  -10.1719 C   0  0  0  0  0  0  0  0  0  0  0  0
   19.5810    0.1617   -9.7295 C   0  0  0  0  0  0  0  0  0  0  0  0
   18.8453    0.8730   -8.8249 F   0  0  0  0  0  0  0  0  0  0  0  0
   19.0679   -1.0404  -10.2453 C   0  0  0  0  0  0  0  0  0  0  0  0
   18.9319   -3.8704  -12.1108 N   0  0  0  0  0  0  0  0  0  0  0  0
   19.3633   -2.8759  -11.6539 C   0  0  0  0  0  0  0  0  0  0  0  0
 28 29  3  0  0  0
 29 21  1  0  0  0
 21 22  2  0  0  0
 21 27  1  0  0  0
 22 23  1  0  0  0
 23 24  2  0  0  0
 23 20  1  0  0  0
 24 25  1  0  0  0
 25 26  1  0  0  0
 25 27  2  0  0  0
 20  1  1  0  0  0
  1  2  2  0  0  0
  1 12  1  0  0  0
  2  3  1  0  0  0
  2  7  1  0  0  0
  3  4  1  0  0  0
  4  5  1  0  0  0
  4  6  1  0  0  0
  4  8  1  0  0  0
  7  8  1  0  0  0
  7 10  2  0  0  0
  8  9  1  0  0  0
 10 11  1  0  0  0
 10 14  1  0  0  0
 11 12  2  0  0  0
 14 15  2  0  0  0
 14 16  2  0  0  0
 14 17  1  0  0  0
 17 18  1  0  0  0
 17 19  1  0  0  0
  9 13  1  0  0  0
M  END
> <minimizedAffinity>
-10.75386

$$$$
