4AGL_P84_A_400


 14 14  0  0  0  0  0  0  0  0999 V2000
   91.0287   95.2115  -45.1778 C   0  0  0  0  0  0  0  0  0  0  0  0
   91.5978   94.8857  -43.9410 C   0  0  0  0  0  0  0  0  0  0  0  0
   92.1106   93.6119  -43.7091 C   0  0  0  0  0  0  0  0  0  0  0  0
   92.0610   92.6244  -44.7037 C   0  0  0  0  0  0  0  0  0  0  0  0
   90.9833   94.2156  -46.1762 C   0  0  0  0  0  0  0  0  0  0  0  0
   91.4942   92.9313  -45.9423 C   0  0  0  0  0  0  0  0  0  0  0  0
   92.9245   93.1935  -41.8119 I   0  0  0  0  0  0  0  0  0  0  0  0
   91.6703   95.8559  -42.9796 O   0  0  0  0  0  0  0  0  0  0  0  0
   91.3918   91.4994  -47.4640 I   0  0  0  0  0  0  0  0  0  0  0  0
   91.3216   96.7092  -43.1478 H   0  0  0  0  0  0  0  0  0  0  0  0
   90.4385   96.5878  -45.4471 C   0  0  0  0  0  0  0  0  0  0  0  0
   91.1868   97.6929  -44.8183 N   0  0  0  0  0  0  0  0  0  0  0  0
   92.3529   98.1535  -45.5986 C   0  0  0  0  0  0  0  0  0  0  0  0
   90.3077   98.8133  -44.4477 C   0  0  0  0  0  0  0  0  0  0  0  0
  1  2  1  0  0  0
  1 11  1  0  0  0
  1  5  2  0  0  0
  2  3  2  0  0  0
  2  8  1  0  0  0
  3  4  1  0  0  0
  3  7  1  0  0  0
 11 12  1  0  0  0
 12 13  1  0  0  0
 12 14  1  0  0  0
  4  6  2  0  0  0
  5  6  1  0  0  0
  6  9  1  0  0  0
  8 10  1  0  0  0
M  END
> <minimizedAffinity>
-4.47984

$$$$
4AGL_P84_A_400


 14 14  0  0  0  0  0  0  0  0999 V2000
   91.0574   95.1949  -45.1090 C   0  0  0  0  0  0  0  0  0  0  0  0
   90.9651   94.2095  -46.0990 C   0  0  0  0  0  0  0  0  0  0  0  0
   91.4807   92.9342  -45.8813 C   0  0  0  0  0  0  0  0  0  0  0  0
   92.1113   92.6101  -44.6713 C   0  0  0  0  0  0  0  0  0  0  0  0
   91.6904   94.8635  -43.8924 C   0  0  0  0  0  0  0  0  0  0  0  0
   92.2147   93.5818  -43.6741 C   0  0  0  0  0  0  0  0  0  0  0  0
   91.3265   91.5170  -47.4320 I   0  0  0  0  0  0  0  0  0  0  0  0
   90.3269   94.5169  -47.2691 O   0  0  0  0  0  0  0  0  0  0  0  0
   93.1450   93.1569  -41.8491 I   0  0  0  0  0  0  0  0  0  0  0  0
   89.9844   95.3786  -47.4035 H   0  0  0  0  0  0  0  0  0  0  0  0
   90.5252   96.6027  -45.3321 C   0  0  0  0  0  0  0  0  0  0  0  0
   91.1672   97.6261  -44.4851 N   0  0  0  0  0  0  0  0  0  0  0  0
   92.2533   98.3696  -45.1547 C   0  0  0  0  0  0  0  0  0  0  0  0
   90.1829   98.5363  -43.8786 C   0  0  0  0  0  0  0  0  0  0  0  0
  1  2  1  0  0  0
  1 11  1  0  0  0
  1  5  2  0  0  0
  2  3  2  0  0  0
  2  8  1  0  0  0
  3  4  1  0  0  0
  3  7  1  0  0  0
 11 12  1  0  0  0
 12 13  1  0  0  0
 12 14  1  0  0  0
  4  6  2  0  0  0
  5  6  1  0  0  0
  6  9  1  0  0  0
  8 10  1  0  0  0
M  END
> <minimizedAffinity>
-4.30219

$$$$
4AGL_P84_A_400


 14 14  0  0  0  0  0  0  0  0999 V2000
   91.8452   99.3751  -42.7935 C   0  0  0  0  0  0  0  0  0  0  0  0
   92.0949   98.1697  -42.1268 C   0  0  0  0  0  0  0  0  0  0  0  0
   91.6139   96.9652  -42.6340 C   0  0  0  0  0  0  0  0  0  0  0  0
   90.8617   96.9321  -43.8173 C   0  0  0  0  0  0  0  0  0  0  0  0
   91.0902   99.3365  -43.9847 C   0  0  0  0  0  0  0  0  0  0  0  0
   90.6007   98.1254  -44.4935 C   0  0  0  0  0  0  0  0  0  0  0  0
   92.0092   95.1992  -41.5561 I   0  0  0  0  0  0  0  0  0  0  0  0
   92.8507   98.1980  -40.9872 O   0  0  0  0  0  0  0  0  0  0  0  0
   89.4841   98.1385  -46.2625 I   0  0  0  0  0  0  0  0  0  0  0  0
   93.1685   99.0149  -40.6559 H   0  0  0  0  0  0  0  0  0  0  0  0
   92.3375  100.7067  -42.2462 C   0  0  0  0  0  0  0  0  0  0  0  0
   91.7789  101.0538  -40.9255 N   0  0  0  0  0  0  0  0  0  0  0  0
   92.7532  101.6656  -39.9997 C   0  0  0  0  0  0  0  0  0  0  0  0
   90.5578  101.8668  -41.0399 C   0  0  0  0  0  0  0  0  0  0  0  0
  1  2  1  0  0  0
  1 11  1  0  0  0
  1  5  2  0  0  0
  2  3  2  0  0  0
  2  8  1  0  0  0
  3  4  1  0  0  0
  3  7  1  0  0  0
 11 12  1  0  0  0
 12 13  1  0  0  0
 12 14  1  0  0  0
  4  6  2  0  0  0
  5  6  1  0  0  0
  6  9  1  0  0  0
  8 10  1  0  0  0
M  END
> <minimizedAffinity>
-4.26323

$$$$
4AGL_P84_A_400


 14 14  0  0  0  0  0  0  0  0999 V2000
   90.8796   96.0050  -45.4217 C   0  0  0  0  0  0  0  0  0  0  0  0
   89.8337   96.0012  -46.3522 C   0  0  0  0  0  0  0  0  0  0  0  0
   88.8685   97.0050  -46.3393 C   0  0  0  0  0  0  0  0  0  0  0  0
   88.9159   98.0364  -45.3901 C   0  0  0  0  0  0  0  0  0  0  0  0
   90.9246   97.0459  -44.4704 C   0  0  0  0  0  0  0  0  0  0  0  0
   89.9506   98.0540  -44.4527 C   0  0  0  0  0  0  0  0  0  0  0  0
   87.3118   96.9114  -47.7551 I   0  0  0  0  0  0  0  0  0  0  0  0
   89.8015   95.0105  -47.2947 O   0  0  0  0  0  0  0  0  0  0  0  0
   90.0732   99.5665  -43.0127 I   0  0  0  0  0  0  0  0  0  0  0  0
   90.4567   94.3406  -47.2928 H   0  0  0  0  0  0  0  0  0  0  0  0
   91.9314   94.9058  -45.3987 C   0  0  0  0  0  0  0  0  0  0  0  0
   91.4427   93.6216  -44.8612 N   0  0  0  0  0  0  0  0  0  0  0  0
   91.7044   92.4617  -45.7370 C   0  0  0  0  0  0  0  0  0  0  0  0
   91.9182   93.3815  -43.4895 C   0  0  0  0  0  0  0  0  0  0  0  0
  1  2  1  0  0  0
  1 11  1  0  0  0
  1  5  2  0  0  0
  2  3  2  0  0  0
  2  8  1  0  0  0
  3  4  1  0  0  0
  3  7  1  0  0  0
 11 12  1  0  0  0
 12 13  1  0  0  0
 12 14  1  0  0  0
  4  6  2  0  0  0
  5  6  1  0  0  0
  6  9  1  0  0  0
  8 10  1  0  0  0
M  END
> <minimizedAffinity>
-4.19142

$$$$
4AGL_P84_A_400


 14 14  0  0  0  0  0  0  0  0999 V2000
   90.7294   95.9288  -45.4503 C   0  0  0  0  0  0  0  0  0  0  0  0
   90.6990   96.9976  -44.5468 C   0  0  0  0  0  0  0  0  0  0  0  0
   89.6687   97.9337  -44.5892 C   0  0  0  0  0  0  0  0  0  0  0  0
   88.6443   97.8334  -45.5417 C   0  0  0  0  0  0  0  0  0  0  0  0
   89.6953   95.8306  -46.4052 C   0  0  0  0  0  0  0  0  0  0  0  0
   88.6606   96.7752  -46.4524 C   0  0  0  0  0  0  0  0  0  0  0  0
   89.7112   99.5279  -43.2130 I   0  0  0  0  0  0  0  0  0  0  0  0
   91.6832   97.0813  -43.6007 O   0  0  0  0  0  0  0  0  0  0  0  0
   87.1600   96.5739  -47.8961 I   0  0  0  0  0  0  0  0  0  0  0  0
   92.3710   96.4453  -43.5827 H   0  0  0  0  0  0  0  0  0  0  0  0
   91.8575   94.9079  -45.4413 C   0  0  0  0  0  0  0  0  0  0  0  0
   91.4785   93.6027  -44.8670 N   0  0  0  0  0  0  0  0  0  0  0  0
   91.6225   92.4675  -45.8005 C   0  0  0  0  0  0  0  0  0  0  0  0
   92.1622   93.3428  -43.5902 C   0  0  0  0  0  0  0  0  0  0  0  0
  1  2  1  0  0  0
  1 11  1  0  0  0
  1  5  2  0  0  0
  2  3  2  0  0  0
  2  8  1  0  0  0
  3  4  1  0  0  0
  3  7  1  0  0  0
 11 12  1  0  0  0
 12 13  1  0  0  0
 12 14  1  0  0  0
  4  6  2  0  0  0
  5  6  1  0  0  0
  6  9  1  0  0  0
  8 10  1  0  0  0
M  END
> <minimizedAffinity>
-4.10163

$$$$
4AGL_P84_A_400


 14 14  0  0  0  0  0  0  0  0999 V2000
   90.4320   97.5058  -44.4328 C   0  0  0  0  0  0  0  0  0  0  0  0
   91.1018   96.3198  -44.1093 C   0  0  0  0  0  0  0  0  0  0  0  0
   91.0138   95.2057  -44.9401 C   0  0  0  0  0  0  0  0  0  0  0  0
   90.2464   95.2421  -46.1135 C   0  0  0  0  0  0  0  0  0  0  0  0
   89.6633   97.5385  -45.6154 C   0  0  0  0  0  0  0  0  0  0  0  0
   89.5694   96.4159  -46.4499 C   0  0  0  0  0  0  0  0  0  0  0  0
   92.0287   93.4509  -44.3678 I   0  0  0  0  0  0  0  0  0  0  0  0
   91.8716   96.2919  -42.9790 O   0  0  0  0  0  0  0  0  0  0  0  0
   88.4091   96.5296  -48.1869 I   0  0  0  0  0  0  0  0  0  0  0  0
   91.9225   97.0481  -42.4281 H   0  0  0  0  0  0  0  0  0  0  0  0
   90.4913   98.7281  -43.5286 C   0  0  0  0  0  0  0  0  0  0  0  0
   91.8615   99.1947  -43.2428 N   0  0  0  0  0  0  0  0  0  0  0  0
   92.5878   99.6963  -44.4267 C   0  0  0  0  0  0  0  0  0  0  0  0
   91.8939  100.1653  -42.1373 C   0  0  0  0  0  0  0  0  0  0  0  0
  1  2  1  0  0  0
  1 11  1  0  0  0
  1  5  2  0  0  0
  2  3  2  0  0  0
  2  8  1  0  0  0
  3  4  1  0  0  0
  3  7  1  0  0  0
 11 12  1  0  0  0
 12 13  1  0  0  0
 12 14  1  0  0  0
  4  6  2  0  0  0
  5  6  1  0  0  0
  6  9  1  0  0  0
  8 10  1  0  0  0
M  END
> <minimizedAffinity>
-3.90864

$$$$
4AGL_P84_A_400


 14 14  0  0  0  0  0  0  0  0999 V2000
   90.4926   98.6084  -43.0889 C   0  0  0  0  0  0  0  0  0  0  0  0
   91.0459   99.5941  -42.2630 C   0  0  0  0  0  0  0  0  0  0  0  0
   90.3157  100.7317  -41.9285 C   0  0  0  0  0  0  0  0  0  0  0  0
   89.0149  100.9212  -42.4173 C   0  0  0  0  0  0  0  0  0  0  0  0
   89.1828   98.8021  -43.5761 C   0  0  0  0  0  0  0  0  0  0  0  0
   88.4486   99.9494  -43.2446 C   0  0  0  0  0  0  0  0  0  0  0  0
   91.2307  102.1809  -40.7039 I   0  0  0  0  0  0  0  0  0  0  0  0
   92.3044   99.3976  -41.7646 O   0  0  0  0  0  0  0  0  0  0  0  0
   86.5127  100.1773  -44.0042 I   0  0  0  0  0  0  0  0  0  0  0  0
   92.7856   98.6280  -41.9972 H   0  0  0  0  0  0  0  0  0  0  0  0
   91.2791   97.3691  -43.4897 C   0  0  0  0  0  0  0  0  0  0  0  0
   91.5726   97.2881  -44.9334 N   0  0  0  0  0  0  0  0  0  0  0  0
   92.6648   98.1769  -45.3783 C   0  0  0  0  0  0  0  0  0  0  0  0
   91.7905   95.9014  -45.3746 C   0  0  0  0  0  0  0  0  0  0  0  0
  1  2  1  0  0  0
  1 11  1  0  0  0
  1  5  2  0  0  0
  2  3  2  0  0  0
  2  8  1  0  0  0
  3  4  1  0  0  0
  3  7  1  0  0  0
 11 12  1  0  0  0
 12 13  1  0  0  0
 12 14  1  0  0  0
  4  6  2  0  0  0
  5  6  1  0  0  0
  6  9  1  0  0  0
  8 10  1  0  0  0
M  END
> <minimizedAffinity>
-3.83781

$$$$
4AGL_P84_A_400


 14 14  0  0  0  0  0  0  0  0999 V2000
   90.6819   97.4898  -44.3350 C   0  0  0  0  0  0  0  0  0  0  0  0
   89.8330   97.5946  -45.4432 C   0  0  0  0  0  0  0  0  0  0  0  0
   89.6180   96.5012  -46.2785 C   0  0  0  0  0  0  0  0  0  0  0  0
   90.2524   95.2743  -46.0352 C   0  0  0  0  0  0  0  0  0  0  0  0
   91.3159   96.2529  -44.0928 C   0  0  0  0  0  0  0  0  0  0  0  0
   91.1046   95.1530  -44.9359 C   0  0  0  0  0  0  0  0  0  0  0  0
   88.3484   96.7493  -47.9408 I   0  0  0  0  0  0  0  0  0  0  0  0
   89.1935   98.7829  -45.6660 O   0  0  0  0  0  0  0  0  0  0  0  0
   92.0790   93.3484  -44.5229 I   0  0  0  0  0  0  0  0  0  0  0  0
   89.3466   99.5113  -45.0968 H   0  0  0  0  0  0  0  0  0  0  0  0
   90.9534   98.6767  -43.4225 C   0  0  0  0  0  0  0  0  0  0  0  0
   91.4183   99.8833  -44.1329 N   0  0  0  0  0  0  0  0  0  0  0  0
   91.1708  101.1448  -43.4063 C   0  0  0  0  0  0  0  0  0  0  0  0
   92.8238   99.7683  -44.5532 C   0  0  0  0  0  0  0  0  0  0  0  0
  1  2  1  0  0  0
  1 11  1  0  0  0
  1  5  2  0  0  0
  2  3  2  0  0  0
  2  8  1  0  0  0
  3  4  1  0  0  0
  3  7  1  0  0  0
 11 12  1  0  0  0
 12 13  1  0  0  0
 12 14  1  0  0  0
  4  6  2  0  0  0
  5  6  1  0  0  0
  6  9  1  0  0  0
  8 10  1  0  0  0
M  END
> <minimizedAffinity>
-3.81123

$$$$
4AGL_P84_A_400


 14 14  0  0  0  0  0  0  0  0999 V2000
   90.9405   97.7751  -44.4779 C   0  0  0  0  0  0  0  0  0  0  0  0
   91.6695   98.5455  -45.3915 C   0  0  0  0  0  0  0  0  0  0  0  0
   91.3007   99.8604  -45.6645 C   0  0  0  0  0  0  0  0  0  0  0  0
   90.1872  100.4399  -45.0390 C   0  0  0  0  0  0  0  0  0  0  0  0
   89.8227   98.3631  -43.8492 C   0  0  0  0  0  0  0  0  0  0  0  0
   89.4470   99.6848  -44.1271 C   0  0  0  0  0  0  0  0  0  0  0  0
   92.4329  100.9430  -47.0727 I   0  0  0  0  0  0  0  0  0  0  0  0
   92.7709   97.9898  -45.9821 O   0  0  0  0  0  0  0  0  0  0  0  0
   87.7763  100.4952  -43.1635 I   0  0  0  0  0  0  0  0  0  0  0  0
   93.0087   97.1040  -45.7902 H   0  0  0  0  0  0  0  0  0  0  0  0
   91.3076   96.3284  -44.1820 C   0  0  0  0  0  0  0  0  0  0  0  0
   91.4207   95.4820  -45.3852 N   0  0  0  0  0  0  0  0  0  0  0  0
   91.9729   94.1369  -45.1274 C   0  0  0  0  0  0  0  0  0  0  0  0
   90.1543   95.4126  -46.1314 C   0  0  0  0  0  0  0  0  0  0  0  0
  1  2  1  0  0  0
  1 11  1  0  0  0
  1  5  2  0  0  0
  2  3  2  0  0  0
  2  8  1  0  0  0
  3  4  1  0  0  0
  3  7  1  0  0  0
 11 12  1  0  0  0
 12 13  1  0  0  0
 12 14  1  0  0  0
  4  6  2  0  0  0
  5  6  1  0  0  0
  6  9  1  0  0  0
  8 10  1  0  0  0
M  END
> <minimizedAffinity>
-3.76609

$$$$
4AGL_P84_A_400


 14 14  0  0  0  0  0  0  0  0999 V2000
   92.0625   94.0128  -44.6851 C   0  0  0  0  0  0  0  0  0  0  0  0
   91.2378   95.0945  -45.0159 C   0  0  0  0  0  0  0  0  0  0  0  0
   90.4112   95.0404  -46.1354 C   0  0  0  0  0  0  0  0  0  0  0  0
   90.3921   93.9071  -46.9614 C   0  0  0  0  0  0  0  0  0  0  0  0
   92.0381   92.8740  -45.5175 C   0  0  0  0  0  0  0  0  0  0  0  0
   91.2105   92.8203  -46.6478 C   0  0  0  0  0  0  0  0  0  0  0  0
   89.2216   96.7208  -46.5802 I   0  0  0  0  0  0  0  0  0  0  0  0
   91.2363   96.1894  -44.1962 O   0  0  0  0  0  0  0  0  0  0  0  0
   91.2251   91.1033  -47.8428 I   0  0  0  0  0  0  0  0  0  0  0  0
   91.7971   96.2138  -43.4460 H   0  0  0  0  0  0  0  0  0  0  0  0
   92.9934   94.0576  -43.4823 C   0  0  0  0  0  0  0  0  0  0  0  0
   92.4906   93.3175  -42.3091 N   0  0  0  0  0  0  0  0  0  0  0  0
   93.5439   92.6435  -41.5236 C   0  0  0  0  0  0  0  0  0  0  0  0
   91.6318   94.1542  -41.4561 C   0  0  0  0  0  0  0  0  0  0  0  0
  1  2  1  0  0  0
  1 11  1  0  0  0
  1  5  2  0  0  0
  2  3  2  0  0  0
  2  8  1  0  0  0
  3  4  1  0  0  0
  3  7  1  0  0  0
 11 12  1  0  0  0
 12 13  1  0  0  0
 12 14  1  0  0  0
  4  6  2  0  0  0
  5  6  1  0  0  0
  6  9  1  0  0  0
  8 10  1  0  0  0
M  END
> <minimizedAffinity>
-3.60964

$$$$
