4JSS_BEW_A_303


 10 10  0  0  0  0  0  0  0  0999 V2000
   17.4310   -1.2454   11.0077 C   0  0  0  0  0  0  0  0  0  0  0  0
   18.3233   -0.1787   10.7694 C   0  0  0  0  0  0  0  0  0  0  0  0
   18.0372    1.0932   11.2904 C   0  0  0  0  0  0  0  0  0  0  0  0
   16.2470    0.1374   12.6283 N   0  0  0  0  0  0  0  0  0  0  0  0
   15.3267    0.2629   13.6584 O   0  0  0  0  0  0  0  0  0  0  0  0
   16.4170   -1.1031   11.9594 C   0  0  0  0  0  0  0  0  0  0  0  0
   16.9859    1.2431   12.2377 C   0  0  0  0  0  0  0  0  0  0  0  0
   16.5769    2.7822   12.8441 S   0  0  0  0  0  0  0  0  0  0  0  0
   14.8227   -0.4790   13.9294 H   0  0  0  0  0  0  0  0  0  0  0  0
   17.4275    3.7119   12.3323 H   0  0  0  0  0  0  0  0  0  0  0  0
  1  2  2  0  0  0
  1  6  1  0  0  0
  2  3  1  0  0  0
  3  7  2  0  0  0
  4  5  1  0  0  0
  4  6  2  0  0  0
  4  7  1  0  0  0
  7  8  1  0  0  0
  5  9  1  0  0  0
  8 10  1  0  0  0
M  CHG 1   4   1
M  END
> <minimizedAffinity>
-4.59629

$$$$
4JSS_BEW_A_303


 10 10  0  0  0  0  0  0  0  0999 V2000
   17.2367   -0.8809   10.7981 C   0  0  0  0  0  0  0  0  0  0  0  0
   18.5569   -0.3847   10.8379 C   0  0  0  0  0  0  0  0  0  0  0  0
   18.7848    0.9482   11.2155 C   0  0  0  0  0  0  0  0  0  0  0  0
   16.4685    1.1376   11.9275 N   0  0  0  0  0  0  0  0  0  0  0  0
   15.4797    1.8345   12.6061 O   0  0  0  0  0  0  0  0  0  0  0  0
   16.1990   -0.1406   11.3721 C   0  0  0  0  0  0  0  0  0  0  0  0
   17.7210    1.7111   11.7732 C   0  0  0  0  0  0  0  0  0  0  0  0
   17.9509    3.3480   12.1873 S   0  0  0  0  0  0  0  0  0  0  0  0
   14.6300    1.4550   12.7154 H   0  0  0  0  0  0  0  0  0  0  0  0
   19.2452    3.6963   11.9572 H   0  0  0  0  0  0  0  0  0  0  0  0
  1  2  2  0  0  0
  1  6  1  0  0  0
  2  3  1  0  0  0
  3  7  2  0  0  0
  4  5  1  0  0  0
  4  6  2  0  0  0
  4  7  1  0  0  0
  7  8  1  0  0  0
  5  9  1  0  0  0
  8 10  1  0  0  0
M  CHG 1   4   1
M  END
> <minimizedAffinity>
-4.39261

$$$$
4JSS_BEW_A_303


 10 10  0  0  0  0  0  0  0  0999 V2000
   15.0931    2.5377   15.0967 C   0  0  0  0  0  0  0  0  0  0  0  0
   15.5053    3.4323   14.0864 C   0  0  0  0  0  0  0  0  0  0  0  0
   16.2496    2.9518   12.9973 C   0  0  0  0  0  0  0  0  0  0  0  0
   15.7851    0.6695   13.6927 N   0  0  0  0  0  0  0  0  0  0  0  0
   15.7907   -0.6894   13.4149 O   0  0  0  0  0  0  0  0  0  0  0  0
   15.1983    1.1593   14.8889 C   0  0  0  0  0  0  0  0  0  0  0  0
   16.3811    1.5484   12.8019 C   0  0  0  0  0  0  0  0  0  0  0  0
   17.3257    0.9349   11.5232 S   0  0  0  0  0  0  0  0  0  0  0  0
   15.3903   -1.2912   14.0111 H   0  0  0  0  0  0  0  0  0  0  0  0
   17.8084    1.9668   10.7804 H   0  0  0  0  0  0  0  0  0  0  0  0
  1  2  2  0  0  0
  1  6  1  0  0  0
  2  3  1  0  0  0
  3  7  2  0  0  0
  4  5  1  0  0  0
  4  6  2  0  0  0
  4  7  1  0  0  0
  7  8  1  0  0  0
  5  9  1  0  0  0
  8 10  1  0  0  0
M  CHG 1   4   1
M  END
> <minimizedAffinity>
-4.36958

$$$$
4JSS_BEW_A_303


 10 10  0  0  0  0  0  0  0  0999 V2000
   16.6932    2.6971   12.2742 C   0  0  0  0  0  0  0  0  0  0  0  0
   16.4583    3.6095   13.3245 C   0  0  0  0  0  0  0  0  0  0  0  0
   15.7151    3.2013   14.4434 C   0  0  0  0  0  0  0  0  0  0  0  0
   15.8329    0.8980   13.6755 N   0  0  0  0  0  0  0  0  0  0  0  0
   15.6604   -0.4554   13.9247 O   0  0  0  0  0  0  0  0  0  0  0  0
   16.4158    1.3394   12.4588 C   0  0  0  0  0  0  0  0  0  0  0  0
   15.4077    1.8227   14.6166 C   0  0  0  0  0  0  0  0  0  0  0  0
   14.4584    1.3037   15.9332 S   0  0  0  0  0  0  0  0  0  0  0  0
   15.9446   -1.0878   13.2945 H   0  0  0  0  0  0  0  0  0  0  0  0
   14.1580    2.3691   16.7233 H   0  0  0  0  0  0  0  0  0  0  0  0
  1  2  2  0  0  0
  1  6  1  0  0  0
  2  3  1  0  0  0
  3  7  2  0  0  0
  4  5  1  0  0  0
  4  6  2  0  0  0
  4  7  1  0  0  0
  7  8  1  0  0  0
  5  9  1  0  0  0
  8 10  1  0  0  0
M  CHG 1   4   1
M  END
> <minimizedAffinity>
-4.25919

$$$$
4JSS_BEW_A_303


 10 10  0  0  0  0  0  0  0  0999 V2000
   18.1446    3.2616   12.1943 C   0  0  0  0  0  0  0  0  0  0  0  0
   19.2526    2.5236   11.7269 C   0  0  0  0  0  0  0  0  0  0  0  0
   19.0717    1.1987   11.2992 C   0  0  0  0  0  0  0  0  0  0  0  0
   16.6618    1.5056   11.3830 N   0  0  0  0  0  0  0  0  0  0  0  0
   15.3880    1.0574   11.0663 O   0  0  0  0  0  0  0  0  0  0  0  0
   16.8502    2.7736   11.9925 C   0  0  0  0  0  0  0  0  0  0  0  0
   17.7536    0.6925   11.1215 C   0  0  0  0  0  0  0  0  0  0  0  0
   17.5011   -0.9281   10.6594 S   0  0  0  0  0  0  0  0  0  0  0  0
   14.6440    1.6000   11.2394 H   0  0  0  0  0  0  0  0  0  0  0  0
   18.7016   -1.5336   10.4553 H   0  0  0  0  0  0  0  0  0  0  0  0
  1  2  2  0  0  0
  1  6  1  0  0  0
  2  3  1  0  0  0
  3  7  2  0  0  0
  4  5  1  0  0  0
  4  6  2  0  0  0
  4  7  1  0  0  0
  7  8  1  0  0  0
  5  9  1  0  0  0
  8 10  1  0  0  0
M  CHG 1   4   1
M  END
> <minimizedAffinity>
-4.12163

$$$$
4JSS_BEW_A_303


 10 10  0  0  0  0  0  0  0  0999 V2000
   17.5822   -1.4919   11.1337 C   0  0  0  0  0  0  0  0  0  0  0  0
   16.3595   -1.1167   11.7296 C   0  0  0  0  0  0  0  0  0  0  0  0
   16.1922    0.1954   12.2003 C   0  0  0  0  0  0  0  0  0  0  0  0
   18.2551    0.8503   11.0938 N   0  0  0  0  0  0  0  0  0  0  0  0
   19.1082    1.8498   10.6499 O   0  0  0  0  0  0  0  0  0  0  0  0
   18.5138   -0.5104   10.7831 C   0  0  0  0  0  0  0  0  0  0  0  0
   17.1558    1.1883   11.8676 C   0  0  0  0  0  0  0  0  0  0  0  0
   17.0111    2.7752   12.4716 S   0  0  0  0  0  0  0  0  0  0  0  0
   19.8538    1.6309   10.1263 H   0  0  0  0  0  0  0  0  0  0  0  0
   15.8659    2.8812   13.1976 H   0  0  0  0  0  0  0  0  0  0  0  0
  1  2  2  0  0  0
  1  6  1  0  0  0
  2  3  1  0  0  0
  3  7  2  0  0  0
  4  5  1  0  0  0
  4  6  2  0  0  0
  4  7  1  0  0  0
  7  8  1  0  0  0
  5  9  1  0  0  0
  8 10  1  0  0  0
M  CHG 1   4   1
M  END
> <minimizedAffinity>
-4.10432

$$$$
4JSS_BEW_A_303


 10 10  0  0  0  0  0  0  0  0999 V2000
   16.6378    2.9269   12.3197 C   0  0  0  0  0  0  0  0  0  0  0  0
   16.8306    2.4673   10.9997 C   0  0  0  0  0  0  0  0  0  0  0  0
   16.8496    1.0873   10.7426 C   0  0  0  0  0  0  0  0  0  0  0  0
   16.0515    0.6608   12.9986 N   0  0  0  0  0  0  0  0  0  0  0  0
   15.5200   -0.2160   13.9328 O   0  0  0  0  0  0  0  0  0  0  0  0
   16.2150    2.0359   13.3105 C   0  0  0  0  0  0  0  0  0  0  0  0
   16.4467    0.1783   11.7607 C   0  0  0  0  0  0  0  0  0  0  0  0
   16.5140   -1.5041   11.4985 S   0  0  0  0  0  0  0  0  0  0  0  0
   15.2500    0.1009   14.7722 H   0  0  0  0  0  0  0  0  0  0  0  0
   16.9233   -1.7484   10.2248 H   0  0  0  0  0  0  0  0  0  0  0  0
  1  2  2  0  0  0
  1  6  1  0  0  0
  2  3  1  0  0  0
  3  7  2  0  0  0
  4  5  1  0  0  0
  4  6  2  0  0  0
  4  7  1  0  0  0
  7  8  1  0  0  0
  5  9  1  0  0  0
  8 10  1  0  0  0
M  CHG 1   4   1
M  END
> <minimizedAffinity>
-4.09918

$$$$
4JSS_BEW_A_303


 10 10  0  0  0  0  0  0  0  0999 V2000
   16.5711   -0.8983   11.0053 C   0  0  0  0  0  0  0  0  0  0  0  0
   16.2104   -0.9230   12.3692 C   0  0  0  0  0  0  0  0  0  0  0  0
   16.1454    0.2798   13.0903 C   0  0  0  0  0  0  0  0  0  0  0  0
   16.3557    1.5294   11.0159 N   0  0  0  0  0  0  0  0  0  0  0  0
   16.2717    2.7329   10.3317 O   0  0  0  0  0  0  0  0  0  0  0  0
   16.6097    0.3190   10.3191 C   0  0  0  0  0  0  0  0  0  0  0  0
   16.2137    1.5194   12.3947 C   0  0  0  0  0  0  0  0  0  0  0  0
   16.1957    2.9950   13.2469 S   0  0  0  0  0  0  0  0  0  0  0  0
   16.3664    2.7495    9.3996 H   0  0  0  0  0  0  0  0  0  0  0  0
   16.0477    2.7491   14.5762 H   0  0  0  0  0  0  0  0  0  0  0  0
  1  2  2  0  0  0
  1  6  1  0  0  0
  2  3  1  0  0  0
  3  7  2  0  0  0
  4  5  1  0  0  0
  4  6  2  0  0  0
  4  7  1  0  0  0
  7  8  1  0  0  0
  5  9  1  0  0  0
  8 10  1  0  0  0
M  CHG 1   4   1
M  END
> <minimizedAffinity>
-4.06412

$$$$
4JSS_BEW_A_303


 10 10  0  0  0  0  0  0  0  0999 V2000
   17.3494    0.9914   11.2003 C   0  0  0  0  0  0  0  0  0  0  0  0
   17.7645    2.3309   11.3557 C   0  0  0  0  0  0  0  0  0  0  0  0
   17.1047    3.1578   12.2788 C   0  0  0  0  0  0  0  0  0  0  0  0
   15.9487    1.2196   13.1818 N   0  0  0  0  0  0  0  0  0  0  0  0
   15.1736    0.6477   14.1798 O   0  0  0  0  0  0  0  0  0  0  0  0
   16.4722    0.4240   12.1292 C   0  0  0  0  0  0  0  0  0  0  0  0
   16.1898    2.5844   13.2056 C   0  0  0  0  0  0  0  0  0  0  0  0
   15.3305    3.5690   14.2992 S   0  0  0  0  0  0  0  0  0  0  0  0
   15.0053   -0.2740   14.1720 H   0  0  0  0  0  0  0  0  0  0  0  0
   15.7237    4.8624   14.1501 H   0  0  0  0  0  0  0  0  0  0  0  0
  1  2  2  0  0  0
  1  6  1  0  0  0
  2  3  1  0  0  0
  3  7  2  0  0  0
  4  5  1  0  0  0
  4  6  2  0  0  0
  4  7  1  0  0  0
  7  8  1  0  0  0
  5  9  1  0  0  0
  8 10  1  0  0  0
M  CHG 1   4   1
M  END
> <minimizedAffinity>
-3.88861

$$$$
4JSS_BEW_A_303


 10 10  0  0  0  0  0  0  0  0999 V2000
   18.4192    0.7423   11.2327 C   0  0  0  0  0  0  0  0  0  0  0  0
   19.2170    1.8884   11.4350 C   0  0  0  0  0  0  0  0  0  0  0  0
   18.6203    3.0770   11.8847 C   0  0  0  0  0  0  0  0  0  0  0  0
   16.5644    1.8651   12.3459 N   0  0  0  0  0  0  0  0  0  0  0  0
   15.3109    1.8194   12.9379 O   0  0  0  0  0  0  0  0  0  0  0  0
   17.1082    0.7145   11.7171 C   0  0  0  0  0  0  0  0  0  0  0  0
   17.2760    3.0546   12.3508 C   0  0  0  0  0  0  0  0  0  0  0  0
   16.5057    4.4909   12.8484 S   0  0  0  0  0  0  0  0  0  0  0  0
   14.8224    1.0198   12.9395 H   0  0  0  0  0  0  0  0  0  0  0  0
   17.3849    5.5259   12.7742 H   0  0  0  0  0  0  0  0  0  0  0  0
  1  2  2  0  0  0
  1  6  1  0  0  0
  2  3  1  0  0  0
  3  7  2  0  0  0
  4  5  1  0  0  0
  4  6  2  0  0  0
  4  7  1  0  0  0
  7  8  1  0  0  0
  5  9  1  0  0  0
  8 10  1  0  0  0
M  CHG 1   4   1
M  END
> <minimizedAffinity>
-3.85365

$$$$
