5L8C_908_A_1007


 38 41  0  0  0  0  0  0  0  0999 V2000
   27.5656   14.0213   -2.3894 C   0  0  0  0  0  0  0  0  0  0  0  0
   27.7495   14.0795   -1.0085 C   0  0  0  0  0  0  0  0  0  0  0  0
   27.6835   12.9269   -0.2406 C   0  0  0  0  0  0  0  0  0  0  0  0
   27.3030   12.7967   -2.9887 C   0  0  0  0  0  0  0  0  0  0  0  0
   27.2536   11.6240   -2.2468 C   0  0  0  0  0  0  0  0  0  0  0  0
   27.4185   11.6957   -0.8574 C   0  0  0  0  0  0  0  0  0  0  0  0
   27.7052   18.6433   -5.0690 O   0  0  0  0  0  0  0  0  0  0  0  0
   27.6088   17.7239   -4.2871 C   0  0  0  0  0  0  0  0  0  0  0  0
   26.5896   16.8066   -4.4436 N   0  0  0  0  0  0  0  0  0  0  0  0
   26.6688   15.5596   -3.8631 N   0  0  0  0  0  0  0  0  0  0  0  0
   28.7175   17.4735   -3.2734 C   0  0  0  0  0  0  0  0  0  0  0  0
   29.0450   15.9718   -3.3122 C   0  0  0  0  0  0  0  0  0  0  0  0
   29.8087   15.6062   -4.6007 C   0  0  0  0  0  0  0  0  0  0  0  0
   30.8725   16.6044   -4.9591 C   0  0  0  0  0  0  0  0  0  0  0  0
   30.8410   17.8615   -4.5707 C   0  0  0  0  0  0  0  0  0  0  0  0
   30.0125   18.2916   -3.3904 C   0  0  0  0  0  0  0  0  0  0  0  0
   27.7420   15.2081   -3.2395 C   0  0  0  0  0  0  0  0  0  0  0  0
   25.3381   16.8562   -5.2415 C   0  0  0  0  0  0  0  0  0  0  0  0
   24.4140   17.9465   -4.7030 C   0  0  0  0  0  0  0  0  0  0  0  0
   24.6730   15.4799   -5.2850 C   0  0  0  0  0  0  0  0  0  0  0  0
   27.1226   10.3574   -3.0152 C   0  0  0  0  0  0  0  0  0  0  0  0
   28.2515    9.6471   -3.4129 C   0  0  0  0  0  0  0  0  0  0  0  0
   28.1429    8.5385   -4.2299 C   0  0  0  0  0  0  0  0  0  0  0  0
   26.8938    8.1066   -4.6659 C   0  0  0  0  0  0  0  0  0  0  0  0
   25.7627    8.8199   -4.2832 C   0  0  0  0  0  0  0  0  0  0  0  0
   25.8781    9.9209   -3.4637 C   0  0  0  0  0  0  0  0  0  0  0  0
   26.7187    6.8682   -5.4665 C   0  0  0  0  0  0  0  0  0  0  0  0
   25.8147    6.7706   -6.2894 O   0  0  0  0  0  0  0  0  0  0  0  0
   27.6102    5.9037   -5.2449 N   0  0  0  0  0  0  0  0  0  0  0  0
   28.5200    6.1479   -4.9588 H   0  0  0  0  0  0  0  0  0  0  0  0
   27.2772    4.5130   -5.4130 C   0  0  0  0  0  0  0  0  0  0  0  0
   27.8405    4.0493   -6.7241 C   0  0  0  0  0  0  0  0  0  0  0  0
   27.3704    3.0476   -7.2642 O   0  0  0  0  0  0  0  0  0  0  0  0
   28.8789    4.7204   -7.2048 N   0  0  0  0  0  0  0  0  0  0  0  0
   29.2132    5.5157   -6.7305 H   0  0  0  0  0  0  0  0  0  0  0  0
   29.3152    4.4231   -8.0357 H   0  0  0  0  0  0  0  0  0  0  0  0
   27.2452   10.5177   -0.1793 O   0  0  0  0  0  0  0  0  0  0  0  0
   26.4997   10.5503    1.0375 C   0  0  0  0  0  0  0  0  0  0  0  0
 20 18  1  0  0  0
  7  8  2  0  0  0
 18 19  1  0  0  0
 18  9  1  0  0  0
  8  9  1  0  0  0
  8 11  1  0  0  0
  9 10  1  0  0  0
 31 32  1  0  0  0
 31 29  1  0  0  0
 33 32  2  0  0  0
 16 11  1  0  0  0
 16 15  1  0  0  0
 11 12  1  0  0  0
 32 34  1  0  0  0
 28 27  2  0  0  0
 10 17  2  0  0  0
 15 14  2  0  0  0
 29 27  1  0  0  0
 27 24  1  0  0  0
 25 24  2  0  0  0
 25 26  1  0  0  0
 24 23  1  0  0  0
 17 12  1  0  0  0
 17  1  1  0  0  0
 12 13  1  0  0  0
 14 13  1  0  0  0
 26 21  2  0  0  0
 23 22  2  0  0  0
  4  1  2  0  0  0
  4  5  1  0  0  0
  1  2  1  0  0  0
 21 22  1  0  0  0
 21  5  1  0  0  0
  5  6  2  0  0  0
  2  3  2  0  0  0
  6  3  1  0  0  0
  6 37  1  0  0  0
 37 38  1  0  0  0
 29 30  1  0  0  0
 34 35  1  0  0  0
 34 36  1  0  0  0
M  END
> <minimizedAffinity>
-11.14503

$$$$
5L8C_908_A_1007


 38 41  0  0  0  0  0  0  0  0999 V2000
   27.1333   11.0341   -2.7190 C   0  0  0  0  0  0  0  0  0  0  0  0
   26.9548   10.7703   -1.3615 C   0  0  0  0  0  0  0  0  0  0  0  0
   27.3835   11.6787   -0.4057 C   0  0  0  0  0  0  0  0  0  0  0  0
   27.7569   12.2129   -3.1055 C   0  0  0  0  0  0  0  0  0  0  0  0
   28.1757   13.1501   -2.1705 C   0  0  0  0  0  0  0  0  0  0  0  0
   28.0113   12.8662   -0.8085 C   0  0  0  0  0  0  0  0  0  0  0  0
   25.6266    8.1003   -6.9244 O   0  0  0  0  0  0  0  0  0  0  0  0
   26.1685    8.7726   -6.0755 C   0  0  0  0  0  0  0  0  0  0  0  0
   25.8046   10.0954   -5.9257 N   0  0  0  0  0  0  0  0  0  0  0  0
   26.0721   10.7714   -4.7554 N   0  0  0  0  0  0  0  0  0  0  0  0
   27.0874    8.1095   -5.0579 C   0  0  0  0  0  0  0  0  0  0  0  0
   26.6913    8.6369   -3.6691 C   0  0  0  0  0  0  0  0  0  0  0  0
   25.3485    8.0332   -3.2114 C   0  0  0  0  0  0  0  0  0  0  0  0
   25.2311    6.5649   -3.5057 C   0  0  0  0  0  0  0  0  0  0  0  0
   25.9070    5.9658   -4.4631 C   0  0  0  0  0  0  0  0  0  0  0  0
   27.1605    6.5753   -5.0305 C   0  0  0  0  0  0  0  0  0  0  0  0
   26.5882   10.1430   -3.7539 C   0  0  0  0  0  0  0  0  0  0  0  0
   25.0484   11.0125   -6.8159 C   0  0  0  0  0  0  0  0  0  0  0  0
   25.8093   12.3258   -6.9864 C   0  0  0  0  0  0  0  0  0  0  0  0
   23.6240   11.2127   -6.2972 C   0  0  0  0  0  0  0  0  0  0  0  0
   28.6855   14.4404   -2.7064 C   0  0  0  0  0  0  0  0  0  0  0  0
   27.9484   15.6119   -2.5600 C   0  0  0  0  0  0  0  0  0  0  0  0
   28.3553   16.7877   -3.1602 C   0  0  0  0  0  0  0  0  0  0  0  0
   29.5206   16.8220   -3.9204 C   0  0  0  0  0  0  0  0  0  0  0  0
   30.2547   15.6517   -4.0817 C   0  0  0  0  0  0  0  0  0  0  0  0
   29.8461   14.4843   -3.4756 C   0  0  0  0  0  0  0  0  0  0  0  0
   30.0476   18.0807   -4.5060 C   0  0  0  0  0  0  0  0  0  0  0  0
   29.3243   18.8245   -5.1599 O   0  0  0  0  0  0  0  0  0  0  0  0
   31.3285   18.3457   -4.2541 N   0  0  0  0  0  0  0  0  0  0  0  0
   31.7305   18.0180   -3.4173 H   0  0  0  0  0  0  0  0  0  0  0  0
   32.1401   19.0993   -5.1742 C   0  0  0  0  0  0  0  0  0  0  0  0
   32.3827   20.4574   -4.5845 C   0  0  0  0  0  0  0  0  0  0  0  0
   33.5309   20.7947   -4.2944 O   0  0  0  0  0  0  0  0  0  0  0  0
   31.3164   21.2085   -4.3426 N   0  0  0  0  0  0  0  0  0  0  0  0
   30.4208   20.8881   -4.5964 H   0  0  0  0  0  0  0  0  0  0  0  0
   31.4207   22.0863   -3.9092 H   0  0  0  0  0  0  0  0  0  0  0  0
   28.5488   13.7831    0.0562 O   0  0  0  0  0  0  0  0  0  0  0  0
   29.2578   13.2931    1.1942 C   0  0  0  0  0  0  0  0  0  0  0  0
 20 18  1  0  0  0
  7  8  2  0  0  0
 18 19  1  0  0  0
 18  9  1  0  0  0
  8  9  1  0  0  0
  8 11  1  0  0  0
  9 10  1  0  0  0
 31 32  1  0  0  0
 31 29  1  0  0  0
 33 32  2  0  0  0
 16 11  1  0  0  0
 16 15  1  0  0  0
 11 12  1  0  0  0
 32 34  1  0  0  0
 28 27  2  0  0  0
 10 17  2  0  0  0
 15 14  2  0  0  0
 29 27  1  0  0  0
 27 24  1  0  0  0
 25 24  2  0  0  0
 25 26  1  0  0  0
 24 23  1  0  0  0
 17 12  1  0  0  0
 17  1  1  0  0  0
 12 13  1  0  0  0
 14 13  1  0  0  0
 26 21  2  0  0  0
 23 22  2  0  0  0
  4  1  2  0  0  0
  4  5  1  0  0  0
  1  2  1  0  0  0
 21 22  1  0  0  0
 21  5  1  0  0  0
  5  6  2  0  0  0
  2  3  2  0  0  0
  6  3  1  0  0  0
  6 37  1  0  0  0
 37 38  1  0  0  0
 29 30  1  0  0  0
 34 35  1  0  0  0
 34 36  1  0  0  0
M  END
> <minimizedAffinity>
-10.47848

$$$$
5L8C_908_A_1007


 38 41  0  0  0  0  0  0  0  0999 V2000
   26.1571   11.7220   -4.3812 C   0  0  0  0  0  0  0  0  0  0  0  0
   25.1045   11.8484   -5.2868 C   0  0  0  0  0  0  0  0  0  0  0  0
   24.7614   13.0907   -5.7981 C   0  0  0  0  0  0  0  0  0  0  0  0
   26.8529   12.8566   -3.9857 C   0  0  0  0  0  0  0  0  0  0  0  0
   26.5450   14.1096   -4.4990 C   0  0  0  0  0  0  0  0  0  0  0  0
   25.4721   14.2293   -5.3918 C   0  0  0  0  0  0  0  0  0  0  0  0
   27.2889    6.9808   -2.1896 O   0  0  0  0  0  0  0  0  0  0  0  0
   26.8218    8.0136   -2.6155 C   0  0  0  0  0  0  0  0  0  0  0  0
   27.1616    9.2084   -2.0141 N   0  0  0  0  0  0  0  0  0  0  0  0
   27.0016   10.4034   -2.6811 N   0  0  0  0  0  0  0  0  0  0  0  0
   26.0365    8.0073   -3.9203 C   0  0  0  0  0  0  0  0  0  0  0  0
   26.5635    9.1683   -4.7794 C   0  0  0  0  0  0  0  0  0  0  0  0
   27.9643    8.8497   -5.3391 C   0  0  0  0  0  0  0  0  0  0  0  0
   28.0916    7.4403   -5.8428 C   0  0  0  0  0  0  0  0  0  0  0  0
   27.3346    6.4517   -5.4161 C   0  0  0  0  0  0  0  0  0  0  0  0
   26.0107    6.7154   -4.7510 C   0  0  0  0  0  0  0  0  0  0  0  0
   26.6138   10.4055   -3.9115 C   0  0  0  0  0  0  0  0  0  0  0  0
   27.7916    9.5029   -0.7020 C   0  0  0  0  0  0  0  0  0  0  0  0
   26.7338    9.9687    0.2965 C   0  0  0  0  0  0  0  0  0  0  0  0
   28.9360   10.5037   -0.8672 C   0  0  0  0  0  0  0  0  0  0  0  0
   27.4571   15.2229   -4.1241 C   0  0  0  0  0  0  0  0  0  0  0  0
   28.7503   15.2851   -4.6347 C   0  0  0  0  0  0  0  0  0  0  0  0
   29.6422   16.2450   -4.1973 C   0  0  0  0  0  0  0  0  0  0  0  0
   29.2573   17.1764   -3.2375 C   0  0  0  0  0  0  0  0  0  0  0  0
   27.9706   17.1115   -2.7132 C   0  0  0  0  0  0  0  0  0  0  0  0
   27.0849   16.1552   -3.1583 C   0  0  0  0  0  0  0  0  0  0  0  0
   30.1483   18.2830   -2.8053 C   0  0  0  0  0  0  0  0  0  0  0  0
   30.2004   18.6298   -1.6302 O   0  0  0  0  0  0  0  0  0  0  0  0
   30.8857   18.8416   -3.7637 N   0  0  0  0  0  0  0  0  0  0  0  0
   31.1619   18.2965   -4.5356 H   0  0  0  0  0  0  0  0  0  0  0  0
   31.2893   20.2223   -3.6995 C   0  0  0  0  0  0  0  0  0  0  0  0
   32.4616   20.4131   -4.6164 C   0  0  0  0  0  0  0  0  0  0  0  0
   32.5237   19.7655   -5.6619 O   0  0  0  0  0  0  0  0  0  0  0  0
   33.4176   21.2372   -4.2084 N   0  0  0  0  0  0  0  0  0  0  0  0
   33.3146   21.7303   -3.3626 H   0  0  0  0  0  0  0  0  0  0  0  0
   34.2302   21.3557   -4.7515 H   0  0  0  0  0  0  0  0  0  0  0  0
   25.1553   15.5081   -5.7683 O   0  0  0  0  0  0  0  0  0  0  0  0
   23.9033   16.0411   -5.3372 C   0  0  0  0  0  0  0  0  0  0  0  0
 20 18  1  0  0  0
  7  8  2  0  0  0
 18 19  1  0  0  0
 18  9  1  0  0  0
  8  9  1  0  0  0
  8 11  1  0  0  0
  9 10  1  0  0  0
 31 32  1  0  0  0
 31 29  1  0  0  0
 33 32  2  0  0  0
 16 11  1  0  0  0
 16 15  1  0  0  0
 11 12  1  0  0  0
 32 34  1  0  0  0
 28 27  2  0  0  0
 10 17  2  0  0  0
 15 14  2  0  0  0
 29 27  1  0  0  0
 27 24  1  0  0  0
 25 24  2  0  0  0
 25 26  1  0  0  0
 24 23  1  0  0  0
 17 12  1  0  0  0
 17  1  1  0  0  0
 12 13  1  0  0  0
 14 13  1  0  0  0
 26 21  2  0  0  0
 23 22  2  0  0  0
  4  1  2  0  0  0
  4  5  1  0  0  0
  1  2  1  0  0  0
 21 22  1  0  0  0
 21  5  1  0  0  0
  5  6  2  0  0  0
  2  3  2  0  0  0
  6  3  1  0  0  0
  6 37  1  0  0  0
 37 38  1  0  0  0
 29 30  1  0  0  0
 34 35  1  0  0  0
 34 36  1  0  0  0
M  END
> <minimizedAffinity>
-10.12691

$$$$
5L8C_908_A_1007


 38 41  0  0  0  0  0  0  0  0999 V2000
   26.3773   13.4904   -4.9117 C   0  0  0  0  0  0  0  0  0  0  0  0
   25.3599   14.4379   -5.0176 C   0  0  0  0  0  0  0  0  0  0  0  0
   24.4400   14.3700   -6.0527 C   0  0  0  0  0  0  0  0  0  0  0  0
   26.4681   12.4822   -5.8621 C   0  0  0  0  0  0  0  0  0  0  0  0
   25.5472   12.3775   -6.8959 C   0  0  0  0  0  0  0  0  0  0  0  0
   24.5415   13.3466   -7.0061 C   0  0  0  0  0  0  0  0  0  0  0  0
   29.4460   14.0719   -0.5749 O   0  0  0  0  0  0  0  0  0  0  0  0
   28.6064   14.0748   -1.4474 C   0  0  0  0  0  0  0  0  0  0  0  0
   28.8636   14.7352   -2.6316 N   0  0  0  0  0  0  0  0  0  0  0  0
   28.1515   14.4380   -3.7731 N   0  0  0  0  0  0  0  0  0  0  0  0
   27.3738   13.1903   -1.3140 C   0  0  0  0  0  0  0  0  0  0  0  0
   27.1899   12.4539   -2.6511 C   0  0  0  0  0  0  0  0  0  0  0  0
   28.2573   11.3555   -2.8281 C   0  0  0  0  0  0  0  0  0  0  0  0
   28.5018   10.5635   -1.5753 C   0  0  0  0  0  0  0  0  0  0  0  0
   28.2610   11.0312   -0.3689 C   0  0  0  0  0  0  0  0  0  0  0  0
   27.3185   12.1845   -0.1542 C   0  0  0  0  0  0  0  0  0  0  0  0
   27.2956   13.4728   -3.7633 C   0  0  0  0  0  0  0  0  0  0  0  0
   29.8930   15.7439   -2.9897 C   0  0  0  0  0  0  0  0  0  0  0  0
   29.2449   17.1150   -3.1712 C   0  0  0  0  0  0  0  0  0  0  0  0
   30.6845   15.2922   -4.2177 C   0  0  0  0  0  0  0  0  0  0  0  0
   25.6514   11.1701   -7.7580 C   0  0  0  0  0  0  0  0  0  0  0  0
   25.1764    9.9385   -7.3170 C   0  0  0  0  0  0  0  0  0  0  0  0
   25.3795    8.7909   -8.0587 C   0  0  0  0  0  0  0  0  0  0  0  0
   26.0609    8.8491   -9.2709 C   0  0  0  0  0  0  0  0  0  0  0  0
   26.5499   10.0746   -9.7109 C   0  0  0  0  0  0  0  0  0  0  0  0
   26.3387   11.2156   -8.9689 C   0  0  0  0  0  0  0  0  0  0  0  0
   26.2217    7.6611  -10.1472 C   0  0  0  0  0  0  0  0  0  0  0  0
   26.0078    7.7318  -11.3526 O   0  0  0  0  0  0  0  0  0  0  0  0
   26.6280    6.5457   -9.5430 N   0  0  0  0  0  0  0  0  0  0  0  0
   27.1973    6.6138   -8.7427 H   0  0  0  0  0  0  0  0  0  0  0  0
   26.2560    5.2430  -10.0305 C   0  0  0  0  0  0  0  0  0  0  0  0
   25.0120    4.8093   -9.3125 C   0  0  0  0  0  0  0  0  0  0  0  0
   23.9133    5.0083   -9.8315 O   0  0  0  0  0  0  0  0  0  0  0  0
   25.1659    4.2846   -8.1039 N   0  0  0  0  0  0  0  0  0  0  0  0
   26.0696    4.1476   -7.7382 H   0  0  0  0  0  0  0  0  0  0  0  0
   24.3763    4.0322   -7.5727 H   0  0  0  0  0  0  0  0  0  0  0  0
   23.7397   13.2443   -8.1124 O   0  0  0  0  0  0  0  0  0  0  0  0
   22.6949   14.2039   -8.2718 C   0  0  0  0  0  0  0  0  0  0  0  0
 20 18  1  0  0  0
  7  8  2  0  0  0
 18 19  1  0  0  0
 18  9  1  0  0  0
  8  9  1  0  0  0
  8 11  1  0  0  0
  9 10  1  0  0  0
 31 32  1  0  0  0
 31 29  1  0  0  0
 33 32  2  0  0  0
 16 11  1  0  0  0
 16 15  1  0  0  0
 11 12  1  0  0  0
 32 34  1  0  0  0
 28 27  2  0  0  0
 10 17  2  0  0  0
 15 14  2  0  0  0
 29 27  1  0  0  0
 27 24  1  0  0  0
 25 24  2  0  0  0
 25 26  1  0  0  0
 24 23  1  0  0  0
 17 12  1  0  0  0
 17  1  1  0  0  0
 12 13  1  0  0  0
 14 13  1  0  0  0
 26 21  2  0  0  0
 23 22  2  0  0  0
  4  1  2  0  0  0
  4  5  1  0  0  0
  1  2  1  0  0  0
 21 22  1  0  0  0
 21  5  1  0  0  0
  5  6  2  0  0  0
  2  3  2  0  0  0
  6  3  1  0  0  0
  6 37  1  0  0  0
 37 38  1  0  0  0
 29 30  1  0  0  0
 34 35  1  0  0  0
 34 36  1  0  0  0
M  END
> <minimizedAffinity>
-10.03594

$$$$
5L8C_908_A_1007


 38 41  0  0  0  0  0  0  0  0999 V2000
   26.0109   12.0579   -5.0799 C   0  0  0  0  0  0  0  0  0  0  0  0
   24.8440   12.4563   -5.7310 C   0  0  0  0  0  0  0  0  0  0  0  0
   24.5052   13.7985   -5.8095 C   0  0  0  0  0  0  0  0  0  0  0  0
   26.8267   13.0196   -4.4990 C   0  0  0  0  0  0  0  0  0  0  0  0
   26.5230   14.3719   -4.5821 C   0  0  0  0  0  0  0  0  0  0  0  0
   25.3377   14.7606   -5.2196 C   0  0  0  0  0  0  0  0  0  0  0  0
   28.1181    7.1682   -5.5417 O   0  0  0  0  0  0  0  0  0  0  0  0
   27.8494    8.3476   -5.4861 C   0  0  0  0  0  0  0  0  0  0  0  0
   27.0521    8.9067   -6.4640 N   0  0  0  0  0  0  0  0  0  0  0  0
   26.3950   10.0971   -6.2419 N   0  0  0  0  0  0  0  0  0  0  0  0
   28.2179    9.1496   -4.2450 C   0  0  0  0  0  0  0  0  0  0  0  0
   26.9796    9.9667   -3.8416 C   0  0  0  0  0  0  0  0  0  0  0  0
   25.8943    9.0589   -3.2291 C   0  0  0  0  0  0  0  0  0  0  0  0
   26.4482    8.0374   -2.2772 C   0  0  0  0  0  0  0  0  0  0  0  0
   27.6894    7.6026   -2.3292 C   0  0  0  0  0  0  0  0  0  0  0  0
   28.7640    8.3952   -3.0233 C   0  0  0  0  0  0  0  0  0  0  0  0
   26.4510   10.6548   -5.0799 C   0  0  0  0  0  0  0  0  0  0  0  0
   26.6555    8.4143   -7.8078 C   0  0  0  0  0  0  0  0  0  0  0  0
   27.6153    8.9499   -8.8683 C   0  0  0  0  0  0  0  0  0  0  0  0
   25.1945    8.7601   -8.0978 C   0  0  0  0  0  0  0  0  0  0  0  0
   27.5479   15.3156   -4.0615 C   0  0  0  0  0  0  0  0  0  0  0  0
   27.3205   16.0393   -2.8946 C   0  0  0  0  0  0  0  0  0  0  0  0
   28.2124   17.0059   -2.4721 C   0  0  0  0  0  0  0  0  0  0  0  0
   29.3643   17.2688   -3.2077 C   0  0  0  0  0  0  0  0  0  0  0  0
   29.5908   16.5585   -4.3819 C   0  0  0  0  0  0  0  0  0  0  0  0
   28.7001   15.5922   -4.7940 C   0  0  0  0  0  0  0  0  0  0  0  0
   30.3973   18.2302   -2.7453 C   0  0  0  0  0  0  0  0  0  0  0  0
   30.2945   18.7950   -1.6616 O   0  0  0  0  0  0  0  0  0  0  0  0
   31.4303   18.4108   -3.5666 N   0  0  0  0  0  0  0  0  0  0  0  0
   31.7120   17.6718   -4.1528 H   0  0  0  0  0  0  0  0  0  0  0  0
   32.1457   19.6593   -3.6188 C   0  0  0  0  0  0  0  0  0  0  0  0
   31.7444   20.3797   -4.8723 C   0  0  0  0  0  0  0  0  0  0  0  0
   30.8371   21.2110   -4.8283 O   0  0  0  0  0  0  0  0  0  0  0  0
   32.3577   20.0249   -5.9937 N   0  0  0  0  0  0  0  0  0  0  0  0
   33.0778   19.3539   -5.9698 H   0  0  0  0  0  0  0  0  0  0  0  0
   32.0929   20.4325   -6.8498 H   0  0  0  0  0  0  0  0  0  0  0  0
   25.0473   16.0986   -5.1647 O   0  0  0  0  0  0  0  0  0  0  0  0
   23.6842   16.4935   -5.3176 C   0  0  0  0  0  0  0  0  0  0  0  0
 20 18  1  0  0  0
  7  8  2  0  0  0
 18 19  1  0  0  0
 18  9  1  0  0  0
  8  9  1  0  0  0
  8 11  1  0  0  0
  9 10  1  0  0  0
 31 32  1  0  0  0
 31 29  1  0  0  0
 33 32  2  0  0  0
 16 11  1  0  0  0
 16 15  1  0  0  0
 11 12  1  0  0  0
 32 34  1  0  0  0
 28 27  2  0  0  0
 10 17  2  0  0  0
 15 14  2  0  0  0
 29 27  1  0  0  0
 27 24  1  0  0  0
 25 24  2  0  0  0
 25 26  1  0  0  0
 24 23  1  0  0  0
 17 12  1  0  0  0
 17  1  1  0  0  0
 12 13  1  0  0  0
 14 13  1  0  0  0
 26 21  2  0  0  0
 23 22  2  0  0  0
  4  1  2  0  0  0
  4  5  1  0  0  0
  1  2  1  0  0  0
 21 22  1  0  0  0
 21  5  1  0  0  0
  5  6  2  0  0  0
  2  3  2  0  0  0
  6  3  1  0  0  0
  6 37  1  0  0  0
 37 38  1  0  0  0
 29 30  1  0  0  0
 34 35  1  0  0  0
 34 36  1  0  0  0
M  END
> <minimizedAffinity>
-9.87630

$$$$
5L8C_908_A_1007


 38 41  0  0  0  0  0  0  0  0999 V2000
   27.1818    8.6520   -3.9627 C   0  0  0  0  0  0  0  0  0  0  0  0
   26.8988    7.9446   -2.7950 C   0  0  0  0  0  0  0  0  0  0  0  0
   26.9728    8.5684   -1.5589 C   0  0  0  0  0  0  0  0  0  0  0  0
   27.5512    9.9876   -3.8752 C   0  0  0  0  0  0  0  0  0  0  0  0
   27.6116   10.6428   -2.6524 C   0  0  0  0  0  0  0  0  0  0  0  0
   27.3462    9.9180   -1.4833 C   0  0  0  0  0  0  0  0  0  0  0  0
   27.0403    6.9053   -9.0116 O   0  0  0  0  0  0  0  0  0  0  0  0
   27.2877    7.3519   -7.9137 C   0  0  0  0  0  0  0  0  0  0  0  0
   26.7222    8.5502   -7.5276 N   0  0  0  0  0  0  0  0  0  0  0  0
   26.6341    8.8907   -6.1955 N   0  0  0  0  0  0  0  0  0  0  0  0
   28.0458    6.5005   -6.9039 C   0  0  0  0  0  0  0  0  0  0  0  0
   27.2893    6.5892   -5.5683 C   0  0  0  0  0  0  0  0  0  0  0  0
   25.9749    5.7853   -5.6236 C   0  0  0  0  0  0  0  0  0  0  0  0
   26.1265    4.4528   -6.3003 C   0  0  0  0  0  0  0  0  0  0  0  0
   27.0697    4.1956   -7.1815 C   0  0  0  0  0  0  0  0  0  0  0  0
   28.3207    5.0291   -7.2493 C   0  0  0  0  0  0  0  0  0  0  0  0
   27.0016    8.0475   -5.2910 C   0  0  0  0  0  0  0  0  0  0  0  0
   26.0589    9.6213   -8.3138 C   0  0  0  0  0  0  0  0  0  0  0  0
   26.1482   10.9519   -7.5695 C   0  0  0  0  0  0  0  0  0  0  0  0
   24.6220    9.2259   -8.6564 C   0  0  0  0  0  0  0  0  0  0  0  0
   27.8640   12.1078   -2.6962 C   0  0  0  0  0  0  0  0  0  0  0  0
   28.7352   12.6514   -3.6357 C   0  0  0  0  0  0  0  0  0  0  0  0
   29.0689   13.9915   -3.6043 C   0  0  0  0  0  0  0  0  0  0  0  0
   28.5303   14.8272   -2.6304 C   0  0  0  0  0  0  0  0  0  0  0  0
   27.6696   14.2876   -1.6804 C   0  0  0  0  0  0  0  0  0  0  0  0
   27.3368   12.9517   -1.7213 C   0  0  0  0  0  0  0  0  0  0  0  0
   28.7848   16.2901   -2.6129 C   0  0  0  0  0  0  0  0  0  0  0  0
   27.9646   17.0682   -2.1378 O   0  0  0  0  0  0  0  0  0  0  0  0
   29.9531   16.6815   -3.1190 N   0  0  0  0  0  0  0  0  0  0  0  0
   30.7262   16.0742   -3.0665 H   0  0  0  0  0  0  0  0  0  0  0  0
   30.1142   17.9701   -3.7409 C   0  0  0  0  0  0  0  0  0  0  0  0
   31.0238   18.7973   -2.8810 C   0  0  0  0  0  0  0  0  0  0  0  0
   32.1371   19.1103   -3.3040 O   0  0  0  0  0  0  0  0  0  0  0  0
   30.5941   19.0953   -1.6619 N   0  0  0  0  0  0  0  0  0  0  0  0
   29.6932   18.8195   -1.3765 H   0  0  0  0  0  0  0  0  0  0  0  0
   31.1761   19.5923   -1.0426 H   0  0  0  0  0  0  0  0  0  0  0  0
   27.5347   10.5988   -0.3093 O   0  0  0  0  0  0  0  0  0  0  0  0
   26.6646   10.3019    0.7827 C   0  0  0  0  0  0  0  0  0  0  0  0
 20 18  1  0  0  0
  7  8  2  0  0  0
 18 19  1  0  0  0
 18  9  1  0  0  0
  8  9  1  0  0  0
  8 11  1  0  0  0
  9 10  1  0  0  0
 31 32  1  0  0  0
 31 29  1  0  0  0
 33 32  2  0  0  0
 16 11  1  0  0  0
 16 15  1  0  0  0
 11 12  1  0  0  0
 32 34  1  0  0  0
 28 27  2  0  0  0
 10 17  2  0  0  0
 15 14  2  0  0  0
 29 27  1  0  0  0
 27 24  1  0  0  0
 25 24  2  0  0  0
 25 26  1  0  0  0
 24 23  1  0  0  0
 17 12  1  0  0  0
 17  1  1  0  0  0
 12 13  1  0  0  0
 14 13  1  0  0  0
 26 21  2  0  0  0
 23 22  2  0  0  0
  4  1  2  0  0  0
  4  5  1  0  0  0
  1  2  1  0  0  0
 21 22  1  0  0  0
 21  5  1  0  0  0
  5  6  2  0  0  0
  2  3  2  0  0  0
  6  3  1  0  0  0
  6 37  1  0  0  0
 37 38  1  0  0  0
 29 30  1  0  0  0
 34 35  1  0  0  0
 34 36  1  0  0  0
M  END
> <minimizedAffinity>
-9.82607

$$$$
5L8C_908_A_1007


 38 41  0  0  0  0  0  0  0  0999 V2000
   26.6594    9.2216   -4.5184 C   0  0  0  0  0  0  0  0  0  0  0  0
   26.1670    8.7878   -3.2881 C   0  0  0  0  0  0  0  0  0  0  0  0
   26.2059    9.6216   -2.1809 C   0  0  0  0  0  0  0  0  0  0  0  0
   27.2015   10.4957   -4.6219 C   0  0  0  0  0  0  0  0  0  0  0  0
   27.2327   11.3592   -3.5350 C   0  0  0  0  0  0  0  0  0  0  0  0
   26.7552   10.9066   -2.2982 C   0  0  0  0  0  0  0  0  0  0  0  0
   25.6322    5.9214   -8.5946 O   0  0  0  0  0  0  0  0  0  0  0  0
   25.6450    6.6459   -7.6245 C   0  0  0  0  0  0  0  0  0  0  0  0
   26.2890    6.2290   -6.4772 N   0  0  0  0  0  0  0  0  0  0  0  0
   26.6816    7.1386   -5.5197 N   0  0  0  0  0  0  0  0  0  0  0  0
   25.1351    8.0761   -7.7418 C   0  0  0  0  0  0  0  0  0  0  0  0
   26.1780    8.9914   -7.0796 C   0  0  0  0  0  0  0  0  0  0  0  0
   27.4414    9.1129   -7.9549 C   0  0  0  0  0  0  0  0  0  0  0  0
   27.1331    9.2791   -9.4157 C   0  0  0  0  0  0  0  0  0  0  0  0
   26.0120    8.8650   -9.9669 C   0  0  0  0  0  0  0  0  0  0  0  0
   24.7822    8.6137   -9.1369 C   0  0  0  0  0  0  0  0  0  0  0  0
   26.5277    8.4017   -5.7319 C   0  0  0  0  0  0  0  0  0  0  0  0
   26.7588    4.8875   -6.0473 C   0  0  0  0  0  0  0  0  0  0  0  0
   27.0885    4.8988   -4.5560 C   0  0  0  0  0  0  0  0  0  0  0  0
   27.9316    4.4253   -6.9129 C   0  0  0  0  0  0  0  0  0  0  0  0
   27.6906   12.7484   -3.8039 C   0  0  0  0  0  0  0  0  0  0  0  0
   28.9779   13.1516   -3.4613 C   0  0  0  0  0  0  0  0  0  0  0  0
   29.3695   14.4696   -3.5946 C   0  0  0  0  0  0  0  0  0  0  0  0
   28.4793   15.4211   -4.0837 C   0  0  0  0  0  0  0  0  0  0  0  0
   27.1872   15.0275   -4.4153 C   0  0  0  0  0  0  0  0  0  0  0  0
   26.8055   13.7105   -4.2851 C   0  0  0  0  0  0  0  0  0  0  0  0
   28.8820   16.8285   -4.3328 C   0  0  0  0  0  0  0  0  0  0  0  0
   28.2190   17.7623   -3.8942 O   0  0  0  0  0  0  0  0  0  0  0  0
   30.0032   16.9957   -5.0323 N   0  0  0  0  0  0  0  0  0  0  0  0
   30.7100   16.3127   -4.9760 H   0  0  0  0  0  0  0  0  0  0  0  0
   30.2079   18.1498   -5.8685 C   0  0  0  0  0  0  0  0  0  0  0  0
   31.6196   18.6224   -5.6812 C   0  0  0  0  0  0  0  0  0  0  0  0
   32.1578   18.4995   -4.5806 O   0  0  0  0  0  0  0  0  0  0  0  0
   32.1976   19.2185   -6.7157 N   0  0  0  0  0  0  0  0  0  0  0  0
   31.7198   19.2884   -7.5736 H   0  0  0  0  0  0  0  0  0  0  0  0
   33.1044   19.5911   -6.6255 H   0  0  0  0  0  0  0  0  0  0  0  0
   26.9209   11.7705   -1.2477 O   0  0  0  0  0  0  0  0  0  0  0  0
   27.3506   11.2294    0.0014 C   0  0  0  0  0  0  0  0  0  0  0  0
 20 18  1  0  0  0
  7  8  2  0  0  0
 18 19  1  0  0  0
 18  9  1  0  0  0
  8  9  1  0  0  0
  8 11  1  0  0  0
  9 10  1  0  0  0
 31 32  1  0  0  0
 31 29  1  0  0  0
 33 32  2  0  0  0
 16 11  1  0  0  0
 16 15  1  0  0  0
 11 12  1  0  0  0
 32 34  1  0  0  0
 28 27  2  0  0  0
 10 17  2  0  0  0
 15 14  2  0  0  0
 29 27  1  0  0  0
 27 24  1  0  0  0
 25 24  2  0  0  0
 25 26  1  0  0  0
 24 23  1  0  0  0
 17 12  1  0  0  0
 17  1  1  0  0  0
 12 13  1  0  0  0
 14 13  1  0  0  0
 26 21  2  0  0  0
 23 22  2  0  0  0
  4  1  2  0  0  0
  4  5  1  0  0  0
  1  2  1  0  0  0
 21 22  1  0  0  0
 21  5  1  0  0  0
  5  6  2  0  0  0
  2  3  2  0  0  0
  6  3  1  0  0  0
  6 37  1  0  0  0
 37 38  1  0  0  0
 29 30  1  0  0  0
 34 35  1  0  0  0
 34 36  1  0  0  0
M  END
> <minimizedAffinity>
-9.65642

$$$$
5L8C_908_A_1007


 38 41  0  0  0  0  0  0  0  0999 V2000
   27.1450   17.9081   -4.7026 C   0  0  0  0  0  0  0  0  0  0  0  0
   28.4453   18.3263   -4.9825 C   0  0  0  0  0  0  0  0  0  0  0  0
   29.5312   17.5576   -4.5921 C   0  0  0  0  0  0  0  0  0  0  0  0
   26.9474   16.7171   -4.0167 C   0  0  0  0  0  0  0  0  0  0  0  0
   28.0156   15.9170   -3.6338 C   0  0  0  0  0  0  0  0  0  0  0  0
   29.3189   16.3562   -3.9006 C   0  0  0  0  0  0  0  0  0  0  0  0
   22.5629   20.3740   -5.9217 O   0  0  0  0  0  0  0  0  0  0  0  0
   23.5358   19.8457   -5.4313 C   0  0  0  0  0  0  0  0  0  0  0  0
   23.6988   18.4808   -5.5545 N   0  0  0  0  0  0  0  0  0  0  0  0
   24.9378   17.9015   -5.3885 N   0  0  0  0  0  0  0  0  0  0  0  0
   24.6599   20.7050   -4.8679 C   0  0  0  0  0  0  0  0  0  0  0  0
   25.9841   20.1431   -5.4108 C   0  0  0  0  0  0  0  0  0  0  0  0
   26.1528   20.4751   -6.9070 C   0  0  0  0  0  0  0  0  0  0  0  0
   25.7518   21.8820   -7.2477 C   0  0  0  0  0  0  0  0  0  0  0  0
   24.8974   22.5812   -6.5311 C   0  0  0  0  0  0  0  0  0  0  0  0
   24.6052   22.2227   -5.0991 C   0  0  0  0  0  0  0  0  0  0  0  0
   25.9753   18.6454   -5.2031 C   0  0  0  0  0  0  0  0  0  0  0  0
   22.7449   17.4086   -5.9363 C   0  0  0  0  0  0  0  0  0  0  0  0
   21.7503   17.1620   -4.8037 C   0  0  0  0  0  0  0  0  0  0  0  0
   23.4962   16.1442   -6.3549 C   0  0  0  0  0  0  0  0  0  0  0  0
   27.6765   14.5929   -3.0475 C   0  0  0  0  0  0  0  0  0  0  0  0
   27.6369   14.4154   -1.6676 C   0  0  0  0  0  0  0  0  0  0  0  0
   27.4440   13.1633   -1.1169 C   0  0  0  0  0  0  0  0  0  0  0  0
   27.2780   12.0523   -1.9385 C   0  0  0  0  0  0  0  0  0  0  0  0
   27.3299   12.2206   -3.3182 C   0  0  0  0  0  0  0  0  0  0  0  0
   27.5168   13.4729   -3.8603 C   0  0  0  0  0  0  0  0  0  0  0  0
   26.9747   10.7038   -1.3956 C   0  0  0  0  0  0  0  0  0  0  0  0
   26.8804   10.5159   -0.1874 O   0  0  0  0  0  0  0  0  0  0  0  0
   26.7947    9.7419   -2.2993 N   0  0  0  0  0  0  0  0  0  0  0  0
   26.4374    9.9776   -3.1859 H   0  0  0  0  0  0  0  0  0  0  0  0
   27.1093    8.3664   -2.0127 C   0  0  0  0  0  0  0  0  0  0  0  0
   28.1928    7.9257   -2.9524 C   0  0  0  0  0  0  0  0  0  0  0  0
   28.9582    8.7642   -3.4292 O   0  0  0  0  0  0  0  0  0  0  0  0
   28.2241    6.6394   -3.2749 N   0  0  0  0  0  0  0  0  0  0  0  0
   27.5871    6.0127   -2.8619 H   0  0  0  0  0  0  0  0  0  0  0  0
   28.8844    6.3115   -3.9274 H   0  0  0  0  0  0  0  0  0  0  0  0
   30.3227   15.5724   -3.3951 O   0  0  0  0  0  0  0  0  0  0  0  0
   31.1247   14.8357   -4.3181 C   0  0  0  0  0  0  0  0  0  0  0  0
 20 18  1  0  0  0
  7  8  2  0  0  0
 18 19  1  0  0  0
 18  9  1  0  0  0
  8  9  1  0  0  0
  8 11  1  0  0  0
  9 10  1  0  0  0
 31 32  1  0  0  0
 31 29  1  0  0  0
 33 32  2  0  0  0
 16 11  1  0  0  0
 16 15  1  0  0  0
 11 12  1  0  0  0
 32 34  1  0  0  0
 28 27  2  0  0  0
 10 17  2  0  0  0
 15 14  2  0  0  0
 29 27  1  0  0  0
 27 24  1  0  0  0
 25 24  2  0  0  0
 25 26  1  0  0  0
 24 23  1  0  0  0
 17 12  1  0  0  0
 17  1  1  0  0  0
 12 13  1  0  0  0
 14 13  1  0  0  0
 26 21  2  0  0  0
 23 22  2  0  0  0
  4  1  2  0  0  0
  4  5  1  0  0  0
  1  2  1  0  0  0
 21 22  1  0  0  0
 21  5  1  0  0  0
  5  6  2  0  0  0
  2  3  2  0  0  0
  6  3  1  0  0  0
  6 37  1  0  0  0
 37 38  1  0  0  0
 29 30  1  0  0  0
 34 35  1  0  0  0
 34 36  1  0  0  0
M  END
> <minimizedAffinity>
-9.39445

$$$$
5L8C_908_A_1007


 38 41  0  0  0  0  0  0  0  0999 V2000
   25.8197   16.7494   -4.5965 C   0  0  0  0  0  0  0  0  0  0  0  0
   26.8000   17.7388   -4.5308 C   0  0  0  0  0  0  0  0  0  0  0  0
   28.0121   17.4880   -3.9060 C   0  0  0  0  0  0  0  0  0  0  0  0
   26.0646   15.5111   -4.0183 C   0  0  0  0  0  0  0  0  0  0  0  0
   27.2778   15.2257   -3.4061 C   0  0  0  0  0  0  0  0  0  0  0  0
   28.2481   16.2330   -3.3264 C   0  0  0  0  0  0  0  0  0  0  0  0
   20.9689   17.1076   -6.8110 O   0  0  0  0  0  0  0  0  0  0  0  0
   21.9546   17.0118   -6.1143 C   0  0  0  0  0  0  0  0  0  0  0  0
   22.7093   15.8575   -6.1650 N   0  0  0  0  0  0  0  0  0  0  0  0
   24.0161   15.8505   -5.7284 N   0  0  0  0  0  0  0  0  0  0  0  0
   22.4625   18.2279   -5.3511 C   0  0  0  0  0  0  0  0  0  0  0  0
   23.9784   18.3202   -5.5901 C   0  0  0  0  0  0  0  0  0  0  0  0
   24.2834   18.7916   -7.0261 C   0  0  0  0  0  0  0  0  0  0  0  0
   23.3938   19.9136   -7.4799 C   0  0  0  0  0  0  0  0  0  0  0  0
   22.1977   20.1333   -6.9764 C   0  0  0  0  0  0  0  0  0  0  0  0
   21.8082   19.5899   -5.6283 C   0  0  0  0  0  0  0  0  0  0  0  0
   24.5729   16.9508   -5.3497 C   0  0  0  0  0  0  0  0  0  0  0  0
   22.4065   14.5095   -6.7096 C   0  0  0  0  0  0  0  0  0  0  0  0
   23.0770   13.4348   -5.8563 C   0  0  0  0  0  0  0  0  0  0  0  0
   22.7955   14.4260   -8.1861 C   0  0  0  0  0  0  0  0  0  0  0  0
   27.4838   13.8208   -2.9637 C   0  0  0  0  0  0  0  0  0  0  0  0
   27.7117   12.8092   -3.8920 C   0  0  0  0  0  0  0  0  0  0  0  0
   27.7814   11.4865   -3.4998 C   0  0  0  0  0  0  0  0  0  0  0  0
   27.6310   11.1421   -2.1597 C   0  0  0  0  0  0  0  0  0  0  0  0
   27.3897   12.1468   -1.2287 C   0  0  0  0  0  0  0  0  0  0  0  0
   27.3271   13.4641   -1.6262 C   0  0  0  0  0  0  0  0  0  0  0  0
   27.7912    9.7468   -1.6776 C   0  0  0  0  0  0  0  0  0  0  0  0
   28.3444    9.5071   -0.6096 O   0  0  0  0  0  0  0  0  0  0  0  0
   27.2806    8.7997   -2.4628 N   0  0  0  0  0  0  0  0  0  0  0  0
   26.4997    9.0112   -3.0238 H   0  0  0  0  0  0  0  0  0  0  0  0
   27.8416    7.4746   -2.5123 C   0  0  0  0  0  0  0  0  0  0  0  0
   26.7464    6.5128   -2.8685 C   0  0  0  0  0  0  0  0  0  0  0  0
   25.5987    6.7318   -2.4799 O   0  0  0  0  0  0  0  0  0  0  0  0
   27.0960    5.4236   -3.5401 N   0  0  0  0  0  0  0  0  0  0  0  0
   28.0298    5.3005   -3.8266 H   0  0  0  0  0  0  0  0  0  0  0  0
   26.4216    4.7384   -3.7522 H   0  0  0  0  0  0  0  0  0  0  0  0
   29.3730   15.9159   -2.6111 O   0  0  0  0  0  0  0  0  0  0  0  0
   30.6039   15.7888   -3.3227 C   0  0  0  0  0  0  0  0  0  0  0  0
 20 18  1  0  0  0
  7  8  2  0  0  0
 18 19  1  0  0  0
 18  9  1  0  0  0
  8  9  1  0  0  0
  8 11  1  0  0  0
  9 10  1  0  0  0
 31 32  1  0  0  0
 31 29  1  0  0  0
 33 32  2  0  0  0
 16 11  1  0  0  0
 16 15  1  0  0  0
 11 12  1  0  0  0
 32 34  1  0  0  0
 28 27  2  0  0  0
 10 17  2  0  0  0
 15 14  2  0  0  0
 29 27  1  0  0  0
 27 24  1  0  0  0
 25 24  2  0  0  0
 25 26  1  0  0  0
 24 23  1  0  0  0
 17 12  1  0  0  0
 17  1  1  0  0  0
 12 13  1  0  0  0
 14 13  1  0  0  0
 26 21  2  0  0  0
 23 22  2  0  0  0
  4  1  2  0  0  0
  4  5  1  0  0  0
  1  2  1  0  0  0
 21 22  1  0  0  0
 21  5  1  0  0  0
  5  6  2  0  0  0
  2  3  2  0  0  0
  6  3  1  0  0  0
  6 37  1  0  0  0
 37 38  1  0  0  0
 29 30  1  0  0  0
 34 35  1  0  0  0
 34 36  1  0  0  0
M  END
> <minimizedAffinity>
-9.37793

$$$$
5L8C_908_A_1007


 38 41  0  0  0  0  0  0  0  0999 V2000
   27.1032   11.0524   -2.8363 C   0  0  0  0  0  0  0  0  0  0  0  0
   27.0101   10.7529   -1.4777 C   0  0  0  0  0  0  0  0  0  0  0  0
   27.4145   11.6750   -0.5244 C   0  0  0  0  0  0  0  0  0  0  0  0
   27.6172   12.2816   -3.2271 C   0  0  0  0  0  0  0  0  0  0  0  0
   28.0086   13.2320   -2.2936 C   0  0  0  0  0  0  0  0  0  0  0  0
   27.9313   12.9135   -0.9315 C   0  0  0  0  0  0  0  0  0  0  0  0
   25.6776    8.0310   -7.0077 O   0  0  0  0  0  0  0  0  0  0  0  0
   26.2032    8.7205   -6.1625 C   0  0  0  0  0  0  0  0  0  0  0  0
   25.8389   10.0468   -6.0488 N   0  0  0  0  0  0  0  0  0  0  0  0
   26.0836   10.7475   -4.8880 N   0  0  0  0  0  0  0  0  0  0  0  0
   27.0996    8.0781   -5.1121 C   0  0  0  0  0  0  0  0  0  0  0  0
   26.6761    8.6359   -3.7434 C   0  0  0  0  0  0  0  0  0  0  0  0
   25.3229    8.0444   -3.3007 C   0  0  0  0  0  0  0  0  0  0  0  0
   25.2087    6.5702   -3.5657 C   0  0  0  0  0  0  0  0  0  0  0  0
   25.9030    5.9496   -4.4958 C   0  0  0  0  0  0  0  0  0  0  0  0
   27.1691    6.5448   -5.0501 C   0  0  0  0  0  0  0  0  0  0  0  0
   26.5777   10.1401   -3.8628 C   0  0  0  0  0  0  0  0  0  0  0  0
   25.1031   10.9457   -6.9740 C   0  0  0  0  0  0  0  0  0  0  0  0
   25.7947   12.3055   -7.0468 C   0  0  0  0  0  0  0  0  0  0  0  0
   23.6320   11.0467   -6.5692 C   0  0  0  0  0  0  0  0  0  0  0  0
   28.3938   14.5662   -2.8260 C   0  0  0  0  0  0  0  0  0  0  0  0
   27.4609   15.5959   -2.9067 C   0  0  0  0  0  0  0  0  0  0  0  0
   27.7775   16.7965   -3.5120 C   0  0  0  0  0  0  0  0  0  0  0  0
   29.0454   17.0001   -4.0485 C   0  0  0  0  0  0  0  0  0  0  0  0
   29.9781   15.9704   -3.9832 C   0  0  0  0  0  0  0  0  0  0  0  0
   29.6573   14.7780   -3.3730 C   0  0  0  0  0  0  0  0  0  0  0  0
   29.4620   18.3041   -4.6242 C   0  0  0  0  0  0  0  0  0  0  0  0
   30.5069   18.8433   -4.2758 O   0  0  0  0  0  0  0  0  0  0  0  0
   28.6461   18.8199   -5.5420 N   0  0  0  0  0  0  0  0  0  0  0  0
   28.1109   18.2134   -6.1032 H   0  0  0  0  0  0  0  0  0  0  0  0
   28.5267   20.2418   -5.7343 C   0  0  0  0  0  0  0  0  0  0  0  0
   27.0842   20.5622   -5.9945 C   0  0  0  0  0  0  0  0  0  0  0  0
   26.7103   21.7351   -5.9669 O   0  0  0  0  0  0  0  0  0  0  0  0
   26.2630   19.5367   -6.1781 N   0  0  0  0  0  0  0  0  0  0  0  0
   26.6175   18.6184   -6.1912 H   0  0  0  0  0  0  0  0  0  0  0  0
   25.2990   19.6941   -6.3014 H   0  0  0  0  0  0  0  0  0  0  0  0
   28.4391   13.8539   -0.0740 O   0  0  0  0  0  0  0  0  0  0  0  0
   29.2437   13.4007    1.0145 C   0  0  0  0  0  0  0  0  0  0  0  0
 20 18  1  0  0  0
  7  8  2  0  0  0
 18 19  1  0  0  0
 18  9  1  0  0  0
  8  9  1  0  0  0
  8 11  1  0  0  0
  9 10  1  0  0  0
 31 32  1  0  0  0
 31 29  1  0  0  0
 33 32  2  0  0  0
 16 11  1  0  0  0
 16 15  1  0  0  0
 11 12  1  0  0  0
 32 34  1  0  0  0
 28 27  2  0  0  0
 10 17  2  0  0  0
 15 14  2  0  0  0
 29 27  1  0  0  0
 27 24  1  0  0  0
 25 24  2  0  0  0
 25 26  1  0  0  0
 24 23  1  0  0  0
 17 12  1  0  0  0
 17  1  1  0  0  0
 12 13  1  0  0  0
 14 13  1  0  0  0
 26 21  2  0  0  0
 23 22  2  0  0  0
  4  1  2  0  0  0
  4  5  1  0  0  0
  1  2  1  0  0  0
 21 22  1  0  0  0
 21  5  1  0  0  0
  5  6  2  0  0  0
  2  3  2  0  0  0
  6  3  1  0  0  0
  6 37  1  0  0  0
 37 38  1  0  0  0
 29 30  1  0  0  0
 34 35  1  0  0  0
 34 36  1  0  0  0
M  END
> <minimizedAffinity>
-9.37559

$$$$
