4H3F_10O_A_502


 35 39  0  0  0  0  0  0  0  0999 V2000
   21.8941   10.4565   21.3500 C   0  0  0  0  0  0  0  0  0  0  0  0
   21.1753   11.7451   21.8004 C   0  0  0  0  0  0  0  0  0  0  0  0
   22.4545   11.5176   23.9419 N   0  0  0  0  0  0  0  0  0  0  0  0
   22.4979   10.1400   23.7567 C   0  0  0  0  0  0  0  0  0  0  0  0
   21.7962   12.3840   23.0698 C   0  0  0  0  0  0  0  0  0  0  0  0
   22.2137    9.6135   22.5166 N   0  0  0  0  0  0  0  0  0  0  0  0
   19.5758   10.1861   21.1028 N   0  0  0  0  0  0  0  0  0  0  0  0
   20.8382    9.7441   20.5083 C   0  0  0  0  0  0  0  0  0  0  0  0
   19.7042   11.3531   21.9851 C   0  0  0  0  0  0  0  0  0  0  0  0
   22.8000    9.3309   24.7651 N   0  0  0  0  0  0  0  0  0  0  0  0
   21.7001   13.5945   23.2526 O   0  0  0  0  0  0  0  0  0  0  0  0
   23.1429   12.1161   25.1221 C   0  0  0  0  0  0  0  0  0  0  0  0
   22.2242    8.6355   22.4045 H   0  0  0  0  0  0  0  0  0  0  0  0
   22.8280    8.3570   24.6235 H   0  0  0  0  0  0  0  0  0  0  0  0
   18.3932    9.5423   20.8213 C   0  0  0  0  0  0  0  0  0  0  0  0
   18.4653    8.5653   19.8824 N   0  0  0  0  0  0  0  0  0  0  0  0
   17.1589    9.8582   21.4526 C   0  0  0  0  0  0  0  0  0  0  0  0
   17.3706    7.8631   19.5190 C   0  0  0  0  0  0  0  0  0  0  0  0
   16.0090    9.1235   21.0756 C   0  0  0  0  0  0  0  0  0  0  0  0
   16.1137    8.1085   20.0912 C   0  0  0  0  0  0  0  0  0  0  0  0
   17.4661    6.8628   18.5537 O   0  0  0  0  0  0  0  0  0  0  0  0
   18.7697    6.6899   17.9956 C   0  0  0  0  0  0  0  0  0  0  0  0
   23.1402   10.8260   20.5648 C   0  0  0  0  0  0  0  0  0  0  0  0
   24.5159   10.7344   21.0050 C   0  0  0  0  0  0  0  0  0  0  0  0
   25.4602   11.1606   20.0355 C   0  0  0  0  0  0  0  0  0  0  0  0
   23.1283   11.4463   18.9744 S   0  0  0  0  0  0  0  0  0  0  0  0
   24.8229   11.5843   18.8560 C   0  0  0  0  0  0  0  0  0  0  0  0
   26.9486   11.1662   20.2736 C   0  0  0  0  0  0  0  0  0  0  0  0
   27.5026   10.6172   21.4548 C   0  0  0  0  0  0  0  0  0  0  0  0
   28.8919   10.6272   21.6950 C   0  0  0  0  0  0  0  0  0  0  0  0
   27.8508   11.7355   19.3327 C   0  0  0  0  0  0  0  0  0  0  0  0
   29.2510   11.7484   19.5668 C   0  0  0  0  0  0  0  0  0  0  0  0
   29.7841   11.1913   20.7552 C   0  0  0  0  0  0  0  0  0  0  0  0
   29.8011    9.6126   23.8879 N   0  0  0  0  0  0  0  0  0  0  0  0
   29.3861   10.0554   22.9077 C   0  0  0  0  0  0  0  0  0  0  0  0
 22 21  1  0  0  0
 21 18  1  0  0  0
 27 26  1  0  0  0
 27 25  2  0  0  0
 26 23  1  0  0  0
 31 32  2  0  0  0
 31 28  1  0  0  0
 18 16  2  0  0  0
 18 20  1  0  0  0
 32 33  1  0  0  0
 16 15  1  0  0  0
 25 28  1  0  0  0
 25 24  1  0  0  0
 20 19  2  0  0  0
 28 29  2  0  0  0
  8  7  1  0  0  0
  8  1  1  0  0  0
 23 24  2  0  0  0
 23  1  1  0  0  0
 33 30  2  0  0  0
 15  7  1  0  0  0
 15 17  2  0  0  0
 19 17  1  0  0  0
  7  9  1  0  0  0
  1  2  1  0  0  0
  1  6  1  0  0  0
 29 30  1  0  0  0
 30 35  1  0  0  0
  2  9  1  0  0  0
  2  5  1  0  0  0
  6  4  1  0  0  0
 35 34  3  0  0  0
  5 11  2  0  0  0
  5  3  1  0  0  0
  4  3  1  0  0  0
  4 10  2  0  0  0
  3 12  1  0  0  0
  6 13  1  0  0  0
 10 14  1  0  0  0
M  END
> <minimizedAffinity>
-11.08312

$$$$
4H3F_10O_A_502


 35 39  0  0  0  0  0  0  0  0999 V2000
   21.6066   10.9102   21.5030 C   0  0  0  0  0  0  0  0  0  0  0  0
   20.6732   11.9197   22.2029 C   0  0  0  0  0  0  0  0  0  0  0  0
   22.0240   11.4909   24.2683 N   0  0  0  0  0  0  0  0  0  0  0  0
   22.3167   10.2150   23.7986 C   0  0  0  0  0  0  0  0  0  0  0  0
   21.1959   12.3828   23.5877 C   0  0  0  0  0  0  0  0  0  0  0  0
   22.1047    9.9162   22.4714 N   0  0  0  0  0  0  0  0  0  0  0  0
   19.3729   10.2717   21.1690 N   0  0  0  0  0  0  0  0  0  0  0  0
   20.6805   10.2062   20.5144 C   0  0  0  0  0  0  0  0  0  0  0  0
   19.3048   11.2314   22.2785 C   0  0  0  0  0  0  0  0  0  0  0  0
   22.7875    9.2834   24.6191 N   0  0  0  0  0  0  0  0  0  0  0  0
   20.8823   13.4889   24.0191 O   0  0  0  0  0  0  0  0  0  0  0  0
   22.6184   11.9464   25.5583 C   0  0  0  0  0  0  0  0  0  0  0  0
   22.2931    9.0026   22.1565 H   0  0  0  0  0  0  0  0  0  0  0  0
   22.9915    8.3832   24.2765 H   0  0  0  0  0  0  0  0  0  0  0  0
   18.3233    9.4928   20.7404 C   0  0  0  0  0  0  0  0  0  0  0  0
   18.6409    8.5136   19.8563 N   0  0  0  0  0  0  0  0  0  0  0  0
   16.9817    9.6778   21.1735 C   0  0  0  0  0  0  0  0  0  0  0  0
   17.6962    7.6853   19.3615 C   0  0  0  0  0  0  0  0  0  0  0  0
   15.9882    8.8106   20.6584 C   0  0  0  0  0  0  0  0  0  0  0  0
   16.3489    7.7966   19.7355 C   0  0  0  0  0  0  0  0  0  0  0  0
   18.0434    6.6851   18.4557 O   0  0  0  0  0  0  0  0  0  0  0  0
   19.0210    7.0665   17.4863 C   0  0  0  0  0  0  0  0  0  0  0  0
   22.7436   11.6607   20.8322 C   0  0  0  0  0  0  0  0  0  0  0  0
   23.5482   12.7238   21.3954 C   0  0  0  0  0  0  0  0  0  0  0  0
   24.5374   13.2272   20.5115 C   0  0  0  0  0  0  0  0  0  0  0  0
   23.2774   11.3748   19.2360 S   0  0  0  0  0  0  0  0  0  0  0  0
   24.4970   12.5647   19.2720 C   0  0  0  0  0  0  0  0  0  0  0  0
   25.4838   14.3429   20.8744 C   0  0  0  0  0  0  0  0  0  0  0  0
   26.7192   14.0761   21.5118 C   0  0  0  0  0  0  0  0  0  0  0  0
   27.6076   15.1116   21.8673 C   0  0  0  0  0  0  0  0  0  0  0  0
   25.1676   15.7036   20.6068 C   0  0  0  0  0  0  0  0  0  0  0  0
   26.0574   16.7519   20.9607 C   0  0  0  0  0  0  0  0  0  0  0  0
   27.2898   16.4618   21.5962 C   0  0  0  0  0  0  0  0  0  0  0  0
   29.8216   14.5016   23.0466 N   0  0  0  0  0  0  0  0  0  0  0  0
   28.8393   14.7736   22.5078 C   0  0  0  0  0  0  0  0  0  0  0  0
 22 21  1  0  0  0
 21 18  1  0  0  0
 27 26  1  0  0  0
 27 25  2  0  0  0
 26 23  1  0  0  0
 31 32  2  0  0  0
 31 28  1  0  0  0
 18 16  2  0  0  0
 18 20  1  0  0  0
 32 33  1  0  0  0
 16 15  1  0  0  0
 25 28  1  0  0  0
 25 24  1  0  0  0
 20 19  2  0  0  0
 28 29  2  0  0  0
  8  7  1  0  0  0
  8  1  1  0  0  0
 23 24  2  0  0  0
 23  1  1  0  0  0
 33 30  2  0  0  0
 15  7  1  0  0  0
 15 17  2  0  0  0
 19 17  1  0  0  0
  7  9  1  0  0  0
  1  2  1  0  0  0
  1  6  1  0  0  0
 29 30  1  0  0  0
 30 35  1  0  0  0
  2  9  1  0  0  0
  2  5  1  0  0  0
  6  4  1  0  0  0
 35 34  3  0  0  0
  5 11  2  0  0  0
  5  3  1  0  0  0
  4  3  1  0  0  0
  4 10  2  0  0  0
  3 12  1  0  0  0
  6 13  1  0  0  0
 10 14  1  0  0  0
M  END
> <minimizedAffinity>
-9.87640

$$$$
4H3F_10O_A_502


 35 39  0  0  0  0  0  0  0  0999 V2000
   21.8530   10.9294   21.5604 C   0  0  0  0  0  0  0  0  0  0  0  0
   20.5806   11.6657   22.0283 C   0  0  0  0  0  0  0  0  0  0  0  0
   21.4446   11.3420   24.3570 N   0  0  0  0  0  0  0  0  0  0  0  0
   22.1130   10.1966   23.9379 C   0  0  0  0  0  0  0  0  0  0  0  0
   20.6352   12.1038   23.5150 C   0  0  0  0  0  0  0  0  0  0  0  0
   22.3023    9.9766   22.5920 N   0  0  0  0  0  0  0  0  0  0  0  0
   19.9625    9.8846   20.6422 N   0  0  0  0  0  0  0  0  0  0  0  0
   21.3726   10.1409   20.3446 C   0  0  0  0  0  0  0  0  0  0  0  0
   19.4183   10.7116   21.7270 C   0  0  0  0  0  0  0  0  0  0  0  0
   22.5592    9.3120   24.8218 N   0  0  0  0  0  0  0  0  0  0  0  0
   19.9932   13.0825   23.8863 O   0  0  0  0  0  0  0  0  0  0  0  0
   21.5917   11.7952   25.7705 C   0  0  0  0  0  0  0  0  0  0  0  0
   22.7557    9.1504   22.3072 H   0  0  0  0  0  0  0  0  0  0  0  0
   23.0312    8.5044   24.5146 H   0  0  0  0  0  0  0  0  0  0  0  0
   19.2445    8.9499   19.9331 C   0  0  0  0  0  0  0  0  0  0  0  0
   17.9745    8.7364   20.3609 N   0  0  0  0  0  0  0  0  0  0  0  0
   19.7702    8.2348   18.8223 C   0  0  0  0  0  0  0  0  0  0  0  0
   17.1713    7.8412   19.7468 C   0  0  0  0  0  0  0  0  0  0  0  0
   18.9311    7.2964   18.1746 C   0  0  0  0  0  0  0  0  0  0  0  0
   17.6086    7.0934   18.6436 C   0  0  0  0  0  0  0  0  0  0  0  0
   15.8698    7.6377   20.2007 O   0  0  0  0  0  0  0  0  0  0  0  0
   15.5365    8.3377   21.4007 C   0  0  0  0  0  0  0  0  0  0  0  0
   22.9288   11.9486   21.2293 C   0  0  0  0  0  0  0  0  0  0  0  0
   23.3508   13.0745   22.0349 C   0  0  0  0  0  0  0  0  0  0  0  0
   24.3840   13.8486   21.4463 C   0  0  0  0  0  0  0  0  0  0  0  0
   23.8490   11.9459   19.7914 S   0  0  0  0  0  0  0  0  0  0  0  0
   24.7564   13.3315   20.1931 C   0  0  0  0  0  0  0  0  0  0  0  0
   24.9744   15.0745   22.0950 C   0  0  0  0  0  0  0  0  0  0  0  0
   24.8711   15.2851   23.4910 C   0  0  0  0  0  0  0  0  0  0  0  0
   25.4083   16.4334   24.1081 C   0  0  0  0  0  0  0  0  0  0  0  0
   25.6416   16.0722   21.3318 C   0  0  0  0  0  0  0  0  0  0  0  0
   26.1861   17.2307   21.9460 C   0  0  0  0  0  0  0  0  0  0  0  0
   26.0731   17.4202   23.3453 C   0  0  0  0  0  0  0  0  0  0  0  0
   25.1757   16.6882   26.6666 N   0  0  0  0  0  0  0  0  0  0  0  0
   25.2703   16.5844   25.5223 C   0  0  0  0  0  0  0  0  0  0  0  0
 22 21  1  0  0  0
 21 18  1  0  0  0
 27 26  1  0  0  0
 27 25  2  0  0  0
 26 23  1  0  0  0
 31 32  2  0  0  0
 31 28  1  0  0  0
 18 16  2  0  0  0
 18 20  1  0  0  0
 32 33  1  0  0  0
 16 15  1  0  0  0
 25 28  1  0  0  0
 25 24  1  0  0  0
 20 19  2  0  0  0
 28 29  2  0  0  0
  8  7  1  0  0  0
  8  1  1  0  0  0
 23 24  2  0  0  0
 23  1  1  0  0  0
 33 30  2  0  0  0
 15  7  1  0  0  0
 15 17  2  0  0  0
 19 17  1  0  0  0
  7  9  1  0  0  0
  1  2  1  0  0  0
  1  6  1  0  0  0
 29 30  1  0  0  0
 30 35  1  0  0  0
  2  9  1  0  0  0
  2  5  1  0  0  0
  6  4  1  0  0  0
 35 34  3  0  0  0
  5 11  2  0  0  0
  5  3  1  0  0  0
  4  3  1  0  0  0
  4 10  2  0  0  0
  3 12  1  0  0  0
  6 13  1  0  0  0
 10 14  1  0  0  0
M  END
> <minimizedAffinity>
-9.58422

$$$$
4H3F_10O_A_502


 35 39  0  0  0  0  0  0  0  0999 V2000
   20.6235   11.1834   23.1454 C   0  0  0  0  0  0  0  0  0  0  0  0
   19.5820   12.3146   23.2712 C   0  0  0  0  0  0  0  0  0  0  0  0
   20.0817   12.2824   25.7255 N   0  0  0  0  0  0  0  0  0  0  0  0
   20.4243   10.9381   25.6268 C   0  0  0  0  0  0  0  0  0  0  0  0
   19.6163   13.0321   24.6457 C   0  0  0  0  0  0  0  0  0  0  0  0
   20.6719   10.3910   24.3879 N   0  0  0  0  0  0  0  0  0  0  0  0
   18.6096   10.5069   22.1476 N   0  0  0  0  0  0  0  0  0  0  0  0
   20.0552   10.3084   22.0310 C   0  0  0  0  0  0  0  0  0  0  0  0
   18.2272   11.6625   22.9693 C   0  0  0  0  0  0  0  0  0  0  0  0
   20.5042   10.1787   26.7130 N   0  0  0  0  0  0  0  0  0  0  0  0
   19.2548   14.2024   24.7319 O   0  0  0  0  0  0  0  0  0  0  0  0
   20.2156   12.9737   27.0404 C   0  0  0  0  0  0  0  0  0  0  0  0
   20.8899    9.4327   24.3292 H   0  0  0  0  0  0  0  0  0  0  0  0
   20.7476    9.2282   26.6322 H   0  0  0  0  0  0  0  0  0  0  0  0
   17.7230    9.6670   21.5148 C   0  0  0  0  0  0  0  0  0  0  0  0
   18.1941    9.0433   20.4055 N   0  0  0  0  0  0  0  0  0  0  0  0
   16.3926    9.4474   21.9659 C   0  0  0  0  0  0  0  0  0  0  0  0
   17.4173    8.1960   19.6970 C   0  0  0  0  0  0  0  0  0  0  0  0
   15.5752    8.5587   21.2268 C   0  0  0  0  0  0  0  0  0  0  0  0
   16.0937    7.9214   20.0713 C   0  0  0  0  0  0  0  0  0  0  0  0
   17.9206    7.5645   18.5615 O   0  0  0  0  0  0  0  0  0  0  0  0
   19.3093    7.7913   18.3146 C   0  0  0  0  0  0  0  0  0  0  0  0
   21.9769   11.7834   22.8079 C   0  0  0  0  0  0  0  0  0  0  0  0
   22.4854   12.1229   21.4960 C   0  0  0  0  0  0  0  0  0  0  0  0
   23.7955   12.6678   21.5096 C   0  0  0  0  0  0  0  0  0  0  0  0
   23.1775   12.1625   23.9608 S   0  0  0  0  0  0  0  0  0  0  0  0
   24.3010   12.7451   22.8193 C   0  0  0  0  0  0  0  0  0  0  0  0
   24.5340   13.0835   20.2630 C   0  0  0  0  0  0  0  0  0  0  0  0
   24.9901   14.4125   20.0918 C   0  0  0  0  0  0  0  0  0  0  0  0
   25.6712   14.8169   18.9255 C   0  0  0  0  0  0  0  0  0  0  0  0
   24.7867   12.1652   19.2065 C   0  0  0  0  0  0  0  0  0  0  0  0
   25.4729   12.5645   18.0294 C   0  0  0  0  0  0  0  0  0  0  0  0
   25.9225   13.8996   17.8801 C   0  0  0  0  0  0  0  0  0  0  0  0
   26.4561   17.2703   18.7532 N   0  0  0  0  0  0  0  0  0  0  0  0
   26.1059   16.1737   18.8164 C   0  0  0  0  0  0  0  0  0  0  0  0
 22 21  1  0  0  0
 21 18  1  0  0  0
 27 26  1  0  0  0
 27 25  2  0  0  0
 26 23  1  0  0  0
 31 32  2  0  0  0
 31 28  1  0  0  0
 18 16  2  0  0  0
 18 20  1  0  0  0
 32 33  1  0  0  0
 16 15  1  0  0  0
 25 28  1  0  0  0
 25 24  1  0  0  0
 20 19  2  0  0  0
 28 29  2  0  0  0
  8  7  1  0  0  0
  8  1  1  0  0  0
 23 24  2  0  0  0
 23  1  1  0  0  0
 33 30  2  0  0  0
 15  7  1  0  0  0
 15 17  2  0  0  0
 19 17  1  0  0  0
  7  9  1  0  0  0
  1  2  1  0  0  0
  1  6  1  0  0  0
 29 30  1  0  0  0
 30 35  1  0  0  0
  2  9  1  0  0  0
  2  5  1  0  0  0
  6  4  1  0  0  0
 35 34  3  0  0  0
  5 11  2  0  0  0
  5  3  1  0  0  0
  4  3  1  0  0  0
  4 10  2  0  0  0
  3 12  1  0  0  0
  6 13  1  0  0  0
 10 14  1  0  0  0
M  END
> <minimizedAffinity>
-9.50930

$$$$
4H3F_10O_A_502


 35 39  0  0  0  0  0  0  0  0999 V2000
   21.9080   10.7169   21.9033 C   0  0  0  0  0  0  0  0  0  0  0  0
   20.7018   11.6561   22.1112 C   0  0  0  0  0  0  0  0  0  0  0  0
   21.1396   11.4109   24.5653 N   0  0  0  0  0  0  0  0  0  0  0  0
   21.6876   10.1544   24.3307 C   0  0  0  0  0  0  0  0  0  0  0  0
   20.5911   12.2039   23.5579 C   0  0  0  0  0  0  0  0  0  0  0  0
   22.0472    9.8002   23.0497 N   0  0  0  0  0  0  0  0  0  0  0  0
   20.0478    9.8677   20.7512 N   0  0  0  0  0  0  0  0  0  0  0  0
   21.5091    9.9037   20.6744 C   0  0  0  0  0  0  0  0  0  0  0  0
   19.4716   10.8480   21.6806 C   0  0  0  0  0  0  0  0  0  0  0  0
   21.8566    9.2931   25.3270 N   0  0  0  0  0  0  0  0  0  0  0  0
   20.0516   13.2883   23.7597 O   0  0  0  0  0  0  0  0  0  0  0  0
   21.1327   11.9550   25.9541 C   0  0  0  0  0  0  0  0  0  0  0  0
   22.4117    8.8992   22.8930 H   0  0  0  0  0  0  0  0  0  0  0  0
   22.2455    8.4061   25.1502 H   0  0  0  0  0  0  0  0  0  0  0  0
   19.3172    8.9845   19.9909 C   0  0  0  0  0  0  0  0  0  0  0  0
   18.0247    8.8144   20.3676 N   0  0  0  0  0  0  0  0  0  0  0  0
   19.8523    8.2777   18.8792 C   0  0  0  0  0  0  0  0  0  0  0  0
   17.2073    7.9718   19.7003 C   0  0  0  0  0  0  0  0  0  0  0  0
   18.9984    7.3943   18.1759 C   0  0  0  0  0  0  0  0  0  0  0  0
   17.6524    7.2360   18.5922 C   0  0  0  0  0  0  0  0  0  0  0  0
   15.8827    7.8124   20.1023 O   0  0  0  0  0  0  0  0  0  0  0  0
   15.5548    8.4321   21.3471 C   0  0  0  0  0  0  0  0  0  0  0  0
   23.1607   11.5489   21.6931 C   0  0  0  0  0  0  0  0  0  0  0  0
   24.4006   11.1302   21.0749 C   0  0  0  0  0  0  0  0  0  0  0  0
   25.3923   12.1440   21.0291 C   0  0  0  0  0  0  0  0  0  0  0  0
   23.3292   13.1767   22.1794 S   0  0  0  0  0  0  0  0  0  0  0  0
   24.9281   13.3366   21.6115 C   0  0  0  0  0  0  0  0  0  0  0  0
   26.7653   11.9356   20.4431 C   0  0  0  0  0  0  0  0  0  0  0  0
   27.5567   13.0323   20.0254 C   0  0  0  0  0  0  0  0  0  0  0  0
   28.8374   12.8500   19.4646 C   0  0  0  0  0  0  0  0  0  0  0  0
   27.3117   10.6335   20.2721 C   0  0  0  0  0  0  0  0  0  0  0  0
   28.6009   10.4418   19.7092 C   0  0  0  0  0  0  0  0  0  0  0  0
   29.3768   11.5541   19.2998 C   0  0  0  0  0  0  0  0  0  0  0  0
   30.1951   14.9160   18.7210 N   0  0  0  0  0  0  0  0  0  0  0  0
   29.5848   14.0002   19.0643 C   0  0  0  0  0  0  0  0  0  0  0  0
 22 21  1  0  0  0
 21 18  1  0  0  0
 27 26  1  0  0  0
 27 25  2  0  0  0
 26 23  1  0  0  0
 31 32  2  0  0  0
 31 28  1  0  0  0
 18 16  2  0  0  0
 18 20  1  0  0  0
 32 33  1  0  0  0
 16 15  1  0  0  0
 25 28  1  0  0  0
 25 24  1  0  0  0
 20 19  2  0  0  0
 28 29  2  0  0  0
  8  7  1  0  0  0
  8  1  1  0  0  0
 23 24  2  0  0  0
 23  1  1  0  0  0
 33 30  2  0  0  0
 15  7  1  0  0  0
 15 17  2  0  0  0
 19 17  1  0  0  0
  7  9  1  0  0  0
  1  2  1  0  0  0
  1  6  1  0  0  0
 29 30  1  0  0  0
 30 35  1  0  0  0
  2  9  1  0  0  0
  2  5  1  0  0  0
  6  4  1  0  0  0
 35 34  3  0  0  0
  5 11  2  0  0  0
  5  3  1  0  0  0
  4  3  1  0  0  0
  4 10  2  0  0  0
  3 12  1  0  0  0
  6 13  1  0  0  0
 10 14  1  0  0  0
M  END
> <minimizedAffinity>
-9.48080

$$$$
4H3F_10O_A_502


 35 39  0  0  0  0  0  0  0  0999 V2000
   20.4603   11.4512   23.0831 C   0  0  0  0  0  0  0  0  0  0  0  0
   19.3150   12.4435   23.3722 C   0  0  0  0  0  0  0  0  0  0  0  0
   20.0056   12.2905   25.7751 N   0  0  0  0  0  0  0  0  0  0  0  0
   20.4837   11.0051   25.5443 C   0  0  0  0  0  0  0  0  0  0  0  0
   19.3784   13.0584   24.7946 C   0  0  0  0  0  0  0  0  0  0  0  0
   20.6917   10.5814   24.2509 N   0  0  0  0  0  0  0  0  0  0  0  0
   18.4602   10.6228   22.1764 N   0  0  0  0  0  0  0  0  0  0  0  0
   19.9052   10.6001   21.9437 C   0  0  0  0  0  0  0  0  0  0  0  0
   18.0197   11.6642   23.1135 C   0  0  0  0  0  0  0  0  0  0  0  0
   20.7304   10.1829   26.5572 N   0  0  0  0  0  0  0  0  0  0  0  0
   18.8996   14.1703   25.0001 O   0  0  0  0  0  0  0  0  0  0  0  0
   20.1660   12.8952   27.1292 C   0  0  0  0  0  0  0  0  0  0  0  0
   21.0074    9.6612   24.0999 H   0  0  0  0  0  0  0  0  0  0  0  0
   21.0687    9.2749   26.3830 H   0  0  0  0  0  0  0  0  0  0  0  0
   17.6235    9.7350   21.5408 C   0  0  0  0  0  0  0  0  0  0  0  0
   18.1254    9.1519   20.4231 N   0  0  0  0  0  0  0  0  0  0  0  0
   16.3122    9.4291   21.9975 C   0  0  0  0  0  0  0  0  0  0  0  0
   17.3982    8.2643   19.7111 C   0  0  0  0  0  0  0  0  0  0  0  0
   15.5468    8.4980   21.2549 C   0  0  0  0  0  0  0  0  0  0  0  0
   16.0966    7.9045   20.0905 C   0  0  0  0  0  0  0  0  0  0  0  0
   17.9325    7.6755   18.5669 O   0  0  0  0  0  0  0  0  0  0  0  0
   19.3470    7.8162   18.4243 C   0  0  0  0  0  0  0  0  0  0  0  0
   21.7098   12.2252   22.7019 C   0  0  0  0  0  0  0  0  0  0  0  0
   22.6441   11.9184   21.6398 C   0  0  0  0  0  0  0  0  0  0  0  0
   23.7206   12.8370   21.5368 C   0  0  0  0  0  0  0  0  0  0  0  0
   22.2510   13.6345   23.4989 S   0  0  0  0  0  0  0  0  0  0  0  0
   23.6257   13.8439   22.5135 C   0  0  0  0  0  0  0  0  0  0  0  0
   24.8214   12.7136   20.5145 C   0  0  0  0  0  0  0  0  0  0  0  0
   25.7985   11.6940   20.6109 C   0  0  0  0  0  0  0  0  0  0  0  0
   26.8401   11.5753   19.6681 C   0  0  0  0  0  0  0  0  0  0  0  0
   24.9314   13.6226   19.4260 C   0  0  0  0  0  0  0  0  0  0  0  0
   25.9767   13.5090   18.4719 C   0  0  0  0  0  0  0  0  0  0  0  0
   26.9429   12.4793   18.5866 C   0  0  0  0  0  0  0  0  0  0  0  0
   28.5483    9.6626   19.9654 N   0  0  0  0  0  0  0  0  0  0  0  0
   27.7936   10.5224   19.8231 C   0  0  0  0  0  0  0  0  0  0  0  0
 22 21  1  0  0  0
 21 18  1  0  0  0
 27 26  1  0  0  0
 27 25  2  0  0  0
 26 23  1  0  0  0
 31 32  2  0  0  0
 31 28  1  0  0  0
 18 16  2  0  0  0
 18 20  1  0  0  0
 32 33  1  0  0  0
 16 15  1  0  0  0
 25 28  1  0  0  0
 25 24  1  0  0  0
 20 19  2  0  0  0
 28 29  2  0  0  0
  8  7  1  0  0  0
  8  1  1  0  0  0
 23 24  2  0  0  0
 23  1  1  0  0  0
 33 30  2  0  0  0
 15  7  1  0  0  0
 15 17  2  0  0  0
 19 17  1  0  0  0
  7  9  1  0  0  0
  1  2  1  0  0  0
  1  6  1  0  0  0
 29 30  1  0  0  0
 30 35  1  0  0  0
  2  9  1  0  0  0
  2  5  1  0  0  0
  6  4  1  0  0  0
 35 34  3  0  0  0
  5 11  2  0  0  0
  5  3  1  0  0  0
  4  3  1  0  0  0
  4 10  2  0  0  0
  3 12  1  0  0  0
  6 13  1  0  0  0
 10 14  1  0  0  0
M  END
> <minimizedAffinity>
-9.42214

$$$$
4H3F_10O_A_502


 35 39  0  0  0  0  0  0  0  0999 V2000
   25.0323   13.3995   22.8763 C   0  0  0  0  0  0  0  0  0  0  0  0
   25.2354   14.7066   22.0824 C   0  0  0  0  0  0  0  0  0  0  0  0
   25.5689   13.2458   20.0751 N   0  0  0  0  0  0  0  0  0  0  0  0
   26.0349   12.2314   20.9046 C   0  0  0  0  0  0  0  0  0  0  0  0
   25.1967   14.5048   20.5452 C   0  0  0  0  0  0  0  0  0  0  0  0
   25.7979   12.3009   22.2591 N   0  0  0  0  0  0  0  0  0  0  0  0
   26.6877   14.6977   23.9172 N   0  0  0  0  0  0  0  0  0  0  0  0
   25.6476   13.7184   24.2366 C   0  0  0  0  0  0  0  0  0  0  0  0
   26.5659   15.2867   22.5774 C   0  0  0  0  0  0  0  0  0  0  0  0
   26.7128   11.2056   20.4037 N   0  0  0  0  0  0  0  0  0  0  0  0
   24.8400   15.4276   19.8178 O   0  0  0  0  0  0  0  0  0  0  0  0
   25.4509   12.9924   18.6100 C   0  0  0  0  0  0  0  0  0  0  0  0
   26.1537   11.5889   22.8385 H   0  0  0  0  0  0  0  0  0  0  0  0
   27.0383   10.4926   20.9996 H   0  0  0  0  0  0  0  0  0  0  0  0
   27.6673   15.0175   24.8282 C   0  0  0  0  0  0  0  0  0  0  0  0
   28.8682   15.3666   24.3015 N   0  0  0  0  0  0  0  0  0  0  0  0
   27.4680   14.9907   26.2358 C   0  0  0  0  0  0  0  0  0  0  0  0
   29.9091   15.6996   25.0945 C   0  0  0  0  0  0  0  0  0  0  0  0
   28.5562   15.3406   27.0710 C   0  0  0  0  0  0  0  0  0  0  0  0
   29.7997   15.7007   26.4930 C   0  0  0  0  0  0  0  0  0  0  0  0
   31.1336   16.0565   24.5337 O   0  0  0  0  0  0  0  0  0  0  0  0
   32.1129   16.5100   25.4699 C   0  0  0  0  0  0  0  0  0  0  0  0
   23.5492   13.0812   22.9469 C   0  0  0  0  0  0  0  0  0  0  0  0
   22.7682   12.3162   21.9984 C   0  0  0  0  0  0  0  0  0  0  0  0
   21.3976   12.1962   22.3452 C   0  0  0  0  0  0  0  0  0  0  0  0
   22.5106   13.6014   24.1979 S   0  0  0  0  0  0  0  0  0  0  0  0
   21.1165   12.8666   23.5487 C   0  0  0  0  0  0  0  0  0  0  0  0
   20.3905   11.4557   21.5029 C   0  0  0  0  0  0  0  0  0  0  0  0
   19.1427   11.0552   22.0378 C   0  0  0  0  0  0  0  0  0  0  0  0
   18.1972   10.3515   21.2640 C   0  0  0  0  0  0  0  0  0  0  0  0
   20.6590   11.1171   20.1477 C   0  0  0  0  0  0  0  0  0  0  0  0
   19.7117   10.4096   19.3618 C   0  0  0  0  0  0  0  0  0  0  0  0
   18.4679   10.0203   19.9169 C   0  0  0  0  0  0  0  0  0  0  0  0
   15.9630    9.6523   22.3522 N   0  0  0  0  0  0  0  0  0  0  0  0
   16.9559    9.9773   21.8648 C   0  0  0  0  0  0  0  0  0  0  0  0
 22 21  1  0  0  0
 21 18  1  0  0  0
 27 26  1  0  0  0
 27 25  2  0  0  0
 26 23  1  0  0  0
 31 32  2  0  0  0
 31 28  1  0  0  0
 18 16  2  0  0  0
 18 20  1  0  0  0
 32 33  1  0  0  0
 16 15  1  0  0  0
 25 28  1  0  0  0
 25 24  1  0  0  0
 20 19  2  0  0  0
 28 29  2  0  0  0
  8  7  1  0  0  0
  8  1  1  0  0  0
 23 24  2  0  0  0
 23  1  1  0  0  0
 33 30  2  0  0  0
 15  7  1  0  0  0
 15 17  2  0  0  0
 19 17  1  0  0  0
  7  9  1  0  0  0
  1  2  1  0  0  0
  1  6  1  0  0  0
 29 30  1  0  0  0
 30 35  1  0  0  0
  2  9  1  0  0  0
  2  5  1  0  0  0
  6  4  1  0  0  0
 35 34  3  0  0  0
  5 11  2  0  0  0
  5  3  1  0  0  0
  4  3  1  0  0  0
  4 10  2  0  0  0
  3 12  1  0  0  0
  6 13  1  0  0  0
 10 14  1  0  0  0
M  END
> <minimizedAffinity>
-9.14624

$$$$
4H3F_10O_A_502


 35 39  0  0  0  0  0  0  0  0999 V2000
   27.3674   12.8259   19.9939 C   0  0  0  0  0  0  0  0  0  0  0  0
   28.3111   11.8426   19.2709 C   0  0  0  0  0  0  0  0  0  0  0  0
   28.3680   10.5656   21.4250 N   0  0  0  0  0  0  0  0  0  0  0  0
   28.1275   11.7467   22.1187 C   0  0  0  0  0  0  0  0  0  0  0  0
   28.5192   10.5119   20.0398 C   0  0  0  0  0  0  0  0  0  0  0  0
   27.6609   12.8492   21.4386 N   0  0  0  0  0  0  0  0  0  0  0  0
   29.1624   14.0116   19.0555 N   0  0  0  0  0  0  0  0  0  0  0  0
   27.7488   14.1782   19.3970 C   0  0  0  0  0  0  0  0  0  0  0  0
   29.6167   12.6151   19.0457 C   0  0  0  0  0  0  0  0  0  0  0  0
   28.3534   11.8222   23.4249 N   0  0  0  0  0  0  0  0  0  0  0  0
   28.7900    9.4862   19.4213 O   0  0  0  0  0  0  0  0  0  0  0  0
   28.4684    9.2839   22.1814 C   0  0  0  0  0  0  0  0  0  0  0  0
   27.5175   13.6862   21.9367 H   0  0  0  0  0  0  0  0  0  0  0  0
   28.1798   12.6631   23.9066 H   0  0  0  0  0  0  0  0  0  0  0  0
   29.9561   15.0964   18.7635 C   0  0  0  0  0  0  0  0  0  0  0  0
   31.1974   14.8076   18.2974 N   0  0  0  0  0  0  0  0  0  0  0  0
   29.5348   16.4440   18.9309 C   0  0  0  0  0  0  0  0  0  0  0  0
   32.0695   15.7878   17.9778 C   0  0  0  0  0  0  0  0  0  0  0  0
   30.4454   17.4748   18.5956 C   0  0  0  0  0  0  0  0  0  0  0  0
   31.7362   17.1437   18.1114 C   0  0  0  0  0  0  0  0  0  0  0  0
   33.3391   15.4702   17.4995 O   0  0  0  0  0  0  0  0  0  0  0  0
   33.6832   14.0862   17.5840 C   0  0  0  0  0  0  0  0  0  0  0  0
   25.9269   12.4320   19.7189 C   0  0  0  0  0  0  0  0  0  0  0  0
   24.8321   12.3868   20.6645 C   0  0  0  0  0  0  0  0  0  0  0  0
   23.5986   11.9735   20.0979 C   0  0  0  0  0  0  0  0  0  0  0  0
   25.3353   11.9461   18.1930 S   0  0  0  0  0  0  0  0  0  0  0  0
   23.7363   11.6952   18.7266 C   0  0  0  0  0  0  0  0  0  0  0  0
   22.3243   11.8400   20.8919 C   0  0  0  0  0  0  0  0  0  0  0  0
   21.1582   11.2819   20.3154 C   0  0  0  0  0  0  0  0  0  0  0  0
   19.9567   11.1627   21.0436 C   0  0  0  0  0  0  0  0  0  0  0  0
   22.2382   12.2824   22.2410 C   0  0  0  0  0  0  0  0  0  0  0  0
   21.0324   12.1648   22.9812 C   0  0  0  0  0  0  0  0  0  0  0  0
   19.8776   11.6010   22.3849 C   0  0  0  0  0  0  0  0  0  0  0  0
   17.9010   10.1390   19.8643 N   0  0  0  0  0  0  0  0  0  0  0  0
   18.8159   10.5890   20.4023 C   0  0  0  0  0  0  0  0  0  0  0  0
 22 21  1  0  0  0
 21 18  1  0  0  0
 27 26  1  0  0  0
 27 25  2  0  0  0
 26 23  1  0  0  0
 31 32  2  0  0  0
 31 28  1  0  0  0
 18 16  2  0  0  0
 18 20  1  0  0  0
 32 33  1  0  0  0
 16 15  1  0  0  0
 25 28  1  0  0  0
 25 24  1  0  0  0
 20 19  2  0  0  0
 28 29  2  0  0  0
  8  7  1  0  0  0
  8  1  1  0  0  0
 23 24  2  0  0  0
 23  1  1  0  0  0
 33 30  2  0  0  0
 15  7  1  0  0  0
 15 17  2  0  0  0
 19 17  1  0  0  0
  7  9  1  0  0  0
  1  2  1  0  0  0
  1  6  1  0  0  0
 29 30  1  0  0  0
 30 35  1  0  0  0
  2  9  1  0  0  0
  2  5  1  0  0  0
  6  4  1  0  0  0
 35 34  3  0  0  0
  5 11  2  0  0  0
  5  3  1  0  0  0
  4  3  1  0  0  0
  4 10  2  0  0  0
  3 12  1  0  0  0
  6 13  1  0  0  0
 10 14  1  0  0  0
M  END
> <minimizedAffinity>
-9.14494

$$$$
4H3F_10O_A_502


 35 39  0  0  0  0  0  0  0  0999 V2000
   18.7795   11.7972   23.7562 C   0  0  0  0  0  0  0  0  0  0  0  0
   19.0447   13.2521   24.1955 C   0  0  0  0  0  0  0  0  0  0  0  0
   20.9118   12.3224   25.5825 N   0  0  0  0  0  0  0  0  0  0  0  0
   20.2228   11.1186   25.6834 C   0  0  0  0  0  0  0  0  0  0  0  0
   20.4045   13.4383   24.9178 C   0  0  0  0  0  0  0  0  0  0  0  0
   19.1818   10.8592   24.8203 N   0  0  0  0  0  0  0  0  0  0  0  0
   16.7949   12.7385   24.5833 N   0  0  0  0  0  0  0  0  0  0  0  0
   17.2606   11.7479   23.6115 C   0  0  0  0  0  0  0  0  0  0  0  0
   17.8449   13.6445   25.0664 C   0  0  0  0  0  0  0  0  0  0  0  0
   20.5529   10.2254   26.6085 N   0  0  0  0  0  0  0  0  0  0  0  0
   20.9758   14.5243   24.8716 O   0  0  0  0  0  0  0  0  0  0  0  0
   22.2617   12.4436   26.2056 C   0  0  0  0  0  0  0  0  0  0  0  0
   18.6865   10.0139   24.9175 H   0  0  0  0  0  0  0  0  0  0  0  0
   20.0587    9.3762   26.6715 H   0  0  0  0  0  0  0  0  0  0  0  0
   15.4764   12.7883   24.9720 C   0  0  0  0  0  0  0  0  0  0  0  0
   14.9882   11.6568   25.5400 N   0  0  0  0  0  0  0  0  0  0  0  0
   14.6513   13.9336   24.8009 C   0  0  0  0  0  0  0  0  0  0  0  0
   13.7072   11.5824   25.9605 C   0  0  0  0  0  0  0  0  0  0  0  0
   13.3080   13.8605   25.2418 C   0  0  0  0  0  0  0  0  0  0  0  0
   12.8247   12.6650   25.8312 C   0  0  0  0  0  0  0  0  0  0  0  0
   13.2256   10.4116   26.5426 O   0  0  0  0  0  0  0  0  0  0  0  0
   12.1599   10.5996   27.4753 C   0  0  0  0  0  0  0  0  0  0  0  0
   19.5166   11.5236   22.4571 C   0  0  0  0  0  0  0  0  0  0  0  0
   20.9190   11.7474   22.1781 C   0  0  0  0  0  0  0  0  0  0  0  0
   21.3080   11.3919   20.8607 C   0  0  0  0  0  0  0  0  0  0  0  0
   18.7857   10.8933   21.0489 S   0  0  0  0  0  0  0  0  0  0  0  0
   20.2162   10.9020   20.1225 C   0  0  0  0  0  0  0  0  0  0  0  0
   22.7139   11.5482   20.3401 C   0  0  0  0  0  0  0  0  0  0  0  0
   23.7701   11.9468   21.1940 C   0  0  0  0  0  0  0  0  0  0  0  0
   25.0870   12.1083   20.7168 C   0  0  0  0  0  0  0  0  0  0  0  0
   23.0311   11.3183   18.9727 C   0  0  0  0  0  0  0  0  0  0  0  0
   24.3548   11.4778   18.4848 C   0  0  0  0  0  0  0  0  0  0  0  0
   25.3972   11.8755   19.3578 C   0  0  0  0  0  0  0  0  0  0  0  0
   26.9475   12.8273   22.3559 N   0  0  0  0  0  0  0  0  0  0  0  0
   26.1073   12.5121   21.6321 C   0  0  0  0  0  0  0  0  0  0  0  0
 22 21  1  0  0  0
 21 18  1  0  0  0
 27 26  1  0  0  0
 27 25  2  0  0  0
 26 23  1  0  0  0
 31 32  2  0  0  0
 31 28  1  0  0  0
 18 16  2  0  0  0
 18 20  1  0  0  0
 32 33  1  0  0  0
 16 15  1  0  0  0
 25 28  1  0  0  0
 25 24  1  0  0  0
 20 19  2  0  0  0
 28 29  2  0  0  0
  8  7  1  0  0  0
  8  1  1  0  0  0
 23 24  2  0  0  0
 23  1  1  0  0  0
 33 30  2  0  0  0
 15  7  1  0  0  0
 15 17  2  0  0  0
 19 17  1  0  0  0
  7  9  1  0  0  0
  1  2  1  0  0  0
  1  6  1  0  0  0
 29 30  1  0  0  0
 30 35  1  0  0  0
  2  9  1  0  0  0
  2  5  1  0  0  0
  6  4  1  0  0  0
 35 34  3  0  0  0
  5 11  2  0  0  0
  5  3  1  0  0  0
  4  3  1  0  0  0
  4 10  2  0  0  0
  3 12  1  0  0  0
  6 13  1  0  0  0
 10 14  1  0  0  0
M  END
> <minimizedAffinity>
-8.93439

$$$$
4H3F_10O_A_502


 35 39  0  0  0  0  0  0  0  0999 V2000
   23.8797   13.6517   23.0221 C   0  0  0  0  0  0  0  0  0  0  0  0
   24.1118   12.8334   24.3091 C   0  0  0  0  0  0  0  0  0  0  0  0
   21.8964   13.7151   25.0765 N   0  0  0  0  0  0  0  0  0  0  0  0
   22.0890   14.8487   24.2941 C   0  0  0  0  0  0  0  0  0  0  0  0
   22.8413   12.6957   25.1879 C   0  0  0  0  0  0  0  0  0  0  0  0
   23.0530   14.8379   23.3111 N   0  0  0  0  0  0  0  0  0  0  0  0
   25.9681   14.2087   23.9370 N   0  0  0  0  0  0  0  0  0  0  0  0
   25.2844   14.1163   22.6460 C   0  0  0  0  0  0  0  0  0  0  0  0
   25.2704   13.5278   25.0354 C   0  0  0  0  0  0  0  0  0  0  0  0
   21.3604   15.9405   24.4938 N   0  0  0  0  0  0  0  0  0  0  0  0
   22.7093   11.7189   25.9202 O   0  0  0  0  0  0  0  0  0  0  0  0
   20.6224   13.5628   25.8372 C   0  0  0  0  0  0  0  0  0  0  0  0
   23.1960   15.6545   22.7802 H   0  0  0  0  0  0  0  0  0  0  0  0
   21.5047   16.7377   23.9344 H   0  0  0  0  0  0  0  0  0  0  0  0
   27.1652   14.8746   24.0619 C   0  0  0  0  0  0  0  0  0  0  0  0
   28.1862   14.3940   23.3083 N   0  0  0  0  0  0  0  0  0  0  0  0
   27.3541   15.9942   24.9177 C   0  0  0  0  0  0  0  0  0  0  0  0
   29.4106   14.9622   23.3462 C   0  0  0  0  0  0  0  0  0  0  0  0
   28.6358   16.5939   24.9595 C   0  0  0  0  0  0  0  0  0  0  0  0
   29.6843   16.0702   24.1616 C   0  0  0  0  0  0  0  0  0  0  0  0
   30.4454   14.4543   22.5635 O   0  0  0  0  0  0  0  0  0  0  0  0
   31.5860   15.3070   22.4500 C   0  0  0  0  0  0  0  0  0  0  0  0
   23.2391   12.7622   21.9713 C   0  0  0  0  0  0  0  0  0  0  0  0
   21.9068   12.1970   21.9916 C   0  0  0  0  0  0  0  0  0  0  0  0
   21.6018   11.4007   20.8575 C   0  0  0  0  0  0  0  0  0  0  0  0
   24.0153   12.2492   20.5399 S   0  0  0  0  0  0  0  0  0  0  0  0
   22.6893   11.3439   19.9682 C   0  0  0  0  0  0  0  0  0  0  0  0
   20.2804   10.7011   20.6662 C   0  0  0  0  0  0  0  0  0  0  0  0
   20.1768    9.5403   19.8628 C   0  0  0  0  0  0  0  0  0  0  0  0
   18.9446    8.8838   19.6661 C   0  0  0  0  0  0  0  0  0  0  0  0
   19.0872   11.1865   21.2693 C   0  0  0  0  0  0  0  0  0  0  0  0
   17.8428   10.5304   21.0769 C   0  0  0  0  0  0  0  0  0  0  0  0
   17.7625    9.3686   20.2704 C   0  0  0  0  0  0  0  0  0  0  0  0
   18.8875    6.7597   18.1999 N   0  0  0  0  0  0  0  0  0  0  0  0
   18.9093    7.7158   18.8438 C   0  0  0  0  0  0  0  0  0  0  0  0
 22 21  1  0  0  0
 21 18  1  0  0  0
 27 26  1  0  0  0
 27 25  2  0  0  0
 26 23  1  0  0  0
 31 32  2  0  0  0
 31 28  1  0  0  0
 18 16  2  0  0  0
 18 20  1  0  0  0
 32 33  1  0  0  0
 16 15  1  0  0  0
 25 28  1  0  0  0
 25 24  1  0  0  0
 20 19  2  0  0  0
 28 29  2  0  0  0
  8  7  1  0  0  0
  8  1  1  0  0  0
 23 24  2  0  0  0
 23  1  1  0  0  0
 33 30  2  0  0  0
 15  7  1  0  0  0
 15 17  2  0  0  0
 19 17  1  0  0  0
  7  9  1  0  0  0
  1  2  1  0  0  0
  1  6  1  0  0  0
 29 30  1  0  0  0
 30 35  1  0  0  0
  2  9  1  0  0  0
  2  5  1  0  0  0
  6  4  1  0  0  0
 35 34  3  0  0  0
  5 11  2  0  0  0
  5  3  1  0  0  0
  4  3  1  0  0  0
  4 10  2  0  0  0
  3 12  1  0  0  0
  6 13  1  0  0  0
 10 14  1  0  0  0
M  END
> <minimizedAffinity>
-8.93295

$$$$
