5DEY_59T_A_601


 38 42  0  0  0  0  0  0  0  0999 V2000
   17.4548  -15.3980   12.8903 C   0  0  0  0  0  0  0  0  0  0  0  0
   15.5424  -16.1653   17.0699 C   0  0  0  0  0  0  0  0  0  0  0  0
   17.6086  -17.1278   16.6995 C   0  0  0  0  0  0  0  0  0  0  0  0
   18.7017  -16.7425   14.5133 C   0  0  0  0  0  0  0  0  0  0  0  0
   18.6470  -16.1654   13.2646 C   0  0  0  0  0  0  0  0  0  0  0  0
   17.3937  -14.9175   11.7748 O   0  0  0  0  0  0  0  0  0  0  0  0
   16.4442  -15.2070   13.7704 N   0  0  0  0  0  0  0  0  0  0  0  0
   16.5031  -15.7752   15.0181 C   0  0  0  0  0  0  0  0  0  0  0  0
   15.4980  -15.6183   15.8713 N   0  0  0  0  0  0  0  0  0  0  0  0
   16.5660  -16.9045   17.4913 N   0  0  0  0  0  0  0  0  0  0  0  0
   17.6128  -16.5650   15.4070 C   0  0  0  0  0  0  0  0  0  0  0  0
   21.8587  -16.3391   10.4198 C   0  0  0  0  0  0  0  0  0  0  0  0
   19.6889  -17.0907   11.1617 C   0  0  0  0  0  0  0  0  0  0  0  0
   21.9421  -15.4923   11.5290 C   0  0  0  0  0  0  0  0  0  0  0  0
   20.7267  -17.1323   10.2507 C   0  0  0  0  0  0  0  0  0  0  0  0
   19.7680  -16.2527   12.2758 C   0  0  0  0  0  0  0  0  0  0  0  0
   20.9043  -15.4517   12.4410 C   0  0  0  0  0  0  0  0  0  0  0  0
   18.3027  -18.0959   10.9071 Cl  0  0  0  0  0  0  0  0  0  0  0  0
   22.6333  -16.2966    8.1227 N   0  0  0  0  0  0  0  0  0  0  0  0
   22.9456  -16.4354    9.4048 C   0  0  0  0  0  0  0  0  0  0  0  0
   24.2639  -16.6863    9.7784 C   0  0  0  0  0  0  0  0  0  0  0  0
   25.2285  -16.7800    8.7864 C   0  0  0  0  0  0  0  0  0  0  0  0
   24.8548  -16.6200    7.4566 C   0  0  0  0  0  0  0  0  0  0  0  0
   23.0984  -16.1983    5.7360 C   0  0  0  0  0  0  0  0  0  0  0  0
   23.5305  -16.3755    7.1647 C   0  0  0  0  0  0  0  0  0  0  0  0
   13.2771  -15.3041   17.3045 C   0  0  0  0  0  0  0  0  0  0  0  0
   14.4628  -15.9372   17.8905 N   0  0  0  0  0  0  0  0  0  0  0  0
   14.4853  -16.1909   18.8415 H   0  0  0  0  0  0  0  0  0  0  0  0
   15.2642  -14.4289   13.3872 C   0  0  0  0  0  0  0  0  0  0  0  0
   15.6120  -12.9399   13.5281 C   0  0  0  0  0  0  0  0  0  0  0  0
   16.7551  -12.7436   14.3610 O   0  0  0  0  0  0  0  0  0  0  0  0
   17.0499  -11.3672   14.6069 C   0  0  0  0  0  0  0  0  0  0  0  0
   17.2783  -10.6564   13.2729 C   0  0  0  0  0  0  0  0  0  0  0  0
   16.0815  -10.9372   12.3514 C   0  0  0  0  0  0  0  0  0  0  0  0
   15.8737  -12.3542   12.2508 O   0  0  0  0  0  0  0  0  0  0  0  0
   17.4013   -9.2125   13.5114 N   0  0  0  0  0  0  0  0  0  0  0  0
   16.5489   -8.8669   13.9521 H   0  0  0  0  0  0  0  0  0  0  0  0
   17.5436   -8.7321   12.6230 H   0  0  0  0  0  0  0  0  0  0  0  0
 19 20  2  0  0  0
 19 25  1  0  0  0
 20 21  1  0  0  0
 20 12  1  0  0  0
 21 22  2  0  0  0
 22 23  1  0  0  0
 23 25  2  0  0  0
 12 14  2  0  0  0
 12 15  1  0  0  0
 13 15  2  0  0  0
 13 16  1  0  0  0
 13 18  1  0  0  0
 14 17  1  0  0  0
  1  5  1  0  0  0
  1  6  2  0  0  0
  1  7  1  0  0  0
  2  9  2  0  0  0
  2 10  1  0  0  0
  2 27  1  0  0  0
  3 10  2  0  0  0
  3 11  1  0  0  0
  4  5  2  0  0  0
  4 11  1  0  0  0
 26 27  1  0  0  0
 30 31  1  0  0  0
 30 35  1  0  0  0
 24 25  1  0  0  0
 16 17  2  0  0  0
 16  5  1  0  0  0
  7  8  1  0  0  0
  7 29  1  0  0  0
  8  9  1  0  0  0
  8 11  2  0  0  0
 31 32  1  0  0  0
 32 33  1  0  0  0
 33 34  1  0  0  0
 33 36  1  0  0  0
 34 35  1  0  0  0
 29 30  1  0  0  0
 27 28  1  0  0  0
 36 37  1  0  0  0
 36 38  1  0  0  0
M  END
> <minimizedAffinity>
-11.45261

$$$$
5DEY_59T_A_601


 38 42  0  0  0  0  0  0  0  0999 V2000
   16.9888  -15.2725   12.8868 C   0  0  0  0  0  0  0  0  0  0  0  0
   15.3501  -16.0909   17.1715 C   0  0  0  0  0  0  0  0  0  0  0  0
   17.3964  -17.0326   16.6632 C   0  0  0  0  0  0  0  0  0  0  0  0
   18.3464  -16.6197   14.4160 C   0  0  0  0  0  0  0  0  0  0  0  0
   18.2084  -16.0328   13.1784 C   0  0  0  0  0  0  0  0  0  0  0  0
   16.8537  -14.7833   11.7816 O   0  0  0  0  0  0  0  0  0  0  0  0
   16.0343  -15.0975   13.8304 N   0  0  0  0  0  0  0  0  0  0  0  0
   16.1762  -15.6754   15.0668 C   0  0  0  0  0  0  0  0  0  0  0  0
   15.2257  -15.5343   15.9830 N   0  0  0  0  0  0  0  0  0  0  0  0
   16.4041  -16.8247   17.5211 N   0  0  0  0  0  0  0  0  0  0  0  0
   17.3146  -16.4590   15.3781 C   0  0  0  0  0  0  0  0  0  0  0  0
   21.2225  -16.1597   10.1228 C   0  0  0  0  0  0  0  0  0  0  0  0
   19.2713  -17.1222   11.1666 C   0  0  0  0  0  0  0  0  0  0  0  0
   21.2190  -15.1312   11.0697 C   0  0  0  0  0  0  0  0  0  0  0  0
   20.2431  -17.1476   10.1850 C   0  0  0  0  0  0  0  0  0  0  0  0
   19.2655  -16.1022   12.1202 C   0  0  0  0  0  0  0  0  0  0  0  0
   20.2474  -15.1066   12.0524 C   0  0  0  0  0  0  0  0  0  0  0  0
   18.0753  -18.3732   11.2016 Cl  0  0  0  0  0  0  0  0  0  0  0  0
   23.4789  -16.6194    9.3640 N   0  0  0  0  0  0  0  0  0  0  0  0
   22.2461  -16.2481    9.0433 C   0  0  0  0  0  0  0  0  0  0  0  0
   21.9344  -15.9304    7.7233 C   0  0  0  0  0  0  0  0  0  0  0  0
   22.9341  -16.0175    6.7659 C   0  0  0  0  0  0  0  0  0  0  0  0
   24.2094  -16.4184    7.1483 C   0  0  0  0  0  0  0  0  0  0  0  0
   25.8109  -17.1510    8.9151 C   0  0  0  0  0  0  0  0  0  0  0  0
   24.4419  -16.7149    8.4737 C   0  0  0  0  0  0  0  0  0  0  0  0
   13.3126  -14.8735   17.7149 C   0  0  0  0  0  0  0  0  0  0  0  0
   14.3225  -15.8788   18.0605 N   0  0  0  0  0  0  0  0  0  0  0  0
   14.2668  -16.3860   18.9025 H   0  0  0  0  0  0  0  0  0  0  0  0
   14.8262  -14.3263   13.5292 C   0  0  0  0  0  0  0  0  0  0  0  0
   15.0403  -12.8927   14.0361 C   0  0  0  0  0  0  0  0  0  0  0  0
   15.0333  -11.9495   12.9640 O   0  0  0  0  0  0  0  0  0  0  0  0
   15.3363  -10.6159   13.3782 C   0  0  0  0  0  0  0  0  0  0  0  0
   14.3232  -10.1757   14.4349 C   0  0  0  0  0  0  0  0  0  0  0  0
   14.2766  -11.2346   15.5470 C   0  0  0  0  0  0  0  0  0  0  0  0
   14.0243  -12.5256   14.9719 O   0  0  0  0  0  0  0  0  0  0  0  0
   14.7384   -8.8811   14.9903 N   0  0  0  0  0  0  0  0  0  0  0  0
   15.6646   -8.9716   15.4079 H   0  0  0  0  0  0  0  0  0  0  0  0
   14.0710   -8.5874   15.7036 H   0  0  0  0  0  0  0  0  0  0  0  0
 19 20  2  0  0  0
 19 25  1  0  0  0
 20 21  1  0  0  0
 20 12  1  0  0  0
 21 22  2  0  0  0
 22 23  1  0  0  0
 23 25  2  0  0  0
 12 14  2  0  0  0
 12 15  1  0  0  0
 13 15  2  0  0  0
 13 16  1  0  0  0
 13 18  1  0  0  0
 14 17  1  0  0  0
  1  5  1  0  0  0
  1  6  2  0  0  0
  1  7  1  0  0  0
  2  9  2  0  0  0
  2 10  1  0  0  0
  2 27  1  0  0  0
  3 10  2  0  0  0
  3 11  1  0  0  0
  4  5  2  0  0  0
  4 11  1  0  0  0
 26 27  1  0  0  0
 30 31  1  0  0  0
 30 35  1  0  0  0
 24 25  1  0  0  0
 16 17  2  0  0  0
 16  5  1  0  0  0
  7  8  1  0  0  0
  7 29  1  0  0  0
  8  9  1  0  0  0
  8 11  2  0  0  0
 31 32  1  0  0  0
 32 33  1  0  0  0
 33 34  1  0  0  0
 33 36  1  0  0  0
 34 35  1  0  0  0
 29 30  1  0  0  0
 27 28  1  0  0  0
 36 37  1  0  0  0
 36 38  1  0  0  0
M  END
> <minimizedAffinity>
-11.45162

$$$$
5DEY_59T_A_601


 38 42  0  0  0  0  0  0  0  0999 V2000
   17.8004  -14.7434   13.2415 C   0  0  0  0  0  0  0  0  0  0  0  0
   15.4474  -15.9517   17.0778 C   0  0  0  0  0  0  0  0  0  0  0  0
   17.1988  -17.3315   16.4765 C   0  0  0  0  0  0  0  0  0  0  0  0
   18.5144  -16.7402   14.4659 C   0  0  0  0  0  0  0  0  0  0  0  0
   18.7102  -15.8813   13.4080 C   0  0  0  0  0  0  0  0  0  0  0  0
   17.9541  -14.0052   12.2874 O   0  0  0  0  0  0  0  0  0  0  0  0
   16.8164  -14.5006   14.1388 N   0  0  0  0  0  0  0  0  0  0  0  0
   16.6271  -15.3521   15.1981 C   0  0  0  0  0  0  0  0  0  0  0  0
   15.6412  -15.1360   16.0606 N   0  0  0  0  0  0  0  0  0  0  0  0
   16.1993  -17.0279   17.2968 N   0  0  0  0  0  0  0  0  0  0  0  0
   17.4506  -16.4915   15.3728 C   0  0  0  0  0  0  0  0  0  0  0  0
   21.9514  -16.2370   10.6142 C   0  0  0  0  0  0  0  0  0  0  0  0
   19.6472  -16.6542   11.1970 C   0  0  0  0  0  0  0  0  0  0  0  0
   22.1466  -15.6062   11.8464 C   0  0  0  0  0  0  0  0  0  0  0  0
   20.6970  -16.7563   10.3047 C   0  0  0  0  0  0  0  0  0  0  0  0
   19.8363  -16.0320   12.4326 C   0  0  0  0  0  0  0  0  0  0  0  0
   21.0966  -15.5052   12.7395 C   0  0  0  0  0  0  0  0  0  0  0  0
   18.1067  -17.3156   10.7657 Cl  0  0  0  0  0  0  0  0  0  0  0  0
   22.7687  -16.1590    8.3328 N   0  0  0  0  0  0  0  0  0  0  0  0
   23.0435  -16.3855    9.6110 C   0  0  0  0  0  0  0  0  0  0  0  0
   24.3263  -16.7738    9.9906 C   0  0  0  0  0  0  0  0  0  0  0  0
   25.2964  -16.9095    9.0088 C   0  0  0  0  0  0  0  0  0  0  0  0
   24.9633  -16.6541    7.6831 C   0  0  0  0  0  0  0  0  0  0  0  0
   23.2846  -15.9930    5.9604 C   0  0  0  0  0  0  0  0  0  0  0  0
   23.6725  -16.2755    7.3848 C   0  0  0  0  0  0  0  0  0  0  0  0
   13.3989  -14.6908   17.4552 C   0  0  0  0  0  0  0  0  0  0  0  0
   14.4115  -15.6405   17.9271 N   0  0  0  0  0  0  0  0  0  0  0  0
   14.3518  -16.0427   18.8238 H   0  0  0  0  0  0  0  0  0  0  0  0
   15.9219  -13.3539   13.9664 C   0  0  0  0  0  0  0  0  0  0  0  0
   14.9950  -13.6501   12.7786 C   0  0  0  0  0  0  0  0  0  0  0  0
   13.6631  -13.9328   13.2090 O   0  0  0  0  0  0  0  0  0  0  0  0
   12.7917  -14.3196   12.1445 C   0  0  0  0  0  0  0  0  0  0  0  0
   12.7508  -13.2052   11.0988 C   0  0  0  0  0  0  0  0  0  0  0  0
   14.1908  -12.8497   10.6982 C   0  0  0  0  0  0  0  0  0  0  0  0
   14.9559  -12.5443   11.8740 O   0  0  0  0  0  0  0  0  0  0  0  0
   12.0034  -13.6738    9.9247 N   0  0  0  0  0  0  0  0  0  0  0  0
   12.4594  -14.5007    9.5391 H   0  0  0  0  0  0  0  0  0  0  0  0
   11.9818  -12.9373    9.2193 H   0  0  0  0  0  0  0  0  0  0  0  0
 19 20  2  0  0  0
 19 25  1  0  0  0
 20 21  1  0  0  0
 20 12  1  0  0  0
 21 22  2  0  0  0
 22 23  1  0  0  0
 23 25  2  0  0  0
 12 14  2  0  0  0
 12 15  1  0  0  0
 13 15  2  0  0  0
 13 16  1  0  0  0
 13 18  1  0  0  0
 14 17  1  0  0  0
  1  5  1  0  0  0
  1  6  2  0  0  0
  1  7  1  0  0  0
  2  9  2  0  0  0
  2 10  1  0  0  0
  2 27  1  0  0  0
  3 10  2  0  0  0
  3 11  1  0  0  0
  4  5  2  0  0  0
  4 11  1  0  0  0
 26 27  1  0  0  0
 30 31  1  0  0  0
 30 35  1  0  0  0
 24 25  1  0  0  0
 16 17  2  0  0  0
 16  5  1  0  0  0
  7  8  1  0  0  0
  7 29  1  0  0  0
  8  9  1  0  0  0
  8 11  2  0  0  0
 31 32  1  0  0  0
 32 33  1  0  0  0
 33 34  1  0  0  0
 33 36  1  0  0  0
 34 35  1  0  0  0
 29 30  1  0  0  0
 27 28  1  0  0  0
 36 37  1  0  0  0
 36 38  1  0  0  0
M  END
> <minimizedAffinity>
-11.18173

$$$$
5DEY_59T_A_601


 38 42  0  0  0  0  0  0  0  0999 V2000
   16.8078  -15.2881   12.6568 C   0  0  0  0  0  0  0  0  0  0  0  0
   15.3279  -16.0869   17.0026 C   0  0  0  0  0  0  0  0  0  0  0  0
   17.3858  -16.9739   16.4448 C   0  0  0  0  0  0  0  0  0  0  0  0
   18.2529  -16.5685   14.1631 C   0  0  0  0  0  0  0  0  0  0  0  0
   18.0588  -16.0060   12.9216 C   0  0  0  0  0  0  0  0  0  0  0  0
   16.6236  -14.8211   11.5491 O   0  0  0  0  0  0  0  0  0  0  0  0
   15.8778  -15.1271   13.6270 N   0  0  0  0  0  0  0  0  0  0  0  0
   16.0756  -15.6805   14.8671 C   0  0  0  0  0  0  0  0  0  0  0  0
   15.1499  -15.5536   15.8102 N   0  0  0  0  0  0  0  0  0  0  0  0
   16.4144  -16.7826   17.3301 N   0  0  0  0  0  0  0  0  0  0  0  0
   17.2468  -16.4238   15.1544 C   0  0  0  0  0  0  0  0  0  0  0  0
   21.0319  -16.2233    9.8311 C   0  0  0  0  0  0  0  0  0  0  0  0
   19.8727  -14.9503   11.5219 C   0  0  0  0  0  0  0  0  0  0  0  0
   20.2515  -17.3410   10.1408 C   0  0  0  0  0  0  0  0  0  0  0  0
   20.8300  -15.0356   10.5296 C   0  0  0  0  0  0  0  0  0  0  0  0
   19.0844  -16.0603   11.8320 C   0  0  0  0  0  0  0  0  0  0  0  0
   19.2929  -17.2552   11.1328 C   0  0  0  0  0  0  0  0  0  0  0  0
   19.6600  -13.4515   12.3616 Cl  0  0  0  0  0  0  0  0  0  0  0  0
   23.3144  -16.5895    9.0999 N   0  0  0  0  0  0  0  0  0  0  0  0
   22.0760  -16.2477    8.7680 C   0  0  0  0  0  0  0  0  0  0  0  0
   21.7768  -15.9012    7.4524 C   0  0  0  0  0  0  0  0  0  0  0  0
   22.7949  -15.9286    6.5110 C   0  0  0  0  0  0  0  0  0  0  0  0
   24.0757  -16.3005    6.9044 C   0  0  0  0  0  0  0  0  0  0  0  0
   25.6694  -17.0342    8.6777 C   0  0  0  0  0  0  0  0  0  0  0  0
   24.2949  -16.6285    8.2246 C   0  0  0  0  0  0  0  0  0  0  0  0
   13.3333  -14.8455   17.6421 C   0  0  0  0  0  0  0  0  0  0  0  0
   14.3222  -15.8920   17.9200 N   0  0  0  0  0  0  0  0  0  0  0  0
   14.2678  -16.4378   18.7375 H   0  0  0  0  0  0  0  0  0  0  0  0
   14.6378  -14.3980   13.3521 C   0  0  0  0  0  0  0  0  0  0  0  0
   14.6939  -13.0642   14.1108 C   0  0  0  0  0  0  0  0  0  0  0  0
   15.6771  -12.1872   13.5601 O   0  0  0  0  0  0  0  0  0  0  0  0
   15.8383  -10.9765   14.3019 C   0  0  0  0  0  0  0  0  0  0  0  0
   14.4979  -10.2442   14.3656 C   0  0  0  0  0  0  0  0  0  0  0  0
   13.4271  -11.2165   14.8833 C   0  0  0  0  0  0  0  0  0  0  0  0
   13.4262  -12.4048   14.0777 O   0  0  0  0  0  0  0  0  0  0  0  0
   14.6183   -9.0977   15.2756 N   0  0  0  0  0  0  0  0  0  0  0  0
   14.8832   -9.4269   16.2039 H   0  0  0  0  0  0  0  0  0  0  0  0
   13.7234   -8.6113   15.3298 H   0  0  0  0  0  0  0  0  0  0  0  0
 19 20  2  0  0  0
 19 25  1  0  0  0
 20 21  1  0  0  0
 20 12  1  0  0  0
 21 22  2  0  0  0
 22 23  1  0  0  0
 23 25  2  0  0  0
 12 14  2  0  0  0
 12 15  1  0  0  0
 13 15  2  0  0  0
 13 16  1  0  0  0
 13 18  1  0  0  0
 14 17  1  0  0  0
  1  5  1  0  0  0
  1  6  2  0  0  0
  1  7  1  0  0  0
  2  9  2  0  0  0
  2 10  1  0  0  0
  2 27  1  0  0  0
  3 10  2  0  0  0
  3 11  1  0  0  0
  4  5  2  0  0  0
  4 11  1  0  0  0
 26 27  1  0  0  0
 30 31  1  0  0  0
 30 35  1  0  0  0
 24 25  1  0  0  0
 16 17  2  0  0  0
 16  5  1  0  0  0
  7  8  1  0  0  0
  7 29  1  0  0  0
  8  9  1  0  0  0
  8 11  2  0  0  0
 31 32  1  0  0  0
 32 33  1  0  0  0
 33 34  1  0  0  0
 33 36  1  0  0  0
 34 35  1  0  0  0
 29 30  1  0  0  0
 27 28  1  0  0  0
 36 37  1  0  0  0
 36 38  1  0  0  0
M  END
> <minimizedAffinity>
-10.60584

$$$$
5DEY_59T_A_601


 38 42  0  0  0  0  0  0  0  0999 V2000
   16.9870  -15.0096   11.6981 C   0  0  0  0  0  0  0  0  0  0  0  0
   14.7766  -15.5818   15.7603 C   0  0  0  0  0  0  0  0  0  0  0  0
   16.8562  -16.5694   15.5808 C   0  0  0  0  0  0  0  0  0  0  0  0
   18.1049  -16.2866   13.4634 C   0  0  0  0  0  0  0  0  0  0  0  0
   18.1436  -15.7652   12.1898 C   0  0  0  0  0  0  0  0  0  0  0  0
   17.0091  -14.5788   10.5611 O   0  0  0  0  0  0  0  0  0  0  0  0
   15.9180  -14.7750   12.4946 N   0  0  0  0  0  0  0  0  0  0  0  0
   15.8836  -15.2875   13.7671 C   0  0  0  0  0  0  0  0  0  0  0  0
   14.8217  -15.0883   14.5387 N   0  0  0  0  0  0  0  0  0  0  0  0
   15.7618  -16.3063   16.2857 N   0  0  0  0  0  0  0  0  0  0  0  0
   16.9567  -16.0645   14.2685 C   0  0  0  0  0  0  0  0  0  0  0  0
   21.5724  -16.2178    9.6451 C   0  0  0  0  0  0  0  0  0  0  0  0
   20.2119  -14.8376   11.0828 C   0  0  0  0  0  0  0  0  0  0  0  0
   20.6993  -17.2899    9.8517 C   0  0  0  0  0  0  0  0  0  0  0  0
   21.3148  -14.9986   10.2665 C   0  0  0  0  0  0  0  0  0  0  0  0
   19.3313  -15.9015   11.2883 C   0  0  0  0  0  0  0  0  0  0  0  0
   19.5952  -17.1283   10.6674 C   0  0  0  0  0  0  0  0  0  0  0  0
   19.9351  -13.3022   11.8329 Cl  0  0  0  0  0  0  0  0  0  0  0  0
   22.6383  -16.1069    7.4702 N   0  0  0  0  0  0  0  0  0  0  0  0
   22.7754  -16.3243    8.7719 C   0  0  0  0  0  0  0  0  0  0  0  0
   24.0208  -16.6646    9.2949 C   0  0  0  0  0  0  0  0  0  0  0  0
   25.0999  -16.7628    8.4291 C   0  0  0  0  0  0  0  0  0  0  0  0
   24.9091  -16.5187    7.0736 C   0  0  0  0  0  0  0  0  0  0  0  0
   23.4119  -15.9190    5.1705 C   0  0  0  0  0  0  0  0  0  0  0  0
   23.6469  -16.1883    6.6304 C   0  0  0  0  0  0  0  0  0  0  0  0
   12.6239  -14.4506   15.8838 C   0  0  0  0  0  0  0  0  0  0  0  0
   13.6432  -15.3124   16.4910 N   0  0  0  0  0  0  0  0  0  0  0  0
   13.5200  -15.6863   17.3933 H   0  0  0  0  0  0  0  0  0  0  0  0
   14.7743  -14.0091   11.9944 C   0  0  0  0  0  0  0  0  0  0  0  0
   15.1040  -12.5163   12.1385 C   0  0  0  0  0  0  0  0  0  0  0  0
   13.9981  -11.7821   12.6648 O   0  0  0  0  0  0  0  0  0  0  0  0
   14.2240  -10.3720   12.7147 C   0  0  0  0  0  0  0  0  0  0  0  0
   15.4598  -10.0912   13.5695 C   0  0  0  0  0  0  0  0  0  0  0  0
   16.6262  -10.9445   13.0482 C   0  0  0  0  0  0  0  0  0  0  0  0
   16.2292  -12.3232   12.9984 O   0  0  0  0  0  0  0  0  0  0  0  0
   15.7978   -8.6652   13.4736 N   0  0  0  0  0  0  0  0  0  0  0  0
   15.9822   -8.4242   12.4998 H   0  0  0  0  0  0  0  0  0  0  0  0
   16.6283   -8.4742   14.0342 H   0  0  0  0  0  0  0  0  0  0  0  0
 19 20  2  0  0  0
 19 25  1  0  0  0
 20 21  1  0  0  0
 20 12  1  0  0  0
 21 22  2  0  0  0
 22 23  1  0  0  0
 23 25  2  0  0  0
 12 14  2  0  0  0
 12 15  1  0  0  0
 13 15  2  0  0  0
 13 16  1  0  0  0
 13 18  1  0  0  0
 14 17  1  0  0  0
  1  5  1  0  0  0
  1  6  2  0  0  0
  1  7  1  0  0  0
  2  9  2  0  0  0
  2 10  1  0  0  0
  2 27  1  0  0  0
  3 10  2  0  0  0
  3 11  1  0  0  0
  4  5  2  0  0  0
  4 11  1  0  0  0
 26 27  1  0  0  0
 30 31  1  0  0  0
 30 35  1  0  0  0
 24 25  1  0  0  0
 16 17  2  0  0  0
 16  5  1  0  0  0
  7  8  1  0  0  0
  7 29  1  0  0  0
  8  9  1  0  0  0
  8 11  2  0  0  0
 31 32  1  0  0  0
 32 33  1  0  0  0
 33 34  1  0  0  0
 33 36  1  0  0  0
 34 35  1  0  0  0
 29 30  1  0  0  0
 27 28  1  0  0  0
 36 37  1  0  0  0
 36 38  1  0  0  0
M  END
> <minimizedAffinity>
-10.08487

$$$$
5DEY_59T_A_601


 38 42  0  0  0  0  0  0  0  0999 V2000
   19.1538  -13.9483   11.8089 C   0  0  0  0  0  0  0  0  0  0  0  0
   21.9564  -16.0376    8.7274 C   0  0  0  0  0  0  0  0  0  0  0  0
   20.3852  -17.3822    9.7551 C   0  0  0  0  0  0  0  0  0  0  0  0
   18.8414  -16.3396   11.3837 C   0  0  0  0  0  0  0  0  0  0  0  0
   18.4377  -15.2050   12.0508 C   0  0  0  0  0  0  0  0  0  0  0  0
   18.8177  -12.9547   12.4242 O   0  0  0  0  0  0  0  0  0  0  0  0
   20.1594  -13.8820   10.9052 N   0  0  0  0  0  0  0  0  0  0  0  0
   20.5556  -15.0114   10.2340 C   0  0  0  0  0  0  0  0  0  0  0  0
   21.5643  -14.9568    9.3724 N   0  0  0  0  0  0  0  0  0  0  0  0
   21.3910  -17.2299    8.9012 N   0  0  0  0  0  0  0  0  0  0  0  0
   19.9255  -16.2579   10.4706 C   0  0  0  0  0  0  0  0  0  0  0  0
   15.0872  -15.0644   14.7325 C   0  0  0  0  0  0  0  0  0  0  0  0
   17.3894  -15.6458   14.3026 C   0  0  0  0  0  0  0  0  0  0  0  0
   14.9643  -14.5918   13.4226 C   0  0  0  0  0  0  0  0  0  0  0  0
   16.3053  -15.5890   15.1570 C   0  0  0  0  0  0  0  0  0  0  0  0
   17.2723  -15.1823   12.9907 C   0  0  0  0  0  0  0  0  0  0  0  0
   16.0486  -14.6498   12.5675 C   0  0  0  0  0  0  0  0  0  0  0  0
   18.8824  -16.3068   14.8777 Cl  0  0  0  0  0  0  0  0  0  0  0  0
   12.7815  -14.5689   15.2956 N   0  0  0  0  0  0  0  0  0  0  0  0
   13.9548  -15.0375   15.7010 C   0  0  0  0  0  0  0  0  0  0  0  0
   14.1160  -15.4728   17.0144 C   0  0  0  0  0  0  0  0  0  0  0  0
   13.0287  -15.4089   17.8729 C   0  0  0  0  0  0  0  0  0  0  0  0
   11.8168  -14.9171   17.4007 C   0  0  0  0  0  0  0  0  0  0  0  0
   10.4373  -13.9679   15.5517 C   0  0  0  0  0  0  0  0  0  0  0  0
   11.7348  -14.5036   16.0889 C   0  0  0  0  0  0  0  0  0  0  0  0
   24.2549  -16.5812    8.1361 C   0  0  0  0  0  0  0  0  0  0  0  0
   22.9992  -15.8825    7.8445 N   0  0  0  0  0  0  0  0  0  0  0  0
   22.9055  -15.3202    7.0418 H   0  0  0  0  0  0  0  0  0  0  0  0
   20.8586  -12.6177   10.6651 C   0  0  0  0  0  0  0  0  0  0  0  0
   20.3211  -12.0197    9.3570 C   0  0  0  0  0  0  0  0  0  0  0  0
   19.5880  -10.8169    9.5911 O   0  0  0  0  0  0  0  0  0  0  0  0
   18.9785  -10.2842    8.4134 C   0  0  0  0  0  0  0  0  0  0  0  0
   20.0596  -10.0125    7.3674 C   0  0  0  0  0  0  0  0  0  0  0  0
   20.8963  -11.2871    7.1780 C   0  0  0  0  0  0  0  0  0  0  0  0
   21.3885  -11.7330    8.4507 O   0  0  0  0  0  0  0  0  0  0  0  0
   19.4198   -9.6381    6.0996 N   0  0  0  0  0  0  0  0  0  0  0  0
   18.8125  -10.3961    5.7883 H   0  0  0  0  0  0  0  0  0  0  0  0
   20.1367   -9.4656    5.3949 H   0  0  0  0  0  0  0  0  0  0  0  0
 19 20  2  0  0  0
 19 25  1  0  0  0
 20 21  1  0  0  0
 20 12  1  0  0  0
 21 22  2  0  0  0
 22 23  1  0  0  0
 23 25  2  0  0  0
 12 14  2  0  0  0
 12 15  1  0  0  0
 13 15  2  0  0  0
 13 16  1  0  0  0
 13 18  1  0  0  0
 14 17  1  0  0  0
  1  5  1  0  0  0
  1  6  2  0  0  0
  1  7  1  0  0  0
  2  9  2  0  0  0
  2 10  1  0  0  0
  2 27  1  0  0  0
  3 10  2  0  0  0
  3 11  1  0  0  0
  4  5  2  0  0  0
  4 11  1  0  0  0
 26 27  1  0  0  0
 30 31  1  0  0  0
 30 35  1  0  0  0
 24 25  1  0  0  0
 16 17  2  0  0  0
 16  5  1  0  0  0
  7  8  1  0  0  0
  7 29  1  0  0  0
  8  9  1  0  0  0
  8 11  2  0  0  0
 31 32  1  0  0  0
 32 33  1  0  0  0
 33 34  1  0  0  0
 33 36  1  0  0  0
 34 35  1  0  0  0
 29 30  1  0  0  0
 27 28  1  0  0  0
 36 37  1  0  0  0
 36 38  1  0  0  0
M  END
> <minimizedAffinity>
-9.60998

$$$$
5DEY_59T_A_601


 38 42  0  0  0  0  0  0  0  0999 V2000
   16.8470  -14.0357   10.7015 C   0  0  0  0  0  0  0  0  0  0  0  0
   13.6190  -14.2897   14.0525 C   0  0  0  0  0  0  0  0  0  0  0  0
   15.5059  -15.5870   14.3511 C   0  0  0  0  0  0  0  0  0  0  0  0
   17.2785  -15.4848   12.6277 C   0  0  0  0  0  0  0  0  0  0  0  0
   17.7158  -14.9657   11.4300 C   0  0  0  0  0  0  0  0  0  0  0  0
   17.2205  -13.6046    9.6274 O   0  0  0  0  0  0  0  0  0  0  0  0
   15.6580  -13.6442   11.2163 N   0  0  0  0  0  0  0  0  0  0  0  0
   15.2263  -14.1552   12.4145 C   0  0  0  0  0  0  0  0  0  0  0  0
   14.0451  -13.7996   12.9053 N   0  0  0  0  0  0  0  0  0  0  0  0
   14.3200  -15.1626   14.7723 N   0  0  0  0  0  0  0  0  0  0  0  0
   16.0097  -15.0935   13.1306 C   0  0  0  0  0  0  0  0  0  0  0  0
   21.5707  -15.9264    9.8007 C   0  0  0  0  0  0  0  0  0  0  0  0
   20.1204  -14.3753   10.9469 C   0  0  0  0  0  0  0  0  0  0  0  0
   20.5154  -16.8381    9.7039 C   0  0  0  0  0  0  0  0  0  0  0  0
   21.3573  -14.6995   10.4240 C   0  0  0  0  0  0  0  0  0  0  0  0
   19.0596  -15.2778   10.8477 C   0  0  0  0  0  0  0  0  0  0  0  0
   19.2776  -16.5131   10.2261 C   0  0  0  0  0  0  0  0  0  0  0  0
   19.9054  -12.8376   11.7124 Cl  0  0  0  0  0  0  0  0  0  0  0  0
   23.0940  -16.2087    7.9357 N   0  0  0  0  0  0  0  0  0  0  0  0
   22.9264  -16.2124    9.2519 C   0  0  0  0  0  0  0  0  0  0  0  0
   24.0005  -16.4999   10.0910 C   0  0  0  0  0  0  0  0  0  0  0  0
   25.2345  -16.7728    9.5198 C   0  0  0  0  0  0  0  0  0  0  0  0
   25.3635  -16.7500    8.1354 C   0  0  0  0  0  0  0  0  0  0  0  0
   24.3654  -16.4268    5.8722 C   0  0  0  0  0  0  0  0  0  0  0  0
   24.2548  -16.4586    7.3708 C   0  0  0  0  0  0  0  0  0  0  0  0
   11.9407  -14.2853   15.8165 C   0  0  0  0  0  0  0  0  0  0  0  0
   12.3902  -13.8533   14.4893 N   0  0  0  0  0  0  0  0  0  0  0  0
   11.8300  -13.2693   13.9286 H   0  0  0  0  0  0  0  0  0  0  0  0
   14.8052  -12.7060   10.4832 C   0  0  0  0  0  0  0  0  0  0  0  0
   15.1821  -11.2828   10.9194 C   0  0  0  0  0  0  0  0  0  0  0  0
   14.0578  -10.5807   11.4506 O   0  0  0  0  0  0  0  0  0  0  0  0
   14.3385   -9.2163   11.7694 C   0  0  0  0  0  0  0  0  0  0  0  0
   15.4826   -9.1622   12.7818 C   0  0  0  0  0  0  0  0  0  0  0  0
   16.6611   -9.9860   12.2409 C   0  0  0  0  0  0  0  0  0  0  0  0
   16.2119  -11.3088   11.9102 O   0  0  0  0  0  0  0  0  0  0  0  0
   15.8915   -7.7645   12.9722 N   0  0  0  0  0  0  0  0  0  0  0  0
   16.1935   -7.3740   12.0796 H   0  0  0  0  0  0  0  0  0  0  0  0
   16.6619   -7.7235   13.6394 H   0  0  0  0  0  0  0  0  0  0  0  0
 19 20  2  0  0  0
 19 25  1  0  0  0
 20 21  1  0  0  0
 20 12  1  0  0  0
 21 22  2  0  0  0
 22 23  1  0  0  0
 23 25  2  0  0  0
 12 14  2  0  0  0
 12 15  1  0  0  0
 13 15  2  0  0  0
 13 16  1  0  0  0
 13 18  1  0  0  0
 14 17  1  0  0  0
  1  5  1  0  0  0
  1  6  2  0  0  0
  1  7  1  0  0  0
  2  9  2  0  0  0
  2 10  1  0  0  0
  2 27  1  0  0  0
  3 10  2  0  0  0
  3 11  1  0  0  0
  4  5  2  0  0  0
  4 11  1  0  0  0
 26 27  1  0  0  0
 30 31  1  0  0  0
 30 35  1  0  0  0
 24 25  1  0  0  0
 16 17  2  0  0  0
 16  5  1  0  0  0
  7  8  1  0  0  0
  7 29  1  0  0  0
  8  9  1  0  0  0
  8 11  2  0  0  0
 31 32  1  0  0  0
 32 33  1  0  0  0
 33 34  1  0  0  0
 33 36  1  0  0  0
 34 35  1  0  0  0
 29 30  1  0  0  0
 27 28  1  0  0  0
 36 37  1  0  0  0
 36 38  1  0  0  0
M  END
> <minimizedAffinity>
-9.54852

$$$$
5DEY_59T_A_601


 38 42  0  0  0  0  0  0  0  0999 V2000
   17.7099  -13.6416   13.3459 C   0  0  0  0  0  0  0  0  0  0  0  0
   14.2692  -15.0375   16.1614 C   0  0  0  0  0  0  0  0  0  0  0  0
   15.2685  -16.6772   14.8788 C   0  0  0  0  0  0  0  0  0  0  0  0
   17.1230  -16.0188   13.3787 C   0  0  0  0  0  0  0  0  0  0  0  0
   17.9264  -15.0164   12.8837 C   0  0  0  0  0  0  0  0  0  0  0  0
   18.3981  -12.7526   12.8823 O   0  0  0  0  0  0  0  0  0  0  0  0
   16.7763  -13.3608   14.2849 N   0  0  0  0  0  0  0  0  0  0  0  0
   15.9815  -14.3617   14.7845 C   0  0  0  0  0  0  0  0  0  0  0  0
   15.0418  -14.0839   15.6802 N   0  0  0  0  0  0  0  0  0  0  0  0
   14.3670  -16.3095   15.7821 N   0  0  0  0  0  0  0  0  0  0  0  0
   16.1215  -15.6969   14.3324 C   0  0  0  0  0  0  0  0  0  0  0  0
   21.0791  -15.7828   10.0712 C   0  0  0  0  0  0  0  0  0  0  0  0
   20.2843  -15.7364   12.3492 C   0  0  0  0  0  0  0  0  0  0  0  0
   19.8357  -15.3204    9.6303 C   0  0  0  0  0  0  0  0  0  0  0  0
   21.2880  -15.9850   11.4331 C   0  0  0  0  0  0  0  0  0  0  0  0
   19.0421  -15.2675   11.9172 C   0  0  0  0  0  0  0  0  0  0  0  0
   18.8320  -15.0706   10.5471 C   0  0  0  0  0  0  0  0  0  0  0  0
   20.5931  -16.0034   14.0315 Cl  0  0  0  0  0  0  0  0  0  0  0  0
   23.3491  -16.5138    9.6336 N   0  0  0  0  0  0  0  0  0  0  0  0
   22.2046  -16.0636    9.1356 C   0  0  0  0  0  0  0  0  0  0  0  0
   22.0786  -15.8429    7.7660 C   0  0  0  0  0  0  0  0  0  0  0  0
   23.1667  -16.1089    6.9481 C   0  0  0  0  0  0  0  0  0  0  0  0
   24.3432  -16.5865    7.5147 C   0  0  0  0  0  0  0  0  0  0  0  0
   25.6512  -17.2941    9.5175 C   0  0  0  0  0  0  0  0  0  0  0  0
   24.3924  -16.7785    8.8783 C   0  0  0  0  0  0  0  0  0  0  0  0
   13.0581  -13.2264   17.2486 C   0  0  0  0  0  0  0  0  0  0  0  0
   13.3335  -14.6585   17.0952 N   0  0  0  0  0  0  0  0  0  0  0  0
   12.8635  -15.3275   17.6436 H   0  0  0  0  0  0  0  0  0  0  0  0
   16.5783  -11.9849   14.7457 C   0  0  0  0  0  0  0  0  0  0  0  0
   15.5447  -11.3206   13.8248 C   0  0  0  0  0  0  0  0  0  0  0  0
   15.1218  -12.2041   12.7858 O   0  0  0  0  0  0  0  0  0  0  0  0
   14.2408  -11.5915   11.8421 C   0  0  0  0  0  0  0  0  0  0  0  0
   13.0092  -11.0607   12.5759 C   0  0  0  0  0  0  0  0  0  0  0  0
   13.4721  -10.1746   13.7425 C   0  0  0  0  0  0  0  0  0  0  0  0
   14.3947  -10.9050   14.5649 O   0  0  0  0  0  0  0  0  0  0  0  0
   12.1929  -10.2754   11.6411 N   0  0  0  0  0  0  0  0  0  0  0  0
   12.7456   -9.4998   11.2759 H   0  0  0  0  0  0  0  0  0  0  0  0
   11.3747   -9.9100   12.1284 H   0  0  0  0  0  0  0  0  0  0  0  0
 19 20  2  0  0  0
 19 25  1  0  0  0
 20 21  1  0  0  0
 20 12  1  0  0  0
 21 22  2  0  0  0
 22 23  1  0  0  0
 23 25  2  0  0  0
 12 14  2  0  0  0
 12 15  1  0  0  0
 13 15  2  0  0  0
 13 16  1  0  0  0
 13 18  1  0  0  0
 14 17  1  0  0  0
  1  5  1  0  0  0
  1  6  2  0  0  0
  1  7  1  0  0  0
  2  9  2  0  0  0
  2 10  1  0  0  0
  2 27  1  0  0  0
  3 10  2  0  0  0
  3 11  1  0  0  0
  4  5  2  0  0  0
  4 11  1  0  0  0
 26 27  1  0  0  0
 30 31  1  0  0  0
 30 35  1  0  0  0
 24 25  1  0  0  0
 16 17  2  0  0  0
 16  5  1  0  0  0
  7  8  1  0  0  0
  7 29  1  0  0  0
  8  9  1  0  0  0
  8 11  2  0  0  0
 31 32  1  0  0  0
 32 33  1  0  0  0
 33 34  1  0  0  0
 33 36  1  0  0  0
 34 35  1  0  0  0
 29 30  1  0  0  0
 27 28  1  0  0  0
 36 37  1  0  0  0
 36 38  1  0  0  0
M  END
> <minimizedAffinity>
-9.34386

$$$$
5DEY_59T_A_601


 38 42  0  0  0  0  0  0  0  0999 V2000
   17.4516  -13.5716   12.5598 C   0  0  0  0  0  0  0  0  0  0  0  0
   13.0516  -12.1516   11.9784 C   0  0  0  0  0  0  0  0  0  0  0  0
   14.2037  -12.7201   10.0595 C   0  0  0  0  0  0  0  0  0  0  0  0
   16.5372  -13.5107   10.2890 C   0  0  0  0  0  0  0  0  0  0  0  0
   17.5990  -13.7947   11.1180 C   0  0  0  0  0  0  0  0  0  0  0  0
   18.4017  -13.7909   13.2866 O   0  0  0  0  0  0  0  0  0  0  0  0
   16.2774  -13.1476   13.0831 N   0  0  0  0  0  0  0  0  0  0  0  0
   15.2165  -12.8730   12.2572 C   0  0  0  0  0  0  0  0  0  0  0  0
   14.0745  -12.4241   12.7641 N   0  0  0  0  0  0  0  0  0  0  0  0
   13.0969  -12.2917   10.6556 N   0  0  0  0  0  0  0  0  0  0  0  0
   15.3274  -13.0272   10.8534 C   0  0  0  0  0  0  0  0  0  0  0  0
   21.3167  -15.4556    9.7551 C   0  0  0  0  0  0  0  0  0  0  0  0
   19.9673  -13.5282   10.2910 C   0  0  0  0  0  0  0  0  0  0  0  0
   20.2491  -16.2935   10.0904 C   0  0  0  0  0  0  0  0  0  0  0  0
   21.1601  -14.0759    9.8598 C   0  0  0  0  0  0  0  0  0  0  0  0
   18.8941  -14.3582   10.6208 C   0  0  0  0  0  0  0  0  0  0  0  0
   19.0554  -15.7453   10.5206 C   0  0  0  0  0  0  0  0  0  0  0  0
   19.8223  -11.8069   10.4045 Cl  0  0  0  0  0  0  0  0  0  0  0  0
   22.8630  -16.0119    7.9724 N   0  0  0  0  0  0  0  0  0  0  0  0
   22.6264  -15.9827    9.2776 C   0  0  0  0  0  0  0  0  0  0  0  0
   23.5839  -16.4576   10.1709 C   0  0  0  0  0  0  0  0  0  0  0  0
   24.7776  -16.9498    9.6647 C   0  0  0  0  0  0  0  0  0  0  0  0
   24.9835  -16.9534    8.2895 C   0  0  0  0  0  0  0  0  0  0  0  0
   24.1843  -16.4600    5.9785 C   0  0  0  0  0  0  0  0  0  0  0  0
   23.9887  -16.4683    7.4687 C   0  0  0  0  0  0  0  0  0  0  0  0
   10.8292  -12.6744   12.8245 C   0  0  0  0  0  0  0  0  0  0  0  0
   11.9053  -11.7056   12.5934 N   0  0  0  0  0  0  0  0  0  0  0  0
   11.8102  -10.7655   12.8697 H   0  0  0  0  0  0  0  0  0  0  0  0
   16.1406  -12.9398   14.5263 C   0  0  0  0  0  0  0  0  0  0  0  0
   14.9627  -13.7931   15.0185 C   0  0  0  0  0  0  0  0  0  0  0  0
   15.4104  -14.9379   15.7452 O   0  0  0  0  0  0  0  0  0  0  0  0
   14.3515  -15.8171   16.1295 C   0  0  0  0  0  0  0  0  0  0  0  0
   13.3449  -15.0474   16.9845 C   0  0  0  0  0  0  0  0  0  0  0  0
   12.9272  -13.7750   16.2317 C   0  0  0  0  0  0  0  0  0  0  0  0
   14.0966  -13.0294   15.8609 O   0  0  0  0  0  0  0  0  0  0  0  0
   12.1712  -15.8960   17.2276 N   0  0  0  0  0  0  0  0  0  0  0  0
   11.7489  -16.1557   16.3362 H   0  0  0  0  0  0  0  0  0  0  0  0
   11.4914  -15.3833   17.7893 H   0  0  0  0  0  0  0  0  0  0  0  0
 19 20  2  0  0  0
 19 25  1  0  0  0
 20 21  1  0  0  0
 20 12  1  0  0  0
 21 22  2  0  0  0
 22 23  1  0  0  0
 23 25  2  0  0  0
 12 14  2  0  0  0
 12 15  1  0  0  0
 13 15  2  0  0  0
 13 16  1  0  0  0
 13 18  1  0  0  0
 14 17  1  0  0  0
  1  5  1  0  0  0
  1  6  2  0  0  0
  1  7  1  0  0  0
  2  9  2  0  0  0
  2 10  1  0  0  0
  2 27  1  0  0  0
  3 10  2  0  0  0
  3 11  1  0  0  0
  4  5  2  0  0  0
  4 11  1  0  0  0
 26 27  1  0  0  0
 30 31  1  0  0  0
 30 35  1  0  0  0
 24 25  1  0  0  0
 16 17  2  0  0  0
 16  5  1  0  0  0
  7  8  1  0  0  0
  7 29  1  0  0  0
  8  9  1  0  0  0
  8 11  2  0  0  0
 31 32  1  0  0  0
 32 33  1  0  0  0
 33 34  1  0  0  0
 33 36  1  0  0  0
 34 35  1  0  0  0
 29 30  1  0  0  0
 27 28  1  0  0  0
 36 37  1  0  0  0
 36 38  1  0  0  0
M  END
> <minimizedAffinity>
-8.87126

$$$$
5DEY_59T_A_601


 38 42  0  0  0  0  0  0  0  0999 V2000
   16.9055  -14.2421   12.0126 C   0  0  0  0  0  0  0  0  0  0  0  0
   14.8029  -11.2749   14.9261 C   0  0  0  0  0  0  0  0  0  0  0  0
   17.1079  -11.1632   14.8418 C   0  0  0  0  0  0  0  0  0  0  0  0
   18.2956  -12.6882   13.2970 C   0  0  0  0  0  0  0  0  0  0  0  0
   18.2209  -13.6965   12.3626 C   0  0  0  0  0  0  0  0  0  0  0  0
   16.8444  -15.1557   11.2122 O   0  0  0  0  0  0  0  0  0  0  0  0
   15.7735  -13.7318   12.5514 N   0  0  0  0  0  0  0  0  0  0  0  0
   15.8478  -12.7208   13.4763 C   0  0  0  0  0  0  0  0  0  0  0  0
   14.7414  -12.2417   14.0321 N   0  0  0  0  0  0  0  0  0  0  0  0
   15.9501  -10.7356   15.3321 N   0  0  0  0  0  0  0  0  0  0  0  0
   17.0992  -12.1950   13.8814 C   0  0  0  0  0  0  0  0  0  0  0  0
   21.6205  -15.2764   10.2688 C   0  0  0  0  0  0  0  0  0  0  0  0
   20.1819  -15.2757   12.2062 C   0  0  0  0  0  0  0  0  0  0  0  0
   20.8599  -14.2471    9.7063 C   0  0  0  0  0  0  0  0  0  0  0  0
   21.2696  -15.7792   11.5190 C   0  0  0  0  0  0  0  0  0  0  0  0
   19.4217  -14.2428   11.6542 C   0  0  0  0  0  0  0  0  0  0  0  0
   19.7725  -13.7426   10.3945 C   0  0  0  0  0  0  0  0  0  0  0  0
   19.7861  -15.9343   13.7573 Cl  0  0  0  0  0  0  0  0  0  0  0  0
   22.8252  -15.8902    8.2562 N   0  0  0  0  0  0  0  0  0  0  0  0
   22.8085  -15.8584    9.5825 C   0  0  0  0  0  0  0  0  0  0  0  0
   23.8779  -16.3809   10.3064 C   0  0  0  0  0  0  0  0  0  0  0  0
   24.9485  -16.9227    9.6108 C   0  0  0  0  0  0  0  0  0  0  0  0
   24.9245  -16.9272    8.2205 C   0  0  0  0  0  0  0  0  0  0  0  0
   23.7783  -16.3847    6.0723 C   0  0  0  0  0  0  0  0  0  0  0  0
   23.8308  -16.3933    7.5744 C   0  0  0  0  0  0  0  0  0  0  0  0
   12.3790  -11.1842   14.7139 C   0  0  0  0  0  0  0  0  0  0  0  0
   13.6053  -10.8323   15.4369 N   0  0  0  0  0  0  0  0  0  0  0  0
   13.5722  -10.2961   16.2619 H   0  0  0  0  0  0  0  0  0  0  0  0
   14.4654  -14.2788   12.1844 C   0  0  0  0  0  0  0  0  0  0  0  0
   13.8763  -13.3951   11.0754 C   0  0  0  0  0  0  0  0  0  0  0  0
   12.6126  -12.8488   11.4542 O   0  0  0  0  0  0  0  0  0  0  0  0
   11.9780  -12.1070   10.4106 C   0  0  0  0  0  0  0  0  0  0  0  0
   12.9000  -10.9698    9.9706 C   0  0  0  0  0  0  0  0  0  0  0  0
   14.2825  -11.5532    9.6408 C   0  0  0  0  0  0  0  0  0  0  0  0
   14.7608  -12.3183   10.7575 O   0  0  0  0  0  0  0  0  0  0  0  0
   12.3313  -10.3213    8.7820 N   0  0  0  0  0  0  0  0  0  0  0  0
   12.2372  -11.0070    8.0328 H   0  0  0  0  0  0  0  0  0  0  0  0
   12.9481   -9.5680    8.4778 H   0  0  0  0  0  0  0  0  0  0  0  0
 19 20  2  0  0  0
 19 25  1  0  0  0
 20 21  1  0  0  0
 20 12  1  0  0  0
 21 22  2  0  0  0
 22 23  1  0  0  0
 23 25  2  0  0  0
 12 14  2  0  0  0
 12 15  1  0  0  0
 13 15  2  0  0  0
 13 16  1  0  0  0
 13 18  1  0  0  0
 14 17  1  0  0  0
  1  5  1  0  0  0
  1  6  2  0  0  0
  1  7  1  0  0  0
  2  9  2  0  0  0
  2 10  1  0  0  0
  2 27  1  0  0  0
  3 10  2  0  0  0
  3 11  1  0  0  0
  4  5  2  0  0  0
  4 11  1  0  0  0
 26 27  1  0  0  0
 30 31  1  0  0  0
 30 35  1  0  0  0
 24 25  1  0  0  0
 16 17  2  0  0  0
 16  5  1  0  0  0
  7  8  1  0  0  0
  7 29  1  0  0  0
  8  9  1  0  0  0
  8 11  2  0  0  0
 31 32  1  0  0  0
 32 33  1  0  0  0
 33 34  1  0  0  0
 33 36  1  0  0  0
 34 35  1  0  0  0
 29 30  1  0  0  0
 27 28  1  0  0  0
 36 37  1  0  0  0
 36 38  1  0  0  0
M  END
> <minimizedAffinity>
-8.66458

$$$$
