3R4P_FU7_A_901


 37 40  0  0  0  0  0  0  0  0999 V2000
   16.3006   -4.6892   51.5712 N   0  0  0  0  0  0  0  0  0  0  0  0
   15.2730   -6.4035   52.7260 O   0  0  0  0  0  0  0  0  0  0  0  0
   17.4657   -1.6208   49.9316 N   0  0  0  0  0  0  0  0  0  0  0  0
   15.5783   -0.1769   50.5356 N   0  0  0  0  0  0  0  0  0  0  0  0
   17.4008    0.6496   49.2538 N   0  0  0  0  0  0  0  0  0  0  0  0
   17.2928   -6.8276   51.6927 N   0  0  0  0  0  0  0  0  0  0  0  0
   15.6288   -2.4868   51.2461 C   0  0  0  0  0  0  0  0  0  0  0  0
   15.2204   -3.7634   51.8852 C   0  0  0  0  0  0  0  0  0  0  0  0
   17.3596   -4.0397   50.7593 C   0  0  0  0  0  0  0  0  0  0  0  0
   16.8468   -2.6238   50.5999 C   0  0  0  0  0  0  0  0  0  0  0  0
   16.8036   -0.4047   49.9212 C   0  0  0  0  0  0  0  0  0  0  0  0
   15.0004   -1.2227   51.1942 C   0  0  0  0  0  0  0  0  0  0  0  0
   16.2292   -6.0023   52.0400 C   0  0  0  0  0  0  0  0  0  0  0  0
   18.2691    0.5214   48.8079 H   0  0  0  0  0  0  0  0  0  0  0  0
   16.9576    1.5282   49.2248 H   0  0  0  0  0  0  0  0  0  0  0  0
   18.0290   -6.4628   51.1503 H   0  0  0  0  0  0  0  0  0  0  0  0
   13.6749   -1.0600   51.8512 C   0  0  0  0  0  0  0  0  0  0  0  0
   12.5446   -1.0090   49.3071 Cl  0  0  0  0  0  0  0  0  0  0  0  0
   13.5275   -1.0711   53.2977 C   0  0  0  0  0  0  0  0  0  0  0  0
    9.5198   -1.1493   53.7690 Cl  0  0  0  0  0  0  0  0  0  0  0  0
   12.2245   -1.0950   53.8810 C   0  0  0  0  0  0  0  0  0  0  0  0
   11.0823   -1.0953   53.0534 C   0  0  0  0  0  0  0  0  0  0  0  0
   11.2008   -1.0533   51.6453 C   0  0  0  0  0  0  0  0  0  0  0  0
   12.4835   -1.0259   51.0447 C   0  0  0  0  0  0  0  0  0  0  0  0
   14.7204   -1.0458   54.0043 O   0  0  0  0  0  0  0  0  0  0  0  0
   14.7623   -1.4331   55.3841 C   0  0  0  0  0  0  0  0  0  0  0  0
   16.2195   -1.4244   55.8372 C   0  0  0  0  0  0  0  0  0  0  0  0
   17.0507   -2.4601   55.2638 N   0  0  0  0  0  0  0  0  0  0  0  0
   16.8714   -3.7420   55.6339 N   0  0  0  0  0  0  0  0  0  0  0  0
   18.0538   -2.2850   54.3513 C   0  0  0  0  0  0  0  0  0  0  0  0
   18.5593   -3.5334   54.1103 C   0  0  0  0  0  0  0  0  0  0  0  0
   17.7956   -4.3921   54.9243 C   0  0  0  0  0  0  0  0  0  0  0  0
   17.3403   -8.2290   52.1172 C   0  0  0  0  0  0  0  0  0  0  0  0
   18.9535   -7.2603   53.5180 F   0  0  0  0  0  0  0  0  0  0  0  0
   19.3249   -9.2809   52.7964 F   0  0  0  0  0  0  0  0  0  0  0  0
   18.3557   -8.4405   53.2201 C   0  0  0  0  0  0  0  0  0  0  0  0
   17.7375   -8.9980   54.4838 C   0  0  0  0  0  0  0  0  0  0  0  0
 17 19  1  0  0  0
  1  8  1  0  0  0
  1 13  1  0  0  0
 18 24  1  0  0  0
 19 21  2  0  0  0
 19 25  1  0  0  0
 35 36  1  0  0  0
  3 10  1  0  0  0
 25 26  1  0  0  0
  4 12  2  0  0  0
 22 20  1  0  0  0
 22 21  1  0  0  0
  5 11  1  0  0  0
 23 22  2  0  0  0
  6 13  1  0  0  0
  6 33  1  0  0  0
 24 17  2  0  0  0
 24 23  1  0  0  0
 28 29  1  0  0  0
 28 27  1  0  0  0
  7  8  1  0  0  0
  9  1  1  0  0  0
 10  7  2  0  0  0
 10  9  1  0  0  0
 11  3  2  0  0  0
 11  4  1  0  0  0
 12 17  1  0  0  0
 12  7  1  0  0  0
 13  2  2  0  0  0
 26 27  1  0  0  0
 30 28  1  0  0  0
 31 30  2  0  0  0
 31 32  1  0  0  0
 32 29  2  0  0  0
 33 36  1  0  0  0
 36 34  1  0  0  0
 36 37  1  0  0  0
  5 14  1  0  0  0
  5 15  1  0  0  0
  6 16  1  0  0  0
M  END
> <minimizedAffinity>
-9.47479

$$$$
3R4P_FU7_A_901


 37 40  0  0  0  0  0  0  0  0999 V2000
   16.2529   -4.6481   51.6300 N   0  0  0  0  0  0  0  0  0  0  0  0
   15.1445   -6.3978   52.6489 O   0  0  0  0  0  0  0  0  0  0  0  0
   17.5326   -1.5294   50.1819 N   0  0  0  0  0  0  0  0  0  0  0  0
   15.6037   -0.1037   50.6905 N   0  0  0  0  0  0  0  0  0  0  0  0
   17.5154    0.7619   49.5752 N   0  0  0  0  0  0  0  0  0  0  0  0
   17.2360   -6.7904   51.7554 N   0  0  0  0  0  0  0  0  0  0  0  0
   15.6042   -2.4355   51.3274 C   0  0  0  0  0  0  0  0  0  0  0  0
   15.1512   -3.7317   51.8927 C   0  0  0  0  0  0  0  0  0  0  0  0
   17.3685   -3.9737   50.9205 C   0  0  0  0  0  0  0  0  0  0  0  0
   16.8671   -2.5529   50.7695 C   0  0  0  0  0  0  0  0  0  0  0  0
   16.8716   -0.3129   50.1618 C   0  0  0  0  0  0  0  0  0  0  0  0
   14.9798   -1.1697   51.2700 C   0  0  0  0  0  0  0  0  0  0  0  0
   16.1485   -5.9756   52.0493 C   0  0  0  0  0  0  0  0  0  0  0  0
   18.4146    0.6472   49.1911 H   0  0  0  0  0  0  0  0  0  0  0  0
   17.0744    1.6415   49.5418 H   0  0  0  0  0  0  0  0  0  0  0  0
   18.0101   -6.4090   51.2814 H   0  0  0  0  0  0  0  0  0  0  0  0
   13.6089   -1.0269   51.8316 C   0  0  0  0  0  0  0  0  0  0  0  0
   12.6566   -1.0357   49.2152 Cl  0  0  0  0  0  0  0  0  0  0  0  0
   13.3621   -1.0213   53.2645 C   0  0  0  0  0  0  0  0  0  0  0  0
    9.3339   -1.1804   53.4598 Cl  0  0  0  0  0  0  0  0  0  0  0  0
   12.0227   -1.0655   53.7570 C   0  0  0  0  0  0  0  0  0  0  0  0
   10.9407   -1.1022   52.8527 C   0  0  0  0  0  0  0  0  0  0  0  0
   11.1554   -1.0770   51.4557 C   0  0  0  0  0  0  0  0  0  0  0  0
   12.4757   -1.0300   50.9445 C   0  0  0  0  0  0  0  0  0  0  0  0
   14.5025   -0.9602   54.0511 O   0  0  0  0  0  0  0  0  0  0  0  0
   14.7314   -1.9270   55.0848 C   0  0  0  0  0  0  0  0  0  0  0  0
   14.4518   -1.2619   56.4295 C   0  0  0  0  0  0  0  0  0  0  0  0
   13.5809   -2.0026   57.3157 N   0  0  0  0  0  0  0  0  0  0  0  0
   13.8576   -2.0575   58.6321 N   0  0  0  0  0  0  0  0  0  0  0  0
   12.4581   -2.6965   56.9590 C   0  0  0  0  0  0  0  0  0  0  0  0
   11.9712   -3.2369   58.1178 C   0  0  0  0  0  0  0  0  0  0  0  0
   12.8693   -2.8122   59.1159 C   0  0  0  0  0  0  0  0  0  0  0  0
   17.2537   -8.2049   52.1366 C   0  0  0  0  0  0  0  0  0  0  0  0
   19.1158   -7.3967   53.3124 F   0  0  0  0  0  0  0  0  0  0  0  0
   19.3394   -9.2757   52.2349 F   0  0  0  0  0  0  0  0  0  0  0  0
   18.4742   -8.5405   52.9671 C   0  0  0  0  0  0  0  0  0  0  0  0
   18.1301   -9.2983   54.2309 C   0  0  0  0  0  0  0  0  0  0  0  0
 17 19  1  0  0  0
  1  8  1  0  0  0
  1 13  1  0  0  0
 18 24  1  0  0  0
 19 21  2  0  0  0
 19 25  1  0  0  0
 35 36  1  0  0  0
  3 10  1  0  0  0
 25 26  1  0  0  0
  4 12  2  0  0  0
 22 20  1  0  0  0
 22 21  1  0  0  0
  5 11  1  0  0  0
 23 22  2  0  0  0
  6 13  1  0  0  0
  6 33  1  0  0  0
 24 17  2  0  0  0
 24 23  1  0  0  0
 28 29  1  0  0  0
 28 27  1  0  0  0
  7  8  1  0  0  0
  9  1  1  0  0  0
 10  7  2  0  0  0
 10  9  1  0  0  0
 11  3  2  0  0  0
 11  4  1  0  0  0
 12 17  1  0  0  0
 12  7  1  0  0  0
 13  2  2  0  0  0
 26 27  1  0  0  0
 30 28  1  0  0  0
 31 30  2  0  0  0
 31 32  1  0  0  0
 32 29  2  0  0  0
 33 36  1  0  0  0
 36 34  1  0  0  0
 36 37  1  0  0  0
  5 14  1  0  0  0
  5 15  1  0  0  0
  6 16  1  0  0  0
M  END
> <minimizedAffinity>
-8.57031

$$$$
3R4P_FU7_A_901


 37 40  0  0  0  0  0  0  0  0999 V2000
   16.2550   -4.7483   51.6561 N   0  0  0  0  0  0  0  0  0  0  0  0
   15.1927   -6.4742   52.7610 O   0  0  0  0  0  0  0  0  0  0  0  0
   17.4796   -1.6589   50.1013 N   0  0  0  0  0  0  0  0  0  0  0  0
   15.6114   -0.2005   50.7296 N   0  0  0  0  0  0  0  0  0  0  0  0
   17.4553    0.6285   49.4804 N   0  0  0  0  0  0  0  0  0  0  0  0
   17.2123   -6.9046   51.7300 N   0  0  0  0  0  0  0  0  0  0  0  0
   15.6205   -2.5279   51.3822 C   0  0  0  0  0  0  0  0  0  0  0  0
   15.1876   -3.8134   51.9864 C   0  0  0  0  0  0  0  0  0  0  0  0
   17.3296   -4.0957   50.8674 C   0  0  0  0  0  0  0  0  0  0  0  0
   16.8405   -2.6682   50.7404 C   0  0  0  0  0  0  0  0  0  0  0  0
   16.8370   -0.4325   50.1174 C   0  0  0  0  0  0  0  0  0  0  0  0
   15.0126   -1.2529   51.3580 C   0  0  0  0  0  0  0  0  0  0  0  0
   16.1597   -6.0714   52.0913 C   0  0  0  0  0  0  0  0  0  0  0  0
   18.3245    0.4975   49.0369 H   0  0  0  0  0  0  0  0  0  0  0  0
   17.0263    1.5145   49.4706 H   0  0  0  0  0  0  0  0  0  0  0  0
   17.9578   -6.5383   51.2016 H   0  0  0  0  0  0  0  0  0  0  0  0
   13.6854   -1.0855   52.0106 C   0  0  0  0  0  0  0  0  0  0  0  0
   12.5545   -1.1202   49.4666 Cl  0  0  0  0  0  0  0  0  0  0  0  0
   13.5383   -1.0563   53.4569 C   0  0  0  0  0  0  0  0  0  0  0  0
    9.5318   -1.1637   53.9319 Cl  0  0  0  0  0  0  0  0  0  0  0  0
   12.2358   -1.0773   54.0412 C   0  0  0  0  0  0  0  0  0  0  0  0
   11.0935   -1.1137   53.2144 C   0  0  0  0  0  0  0  0  0  0  0  0
   11.2114   -1.1112   51.8056 C   0  0  0  0  0  0  0  0  0  0  0  0
   12.4937   -1.0875   51.2040 C   0  0  0  0  0  0  0  0  0  0  0  0
   14.7310   -0.9979   54.1620 O   0  0  0  0  0  0  0  0  0  0  0  0
   15.0501   -1.9922   55.1444 C   0  0  0  0  0  0  0  0  0  0  0  0
   16.3811   -1.6151   55.7888 C   0  0  0  0  0  0  0  0  0  0  0  0
   16.3372   -1.4054   57.2193 N   0  0  0  0  0  0  0  0  0  0  0  0
   16.2092   -0.1574   57.7080 N   0  0  0  0  0  0  0  0  0  0  0  0
   16.4232   -2.3693   58.1852 C   0  0  0  0  0  0  0  0  0  0  0  0
   16.3445   -1.7069   59.3798 C   0  0  0  0  0  0  0  0  0  0  0  0
   16.2131   -0.3495   59.0284 C   0  0  0  0  0  0  0  0  0  0  0  0
   17.2347   -8.3168   52.1195 C   0  0  0  0  0  0  0  0  0  0  0  0
   17.5277   -8.8304   54.3896 F   0  0  0  0  0  0  0  0  0  0  0  0
   18.9445   -7.4531   53.4748 F   0  0  0  0  0  0  0  0  0  0  0  0
   18.2117   -8.5654   53.2491 C   0  0  0  0  0  0  0  0  0  0  0  0
   19.1456   -9.7226   52.9693 C   0  0  0  0  0  0  0  0  0  0  0  0
 17 19  1  0  0  0
  1  8  1  0  0  0
  1 13  1  0  0  0
 18 24  1  0  0  0
 19 21  2  0  0  0
 19 25  1  0  0  0
 35 36  1  0  0  0
  3 10  1  0  0  0
 25 26  1  0  0  0
  4 12  2  0  0  0
 22 20  1  0  0  0
 22 21  1  0  0  0
  5 11  1  0  0  0
 23 22  2  0  0  0
  6 13  1  0  0  0
  6 33  1  0  0  0
 24 17  2  0  0  0
 24 23  1  0  0  0
 28 29  1  0  0  0
 28 27  1  0  0  0
  7  8  1  0  0  0
  9  1  1  0  0  0
 10  7  2  0  0  0
 10  9  1  0  0  0
 11  3  2  0  0  0
 11  4  1  0  0  0
 12 17  1  0  0  0
 12  7  1  0  0  0
 13  2  2  0  0  0
 26 27  1  0  0  0
 30 28  1  0  0  0
 31 30  2  0  0  0
 31 32  1  0  0  0
 32 29  2  0  0  0
 33 36  1  0  0  0
 36 34  1  0  0  0
 36 37  1  0  0  0
  5 14  1  0  0  0
  5 15  1  0  0  0
  6 16  1  0  0  0
M  END
> <minimizedAffinity>
-8.45785

$$$$
3R4P_FU7_A_901


 37 40  0  0  0  0  0  0  0  0999 V2000
   16.2846   -5.2819   53.4291 N   0  0  0  0  0  0  0  0  0  0  0  0
   15.3274   -6.9492   52.1517 O   0  0  0  0  0  0  0  0  0  0  0  0
   17.2559   -2.3633   55.4291 N   0  0  0  0  0  0  0  0  0  0  0  0
   15.1459   -1.1248   55.2668 N   0  0  0  0  0  0  0  0  0  0  0  0
   16.9895   -0.2624   56.4938 N   0  0  0  0  0  0  0  0  0  0  0  0
   17.5107   -7.2145   52.8518 N   0  0  0  0  0  0  0  0  0  0  0  0
   15.3924   -3.2705   54.1815 C   0  0  0  0  0  0  0  0  0  0  0  0
   15.0687   -4.4806   53.3840 C   0  0  0  0  0  0  0  0  0  0  0  0
   17.3505   -4.6154   54.2181 C   0  0  0  0  0  0  0  0  0  0  0  0
   16.6889   -3.3292   54.6667 C   0  0  0  0  0  0  0  0  0  0  0  0
   16.4531   -1.2717   55.7145 C   0  0  0  0  0  0  0  0  0  0  0  0
   14.6260   -2.1279   54.5023 C   0  0  0  0  0  0  0  0  0  0  0  0
   16.3135   -6.5123   52.7702 C   0  0  0  0  0  0  0  0  0  0  0  0
   17.9130   -0.3358   56.8271 H   0  0  0  0  0  0  0  0  0  0  0  0
   16.4477    0.5292   56.7152 H   0  0  0  0  0  0  0  0  0  0  0  0
   18.2627   -6.8284   53.3563 H   0  0  0  0  0  0  0  0  0  0  0  0
   13.2423   -2.0257   53.9638 C   0  0  0  0  0  0  0  0  0  0  0  0
   12.3641   -3.2808   56.2889 Cl  0  0  0  0  0  0  0  0  0  0  0  0
   12.9552   -1.3601   52.7034 C   0  0  0  0  0  0  0  0  0  0  0  0
    8.9211   -1.2378   52.6764 Cl  0  0  0  0  0  0  0  0  0  0  0  0
   11.6019   -1.1250   52.3137 C   0  0  0  0  0  0  0  0  0  0  0  0
   10.5454   -1.5497   53.1462 C   0  0  0  0  0  0  0  0  0  0  0  0
   10.7999   -2.2264   54.3611 C   0  0  0  0  0  0  0  0  0  0  0  0
   12.1346   -2.4733   54.7662 C   0  0  0  0  0  0  0  0  0  0  0  0
   14.0739   -1.0109   51.9619 O   0  0  0  0  0  0  0  0  0  0  0  0
   14.3299   -1.6229   50.6909 C   0  0  0  0  0  0  0  0  0  0  0  0
   14.0269   -0.5998   49.5999 C   0  0  0  0  0  0  0  0  0  0  0  0
   14.8621    0.5812   49.6116 N   0  0  0  0  0  0  0  0  0  0  0  0
   16.1691    0.4783   49.3052 N   0  0  0  0  0  0  0  0  0  0  0  0
   14.4670    1.8531   49.9205 C   0  0  0  0  0  0  0  0  0  0  0  0
   15.5882    2.6289   49.8064 C   0  0  0  0  0  0  0  0  0  0  0  0
   16.6059    1.7333   49.4251 C   0  0  0  0  0  0  0  0  0  0  0  0
   17.6759   -8.5173   52.2022 C   0  0  0  0  0  0  0  0  0  0  0  0
   19.6954   -8.5211   53.3958 F   0  0  0  0  0  0  0  0  0  0  0  0
   19.3605  -10.1347   51.9725 F   0  0  0  0  0  0  0  0  0  0  0  0
   18.7482   -9.3434   52.8804 C   0  0  0  0  0  0  0  0  0  0  0  0
   18.2017  -10.2059   53.9971 C   0  0  0  0  0  0  0  0  0  0  0  0
 17 19  1  0  0  0
  1  8  1  0  0  0
  1 13  1  0  0  0
 18 24  1  0  0  0
 19 21  2  0  0  0
 19 25  1  0  0  0
 35 36  1  0  0  0
  3 10  1  0  0  0
 25 26  1  0  0  0
  4 12  2  0  0  0
 22 20  1  0  0  0
 22 21  1  0  0  0
  5 11  1  0  0  0
 23 22  2  0  0  0
  6 13  1  0  0  0
  6 33  1  0  0  0
 24 17  2  0  0  0
 24 23  1  0  0  0
 28 29  1  0  0  0
 28 27  1  0  0  0
  7  8  1  0  0  0
  9  1  1  0  0  0
 10  7  2  0  0  0
 10  9  1  0  0  0
 11  3  2  0  0  0
 11  4  1  0  0  0
 12 17  1  0  0  0
 12  7  1  0  0  0
 13  2  2  0  0  0
 26 27  1  0  0  0
 30 28  1  0  0  0
 31 30  2  0  0  0
 31 32  1  0  0  0
 32 29  2  0  0  0
 33 36  1  0  0  0
 36 34  1  0  0  0
 36 37  1  0  0  0
  5 14  1  0  0  0
  5 15  1  0  0  0
  6 16  1  0  0  0
M  END
> <minimizedAffinity>
-8.08251

$$$$
3R4P_FU7_A_901


 37 40  0  0  0  0  0  0  0  0999 V2000
   16.2906   -5.6338   53.9538 N   0  0  0  0  0  0  0  0  0  0  0  0
   15.3614   -7.1509   52.4830 O   0  0  0  0  0  0  0  0  0  0  0  0
   17.2388   -2.9181   56.2313 N   0  0  0  0  0  0  0  0  0  0  0  0
   15.2278   -1.5398   55.9700 N   0  0  0  0  0  0  0  0  0  0  0  0
   16.9964   -0.8776   57.4128 N   0  0  0  0  0  0  0  0  0  0  0  0
   17.4515   -7.5993   53.3533 N   0  0  0  0  0  0  0  0  0  0  0  0
   15.4498   -3.6224   54.7632 C   0  0  0  0  0  0  0  0  0  0  0  0
   15.1322   -4.7554   53.8574 C   0  0  0  0  0  0  0  0  0  0  0  0
   17.3154   -5.0888   54.8787 C   0  0  0  0  0  0  0  0  0  0  0  0
   16.6903   -3.7948   55.3560 C   0  0  0  0  0  0  0  0  0  0  0  0
   16.4773   -1.7983   56.5203 C   0  0  0  0  0  0  0  0  0  0  0  0
   14.7240   -2.4564   55.0941 C   0  0  0  0  0  0  0  0  0  0  0  0
   16.3095   -6.8185   53.2155 C   0  0  0  0  0  0  0  0  0  0  0  0
   17.8793   -1.0310   57.8205 H   0  0  0  0  0  0  0  0  0  0  0  0
   16.4829   -0.0690   57.6402 H   0  0  0  0  0  0  0  0  0  0  0  0
   18.1746   -7.2953   53.9483 H   0  0  0  0  0  0  0  0  0  0  0  0
   13.4043   -2.2318   54.4437 C   0  0  0  0  0  0  0  0  0  0  0  0
   12.2785   -3.8223   56.4325 Cl  0  0  0  0  0  0  0  0  0  0  0  0
   13.2554   -1.3638   53.2868 C   0  0  0  0  0  0  0  0  0  0  0  0
    9.2471   -1.1315   52.8762 Cl  0  0  0  0  0  0  0  0  0  0  0  0
   11.9520   -1.0328   52.8072 C   0  0  0  0  0  0  0  0  0  0  0  0
   10.8110   -1.5583   53.4490 C   0  0  0  0  0  0  0  0  0  0  0  0
   10.9321   -2.4290   54.5562 C   0  0  0  0  0  0  0  0  0  0  0  0
   12.2154   -2.7736   55.0471 C   0  0  0  0  0  0  0  0  0  0  0  0
   14.4480   -0.9291   52.7282 O   0  0  0  0  0  0  0  0  0  0  0  0
   14.6555   -0.9848   51.3106 C   0  0  0  0  0  0  0  0  0  0  0  0
   16.1582   -0.9467   51.0474 C   0  0  0  0  0  0  0  0  0  0  0  0
   16.7710   -2.2293   50.7793 N   0  0  0  0  0  0  0  0  0  0  0  0
   16.7913   -2.7102   49.5220 N   0  0  0  0  0  0  0  0  0  0  0  0
   17.3542   -3.0591   51.6962 C   0  0  0  0  0  0  0  0  0  0  0  0
   17.7835   -4.1499   50.9906 C   0  0  0  0  0  0  0  0  0  0  0  0
   17.4125   -3.8832   49.6585 C   0  0  0  0  0  0  0  0  0  0  0  0
   17.6009   -8.8653   52.6313 C   0  0  0  0  0  0  0  0  0  0  0  0
   19.8149   -8.5163   53.3240 F   0  0  0  0  0  0  0  0  0  0  0  0
   19.4804   -9.8809   51.6604 F   0  0  0  0  0  0  0  0  0  0  0  0
   18.9747   -9.4656   52.8424 C   0  0  0  0  0  0  0  0  0  0  0  0
   18.9609  -10.6298   53.8090 C   0  0  0  0  0  0  0  0  0  0  0  0
 17 19  1  0  0  0
  1  8  1  0  0  0
  1 13  1  0  0  0
 18 24  1  0  0  0
 19 21  2  0  0  0
 19 25  1  0  0  0
 35 36  1  0  0  0
  3 10  1  0  0  0
 25 26  1  0  0  0
  4 12  2  0  0  0
 22 20  1  0  0  0
 22 21  1  0  0  0
  5 11  1  0  0  0
 23 22  2  0  0  0
  6 13  1  0  0  0
  6 33  1  0  0  0
 24 17  2  0  0  0
 24 23  1  0  0  0
 28 29  1  0  0  0
 28 27  1  0  0  0
  7  8  1  0  0  0
  9  1  1  0  0  0
 10  7  2  0  0  0
 10  9  1  0  0  0
 11  3  2  0  0  0
 11  4  1  0  0  0
 12 17  1  0  0  0
 12  7  1  0  0  0
 13  2  2  0  0  0
 26 27  1  0  0  0
 30 28  1  0  0  0
 31 30  2  0  0  0
 31 32  1  0  0  0
 32 29  2  0  0  0
 33 36  1  0  0  0
 36 34  1  0  0  0
 36 37  1  0  0  0
  5 14  1  0  0  0
  5 15  1  0  0  0
  6 16  1  0  0  0
M  END
> <minimizedAffinity>
-7.90913

$$$$
3R4P_FU7_A_901


 37 40  0  0  0  0  0  0  0  0999 V2000
   16.3275   -5.4970   53.7767 N   0  0  0  0  0  0  0  0  0  0  0  0
   15.7561   -6.9842   52.1064 O   0  0  0  0  0  0  0  0  0  0  0  0
   16.8970   -2.7300   56.1177 N   0  0  0  0  0  0  0  0  0  0  0  0
   15.6851   -0.9901   54.8862 N   0  0  0  0  0  0  0  0  0  0  0  0
   16.7440   -0.5201   56.9612 N   0  0  0  0  0  0  0  0  0  0  0  0
   17.0289   -7.7487   53.8735 N   0  0  0  0  0  0  0  0  0  0  0  0
   15.8200   -3.2399   54.0124 C   0  0  0  0  0  0  0  0  0  0  0  0
   15.6294   -4.4048   53.1116 C   0  0  0  0  0  0  0  0  0  0  0  0
   16.9473   -5.0551   55.0508 C   0  0  0  0  0  0  0  0  0  0  0  0
   16.5682   -3.5909   55.1246 C   0  0  0  0  0  0  0  0  0  0  0  0
   16.4354   -1.4330   55.9686 C   0  0  0  0  0  0  0  0  0  0  0  0
   15.3834   -1.8998   53.9153 C   0  0  0  0  0  0  0  0  0  0  0  0
   16.3355   -6.7608   53.1835 C   0  0  0  0  0  0  0  0  0  0  0  0
   17.2741   -0.8018   57.7416 H   0  0  0  0  0  0  0  0  0  0  0  0
   16.4335    0.4112   56.8873 H   0  0  0  0  0  0  0  0  0  0  0  0
   17.4689   -7.5238   54.7250 H   0  0  0  0  0  0  0  0  0  0  0  0
   14.6078   -1.4900   52.7130 C   0  0  0  0  0  0  0  0  0  0  0  0
   17.0353   -1.2194   51.3764 Cl  0  0  0  0  0  0  0  0  0  0  0  0
   13.1539   -1.4764   52.7041 C   0  0  0  0  0  0  0  0  0  0  0  0
   12.3080   -0.7935   48.8173 Cl  0  0  0  0  0  0  0  0  0  0  0  0
   12.4508   -1.2539   51.4816 C   0  0  0  0  0  0  0  0  0  0  0  0
   13.1676   -1.0354   50.2866 C   0  0  0  0  0  0  0  0  0  0  0  0
   14.5811   -1.0133   50.2767 C   0  0  0  0  0  0  0  0  0  0  0  0
   15.2996   -1.2285   51.4784 C   0  0  0  0  0  0  0  0  0  0  0  0
   12.5626   -1.6797   53.9420 O   0  0  0  0  0  0  0  0  0  0  0  0
   11.8490   -2.8913   54.2222 C   0  0  0  0  0  0  0  0  0  0  0  0
   11.7157   -3.0261   55.7364 C   0  0  0  0  0  0  0  0  0  0  0  0
   10.3829   -2.8206   56.2598 N   0  0  0  0  0  0  0  0  0  0  0  0
    9.6781   -1.7363   55.8857 N   0  0  0  0  0  0  0  0  0  0  0  0
    9.7215   -3.6310   57.1403 C   0  0  0  0  0  0  0  0  0  0  0  0
    8.5072   -3.0373   57.3521 C   0  0  0  0  0  0  0  0  0  0  0  0
    8.5328   -1.8759   56.5560 C   0  0  0  0  0  0  0  0  0  0  0  0
   17.1181   -9.1177   53.3594 C   0  0  0  0  0  0  0  0  0  0  0  0
   19.3811   -8.5166   53.2153 F   0  0  0  0  0  0  0  0  0  0  0  0
   18.3894   -9.1627   51.3875 F   0  0  0  0  0  0  0  0  0  0  0  0
   18.4638   -9.3831   52.7184 C   0  0  0  0  0  0  0  0  0  0  0  0
   18.9566  -10.7936   52.9577 C   0  0  0  0  0  0  0  0  0  0  0  0
 17 19  1  0  0  0
  1  8  1  0  0  0
  1 13  1  0  0  0
 18 24  1  0  0  0
 19 21  2  0  0  0
 19 25  1  0  0  0
 35 36  1  0  0  0
  3 10  1  0  0  0
 25 26  1  0  0  0
  4 12  2  0  0  0
 22 20  1  0  0  0
 22 21  1  0  0  0
  5 11  1  0  0  0
 23 22  2  0  0  0
  6 13  1  0  0  0
  6 33  1  0  0  0
 24 17  2  0  0  0
 24 23  1  0  0  0
 28 29  1  0  0  0
 28 27  1  0  0  0
  7  8  1  0  0  0
  9  1  1  0  0  0
 10  7  2  0  0  0
 10  9  1  0  0  0
 11  3  2  0  0  0
 11  4  1  0  0  0
 12 17  1  0  0  0
 12  7  1  0  0  0
 13  2  2  0  0  0
 26 27  1  0  0  0
 30 28  1  0  0  0
 31 30  2  0  0  0
 31 32  1  0  0  0
 32 29  2  0  0  0
 33 36  1  0  0  0
 36 34  1  0  0  0
 36 37  1  0  0  0
  5 14  1  0  0  0
  5 15  1  0  0  0
  6 16  1  0  0  0
M  END
> <minimizedAffinity>
-7.82467

$$$$
3R4P_FU7_A_901


 37 40  0  0  0  0  0  0  0  0999 V2000
   12.1285   -3.4636   56.4997 N   0  0  0  0  0  0  0  0  0  0  0  0
   10.6237   -5.1940   56.2364 O   0  0  0  0  0  0  0  0  0  0  0  0
   14.8995   -1.0604   56.5844 N   0  0  0  0  0  0  0  0  0  0  0  0
   16.5539   -2.4091   55.3779 N   0  0  0  0  0  0  0  0  0  0  0  0
   17.0782   -0.2278   56.1621 N   0  0  0  0  0  0  0  0  0  0  0  0
    9.9387   -3.3014   57.3659 N   0  0  0  0  0  0  0  0  0  0  0  0
   14.3344   -3.2739   55.7888 C   0  0  0  0  0  0  0  0  0  0  0  0
   13.1706   -4.1961   55.7926 C   0  0  0  0  0  0  0  0  0  0  0  0
   12.6007   -2.1268   56.9387 C   0  0  0  0  0  0  0  0  0  0  0  0
   14.0288   -2.0879   56.4368 C   0  0  0  0  0  0  0  0  0  0  0  0
   16.1574   -1.2529   56.0387 C   0  0  0  0  0  0  0  0  0  0  0  0
   15.6366   -3.4119   55.2587 C   0  0  0  0  0  0  0  0  0  0  0  0
   10.8776   -4.0585   56.6745 C   0  0  0  0  0  0  0  0  0  0  0  0
   16.8289    0.6047   56.6247 H   0  0  0  0  0  0  0  0  0  0  0  0
   17.9827   -0.3308   55.7874 H   0  0  0  0  0  0  0  0  0  0  0  0
   10.1862   -2.4055   57.6906 H   0  0  0  0  0  0  0  0  0  0  0  0
   15.9998   -4.6902   54.5886 C   0  0  0  0  0  0  0  0  0  0  0  0
   16.7240   -5.6681   57.0929 Cl  0  0  0  0  0  0  0  0  0  0  0  0
   15.7916   -4.8978   53.1646 C   0  0  0  0  0  0  0  0  0  0  0  0
   16.5868   -8.8304   52.7273 Cl  0  0  0  0  0  0  0  0  0  0  0  0
   15.9826   -6.1943   52.5981 C   0  0  0  0  0  0  0  0  0  0  0  0
   16.3848   -7.2691   53.4184 C   0  0  0  0  0  0  0  0  0  0  0  0
   16.6232   -7.0840   54.7995 C   0  0  0  0  0  0  0  0  0  0  0  0
   16.4432   -5.8056   55.3825 C   0  0  0  0  0  0  0  0  0  0  0  0
   15.4209   -3.7628   52.4593 O   0  0  0  0  0  0  0  0  0  0  0  0
   16.2355   -3.2678   51.3883 C   0  0  0  0  0  0  0  0  0  0  0  0
   16.7648   -1.8935   51.7885 C   0  0  0  0  0  0  0  0  0  0  0  0
   16.4273   -0.8148   50.8858 N   0  0  0  0  0  0  0  0  0  0  0  0
   17.4039   -0.1728   50.2174 N   0  0  0  0  0  0  0  0  0  0  0  0
   15.1734   -0.3378   50.6220 C   0  0  0  0  0  0  0  0  0  0  0  0
   15.3439    0.6792   49.7228 C   0  0  0  0  0  0  0  0  0  0  0  0
   16.7345    0.7377   49.5080 C   0  0  0  0  0  0  0  0  0  0  0  0
    8.5884   -3.8094   57.6211 C   0  0  0  0  0  0  0  0  0  0  0  0
    8.1274   -1.6591   56.8045 F   0  0  0  0  0  0  0  0  0  0  0  0
    6.7388   -2.5095   58.2501 F   0  0  0  0  0  0  0  0  0  0  0  0
    7.5311   -2.8116   57.1984 C   0  0  0  0  0  0  0  0  0  0  0  0
    6.6701   -3.3194   56.0623 C   0  0  0  0  0  0  0  0  0  0  0  0
 17 19  1  0  0  0
  1  8  1  0  0  0
  1 13  1  0  0  0
 18 24  1  0  0  0
 19 21  2  0  0  0
 19 25  1  0  0  0
 35 36  1  0  0  0
  3 10  1  0  0  0
 25 26  1  0  0  0
  4 12  2  0  0  0
 22 20  1  0  0  0
 22 21  1  0  0  0
  5 11  1  0  0  0
 23 22  2  0  0  0
  6 13  1  0  0  0
  6 33  1  0  0  0
 24 17  2  0  0  0
 24 23  1  0  0  0
 28 29  1  0  0  0
 28 27  1  0  0  0
  7  8  1  0  0  0
  9  1  1  0  0  0
 10  7  2  0  0  0
 10  9  1  0  0  0
 11  3  2  0  0  0
 11  4  1  0  0  0
 12 17  1  0  0  0
 12  7  1  0  0  0
 13  2  2  0  0  0
 26 27  1  0  0  0
 30 28  1  0  0  0
 31 30  2  0  0  0
 31 32  1  0  0  0
 32 29  2  0  0  0
 33 36  1  0  0  0
 36 34  1  0  0  0
 36 37  1  0  0  0
  5 14  1  0  0  0
  5 15  1  0  0  0
  6 16  1  0  0  0
M  END
> <minimizedAffinity>
-7.57267

$$$$
3R4P_FU7_A_901


 37 40  0  0  0  0  0  0  0  0999 V2000
   15.3233   -3.9799   54.2366 N   0  0  0  0  0  0  0  0  0  0  0  0
   14.5217   -5.6903   52.9099 O   0  0  0  0  0  0  0  0  0  0  0  0
   16.0181   -1.2093   56.5392 N   0  0  0  0  0  0  0  0  0  0  0  0
   13.7190   -0.8104   57.2921 N   0  0  0  0  0  0  0  0  0  0  0  0
   15.5295    0.4861   58.1221 N   0  0  0  0  0  0  0  0  0  0  0  0
   16.7848   -5.2385   52.8759 N   0  0  0  0  0  0  0  0  0  0  0  0
   14.1960   -2.5516   55.6847 C   0  0  0  0  0  0  0  0  0  0  0  0
   13.9892   -3.6759   54.7371 C   0  0  0  0  0  0  0  0  0  0  0  0
   16.3479   -3.0864   54.8318 C   0  0  0  0  0  0  0  0  0  0  0  0
   15.5349   -2.2016   55.7534 C   0  0  0  0  0  0  0  0  0  0  0  0
   15.0805   -0.5329   57.3012 C   0  0  0  0  0  0  0  0  0  0  0  0
   13.2878   -1.8198   56.4818 C   0  0  0  0  0  0  0  0  0  0  0  0
   15.4842   -5.0141   53.3128 C   0  0  0  0  0  0  0  0  0  0  0  0
   16.4883    0.7079   58.1518 H   0  0  0  0  0  0  0  0  0  0  0  0
   14.8904    0.9893   58.6766 H   0  0  0  0  0  0  0  0  0  0  0  0
   17.5146   -4.6785   53.2267 H   0  0  0  0  0  0  0  0  0  0  0  0
   11.8399   -2.1540   56.3992 C   0  0  0  0  0  0  0  0  0  0  0  0
   12.2375   -3.9083   58.5244 Cl  0  0  0  0  0  0  0  0  0  0  0  0
   10.9498   -1.4887   55.4615 C   0  0  0  0  0  0  0  0  0  0  0  0
    7.3152   -2.8106   56.6156 Cl  0  0  0  0  0  0  0  0  0  0  0  0
    9.5409   -1.7068   55.5392 C   0  0  0  0  0  0  0  0  0  0  0  0
    9.0158   -2.5767   56.5175 C   0  0  0  0  0  0  0  0  0  0  0  0
    9.8644   -3.2584   57.4196 C   0  0  0  0  0  0  0  0  0  0  0  0
   11.2657   -3.0597   57.3589 C   0  0  0  0  0  0  0  0  0  0  0  0
   11.5842   -0.6775   54.5327 O   0  0  0  0  0  0  0  0  0  0  0  0
   11.5793   -1.0172   53.1398 C   0  0  0  0  0  0  0  0  0  0  0  0
   13.0065   -0.8918   52.6140 C   0  0  0  0  0  0  0  0  0  0  0  0
   13.1208   -0.5602   51.2106 N   0  0  0  0  0  0  0  0  0  0  0  0
   14.0074    0.3722   50.8145 N   0  0  0  0  0  0  0  0  0  0  0  0
   12.3941   -1.1002   50.1861 C   0  0  0  0  0  0  0  0  0  0  0  0
   12.8370   -0.4810   49.0492 C   0  0  0  0  0  0  0  0  0  0  0  0
   13.8294    0.4144   49.4928 C   0  0  0  0  0  0  0  0  0  0  0  0
   17.0916   -6.2912   51.9043 C   0  0  0  0  0  0  0  0  0  0  0  0
   18.2714   -8.3187   51.9192 F   0  0  0  0  0  0  0  0  0  0  0  0
   16.1819   -8.3616   52.5303 F   0  0  0  0  0  0  0  0  0  0  0  0
   17.3137   -7.6258   52.5837 C   0  0  0  0  0  0  0  0  0  0  0  0
   17.7404   -7.4817   54.0283 C   0  0  0  0  0  0  0  0  0  0  0  0
 17 19  1  0  0  0
  1  8  1  0  0  0
  1 13  1  0  0  0
 18 24  1  0  0  0
 19 21  2  0  0  0
 19 25  1  0  0  0
 35 36  1  0  0  0
  3 10  1  0  0  0
 25 26  1  0  0  0
  4 12  2  0  0  0
 22 20  1  0  0  0
 22 21  1  0  0  0
  5 11  1  0  0  0
 23 22  2  0  0  0
  6 13  1  0  0  0
  6 33  1  0  0  0
 24 17  2  0  0  0
 24 23  1  0  0  0
 28 29  1  0  0  0
 28 27  1  0  0  0
  7  8  1  0  0  0
  9  1  1  0  0  0
 10  7  2  0  0  0
 10  9  1  0  0  0
 11  3  2  0  0  0
 11  4  1  0  0  0
 12 17  1  0  0  0
 12  7  1  0  0  0
 13  2  2  0  0  0
 26 27  1  0  0  0
 30 28  1  0  0  0
 31 30  2  0  0  0
 31 32  1  0  0  0
 32 29  2  0  0  0
 33 36  1  0  0  0
 36 34  1  0  0  0
 36 37  1  0  0  0
  5 14  1  0  0  0
  5 15  1  0  0  0
  6 16  1  0  0  0
M  END
> <minimizedAffinity>
-7.56675

$$$$
3R4P_FU7_A_901


 37 40  0  0  0  0  0  0  0  0999 V2000
   12.0416   -3.6304   56.6554 N   0  0  0  0  0  0  0  0  0  0  0  0
   10.5963   -5.3712   56.1981 O   0  0  0  0  0  0  0  0  0  0  0  0
   14.7247   -1.1525   57.0037 N   0  0  0  0  0  0  0  0  0  0  0  0
   16.4071   -2.2789   55.6206 N   0  0  0  0  0  0  0  0  0  0  0  0
   16.8647   -0.1923   56.6619 N   0  0  0  0  0  0  0  0  0  0  0  0
    9.8618   -3.6591   57.5606 N   0  0  0  0  0  0  0  0  0  0  0  0
   14.2273   -3.2713   55.9475 C   0  0  0  0  0  0  0  0  0  0  0  0
   13.0978   -4.2304   55.8510 C   0  0  0  0  0  0  0  0  0  0  0  0
   12.4721   -2.3409   57.2505 C   0  0  0  0  0  0  0  0  0  0  0  0
   13.8896   -2.1864   56.7405 C   0  0  0  0  0  0  0  0  0  0  0  0
   15.9798   -1.2286   56.4236 C   0  0  0  0  0  0  0  0  0  0  0  0
   15.5248   -3.2935   55.3892 C   0  0  0  0  0  0  0  0  0  0  0  0
   10.8161   -4.2894   56.7701 C   0  0  0  0  0  0  0  0  0  0  0  0
   16.5931    0.5670   57.2266 H   0  0  0  0  0  0  0  0  0  0  0  0
   17.7662   -0.2141   56.2667 H   0  0  0  0  0  0  0  0  0  0  0  0
   10.0820   -2.8012   57.9905 H   0  0  0  0  0  0  0  0  0  0  0  0
   15.9231   -4.4650   54.5621 C   0  0  0  0  0  0  0  0  0  0  0  0
   16.6541   -5.7437   56.9250 Cl  0  0  0  0  0  0  0  0  0  0  0  0
   15.7293   -4.4902   53.1213 C   0  0  0  0  0  0  0  0  0  0  0  0
   16.6217   -8.3132   52.1843 Cl  0  0  0  0  0  0  0  0  0  0  0  0
   15.9551   -5.6973   52.3930 C   0  0  0  0  0  0  0  0  0  0  0  0
   16.3776   -6.8601   53.0705 C   0  0  0  0  0  0  0  0  0  0  0  0
   16.6025   -6.8509   54.4662 C   0  0  0  0  0  0  0  0  0  0  0  0
   16.3879   -5.6638   55.2086 C   0  0  0  0  0  0  0  0  0  0  0  0
   15.3360   -3.2819   52.5659 O   0  0  0  0  0  0  0  0  0  0  0  0
   13.9735   -3.0645   52.1762 C   0  0  0  0  0  0  0  0  0  0  0  0
   13.6460   -1.5896   52.3917 C   0  0  0  0  0  0  0  0  0  0  0  0
   12.4952   -1.3284   53.2283 N   0  0  0  0  0  0  0  0  0  0  0  0
   12.5244   -0.3067   54.1046 N   0  0  0  0  0  0  0  0  0  0  0  0
   11.3247   -2.0348   53.2441 C   0  0  0  0  0  0  0  0  0  0  0  0
   10.5403   -1.4336   54.1904 C   0  0  0  0  0  0  0  0  0  0  0  0
   11.3264   -0.3763   54.6879 C   0  0  0  0  0  0  0  0  0  0  0  0
    8.5351   -4.2455   57.7669 C   0  0  0  0  0  0  0  0  0  0  0  0
    6.9443   -4.5466   56.0693 F   0  0  0  0  0  0  0  0  0  0  0  0
    8.0903   -2.6950   56.0626 F   0  0  0  0  0  0  0  0  0  0  0  0
    7.4987   -3.6027   56.8697 C   0  0  0  0  0  0  0  0  0  0  0  0
    6.3931   -2.9236   57.6483 C   0  0  0  0  0  0  0  0  0  0  0  0
 17 19  1  0  0  0
  1  8  1  0  0  0
  1 13  1  0  0  0
 18 24  1  0  0  0
 19 21  2  0  0  0
 19 25  1  0  0  0
 35 36  1  0  0  0
  3 10  1  0  0  0
 25 26  1  0  0  0
  4 12  2  0  0  0
 22 20  1  0  0  0
 22 21  1  0  0  0
  5 11  1  0  0  0
 23 22  2  0  0  0
  6 13  1  0  0  0
  6 33  1  0  0  0
 24 17  2  0  0  0
 24 23  1  0  0  0
 28 29  1  0  0  0
 28 27  1  0  0  0
  7  8  1  0  0  0
  9  1  1  0  0  0
 10  7  2  0  0  0
 10  9  1  0  0  0
 11  3  2  0  0  0
 11  4  1  0  0  0
 12 17  1  0  0  0
 12  7  1  0  0  0
 13  2  2  0  0  0
 26 27  1  0  0  0
 30 28  1  0  0  0
 31 30  2  0  0  0
 31 32  1  0  0  0
 32 29  2  0  0  0
 33 36  1  0  0  0
 36 34  1  0  0  0
 36 37  1  0  0  0
  5 14  1  0  0  0
  5 15  1  0  0  0
  6 16  1  0  0  0
M  END
> <minimizedAffinity>
-7.44138

$$$$
3R4P_FU7_A_901


 37 40  0  0  0  0  0  0  0  0999 V2000
   14.1572   -4.3208   56.2857 N   0  0  0  0  0  0  0  0  0  0  0  0
   14.4036   -6.3203   55.1590 O   0  0  0  0  0  0  0  0  0  0  0  0
   13.5942   -0.9168   57.5332 N   0  0  0  0  0  0  0  0  0  0  0  0
   13.0243    0.1375   55.3941 N   0  0  0  0  0  0  0  0  0  0  0  0
   13.0519    1.3876   57.4150 N   0  0  0  0  0  0  0  0  0  0  0  0
   14.7773   -6.2864   57.4363 N   0  0  0  0  0  0  0  0  0  0  0  0
   13.5642   -2.2166   55.4932 C   0  0  0  0  0  0  0  0  0  0  0  0
   13.8080   -3.6157   55.0596 C   0  0  0  0  0  0  0  0  0  0  0  0
   14.1446   -3.4146   57.4609 C   0  0  0  0  0  0  0  0  0  0  0  0
   13.7501   -2.0820   56.8597 C   0  0  0  0  0  0  0  0  0  0  0  0
   13.2265    0.1773   56.7682 C   0  0  0  0  0  0  0  0  0  0  0  0
   13.1954   -1.0621   54.7673 C   0  0  0  0  0  0  0  0  0  0  0  0
   14.4448   -5.6857   56.2273 C   0  0  0  0  0  0  0  0  0  0  0  0
   13.1874    1.4498   58.3882 H   0  0  0  0  0  0  0  0  0  0  0  0
   12.7921    2.1869   56.9022 H   0  0  0  0  0  0  0  0  0  0  0  0
   14.7932   -5.7424   58.2567 H   0  0  0  0  0  0  0  0  0  0  0  0
   13.0238   -1.1738   53.2931 C   0  0  0  0  0  0  0  0  0  0  0  0
   10.2731   -1.1514   53.7236 Cl  0  0  0  0  0  0  0  0  0  0  0  0
   14.1591   -1.1702   52.3847 C   0  0  0  0  0  0  0  0  0  0  0  0
   12.3857   -0.9237   48.7675 Cl  0  0  0  0  0  0  0  0  0  0  0  0
   13.9437   -1.0958   50.9752 C   0  0  0  0  0  0  0  0  0  0  0  0
   12.6297   -1.0382   50.4657 C   0  0  0  0  0  0  0  0  0  0  0  0
   11.5100   -1.0717   51.3281 C   0  0  0  0  0  0  0  0  0  0  0  0
   11.6998   -1.1486   52.7298 C   0  0  0  0  0  0  0  0  0  0  0  0
   15.3983   -1.2538   53.0017 O   0  0  0  0  0  0  0  0  0  0  0  0
   16.6057   -1.1808   52.2320 C   0  0  0  0  0  0  0  0  0  0  0  0
   17.2099   -2.5803   52.1599 C   0  0  0  0  0  0  0  0  0  0  0  0
   17.6181   -3.1429   53.4285 N   0  0  0  0  0  0  0  0  0  0  0  0
   18.5863   -2.5418   54.1453 N   0  0  0  0  0  0  0  0  0  0  0  0
   17.1206   -4.2739   54.0138 C   0  0  0  0  0  0  0  0  0  0  0  0
   17.8077   -4.4180   55.1882 C   0  0  0  0  0  0  0  0  0  0  0  0
   18.6960   -3.3256   55.2195 C   0  0  0  0  0  0  0  0  0  0  0  0
   15.1046   -7.7123   57.5144 C   0  0  0  0  0  0  0  0  0  0  0  0
   17.1637   -7.8032   56.3942 F   0  0  0  0  0  0  0  0  0  0  0  0
   16.8471   -9.1935   58.0398 F   0  0  0  0  0  0  0  0  0  0  0  0
   16.5986   -7.9337   57.6200 C   0  0  0  0  0  0  0  0  0  0  0  0
   17.2681   -6.9585   58.5637 C   0  0  0  0  0  0  0  0  0  0  0  0
 17 19  1  0  0  0
  1  8  1  0  0  0
  1 13  1  0  0  0
 18 24  1  0  0  0
 19 21  2  0  0  0
 19 25  1  0  0  0
 35 36  1  0  0  0
  3 10  1  0  0  0
 25 26  1  0  0  0
  4 12  2  0  0  0
 22 20  1  0  0  0
 22 21  1  0  0  0
  5 11  1  0  0  0
 23 22  2  0  0  0
  6 13  1  0  0  0
  6 33  1  0  0  0
 24 17  2  0  0  0
 24 23  1  0  0  0
 28 29  1  0  0  0
 28 27  1  0  0  0
  7  8  1  0  0  0
  9  1  1  0  0  0
 10  7  2  0  0  0
 10  9  1  0  0  0
 11  3  2  0  0  0
 11  4  1  0  0  0
 12 17  1  0  0  0
 12  7  1  0  0  0
 13  2  2  0  0  0
 26 27  1  0  0  0
 30 28  1  0  0  0
 31 30  2  0  0  0
 31 32  1  0  0  0
 32 29  2  0  0  0
 33 36  1  0  0  0
 36 34  1  0  0  0
 36 37  1  0  0  0
  5 14  1  0  0  0
  5 15  1  0  0  0
  6 16  1  0  0  0
M  END
> <minimizedAffinity>
-7.24863

$$$$
