5ANU_58T_A_1158


 28 31  0  0  0  0  0  0  0  0999 V2000
   18.3447   21.9288    4.0144 O   0  0  0  0  0  0  0  0  0  0  0  0
   17.4195   21.2722    4.4454 C   0  0  0  0  0  0  0  0  0  0  0  0
   17.4567   20.3462    5.4500 N   0  0  0  0  0  0  0  0  0  0  0  0
   16.2201   19.7560    5.6031 C   0  0  0  0  0  0  0  0  0  0  0  0
   16.1366   21.2639    3.9409 N   0  0  0  0  0  0  0  0  0  0  0  0
   15.3908   20.3285    4.6114 C   0  0  0  0  0  0  0  0  0  0  0  0
   15.7337   22.0358    2.7597 C   0  0  0  0  0  0  0  0  0  0  0  0
   14.9282   23.2891    2.9895 C   0  0  0  0  0  0  0  0  0  0  0  0
   15.2767   24.4702    2.3584 C   0  0  0  0  0  0  0  0  0  0  0  0
   14.5131   25.6104    2.5253 C   0  0  0  0  0  0  0  0  0  0  0  0
   13.3418   25.5673    3.2605 C   0  0  0  0  0  0  0  0  0  0  0  0
   13.7453   23.2440    3.7161 C   0  0  0  0  0  0  0  0  0  0  0  0
   12.9610   24.3780    3.8531 C   0  0  0  0  0  0  0  0  0  0  0  0
   11.7871   24.3909    4.5885 O   0  0  0  0  0  0  0  0  0  0  0  0
   11.6414   23.5270    5.7324 C   0  0  0  0  0  0  0  0  0  0  0  0
   10.5876   22.5002    5.4383 C   0  0  0  0  0  0  0  0  0  0  0  0
   11.2163   21.4373    4.7630 O   0  0  0  0  0  0  0  0  0  0  0  0
   10.5646   20.1668    4.8820 C   0  0  0  0  0  0  0  0  0  0  0  0
   11.4546   19.1361    4.2320 C   0  0  0  0  0  0  0  0  0  0  0  0
   12.4204   18.6803    5.2133 O   0  0  0  0  0  0  0  0  0  0  0  0
   13.7019   19.0576    5.2749 C   0  0  0  0  0  0  0  0  0  0  0  0
   14.1068   19.9846    4.4112 N   0  0  0  0  0  0  0  0  0  0  0  0
   14.4211   18.4346    6.2342 N   0  0  0  0  0  0  0  0  0  0  0  0
   15.6891   18.7538    6.4531 C   0  0  0  0  0  0  0  0  0  0  0  0
   18.2530   20.1313    5.9876 H   0  0  0  0  0  0  0  0  0  0  0  0
   16.3942   18.1480    7.4186 N   0  0  0  0  0  0  0  0  0  0  0  0
   15.8055   17.5935    8.6117 C   0  0  0  0  0  0  0  0  0  0  0  0
   17.3697   18.0778    7.3065 H   0  0  0  0  0  0  0  0  0  0  0  0
  1  2  2  0  0  0
  2  3  1  0  0  0
  2  5  1  0  0  0
  3  4  1  0  0  0
  4  6  1  0  0  0
  4 24  2  0  0  0
  5  6  1  0  0  0
  5  7  1  0  0  0
  6 22  2  0  0  0
  7  8  1  0  0  0
  8  9  1  0  0  0
  8 12  2  0  0  0
  9 10  2  0  0  0
 10 11  1  0  0  0
 11 13  2  0  0  0
 12 13  1  0  0  0
 13 14  1  0  0  0
 14 15  1  0  0  0
 15 16  1  0  0  0
 16 17  1  0  0  0
 17 18  1  0  0  0
 18 19  1  0  0  0
 19 20  1  0  0  0
 20 21  1  0  0  0
 21 22  1  0  0  0
 21 23  2  0  0  0
 23 24  1  0  0  0
 24 26  1  0  0  0
 26 27  1  0  0  0
  3 25  1  0  0  0
 26 28  1  0  0  0
M  END
> <minimizedAffinity>
-11.60454

$$$$
