5AOL_UFV_A_1293


 17 17  0  0  0  0  0  0  0  0999 V2000
   91.1885   93.3971  -41.8263 C   0  0  0  0  0  0  0  0  0  0  0  0
   92.4613   93.0436  -41.4206 C   0  0  0  0  0  0  0  0  0  0  0  0
   92.9811   91.8047  -41.7452 C   0  0  0  0  0  0  0  0  0  0  0  0
   92.1962   90.9209  -42.4675 C   0  0  0  0  0  0  0  0  0  0  0  0
   90.9087   91.2685  -42.8722 C   0  0  0  0  0  0  0  0  0  0  0  0
   90.3928   92.5223  -42.5511 C   0  0  0  0  0  0  0  0  0  0  0  0
   89.0667   92.9049  -42.9346 N   0  0  0  0  0  0  0  0  0  0  0  0
   90.1189   90.3449  -43.6204 N   0  0  0  0  0  0  0  0  0  0  0  0
   90.4994   95.1551  -41.3948 Br  0  0  0  0  0  0  0  0  0  0  0  0
   88.7233   93.7964  -42.6966 H   0  0  0  0  0  0  0  0  0  0  0  0
   88.4986   92.2764  -43.4361 H   0  0  0  0  0  0  0  0  0  0  0  0
   90.4818   89.4585  -43.8482 H   0  0  0  0  0  0  0  0  0  0  0  0
   89.2112   90.5940  -43.9087 H   0  0  0  0  0  0  0  0  0  0  0  0
   94.3544   91.4170  -41.3025 C   0  0  0  0  0  0  0  0  0  0  0  0
   94.7696   92.2812  -40.3835 F   0  0  0  0  0  0  0  0  0  0  0  0
   95.1800   91.4395  -42.3411 F   0  0  0  0  0  0  0  0  0  0  0  0
   94.3730   90.1868  -40.7970 F   0  0  0  0  0  0  0  0  0  0  0  0
  1  2  1  0  0  0
  1  6  2  0  0  0
  1  9  1  0  0  0
  2  3  2  0  0  0
  3  4  1  0  0  0
  3 14  1  0  0  0
  4  5  2  0  0  0
  5  6  1  0  0  0
  5  8  1  0  0  0
  6  7  1  0  0  0
 14 15  1  0  0  0
 14 16  1  0  0  0
 14 17  1  0  0  0
  7 10  1  0  0  0
  7 11  1  0  0  0
  8 12  1  0  0  0
  8 13  1  0  0  0
M  END
> <minimizedAffinity>
-6.88296

$$$$
5AOL_UFV_A_1293


 17 17  0  0  0  0  0  0  0  0999 V2000
   91.1763   93.3786  -41.8382 C   0  0  0  0  0  0  0  0  0  0  0  0
   92.4515   93.0333  -41.4331 C   0  0  0  0  0  0  0  0  0  0  0  0
   92.9789   91.7975  -41.7575 C   0  0  0  0  0  0  0  0  0  0  0  0
   92.1992   90.9085  -42.4789 C   0  0  0  0  0  0  0  0  0  0  0  0
   90.9093   91.2479  -42.8831 C   0  0  0  0  0  0  0  0  0  0  0  0
   90.3857   92.4985  -42.5622 C   0  0  0  0  0  0  0  0  0  0  0  0
   89.0570   92.8727  -42.9451 N   0  0  0  0  0  0  0  0  0  0  0  0
   90.1248   90.3190  -43.6304 N   0  0  0  0  0  0  0  0  0  0  0  0
   90.4764   95.1324  -41.4069 Br  0  0  0  0  0  0  0  0  0  0  0  0
   88.7082   93.7621  -42.7072 H   0  0  0  0  0  0  0  0  0  0  0  0
   88.4926   92.2404  -43.4460 H   0  0  0  0  0  0  0  0  0  0  0  0
   90.4932   89.4348  -43.8581 H   0  0  0  0  0  0  0  0  0  0  0  0
   89.2154   90.5624  -43.9183 H   0  0  0  0  0  0  0  0  0  0  0  0
   94.3549   91.4186  -41.3154 C   0  0  0  0  0  0  0  0  0  0  0  0
   94.3213   90.1902  -40.8116 F   0  0  0  0  0  0  0  0  0  0  0  0
   94.7748   92.2696  -40.3880 F   0  0  0  0  0  0  0  0  0  0  0  0
   95.2191   91.4616  -42.3257 F   0  0  0  0  0  0  0  0  0  0  0  0
  1  2  1  0  0  0
  1  6  2  0  0  0
  1  9  1  0  0  0
  2  3  2  0  0  0
  3  4  1  0  0  0
  3 14  1  0  0  0
  4  5  2  0  0  0
  5  6  1  0  0  0
  5  8  1  0  0  0
  6  7  1  0  0  0
 14 15  1  0  0  0
 14 16  1  0  0  0
 14 17  1  0  0  0
  7 10  1  0  0  0
  7 11  1  0  0  0
  8 12  1  0  0  0
  8 13  1  0  0  0
M  END
> <minimizedAffinity>
-6.85313

$$$$
5AOL_UFV_A_1293


 17 17  0  0  0  0  0  0  0  0999 V2000
   91.0478   89.0238  -41.8111 C   0  0  0  0  0  0  0  0  0  0  0  0
   92.3311   89.4658  -41.5519 C   0  0  0  0  0  0  0  0  0  0  0  0
   92.7412   90.7149  -41.9788 C   0  0  0  0  0  0  0  0  0  0  0  0
   91.8485   91.5044  -42.6848 C   0  0  0  0  0  0  0  0  0  0  0  0
   90.5556   91.0606  -42.9565 C   0  0  0  0  0  0  0  0  0  0  0  0
   90.1437   89.8048  -42.5156 C   0  0  0  0  0  0  0  0  0  0  0  0
   88.8286   89.3097  -42.7940 N   0  0  0  0  0  0  0  0  0  0  0  0
   89.6500   91.8924  -43.6809 N   0  0  0  0  0  0  0  0  0  0  0  0
   90.4845   87.2867  -41.1654 Br  0  0  0  0  0  0  0  0  0  0  0  0
   88.5596   88.4190  -42.4721 H   0  0  0  0  0  0  0  0  0  0  0  0
   88.1938   89.8601  -43.3071 H   0  0  0  0  0  0  0  0  0  0  0  0
   89.9393   92.7800  -43.9932 H   0  0  0  0  0  0  0  0  0  0  0  0
   88.7358   91.5784  -43.8682 H   0  0  0  0  0  0  0  0  0  0  0  0
   94.1301   91.1932  -41.7059 C   0  0  0  0  0  0  0  0  0  0  0  0
   94.7187   91.4851  -42.8601 F   0  0  0  0  0  0  0  0  0  0  0  0
   94.8148   90.2415  -41.0844 F   0  0  0  0  0  0  0  0  0  0  0  0
   94.1289   92.2684  -40.9227 F   0  0  0  0  0  0  0  0  0  0  0  0
  1  2  1  0  0  0
  1  6  2  0  0  0
  1  9  1  0  0  0
  2  3  2  0  0  0
  3  4  1  0  0  0
  3 14  1  0  0  0
  4  5  2  0  0  0
  5  6  1  0  0  0
  5  8  1  0  0  0
  6  7  1  0  0  0
 14 15  1  0  0  0
 14 16  1  0  0  0
 14 17  1  0  0  0
  7 10  1  0  0  0
  7 11  1  0  0  0
  8 12  1  0  0  0
  8 13  1  0  0  0
M  END
> <minimizedAffinity>
-6.70335

$$$$
5AOL_UFV_A_1293


 17 17  0  0  0  0  0  0  0  0999 V2000
   90.8264   91.5329  -42.9204 C   0  0  0  0  0  0  0  0  0  0  0  0
   92.1270   91.8259  -42.5571 C   0  0  0  0  0  0  0  0  0  0  0  0
   92.9051   90.8802  -41.9161 C   0  0  0  0  0  0  0  0  0  0  0  0
   92.3508   89.6434  -41.6304 C   0  0  0  0  0  0  0  0  0  0  0  0
   91.0369   89.3450  -41.9868 C   0  0  0  0  0  0  0  0  0  0  0  0
   90.2597   90.2981  -42.6415 C   0  0  0  0  0  0  0  0  0  0  0  0
   88.8999   90.0315  -43.0049 N   0  0  0  0  0  0  0  0  0  0  0  0
   90.4870   88.0624  -41.6877 N   0  0  0  0  0  0  0  0  0  0  0  0
   89.7708   92.8610  -43.8551 Br  0  0  0  0  0  0  0  0  0  0  0  0
   88.3698   90.7205  -43.4672 H   0  0  0  0  0  0  0  0  0  0  0  0
   88.4955   89.1594  -42.7925 H   0  0  0  0  0  0  0  0  0  0  0  0
   91.0348   87.3877  -41.2252 H   0  0  0  0  0  0  0  0  0  0  0  0
   89.5599   87.8524  -41.9440 H   0  0  0  0  0  0  0  0  0  0  0  0
   94.3097   91.1960  -41.5162 C   0  0  0  0  0  0  0  0  0  0  0  0
   95.0255   91.4302  -42.6101 F   0  0  0  0  0  0  0  0  0  0  0  0
   94.8269   90.1674  -40.8566 F   0  0  0  0  0  0  0  0  0  0  0  0
   94.3602   92.2572  -40.7158 F   0  0  0  0  0  0  0  0  0  0  0  0
  1  2  1  0  0  0
  1  6  2  0  0  0
  1  9  1  0  0  0
  2  3  2  0  0  0
  3  4  1  0  0  0
  3 14  1  0  0  0
  4  5  2  0  0  0
  5  6  1  0  0  0
  5  8  1  0  0  0
  6  7  1  0  0  0
 14 15  1  0  0  0
 14 16  1  0  0  0
 14 17  1  0  0  0
  7 10  1  0  0  0
  7 11  1  0  0  0
  8 12  1  0  0  0
  8 13  1  0  0  0
M  END
> <minimizedAffinity>
-6.65957

$$$$
5AOL_UFV_A_1293


 17 17  0  0  0  0  0  0  0  0999 V2000
   91.6978   92.1190  -43.8501 C   0  0  0  0  0  0  0  0  0  0  0  0
   92.8399   91.6093  -43.2626 C   0  0  0  0  0  0  0  0  0  0  0  0
   93.1983   91.9889  -41.9827 C   0  0  0  0  0  0  0  0  0  0  0  0
   92.4018   92.9010  -41.3102 C   0  0  0  0  0  0  0  0  0  0  0  0
   91.2533   93.4249  -41.9007 C   0  0  0  0  0  0  0  0  0  0  0  0
   90.8908   93.0318  -43.1873 C   0  0  0  0  0  0  0  0  0  0  0  0
   89.7275   93.5649  -43.8314 N   0  0  0  0  0  0  0  0  0  0  0  0
   90.4437   94.3595  -41.1880 N   0  0  0  0  0  0  0  0  0  0  0  0
   91.1949   91.5389  -45.6284 Br  0  0  0  0  0  0  0  0  0  0  0  0
   89.4910   93.2722  -44.7411 H   0  0  0  0  0  0  0  0  0  0  0  0
   89.1647   94.2239  -43.3643 H   0  0  0  0  0  0  0  0  0  0  0  0
   90.6983   94.6384  -40.2789 H   0  0  0  0  0  0  0  0  0  0  0  0
   89.6306   94.7253  -41.6056 H   0  0  0  0  0  0  0  0  0  0  0  0
   94.4361   91.4446  -41.3471 C   0  0  0  0  0  0  0  0  0  0  0  0
   94.7895   92.2401  -40.3441 F   0  0  0  0  0  0  0  0  0  0  0  0
   95.4131   91.3967  -42.2438 F   0  0  0  0  0  0  0  0  0  0  0  0
   94.2453   90.2101  -40.8899 F   0  0  0  0  0  0  0  0  0  0  0  0
  1  2  1  0  0  0
  1  6  2  0  0  0
  1  9  1  0  0  0
  2  3  2  0  0  0
  3  4  1  0  0  0
  3 14  1  0  0  0
  4  5  2  0  0  0
  5  6  1  0  0  0
  5  8  1  0  0  0
  6  7  1  0  0  0
 14 15  1  0  0  0
 14 16  1  0  0  0
 14 17  1  0  0  0
  7 10  1  0  0  0
  7 11  1  0  0  0
  8 12  1  0  0  0
  8 13  1  0  0  0
M  END
> <minimizedAffinity>
-6.59015

$$$$
5AOL_UFV_A_1293


 17 17  0  0  0  0  0  0  0  0999 V2000
   92.5547   90.5221  -41.9475 C   0  0  0  0  0  0  0  0  0  0  0  0
   92.1899   89.2611  -41.5160 C   0  0  0  0  0  0  0  0  0  0  0  0
   90.9416   88.7509  -41.8193 C   0  0  0  0  0  0  0  0  0  0  0  0
   90.0603   89.5337  -42.5468 C   0  0  0  0  0  0  0  0  0  0  0  0
   90.4194   90.8095  -42.9777 C   0  0  0  0  0  0  0  0  0  0  0  0
   91.6824   91.3156  -42.6779 C   0  0  0  0  0  0  0  0  0  0  0  0
   92.0772   92.6300  -43.0884 N   0  0  0  0  0  0  0  0  0  0  0  0
   89.4980   91.5972  -43.7308 N   0  0  0  0  0  0  0  0  0  0  0  0
   94.3250   91.1972  -41.5452 Br  0  0  0  0  0  0  0  0  0  0  0  0
   92.9751   92.9665  -42.8652 H   0  0  0  0  0  0  0  0  0  0  0  0
   91.4507   93.1968  -43.5939 H   0  0  0  0  0  0  0  0  0  0  0  0
   88.6051   91.2412  -43.9436 H   0  0  0  0  0  0  0  0  0  0  0  0
   89.7553   92.4967  -44.0375 H   0  0  0  0  0  0  0  0  0  0  0  0
   90.5417   87.3904  -41.3487 C   0  0  0  0  0  0  0  0  0  0  0  0
   91.4733   86.5178  -41.7155 F   0  0  0  0  0  0  0  0  0  0  0  0
   89.3783   87.0553  -41.8918 F   0  0  0  0  0  0  0  0  0  0  0  0
   90.3962   87.3566  -40.0269 F   0  0  0  0  0  0  0  0  0  0  0  0
  1  2  1  0  0  0
  1  6  2  0  0  0
  1  9  1  0  0  0
  2  3  2  0  0  0
  3  4  1  0  0  0
  3 14  1  0  0  0
  4  5  2  0  0  0
  5  6  1  0  0  0
  5  8  1  0  0  0
  6  7  1  0  0  0
 14 15  1  0  0  0
 14 16  1  0  0  0
 14 17  1  0  0  0
  7 10  1  0  0  0
  7 11  1  0  0  0
  8 12  1  0  0  0
  8 13  1  0  0  0
M  END
> <minimizedAffinity>
-6.42510

$$$$
5AOL_UFV_A_1293


 17 17  0  0  0  0  0  0  0  0999 V2000
   91.2374   93.7168  -41.6358 C   0  0  0  0  0  0  0  0  0  0  0  0
   92.4770   93.1562  -41.3935 C   0  0  0  0  0  0  0  0  0  0  0  0
   92.7753   91.8888  -41.8575 C   0  0  0  0  0  0  0  0  0  0  0  0
   91.8037   91.1875  -42.5523 C   0  0  0  0  0  0  0  0  0  0  0  0
   90.5489   91.7442  -42.7925 C   0  0  0  0  0  0  0  0  0  0  0  0
   90.2562   93.0259  -42.3313 C   0  0  0  0  0  0  0  0  0  0  0  0
   88.9704   93.6208  -42.5438 N   0  0  0  0  0  0  0  0  0  0  0  0
   89.5640   91.0063  -43.5152 N   0  0  0  0  0  0  0  0  0  0  0  0
   90.8589   95.5108  -41.0113 Br  0  0  0  0  0  0  0  0  0  0  0  0
   88.7864   94.5280  -42.2088 H   0  0  0  0  0  0  0  0  0  0  0  0
   88.2709   93.1223  -43.0249 H   0  0  0  0  0  0  0  0  0  0  0  0
   89.7691   90.1005  -43.8419 H   0  0  0  0  0  0  0  0  0  0  0  0
   88.6796   91.4031  -43.6872 H   0  0  0  0  0  0  0  0  0  0  0  0
   94.1124   91.2774  -41.5917 C   0  0  0  0  0  0  0  0  0  0  0  0
   94.8632   91.3957  -42.6807 F   0  0  0  0  0  0  0  0  0  0  0  0
   93.9632   89.9938  -41.2903 F   0  0  0  0  0  0  0  0  0  0  0  0
   94.7208   91.8662  -40.5657 F   0  0  0  0  0  0  0  0  0  0  0  0
  1  2  1  0  0  0
  1  6  2  0  0  0
  1  9  1  0  0  0
  2  3  2  0  0  0
  3  4  1  0  0  0
  3 14  1  0  0  0
  4  5  2  0  0  0
  5  6  1  0  0  0
  5  8  1  0  0  0
  6  7  1  0  0  0
 14 15  1  0  0  0
 14 16  1  0  0  0
 14 17  1  0  0  0
  7 10  1  0  0  0
  7 11  1  0  0  0
  8 12  1  0  0  0
  8 13  1  0  0  0
M  END
> <minimizedAffinity>
-6.41030

$$$$
5AOL_UFV_A_1293


 17 17  0  0  0  0  0  0  0  0999 V2000
   90.8985   88.8808  -41.8045 C   0  0  0  0  0  0  0  0  0  0  0  0
   92.0781   89.5870  -41.9428 C   0  0  0  0  0  0  0  0  0  0  0  0
   92.0695   90.8723  -42.4511 C   0  0  0  0  0  0  0  0  0  0  0  0
   90.8607   91.4294  -42.8347 C   0  0  0  0  0  0  0  0  0  0  0  0
   89.6687   90.7190  -42.7055 C   0  0  0  0  0  0  0  0  0  0  0  0
   89.6813   89.4273  -42.1833 C   0  0  0  0  0  0  0  0  0  0  0  0
   88.4773   88.6618  -42.0547 N   0  0  0  0  0  0  0  0  0  0  0  0
   88.4334   91.3138  -43.1017 N   0  0  0  0  0  0  0  0  0  0  0  0
   90.9329   87.0971  -41.0503 Br  0  0  0  0  0  0  0  0  0  0  0  0
   88.5106   87.7509  -41.6828 H   0  0  0  0  0  0  0  0  0  0  0  0
   87.6166   89.0467  -42.3381 H   0  0  0  0  0  0  0  0  0  0  0  0
   88.4226   92.2264  -43.4709 H   0  0  0  0  0  0  0  0  0  0  0  0
   87.5921   90.8116  -43.0059 H   0  0  0  0  0  0  0  0  0  0  0  0
   93.3440   91.6362  -42.6079 C   0  0  0  0  0  0  0  0  0  0  0  0
   93.7138   92.1032  -41.4209 F   0  0  0  0  0  0  0  0  0  0  0  0
   93.1569   92.6474  -43.4464 F   0  0  0  0  0  0  0  0  0  0  0  0
   94.3113   90.8709  -43.1059 F   0  0  0  0  0  0  0  0  0  0  0  0
  1  2  1  0  0  0
  1  6  2  0  0  0
  1  9  1  0  0  0
  2  3  2  0  0  0
  3  4  1  0  0  0
  3 14  1  0  0  0
  4  5  2  0  0  0
  5  6  1  0  0  0
  5  8  1  0  0  0
  6  7  1  0  0  0
 14 15  1  0  0  0
 14 16  1  0  0  0
 14 17  1  0  0  0
  7 10  1  0  0  0
  7 11  1  0  0  0
  8 12  1  0  0  0
  8 13  1  0  0  0
M  END
> <minimizedAffinity>
-6.30053

$$$$
5AOL_UFV_A_1293


 17 17  0  0  0  0  0  0  0  0999 V2000
   87.0345   88.4732  -41.8728 C   0  0  0  0  0  0  0  0  0  0  0  0
   87.8909   87.4909  -41.4132 C   0  0  0  0  0  0  0  0  0  0  0  0
   89.2602   87.6645  -41.4879 C   0  0  0  0  0  0  0  0  0  0  0  0
   89.7547   88.8312  -42.0472 C   0  0  0  0  0  0  0  0  0  0  0  0
   88.8961   89.8218  -42.5201 C   0  0  0  0  0  0  0  0  0  0  0  0
   87.5166   89.6466  -42.4337 C   0  0  0  0  0  0  0  0  0  0  0  0
   86.6055   90.6358  -42.9273 N   0  0  0  0  0  0  0  0  0  0  0  0
   89.4267   91.0188  -43.0879 N   0  0  0  0  0  0  0  0  0  0  0  0
   85.1200   88.2237  -41.7182 Br  0  0  0  0  0  0  0  0  0  0  0  0
   85.6345   90.4902  -42.8554 H   0  0  0  0  0  0  0  0  0  0  0  0
   86.9504   91.4611  -43.3385 H   0  0  0  0  0  0  0  0  0  0  0  0
   90.4012   91.1444  -43.1497 H   0  0  0  0  0  0  0  0  0  0  0  0
   88.8182   91.7190  -43.4177 H   0  0  0  0  0  0  0  0  0  0  0  0
   90.1888   86.6016  -40.9977 C   0  0  0  0  0  0  0  0  0  0  0  0
   89.5255   85.4536  -40.9207 F   0  0  0  0  0  0  0  0  0  0  0  0
   90.6499   86.9316  -39.7981 F   0  0  0  0  0  0  0  0  0  0  0  0
   91.2340   86.4580  -41.8078 F   0  0  0  0  0  0  0  0  0  0  0  0
  1  2  1  0  0  0
  1  6  2  0  0  0
  1  9  1  0  0  0
  2  3  2  0  0  0
  3  4  1  0  0  0
  3 14  1  0  0  0
  4  5  2  0  0  0
  5  6  1  0  0  0
  5  8  1  0  0  0
  6  7  1  0  0  0
 14 15  1  0  0  0
 14 16  1  0  0  0
 14 17  1  0  0  0
  7 10  1  0  0  0
  7 11  1  0  0  0
  8 12  1  0  0  0
  8 13  1  0  0  0
M  END
> <minimizedAffinity>
-5.98629

$$$$
5AOL_UFV_A_1293


 17 17  0  0  0  0  0  0  0  0999 V2000
   92.4958   91.3600  -42.5555 C   0  0  0  0  0  0  0  0  0  0  0  0
   92.2832   92.5362  -43.2490 C   0  0  0  0  0  0  0  0  0  0  0  0
   91.0393   92.8210  -43.7801 C   0  0  0  0  0  0  0  0  0  0  0  0
   90.0186   91.8986  -43.6192 C   0  0  0  0  0  0  0  0  0  0  0  0
   90.2292   90.7068  -42.9281 C   0  0  0  0  0  0  0  0  0  0  0  0
   91.4821   90.4286  -42.3860 C   0  0  0  0  0  0  0  0  0  0  0  0
   91.7385   89.2050  -41.6865 N   0  0  0  0  0  0  0  0  0  0  0  0
   89.1622   89.7725  -42.7691 N   0  0  0  0  0  0  0  0  0  0  0  0
   94.2368   91.0038  -41.7848 Br  0  0  0  0  0  0  0  0  0  0  0  0
   92.6319   89.0301  -41.3118 H   0  0  0  0  0  0  0  0  0  0  0  0
   91.0212   88.5390  -41.5805 H   0  0  0  0  0  0  0  0  0  0  0  0
   88.2761   89.9674  -43.1515 H   0  0  0  0  0  0  0  0  0  0  0  0
   89.3121   88.9331  -42.2771 H   0  0  0  0  0  0  0  0  0  0  0  0
   90.8079   94.0889  -44.5360 C   0  0  0  0  0  0  0  0  0  0  0  0
   90.0455   93.8269  -45.5914 F   0  0  0  0  0  0  0  0  0  0  0  0
   91.9705   94.5862  -44.9381 F   0  0  0  0  0  0  0  0  0  0  0  0
   90.2160   95.0065  -43.7764 F   0  0  0  0  0  0  0  0  0  0  0  0
  1  2  1  0  0  0
  1  6  2  0  0  0
  1  9  1  0  0  0
  2  3  2  0  0  0
  3  4  1  0  0  0
  3 14  1  0  0  0
  4  5  2  0  0  0
  5  6  1  0  0  0
  5  8  1  0  0  0
  6  7  1  0  0  0
 14 15  1  0  0  0
 14 16  1  0  0  0
 14 17  1  0  0  0
  7 10  1  0  0  0
  7 11  1  0  0  0
  8 12  1  0  0  0
  8 13  1  0  0  0
M  END
> <minimizedAffinity>
-5.87081

$$$$
