5NK9_912_A_1001


 38 41  0  0  0  0  0  0  0  0999 V2000
  -83.5149  -10.5403    8.0994 C   0  0  0  0  0  0  0  0  0  0  0  0
  -84.7925  -10.7162    7.6043 C   0  0  0  0  0  0  0  0  0  0  0  0
  -82.4731  -10.6339    7.2114 C   0  0  0  0  0  0  0  0  0  0  0  0
  -82.6479  -10.8694    5.9022 C   0  0  0  0  0  0  0  0  0  0  0  0
  -83.9248  -11.0359    5.4735 C   0  0  0  0  0  0  0  0  0  0  0  0
  -85.0057  -10.9663    6.2555 C   0  0  0  0  0  0  0  0  0  0  0  0
  -86.1431  -11.1227    5.6401 N   0  0  0  0  0  0  0  0  0  0  0  0
  -87.2025  -11.6389    6.1745 C   0  0  0  0  0  0  0  0  0  0  0  0
  -87.4148  -12.2826    7.7081 S   0  0  0  0  0  0  0  0  0  0  0  0
  -88.3282  -11.7224    5.5451 N   0  0  0  0  0  0  0  0  0  0  0  0
  -89.3193  -12.2552    6.2508 C   0  0  0  0  0  0  0  0  0  0  0  0
  -89.0417  -12.6807    7.4807 C   0  0  0  0  0  0  0  0  0  0  0  0
  -88.4420  -11.4156    4.6165 H   0  0  0  0  0  0  0  0  0  0  0  0
  -89.8083  -13.2765    8.4698 C   0  0  0  0  0  0  0  0  0  0  0  0
  -89.3174  -13.4313    9.5289 O   0  0  0  0  0  0  0  0  0  0  0  0
  -91.0619  -13.6616    8.2213 N   0  0  0  0  0  0  0  0  0  0  0  0
  -91.4303  -13.5127    7.3206 H   0  0  0  0  0  0  0  0  0  0  0  0
  -91.8549  -14.2525    9.1609 C   0  0  0  0  0  0  0  0  0  0  0  0
  -92.6380  -13.4886   10.0184 C   0  0  0  0  0  0  0  0  0  0  0  0
  -92.6027  -11.7924    9.9850 Cl  0  0  0  0  0  0  0  0  0  0  0  0
  -93.4552  -14.0881   10.9553 C   0  0  0  0  0  0  0  0  0  0  0  0
  -93.5321  -15.4654   11.0207 C   0  0  0  0  0  0  0  0  0  0  0  0
  -92.7796  -16.2201   10.1460 C   0  0  0  0  0  0  0  0  0  0  0  0
  -91.9451  -15.6413    9.2168 C   0  0  0  0  0  0  0  0  0  0  0  0
  -91.1835  -16.4793    8.3896 C   0  0  0  0  0  0  0  0  0  0  0  0
  -84.3094  -10.2535   10.1669 N   0  0  0  0  0  0  0  0  0  0  0  0
  -83.2349  -10.2996    9.4463 C   0  0  0  0  0  0  0  0  0  0  0  0
  -82.1470  -10.0955    9.8844 O   0  0  0  0  0  0  0  0  0  0  0  0
  -85.1131  -10.1987    9.6010 H   0  0  0  0  0  0  0  0  0  0  0  0
  -86.0080  -10.8288   11.6410 C   0  0  0  0  0  0  0  0  0  0  0  0
  -86.5811   -9.9449   12.6416 C   0  0  0  0  0  0  0  0  0  0  0  0
  -85.9265  -10.2628   13.9348 C   0  0  0  0  0  0  0  0  0  0  0  0
  -86.3417  -11.6355   14.3786 C   0  0  0  0  0  0  0  0  0  0  0  0
  -86.4398   -9.2621   14.7633 O   0  0  0  0  0  0  0  0  0  0  0  0
  -84.3891  -10.3185   13.8743 C   0  0  0  0  0  0  0  0  0  0  0  0
  -83.8227  -10.9087   12.5327 C   0  0  0  0  0  0  0  0  0  0  0  0
  -84.6576  -10.2599   11.5593 C   0  0  0  0  0  0  0  0  0  0  0  0
  -87.4091   -9.2940   14.7463 H   0  0  0  0  0  0  0  0  0  0  0  0
 30 31  1  0  0  0
 30 37  1  0  0  0
 31 32  1  0  0  0
 32 33  1  0  0  0
 32 34  1  0  0  0
 32 35  1  0  0  0
 35 36  1  0  0  0
 36 37  1  0  0  0
 37 26  1  0  0  0
 26 27  1  0  0  0
 27 28  2  0  0  0
 27  1  1  0  0  0
  1  2  2  0  0  0
  1  3  1  0  0  0
  2  6  1  0  0  0
  3  4  2  0  0  0
  4  5  1  0  0  0
  5  6  2  0  0  0
  6  7  1  0  0  0
  7  8  2  0  0  0
  8  9  1  0  0  0
  8 10  1  0  0  0
  9 12  1  0  0  0
 10 11  1  0  0  0
 11 12  1  0  0  0
 12 14  1  0  0  0
 14 15  2  0  0  0
 14 16  1  0  0  0
 16 18  1  0  0  0
 18 19  2  0  0  0
 18 24  1  0  0  0
 19 20  1  0  0  0
 19 21  1  0  0  0
 21 22  2  0  0  0
 22 23  1  0  0  0
 23 24  2  0  0  0
 24 25  1  0  0  0
 34 38  1  0  0  0
 26 29  1  0  0  0
 10 13  1  0  0  0
 16 17  1  0  0  0
M  END
> <minimizedAffinity>
-10.29247

$$$$
5NK9_912_A_1001


 38 41  0  0  0  0  0  0  0  0999 V2000
  -84.2088  -10.6271    9.8629 C   0  0  0  0  0  0  0  0  0  0  0  0
  -85.2073  -10.8630    8.9380 C   0  0  0  0  0  0  0  0  0  0  0  0
  -82.9298  -10.4760    9.3897 C   0  0  0  0  0  0  0  0  0  0  0  0
  -82.6223  -10.5317    8.0849 C   0  0  0  0  0  0  0  0  0  0  0  0
  -83.6436  -10.7682    7.2230 C   0  0  0  0  0  0  0  0  0  0  0  0
  -84.9202  -10.9313    7.5815 C   0  0  0  0  0  0  0  0  0  0  0  0
  -85.7512  -11.1152    6.5953 N   0  0  0  0  0  0  0  0  0  0  0  0
  -86.9520  -11.5799    6.7236 C   0  0  0  0  0  0  0  0  0  0  0  0
  -87.7447  -12.1138    8.1013 S   0  0  0  0  0  0  0  0  0  0  0  0
  -87.7642  -11.6921    5.7246 N   0  0  0  0  0  0  0  0  0  0  0  0
  -88.9662  -12.1624    6.0380 C   0  0  0  0  0  0  0  0  0  0  0  0
  -89.1833  -12.5059    7.3052 C   0  0  0  0  0  0  0  0  0  0  0  0
  -87.5121  -11.4484    4.8047 H   0  0  0  0  0  0  0  0  0  0  0  0
  -90.2851  -13.0224    7.9686 C   0  0  0  0  0  0  0  0  0  0  0  0
  -91.3543  -12.7052    7.5906 O   0  0  0  0  0  0  0  0  0  0  0  0
  -90.1308  -13.8510    9.0036 N   0  0  0  0  0  0  0  0  0  0  0  0
  -89.2176  -14.0877    9.2850 H   0  0  0  0  0  0  0  0  0  0  0  0
  -91.1833  -14.3841    9.6885 C   0  0  0  0  0  0  0  0  0  0  0  0
  -91.8317  -13.6585   10.6811 C   0  0  0  0  0  0  0  0  0  0  0  0
  -91.3139  -12.1074   11.1340 Cl  0  0  0  0  0  0  0  0  0  0  0  0
  -92.9090  -14.1914   11.3595 C   0  0  0  0  0  0  0  0  0  0  0  0
  -93.3805  -15.4457   11.0255 C   0  0  0  0  0  0  0  0  0  0  0  0
  -92.7562  -16.1490   10.0174 C   0  0  0  0  0  0  0  0  0  0  0  0
  -91.6694  -15.6424    9.3413 C   0  0  0  0  0  0  0  0  0  0  0  0
  -91.0666  -16.4369    8.3554 C   0  0  0  0  0  0  0  0  0  0  0  0
  -85.6564  -10.8432   11.5499 N   0  0  0  0  0  0  0  0  0  0  0  0
  -84.4317  -10.5606   11.2401 C   0  0  0  0  0  0  0  0  0  0  0  0
  -83.6179  -10.2232   12.0409 O   0  0  0  0  0  0  0  0  0  0  0  0
  -86.2305  -10.8539   10.7502 H   0  0  0  0  0  0  0  0  0  0  0  0
  -87.8080  -10.8159   12.4211 C   0  0  0  0  0  0  0  0  0  0  0  0
  -88.1935  -10.1938   13.6763 C   0  0  0  0  0  0  0  0  0  0  0  0
  -88.2469  -11.2668   14.6999 C   0  0  0  0  0  0  0  0  0  0  0  0
  -89.3838  -12.1961   14.3879 C   0  0  0  0  0  0  0  0  0  0  0  0
  -88.4705  -10.5317   15.8664 O   0  0  0  0  0  0  0  0  0  0  0  0
  -87.0014  -12.1708   14.7411 C   0  0  0  0  0  0  0  0  0  0  0  0
  -86.3675  -12.4512   13.3309 C   0  0  0  0  0  0  0  0  0  0  0  0
  -86.4121  -11.1454   12.7321 C   0  0  0  0  0  0  0  0  0  0  0  0
  -89.2689   -9.9912   15.7599 H   0  0  0  0  0  0  0  0  0  0  0  0
 30 31  1  0  0  0
 30 37  1  0  0  0
 31 32  1  0  0  0
 32 33  1  0  0  0
 32 34  1  0  0  0
 32 35  1  0  0  0
 35 36  1  0  0  0
 36 37  1  0  0  0
 37 26  1  0  0  0
 26 27  1  0  0  0
 27 28  2  0  0  0
 27  1  1  0  0  0
  1  2  2  0  0  0
  1  3  1  0  0  0
  2  6  1  0  0  0
  3  4  2  0  0  0
  4  5  1  0  0  0
  5  6  2  0  0  0
  6  7  1  0  0  0
  7  8  2  0  0  0
  8  9  1  0  0  0
  8 10  1  0  0  0
  9 12  1  0  0  0
 10 11  1  0  0  0
 11 12  1  0  0  0
 12 14  1  0  0  0
 14 15  2  0  0  0
 14 16  1  0  0  0
 16 18  1  0  0  0
 18 19  2  0  0  0
 18 24  1  0  0  0
 19 20  1  0  0  0
 19 21  1  0  0  0
 21 22  2  0  0  0
 22 23  1  0  0  0
 23 24  2  0  0  0
 24 25  1  0  0  0
 34 38  1  0  0  0
 26 29  1  0  0  0
 10 13  1  0  0  0
 16 17  1  0  0  0
M  END
> <minimizedAffinity>
-10.26204

$$$$
5NK9_912_A_1001


 38 41  0  0  0  0  0  0  0  0999 V2000
  -84.1178  -10.5071    9.9409 C   0  0  0  0  0  0  0  0  0  0  0  0
  -85.0513  -10.8511    8.9826 C   0  0  0  0  0  0  0  0  0  0  0  0
  -82.8386  -10.2510    9.5159 C   0  0  0  0  0  0  0  0  0  0  0  0
  -82.4725  -10.3056    8.2262 C   0  0  0  0  0  0  0  0  0  0  0  0
  -83.4313  -10.6511    7.3301 C   0  0  0  0  0  0  0  0  0  0  0  0
  -84.7022  -10.9213    7.6408 C   0  0  0  0  0  0  0  0  0  0  0  0
  -85.4712  -11.1997    6.6268 N   0  0  0  0  0  0  0  0  0  0  0  0
  -86.6762  -11.6611    6.7237 C   0  0  0  0  0  0  0  0  0  0  0  0
  -87.5498  -12.0760    8.0934 S   0  0  0  0  0  0  0  0  0  0  0  0
  -87.4257  -11.8692    5.6916 N   0  0  0  0  0  0  0  0  0  0  0  0
  -88.6432  -12.3195    5.9729 C   0  0  0  0  0  0  0  0  0  0  0  0
  -88.9360  -12.5498    7.2504 C   0  0  0  0  0  0  0  0  0  0  0  0
  -87.1187  -11.7068    4.7704 H   0  0  0  0  0  0  0  0  0  0  0  0
  -90.0747  -13.0140    7.8899 C   0  0  0  0  0  0  0  0  0  0  0  0
  -91.1177  -12.7814    7.3954 O   0  0  0  0  0  0  0  0  0  0  0  0
  -89.9836  -13.7005    9.0309 N   0  0  0  0  0  0  0  0  0  0  0  0
  -89.0902  -13.8706    9.4080 H   0  0  0  0  0  0  0  0  0  0  0  0
  -91.0744  -14.1769    9.6974 C   0  0  0  0  0  0  0  0  0  0  0  0
  -91.5414  -15.4670    9.4745 C   0  0  0  0  0  0  0  0  0  0  0  0
  -90.8241  -16.4887    8.3252 Cl  0  0  0  0  0  0  0  0  0  0  0  0
  -92.6329  -15.9548   10.1641 C   0  0  0  0  0  0  0  0  0  0  0  0
  -93.2498  -15.1711   11.1192 C   0  0  0  0  0  0  0  0  0  0  0  0
  -92.7632  -13.9043   11.3620 C   0  0  0  0  0  0  0  0  0  0  0  0
  -91.6872  -13.3931   10.6722 C   0  0  0  0  0  0  0  0  0  0  0  0
  -91.2777  -12.0810   10.9506 C   0  0  0  0  0  0  0  0  0  0  0  0
  -85.6255  -10.7708   11.5673 N   0  0  0  0  0  0  0  0  0  0  0  0
  -84.4036  -10.4324   11.3060 C   0  0  0  0  0  0  0  0  0  0  0  0
  -83.6431  -10.0443   12.1354 O   0  0  0  0  0  0  0  0  0  0  0  0
  -86.1629  -10.8210   10.7439 H   0  0  0  0  0  0  0  0  0  0  0  0
  -87.7901  -10.6863   12.4019 C   0  0  0  0  0  0  0  0  0  0  0  0
  -88.1714  -10.1069   13.6787 C   0  0  0  0  0  0  0  0  0  0  0  0
  -88.2925  -11.2233   14.6487 C   0  0  0  0  0  0  0  0  0  0  0  0
  -89.4637  -12.0840   14.2733 C   0  0  0  0  0  0  0  0  0  0  0  0
  -88.5053  -10.5344   15.8451 O   0  0  0  0  0  0  0  0  0  0  0  0
  -87.0898  -12.1843   14.6679 C   0  0  0  0  0  0  0  0  0  0  0  0
  -86.4421  -12.4266   13.2569 C   0  0  0  0  0  0  0  0  0  0  0  0
  -86.4166  -11.0934   12.7207 C   0  0  0  0  0  0  0  0  0  0  0  0
  -89.2765   -9.9536   15.7510 H   0  0  0  0  0  0  0  0  0  0  0  0
 30 31  1  0  0  0
 30 37  1  0  0  0
 31 32  1  0  0  0
 32 33  1  0  0  0
 32 34  1  0  0  0
 32 35  1  0  0  0
 35 36  1  0  0  0
 36 37  1  0  0  0
 37 26  1  0  0  0
 26 27  1  0  0  0
 27 28  2  0  0  0
 27  1  1  0  0  0
  1  2  2  0  0  0
  1  3  1  0  0  0
  2  6  1  0  0  0
  3  4  2  0  0  0
  4  5  1  0  0  0
  5  6  2  0  0  0
  6  7  1  0  0  0
  7  8  2  0  0  0
  8  9  1  0  0  0
  8 10  1  0  0  0
  9 12  1  0  0  0
 10 11  1  0  0  0
 11 12  1  0  0  0
 12 14  1  0  0  0
 14 15  2  0  0  0
 14 16  1  0  0  0
 16 18  1  0  0  0
 18 19  2  0  0  0
 18 24  1  0  0  0
 19 20  1  0  0  0
 19 21  1  0  0  0
 21 22  2  0  0  0
 22 23  1  0  0  0
 23 24  2  0  0  0
 24 25  1  0  0  0
 34 38  1  0  0  0
 26 29  1  0  0  0
 10 13  1  0  0  0
 16 17  1  0  0  0
M  END
> <minimizedAffinity>
-10.12157

$$$$
5NK9_912_A_1001


 38 41  0  0  0  0  0  0  0  0999 V2000
  -88.9883  -12.7461    7.9782 C   0  0  0  0  0  0  0  0  0  0  0  0
  -87.6502  -12.4048    8.0138 C   0  0  0  0  0  0  0  0  0  0  0  0
  -89.7011  -12.3989    6.8584 C   0  0  0  0  0  0  0  0  0  0  0  0
  -89.1522  -11.7666    5.8100 C   0  0  0  0  0  0  0  0  0  0  0  0
  -87.8346  -11.4548    5.9022 C   0  0  0  0  0  0  0  0  0  0  0  0
  -87.0546  -11.7457    6.9470 C   0  0  0  0  0  0  0  0  0  0  0  0
  -85.8083  -11.3879    6.8219 N   0  0  0  0  0  0  0  0  0  0  0  0
  -85.0184  -11.1192    7.8110 C   0  0  0  0  0  0  0  0  0  0  0  0
  -85.3444  -11.0901    9.4555 S   0  0  0  0  0  0  0  0  0  0  0  0
  -83.7713  -10.8239    7.6441 N   0  0  0  0  0  0  0  0  0  0  0  0
  -83.0993  -10.6022    8.7680 C   0  0  0  0  0  0  0  0  0  0  0  0
  -83.7758  -10.6573    9.9126 C   0  0  0  0  0  0  0  0  0  0  0  0
  -83.3529  -10.7677    6.7547 H   0  0  0  0  0  0  0  0  0  0  0  0
  -83.4082  -10.4789   11.2370 C   0  0  0  0  0  0  0  0  0  0  0  0
  -82.7650  -11.3222   11.7486 O   0  0  0  0  0  0  0  0  0  0  0  0
  -83.7771   -9.3838   11.9051 N   0  0  0  0  0  0  0  0  0  0  0  0
  -84.3153   -8.7055   11.4367 H   0  0  0  0  0  0  0  0  0  0  0  0
  -83.4409   -9.1635   13.2087 C   0  0  0  0  0  0  0  0  0  0  0  0
  -82.2754   -8.4830   13.5413 C   0  0  0  0  0  0  0  0  0  0  0  0
  -81.1854   -7.9491   12.3555 Cl  0  0  0  0  0  0  0  0  0  0  0  0
  -81.9464   -8.2431   14.8601 C   0  0  0  0  0  0  0  0  0  0  0  0
  -82.8016   -8.6456   15.8669 C   0  0  0  0  0  0  0  0  0  0  0  0
  -83.9733   -9.2904   15.5320 C   0  0  0  0  0  0  0  0  0  0  0  0
  -84.3106   -9.5549   14.2238 C   0  0  0  0  0  0  0  0  0  0  0  0
  -85.5016  -10.2500   13.9688 C   0  0  0  0  0  0  0  0  0  0  0  0
  -89.3590  -12.8835   10.1764 N   0  0  0  0  0  0  0  0  0  0  0  0
  -89.6475  -13.3968    9.0236 C   0  0  0  0  0  0  0  0  0  0  0  0
  -90.3453  -14.3523    8.8917 O   0  0  0  0  0  0  0  0  0  0  0  0
  -88.5889  -12.2737   10.1097 H   0  0  0  0  0  0  0  0  0  0  0  0
  -88.8291  -13.6829   12.2905 C   0  0  0  0  0  0  0  0  0  0  0  0
  -89.6947  -14.5122   13.1115 C   0  0  0  0  0  0  0  0  0  0  0  0
  -90.3701  -13.6156   14.0820 C   0  0  0  0  0  0  0  0  0  0  0  0
  -89.3567  -13.0754   15.0489 C   0  0  0  0  0  0  0  0  0  0  0  0
  -91.2700  -14.4910   14.6944 O   0  0  0  0  0  0  0  0  0  0  0  0
  -91.0168  -12.3678   13.4537 C   0  0  0  0  0  0  0  0  0  0  0  0
  -90.2078  -11.7660   12.2486 C   0  0  0  0  0  0  0  0  0  0  0  0
  -89.8467  -12.9538   11.5245 C   0  0  0  0  0  0  0  0  0  0  0  0
  -90.7861  -15.2465   15.0630 H   0  0  0  0  0  0  0  0  0  0  0  0
 30 31  1  0  0  0
 30 37  1  0  0  0
 31 32  1  0  0  0
 32 33  1  0  0  0
 32 34  1  0  0  0
 32 35  1  0  0  0
 35 36  1  0  0  0
 36 37  1  0  0  0
 37 26  1  0  0  0
 26 27  1  0  0  0
 27 28  2  0  0  0
 27  1  1  0  0  0
  1  2  2  0  0  0
  1  3  1  0  0  0
  2  6  1  0  0  0
  3  4  2  0  0  0
  4  5  1  0  0  0
  5  6  2  0  0  0
  6  7  1  0  0  0
  7  8  2  0  0  0
  8  9  1  0  0  0
  8 10  1  0  0  0
  9 12  1  0  0  0
 10 11  1  0  0  0
 11 12  1  0  0  0
 12 14  1  0  0  0
 14 15  2  0  0  0
 14 16  1  0  0  0
 16 18  1  0  0  0
 18 19  2  0  0  0
 18 24  1  0  0  0
 19 20  1  0  0  0
 19 21  1  0  0  0
 21 22  2  0  0  0
 22 23  1  0  0  0
 23 24  2  0  0  0
 24 25  1  0  0  0
 34 38  1  0  0  0
 26 29  1  0  0  0
 10 13  1  0  0  0
 16 17  1  0  0  0
M  END
> <minimizedAffinity>
-9.30488

$$$$
5NK9_912_A_1001


 38 41  0  0  0  0  0  0  0  0999 V2000
  -83.2875  -10.8913    8.1986 C   0  0  0  0  0  0  0  0  0  0  0  0
  -84.5811  -10.9865    7.7234 C   0  0  0  0  0  0  0  0  0  0  0  0
  -82.2760  -10.8284    7.2736 C   0  0  0  0  0  0  0  0  0  0  0  0
  -82.4947  -10.8393    5.9499 C   0  0  0  0  0  0  0  0  0  0  0  0
  -83.7853  -10.9366    5.5418 C   0  0  0  0  0  0  0  0  0  0  0  0
  -84.8394  -11.0055    6.3596 C   0  0  0  0  0  0  0  0  0  0  0  0
  -85.9970  -11.0605    5.7645 N   0  0  0  0  0  0  0  0  0  0  0  0
  -87.0639  -11.5804    6.2800 C   0  0  0  0  0  0  0  0  0  0  0  0
  -87.2659  -12.3509    7.7555 S   0  0  0  0  0  0  0  0  0  0  0  0
  -88.2069  -11.5621    5.6773 N   0  0  0  0  0  0  0  0  0  0  0  0
  -89.2022  -12.1167    6.3600 C   0  0  0  0  0  0  0  0  0  0  0  0
  -88.9131  -12.6621    7.5389 C   0  0  0  0  0  0  0  0  0  0  0  0
  -88.3301  -11.1685    4.7833 H   0  0  0  0  0  0  0  0  0  0  0  0
  -89.6799  -13.3138    8.4919 C   0  0  0  0  0  0  0  0  0  0  0  0
  -89.1613  -13.6125    9.5060 O   0  0  0  0  0  0  0  0  0  0  0  0
  -90.9644  -13.5921    8.2593 N   0  0  0  0  0  0  0  0  0  0  0  0
  -91.3554  -13.3239    7.3965 H   0  0  0  0  0  0  0  0  0  0  0  0
  -91.7591  -14.2320    9.1647 C   0  0  0  0  0  0  0  0  0  0  0  0
  -92.5828  -13.5156   10.0252 C   0  0  0  0  0  0  0  0  0  0  0  0
  -92.5977  -11.8189   10.0386 Cl  0  0  0  0  0  0  0  0  0  0  0  0
  -93.4013  -14.1647   10.9272 C   0  0  0  0  0  0  0  0  0  0  0  0
  -93.4382  -15.5450   10.9534 C   0  0  0  0  0  0  0  0  0  0  0  0
  -92.6450  -16.2526   10.0755 C   0  0  0  0  0  0  0  0  0  0  0  0
  -91.8087  -15.6239    9.1809 C   0  0  0  0  0  0  0  0  0  0  0  0
  -91.0048  -16.4158    8.3482 C   0  0  0  0  0  0  0  0  0  0  0  0
  -81.7808  -10.3977    9.7716 N   0  0  0  0  0  0  0  0  0  0  0  0
  -82.9623  -10.8810    9.5568 C   0  0  0  0  0  0  0  0  0  0  0  0
  -83.6539  -11.3201   10.4206 O   0  0  0  0  0  0  0  0  0  0  0  0
  -81.2724  -10.3190    8.9321 H   0  0  0  0  0  0  0  0  0  0  0  0
  -81.8844   -9.0685   11.6720 C   0  0  0  0  0  0  0  0  0  0  0  0
  -80.9399   -8.0170   12.0089 C   0  0  0  0  0  0  0  0  0  0  0  0
  -79.9718   -8.5900   12.9766 C   0  0  0  0  0  0  0  0  0  0  0  0
  -80.6745   -8.8790   14.2714 C   0  0  0  0  0  0  0  0  0  0  0  0
  -79.0471   -7.5502   13.0983 O   0  0  0  0  0  0  0  0  0  0  0  0
  -79.3663   -9.9394   12.5493 C   0  0  0  0  0  0  0  0  0  0  0  0
  -80.3677  -10.8754   11.7811 C   0  0  0  0  0  0  0  0  0  0  0  0
  -81.0039   -9.9443   10.8901 C   0  0  0  0  0  0  0  0  0  0  0  0
  -79.5058   -6.7396   13.3692 H   0  0  0  0  0  0  0  0  0  0  0  0
 30 31  1  0  0  0
 30 37  1  0  0  0
 31 32  1  0  0  0
 32 33  1  0  0  0
 32 34  1  0  0  0
 32 35  1  0  0  0
 35 36  1  0  0  0
 36 37  1  0  0  0
 37 26  1  0  0  0
 26 27  1  0  0  0
 27 28  2  0  0  0
 27  1  1  0  0  0
  1  2  2  0  0  0
  1  3  1  0  0  0
  2  6  1  0  0  0
  3  4  2  0  0  0
  4  5  1  0  0  0
  5  6  2  0  0  0
  6  7  1  0  0  0
  7  8  2  0  0  0
  8  9  1  0  0  0
  8 10  1  0  0  0
  9 12  1  0  0  0
 10 11  1  0  0  0
 11 12  1  0  0  0
 12 14  1  0  0  0
 14 15  2  0  0  0
 14 16  1  0  0  0
 16 18  1  0  0  0
 18 19  2  0  0  0
 18 24  1  0  0  0
 19 20  1  0  0  0
 19 21  1  0  0  0
 21 22  2  0  0  0
 22 23  1  0  0  0
 23 24  2  0  0  0
 24 25  1  0  0  0
 34 38  1  0  0  0
 26 29  1  0  0  0
 10 13  1  0  0  0
 16 17  1  0  0  0
M  END
> <minimizedAffinity>
-9.16269

$$$$
5NK9_912_A_1001


 38 41  0  0  0  0  0  0  0  0999 V2000
  -91.1804  -14.1059    8.8373 C   0  0  0  0  0  0  0  0  0  0  0  0
  -91.2641  -13.9375   10.2058 C   0  0  0  0  0  0  0  0  0  0  0  0
  -91.5763  -15.3145    8.3224 C   0  0  0  0  0  0  0  0  0  0  0  0
  -92.0480  -16.3137    9.0835 C   0  0  0  0  0  0  0  0  0  0  0  0
  -92.1053  -16.0919   10.4212 C   0  0  0  0  0  0  0  0  0  0  0  0
  -91.7430  -14.9543   11.0207 C   0  0  0  0  0  0  0  0  0  0  0  0
  -91.9078  -14.9345   12.3127 N   0  0  0  0  0  0  0  0  0  0  0  0
  -91.1115  -14.3462   13.1459 C   0  0  0  0  0  0  0  0  0  0  0  0
  -89.6777  -13.5285   12.8506 S   0  0  0  0  0  0  0  0  0  0  0  0
  -91.3442  -14.3021   14.4164 N   0  0  0  0  0  0  0  0  0  0  0  0
  -90.4380  -13.6355   15.1226 C   0  0  0  0  0  0  0  0  0  0  0  0
  -89.3892  -13.1404   14.4702 C   0  0  0  0  0  0  0  0  0  0  0  0
  -92.1303  -14.7285   14.8279 H   0  0  0  0  0  0  0  0  0  0  0  0
  -88.2796  -12.4161   14.8765 C   0  0  0  0  0  0  0  0  0  0  0  0
  -88.3795  -11.7514   15.8434 O   0  0  0  0  0  0  0  0  0  0  0  0
  -87.1381  -12.4737   14.1871 N   0  0  0  0  0  0  0  0  0  0  0  0
  -87.1013  -13.0424   13.3843 H   0  0  0  0  0  0  0  0  0  0  0  0
  -86.0204  -11.7792   14.5463 C   0  0  0  0  0  0  0  0  0  0  0  0
  -85.0191  -12.3773   15.3024 C   0  0  0  0  0  0  0  0  0  0  0  0
  -85.1604  -13.9709   15.8679 Cl  0  0  0  0  0  0  0  0  0  0  0  0
  -83.8795  -11.6798   15.6483 C   0  0  0  0  0  0  0  0  0  0  0  0
  -83.7059  -10.3828   15.2067 C   0  0  0  0  0  0  0  0  0  0  0  0
  -84.6856   -9.8039   14.4285 C   0  0  0  0  0  0  0  0  0  0  0  0
  -85.8373  -10.4767   14.0880 C   0  0  0  0  0  0  0  0  0  0  0  0
  -86.8032   -9.8037   13.3259 C   0  0  0  0  0  0  0  0  0  0  0  0
  -89.4322  -12.9040    8.1393 N   0  0  0  0  0  0  0  0  0  0  0  0
  -90.6956  -13.1271    7.9669 C   0  0  0  0  0  0  0  0  0  0  0  0
  -91.3662  -12.5161    7.1960 O   0  0  0  0  0  0  0  0  0  0  0  0
  -89.1100  -13.3178    8.9725 H   0  0  0  0  0  0  0  0  0  0  0  0
  -87.2693  -13.1876    7.3453 C   0  0  0  0  0  0  0  0  0  0  0  0
  -86.1491  -12.3104    7.6399 C   0  0  0  0  0  0  0  0  0  0  0  0
  -85.9993  -11.3875    6.4876 C   0  0  0  0  0  0  0  0  0  0  0  0
  -85.5494  -12.1635    5.2838 C   0  0  0  0  0  0  0  0  0  0  0  0
  -85.0126  -10.5150    6.9526 O   0  0  0  0  0  0  0  0  0  0  0  0
  -87.3051  -10.7016    6.0464 C   0  0  0  0  0  0  0  0  0  0  0  0
  -88.5800  -11.6112    6.1731 C   0  0  0  0  0  0  0  0  0  0  0  0
  -88.3692  -12.2226    7.4567 C   0  0  0  0  0  0  0  0  0  0  0  0
  -84.2268  -11.0227    7.2091 H   0  0  0  0  0  0  0  0  0  0  0  0
 30 31  1  0  0  0
 30 37  1  0  0  0
 31 32  1  0  0  0
 32 33  1  0  0  0
 32 34  1  0  0  0
 32 35  1  0  0  0
 35 36  1  0  0  0
 36 37  1  0  0  0
 37 26  1  0  0  0
 26 27  1  0  0  0
 27 28  2  0  0  0
 27  1  1  0  0  0
  1  2  2  0  0  0
  1  3  1  0  0  0
  2  6  1  0  0  0
  3  4  2  0  0  0
  4  5  1  0  0  0
  5  6  2  0  0  0
  6  7  1  0  0  0
  7  8  2  0  0  0
  8  9  1  0  0  0
  8 10  1  0  0  0
  9 12  1  0  0  0
 10 11  1  0  0  0
 11 12  1  0  0  0
 12 14  1  0  0  0
 14 15  2  0  0  0
 14 16  1  0  0  0
 16 18  1  0  0  0
 18 19  2  0  0  0
 18 24  1  0  0  0
 19 20  1  0  0  0
 19 21  1  0  0  0
 21 22  2  0  0  0
 22 23  1  0  0  0
 23 24  2  0  0  0
 24 25  1  0  0  0
 34 38  1  0  0  0
 26 29  1  0  0  0
 10 13  1  0  0  0
 16 17  1  0  0  0
M  END
> <minimizedAffinity>
-9.14196

$$$$
5NK9_912_A_1001


 38 41  0  0  0  0  0  0  0  0999 V2000
  -83.5248  -10.7649    7.3282 C   0  0  0  0  0  0  0  0  0  0  0  0
  -84.8574  -10.8637    6.9780 C   0  0  0  0  0  0  0  0  0  0  0  0
  -82.5948  -10.9165    6.3308 C   0  0  0  0  0  0  0  0  0  0  0  0
  -82.9269  -11.1368    5.0496 C   0  0  0  0  0  0  0  0  0  0  0  0
  -84.2509  -11.2266    4.7654 C   0  0  0  0  0  0  0  0  0  0  0  0
  -85.2328  -11.0962    5.6619 C   0  0  0  0  0  0  0  0  0  0  0  0
  -86.4385  -11.1834    5.1765 N   0  0  0  0  0  0  0  0  0  0  0  0
  -87.4547  -11.6654    5.8163 C   0  0  0  0  0  0  0  0  0  0  0  0
  -87.5240  -12.3411    7.3493 S   0  0  0  0  0  0  0  0  0  0  0  0
  -88.6468  -11.6799    5.3174 N   0  0  0  0  0  0  0  0  0  0  0  0
  -89.5768  -12.1863    6.1191 C   0  0  0  0  0  0  0  0  0  0  0  0
  -89.1835  -12.6581    7.2997 C   0  0  0  0  0  0  0  0  0  0  0  0
  -88.8494  -11.3425    4.4150 H   0  0  0  0  0  0  0  0  0  0  0  0
  -89.8617  -13.2455    8.3559 C   0  0  0  0  0  0  0  0  0  0  0  0
  -89.2897  -13.3682    9.3778 O   0  0  0  0  0  0  0  0  0  0  0  0
  -91.1227  -13.6583    8.2110 N   0  0  0  0  0  0  0  0  0  0  0  0
  -91.5607  -13.5358    7.3378 H   0  0  0  0  0  0  0  0  0  0  0  0
  -91.8312  -14.2424    9.2198 C   0  0  0  0  0  0  0  0  0  0  0  0
  -92.5551  -13.4734   10.1235 C   0  0  0  0  0  0  0  0  0  0  0  0
  -92.5460  -11.7778   10.0593 Cl  0  0  0  0  0  0  0  0  0  0  0  0
  -93.2877  -14.0665   11.1317 C   0  0  0  0  0  0  0  0  0  0  0  0
  -93.3401  -15.4433   11.2258 C   0  0  0  0  0  0  0  0  0  0  0  0
  -92.6483  -16.2038   10.3072 C   0  0  0  0  0  0  0  0  0  0  0  0
  -91.8975  -15.6310    9.3056 C   0  0  0  0  0  0  0  0  0  0  0  0
  -91.1916  -16.4740    8.4350 C   0  0  0  0  0  0  0  0  0  0  0  0
  -82.5349  -11.6000    9.1478 N   0  0  0  0  0  0  0  0  0  0  0  0
  -83.0838  -10.5456    8.6352 C   0  0  0  0  0  0  0  0  0  0  0  0
  -83.2439   -9.5338    9.2416 O   0  0  0  0  0  0  0  0  0  0  0  0
  -82.7130  -12.3957    8.5961 H   0  0  0  0  0  0  0  0  0  0  0  0
  -80.3680  -11.5203    9.9767 C   0  0  0  0  0  0  0  0  0  0  0  0
  -79.6415  -12.6520   10.5268 C   0  0  0  0  0  0  0  0  0  0  0  0
  -79.7585  -12.5728   12.0039 C   0  0  0  0  0  0  0  0  0  0  0  0
  -79.0004  -11.3757   12.4997 C   0  0  0  0  0  0  0  0  0  0  0  0
  -79.1647  -13.7742   12.3978 O   0  0  0  0  0  0  0  0  0  0  0  0
  -81.1947  -12.3686   12.5195 C   0  0  0  0  0  0  0  0  0  0  0  0
  -82.0782  -11.4468   11.6036 C   0  0  0  0  0  0  0  0  0  0  0  0
  -81.7395  -11.9345   10.2948 C   0  0  0  0  0  0  0  0  0  0  0  0
  -78.2670  -13.8257   12.0341 H   0  0  0  0  0  0  0  0  0  0  0  0
 30 31  1  0  0  0
 30 37  1  0  0  0
 31 32  1  0  0  0
 32 33  1  0  0  0
 32 34  1  0  0  0
 32 35  1  0  0  0
 35 36  1  0  0  0
 36 37  1  0  0  0
 37 26  1  0  0  0
 26 27  1  0  0  0
 27 28  2  0  0  0
 27  1  1  0  0  0
  1  2  2  0  0  0
  1  3  1  0  0  0
  2  6  1  0  0  0
  3  4  2  0  0  0
  4  5  1  0  0  0
  5  6  2  0  0  0
  6  7  1  0  0  0
  7  8  2  0  0  0
  8  9  1  0  0  0
  8 10  1  0  0  0
  9 12  1  0  0  0
 10 11  1  0  0  0
 11 12  1  0  0  0
 12 14  1  0  0  0
 14 15  2  0  0  0
 14 16  1  0  0  0
 16 18  1  0  0  0
 18 19  2  0  0  0
 18 24  1  0  0  0
 19 20  1  0  0  0
 19 21  1  0  0  0
 21 22  2  0  0  0
 22 23  1  0  0  0
 23 24  2  0  0  0
 24 25  1  0  0  0
 34 38  1  0  0  0
 26 29  1  0  0  0
 10 13  1  0  0  0
 16 17  1  0  0  0
M  END
> <minimizedAffinity>
-9.12383

$$$$
5NK9_912_A_1001


 38 41  0  0  0  0  0  0  0  0999 V2000
  -87.8453  -12.4397    7.7061 C   0  0  0  0  0  0  0  0  0  0  0  0
  -86.5277  -12.0412    7.8219 C   0  0  0  0  0  0  0  0  0  0  0  0
  -88.4443  -12.2982    6.4798 C   0  0  0  0  0  0  0  0  0  0  0  0
  -87.8043  -11.8115    5.4058 C   0  0  0  0  0  0  0  0  0  0  0  0
  -86.5123  -11.4343    5.5798 C   0  0  0  0  0  0  0  0  0  0  0  0
  -85.8398  -11.5289    6.7303 C   0  0  0  0  0  0  0  0  0  0  0  0
  -84.5969  -11.1425    6.6764 N   0  0  0  0  0  0  0  0  0  0  0  0
  -83.8772  -10.8374    7.7076 C   0  0  0  0  0  0  0  0  0  0  0  0
  -84.3064  -10.7881    9.3278 S   0  0  0  0  0  0  0  0  0  0  0  0
  -82.6295  -10.5143    7.6132 N   0  0  0  0  0  0  0  0  0  0  0  0
  -82.0347  -10.2567    8.7726 C   0  0  0  0  0  0  0  0  0  0  0  0
  -82.7803  -10.3089    9.8736 C   0  0  0  0  0  0  0  0  0  0  0  0
  -82.1575  -10.4630    6.7508 H   0  0  0  0  0  0  0  0  0  0  0  0
  -82.5008  -10.0986   11.2147 C   0  0  0  0  0  0  0  0  0  0  0  0
  -81.7952  -10.8692   11.7578 O   0  0  0  0  0  0  0  0  0  0  0  0
  -83.0204   -9.0543   11.8636 N   0  0  0  0  0  0  0  0  0  0  0  0
  -83.6058   -8.4365   11.3689 H   0  0  0  0  0  0  0  0  0  0  0  0
  -82.7757   -8.8058   13.1824 C   0  0  0  0  0  0  0  0  0  0  0  0
  -81.6636   -8.0713   13.5773 C   0  0  0  0  0  0  0  0  0  0  0  0
  -80.5261   -7.5025   12.4540 Cl  0  0  0  0  0  0  0  0  0  0  0  0
  -81.4279   -7.8034   14.9105 C   0  0  0  0  0  0  0  0  0  0  0  0
  -82.3259   -8.2325   15.8679 C   0  0  0  0  0  0  0  0  0  0  0  0
  -83.4455   -8.9316   15.4700 C   0  0  0  0  0  0  0  0  0  0  0  0
  -83.6891   -9.2243   14.1471 C   0  0  0  0  0  0  0  0  0  0  0  0
  -84.8308   -9.9737   13.8283 C   0  0  0  0  0  0  0  0  0  0  0  0
  -89.7991  -12.4767    8.7873 N   0  0  0  0  0  0  0  0  0  0  0  0
  -88.5942  -12.9497    8.7689 C   0  0  0  0  0  0  0  0  0  0  0  0
  -88.1693  -13.6840    9.6040 O   0  0  0  0  0  0  0  0  0  0  0  0
  -89.8880  -11.7101    8.1761 H   0  0  0  0  0  0  0  0  0  0  0  0
  -90.9727  -12.0839   10.7514 C   0  0  0  0  0  0  0  0  0  0  0  0
  -91.5755  -13.1105   11.5843 C   0  0  0  0  0  0  0  0  0  0  0  0
  -93.0160  -13.1708   11.2332 C   0  0  0  0  0  0  0  0  0  0  0  0
  -93.6886  -11.9023   11.6718 C   0  0  0  0  0  0  0  0  0  0  0  0
  -93.4399  -14.2767   11.9737 O   0  0  0  0  0  0  0  0  0  0  0  0
  -93.3006  -13.2635    9.7230 C   0  0  0  0  0  0  0  0  0  0  0  0
  -92.3011  -12.4414    8.8319 C   0  0  0  0  0  0  0  0  0  0  0  0
  -91.0418  -12.7564    9.4489 C   0  0  0  0  0  0  0  0  0  0  0  0
  -93.2251  -14.1406   12.9098 H   0  0  0  0  0  0  0  0  0  0  0  0
 30 31  1  0  0  0
 30 37  1  0  0  0
 31 32  1  0  0  0
 32 33  1  0  0  0
 32 34  1  0  0  0
 32 35  1  0  0  0
 35 36  1  0  0  0
 36 37  1  0  0  0
 37 26  1  0  0  0
 26 27  1  0  0  0
 27 28  2  0  0  0
 27  1  1  0  0  0
  1  2  2  0  0  0
  1  3  1  0  0  0
  2  6  1  0  0  0
  3  4  2  0  0  0
  4  5  1  0  0  0
  5  6  2  0  0  0
  6  7  1  0  0  0
  7  8  2  0  0  0
  8  9  1  0  0  0
  8 10  1  0  0  0
  9 12  1  0  0  0
 10 11  1  0  0  0
 11 12  1  0  0  0
 12 14  1  0  0  0
 14 15  2  0  0  0
 14 16  1  0  0  0
 16 18  1  0  0  0
 18 19  2  0  0  0
 18 24  1  0  0  0
 19 20  1  0  0  0
 19 21  1  0  0  0
 21 22  2  0  0  0
 22 23  1  0  0  0
 23 24  2  0  0  0
 24 25  1  0  0  0
 34 38  1  0  0  0
 26 29  1  0  0  0
 10 13  1  0  0  0
 16 17  1  0  0  0
M  END
> <minimizedAffinity>
-9.07348

$$$$
5NK9_912_A_1001


 38 41  0  0  0  0  0  0  0  0999 V2000
  -83.4605  -10.5805   10.5269 C   0  0  0  0  0  0  0  0  0  0  0  0
  -84.5108  -10.4399   11.4131 C   0  0  0  0  0  0  0  0  0  0  0  0
  -82.2256  -10.1423   10.9337 C   0  0  0  0  0  0  0  0  0  0  0  0
  -82.0022   -9.6075   12.1437 C   0  0  0  0  0  0  0  0  0  0  0  0
  -83.0718   -9.4925   12.9710 C   0  0  0  0  0  0  0  0  0  0  0  0
  -84.3127   -9.8857   12.6704 C   0  0  0  0  0  0  0  0  0  0  0  0
  -85.1901   -9.7167   13.6183 N   0  0  0  0  0  0  0  0  0  0  0  0
  -86.4030  -10.1663   13.5852 C   0  0  0  0  0  0  0  0  0  0  0  0
  -87.1952  -11.0016   12.3661 S   0  0  0  0  0  0  0  0  0  0  0  0
  -87.2236  -10.0255   14.5736 N   0  0  0  0  0  0  0  0  0  0  0  0
  -88.4200  -10.5699   14.3823 C   0  0  0  0  0  0  0  0  0  0  0  0
  -88.6558  -11.1433   13.2048 C   0  0  0  0  0  0  0  0  0  0  0  0
  -86.9813   -9.5524   15.4023 H   0  0  0  0  0  0  0  0  0  0  0  0
  -89.7617  -11.7867   12.6719 C   0  0  0  0  0  0  0  0  0  0  0  0
  -90.8100  -11.2616   12.7808 O   0  0  0  0  0  0  0  0  0  0  0  0
  -89.6344  -12.9650   12.0579 N   0  0  0  0  0  0  0  0  0  0  0  0
  -88.7381  -13.3667   11.9913 H   0  0  0  0  0  0  0  0  0  0  0  0
  -90.6921  -13.6369   11.5187 C   0  0  0  0  0  0  0  0  0  0  0  0
  -91.4736  -14.4830   12.2970 C   0  0  0  0  0  0  0  0  0  0  0  0
  -91.1193  -14.7718   13.9311 Cl  0  0  0  0  0  0  0  0  0  0  0  0
  -92.5555  -15.1468   11.7551 C   0  0  0  0  0  0  0  0  0  0  0  0
  -92.8970  -14.9415   10.4329 C   0  0  0  0  0  0  0  0  0  0  0  0
  -92.1401  -14.0756    9.6726 C   0  0  0  0  0  0  0  0  0  0  0  0
  -91.0467  -13.4181   10.1897 C   0  0  0  0  0  0  0  0  0  0  0  0
  -90.3056  -12.5842    9.3399 C   0  0  0  0  0  0  0  0  0  0  0  0
  -84.8373  -11.3296    8.9359 N   0  0  0  0  0  0  0  0  0  0  0  0
  -83.5983  -11.1173    9.2449 C   0  0  0  0  0  0  0  0  0  0  0  0
  -82.6896  -11.4098    8.5335 O   0  0  0  0  0  0  0  0  0  0  0  0
  -85.4170  -11.2592    9.7284 H   0  0  0  0  0  0  0  0  0  0  0  0
  -86.9812  -11.8557    8.2174 C   0  0  0  0  0  0  0  0  0  0  0  0
  -87.3291  -13.0011    7.3939 C   0  0  0  0  0  0  0  0  0  0  0  0
  -87.4339  -12.5198    5.9942 C   0  0  0  0  0  0  0  0  0  0  0  0
  -88.6187  -11.6064    5.8694 C   0  0  0  0  0  0  0  0  0  0  0  0
  -87.6146  -13.7172    5.2979 O   0  0  0  0  0  0  0  0  0  0  0  0
  -86.2368  -11.6765    5.5188 C   0  0  0  0  0  0  0  0  0  0  0  0
  -85.6237  -10.7517    6.6313 C   0  0  0  0  0  0  0  0  0  0  0  0
  -85.6031  -11.6388    7.7619 C   0  0  0  0  0  0  0  0  0  0  0  0
  -88.3844  -14.1865    5.6560 H   0  0  0  0  0  0  0  0  0  0  0  0
 30 31  1  0  0  0
 30 37  1  0  0  0
 31 32  1  0  0  0
 32 33  1  0  0  0
 32 34  1  0  0  0
 32 35  1  0  0  0
 35 36  1  0  0  0
 36 37  1  0  0  0
 37 26  1  0  0  0
 26 27  1  0  0  0
 27 28  2  0  0  0
 27  1  1  0  0  0
  1  2  2  0  0  0
  1  3  1  0  0  0
  2  6  1  0  0  0
  3  4  2  0  0  0
  4  5  1  0  0  0
  5  6  2  0  0  0
  6  7  1  0  0  0
  7  8  2  0  0  0
  8  9  1  0  0  0
  8 10  1  0  0  0
  9 12  1  0  0  0
 10 11  1  0  0  0
 11 12  1  0  0  0
 12 14  1  0  0  0
 14 15  2  0  0  0
 14 16  1  0  0  0
 16 18  1  0  0  0
 18 19  2  0  0  0
 18 24  1  0  0  0
 19 20  1  0  0  0
 19 21  1  0  0  0
 21 22  2  0  0  0
 22 23  1  0  0  0
 23 24  2  0  0  0
 24 25  1  0  0  0
 34 38  1  0  0  0
 26 29  1  0  0  0
 10 13  1  0  0  0
 16 17  1  0  0  0
M  END
> <minimizedAffinity>
-9.00871

$$$$
5NK9_912_A_1001


 38 41  0  0  0  0  0  0  0  0999 V2000
  -91.1637  -14.3559    9.7755 C   0  0  0  0  0  0  0  0  0  0  0  0
  -90.8511  -13.6614   10.9280 C   0  0  0  0  0  0  0  0  0  0  0  0
  -92.0095  -15.4298    9.8928 C   0  0  0  0  0  0  0  0  0  0  0  0
  -92.5466  -15.8126   11.0612 C   0  0  0  0  0  0  0  0  0  0  0  0
  -92.2018  -15.0944   12.1599 C   0  0  0  0  0  0  0  0  0  0  0  0
  -91.3866  -14.0360   12.1528 C   0  0  0  0  0  0  0  0  0  0  0  0
  -91.2113  -13.4666   13.3113 N   0  0  0  0  0  0  0  0  0  0  0  0
  -90.1040  -12.9235   13.7027 C   0  0  0  0  0  0  0  0  0  0  0  0
  -88.6244  -12.8397   12.9182 S   0  0  0  0  0  0  0  0  0  0  0  0
  -89.9906  -12.3177   14.8387 N   0  0  0  0  0  0  0  0  0  0  0  0
  -88.7918  -11.7947   15.0704 C   0  0  0  0  0  0  0  0  0  0  0  0
  -87.8464  -11.9887   14.1542 C   0  0  0  0  0  0  0  0  0  0  0  0
  -90.7335  -12.2493   15.4810 H   0  0  0  0  0  0  0  0  0  0  0  0
  -86.5180  -11.6024   14.0709 C   0  0  0  0  0  0  0  0  0  0  0  0
  -85.6954  -12.3910   14.3678 O   0  0  0  0  0  0  0  0  0  0  0  0
  -86.1896  -10.3731   13.6680 N   0  0  0  0  0  0  0  0  0  0  0  0
  -86.9114   -9.7470   13.4306 H   0  0  0  0  0  0  0  0  0  0  0  0
  -84.8976   -9.9462   13.5707 C   0  0  0  0  0  0  0  0  0  0  0  0
  -84.1822  -10.0960   12.3884 C   0  0  0  0  0  0  0  0  0  0  0  0
  -84.8510  -10.8680   11.0334 Cl  0  0  0  0  0  0  0  0  0  0  0  0
  -82.8817   -9.6456   12.2849 C   0  0  0  0  0  0  0  0  0  0  0  0
  -82.2900   -9.0001   13.3526 C   0  0  0  0  0  0  0  0  0  0  0  0
  -83.0139   -8.8230   14.5125 C   0  0  0  0  0  0  0  0  0  0  0  0
  -84.3057   -9.2808   14.6416 C   0  0  0  0  0  0  0  0  0  0  0  0
  -84.9603   -9.0956   15.8679 C   0  0  0  0  0  0  0  0  0  0  0  0
  -89.8377  -13.0280    8.5645 N   0  0  0  0  0  0  0  0  0  0  0  0
  -90.6476  -14.0368    8.5175 C   0  0  0  0  0  0  0  0  0  0  0  0
  -90.9559  -14.5786    7.5033 O   0  0  0  0  0  0  0  0  0  0  0  0
  -89.8984  -12.5652    9.4313 H   0  0  0  0  0  0  0  0  0  0  0  0
  -87.7126  -13.2888    7.6670 C   0  0  0  0  0  0  0  0  0  0  0  0
  -86.6487  -12.3018    7.7378 C   0  0  0  0  0  0  0  0  0  0  0  0
  -86.6436  -11.5684    6.4478 C   0  0  0  0  0  0  0  0  0  0  0  0
  -86.2097  -12.4958    5.3499 C   0  0  0  0  0  0  0  0  0  0  0  0
  -85.7015  -10.5677    6.6970 O   0  0  0  0  0  0  0  0  0  0  0  0
  -88.0241  -11.0524    6.0026 C   0  0  0  0  0  0  0  0  0  0  0  0
  -89.2134  -12.0139    6.3633 C   0  0  0  0  0  0  0  0  0  0  0  0
  -88.8759  -12.3950    7.7074 C   0  0  0  0  0  0  0  0  0  0  0  0
  -84.8639  -10.9732    6.9709 H   0  0  0  0  0  0  0  0  0  0  0  0
 30 31  1  0  0  0
 30 37  1  0  0  0
 31 32  1  0  0  0
 32 33  1  0  0  0
 32 34  1  0  0  0
 32 35  1  0  0  0
 35 36  1  0  0  0
 36 37  1  0  0  0
 37 26  1  0  0  0
 26 27  1  0  0  0
 27 28  2  0  0  0
 27  1  1  0  0  0
  1  2  2  0  0  0
  1  3  1  0  0  0
  2  6  1  0  0  0
  3  4  2  0  0  0
  4  5  1  0  0  0
  5  6  2  0  0  0
  6  7  1  0  0  0
  7  8  2  0  0  0
  8  9  1  0  0  0
  8 10  1  0  0  0
  9 12  1  0  0  0
 10 11  1  0  0  0
 11 12  1  0  0  0
 12 14  1  0  0  0
 14 15  2  0  0  0
 14 16  1  0  0  0
 16 18  1  0  0  0
 18 19  2  0  0  0
 18 24  1  0  0  0
 19 20  1  0  0  0
 19 21  1  0  0  0
 21 22  2  0  0  0
 22 23  1  0  0  0
 23 24  2  0  0  0
 24 25  1  0  0  0
 34 38  1  0  0  0
 26 29  1  0  0  0
 10 13  1  0  0  0
 16 17  1  0  0  0
M  END
> <minimizedAffinity>
-9.00793

$$$$
