2J7E_GI2_A_1446


 24 25  0  0  0  0  0  0  0  0999 V2000
   -0.6559   10.2989   10.6269 C   0  0  0  0  0  0  0  0  0  0  0  0
    0.2822   11.1817    9.7852 C   0  0  0  0  0  0  0  0  0  0  0  0
   -0.3591   11.5914    8.4586 C   0  0  0  0  0  0  0  0  0  0  0  0
   -1.3265   10.4894    7.9391 C   0  0  0  0  0  0  0  0  0  0  0  0
   -2.4883   10.3288    8.9341 C   0  0  0  0  0  0  0  0  0  0  0  0
    0.6420   12.3569   10.5055 O   0  0  0  0  0  0  0  0  0  0  0  0
    0.6972   11.9082    7.5634 O   0  0  0  0  0  0  0  0  0  0  0  0
   -1.8294   10.7748    6.6389 O   0  0  0  0  0  0  0  0  0  0  0  0
   -1.9358    9.8887   10.2270 N   0  0  0  0  0  0  0  0  0  0  0  0
   -0.4509    9.7251   11.8109 N   0  0  0  0  0  0  0  0  0  0  0  0
   -1.5083    9.0033   12.1738 C   0  0  0  0  0  0  0  0  0  0  0  0
   -2.4176    9.0930   11.1966 C   0  0  0  0  0  0  0  0  0  0  0  0
   -0.1541   12.8796   10.6899 H   0  0  0  0  0  0  0  0  0  0  0  0
    1.2700   11.1333    7.4520 H   0  0  0  0  0  0  0  0  0  0  0  0
   -2.3396   11.5994    6.6633 H   0  0  0  0  0  0  0  0  0  0  0  0
    0.3706    9.8217   12.3447 H   0  0  0  0  0  0  0  0  0  0  0  0
   -3.5359    9.3358    8.4713 C   0  0  0  0  0  0  0  0  0  0  0  0
   -3.0380    7.9967    8.4506 O   0  0  0  0  0  0  0  0  0  0  0  0
   -2.2956    7.9374    7.8291 H   0  0  0  0  0  0  0  0  0  0  0  0
   -1.6118    8.2456   13.4870 C   0  0  0  0  0  0  0  0  0  0  0  0
   -0.3929    7.3720   13.6879 C   0  0  0  0  0  0  0  0  0  0  0  0
    0.3071    7.0251   12.7336 O   0  0  0  0  0  0  0  0  0  0  0  0
   -1.2407    6.7442   15.7954 C   0  0  0  0  0  0  0  0  0  0  0  0
   -0.0875    6.9675   14.9447 O   0  0  0  0  0  0  0  0  0  0  0  0
 20 21  1  0  0  0
 20 11  1  0  0  0
 21 24  1  0  0  0
 21 22  2  0  0  0
 23 24  1  0  0  0
  1  2  1  0  0  0
  1  9  2  0  0  0
  1 10  1  0  0  0
  2  3  1  0  0  0
  2  6  1  0  0  0
  3  4  1  0  0  0
  3  7  1  0  0  0
  4  5  1  0  0  0
  4  8  1  0  0  0
  5 17  1  0  0  0
  5  9  1  0  0  0
 17 18  1  0  0  0
  9 12  1  0  0  0
 10 11  1  0  0  0
 11 12  2  0  0  0
  6 13  1  0  0  0
  7 14  1  0  0  0
  8 15  1  0  0  0
 18 19  1  0  0  0
 10 16  1  0  0  0
M  CHG 1   9   1
M  END
> <minimizedAffinity>
-8.85963

$$$$
2J7E_GI2_A_1446


 24 25  0  0  0  0  0  0  0  0999 V2000
   -2.4400    7.1873   15.2194 C   0  0  0  0  0  0  0  0  0  0  0  0
   -3.7357    6.9456   16.0135 C   0  0  0  0  0  0  0  0  0  0  0  0
   -3.4775    6.1586   17.2991 C   0  0  0  0  0  0  0  0  0  0  0  0
   -2.2872    5.1724   17.1238 C   0  0  0  0  0  0  0  0  0  0  0  0
   -1.0023    5.9752   16.8589 C   0  0  0  0  0  0  0  0  0  0  0  0
   -4.3551    8.1842   16.3479 O   0  0  0  0  0  0  0  0  0  0  0  0
   -4.7015    5.5354   17.6613 O   0  0  0  0  0  0  0  0  0  0  0  0
   -2.1121    4.3237   18.2525 O   0  0  0  0  0  0  0  0  0  0  0  0
   -1.1729    6.7242   15.6017 N   0  0  0  0  0  0  0  0  0  0  0  0
   -2.2591    7.7974   14.0496 N   0  0  0  0  0  0  0  0  0  0  0  0
   -0.9789    7.7540   13.6889 C   0  0  0  0  0  0  0  0  0  0  0  0
   -0.3114    7.0849   14.6357 C   0  0  0  0  0  0  0  0  0  0  0  0
   -3.7620    8.6989   16.9173 H   0  0  0  0  0  0  0  0  0  0  0  0
   -4.9913    4.9506   16.9437 H   0  0  0  0  0  0  0  0  0  0  0  0
   -1.9103    4.8621   19.0337 H   0  0  0  0  0  0  0  0  0  0  0  0
   -2.9746    8.2223   13.5236 H   0  0  0  0  0  0  0  0  0  0  0  0
    0.2346    5.1045   16.7610 C   0  0  0  0  0  0  0  0  0  0  0  0
    0.8687    4.9238   18.0286 O   0  0  0  0  0  0  0  0  0  0  0  0
    1.1533    5.7846   18.3735 H   0  0  0  0  0  0  0  0  0  0  0  0
   -0.4299    8.3858   12.4205 C   0  0  0  0  0  0  0  0  0  0  0  0
   -1.4621    9.3012   11.7994 C   0  0  0  0  0  0  0  0  0  0  0  0
   -1.3249   10.5265   11.8243 O   0  0  0  0  0  0  0  0  0  0  0  0
   -2.7353    9.1058    9.8257 C   0  0  0  0  0  0  0  0  0  0  0  0
   -2.5531    8.7454   11.2186 O   0  0  0  0  0  0  0  0  0  0  0  0
 20 21  1  0  0  0
 20 11  1  0  0  0
 21 24  1  0  0  0
 21 22  2  0  0  0
 23 24  1  0  0  0
  1  2  1  0  0  0
  1  9  2  0  0  0
  1 10  1  0  0  0
  2  3  1  0  0  0
  2  6  1  0  0  0
  3  4  1  0  0  0
  3  7  1  0  0  0
  4  5  1  0  0  0
  4  8  1  0  0  0
  5 17  1  0  0  0
  5  9  1  0  0  0
 17 18  1  0  0  0
  9 12  1  0  0  0
 10 11  1  0  0  0
 11 12  2  0  0  0
  6 13  1  0  0  0
  7 14  1  0  0  0
  8 15  1  0  0  0
 18 19  1  0  0  0
 10 16  1  0  0  0
M  CHG 1   9   1
M  END
> <minimizedAffinity>
-8.48332

$$$$
2J7E_GI2_A_1446


 24 25  0  0  0  0  0  0  0  0999 V2000
   -1.8121    7.7518   14.4361 C   0  0  0  0  0  0  0  0  0  0  0  0
   -2.4315    7.7360   15.8446 C   0  0  0  0  0  0  0  0  0  0  0  0
   -1.5487    6.9910   16.8468 C   0  0  0  0  0  0  0  0  0  0  0  0
   -0.7621    5.8407   16.1552 C   0  0  0  0  0  0  0  0  0  0  0  0
    0.1992    6.4414   15.1157 C   0  0  0  0  0  0  0  0  0  0  0  0
   -2.6406    9.0649   16.3133 O   0  0  0  0  0  0  0  0  0  0  0  0
   -2.3895    6.5648   17.9093 O   0  0  0  0  0  0  0  0  0  0  0  0
   -0.0422    5.0380   17.0837 O   0  0  0  0  0  0  0  0  0  0  0  0
   -0.5992    7.1380   14.0920 N   0  0  0  0  0  0  0  0  0  0  0  0
   -2.2856    8.2668   13.3030 N   0  0  0  0  0  0  0  0  0  0  0  0
   -1.4537    8.0262   12.2926 C   0  0  0  0  0  0  0  0  0  0  0  0
   -0.4221    7.3226   12.7729 C   0  0  0  0  0  0  0  0  0  0  0  0
   -1.7877    9.5220   16.3806 H   0  0  0  0  0  0  0  0  0  0  0  0
   -3.0864    5.9882   17.5588 H   0  0  0  0  0  0  0  0  0  0  0  0
    0.6156    5.5844   17.5416 H   0  0  0  0  0  0  0  0  0  0  0  0
   -3.1349    8.7583   13.2237 H   0  0  0  0  0  0  0  0  0  0  0  0
    1.0778    5.4030   14.4468 C   0  0  0  0  0  0  0  0  0  0  0  0
    0.4485    4.1216   14.3870 O   0  0  0  0  0  0  0  0  0  0  0  0
    0.2704    3.8065   15.2869 H   0  0  0  0  0  0  0  0  0  0  0  0
   -1.6822    8.5061   10.8689 C   0  0  0  0  0  0  0  0  0  0  0  0
   -1.6981   10.0183   10.8196 C   0  0  0  0  0  0  0  0  0  0  0  0
   -1.2521   10.6912   11.7518 O   0  0  0  0  0  0  0  0  0  0  0  0
   -3.0198    9.7501    8.8868 C   0  0  0  0  0  0  0  0  0  0  0  0
   -2.2239   10.6239    9.7273 O   0  0  0  0  0  0  0  0  0  0  0  0
 20 21  1  0  0  0
 20 11  1  0  0  0
 21 24  1  0  0  0
 21 22  2  0  0  0
 23 24  1  0  0  0
  1  2  1  0  0  0
  1  9  2  0  0  0
  1 10  1  0  0  0
  2  3  1  0  0  0
  2  6  1  0  0  0
  3  4  1  0  0  0
  3  7  1  0  0  0
  4  5  1  0  0  0
  4  8  1  0  0  0
  5 17  1  0  0  0
  5  9  1  0  0  0
 17 18  1  0  0  0
  9 12  1  0  0  0
 10 11  1  0  0  0
 11 12  2  0  0  0
  6 13  1  0  0  0
  7 14  1  0  0  0
  8 15  1  0  0  0
 18 19  1  0  0  0
 10 16  1  0  0  0
M  CHG 1   9   1
M  END
> <minimizedAffinity>
-8.06614

$$$$
2J7E_GI2_A_1446


 24 25  0  0  0  0  0  0  0  0999 V2000
   -0.9762    6.8984   14.3430 C   0  0  0  0  0  0  0  0  0  0  0  0
    0.0982    6.2801   15.2547 C   0  0  0  0  0  0  0  0  0  0  0  0
   -0.5018    5.7265   16.5478 C   0  0  0  0  0  0  0  0  0  0  0  0
   -1.7437    6.5530   16.9891 C   0  0  0  0  0  0  0  0  0  0  0  0
   -2.8448    6.4158   15.9241 C   0  0  0  0  0  0  0  0  0  0  0  0
    0.7835    5.2303   14.5782 O   0  0  0  0  0  0  0  0  0  0  0  0
    0.5424    5.6859   17.5099 O   0  0  0  0  0  0  0  0  0  0  0  0
   -2.2393    6.1543   18.2620 O   0  0  0  0  0  0  0  0  0  0  0  0
   -2.3402    6.9767   14.6587 N   0  0  0  0  0  0  0  0  0  0  0  0
   -0.8476    7.5023   13.1632 N   0  0  0  0  0  0  0  0  0  0  0  0
   -2.0269    7.9361   12.7251 C   0  0  0  0  0  0  0  0  0  0  0  0
   -2.9440    7.6244   13.6480 C   0  0  0  0  0  0  0  0  0  0  0  0
    0.1559    4.5248   14.3561 H   0  0  0  0  0  0  0  0  0  0  0  0
    0.8960    6.5795   17.6413 H   0  0  0  0  0  0  0  0  0  0  0  0
   -2.5253    5.2282   18.2220 H   0  0  0  0  0  0  0  0  0  0  0  0
    0.0036    7.6127   12.6810 H   0  0  0  0  0  0  0  0  0  0  0  0
   -4.1335    7.1167   16.3058 C   0  0  0  0  0  0  0  0  0  0  0  0
   -4.7968    6.4709   17.3942 O   0  0  0  0  0  0  0  0  0  0  0  0
   -5.0306    5.5649   17.1386 H   0  0  0  0  0  0  0  0  0  0  0  0
   -2.2343    8.6406   11.3947 C   0  0  0  0  0  0  0  0  0  0  0  0
   -1.1185    9.6315   11.1446 C   0  0  0  0  0  0  0  0  0  0  0  0
   -1.2135   10.8048   11.5121 O   0  0  0  0  0  0  0  0  0  0  0  0
   -0.2212    8.8803    9.0987 C   0  0  0  0  0  0  0  0  0  0  0  0
   -0.0079    9.2041   10.4962 O   0  0  0  0  0  0  0  0  0  0  0  0
 20 21  1  0  0  0
 20 11  1  0  0  0
 21 24  1  0  0  0
 21 22  2  0  0  0
 23 24  1  0  0  0
  1  2  1  0  0  0
  1  9  2  0  0  0
  1 10  1  0  0  0
  2  3  1  0  0  0
  2  6  1  0  0  0
  3  4  1  0  0  0
  3  7  1  0  0  0
  4  5  1  0  0  0
  4  8  1  0  0  0
  5 17  1  0  0  0
  5  9  1  0  0  0
 17 18  1  0  0  0
  9 12  1  0  0  0
 10 11  1  0  0  0
 11 12  2  0  0  0
  6 13  1  0  0  0
  7 14  1  0  0  0
  8 15  1  0  0  0
 18 19  1  0  0  0
 10 16  1  0  0  0
M  CHG 1   9   1
M  END
> <minimizedAffinity>
-8.06016

$$$$
2J7E_GI2_A_1446


 24 25  0  0  0  0  0  0  0  0999 V2000
   -1.1395    7.2084    9.9594 C   0  0  0  0  0  0  0  0  0  0  0  0
   -0.4455    5.8417    9.8246 C   0  0  0  0  0  0  0  0  0  0  0  0
   -0.3165    5.1328   11.1735 C   0  0  0  0  0  0  0  0  0  0  0  0
   -0.1529    6.1574   12.3326 C   0  0  0  0  0  0  0  0  0  0  0  0
   -1.4256    7.0154   12.4303 C   0  0  0  0  0  0  0  0  0  0  0  0
   -1.1672    5.0010    8.9293 O   0  0  0  0  0  0  0  0  0  0  0  0
    0.7548    4.2071   11.0591 O   0  0  0  0  0  0  0  0  0  0  0  0
    0.1130    5.5294   13.5815 O   0  0  0  0  0  0  0  0  0  0  0  0
   -1.5809    7.7621   11.1697 N   0  0  0  0  0  0  0  0  0  0  0  0
   -1.4039    8.1249    9.0302 N   0  0  0  0  0  0  0  0  0  0  0  0
   -1.9821    9.1932    9.5735 C   0  0  0  0  0  0  0  0  0  0  0  0
   -2.0815    8.9773   10.8901 C   0  0  0  0  0  0  0  0  0  0  0  0
   -2.0551    4.8375    9.2840 H   0  0  0  0  0  0  0  0  0  0  0  0
    1.5697    4.6820   10.8327 H   0  0  0  0  0  0  0  0  0  0  0  0
   -0.6338    4.9590   13.8221 H   0  0  0  0  0  0  0  0  0  0  0  0
   -1.1995    8.0256    8.0723 H   0  0  0  0  0  0  0  0  0  0  0  0
   -1.3998    7.9896   13.5913 C   0  0  0  0  0  0  0  0  0  0  0  0
   -0.1055    8.5628   13.7857 O   0  0  0  0  0  0  0  0  0  0  0  0
    0.5319    7.8605   13.9894 H   0  0  0  0  0  0  0  0  0  0  0  0
   -2.4411   10.4073    8.7831 C   0  0  0  0  0  0  0  0  0  0  0  0
   -1.2522   11.1211    8.1778 C   0  0  0  0  0  0  0  0  0  0  0  0
   -0.7788   10.7664    7.0957 O   0  0  0  0  0  0  0  0  0  0  0  0
    0.4547   11.8094    9.6501 C   0  0  0  0  0  0  0  0  0  0  0  0
   -0.7077   12.1599    8.8567 O   0  0  0  0  0  0  0  0  0  0  0  0
 20 21  1  0  0  0
 20 11  1  0  0  0
 21 24  1  0  0  0
 21 22  2  0  0  0
 23 24  1  0  0  0
  1  2  1  0  0  0
  1  9  2  0  0  0
  1 10  1  0  0  0
  2  3  1  0  0  0
  2  6  1  0  0  0
  3  4  1  0  0  0
  3  7  1  0  0  0
  4  5  1  0  0  0
  4  8  1  0  0  0
  5 17  1  0  0  0
  5  9  1  0  0  0
 17 18  1  0  0  0
  9 12  1  0  0  0
 10 11  1  0  0  0
 11 12  2  0  0  0
  6 13  1  0  0  0
  7 14  1  0  0  0
  8 15  1  0  0  0
 18 19  1  0  0  0
 10 16  1  0  0  0
M  CHG 1   9   1
M  END
> <minimizedAffinity>
-7.95053

$$$$
2J7E_GI2_A_1446


 24 25  0  0  0  0  0  0  0  0999 V2000
   -2.0890    7.6964   14.4710 C   0  0  0  0  0  0  0  0  0  0  0  0
   -3.0196    7.8176   15.6904 C   0  0  0  0  0  0  0  0  0  0  0  0
   -2.8923    6.6147   16.6261 C   0  0  0  0  0  0  0  0  0  0  0  0
   -2.5490    5.3210   15.8333 C   0  0  0  0  0  0  0  0  0  0  0  0
   -1.1700    5.4856   15.1726 C   0  0  0  0  0  0  0  0  0  0  0  0
   -2.7305    9.0044   16.4235 O   0  0  0  0  0  0  0  0  0  0  0  0
   -4.0973    6.5369   17.3741 O   0  0  0  0  0  0  0  0  0  0  0  0
   -2.5647    4.1587   16.6541 O   0  0  0  0  0  0  0  0  0  0  0  0
   -1.2415    6.6077   14.2205 N   0  0  0  0  0  0  0  0  0  0  0  0
   -1.9365    8.5141   13.4312 N   0  0  0  0  0  0  0  0  0  0  0  0
   -1.0543    8.0178   12.5672 C   0  0  0  0  0  0  0  0  0  0  0  0
   -0.6345    6.8407   13.0446 C   0  0  0  0  0  0  0  0  0  0  0  0
   -1.8216    8.9633   16.7599 H   0  0  0  0  0  0  0  0  0  0  0  0
   -4.8477    6.4326   16.7683 H   0  0  0  0  0  0  0  0  0  0  0  0
   -1.8914    4.2433   17.3473 H   0  0  0  0  0  0  0  0  0  0  0  0
   -2.4113    9.3689   13.3172 H   0  0  0  0  0  0  0  0  0  0  0  0
   -0.7048    4.2393   14.4462 C   0  0  0  0  0  0  0  0  0  0  0  0
   -0.0436    3.3213   15.3190 O   0  0  0  0  0  0  0  0  0  0  0  0
    0.7452    3.7430   15.6943 H   0  0  0  0  0  0  0  0  0  0  0  0
   -0.6279    8.7192   11.2883 C   0  0  0  0  0  0  0  0  0  0  0  0
   -1.4582    9.9650   11.0696 C   0  0  0  0  0  0  0  0  0  0  0  0
   -1.2926   10.9714   11.7628 O   0  0  0  0  0  0  0  0  0  0  0  0
   -1.9118   10.3421    8.7877 C   0  0  0  0  0  0  0  0  0  0  0  0
   -2.4007    9.9509   10.0959 O   0  0  0  0  0  0  0  0  0  0  0  0
 20 21  1  0  0  0
 20 11  1  0  0  0
 21 24  1  0  0  0
 21 22  2  0  0  0
 23 24  1  0  0  0
  1  2  1  0  0  0
  1  9  2  0  0  0
  1 10  1  0  0  0
  2  3  1  0  0  0
  2  6  1  0  0  0
  3  4  1  0  0  0
  3  7  1  0  0  0
  4  5  1  0  0  0
  4  8  1  0  0  0
  5 17  1  0  0  0
  5  9  1  0  0  0
 17 18  1  0  0  0
  9 12  1  0  0  0
 10 11  1  0  0  0
 11 12  2  0  0  0
  6 13  1  0  0  0
  7 14  1  0  0  0
  8 15  1  0  0  0
 18 19  1  0  0  0
 10 16  1  0  0  0
M  CHG 1   9   1
M  END
> <minimizedAffinity>
-7.73019

$$$$
2J7E_GI2_A_1446


 24 25  0  0  0  0  0  0  0  0999 V2000
   -1.1432    6.8997   12.3303 C   0  0  0  0  0  0  0  0  0  0  0  0
   -0.8151    5.9071   11.2012 C   0  0  0  0  0  0  0  0  0  0  0  0
   -0.3149    6.6196    9.9438 C   0  0  0  0  0  0  0  0  0  0  0  0
   -0.9677    8.0241    9.7974 C   0  0  0  0  0  0  0  0  0  0  0  0
   -0.5341    8.9071   10.9797 C   0  0  0  0  0  0  0  0  0  0  0  0
    0.1745    4.9751   11.6273 O   0  0  0  0  0  0  0  0  0  0  0  0
   -0.5536    5.7494    8.8468 O   0  0  0  0  0  0  0  0  0  0  0  0
   -0.6344    8.6541    8.5658 O   0  0  0  0  0  0  0  0  0  0  0  0
   -1.0287    8.2933   12.2244 N   0  0  0  0  0  0  0  0  0  0  0  0
   -1.6270    6.6730   13.5500 N   0  0  0  0  0  0  0  0  0  0  0  0
   -1.8088    7.8171   14.2048 C   0  0  0  0  0  0  0  0  0  0  0  0
   -1.4526    8.8150   13.3879 C   0  0  0  0  0  0  0  0  0  0  0  0
    0.9942    5.4483   11.8397 H   0  0  0  0  0  0  0  0  0  0  0  0
   -1.5024    5.5567    8.7873 H   0  0  0  0  0  0  0  0  0  0  0  0
    0.3249    8.7907    8.5218 H   0  0  0  0  0  0  0  0  0  0  0  0
   -1.8233    5.7808   13.9171 H   0  0  0  0  0  0  0  0  0  0  0  0
   -1.0494   10.3292   10.8816 C   0  0  0  0  0  0  0  0  0  0  0  0
   -2.2047   10.4279   10.0466 O   0  0  0  0  0  0  0  0  0  0  0  0
   -1.9785   10.1446    9.1469 H   0  0  0  0  0  0  0  0  0  0  0  0
   -2.3190    7.9088   15.6332 C   0  0  0  0  0  0  0  0  0  0  0  0
   -1.6233    6.8881   16.5070 C   0  0  0  0  0  0  0  0  0  0  0  0
   -0.4377    6.5989   16.3290 O   0  0  0  0  0  0  0  0  0  0  0  0
   -3.7069    5.9807   17.1315 C   0  0  0  0  0  0  0  0  0  0  0  0
   -2.3354    6.2865   17.4905 O   0  0  0  0  0  0  0  0  0  0  0  0
 20 21  1  0  0  0
 20 11  1  0  0  0
 21 24  1  0  0  0
 21 22  2  0  0  0
 23 24  1  0  0  0
  1  2  1  0  0  0
  1  9  2  0  0  0
  1 10  1  0  0  0
  2  3  1  0  0  0
  2  6  1  0  0  0
  3  4  1  0  0  0
  3  7  1  0  0  0
  4  5  1  0  0  0
  4  8  1  0  0  0
  5 17  1  0  0  0
  5  9  1  0  0  0
 17 18  1  0  0  0
  9 12  1  0  0  0
 10 11  1  0  0  0
 11 12  2  0  0  0
  6 13  1  0  0  0
  7 14  1  0  0  0
  8 15  1  0  0  0
 18 19  1  0  0  0
 10 16  1  0  0  0
M  CHG 1   9   1
M  END
> <minimizedAffinity>
-7.54647

$$$$
2J7E_GI2_A_1446


 24 25  0  0  0  0  0  0  0  0999 V2000
    0.2653    6.8127    9.4633 C   0  0  0  0  0  0  0  0  0  0  0  0
    0.6456    5.5002    8.7558 C   0  0  0  0  0  0  0  0  0  0  0  0
    0.7912    4.3419    9.7436 C   0  0  0  0  0  0  0  0  0  0  0  0
    1.2993    4.8436   11.1257 C   0  0  0  0  0  0  0  0  0  0  0  0
    0.2489    5.7862   11.7371 C   0  0  0  0  0  0  0  0  0  0  0  0
   -0.3354    5.1551    7.7821 O   0  0  0  0  0  0  0  0  0  0  0  0
    1.6300    3.3727    9.1316 O   0  0  0  0  0  0  0  0  0  0  0  0
    1.5821    3.7757   12.0226 O   0  0  0  0  0  0  0  0  0  0  0  0
    0.0962    6.9512   10.8484 N   0  0  0  0  0  0  0  0  0  0  0  0
    0.0814    8.0308    8.9576 N   0  0  0  0  0  0  0  0  0  0  0  0
   -0.1973    8.9040    9.9223 C   0  0  0  0  0  0  0  0  0  0  0  0
   -0.1773    8.2451   11.0865 C   0  0  0  0  0  0  0  0  0  0  0  0
   -1.1880    5.0075    8.2204 H   0  0  0  0  0  0  0  0  0  0  0  0
    2.4907    3.7717    8.9290 H   0  0  0  0  0  0  0  0  0  0  0  0
    0.7700    3.2736   12.1939 H   0  0  0  0  0  0  0  0  0  0  0  0
    0.1432    8.2546    8.0009 H   0  0  0  0  0  0  0  0  0  0  0  0
    0.6132    6.2609   13.1298 C   0  0  0  0  0  0  0  0  0  0  0  0
    0.2723    5.3022   14.1329 O   0  0  0  0  0  0  0  0  0  0  0  0
   -0.6860    5.1528   14.1249 H   0  0  0  0  0  0  0  0  0  0  0  0
   -0.4928   10.3748    9.6800 C   0  0  0  0  0  0  0  0  0  0  0  0
   -1.3589   10.5418    8.4507 C   0  0  0  0  0  0  0  0  0  0  0  0
   -0.8764   10.4787    7.3175 O   0  0  0  0  0  0  0  0  0  0  0  0
   -3.4930    9.5717    8.6942 C   0  0  0  0  0  0  0  0  0  0  0  0
   -2.6835   10.7728    8.6197 O   0  0  0  0  0  0  0  0  0  0  0  0
 20 21  1  0  0  0
 20 11  1  0  0  0
 21 24  1  0  0  0
 21 22  2  0  0  0
 23 24  1  0  0  0
  1  2  1  0  0  0
  1  9  2  0  0  0
  1 10  1  0  0  0
  2  3  1  0  0  0
  2  6  1  0  0  0
  3  4  1  0  0  0
  3  7  1  0  0  0
  4  5  1  0  0  0
  4  8  1  0  0  0
  5 17  1  0  0  0
  5  9  1  0  0  0
 17 18  1  0  0  0
  9 12  1  0  0  0
 10 11  1  0  0  0
 11 12  2  0  0  0
  6 13  1  0  0  0
  7 14  1  0  0  0
  8 15  1  0  0  0
 18 19  1  0  0  0
 10 16  1  0  0  0
M  CHG 1   9   1
M  END
> <minimizedAffinity>
-7.52317

$$$$
2J7E_GI2_A_1446


 24 25  0  0  0  0  0  0  0  0999 V2000
   -1.1833    9.0726   11.7866 C   0  0  0  0  0  0  0  0  0  0  0  0
   -0.8413    9.9473   10.5678 C   0  0  0  0  0  0  0  0  0  0  0  0
   -0.5767    9.1056    9.3187 C   0  0  0  0  0  0  0  0  0  0  0  0
    0.0478    7.7302    9.6907 C   0  0  0  0  0  0  0  0  0  0  0  0
   -0.9617    6.9288   10.5299 C   0  0  0  0  0  0  0  0  0  0  0  0
   -1.9015   10.8585   10.2935 O   0  0  0  0  0  0  0  0  0  0  0  0
    0.2227    9.8913    8.4462 O   0  0  0  0  0  0  0  0  0  0  0  0
    0.4384    6.9815    8.5454 O   0  0  0  0  0  0  0  0  0  0  0  0
   -1.2241    7.6709   11.7752 N   0  0  0  0  0  0  0  0  0  0  0  0
   -1.4419    9.4270   13.0439 N   0  0  0  0  0  0  0  0  0  0  0  0
   -1.6484    8.3535   13.8028 C   0  0  0  0  0  0  0  0  0  0  0  0
   -1.5037    7.2727   13.0277 C   0  0  0  0  0  0  0  0  0  0  0  0
   -2.7054   10.3623   10.0734 H   0  0  0  0  0  0  0  0  0  0  0  0
    1.0511   10.1280    8.8920 H   0  0  0  0  0  0  0  0  0  0  0  0
   -0.3422    6.7911    8.0020 H   0  0  0  0  0  0  0  0  0  0  0  0
   -1.4758   10.3561   13.3677 H   0  0  0  0  0  0  0  0  0  0  0  0
   -0.4787    5.5327   10.8694 C   0  0  0  0  0  0  0  0  0  0  0  0
   -0.7279    4.6038    9.8127 O   0  0  0  0  0  0  0  0  0  0  0  0
   -1.6829    4.5436    9.6536 H   0  0  0  0  0  0  0  0  0  0  0  0
   -1.9991    8.4101   15.2803 C   0  0  0  0  0  0  0  0  0  0  0  0
   -1.7609    7.0643   15.9295 C   0  0  0  0  0  0  0  0  0  0  0  0
   -0.6636    6.7744   16.4119 O   0  0  0  0  0  0  0  0  0  0  0  0
   -4.0723    6.7571   16.2735 C   0  0  0  0  0  0  0  0  0  0  0  0
   -2.7814    6.1733   15.9633 O   0  0  0  0  0  0  0  0  0  0  0  0
 20 21  1  0  0  0
 20 11  1  0  0  0
 21 24  1  0  0  0
 21 22  2  0  0  0
 23 24  1  0  0  0
  1  2  1  0  0  0
  1  9  2  0  0  0
  1 10  1  0  0  0
  2  3  1  0  0  0
  2  6  1  0  0  0
  3  4  1  0  0  0
  3  7  1  0  0  0
  4  5  1  0  0  0
  4  8  1  0  0  0
  5 17  1  0  0  0
  5  9  1  0  0  0
 17 18  1  0  0  0
  9 12  1  0  0  0
 10 11  1  0  0  0
 11 12  2  0  0  0
  6 13  1  0  0  0
  7 14  1  0  0  0
  8 15  1  0  0  0
 18 19  1  0  0  0
 10 16  1  0  0  0
M  CHG 1   9   1
M  END
> <minimizedAffinity>
-7.42716

$$$$
2J7E_GI2_A_1446


 24 25  0  0  0  0  0  0  0  0999 V2000
   -0.7433    7.0314   14.2343 C   0  0  0  0  0  0  0  0  0  0  0  0
   -1.9269    7.9501   14.5846 C   0  0  0  0  0  0  0  0  0  0  0  0
   -2.2804    7.8821   16.0710 C   0  0  0  0  0  0  0  0  0  0  0  0
   -1.9842    6.4707   16.6542 C   0  0  0  0  0  0  0  0  0  0  0  0
   -0.4729    6.1976   16.5702 C   0  0  0  0  0  0  0  0  0  0  0  0
   -1.6292    9.3007   14.2430 O   0  0  0  0  0  0  0  0  0  0  0  0
   -3.6343    8.2924   16.1984 O   0  0  0  0  0  0  0  0  0  0  0  0
   -2.4346    6.3305   17.9967 O   0  0  0  0  0  0  0  0  0  0  0  0
   -0.0773    6.2053   15.1510 N   0  0  0  0  0  0  0  0  0  0  0  0
   -0.1688    6.7937   13.0568 N   0  0  0  0  0  0  0  0  0  0  0  0
    0.8041    5.8943   13.1804 C   0  0  0  0  0  0  0  0  0  0  0  0
    0.8546    5.5227   14.4646 C   0  0  0  0  0  0  0  0  0  0  0  0
   -0.8675    9.6049   14.7610 H   0  0  0  0  0  0  0  0  0  0  0  0
   -4.2011    7.7040   15.6754 H   0  0  0  0  0  0  0  0  0  0  0  0
   -1.9678    6.9653   18.5624 H   0  0  0  0  0  0  0  0  0  0  0  0
   -0.4284    7.2245   12.2104 H   0  0  0  0  0  0  0  0  0  0  0  0
   -0.0703    4.8775   17.1968 C   0  0  0  0  0  0  0  0  0  0  0  0
    0.8996    5.0455   18.2325 O   0  0  0  0  0  0  0  0  0  0  0  0
    1.7037    5.4412   17.8613 H   0  0  0  0  0  0  0  0  0  0  0  0
    1.6799    5.4240   12.0309 C   0  0  0  0  0  0  0  0  0  0  0  0
    1.1196    5.9068   10.7110 C   0  0  0  0  0  0  0  0  0  0  0  0
    0.7750    5.1100    9.8350 O   0  0  0  0  0  0  0  0  0  0  0  0
    0.1691    7.6043    9.3805 C   0  0  0  0  0  0  0  0  0  0  0  0
    1.0111    7.2417   10.5043 O   0  0  0  0  0  0  0  0  0  0  0  0
 20 21  1  0  0  0
 20 11  1  0  0  0
 21 24  1  0  0  0
 21 22  2  0  0  0
 23 24  1  0  0  0
  1  2  1  0  0  0
  1  9  2  0  0  0
  1 10  1  0  0  0
  2  3  1  0  0  0
  2  6  1  0  0  0
  3  4  1  0  0  0
  3  7  1  0  0  0
  4  5  1  0  0  0
  4  8  1  0  0  0
  5 17  1  0  0  0
  5  9  1  0  0  0
 17 18  1  0  0  0
  9 12  1  0  0  0
 10 11  1  0  0  0
 11 12  2  0  0  0
  6 13  1  0  0  0
  7 14  1  0  0  0
  8 15  1  0  0  0
 18 19  1  0  0  0
 10 16  1  0  0  0
M  CHG 1   9   1
M  END
> <minimizedAffinity>
-7.28152

$$$$
