1Q72_COC_H_401


 22 24  0  0  0  0  0  0  0  0999 V2000
   23.7773   -1.9701   25.2523 C   0  0  0  0  0  0  0  0  0  0  0  0
   22.3390   -1.4205   25.5594 C   0  0  0  0  0  0  0  0  0  0  0  0
   21.3722   -2.4850   25.2401 N   0  0  0  0  0  0  0  0  0  0  0  0
   20.0645   -2.3055   25.9191 C   0  0  0  0  0  0  0  0  0  0  0  0
   21.9489   -0.1875   24.7152 C   0  0  0  0  0  0  0  0  0  0  0  0
   21.2438   -0.8120   23.4824 C   0  0  0  0  0  0  0  0  0  0  0  0
   21.2893   -2.3301   23.7792 C   0  0  0  0  0  0  0  0  0  0  0  0
   22.5661   -2.9997   23.1789 C   0  0  0  0  0  0  0  0  0  0  0  0
   23.8446   -2.3392   23.7354 C   0  0  0  0  0  0  0  0  0  0  0  0
   24.0668   -3.1452   26.1956 C   0  0  0  0  0  0  0  0  0  0  0  0
   23.6811   -4.2734   26.1031 O   0  0  0  0  0  0  0  0  0  0  0  0
   26.2652   -3.0715   27.1521 C   0  0  0  0  0  0  0  0  0  0  0  0
   24.8637   -2.7071   27.1907 O   0  0  0  0  0  0  0  0  0  0  0  0
   25.0120   -3.1915   23.4867 O   0  0  0  0  0  0  0  0  0  0  0  0
   26.2380   -2.6182   23.4102 C   0  0  0  0  0  0  0  0  0  0  0  0
   26.4562   -1.4618   23.6831 O   0  0  0  0  0  0  0  0  0  0  0  0
   27.2931   -3.5920   22.9338 C   0  0  0  0  0  0  0  0  0  0  0  0
   26.8698   -4.8355   22.4077 C   0  0  0  0  0  0  0  0  0  0  0  0
   27.8419   -5.7656   21.9611 C   0  0  0  0  0  0  0  0  0  0  0  0
   29.1826   -5.4706   22.0338 C   0  0  0  0  0  0  0  0  0  0  0  0
   29.5998   -4.2514   22.5486 C   0  0  0  0  0  0  0  0  0  0  0  0
   28.6524   -3.3056   23.0002 C   0  0  0  0  0  0  0  0  0  0  0  0
 12 13  1  0  0  0
 13 10  1  0  0  0
 10 11  2  0  0  0
 10  1  1  0  0  0
  1  2  1  0  0  0
  1  9  1  0  0  0
  2  3  1  0  0  0
  2  5  1  0  0  0
  3  4  1  0  0  0
  3  7  1  0  0  0
  5  6  1  0  0  0
  6  7  1  0  0  0
  7  8  1  0  0  0
  8  9  1  0  0  0
  9 14  1  0  0  0
 14 15  1  0  0  0
 15 16  2  0  0  0
 15 17  1  0  0  0
 17 18  2  0  0  0
 17 22  1  0  0  0
 18 19  1  0  0  0
 19 20  2  0  0  0
 20 21  1  0  0  0
 21 22  2  0  0  0
M  END
> <minimizedAffinity>
-7.61952

$$$$
1Q72_COC_H_401


 22 24  0  0  0  0  0  0  0  0999 V2000
   23.8633   -2.6925   24.7001 C   0  0  0  0  0  0  0  0  0  0  0  0
   22.5930   -1.7724   24.7649 C   0  0  0  0  0  0  0  0  0  0  0  0
   21.4148   -2.6414   24.9277 N   0  0  0  0  0  0  0  0  0  0  0  0
   20.2380   -1.9275   25.4835 C   0  0  0  0  0  0  0  0  0  0  0  0
   22.3637   -0.9345   23.4880 C   0  0  0  0  0  0  0  0  0  0  0  0
   21.4353   -1.8383   22.6344 C   0  0  0  0  0  0  0  0  0  0  0  0
   21.2203   -3.0775   23.5359 C   0  0  0  0  0  0  0  0  0  0  0  0
   22.2814   -4.1886   23.2562 C   0  0  0  0  0  0  0  0  0  0  0  0
   23.7104   -3.6492   23.4742 C   0  0  0  0  0  0  0  0  0  0  0  0
   24.0151   -3.4172   26.0442 C   0  0  0  0  0  0  0  0  0  0  0  0
   23.5943   -4.4942   26.3494 O   0  0  0  0  0  0  0  0  0  0  0  0
   25.8624   -3.2220   27.5616 C   0  0  0  0  0  0  0  0  0  0  0  0
   24.7323   -2.6327   26.8732 O   0  0  0  0  0  0  0  0  0  0  0  0
   24.6643   -4.7571   23.5912 O   0  0  0  0  0  0  0  0  0  0  0  0
   25.2988   -5.1965   22.4767 C   0  0  0  0  0  0  0  0  0  0  0  0
   24.7514   -5.8069   21.5895 O   0  0  0  0  0  0  0  0  0  0  0  0
   26.7695   -4.8424   22.4819 C   0  0  0  0  0  0  0  0  0  0  0  0
   27.1646   -3.6264   23.0882 C   0  0  0  0  0  0  0  0  0  0  0  0
   28.5371   -3.2719   23.0991 C   0  0  0  0  0  0  0  0  0  0  0  0
   29.4802   -4.0946   22.5302 C   0  0  0  0  0  0  0  0  0  0  0  0
   29.0949   -5.2878   21.9359 C   0  0  0  0  0  0  0  0  0  0  0  0
   27.7339   -5.6662   21.9116 C   0  0  0  0  0  0  0  0  0  0  0  0
 12 13  1  0  0  0
 13 10  1  0  0  0
 10 11  2  0  0  0
 10  1  1  0  0  0
  1  2  1  0  0  0
  1  9  1  0  0  0
  2  3  1  0  0  0
  2  5  1  0  0  0
  3  4  1  0  0  0
  3  7  1  0  0  0
  5  6  1  0  0  0
  6  7  1  0  0  0
  7  8  1  0  0  0
  8  9  1  0  0  0
  9 14  1  0  0  0
 14 15  1  0  0  0
 15 16  2  0  0  0
 15 17  1  0  0  0
 17 18  2  0  0  0
 17 22  1  0  0  0
 18 19  1  0  0  0
 19 20  2  0  0  0
 20 21  1  0  0  0
 21 22  2  0  0  0
M  END
> <minimizedAffinity>
-6.75142

$$$$
1Q72_COC_H_401


 22 24  0  0  0  0  0  0  0  0999 V2000
   25.7032   -4.0878   23.1459 C   0  0  0  0  0  0  0  0  0  0  0  0
   26.6785   -5.2361   22.7045 C   0  0  0  0  0  0  0  0  0  0  0  0
   26.9021   -6.1101   23.8690 N   0  0  0  0  0  0  0  0  0  0  0  0
   27.3822   -7.4642   23.4960 C   0  0  0  0  0  0  0  0  0  0  0  0
   28.0644   -4.7346   22.2429 C   0  0  0  0  0  0  0  0  0  0  0  0
   28.9065   -4.7748   23.5454 C   0  0  0  0  0  0  0  0  0  0  0  0
   27.9095   -5.3210   24.5954 C   0  0  0  0  0  0  0  0  0  0  0  0
   27.1455   -4.1695   25.3228 C   0  0  0  0  0  0  0  0  0  0  0  0
   26.3798   -3.2938   24.3093 C   0  0  0  0  0  0  0  0  0  0  0  0
   24.3491   -4.7075   23.5161 C   0  0  0  0  0  0  0  0  0  0  0  0
   24.0114   -5.1577   24.5712 O   0  0  0  0  0  0  0  0  0  0  0  0
   22.1989   -4.1691   22.5996 C   0  0  0  0  0  0  0  0  0  0  0  0
   23.5496   -4.6646   22.4316 O   0  0  0  0  0  0  0  0  0  0  0  0
   25.3761   -2.4736   24.9956 O   0  0  0  0  0  0  0  0  0  0  0  0
   24.9444   -1.3335   24.4027 C   0  0  0  0  0  0  0  0  0  0  0  0
   25.6784   -0.5317   23.8757 O   0  0  0  0  0  0  0  0  0  0  0  0
   23.4419   -1.1806   24.4894 C   0  0  0  0  0  0  0  0  0  0  0  0
   22.7493   -1.9118   25.4834 C   0  0  0  0  0  0  0  0  0  0  0  0
   21.3404   -1.7881   25.5787 C   0  0  0  0  0  0  0  0  0  0  0  0
   20.6470   -0.9688   24.7198 C   0  0  0  0  0  0  0  0  0  0  0  0
   21.3243   -0.2503   23.7448 C   0  0  0  0  0  0  0  0  0  0  0  0
   22.7284   -0.3541   23.6281 C   0  0  0  0  0  0  0  0  0  0  0  0
 12 13  1  0  0  0
 13 10  1  0  0  0
 10 11  2  0  0  0
 10  1  1  0  0  0
  1  2  1  0  0  0
  1  9  1  0  0  0
  2  3  1  0  0  0
  2  5  1  0  0  0
  3  4  1  0  0  0
  3  7  1  0  0  0
  5  6  1  0  0  0
  6  7  1  0  0  0
  7  8  1  0  0  0
  8  9  1  0  0  0
  9 14  1  0  0  0
 14 15  1  0  0  0
 15 16  2  0  0  0
 15 17  1  0  0  0
 17 18  2  0  0  0
 17 22  1  0  0  0
 18 19  1  0  0  0
 19 20  2  0  0  0
 20 21  1  0  0  0
 21 22  2  0  0  0
M  END
> <minimizedAffinity>
-6.67481

$$$$
1Q72_COC_H_401


 22 24  0  0  0  0  0  0  0  0999 V2000
   22.1990   -2.6431   25.5595 C   0  0  0  0  0  0  0  0  0  0  0  0
   20.7684   -2.2577   25.0401 C   0  0  0  0  0  0  0  0  0  0  0  0
   20.7028   -2.5957   23.6079 N   0  0  0  0  0  0  0  0  0  0  0  0
   19.3129   -2.7489   23.1098 C   0  0  0  0  0  0  0  0  0  0  0  0
   20.4440   -0.7529   25.1648 C   0  0  0  0  0  0  0  0  0  0  0  0
   20.8916   -0.1802   23.7941 C   0  0  0  0  0  0  0  0  0  0  0  0
   21.3955   -1.4309   23.0348 C   0  0  0  0  0  0  0  0  0  0  0  0
   22.9250   -1.6619   23.2496 C   0  0  0  0  0  0  0  0  0  0  0  0
   23.2504   -1.8184   24.7496 C   0  0  0  0  0  0  0  0  0  0  0  0
   22.3717   -4.1634   25.4427 C   0  0  0  0  0  0  0  0  0  0  0  0
   23.2957   -4.7640   24.9785 O   0  0  0  0  0  0  0  0  0  0  0  0
   20.6899   -5.8621   25.2438 C   0  0  0  0  0  0  0  0  0  0  0  0
   21.2832   -4.7582   25.9704 O   0  0  0  0  0  0  0  0  0  0  0  0
   24.5818   -2.4075   24.9268 O   0  0  0  0  0  0  0  0  0  0  0  0
   25.6055   -1.9565   24.1610 C   0  0  0  0  0  0  0  0  0  0  0  0
   25.8971   -0.7894   24.0503 O   0  0  0  0  0  0  0  0  0  0  0  0
   26.3285   -3.0831   23.4563 C   0  0  0  0  0  0  0  0  0  0  0  0
   27.7324   -2.9892   23.3063 C   0  0  0  0  0  0  0  0  0  0  0  0
   28.4293   -4.0308   22.6437 C   0  0  0  0  0  0  0  0  0  0  0  0
   27.7568   -5.1235   22.1503 C   0  0  0  0  0  0  0  0  0  0  0  0
   26.3802   -5.2179   22.2970 C   0  0  0  0  0  0  0  0  0  0  0  0
   25.6607   -4.1948   22.9539 C   0  0  0  0  0  0  0  0  0  0  0  0
 12 13  1  0  0  0
 13 10  1  0  0  0
 10 11  2  0  0  0
 10  1  1  0  0  0
  1  2  1  0  0  0
  1  9  1  0  0  0
  2  3  1  0  0  0
  2  5  1  0  0  0
  3  4  1  0  0  0
  3  7  1  0  0  0
  5  6  1  0  0  0
  6  7  1  0  0  0
  7  8  1  0  0  0
  8  9  1  0  0  0
  9 14  1  0  0  0
 14 15  1  0  0  0
 15 16  2  0  0  0
 15 17  1  0  0  0
 17 18  2  0  0  0
 17 22  1  0  0  0
 18 19  1  0  0  0
 19 20  2  0  0  0
 20 21  1  0  0  0
 21 22  2  0  0  0
M  END
> <minimizedAffinity>
-6.62343

$$$$
1Q72_COC_H_401


 22 24  0  0  0  0  0  0  0  0999 V2000
   21.9426   -3.9494   23.7029 C   0  0  0  0  0  0  0  0  0  0  0  0
   20.5130   -3.8157   24.3378 C   0  0  0  0  0  0  0  0  0  0  0  0
   19.9054   -2.5765   23.8229 N   0  0  0  0  0  0  0  0  0  0  0  0
   18.4252   -2.5651   23.9337 C   0  0  0  0  0  0  0  0  0  0  0  0
   20.5221   -3.7085   25.8784 C   0  0  0  0  0  0  0  0  0  0  0  0
   20.5707   -2.1777   26.1258 C   0  0  0  0  0  0  0  0  0  0  0  0
   20.5565   -1.5867   24.6957 C   0  0  0  0  0  0  0  0  0  0  0  0
   22.0013   -1.3747   24.1421 C   0  0  0  0  0  0  0  0  0  0  0  0
   22.7842   -2.7041   24.1299 C   0  0  0  0  0  0  0  0  0  0  0  0
   21.7933   -4.1129   22.1844 C   0  0  0  0  0  0  0  0  0  0  0  0
   21.2305   -3.3863   21.4194 O   0  0  0  0  0  0  0  0  0  0  0  0
   22.2612   -5.6997   20.4475 C   0  0  0  0  0  0  0  0  0  0  0  0
   22.4242   -5.2449   21.8132 O   0  0  0  0  0  0  0  0  0  0  0  0
   23.9699   -2.5930   23.2737 O   0  0  0  0  0  0  0  0  0  0  0  0
   25.1858   -2.4429   23.8539 C   0  0  0  0  0  0  0  0  0  0  0  0
   25.4160   -1.6475   24.7336 O   0  0  0  0  0  0  0  0  0  0  0  0
   26.2177   -3.3783   23.2633 C   0  0  0  0  0  0  0  0  0  0  0  0
   25.7747   -4.6036   22.7113 C   0  0  0  0  0  0  0  0  0  0  0  0
   26.7253   -5.4978   22.1579 C   0  0  0  0  0  0  0  0  0  0  0  0
   28.0641   -5.1857   22.1528 C   0  0  0  0  0  0  0  0  0  0  0  0
   28.5005   -3.9844   22.6929 C   0  0  0  0  0  0  0  0  0  0  0  0
   27.5747   -3.0742   23.2502 C   0  0  0  0  0  0  0  0  0  0  0  0
 12 13  1  0  0  0
 13 10  1  0  0  0
 10 11  2  0  0  0
 10  1  1  0  0  0
  1  2  1  0  0  0
  1  9  1  0  0  0
  2  3  1  0  0  0
  2  5  1  0  0  0
  3  4  1  0  0  0
  3  7  1  0  0  0
  5  6  1  0  0  0
  6  7  1  0  0  0
  7  8  1  0  0  0
  8  9  1  0  0  0
  9 14  1  0  0  0
 14 15  1  0  0  0
 15 16  2  0  0  0
 15 17  1  0  0  0
 17 18  2  0  0  0
 17 22  1  0  0  0
 18 19  1  0  0  0
 19 20  2  0  0  0
 20 21  1  0  0  0
 21 22  2  0  0  0
M  END
> <minimizedAffinity>
-6.61835

$$$$
1Q72_COC_H_401


 22 24  0  0  0  0  0  0  0  0999 V2000
   24.9679   -3.8576   25.1795 C   0  0  0  0  0  0  0  0  0  0  0  0
   25.8011   -5.1126   24.7372 C   0  0  0  0  0  0  0  0  0  0  0  0
   27.2064   -4.6939   24.5970 N   0  0  0  0  0  0  0  0  0  0  0  0
   28.1610   -5.8284   24.6676 C   0  0  0  0  0  0  0  0  0  0  0  0
   25.3671   -5.7018   23.3773 C   0  0  0  0  0  0  0  0  0  0  0  0
   26.2858   -4.9681   22.3649 C   0  0  0  0  0  0  0  0  0  0  0  0
   27.1575   -4.0634   23.2683 C   0  0  0  0  0  0  0  0  0  0  0  0
   26.5208   -2.6503   23.4600 C   0  0  0  0  0  0  0  0  0  0  0  0
   25.1094   -2.7636   24.0728 C   0  0  0  0  0  0  0  0  0  0  0  0
   25.4498   -3.4108   26.5662 C   0  0  0  0  0  0  0  0  0  0  0  0
   25.9385   -2.3629   26.8714 O   0  0  0  0  0  0  0  0  0  0  0  0
   25.9607   -4.4062   28.6879 C   0  0  0  0  0  0  0  0  0  0  0  0
   25.2272   -4.4139   27.4389 O   0  0  0  0  0  0  0  0  0  0  0  0
   24.6749   -1.4669   24.6028 O   0  0  0  0  0  0  0  0  0  0  0  0
   23.5841   -0.8701   24.0629 C   0  0  0  0  0  0  0  0  0  0  0  0
   23.6303    0.1386   23.3998 O   0  0  0  0  0  0  0  0  0  0  0  0
   22.3069   -1.6086   24.3976 C   0  0  0  0  0  0  0  0  0  0  0  0
   21.9855   -1.8092   25.7609 C   0  0  0  0  0  0  0  0  0  0  0  0
   20.7965   -2.5040   26.0972 C   0  0  0  0  0  0  0  0  0  0  0  0
   19.9593   -2.9801   25.1164 C   0  0  0  0  0  0  0  0  0  0  0  0
   20.2722   -2.7839   23.7788 C   0  0  0  0  0  0  0  0  0  0  0  0
   21.4504   -2.0940   23.4153 C   0  0  0  0  0  0  0  0  0  0  0  0
 12 13  1  0  0  0
 13 10  1  0  0  0
 10 11  2  0  0  0
 10  1  1  0  0  0
  1  2  1  0  0  0
  1  9  1  0  0  0
  2  3  1  0  0  0
  2  5  1  0  0  0
  3  4  1  0  0  0
  3  7  1  0  0  0
  5  6  1  0  0  0
  6  7  1  0  0  0
  7  8  1  0  0  0
  8  9  1  0  0  0
  9 14  1  0  0  0
 14 15  1  0  0  0
 15 16  2  0  0  0
 15 17  1  0  0  0
 17 18  2  0  0  0
 17 22  1  0  0  0
 18 19  1  0  0  0
 19 20  2  0  0  0
 20 21  1  0  0  0
 21 22  2  0  0  0
M  END
> <minimizedAffinity>
-6.60711

$$$$
1Q72_COC_H_401


 22 24  0  0  0  0  0  0  0  0999 V2000
   20.7079   -2.1188   23.1797 C   0  0  0  0  0  0  0  0  0  0  0  0
   19.5165   -2.2538   22.1663 C   0  0  0  0  0  0  0  0  0  0  0  0
   19.1107   -3.6695   22.1339 N   0  0  0  0  0  0  0  0  0  0  0  0
   17.7310   -3.8673   21.6233 C   0  0  0  0  0  0  0  0  0  0  0  0
   19.8799   -1.8545   20.7194 C   0  0  0  0  0  0  0  0  0  0  0  0
   20.3272   -3.1974   20.0840 C   0  0  0  0  0  0  0  0  0  0  0  0
   20.1414   -4.2139   21.2358 C   0  0  0  0  0  0  0  0  0  0  0  0
   21.4432   -4.3734   22.0835 C   0  0  0  0  0  0  0  0  0  0  0  0
   21.8821   -3.0174   22.6745 C   0  0  0  0  0  0  0  0  0  0  0  0
   20.2032   -2.4794   24.5833 C   0  0  0  0  0  0  0  0  0  0  0  0
   19.7731   -3.5290   24.9618 O   0  0  0  0  0  0  0  0  0  0  0  0
   20.7786   -0.1581   24.7671 C   0  0  0  0  0  0  0  0  0  0  0  0
   20.3257   -1.3936   25.3727 O   0  0  0  0  0  0  0  0  0  0  0  0
   22.8499   -3.2194   23.7578 O   0  0  0  0  0  0  0  0  0  0  0  0
   23.9482   -2.4266   23.8119 C   0  0  0  0  0  0  0  0  0  0  0  0
   23.9223   -1.2661   24.1464 O   0  0  0  0  0  0  0  0  0  0  0  0
   25.2025   -3.1624   23.3948 C   0  0  0  0  0  0  0  0  0  0  0  0
   26.4458   -2.5011   23.5335 C   0  0  0  0  0  0  0  0  0  0  0  0
   27.6332   -3.1697   23.1431 C   0  0  0  0  0  0  0  0  0  0  0  0
   27.5865   -4.4464   22.6353 C   0  0  0  0  0  0  0  0  0  0  0  0
   26.3685   -5.0969   22.4992 C   0  0  0  0  0  0  0  0  0  0  0  0
   25.1696   -4.4544   22.8813 C   0  0  0  0  0  0  0  0  0  0  0  0
 12 13  1  0  0  0
 13 10  1  0  0  0
 10 11  2  0  0  0
 10  1  1  0  0  0
  1  2  1  0  0  0
  1  9  1  0  0  0
  2  3  1  0  0  0
  2  5  1  0  0  0
  3  4  1  0  0  0
  3  7  1  0  0  0
  5  6  1  0  0  0
  6  7  1  0  0  0
  7  8  1  0  0  0
  8  9  1  0  0  0
  9 14  1  0  0  0
 14 15  1  0  0  0
 15 16  2  0  0  0
 15 17  1  0  0  0
 17 18  2  0  0  0
 17 22  1  0  0  0
 18 19  1  0  0  0
 19 20  2  0  0  0
 20 21  1  0  0  0
 21 22  2  0  0  0
M  END
> <minimizedAffinity>
-6.59461

$$$$
1Q72_COC_H_401


 22 24  0  0  0  0  0  0  0  0999 V2000
   23.8356   -3.8249   23.9054 C   0  0  0  0  0  0  0  0  0  0  0  0
   25.0427   -4.8256   23.8255 C   0  0  0  0  0  0  0  0  0  0  0  0
   25.8192   -4.6955   25.0704 N   0  0  0  0  0  0  0  0  0  0  0  0
   26.6689   -5.8795   25.3522 C   0  0  0  0  0  0  0  0  0  0  0  0
   26.0116   -4.5422   22.6566 C   0  0  0  0  0  0  0  0  0  0  0  0
   27.0717   -3.6067   23.2954 C   0  0  0  0  0  0  0  0  0  0  0  0
   26.5992   -3.4859   24.7640 C   0  0  0  0  0  0  0  0  0  0  0  0
   25.6443   -2.2670   24.9670 C   0  0  0  0  0  0  0  0  0  0  0  0
   24.4098   -2.3788   24.0484 C   0  0  0  0  0  0  0  0  0  0  0  0
   22.9189   -4.2511   25.0598 C   0  0  0  0  0  0  0  0  0  0  0  0
   23.2330   -4.5589   26.1718 O   0  0  0  0  0  0  0  0  0  0  0  0
   20.6191   -3.7737   25.5462 C   0  0  0  0  0  0  0  0  0  0  0  0
   21.6433   -4.2214   24.6248 O   0  0  0  0  0  0  0  0  0  0  0  0
   23.3507   -1.4701   24.4999 O   0  0  0  0  0  0  0  0  0  0  0  0
   22.8531   -0.5588   23.6284 C   0  0  0  0  0  0  0  0  0  0  0  0
   23.4525    0.4288   23.2750 O   0  0  0  0  0  0  0  0  0  0  0  0
   21.4598   -0.9189   23.1620 C   0  0  0  0  0  0  0  0  0  0  0  0
   21.3271   -1.7737   22.0422 C   0  0  0  0  0  0  0  0  0  0  0  0
   20.0307   -2.1193   21.5845 C   0  0  0  0  0  0  0  0  0  0  0  0
   18.9099   -1.6346   22.2159 C   0  0  0  0  0  0  0  0  0  0  0  0
   19.0378   -0.7969   23.3147 C   0  0  0  0  0  0  0  0  0  0  0  0
   20.3177   -0.4370   23.7926 C   0  0  0  0  0  0  0  0  0  0  0  0
 12 13  1  0  0  0
 13 10  1  0  0  0
 10 11  2  0  0  0
 10  1  1  0  0  0
  1  2  1  0  0  0
  1  9  1  0  0  0
  2  3  1  0  0  0
  2  5  1  0  0  0
  3  4  1  0  0  0
  3  7  1  0  0  0
  5  6  1  0  0  0
  6  7  1  0  0  0
  7  8  1  0  0  0
  8  9  1  0  0  0
  9 14  1  0  0  0
 14 15  1  0  0  0
 15 16  2  0  0  0
 15 17  1  0  0  0
 17 18  2  0  0  0
 17 22  1  0  0  0
 18 19  1  0  0  0
 19 20  2  0  0  0
 20 21  1  0  0  0
 21 22  2  0  0  0
M  END
> <minimizedAffinity>
-6.57479

$$$$
1Q72_COC_H_401


 22 24  0  0  0  0  0  0  0  0999 V2000
   25.2714   -3.5527   23.9510 C   0  0  0  0  0  0  0  0  0  0  0  0
   23.9170   -2.8292   23.6241 C   0  0  0  0  0  0  0  0  0  0  0  0
   23.8882   -1.5643   24.3784 N   0  0  0  0  0  0  0  0  0  0  0  0
   22.9388   -0.5724   23.8143 C   0  0  0  0  0  0  0  0  0  0  0  0
   22.6648   -3.6319   24.0395 C   0  0  0  0  0  0  0  0  0  0  0  0
   22.3764   -3.1189   25.4750 C   0  0  0  0  0  0  0  0  0  0  0  0
   23.4832   -2.0616   25.7028 C   0  0  0  0  0  0  0  0  0  0  0  0
   24.7543   -2.6861   26.3609 C   0  0  0  0  0  0  0  0  0  0  0  0
   25.3191   -3.8266   25.4887 C   0  0  0  0  0  0  0  0  0  0  0  0
   26.4286   -2.6880   23.4334 C   0  0  0  0  0  0  0  0  0  0  0  0
   26.6091   -1.5194   23.6119 O   0  0  0  0  0  0  0  0  0  0  0  0
   28.6750   -3.4235   23.0255 C   0  0  0  0  0  0  0  0  0  0  0  0
   27.2602   -3.4719   22.7184 O   0  0  0  0  0  0  0  0  0  0  0  0
   26.6929   -4.1470   25.8901 O   0  0  0  0  0  0  0  0  0  0  0  0
   27.0590   -5.4480   25.9943 C   0  0  0  0  0  0  0  0  0  0  0  0
   27.9803   -5.9368   25.3845 O   0  0  0  0  0  0  0  0  0  0  0  0
   26.1733   -6.2137   26.9523 C   0  0  0  0  0  0  0  0  0  0  0  0
   26.1627   -5.8247   28.3128 C   0  0  0  0  0  0  0  0  0  0  0  0
   25.3446   -6.5323   29.2291 C   0  0  0  0  0  0  0  0  0  0  0  0
   24.5667   -7.5850   28.8090 C   0  0  0  0  0  0  0  0  0  0  0  0
   24.5750   -7.9675   27.4752 C   0  0  0  0  0  0  0  0  0  0  0  0
   25.3803   -7.2793   26.5404 C   0  0  0  0  0  0  0  0  0  0  0  0
 12 13  1  0  0  0
 13 10  1  0  0  0
 10 11  2  0  0  0
 10  1  1  0  0  0
  1  2  1  0  0  0
  1  9  1  0  0  0
  2  3  1  0  0  0
  2  5  1  0  0  0
  3  4  1  0  0  0
  3  7  1  0  0  0
  5  6  1  0  0  0
  6  7  1  0  0  0
  7  8  1  0  0  0
  8  9  1  0  0  0
  9 14  1  0  0  0
 14 15  1  0  0  0
 15 16  2  0  0  0
 15 17  1  0  0  0
 17 18  2  0  0  0
 17 22  1  0  0  0
 18 19  1  0  0  0
 19 20  2  0  0  0
 20 21  1  0  0  0
 21 22  2  0  0  0
M  END
> <minimizedAffinity>
-6.37950

$$$$
1Q72_COC_H_401


 22 24  0  0  0  0  0  0  0  0999 V2000
   21.8808   -3.9765   25.5226 C   0  0  0  0  0  0  0  0  0  0  0  0
   20.4166   -3.4518   25.3083 C   0  0  0  0  0  0  0  0  0  0  0  0
   20.1860   -3.3395   23.8578 N   0  0  0  0  0  0  0  0  0  0  0  0
   18.7462   -3.3345   23.4967 C   0  0  0  0  0  0  0  0  0  0  0  0
   20.1590   -2.0558   25.9165 C   0  0  0  0  0  0  0  0  0  0  0  0
   20.4759   -1.0942   24.7408 C   0  0  0  0  0  0  0  0  0  0  0  0
   20.8524   -2.0556   23.5881 C   0  0  0  0  0  0  0  0  0  0  0  0
   22.3874   -2.3406   23.5495 C   0  0  0  0  0  0  0  0  0  0  0  0
   22.8665   -2.9448   24.8858 C   0  0  0  0  0  0  0  0  0  0  0  0
   21.9880   -5.3897   24.9342 C   0  0  0  0  0  0  0  0  0  0  0  0
   22.1050   -5.6999   23.7853 O   0  0  0  0  0  0  0  0  0  0  0  0
   22.5698   -7.5670   25.7554 C   0  0  0  0  0  0  0  0  0  0  0  0
   21.9367   -6.2783   25.9467 O   0  0  0  0  0  0  0  0  0  0  0  0
   24.1884   -3.5597   24.7259 O   0  0  0  0  0  0  0  0  0  0  0  0
   25.2607   -2.9702   25.3093 C   0  0  0  0  0  0  0  0  0  0  0  0
   25.9303   -2.1175   24.7764 O   0  0  0  0  0  0  0  0  0  0  0  0
   25.5239   -3.5130   26.6966 C   0  0  0  0  0  0  0  0  0  0  0  0
   25.3447   -4.8987   26.9200 C   0  0  0  0  0  0  0  0  0  0  0  0
   25.5799   -5.4278   28.2140 C   0  0  0  0  0  0  0  0  0  0  0  0
   25.9787   -4.6111   29.2454 C   0  0  0  0  0  0  0  0  0  0  0  0
   26.1557   -3.2521   29.0283 C   0  0  0  0  0  0  0  0  0  0  0  0
   25.9292   -2.6984   27.7484 C   0  0  0  0  0  0  0  0  0  0  0  0
 12 13  1  0  0  0
 13 10  1  0  0  0
 10 11  2  0  0  0
 10  1  1  0  0  0
  1  2  1  0  0  0
  1  9  1  0  0  0
  2  3  1  0  0  0
  2  5  1  0  0  0
  3  4  1  0  0  0
  3  7  1  0  0  0
  5  6  1  0  0  0
  6  7  1  0  0  0
  7  8  1  0  0  0
  8  9  1  0  0  0
  9 14  1  0  0  0
 14 15  1  0  0  0
 15 16  2  0  0  0
 15 17  1  0  0  0
 17 18  2  0  0  0
 17 22  1  0  0  0
 18 19  1  0  0  0
 19 20  2  0  0  0
 20 21  1  0  0  0
 21 22  2  0  0  0
M  END
> <minimizedAffinity>
-6.19672

$$$$
