3K1J_ADP_A_642


 34 36  0  0  0  0  0  0  0  0999 V2000
  -35.8353  -64.0286  -10.5181 C   0  0  0  0  0  0  0  0  0  0  0  0
  -36.2815  -63.6270   -9.2184 O   0  0  0  0  0  0  0  0  0  0  0  0
  -36.3010  -62.8062  -11.3288 C   0  0  0  0  0  0  0  0  0  0  0  0
  -36.0267  -62.9810  -12.7095 O   0  0  0  0  0  0  0  0  0  0  0  0
  -37.7593  -62.6890  -10.8480 C   0  0  0  0  0  0  0  0  0  0  0  0
  -38.4839  -63.7630  -11.2849 O   0  0  0  0  0  0  0  0  0  0  0  0
  -37.5328  -62.8019   -9.3509 C   0  0  0  0  0  0  0  0  0  0  0  0
  -36.4243  -63.8111  -13.0156 H   0  0  0  0  0  0  0  0  0  0  0  0
  -38.0449  -64.5829  -11.0095 H   0  0  0  0  0  0  0  0  0  0  0  0
  -36.9548  -61.7793   -8.3532 N   0  0  0  0  0  0  0  0  0  0  0  0
  -35.8387  -61.5023   -7.6270 C   0  0  0  0  0  0  0  0  0  0  0  0
  -35.9536  -60.4113   -6.8993 N   0  0  0  0  0  0  0  0  0  0  0  0
  -37.2301  -59.9216   -7.1624 C   0  0  0  0  0  0  0  0  0  0  0  0
  -37.9980  -58.7607   -6.6964 C   0  0  0  0  0  0  0  0  0  0  0  0
  -37.5354  -57.8647   -5.7936 N   0  0  0  0  0  0  0  0  0  0  0  0
  -39.2803  -58.5931   -7.2055 N   0  0  0  0  0  0  0  0  0  0  0  0
  -39.7544  -59.4863   -8.0793 C   0  0  0  0  0  0  0  0  0  0  0  0
  -39.1265  -60.5987   -8.5649 N   0  0  0  0  0  0  0  0  0  0  0  0
  -37.8504  -60.7552   -8.0686 C   0  0  0  0  0  0  0  0  0  0  0  0
  -36.6299  -57.9647   -5.4203 H   0  0  0  0  0  0  0  0  0  0  0  0
  -38.1044  -57.1130   -5.5101 H   0  0  0  0  0  0  0  0  0  0  0  0
  -34.3840  -64.1496  -10.2989 C   0  0  0  0  0  0  0  0  0  0  0  0
  -33.6849  -62.9144  -10.1056 O   0  0  0  0  0  0  0  0  0  0  0  0
  -32.5113  -62.2437  -10.9659 P   0  0  0  0  0  0  0  0  0  0  0  0
  -33.0919  -61.2266  -11.8528 O   0  0  0  0  0  0  0  0  0  0  0  0
  -31.7697  -63.2957  -11.6134 O   0  0  0  0  0  0  0  0  0  0  0  0
  -31.0530  -62.9089  -12.1404 H   0  0  0  0  0  0  0  0  0  0  0  0
  -31.5036  -61.5322   -9.9149 O   0  0  0  0  0  0  0  0  0  0  0  0
  -29.9716  -61.7541   -9.5271 P   0  0  0  0  0  0  0  0  0  0  0  0
  -29.1364  -61.0582  -10.5229 O   0  0  0  0  0  0  0  0  0  0  0  0
  -29.7738  -63.2186   -9.4957 O   0  0  0  0  0  0  0  0  0  0  0  0
  -29.9454  -61.1330   -8.1949 O   0  0  0  0  0  0  0  0  0  0  0  0
  -28.8529  -63.4156   -9.2634 H   0  0  0  0  0  0  0  0  0  0  0  0
  -29.0503  -61.1957   -7.8264 H   0  0  0  0  0  0  0  0  0  0  0  0
 29 30  2  0  0  0
 29 31  1  0  0  0
 29 32  1  0  0  0
 29 28  1  0  0  0
 24 25  2  0  0  0
 24 26  1  0  0  0
 24 28  1  0  0  0
 24 23  1  0  0  0
 23 22  1  0  0  0
 22  1  1  0  0  0
  1  2  1  0  0  0
  1  3  1  0  0  0
  2  7  1  0  0  0
  3  4  1  0  0  0
  3  5  1  0  0  0
  5  6  1  0  0  0
  5  7  1  0  0  0
  7 10  1  0  0  0
 10 11  1  0  0  0
 10 19  1  0  0  0
 11 12  2  0  0  0
 12 13  1  0  0  0
 13 14  1  0  0  0
 13 19  2  0  0  0
 14 15  1  0  0  0
 14 16  2  0  0  0
 16 17  1  0  0  0
 17 18  2  0  0  0
 18 19  1  0  0  0
 31 33  1  0  0  0
 32 34  1  0  0  0
 26 27  1  0  0  0
  4  8  1  0  0  0
  6  9  1  0  0  0
 15 20  1  0  0  0
 15 21  1  0  0  0
M  END
> <minimizedAffinity>
-10.57127

$$$$
3K1J_ADP_A_642


 34 36  0  0  0  0  0  0  0  0999 V2000
  -31.1324  -62.8786  -11.9866 C   0  0  0  0  0  0  0  0  0  0  0  0
  -32.5339  -62.6627  -11.7900 O   0  0  0  0  0  0  0  0  0  0  0  0
  -30.7626  -63.3975  -10.5857 C   0  0  0  0  0  0  0  0  0  0  0  0
  -29.3681  -63.6378  -10.4875 O   0  0  0  0  0  0  0  0  0  0  0  0
  -31.4162  -62.3171   -9.7041 C   0  0  0  0  0  0  0  0  0  0  0  0
  -30.7738  -61.1223   -9.8746 O   0  0  0  0  0  0  0  0  0  0  0  0
  -32.7833  -62.2592  -10.3620 C   0  0  0  0  0  0  0  0  0  0  0  0
  -28.8835  -62.8341  -10.7328 H   0  0  0  0  0  0  0  0  0  0  0  0
  -30.7523  -60.8984  -10.8181 H   0  0  0  0  0  0  0  0  0  0  0  0
  -33.9612  -63.2509  -10.2957 N   0  0  0  0  0  0  0  0  0  0  0  0
  -34.3342  -64.5004  -10.6823 C   0  0  0  0  0  0  0  0  0  0  0  0
  -35.5577  -64.8125  -10.3100 N   0  0  0  0  0  0  0  0  0  0  0  0
  -36.0322  -63.6993   -9.6214 C   0  0  0  0  0  0  0  0  0  0  0  0
  -37.2967  -63.3712   -8.9520 C   0  0  0  0  0  0  0  0  0  0  0  0
  -38.3632  -64.2032   -8.9072 N   0  0  0  0  0  0  0  0  0  0  0  0
  -37.3985  -62.1233   -8.3488 N   0  0  0  0  0  0  0  0  0  0  0  0
  -36.3587  -61.2857   -8.4088 C   0  0  0  0  0  0  0  0  0  0  0  0
  -35.1502  -61.4918   -9.0126 N   0  0  0  0  0  0  0  0  0  0  0  0
  -35.0472  -62.7348   -9.5985 C   0  0  0  0  0  0  0  0  0  0  0  0
  -38.3125  -65.0917   -9.3282 H   0  0  0  0  0  0  0  0  0  0  0  0
  -39.1898  -63.9199   -8.4536 H   0  0  0  0  0  0  0  0  0  0  0  0
  -31.1447  -63.8778  -13.0684 C   0  0  0  0  0  0  0  0  0  0  0  0
  -29.8690  -64.4343  -13.4076 O   0  0  0  0  0  0  0  0  0  0  0  0
  -29.0954  -64.4699  -14.8103 P   0  0  0  0  0  0  0  0  0  0  0  0
  -29.2233  -63.1579  -15.4587 O   0  0  0  0  0  0  0  0  0  0  0  0
  -29.5826  -65.5964  -15.5651 O   0  0  0  0  0  0  0  0  0  0  0  0
  -29.1252  -65.6352  -16.4196 H   0  0  0  0  0  0  0  0  0  0  0  0
  -27.5353  -64.7600  -14.4812 O   0  0  0  0  0  0  0  0  0  0  0  0
  -26.4026  -63.9578  -13.6937 P   0  0  0  0  0  0  0  0  0  0  0  0
  -25.2962  -64.8869  -13.4004 O   0  0  0  0  0  0  0  0  0  0  0  0
  -27.0623  -63.4105  -12.4895 O   0  0  0  0  0  0  0  0  0  0  0  0
  -26.0653  -62.9323  -14.6915 O   0  0  0  0  0  0  0  0  0  0  0  0
  -26.4171  -62.9086  -11.9672 H   0  0  0  0  0  0  0  0  0  0  0  0
  -25.3695  -62.3553  -14.3397 H   0  0  0  0  0  0  0  0  0  0  0  0
 29 30  2  0  0  0
 29 31  1  0  0  0
 29 32  1  0  0  0
 29 28  1  0  0  0
 24 25  2  0  0  0
 24 26  1  0  0  0
 24 28  1  0  0  0
 24 23  1  0  0  0
 23 22  1  0  0  0
 22  1  1  0  0  0
  1  2  1  0  0  0
  1  3  1  0  0  0
  2  7  1  0  0  0
  3  4  1  0  0  0
  3  5  1  0  0  0
  5  6  1  0  0  0
  5  7  1  0  0  0
  7 10  1  0  0  0
 10 11  1  0  0  0
 10 19  1  0  0  0
 11 12  2  0  0  0
 12 13  1  0  0  0
 13 14  1  0  0  0
 13 19  2  0  0  0
 14 15  1  0  0  0
 14 16  2  0  0  0
 16 17  1  0  0  0
 17 18  2  0  0  0
 18 19  1  0  0  0
 31 33  1  0  0  0
 32 34  1  0  0  0
 26 27  1  0  0  0
  4  8  1  0  0  0
  6  9  1  0  0  0
 15 20  1  0  0  0
 15 21  1  0  0  0
M  END
> <minimizedAffinity>
-9.66997

$$$$
3K1J_ADP_A_642


 34 36  0  0  0  0  0  0  0  0999 V2000
  -32.4200  -63.4005  -10.3068 C   0  0  0  0  0  0  0  0  0  0  0  0
  -31.3612  -64.2702  -10.7216 O   0  0  0  0  0  0  0  0  0  0  0  0
  -32.0936  -62.1775  -11.1822 C   0  0  0  0  0  0  0  0  0  0  0  0
  -32.9870  -61.1095  -10.9119 O   0  0  0  0  0  0  0  0  0  0  0  0
  -30.5917  -62.0118  -10.8848 C   0  0  0  0  0  0  0  0  0  0  0  0
  -30.4110  -61.6359   -9.5827 O   0  0  0  0  0  0  0  0  0  0  0  0
  -30.1463  -63.4519  -11.0661 C   0  0  0  0  0  0  0  0  0  0  0  0
  -32.9737  -60.9092   -9.9629 H   0  0  0  0  0  0  0  0  0  0  0  0
  -30.8591  -62.2676   -8.9987 H   0  0  0  0  0  0  0  0  0  0  0  0
  -29.9621  -64.2811  -12.3521 N   0  0  0  0  0  0  0  0  0  0  0  0
  -30.5372  -65.2778  -13.0771 C   0  0  0  0  0  0  0  0  0  0  0  0
  -29.8595  -65.5832  -14.1636 N   0  0  0  0  0  0  0  0  0  0  0  0
  -28.7610  -64.7278  -14.1693 C   0  0  0  0  0  0  0  0  0  0  0  0
  -27.6200  -64.5319  -15.0718 C   0  0  0  0  0  0  0  0  0  0  0  0
  -27.4080  -65.2667  -16.1885 N   0  0  0  0  0  0  0  0  0  0  0  0
  -26.7012  -63.5435  -14.7395 N   0  0  0  0  0  0  0  0  0  0  0  0
  -26.8897  -62.8290  -13.6258 C   0  0  0  0  0  0  0  0  0  0  0  0
  -27.9072  -62.9408  -12.7205 N   0  0  0  0  0  0  0  0  0  0  0  0
  -28.8237  -63.9125  -13.0593 C   0  0  0  0  0  0  0  0  0  0  0  0
  -28.0464  -65.9719  -16.4422 H   0  0  0  0  0  0  0  0  0  0  0  0
  -26.6154  -65.0961  -16.7469 H   0  0  0  0  0  0  0  0  0  0  0  0
  -33.6045  -64.1832  -10.6979 C   0  0  0  0  0  0  0  0  0  0  0  0
  -34.6510  -63.4406  -11.3347 O   0  0  0  0  0  0  0  0  0  0  0  0
  -36.1890  -63.2591  -10.9238 P   0  0  0  0  0  0  0  0  0  0  0  0
  -37.0122  -63.2724  -12.1405 O   0  0  0  0  0  0  0  0  0  0  0  0
  -36.2995  -62.0817  -10.1006 O   0  0  0  0  0  0  0  0  0  0  0  0
  -37.2255  -61.9545   -9.8410 H   0  0  0  0  0  0  0  0  0  0  0  0
  -36.5810  -64.5260   -9.9925 O   0  0  0  0  0  0  0  0  0  0  0  0
  -37.7451  -65.6167  -10.0402 P   0  0  0  0  0  0  0  0  0  0  0  0
  -37.1420  -66.9467   -9.8383 O   0  0  0  0  0  0  0  0  0  0  0  0
  -38.3996  -65.4475  -11.3547 O   0  0  0  0  0  0  0  0  0  0  0  0
  -38.5740  -65.1654   -8.9131 O   0  0  0  0  0  0  0  0  0  0  0  0
  -39.1217  -66.0893  -11.4414 H   0  0  0  0  0  0  0  0  0  0  0  0
  -39.3407  -65.7524   -8.8202 H   0  0  0  0  0  0  0  0  0  0  0  0
 29 30  2  0  0  0
 29 31  1  0  0  0
 29 32  1  0  0  0
 29 28  1  0  0  0
 24 25  2  0  0  0
 24 26  1  0  0  0
 24 28  1  0  0  0
 24 23  1  0  0  0
 23 22  1  0  0  0
 22  1  1  0  0  0
  1  2  1  0  0  0
  1  3  1  0  0  0
  2  7  1  0  0  0
  3  4  1  0  0  0
  3  5  1  0  0  0
  5  6  1  0  0  0
  5  7  1  0  0  0
  7 10  1  0  0  0
 10 11  1  0  0  0
 10 19  1  0  0  0
 11 12  2  0  0  0
 12 13  1  0  0  0
 13 14  1  0  0  0
 13 19  2  0  0  0
 14 15  1  0  0  0
 14 16  2  0  0  0
 16 17  1  0  0  0
 17 18  2  0  0  0
 18 19  1  0  0  0
 31 33  1  0  0  0
 32 34  1  0  0  0
 26 27  1  0  0  0
  4  8  1  0  0  0
  6  9  1  0  0  0
 15 20  1  0  0  0
 15 21  1  0  0  0
M  END
> <minimizedAffinity>
-9.52163

$$$$
3K1J_ADP_A_642


 34 36  0  0  0  0  0  0  0  0999 V2000
  -35.8152  -64.0791  -10.4141 C   0  0  0  0  0  0  0  0  0  0  0  0
  -36.2209  -63.6535   -9.1088 O   0  0  0  0  0  0  0  0  0  0  0  0
  -36.4046  -62.9258  -11.2453 C   0  0  0  0  0  0  0  0  0  0  0  0
  -36.1899  -63.1401  -12.6309 O   0  0  0  0  0  0  0  0  0  0  0  0
  -37.8410  -62.8856  -10.6915 C   0  0  0  0  0  0  0  0  0  0  0  0
  -38.5116  -64.0229  -11.0468 O   0  0  0  0  0  0  0  0  0  0  0  0
  -37.5311  -62.9198   -9.2056 C   0  0  0  0  0  0  0  0  0  0  0  0
  -36.5447  -64.0071  -12.8828 H   0  0  0  0  0  0  0  0  0  0  0  0
  -38.0038  -64.7994  -10.7639 H   0  0  0  0  0  0  0  0  0  0  0  0
  -36.9744  -61.8198   -8.2808 N   0  0  0  0  0  0  0  0  0  0  0  0
  -35.8595  -61.4638   -7.5879 C   0  0  0  0  0  0  0  0  0  0  0  0
  -36.0005  -60.3337   -6.9277 N   0  0  0  0  0  0  0  0  0  0  0  0
  -37.2947  -59.9009   -7.2037 C   0  0  0  0  0  0  0  0  0  0  0  0
  -38.0935  -58.7374   -6.8003 C   0  0  0  0  0  0  0  0  0  0  0  0
  -37.6493  -57.7731   -5.9608 N   0  0  0  0  0  0  0  0  0  0  0  0
  -39.3862  -58.6414   -7.3017 N   0  0  0  0  0  0  0  0  0  0  0  0
  -39.8417  -59.6015   -8.1123 C   0  0  0  0  0  0  0  0  0  0  0  0
  -39.1845  -60.7221   -8.5363 N   0  0  0  0  0  0  0  0  0  0  0  0
  -37.8987  -60.8080   -8.0482 C   0  0  0  0  0  0  0  0  0  0  0  0
  -36.7369  -57.8218   -5.5941 H   0  0  0  0  0  0  0  0  0  0  0  0
  -38.2385  -57.0231   -5.7169 H   0  0  0  0  0  0  0  0  0  0  0  0
  -34.3498  -64.0940  -10.2689 C   0  0  0  0  0  0  0  0  0  0  0  0
  -33.6262  -64.6399  -11.3782 O   0  0  0  0  0  0  0  0  0  0  0  0
  -32.1997  -64.2335  -11.9842 P   0  0  0  0  0  0  0  0  0  0  0  0
  -31.2590  -65.3420  -11.7734 O   0  0  0  0  0  0  0  0  0  0  0  0
  -31.8155  -62.9645  -11.4202 O   0  0  0  0  0  0  0  0  0  0  0  0
  -30.9524  -62.7007  -11.7757 H   0  0  0  0  0  0  0  0  0  0  0  0
  -32.4119  -63.9999  -13.5738 O   0  0  0  0  0  0  0  0  0  0  0  0
  -33.2274  -62.9334  -14.4365 P   0  0  0  0  0  0  0  0  0  0  0  0
  -33.5125  -61.7669  -13.5815 O   0  0  0  0  0  0  0  0  0  0  0  0
  -34.4360  -63.6405  -14.9101 O   0  0  0  0  0  0  0  0  0  0  0  0
  -32.2547  -62.6608  -15.5045 O   0  0  0  0  0  0  0  0  0  0  0  0
  -34.9751  -63.0369  -15.4448 H   0  0  0  0  0  0  0  0  0  0  0  0
  -32.6255  -62.0105  -16.1213 H   0  0  0  0  0  0  0  0  0  0  0  0
 29 30  2  0  0  0
 29 31  1  0  0  0
 29 32  1  0  0  0
 29 28  1  0  0  0
 24 25  2  0  0  0
 24 26  1  0  0  0
 24 28  1  0  0  0
 24 23  1  0  0  0
 23 22  1  0  0  0
 22  1  1  0  0  0
  1  2  1  0  0  0
  1  3  1  0  0  0
  2  7  1  0  0  0
  3  4  1  0  0  0
  3  5  1  0  0  0
  5  6  1  0  0  0
  5  7  1  0  0  0
  7 10  1  0  0  0
 10 11  1  0  0  0
 10 19  1  0  0  0
 11 12  2  0  0  0
 12 13  1  0  0  0
 13 14  1  0  0  0
 13 19  2  0  0  0
 14 15  1  0  0  0
 14 16  2  0  0  0
 16 17  1  0  0  0
 17 18  2  0  0  0
 18 19  1  0  0  0
 31 33  1  0  0  0
 32 34  1  0  0  0
 26 27  1  0  0  0
  4  8  1  0  0  0
  6  9  1  0  0  0
 15 20  1  0  0  0
 15 21  1  0  0  0
M  END
> <minimizedAffinity>
-9.48994

$$$$
3K1J_ADP_A_642


 34 36  0  0  0  0  0  0  0  0999 V2000
  -33.6582  -62.9919   -9.7481 C   0  0  0  0  0  0  0  0  0  0  0  0
  -34.5081  -62.8616   -8.6034 O   0  0  0  0  0  0  0  0  0  0  0  0
  -34.6652  -62.6139  -10.8488 C   0  0  0  0  0  0  0  0  0  0  0  0
  -34.0751  -62.7261  -12.1338 O   0  0  0  0  0  0  0  0  0  0  0  0
  -35.8500  -63.5217  -10.4697 C   0  0  0  0  0  0  0  0  0  0  0  0
  -35.5151  -64.8332  -10.6621 O   0  0  0  0  0  0  0  0  0  0  0  0
  -35.9181  -63.2259   -8.9820 C   0  0  0  0  0  0  0  0  0  0  0  0
  -33.7105  -63.6181  -12.2454 H   0  0  0  0  0  0  0  0  0  0  0  0
  -34.6980  -65.0325  -10.1789 H   0  0  0  0  0  0  0  0  0  0  0  0
  -36.4319  -61.9771   -8.2393 N   0  0  0  0  0  0  0  0  0  0  0  0
  -36.0724  -61.0680   -7.2937 C   0  0  0  0  0  0  0  0  0  0  0  0
  -37.0059  -60.1699   -7.0595 N   0  0  0  0  0  0  0  0  0  0  0  0
  -38.0578  -60.4960   -7.9114 C   0  0  0  0  0  0  0  0  0  0  0  0
  -39.3859  -59.9244   -8.1643 C   0  0  0  0  0  0  0  0  0  0  0  0
  -39.8827  -58.8522   -7.5045 N   0  0  0  0  0  0  0  0  0  0  0  0
  -40.1769  -60.5404   -9.1269 N   0  0  0  0  0  0  0  0  0  0  0  0
  -39.7040  -61.6143   -9.7666 C   0  0  0  0  0  0  0  0  0  0  0  0
  -38.4933  -62.2252   -9.5972 N   0  0  0  0  0  0  0  0  0  0  0  0
  -37.7059  -61.6046   -8.6517 C   0  0  0  0  0  0  0  0  0  0  0  0
  -39.3392  -58.4010   -6.8188 H   0  0  0  0  0  0  0  0  0  0  0  0
  -40.7876  -58.5235   -7.7102 H   0  0  0  0  0  0  0  0  0  0  0  0
  -32.6172  -61.9944   -9.4480 C   0  0  0  0  0  0  0  0  0  0  0  0
  -31.3554  -62.2079  -10.0917 O   0  0  0  0  0  0  0  0  0  0  0  0
  -29.8678  -61.9047   -9.5795 P   0  0  0  0  0  0  0  0  0  0  0  0
  -29.9403  -61.2353   -8.2738 O   0  0  0  0  0  0  0  0  0  0  0  0
  -29.1712  -61.1882  -10.6175 O   0  0  0  0  0  0  0  0  0  0  0  0
  -28.2665  -60.9949  -10.3258 H   0  0  0  0  0  0  0  0  0  0  0  0
  -29.1257  -63.3356   -9.4125 O   0  0  0  0  0  0  0  0  0  0  0  0
  -27.6186  -63.8286   -9.5933 P   0  0  0  0  0  0  0  0  0  0  0  0
  -27.5414  -65.2421   -9.1819 O   0  0  0  0  0  0  0  0  0  0  0  0
  -26.7969  -62.9175   -8.7690 O   0  0  0  0  0  0  0  0  0  0  0  0
  -27.4468  -63.6227  -11.0387 O   0  0  0  0  0  0  0  0  0  0  0  0
  -25.8633  -63.1706   -8.8401 H   0  0  0  0  0  0  0  0  0  0  0  0
  -26.5507  -63.8878  -11.2988 H   0  0  0  0  0  0  0  0  0  0  0  0
 29 30  2  0  0  0
 29 31  1  0  0  0
 29 32  1  0  0  0
 29 28  1  0  0  0
 24 25  2  0  0  0
 24 26  1  0  0  0
 24 28  1  0  0  0
 24 23  1  0  0  0
 23 22  1  0  0  0
 22  1  1  0  0  0
  1  2  1  0  0  0
  1  3  1  0  0  0
  2  7  1  0  0  0
  3  4  1  0  0  0
  3  5  1  0  0  0
  5  6  1  0  0  0
  5  7  1  0  0  0
  7 10  1  0  0  0
 10 11  1  0  0  0
 10 19  1  0  0  0
 11 12  2  0  0  0
 12 13  1  0  0  0
 13 14  1  0  0  0
 13 19  2  0  0  0
 14 15  1  0  0  0
 14 16  2  0  0  0
 16 17  1  0  0  0
 17 18  2  0  0  0
 18 19  1  0  0  0
 31 33  1  0  0  0
 32 34  1  0  0  0
 26 27  1  0  0  0
  4  8  1  0  0  0
  6  9  1  0  0  0
 15 20  1  0  0  0
 15 21  1  0  0  0
M  END
> <minimizedAffinity>
-9.45994

$$$$
3K1J_ADP_A_642


 34 36  0  0  0  0  0  0  0  0999 V2000
  -33.7665  -61.8378  -11.3048 C   0  0  0  0  0  0  0  0  0  0  0  0
  -32.3508  -62.0485  -11.2783 O   0  0  0  0  0  0  0  0  0  0  0  0
  -34.1635  -62.9456  -12.2966 C   0  0  0  0  0  0  0  0  0  0  0  0
  -35.5576  -62.9157  -12.5564 O   0  0  0  0  0  0  0  0  0  0  0  0
  -33.1670  -62.6713  -13.4382 C   0  0  0  0  0  0  0  0  0  0  0  0
  -33.4551  -61.4746  -14.0334 O   0  0  0  0  0  0  0  0  0  0  0  0
  -31.8922  -62.5418  -12.6238 C   0  0  0  0  0  0  0  0  0  0  0  0
  -35.8112  -62.0295  -12.8585 H   0  0  0  0  0  0  0  0  0  0  0  0
  -33.4820  -60.7768  -13.3601 H   0  0  0  0  0  0  0  0  0  0  0  0
  -31.0423  -63.6235  -11.9289 N   0  0  0  0  0  0  0  0  0  0  0  0
  -30.9506  -64.9697  -11.7579 C   0  0  0  0  0  0  0  0  0  0  0  0
  -29.9394  -65.3255  -10.9938 N   0  0  0  0  0  0  0  0  0  0  0  0
  -29.3079  -64.1374  -10.6357 C   0  0  0  0  0  0  0  0  0  0  0  0
  -28.1385  -63.8069   -9.8123 C   0  0  0  0  0  0  0  0  0  0  0  0
  -27.3930  -64.7279   -9.1585 N   0  0  0  0  0  0  0  0  0  0  0  0
  -27.7985  -62.4648   -9.6901 N   0  0  0  0  0  0  0  0  0  0  0  0
  -28.5434  -61.5464  -10.3127 C   0  0  0  0  0  0  0  0  0  0  0  0
  -29.6497  -61.7501  -11.0888 N   0  0  0  0  0  0  0  0  0  0  0  0
  -29.9768  -63.0824  -11.2190 C   0  0  0  0  0  0  0  0  0  0  0  0
  -27.6165  -65.6839   -9.2314 H   0  0  0  0  0  0  0  0  0  0  0  0
  -26.6271  -64.4419   -8.6099 H   0  0  0  0  0  0  0  0  0  0  0  0
  -34.1182  -62.0708   -9.8939 C   0  0  0  0  0  0  0  0  0  0  0  0
  -35.4282  -61.6399   -9.5061 O   0  0  0  0  0  0  0  0  0  0  0  0
  -36.2646  -61.9417   -8.1732 P   0  0  0  0  0  0  0  0  0  0  0  0
  -37.2616  -60.8791   -7.9853 O   0  0  0  0  0  0  0  0  0  0  0  0
  -35.3335  -62.1314   -7.0902 O   0  0  0  0  0  0  0  0  0  0  0  0
  -35.8217  -62.3156   -6.2725 H   0  0  0  0  0  0  0  0  0  0  0  0
  -37.0202  -63.3571   -8.4009 O   0  0  0  0  0  0  0  0  0  0  0  0
  -37.4700  -64.1761   -9.6947 P   0  0  0  0  0  0  0  0  0  0  0  0
  -36.2918  -64.8848  -10.2268 O   0  0  0  0  0  0  0  0  0  0  0  0
  -38.0401  -63.1775  -10.6234 O   0  0  0  0  0  0  0  0  0  0  0  0
  -38.4793  -65.0667   -9.1038 O   0  0  0  0  0  0  0  0  0  0  0  0
  -38.3331  -63.6208  -11.4349 H   0  0  0  0  0  0  0  0  0  0  0  0
  -38.8493  -65.6390   -9.7941 H   0  0  0  0  0  0  0  0  0  0  0  0
 29 30  2  0  0  0
 29 31  1  0  0  0
 29 32  1  0  0  0
 29 28  1  0  0  0
 24 25  2  0  0  0
 24 26  1  0  0  0
 24 28  1  0  0  0
 24 23  1  0  0  0
 23 22  1  0  0  0
 22  1  1  0  0  0
  1  2  1  0  0  0
  1  3  1  0  0  0
  2  7  1  0  0  0
  3  4  1  0  0  0
  3  5  1  0  0  0
  5  6  1  0  0  0
  5  7  1  0  0  0
  7 10  1  0  0  0
 10 11  1  0  0  0
 10 19  1  0  0  0
 11 12  2  0  0  0
 12 13  1  0  0  0
 13 14  1  0  0  0
 13 19  2  0  0  0
 14 15  1  0  0  0
 14 16  2  0  0  0
 16 17  1  0  0  0
 17 18  2  0  0  0
 18 19  1  0  0  0
 31 33  1  0  0  0
 32 34  1  0  0  0
 26 27  1  0  0  0
  4  8  1  0  0  0
  6  9  1  0  0  0
 15 20  1  0  0  0
 15 21  1  0  0  0
M  END
> <minimizedAffinity>
-9.21599

$$$$
3K1J_ADP_A_642


 34 36  0  0  0  0  0  0  0  0999 V2000
  -31.2071  -62.8827  -11.8534 C   0  0  0  0  0  0  0  0  0  0  0  0
  -32.6035  -62.6528  -11.6377 O   0  0  0  0  0  0  0  0  0  0  0  0
  -30.8438  -63.4987  -10.4907 C   0  0  0  0  0  0  0  0  0  0  0  0
  -29.4541  -63.7719  -10.4137 O   0  0  0  0  0  0  0  0  0  0  0  0
  -31.4737  -62.4655   -9.5382 C   0  0  0  0  0  0  0  0  0  0  0  0
  -30.8084  -61.2748   -9.6331 O   0  0  0  0  0  0  0  0  0  0  0  0
  -32.8412  -62.3383  -10.1856 C   0  0  0  0  0  0  0  0  0  0  0  0
  -28.9544  -62.9636  -10.6081 H   0  0  0  0  0  0  0  0  0  0  0  0
  -30.7850  -60.9905  -10.5603 H   0  0  0  0  0  0  0  0  0  0  0  0
  -34.0381  -63.3091  -10.1793 N   0  0  0  0  0  0  0  0  0  0  0  0
  -34.4258  -64.5366  -10.6184 C   0  0  0  0  0  0  0  0  0  0  0  0
  -35.6624  -64.8385  -10.2827 N   0  0  0  0  0  0  0  0  0  0  0  0
  -36.1308  -63.7418   -9.5641 C   0  0  0  0  0  0  0  0  0  0  0  0
  -37.4029  -63.4138   -8.9092 C   0  0  0  0  0  0  0  0  0  0  0  0
  -38.4852  -64.2264   -8.9163 N   0  0  0  0  0  0  0  0  0  0  0  0
  -37.4945  -62.1866   -8.2634 N   0  0  0  0  0  0  0  0  0  0  0  0
  -36.4385  -61.3674   -8.2718 C   0  0  0  0  0  0  0  0  0  0  0  0
  -35.2215  -61.5747   -8.8578 N   0  0  0  0  0  0  0  0  0  0  0  0
  -35.1290  -62.7977   -9.4862 C   0  0  0  0  0  0  0  0  0  0  0  0
  -38.4419  -65.1001   -9.3681 H   0  0  0  0  0  0  0  0  0  0  0  0
  -39.3158  -63.9438   -8.4697 H   0  0  0  0  0  0  0  0  0  0  0  0
  -31.2418  -63.8090  -12.9978 C   0  0  0  0  0  0  0  0  0  0  0  0
  -31.5532  -63.2137  -14.2630 O   0  0  0  0  0  0  0  0  0  0  0  0
  -32.5290  -63.7153  -15.4307 P   0  0  0  0  0  0  0  0  0  0  0  0
  -32.2477  -65.1294  -15.7125 O   0  0  0  0  0  0  0  0  0  0  0  0
  -32.3989  -62.8121  -16.5457 O   0  0  0  0  0  0  0  0  0  0  0  0
  -32.9832  -63.0996  -17.2646 H   0  0  0  0  0  0  0  0  0  0  0  0
  -34.0442  -63.5662  -14.8755 O   0  0  0  0  0  0  0  0  0  0  0  0
  -34.9295  -62.3291  -14.3931 P   0  0  0  0  0  0  0  0  0  0  0  0
  -35.7502  -62.7653  -13.2488 O   0  0  0  0  0  0  0  0  0  0  0  0
  -35.7169  -61.9149  -15.5735 O   0  0  0  0  0  0  0  0  0  0  0  0
  -33.8716  -61.3740  -14.0327 O   0  0  0  0  0  0  0  0  0  0  0  0
  -36.2788  -61.1599  -15.3385 H   0  0  0  0  0  0  0  0  0  0  0  0
  -34.2740  -60.5513  -13.7132 H   0  0  0  0  0  0  0  0  0  0  0  0
 29 30  2  0  0  0
 29 31  1  0  0  0
 29 32  1  0  0  0
 29 28  1  0  0  0
 24 25  2  0  0  0
 24 26  1  0  0  0
 24 28  1  0  0  0
 24 23  1  0  0  0
 23 22  1  0  0  0
 22  1  1  0  0  0
  1  2  1  0  0  0
  1  3  1  0  0  0
  2  7  1  0  0  0
  3  4  1  0  0  0
  3  5  1  0  0  0
  5  6  1  0  0  0
  5  7  1  0  0  0
  7 10  1  0  0  0
 10 11  1  0  0  0
 10 19  1  0  0  0
 11 12  2  0  0  0
 12 13  1  0  0  0
 13 14  1  0  0  0
 13 19  2  0  0  0
 14 15  1  0  0  0
 14 16  2  0  0  0
 16 17  1  0  0  0
 17 18  2  0  0  0
 18 19  1  0  0  0
 31 33  1  0  0  0
 32 34  1  0  0  0
 26 27  1  0  0  0
  4  8  1  0  0  0
  6  9  1  0  0  0
 15 20  1  0  0  0
 15 21  1  0  0  0
M  END
> <minimizedAffinity>
-9.19966

$$$$
3K1J_ADP_A_642


 34 36  0  0  0  0  0  0  0  0999 V2000
  -32.7768  -63.4300  -10.0336 C   0  0  0  0  0  0  0  0  0  0  0  0
  -31.7092  -64.2651  -10.4942 O   0  0  0  0  0  0  0  0  0  0  0  0
  -32.4214  -62.1354  -10.7861 C   0  0  0  0  0  0  0  0  0  0  0  0
  -33.3190  -61.0909  -10.4469 O   0  0  0  0  0  0  0  0  0  0  0  0
  -30.9283  -62.0055  -10.4322 C   0  0  0  0  0  0  0  0  0  0  0  0
  -30.7844  -61.7487   -9.0970 O   0  0  0  0  0  0  0  0  0  0  0  0
  -30.4823  -63.4262  -10.7290 C   0  0  0  0  0  0  0  0  0  0  0  0
  -33.3327  -60.9764   -9.4838 H   0  0  0  0  0  0  0  0  0  0  0  0
  -31.2512  -62.4276   -8.5850 H   0  0  0  0  0  0  0  0  0  0  0  0
  -30.2634  -64.1379  -12.0783 N   0  0  0  0  0  0  0  0  0  0  0  0
  -30.8389  -65.0345  -12.9238 C   0  0  0  0  0  0  0  0  0  0  0  0
  -30.1169  -65.2667  -13.9998 N   0  0  0  0  0  0  0  0  0  0  0  0
  -28.9857  -64.4657  -13.8685 C   0  0  0  0  0  0  0  0  0  0  0  0
  -27.7909  -64.2380  -14.6903 C   0  0  0  0  0  0  0  0  0  0  0  0
  -27.5495  -64.8731  -15.8608 N   0  0  0  0  0  0  0  0  0  0  0  0
  -26.8517  -63.3284  -14.2190 N   0  0  0  0  0  0  0  0  0  0  0  0
  -27.0704  -62.7143  -13.0523 C   0  0  0  0  0  0  0  0  0  0  0  0
  -28.1387  -62.8642  -12.2134 N   0  0  0  0  0  0  0  0  0  0  0  0
  -29.0746  -63.7567  -12.6895 C   0  0  0  0  0  0  0  0  0  0  0  0
  -28.2016  -65.5213  -16.2128 H   0  0  0  0  0  0  0  0  0  0  0  0
  -26.7218  -64.6870  -16.3603 H   0  0  0  0  0  0  0  0  0  0  0  0
  -33.9520  -64.1678  -10.5271 C   0  0  0  0  0  0  0  0  0  0  0  0
  -34.7563  -63.4739  -11.4881 O   0  0  0  0  0  0  0  0  0  0  0  0
  -36.2328  -62.8658  -11.3560 P   0  0  0  0  0  0  0  0  0  0  0  0
  -37.1799  -63.9621  -11.1128 O   0  0  0  0  0  0  0  0  0  0  0  0
  -36.4918  -62.0550  -12.5186 O   0  0  0  0  0  0  0  0  0  0  0  0
  -37.3831  -61.6771  -12.4571 H   0  0  0  0  0  0  0  0  0  0  0  0
  -36.2199  -61.8696  -10.0778 O   0  0  0  0  0  0  0  0  0  0  0  0
  -36.3788  -62.0855   -8.5046 P   0  0  0  0  0  0  0  0  0  0  0  0
  -35.0388  -62.0322   -7.8923 O   0  0  0  0  0  0  0  0  0  0  0  0
  -37.0604  -63.3874   -8.3453 O   0  0  0  0  0  0  0  0  0  0  0  0
  -37.2301  -60.9357   -8.1665 O   0  0  0  0  0  0  0  0  0  0  0  0
  -37.1852  -63.5736   -7.4016 H   0  0  0  0  0  0  0  0  0  0  0  0
  -37.4138  -60.9384   -7.2141 H   0  0  0  0  0  0  0  0  0  0  0  0
 29 30  2  0  0  0
 29 31  1  0  0  0
 29 32  1  0  0  0
 29 28  1  0  0  0
 24 25  2  0  0  0
 24 26  1  0  0  0
 24 28  1  0  0  0
 24 23  1  0  0  0
 23 22  1  0  0  0
 22  1  1  0  0  0
  1  2  1  0  0  0
  1  3  1  0  0  0
  2  7  1  0  0  0
  3  4  1  0  0  0
  3  5  1  0  0  0
  5  6  1  0  0  0
  5  7  1  0  0  0
  7 10  1  0  0  0
 10 11  1  0  0  0
 10 19  1  0  0  0
 11 12  2  0  0  0
 12 13  1  0  0  0
 13 14  1  0  0  0
 13 19  2  0  0  0
 14 15  1  0  0  0
 14 16  2  0  0  0
 16 17  1  0  0  0
 17 18  2  0  0  0
 18 19  1  0  0  0
 31 33  1  0  0  0
 32 34  1  0  0  0
 26 27  1  0  0  0
  4  8  1  0  0  0
  6  9  1  0  0  0
 15 20  1  0  0  0
 15 21  1  0  0  0
M  END
> <minimizedAffinity>
-9.16649

$$$$
3K1J_ADP_A_642


 34 36  0  0  0  0  0  0  0  0999 V2000
  -30.1933  -63.3589  -11.5703 C   0  0  0  0  0  0  0  0  0  0  0  0
  -31.5319  -62.8620  -11.6747 O   0  0  0  0  0  0  0  0  0  0  0  0
  -30.0224  -63.2920  -10.0423 C   0  0  0  0  0  0  0  0  0  0  0  0
  -28.7137  -63.6855   -9.6624 O   0  0  0  0  0  0  0  0  0  0  0  0
  -30.4977  -61.8529   -9.7690 C   0  0  0  0  0  0  0  0  0  0  0  0
  -29.6183  -60.9583  -10.3130 O   0  0  0  0  0  0  0  0  0  0  0  0
  -31.7820  -61.8618  -10.5787 C   0  0  0  0  0  0  0  0  0  0  0  0
  -28.0629  -63.1470  -10.1392 H   0  0  0  0  0  0  0  0  0  0  0  0
  -29.4943  -61.1584  -11.2541 H   0  0  0  0  0  0  0  0  0  0  0  0
  -33.1374  -62.5342  -10.2852 N   0  0  0  0  0  0  0  0  0  0  0  0
  -33.8066  -63.2235   -9.3224 C   0  0  0  0  0  0  0  0  0  0  0  0
  -35.0256  -63.5642   -9.6841 N   0  0  0  0  0  0  0  0  0  0  0  0
  -35.1851  -63.0623  -10.9729 C   0  0  0  0  0  0  0  0  0  0  0  0
  -36.2787  -63.0822  -11.9518 C   0  0  0  0  0  0  0  0  0  0  0  0
  -37.4670  -63.6948  -11.7414 N   0  0  0  0  0  0  0  0  0  0  0  0
  -36.0621  -62.4470  -13.1689 N   0  0  0  0  0  0  0  0  0  0  0  0
  -34.8829  -61.8600  -13.3948 C   0  0  0  0  0  0  0  0  0  0  0  0
  -33.8046  -61.7956  -12.5577 N   0  0  0  0  0  0  0  0  0  0  0  0
  -34.0268  -62.4147  -11.3467 C   0  0  0  0  0  0  0  0  0  0  0  0
  -37.6412  -64.1507  -10.8863 H   0  0  0  0  0  0  0  0  0  0  0  0
  -38.1572  -63.6847  -12.4433 H   0  0  0  0  0  0  0  0  0  0  0  0
  -30.3403  -64.7045  -12.1505 C   0  0  0  0  0  0  0  0  0  0  0  0
  -30.4959  -64.7481  -13.5738 O   0  0  0  0  0  0  0  0  0  0  0  0
  -29.5250  -65.3385  -14.7035 P   0  0  0  0  0  0  0  0  0  0  0  0
  -29.8908  -64.7529  -16.0001 O   0  0  0  0  0  0  0  0  0  0  0  0
  -29.5668  -66.7768  -14.6268 O   0  0  0  0  0  0  0  0  0  0  0  0
  -28.9841  -67.1537  -15.3044 H   0  0  0  0  0  0  0  0  0  0  0  0
  -28.0182  -64.8876  -14.3129 O   0  0  0  0  0  0  0  0  0  0  0  0
  -27.2493  -63.4893  -14.3015 P   0  0  0  0  0  0  0  0  0  0  0  0
  -26.0780  -63.5976  -15.1901 O   0  0  0  0  0  0  0  0  0  0  0  0
  -26.9078  -63.2308  -12.8868 O   0  0  0  0  0  0  0  0  0  0  0  0
  -28.3043  -62.6054  -14.8181 O   0  0  0  0  0  0  0  0  0  0  0  0
  -26.4349  -62.3868  -12.8173 H   0  0  0  0  0  0  0  0  0  0  0  0
  -27.9694  -61.6963  -14.8668 H   0  0  0  0  0  0  0  0  0  0  0  0
 29 30  2  0  0  0
 29 31  1  0  0  0
 29 32  1  0  0  0
 29 28  1  0  0  0
 24 25  2  0  0  0
 24 26  1  0  0  0
 24 28  1  0  0  0
 24 23  1  0  0  0
 23 22  1  0  0  0
 22  1  1  0  0  0
  1  2  1  0  0  0
  1  3  1  0  0  0
  2  7  1  0  0  0
  3  4  1  0  0  0
  3  5  1  0  0  0
  5  6  1  0  0  0
  5  7  1  0  0  0
  7 10  1  0  0  0
 10 11  1  0  0  0
 10 19  1  0  0  0
 11 12  2  0  0  0
 12 13  1  0  0  0
 13 14  1  0  0  0
 13 19  2  0  0  0
 14 15  1  0  0  0
 14 16  2  0  0  0
 16 17  1  0  0  0
 17 18  2  0  0  0
 18 19  1  0  0  0
 31 33  1  0  0  0
 32 34  1  0  0  0
 26 27  1  0  0  0
  4  8  1  0  0  0
  6  9  1  0  0  0
 15 20  1  0  0  0
 15 21  1  0  0  0
M  END
> <minimizedAffinity>
-8.63975

$$$$
3K1J_ADP_A_642


 34 36  0  0  0  0  0  0  0  0999 V2000
  -34.3502  -61.9659  -12.1410 C   0  0  0  0  0  0  0  0  0  0  0  0
  -33.0580  -62.2858  -12.6674 O   0  0  0  0  0  0  0  0  0  0  0  0
  -35.2013  -62.9589  -12.9522 C   0  0  0  0  0  0  0  0  0  0  0  0
  -36.5798  -62.8020  -12.6570 O   0  0  0  0  0  0  0  0  0  0  0  0
  -34.6868  -62.6731  -14.3752 C   0  0  0  0  0  0  0  0  0  0  0  0
  -35.0559  -61.4148  -14.7625 O   0  0  0  0  0  0  0  0  0  0  0  0
  -33.1929  -62.7058  -14.1060 C   0  0  0  0  0  0  0  0  0  0  0  0
  -36.8380  -61.8781  -12.8005 H   0  0  0  0  0  0  0  0  0  0  0  0
  -34.7565  -60.7719  -14.1007 H   0  0  0  0  0  0  0  0  0  0  0  0
  -32.2573  -63.9005  -13.8368 N   0  0  0  0  0  0  0  0  0  0  0  0
  -32.0539  -64.9297  -12.9712 C   0  0  0  0  0  0  0  0  0  0  0  0
  -31.0088  -65.6673  -13.2822 N   0  0  0  0  0  0  0  0  0  0  0  0
  -30.4822  -65.0973  -14.4382 C   0  0  0  0  0  0  0  0  0  0  0  0
  -29.3377  -65.4074  -15.3035 C   0  0  0  0  0  0  0  0  0  0  0  0
  -28.4752  -66.4252  -15.0757 N   0  0  0  0  0  0  0  0  0  0  0  0
  -29.1277  -64.5896  -16.4074 N   0  0  0  0  0  0  0  0  0  0  0  0
  -29.9603  -63.5675  -16.6268 C   0  0  0  0  0  0  0  0  0  0  0  0
  -31.0413  -63.1918  -15.8798 N   0  0  0  0  0  0  0  0  0  0  0  0
  -31.2550  -64.0122  -14.7934 C   0  0  0  0  0  0  0  0  0  0  0  0
  -28.6056  -67.0165  -14.2994 H   0  0  0  0  0  0  0  0  0  0  0  0
  -27.7174  -66.5743  -15.6863 H   0  0  0  0  0  0  0  0  0  0  0  0
  -34.1654  -62.2811  -10.7144 C   0  0  0  0  0  0  0  0  0  0  0  0
  -35.0892  -63.2299  -10.1682 O   0  0  0  0  0  0  0  0  0  0  0  0
  -36.3911  -63.0033   -9.2622 P   0  0  0  0  0  0  0  0  0  0  0  0
  -37.2641  -62.0213   -9.9192 O   0  0  0  0  0  0  0  0  0  0  0  0
  -35.9595  -62.6705   -7.9284 O   0  0  0  0  0  0  0  0  0  0  0  0
  -36.7351  -62.5292   -7.3633 H   0  0  0  0  0  0  0  0  0  0  0  0
  -37.1556  -64.4293   -9.1700 O   0  0  0  0  0  0  0  0  0  0  0  0
  -37.4553  -65.5942  -10.2188 P   0  0  0  0  0  0  0  0  0  0  0  0
  -37.8823  -64.9765  -11.4874 O   0  0  0  0  0  0  0  0  0  0  0  0
  -38.4862  -66.4457   -9.5887 O   0  0  0  0  0  0  0  0  0  0  0  0
  -36.1328  -66.2326  -10.2871 O   0  0  0  0  0  0  0  0  0  0  0  0
  -38.7103  -67.1770  -10.1852 H   0  0  0  0  0  0  0  0  0  0  0  0
  -36.1658  -66.9794  -10.9052 H   0  0  0  0  0  0  0  0  0  0  0  0
 29 30  2  0  0  0
 29 31  1  0  0  0
 29 32  1  0  0  0
 29 28  1  0  0  0
 24 25  2  0  0  0
 24 26  1  0  0  0
 24 28  1  0  0  0
 24 23  1  0  0  0
 23 22  1  0  0  0
 22  1  1  0  0  0
  1  2  1  0  0  0
  1  3  1  0  0  0
  2  7  1  0  0  0
  3  4  1  0  0  0
  3  5  1  0  0  0
  5  6  1  0  0  0
  5  7  1  0  0  0
  7 10  1  0  0  0
 10 11  1  0  0  0
 10 19  1  0  0  0
 11 12  2  0  0  0
 12 13  1  0  0  0
 13 14  1  0  0  0
 13 19  2  0  0  0
 14 15  1  0  0  0
 14 16  2  0  0  0
 16 17  1  0  0  0
 17 18  2  0  0  0
 18 19  1  0  0  0
 31 33  1  0  0  0
 32 34  1  0  0  0
 26 27  1  0  0  0
  4  8  1  0  0  0
  6  9  1  0  0  0
 15 20  1  0  0  0
 15 21  1  0  0  0
M  END
> <minimizedAffinity>
-8.53633

$$$$
