2QI6_MZ8_A_200


 41 44  0  0  0  0  0  0  0  0999 V2000
   20.1493   29.4704   15.3903 C   0  0  0  0  0  0  0  0  0  0  0  0
   20.1154   28.2980   16.2233 O   0  0  0  0  0  0  0  0  0  0  0  0
   19.2040   27.9716   16.2854 H   0  0  0  0  0  0  0  0  0  0  0  0
   19.2932   30.5863   15.9954 C   0  0  0  0  0  0  0  0  0  0  0  0
   19.6349   31.9046   15.4159 N   0  0  0  0  0  0  0  0  0  0  0  0
   18.9111   33.5691   13.8105 O   0  0  0  0  0  0  0  0  0  0  0  0
   18.3525   32.6766   14.7739 S   0  0  0  0  0  0  0  0  0  0  0  0
   17.5318   31.7049   14.1089 O   0  0  0  0  0  0  0  0  0  0  0  0
   17.4999   33.4853   15.9124 C   0  0  0  0  0  0  0  0  0  0  0  0
   17.8611   34.7278   16.4792 C   0  0  0  0  0  0  0  0  0  0  0  0
   17.0862   35.3508   17.4876 C   0  0  0  0  0  0  0  0  0  0  0  0
   17.4288   36.8448   18.2439 S   0  0  0  0  0  0  0  0  0  0  0  0
   15.9813   36.5960   19.1721 C   0  0  0  0  0  0  0  0  0  0  0  0
   15.3217   35.4436   18.9154 N   0  0  0  0  0  0  0  0  0  0  0  0
   15.9288   34.7108   17.9444 C   0  0  0  0  0  0  0  0  0  0  0  0
   15.5600   33.4889   17.3941 C   0  0  0  0  0  0  0  0  0  0  0  0
   16.3222   32.8947   16.3888 C   0  0  0  0  0  0  0  0  0  0  0  0
   20.4277   32.7553   16.3364 C   0  0  0  0  0  0  0  0  0  0  0  0
   21.9300   32.5991   16.0650 C   0  0  0  0  0  0  0  0  0  0  0  0
   22.3568   33.1970   14.7246 C   0  0  0  0  0  0  0  0  0  0  0  0
   22.7128   33.1938   17.2306 C   0  0  0  0  0  0  0  0  0  0  0  0
   19.6848   29.1487   13.9799 C   0  0  0  0  0  0  0  0  0  0  0  0
   20.6256   28.2836   13.2814 N   0  0  0  0  0  0  0  0  0  0  0  0
   21.5256   28.6867   12.3925 C   0  0  0  0  0  0  0  0  0  0  0  0
   21.7329   29.8466   12.0611 O   0  0  0  0  0  0  0  0  0  0  0  0
   20.5913   27.3210   13.4851 H   0  0  0  0  0  0  0  0  0  0  0  0
   22.2855   27.6159   11.6824 C   0  0  0  0  0  0  0  0  0  0  0  0
   23.6695   27.5634   11.8848 C   0  0  0  0  0  0  0  0  0  0  0  0
   24.4498   26.5751   11.2863 C   0  0  0  0  0  0  0  0  0  0  0  0
   23.8346   25.6116   10.5016 C   0  0  0  0  0  0  0  0  0  0  0  0
   22.4515   25.6561   10.3253 C   0  0  0  0  0  0  0  0  0  0  0  0
   21.8505   24.7210    9.5525 O   0  0  0  0  0  0  0  0  0  0  0  0
   21.6732   26.6485   10.9100 C   0  0  0  0  0  0  0  0  0  0  0  0
   22.3614   24.0456    9.1515 H   0  0  0  0  0  0  0  0  0  0  0  0
   18.3634   28.3665   13.8948 C   0  0  0  0  0  0  0  0  0  0  0  0
   18.0609   27.9767   12.4543 C   0  0  0  0  0  0  0  0  0  0  0  0
   17.6698   28.9590   11.5354 C   0  0  0  0  0  0  0  0  0  0  0  0
   17.3691   28.6212   10.2255 C   0  0  0  0  0  0  0  0  0  0  0  0
   17.4617   27.3000    9.8063 C   0  0  0  0  0  0  0  0  0  0  0  0
   17.8460   26.3154   10.7111 C   0  0  0  0  0  0  0  0  0  0  0  0
   18.1474   26.6562   12.0315 C   0  0  0  0  0  0  0  0  0  0  0  0
  6  7  2  0  0  0
  7  8  2  0  0  0
  7  5  1  0  0  0
  7  9  1  0  0  0
  9 10  2  0  0  0
  9 17  1  0  0  0
 10 11  1  0  0  0
 11 12  1  0  0  0
 11 15  2  0  0  0
 12 13  1  0  0  0
 13 14  2  0  0  0
 14 15  1  0  0  0
 15 16  1  0  0  0
 16 17  2  0  0  0
  5  4  1  0  0  0
  5 18  1  0  0  0
 18 19  1  0  0  0
 19 20  1  0  0  0
 19 21  1  0  0  0
  4  1  1  0  0  0
  1 22  1  0  0  0
  1  2  1  0  0  0
 22 23  1  0  0  0
 22 35  1  0  0  0
 35 36  1  0  0  0
 36 41  2  0  0  0
 36 37  1  0  0  0
 37 38  2  0  0  0
 38 39  1  0  0  0
 39 40  2  0  0  0
 40 41  1  0  0  0
 23 24  1  0  0  0
 24 27  1  0  0  0
 24 25  2  0  0  0
 27 28  2  0  0  0
 27 33  1  0  0  0
 28 29  1  0  0  0
 29 30  2  0  0  0
 30 31  1  0  0  0
 31 32  1  0  0  0
 31 33  2  0  0  0
  2  3  1  0  0  0
 23 26  1  0  0  0
 32 34  1  0  0  0
M  END
> <minimizedAffinity>
-10.21674

$$$$
2QI6_MZ8_A_200


 41 44  0  0  0  0  0  0  0  0999 V2000
   19.0017   32.2592   15.8679 C   0  0  0  0  0  0  0  0  0  0  0  0
   18.5469   31.9298   17.1924 O   0  0  0  0  0  0  0  0  0  0  0  0
   18.0818   32.6911   17.5732 H   0  0  0  0  0  0  0  0  0  0  0  0
   19.9838   33.4330   15.9118 C   0  0  0  0  0  0  0  0  0  0  0  0
   21.3605   32.9986   15.5855 N   0  0  0  0  0  0  0  0  0  0  0  0
   22.6846   32.4567   17.5413 O   0  0  0  0  0  0  0  0  0  0  0  0
   22.4741   33.5443   16.6414 S   0  0  0  0  0  0  0  0  0  0  0  0
   23.6848   33.8099   15.9180 O   0  0  0  0  0  0  0  0  0  0  0  0
   21.9566   34.8804   17.4314 C   0  0  0  0  0  0  0  0  0  0  0  0
   21.7712   36.1555   16.8524 C   0  0  0  0  0  0  0  0  0  0  0  0
   21.3514   37.2749   17.6113 C   0  0  0  0  0  0  0  0  0  0  0  0
   21.0996   38.8581   17.0182 S   0  0  0  0  0  0  0  0  0  0  0  0
   20.6667   39.2935   18.6436 C   0  0  0  0  0  0  0  0  0  0  0  0
   20.7384   38.2909   19.5484 N   0  0  0  0  0  0  0  0  0  0  0  0
   21.1209   37.1157   18.9822 C   0  0  0  0  0  0  0  0  0  0  0  0
   21.2972   35.8662   19.5650 C   0  0  0  0  0  0  0  0  0  0  0  0
   21.6934   34.7676   18.8028 C   0  0  0  0  0  0  0  0  0  0  0  0
   21.4639   31.5416   15.3290 C   0  0  0  0  0  0  0  0  0  0  0  0
   22.1117   31.2732   13.9639 C   0  0  0  0  0  0  0  0  0  0  0  0
   22.4020   29.7916   13.7252 C   0  0  0  0  0  0  0  0  0  0  0  0
   21.2326   31.8665   12.8683 C   0  0  0  0  0  0  0  0  0  0  0  0
   17.8303   32.5792   14.9548 C   0  0  0  0  0  0  0  0  0  0  0  0
   17.7318   31.6393   13.8466 N   0  0  0  0  0  0  0  0  0  0  0  0
   18.0659   30.3553   13.8962 C   0  0  0  0  0  0  0  0  0  0  0  0
   18.4611   29.7577   14.8886 O   0  0  0  0  0  0  0  0  0  0  0  0
   17.3893   31.9843   12.9905 H   0  0  0  0  0  0  0  0  0  0  0  0
   18.0318   29.6084   12.6043 C   0  0  0  0  0  0  0  0  0  0  0  0
   16.8615   29.6915   11.8409 C   0  0  0  0  0  0  0  0  0  0  0  0
   16.7578   29.0518   10.6064 C   0  0  0  0  0  0  0  0  0  0  0  0
   17.8470   28.3470   10.1171 C   0  0  0  0  0  0  0  0  0  0  0  0
   19.0184   28.2901   10.8725 C   0  0  0  0  0  0  0  0  0  0  0  0
   20.0798   27.5952   10.4000 O   0  0  0  0  0  0  0  0  0  0  0  0
   19.1195   28.9156   12.1099 C   0  0  0  0  0  0  0  0  0  0  0  0
   20.0272   27.1680    9.5677 H   0  0  0  0  0  0  0  0  0  0  0  0
   16.4459   32.4823   15.6176 C   0  0  0  0  0  0  0  0  0  0  0  0
   16.0688   33.8047   16.2715 C   0  0  0  0  0  0  0  0  0  0  0  0
   16.5481   35.0071   15.7360 C   0  0  0  0  0  0  0  0  0  0  0  0
   16.2341   36.2194   16.3293 C   0  0  0  0  0  0  0  0  0  0  0  0
   15.4295   36.2551   17.4613 C   0  0  0  0  0  0  0  0  0  0  0  0
   14.9503   35.0669   18.0038 C   0  0  0  0  0  0  0  0  0  0  0  0
   15.2684   33.8453   17.4063 C   0  0  0  0  0  0  0  0  0  0  0  0
  6  7  2  0  0  0
  7  8  2  0  0  0
  7  5  1  0  0  0
  7  9  1  0  0  0
  9 10  2  0  0  0
  9 17  1  0  0  0
 10 11  1  0  0  0
 11 12  1  0  0  0
 11 15  2  0  0  0
 12 13  1  0  0  0
 13 14  2  0  0  0
 14 15  1  0  0  0
 15 16  1  0  0  0
 16 17  2  0  0  0
  5  4  1  0  0  0
  5 18  1  0  0  0
 18 19  1  0  0  0
 19 20  1  0  0  0
 19 21  1  0  0  0
  4  1  1  0  0  0
  1 22  1  0  0  0
  1  2  1  0  0  0
 22 23  1  0  0  0
 22 35  1  0  0  0
 35 36  1  0  0  0
 36 41  2  0  0  0
 36 37  1  0  0  0
 37 38  2  0  0  0
 38 39  1  0  0  0
 39 40  2  0  0  0
 40 41  1  0  0  0
 23 24  1  0  0  0
 24 27  1  0  0  0
 24 25  2  0  0  0
 27 28  2  0  0  0
 27 33  1  0  0  0
 28 29  1  0  0  0
 29 30  2  0  0  0
 30 31  1  0  0  0
 31 32  1  0  0  0
 31 33  2  0  0  0
  2  3  1  0  0  0
 23 26  1  0  0  0
 32 34  1  0  0  0
M  END
> <minimizedAffinity>
-10.03149

$$$$
2QI6_MZ8_A_200


 41 44  0  0  0  0  0  0  0  0999 V2000
   20.1994   29.7736   15.4388 C   0  0  0  0  0  0  0  0  0  0  0  0
   20.0941   28.6563   16.3389 O   0  0  0  0  0  0  0  0  0  0  0  0
   19.1647   28.3892   16.4153 H   0  0  0  0  0  0  0  0  0  0  0  0
   19.4108   30.9723   15.9731 C   0  0  0  0  0  0  0  0  0  0  0  0
   20.1668   32.2339   15.8082 N   0  0  0  0  0  0  0  0  0  0  0  0
   18.7967   34.0821   15.0476 O   0  0  0  0  0  0  0  0  0  0  0  0
   19.3250   33.5520   16.2627 S   0  0  0  0  0  0  0  0  0  0  0  0
   18.2471   33.1252   17.1088 O   0  0  0  0  0  0  0  0  0  0  0  0
   20.2745   34.6437   17.0267 C   0  0  0  0  0  0  0  0  0  0  0  0
   20.5095   34.6947   18.4187 C   0  0  0  0  0  0  0  0  0  0  0  0
   21.3197   35.6937   19.0110 C   0  0  0  0  0  0  0  0  0  0  0  0
   21.6678   35.8530   20.6768 S   0  0  0  0  0  0  0  0  0  0  0  0
   22.6168   37.2433   20.2461 C   0  0  0  0  0  0  0  0  0  0  0  0
   22.6301   37.5475   18.9284 N   0  0  0  0  0  0  0  0  0  0  0  0
   21.9001   36.6684   18.1919 C   0  0  0  0  0  0  0  0  0  0  0  0
   21.6793   36.6293   16.8201 C   0  0  0  0  0  0  0  0  0  0  0  0
   20.8940   35.6294   16.2473 C   0  0  0  0  0  0  0  0  0  0  0  0
   21.5262   32.1773   16.3984 C   0  0  0  0  0  0  0  0  0  0  0  0
   22.5991   32.3188   15.3103 C   0  0  0  0  0  0  0  0  0  0  0  0
   22.0181   32.7027   13.9497 C   0  0  0  0  0  0  0  0  0  0  0  0
   23.6584   33.3103   15.7791 C   0  0  0  0  0  0  0  0  0  0  0  0
   19.7188   29.3978   14.0473 C   0  0  0  0  0  0  0  0  0  0  0  0
   20.6489   28.5017   13.3741 N   0  0  0  0  0  0  0  0  0  0  0  0
   21.4746   28.8469   12.3934 C   0  0  0  0  0  0  0  0  0  0  0  0
   21.6132   29.9754   11.9399 O   0  0  0  0  0  0  0  0  0  0  0  0
   20.6667   27.5631   13.6705 H   0  0  0  0  0  0  0  0  0  0  0  0
   22.2320   27.7389   11.7402 C   0  0  0  0  0  0  0  0  0  0  0  0
   23.6132   27.6831   11.9602 C   0  0  0  0  0  0  0  0  0  0  0  0
   24.3906   26.6622   11.4150 C   0  0  0  0  0  0  0  0  0  0  0  0
   23.7748   25.6702   10.6670 C   0  0  0  0  0  0  0  0  0  0  0  0
   22.3942   25.7191   10.4734 C   0  0  0  0  0  0  0  0  0  0  0  0
   21.7928   24.7560    9.7362 O   0  0  0  0  0  0  0  0  0  0  0  0
   21.6189   26.7435   11.0046 C   0  0  0  0  0  0  0  0  0  0  0  0
   22.3017   24.0589    9.3714 H   0  0  0  0  0  0  0  0  0  0  0  0
   18.3936   28.6183   14.0074 C   0  0  0  0  0  0  0  0  0  0  0  0
   18.0764   28.1691   12.5875 C   0  0  0  0  0  0  0  0  0  0  0  0
   17.6823   29.1135   11.6309 C   0  0  0  0  0  0  0  0  0  0  0  0
   17.3683   28.7218   10.3393 C   0  0  0  0  0  0  0  0  0  0  0  0
   17.4503   27.3834    9.9761 C   0  0  0  0  0  0  0  0  0  0  0  0
   17.8375   26.4362   10.9187 C   0  0  0  0  0  0  0  0  0  0  0  0
   18.1524   26.8313   12.2207 C   0  0  0  0  0  0  0  0  0  0  0  0
  6  7  2  0  0  0
  7  8  2  0  0  0
  7  5  1  0  0  0
  7  9  1  0  0  0
  9 10  2  0  0  0
  9 17  1  0  0  0
 10 11  1  0  0  0
 11 12  1  0  0  0
 11 15  2  0  0  0
 12 13  1  0  0  0
 13 14  2  0  0  0
 14 15  1  0  0  0
 15 16  1  0  0  0
 16 17  2  0  0  0
  5  4  1  0  0  0
  5 18  1  0  0  0
 18 19  1  0  0  0
 19 20  1  0  0  0
 19 21  1  0  0  0
  4  1  1  0  0  0
  1 22  1  0  0  0
  1  2  1  0  0  0
 22 23  1  0  0  0
 22 35  1  0  0  0
 35 36  1  0  0  0
 36 41  2  0  0  0
 36 37  1  0  0  0
 37 38  2  0  0  0
 38 39  1  0  0  0
 39 40  2  0  0  0
 40 41  1  0  0  0
 23 24  1  0  0  0
 24 27  1  0  0  0
 24 25  2  0  0  0
 27 28  2  0  0  0
 27 33  1  0  0  0
 28 29  1  0  0  0
 29 30  2  0  0  0
 30 31  1  0  0  0
 31 32  1  0  0  0
 31 33  2  0  0  0
  2  3  1  0  0  0
 23 26  1  0  0  0
 32 34  1  0  0  0
M  END
> <minimizedAffinity>
-9.86058

$$$$
2QI6_MZ8_A_200


 41 44  0  0  0  0  0  0  0  0999 V2000
   18.5325   32.0482   15.9167 C   0  0  0  0  0  0  0  0  0  0  0  0
   19.0645   31.0993   16.8581 O   0  0  0  0  0  0  0  0  0  0  0  0
   19.8438   31.4784   17.2939 H   0  0  0  0  0  0  0  0  0  0  0  0
   19.5651   32.3684   14.8325 C   0  0  0  0  0  0  0  0  0  0  0  0
   20.3014   31.1554   14.4119 N   0  0  0  0  0  0  0  0  0  0  0  0
   18.7958   30.8485   12.5382 O   0  0  0  0  0  0  0  0  0  0  0  0
   20.1961   30.8613   12.8135 S   0  0  0  0  0  0  0  0  0  0  0  0
   20.8124   31.9535   12.1156 O   0  0  0  0  0  0  0  0  0  0  0  0
   20.8960   29.4379   12.4119 C   0  0  0  0  0  0  0  0  0  0  0  0
   22.2650   29.2510   12.1183 C   0  0  0  0  0  0  0  0  0  0  0  0
   22.7912   27.9904   11.7447 C   0  0  0  0  0  0  0  0  0  0  0  0
   24.4230   27.6512   11.3654 S   0  0  0  0  0  0  0  0  0  0  0  0
   23.9183   26.0102   11.0985 C   0  0  0  0  0  0  0  0  0  0  0  0
   22.5979   25.7765   11.2739 N   0  0  0  0  0  0  0  0  0  0  0  0
   21.9254   26.8950   11.6546 C   0  0  0  0  0  0  0  0  0  0  0  0
   20.5761   27.0638   11.9429 C   0  0  0  0  0  0  0  0  0  0  0  0
   20.0739   28.3066   12.3272 C   0  0  0  0  0  0  0  0  0  0  0  0
   21.6933   31.1152   14.9224 C   0  0  0  0  0  0  0  0  0  0  0  0
   22.1274   32.4965   15.4310 C   0  0  0  0  0  0  0  0  0  0  0  0
   22.3744   32.5234   16.9392 C   0  0  0  0  0  0  0  0  0  0  0  0
   23.3493   32.9574   14.6440 C   0  0  0  0  0  0  0  0  0  0  0  0
   18.0867   33.3194   16.6193 C   0  0  0  0  0  0  0  0  0  0  0  0
   19.2182   34.1036   17.0948 N   0  0  0  0  0  0  0  0  0  0  0  0
   19.2853   34.7228   18.2673 C   0  0  0  0  0  0  0  0  0  0  0  0
   18.4301   34.6902   19.1425 O   0  0  0  0  0  0  0  0  0  0  0  0
   19.9973   34.1808   16.4978 H   0  0  0  0  0  0  0  0  0  0  0  0
   20.4735   35.5981   18.4907 C   0  0  0  0  0  0  0  0  0  0  0  0
   20.9691   36.3075   17.3905 C   0  0  0  0  0  0  0  0  0  0  0  0
   22.0548   37.1728   17.5189 C   0  0  0  0  0  0  0  0  0  0  0  0
   22.6312   37.3530   18.7670 C   0  0  0  0  0  0  0  0  0  0  0  0
   22.1153   36.6615   19.8633 C   0  0  0  0  0  0  0  0  0  0  0  0
   22.6824   36.8299   21.0810 O   0  0  0  0  0  0  0  0  0  0  0  0
   21.0416   35.7878   19.7352 C   0  0  0  0  0  0  0  0  0  0  0  0
   23.4069   37.4153   21.1835 H   0  0  0  0  0  0  0  0  0  0  0  0
   17.3206   34.3158   15.7329 C   0  0  0  0  0  0  0  0  0  0  0  0
   16.4124   35.1991   16.5775 C   0  0  0  0  0  0  0  0  0  0  0  0
   16.7389   36.5472   16.7727 C   0  0  0  0  0  0  0  0  0  0  0  0
   15.9369   37.3620   17.5558 C   0  0  0  0  0  0  0  0  0  0  0  0
   14.7906   36.8497   18.1505 C   0  0  0  0  0  0  0  0  0  0  0  0
   14.4581   35.5114   17.9662 C   0  0  0  0  0  0  0  0  0  0  0  0
   15.2677   34.6903   17.1781 C   0  0  0  0  0  0  0  0  0  0  0  0
  6  7  2  0  0  0
  7  8  2  0  0  0
  7  5  1  0  0  0
  7  9  1  0  0  0
  9 10  2  0  0  0
  9 17  1  0  0  0
 10 11  1  0  0  0
 11 12  1  0  0  0
 11 15  2  0  0  0
 12 13  1  0  0  0
 13 14  2  0  0  0
 14 15  1  0  0  0
 15 16  1  0  0  0
 16 17  2  0  0  0
  5  4  1  0  0  0
  5 18  1  0  0  0
 18 19  1  0  0  0
 19 20  1  0  0  0
 19 21  1  0  0  0
  4  1  1  0  0  0
  1 22  1  0  0  0
  1  2  1  0  0  0
 22 23  1  0  0  0
 22 35  1  0  0  0
 35 36  1  0  0  0
 36 41  2  0  0  0
 36 37  1  0  0  0
 37 38  2  0  0  0
 38 39  1  0  0  0
 39 40  2  0  0  0
 40 41  1  0  0  0
 23 24  1  0  0  0
 24 27  1  0  0  0
 24 25  2  0  0  0
 27 28  2  0  0  0
 27 33  1  0  0  0
 28 29  1  0  0  0
 29 30  2  0  0  0
 30 31  1  0  0  0
 31 32  1  0  0  0
 31 33  2  0  0  0
  2  3  1  0  0  0
 23 26  1  0  0  0
 32 34  1  0  0  0
M  END
> <minimizedAffinity>
-9.82419

$$$$
2QI6_MZ8_A_200


 41 44  0  0  0  0  0  0  0  0999 V2000
   18.1193   30.9145   14.8079 C   0  0  0  0  0  0  0  0  0  0  0  0
   18.5166   29.6392   15.3421 O   0  0  0  0  0  0  0  0  0  0  0  0
   19.4509   29.4792   15.1362 H   0  0  0  0  0  0  0  0  0  0  0  0
   18.2720   30.9317   13.2845 C   0  0  0  0  0  0  0  0  0  0  0  0
   18.8379   29.6593   12.7834 N   0  0  0  0  0  0  0  0  0  0  0  0
   17.3236   27.8302   13.2667 O   0  0  0  0  0  0  0  0  0  0  0  0
   17.7138   28.6538   12.1684 S   0  0  0  0  0  0  0  0  0  0  0  0
   16.5945   29.4426   11.7387 O   0  0  0  0  0  0  0  0  0  0  0  0
   18.3104   27.7596   10.9349 C   0  0  0  0  0  0  0  0  0  0  0  0
   18.0623   27.9859    9.5628 C   0  0  0  0  0  0  0  0  0  0  0  0
   18.5889   27.1452    8.5522 C   0  0  0  0  0  0  0  0  0  0  0  0
   18.3513   27.3216    6.8688 S   0  0  0  0  0  0  0  0  0  0  0  0
   19.3375   25.9036    6.6794 C   0  0  0  0  0  0  0  0  0  0  0  0
   19.7812   25.3510    7.8312 N   0  0  0  0  0  0  0  0  0  0  0  0
   19.3740   26.0486    8.9247 C   0  0  0  0  0  0  0  0  0  0  0  0
   19.6283   25.8151   10.2711 C   0  0  0  0  0  0  0  0  0  0  0  0
   19.1186   26.6611   11.2556 C   0  0  0  0  0  0  0  0  0  0  0  0
   20.0004   29.8555   11.8836 C   0  0  0  0  0  0  0  0  0  0  0  0
   21.3044   29.4448   12.5806 C   0  0  0  0  0  0  0  0  0  0  0  0
   21.0721   28.5364   13.7878 C   0  0  0  0  0  0  0  0  0  0  0  0
   22.2384   28.8073   11.5577 C   0  0  0  0  0  0  0  0  0  0  0  0
   18.9224   32.0410   15.4360 C   0  0  0  0  0  0  0  0  0  0  0  0
   18.0788   32.9508   16.1988 N   0  0  0  0  0  0  0  0  0  0  0  0
   17.5230   34.0605   15.7274 C   0  0  0  0  0  0  0  0  0  0  0  0
   17.5956   34.4614   14.5731 O   0  0  0  0  0  0  0  0  0  0  0  0
   17.9066   32.7243   17.1413 H   0  0  0  0  0  0  0  0  0  0  0  0
   16.8223   34.9275   16.7201 C   0  0  0  0  0  0  0  0  0  0  0  0
   15.4478   34.7290   16.8945 C   0  0  0  0  0  0  0  0  0  0  0  0
   14.7232   35.4727   17.8250 C   0  0  0  0  0  0  0  0  0  0  0  0
   15.3866   36.4032   18.6102 C   0  0  0  0  0  0  0  0  0  0  0  0
   16.7612   36.5771   18.4479 C   0  0  0  0  0  0  0  0  0  0  0  0
   17.4089   37.4913   19.2079 O   0  0  0  0  0  0  0  0  0  0  0  0
   17.4834   35.8465   17.5113 C   0  0  0  0  0  0  0  0  0  0  0  0
   16.9361   37.9917   19.8435 H   0  0  0  0  0  0  0  0  0  0  0  0
   19.9721   31.5927   16.4668 C   0  0  0  0  0  0  0  0  0  0  0  0
   21.3341   32.1912   16.1427 C   0  0  0  0  0  0  0  0  0  0  0  0
   21.8710   33.1865   16.9694 C   0  0  0  0  0  0  0  0  0  0  0  0
   23.0991   33.7591   16.6793 C   0  0  0  0  0  0  0  0  0  0  0  0
   23.8177   33.3434   15.5654 C   0  0  0  0  0  0  0  0  0  0  0  0
   23.2928   32.3578   14.7353 C   0  0  0  0  0  0  0  0  0  0  0  0
   22.0543   31.7822   15.0273 C   0  0  0  0  0  0  0  0  0  0  0  0
  6  7  2  0  0  0
  7  8  2  0  0  0
  7  5  1  0  0  0
  7  9  1  0  0  0
  9 10  2  0  0  0
  9 17  1  0  0  0
 10 11  1  0  0  0
 11 12  1  0  0  0
 11 15  2  0  0  0
 12 13  1  0  0  0
 13 14  2  0  0  0
 14 15  1  0  0  0
 15 16  1  0  0  0
 16 17  2  0  0  0
  5  4  1  0  0  0
  5 18  1  0  0  0
 18 19  1  0  0  0
 19 20  1  0  0  0
 19 21  1  0  0  0
  4  1  1  0  0  0
  1 22  1  0  0  0
  1  2  1  0  0  0
 22 23  1  0  0  0
 22 35  1  0  0  0
 35 36  1  0  0  0
 36 41  2  0  0  0
 36 37  1  0  0  0
 37 38  2  0  0  0
 38 39  1  0  0  0
 39 40  2  0  0  0
 40 41  1  0  0  0
 23 24  1  0  0  0
 24 27  1  0  0  0
 24 25  2  0  0  0
 27 28  2  0  0  0
 27 33  1  0  0  0
 28 29  1  0  0  0
 29 30  2  0  0  0
 30 31  1  0  0  0
 31 32  1  0  0  0
 31 33  2  0  0  0
  2  3  1  0  0  0
 23 26  1  0  0  0
 32 34  1  0  0  0
M  END
> <minimizedAffinity>
-9.61678

$$$$
2QI6_MZ8_A_200


 41 44  0  0  0  0  0  0  0  0999 V2000
   20.9449   32.1730   14.0623 C   0  0  0  0  0  0  0  0  0  0  0  0
   21.9622   33.1107   13.6682 O   0  0  0  0  0  0  0  0  0  0  0  0
   21.5536   33.8488   13.1894 H   0  0  0  0  0  0  0  0  0  0  0  0
   20.2366   31.5978   12.8328 C   0  0  0  0  0  0  0  0  0  0  0  0
   20.1128   30.1255   12.9194 N   0  0  0  0  0  0  0  0  0  0  0  0
   18.2675   29.1679   14.1642 O   0  0  0  0  0  0  0  0  0  0  0  0
   18.5719   29.6041   12.8399 S   0  0  0  0  0  0  0  0  0  0  0  0
   17.7381   30.7215   12.4991 O   0  0  0  0  0  0  0  0  0  0  0  0
   18.3982   28.3898   11.7572 C   0  0  0  0  0  0  0  0  0  0  0  0
   18.3837   28.5390   10.3525 C   0  0  0  0  0  0  0  0  0  0  0  0
   18.1944   27.4406    9.4790 C   0  0  0  0  0  0  0  0  0  0  0  0
   18.1554   27.5052    7.7715 S   0  0  0  0  0  0  0  0  0  0  0  0
   17.8965   25.7875    7.8093 C   0  0  0  0  0  0  0  0  0  0  0  0
   17.8299   25.2408    9.0445 N   0  0  0  0  0  0  0  0  0  0  0  0
   18.0067   26.1660   10.0249 C   0  0  0  0  0  0  0  0  0  0  0  0
   18.0209   26.0039   11.4053 C   0  0  0  0  0  0  0  0  0  0  0  0
   18.2263   27.0912   12.2539 C   0  0  0  0  0  0  0  0  0  0  0  0
   21.0197   29.4110   11.9886 C   0  0  0  0  0  0  0  0  0  0  0  0
   21.8545   28.3636   12.7375 C   0  0  0  0  0  0  0  0  0  0  0  0
   22.4625   27.3134   11.8081 C   0  0  0  0  0  0  0  0  0  0  0  0
   22.9169   29.0733   13.5697 C   0  0  0  0  0  0  0  0  0  0  0  0
   19.9409   32.8222   14.9997 C   0  0  0  0  0  0  0  0  0  0  0  0
   20.5486   33.8733   15.8044 N   0  0  0  0  0  0  0  0  0  0  0  0
   21.3555   33.6782   16.8405 C   0  0  0  0  0  0  0  0  0  0  0  0
   21.7475   32.5919   17.2462 O   0  0  0  0  0  0  0  0  0  0  0  0
   20.3442   34.8048   15.5599 H   0  0  0  0  0  0  0  0  0  0  0  0
   21.7433   34.8909   17.6195 C   0  0  0  0  0  0  0  0  0  0  0  0
   21.9970   36.0657   16.9021 C   0  0  0  0  0  0  0  0  0  0  0  0
   22.3324   37.2517   17.5540 C   0  0  0  0  0  0  0  0  0  0  0  0
   22.3849   37.2695   18.9394 C   0  0  0  0  0  0  0  0  0  0  0  0
   22.1060   36.1007   19.6481 C   0  0  0  0  0  0  0  0  0  0  0  0
   22.1652   36.1144   21.0006 O   0  0  0  0  0  0  0  0  0  0  0  0
   21.7847   34.9136   18.9998 C   0  0  0  0  0  0  0  0  0  0  0  0
   22.3804   36.9067   21.4521 H   0  0  0  0  0  0  0  0  0  0  0  0
   18.7769   33.5465   14.3026 C   0  0  0  0  0  0  0  0  0  0  0  0
   17.5427   33.5634   15.1942 C   0  0  0  0  0  0  0  0  0  0  0  0
   16.9426   32.3561   15.5742 C   0  0  0  0  0  0  0  0  0  0  0  0
   15.8061   32.3511   16.3672 C   0  0  0  0  0  0  0  0  0  0  0  0
   15.2534   33.5488   16.8028 C   0  0  0  0  0  0  0  0  0  0  0  0
   15.8391   34.7542   16.4289 C   0  0  0  0  0  0  0  0  0  0  0  0
   16.9835   34.7587   15.6284 C   0  0  0  0  0  0  0  0  0  0  0  0
  6  7  2  0  0  0
  7  8  2  0  0  0
  7  5  1  0  0  0
  7  9  1  0  0  0
  9 10  2  0  0  0
  9 17  1  0  0  0
 10 11  1  0  0  0
 11 12  1  0  0  0
 11 15  2  0  0  0
 12 13  1  0  0  0
 13 14  2  0  0  0
 14 15  1  0  0  0
 15 16  1  0  0  0
 16 17  2  0  0  0
  5  4  1  0  0  0
  5 18  1  0  0  0
 18 19  1  0  0  0
 19 20  1  0  0  0
 19 21  1  0  0  0
  4  1  1  0  0  0
  1 22  1  0  0  0
  1  2  1  0  0  0
 22 23  1  0  0  0
 22 35  1  0  0  0
 35 36  1  0  0  0
 36 41  2  0  0  0
 36 37  1  0  0  0
 37 38  2  0  0  0
 38 39  1  0  0  0
 39 40  2  0  0  0
 40 41  1  0  0  0
 23 24  1  0  0  0
 24 27  1  0  0  0
 24 25  2  0  0  0
 27 28  2  0  0  0
 27 33  1  0  0  0
 28 29  1  0  0  0
 29 30  2  0  0  0
 30 31  1  0  0  0
 31 32  1  0  0  0
 31 33  2  0  0  0
  2  3  1  0  0  0
 23 26  1  0  0  0
 32 34  1  0  0  0
M  END
> <minimizedAffinity>
-9.49127

$$$$
2QI6_MZ8_A_200


 41 44  0  0  0  0  0  0  0  0999 V2000
   21.4800   31.1239   15.0010 C   0  0  0  0  0  0  0  0  0  0  0  0
   22.8638   30.7471   15.1144 O   0  0  0  0  0  0  0  0  0  0  0  0
   23.4127   31.3823   14.6286 H   0  0  0  0  0  0  0  0  0  0  0  0
   21.0341   31.1031   13.5364 C   0  0  0  0  0  0  0  0  0  0  0  0
   20.6154   29.7467   13.1179 N   0  0  0  0  0  0  0  0  0  0  0  0
   18.4739   29.3597   14.1838 O   0  0  0  0  0  0  0  0  0  0  0  0
   19.0089   29.6130   12.8852 S   0  0  0  0  0  0  0  0  0  0  0  0
   18.5201   30.8729   12.4021 O   0  0  0  0  0  0  0  0  0  0  0  0
   18.6460   28.4038   11.8444 C   0  0  0  0  0  0  0  0  0  0  0  0
   18.6275   28.5117   10.4360 C   0  0  0  0  0  0  0  0  0  0  0  0
   18.2692   27.4257    9.6008 C   0  0  0  0  0  0  0  0  0  0  0  0
   18.2090   27.4444    7.8928 S   0  0  0  0  0  0  0  0  0  0  0  0
   17.7107   25.7826    7.9891 C   0  0  0  0  0  0  0  0  0  0  0  0
   17.5898   25.2879    9.2419 N   0  0  0  0  0  0  0  0  0  0  0  0
   17.9132   26.2074   10.1897 C   0  0  0  0  0  0  0  0  0  0  0  0
   17.9291   26.0861   11.5742 C   0  0  0  0  0  0  0  0  0  0  0  0
   18.3013   27.1581   12.3848 C   0  0  0  0  0  0  0  0  0  0  0  0
   21.4152   29.2152   11.9878 C   0  0  0  0  0  0  0  0  0  0  0  0
   22.2438   28.0015   12.4298 C   0  0  0  0  0  0  0  0  0  0  0  0
   21.8840   26.7269   11.6668 C   0  0  0  0  0  0  0  0  0  0  0  0
   23.7262   28.3387   12.3113 C   0  0  0  0  0  0  0  0  0  0  0  0
   21.2380   32.4939   15.6117 C   0  0  0  0  0  0  0  0  0  0  0  0
   19.8701   32.6427   16.0893 N   0  0  0  0  0  0  0  0  0  0  0  0
   18.8896   33.2524   15.4340 C   0  0  0  0  0  0  0  0  0  0  0  0
   18.9732   33.7386   14.3137 O   0  0  0  0  0  0  0  0  0  0  0  0
   19.6550   32.2597   16.9704 H   0  0  0  0  0  0  0  0  0  0  0  0
   17.6038   33.4269   16.1718 C   0  0  0  0  0  0  0  0  0  0  0  0
   16.5087   32.6637   15.7506 C   0  0  0  0  0  0  0  0  0  0  0  0
   15.2802   32.7409   16.4055 C   0  0  0  0  0  0  0  0  0  0  0  0
   15.1550   33.5675   17.5116 C   0  0  0  0  0  0  0  0  0  0  0  0
   16.2583   34.3058   17.9403 C   0  0  0  0  0  0  0  0  0  0  0  0
   16.1353   35.1198   19.0150 O   0  0  0  0  0  0  0  0  0  0  0  0
   17.4804   34.2408   17.2808 C   0  0  0  0  0  0  0  0  0  0  0  0
   15.3181   35.1745   19.4702 H   0  0  0  0  0  0  0  0  0  0  0  0
   22.0788   32.8048   16.8614 C   0  0  0  0  0  0  0  0  0  0  0  0
   21.9102   34.2605   17.2748 C   0  0  0  0  0  0  0  0  0  0  0  0
   21.9056   34.6017   18.6334 C   0  0  0  0  0  0  0  0  0  0  0  0
   21.7316   35.9179   19.0305 C   0  0  0  0  0  0  0  0  0  0  0  0
   21.5683   36.9181   18.0804 C   0  0  0  0  0  0  0  0  0  0  0  0
   21.5680   36.5905   16.7282 C   0  0  0  0  0  0  0  0  0  0  0  0
   21.7418   35.2637   16.3285 C   0  0  0  0  0  0  0  0  0  0  0  0
  6  7  2  0  0  0
  7  8  2  0  0  0
  7  5  1  0  0  0
  7  9  1  0  0  0
  9 10  2  0  0  0
  9 17  1  0  0  0
 10 11  1  0  0  0
 11 12  1  0  0  0
 11 15  2  0  0  0
 12 13  1  0  0  0
 13 14  2  0  0  0
 14 15  1  0  0  0
 15 16  1  0  0  0
 16 17  2  0  0  0
  5  4  1  0  0  0
  5 18  1  0  0  0
 18 19  1  0  0  0
 19 20  1  0  0  0
 19 21  1  0  0  0
  4  1  1  0  0  0
  1 22  1  0  0  0
  1  2  1  0  0  0
 22 23  1  0  0  0
 22 35  1  0  0  0
 35 36  1  0  0  0
 36 41  2  0  0  0
 36 37  1  0  0  0
 37 38  2  0  0  0
 38 39  1  0  0  0
 39 40  2  0  0  0
 40 41  1  0  0  0
 23 24  1  0  0  0
 24 27  1  0  0  0
 24 25  2  0  0  0
 27 28  2  0  0  0
 27 33  1  0  0  0
 28 29  1  0  0  0
 29 30  2  0  0  0
 30 31  1  0  0  0
 31 32  1  0  0  0
 31 33  2  0  0  0
  2  3  1  0  0  0
 23 26  1  0  0  0
 32 34  1  0  0  0
M  END
> <minimizedAffinity>
-9.44766

$$$$
2QI6_MZ8_A_200


 41 44  0  0  0  0  0  0  0  0999 V2000
   18.6579   29.1146   13.8867 C   0  0  0  0  0  0  0  0  0  0  0  0
   17.6705   28.3624   14.6140 O   0  0  0  0  0  0  0  0  0  0  0  0
   16.8181   28.4186   14.1545 H   0  0  0  0  0  0  0  0  0  0  0  0
   18.2630   30.5921   13.8128 C   0  0  0  0  0  0  0  0  0  0  0  0
   18.9411   31.3861   14.8618 N   0  0  0  0  0  0  0  0  0  0  0  0
   16.8224   30.8931   15.9295 O   0  0  0  0  0  0  0  0  0  0  0  0
   18.0146   31.6375   16.1774 S   0  0  0  0  0  0  0  0  0  0  0  0
   18.6950   31.0888   17.3158 O   0  0  0  0  0  0  0  0  0  0  0  0
   17.6910   33.2264   16.3961 C   0  0  0  0  0  0  0  0  0  0  0  0
   18.2565   34.0487   17.3958 C   0  0  0  0  0  0  0  0  0  0  0  0
   17.8997   35.4112   17.5429 C   0  0  0  0  0  0  0  0  0  0  0  0
   18.5148   36.4938   18.7139 S   0  0  0  0  0  0  0  0  0  0  0  0
   17.4804   37.6961   18.0043 C   0  0  0  0  0  0  0  0  0  0  0  0
   16.7228   37.2677   16.9692 N   0  0  0  0  0  0  0  0  0  0  0  0
   16.9491   35.9598   16.6751 C   0  0  0  0  0  0  0  0  0  0  0  0
   16.3859   35.1629   15.6852 C   0  0  0  0  0  0  0  0  0  0  0  0
   16.7593   33.8273   15.5395 C   0  0  0  0  0  0  0  0  0  0  0  0
   20.2953   30.8781   15.1899 C   0  0  0  0  0  0  0  0  0  0  0  0
   21.3437   31.9895   15.0470 C   0  0  0  0  0  0  0  0  0  0  0  0
   21.5729   32.7604   16.3468 C   0  0  0  0  0  0  0  0  0  0  0  0
   22.6361   31.3905   14.5030 C   0  0  0  0  0  0  0  0  0  0  0  0
   18.8554   28.5461   12.4916 C   0  0  0  0  0  0  0  0  0  0  0  0
   20.1929   27.9984   12.3117 N   0  0  0  0  0  0  0  0  0  0  0  0
   21.2747   28.7005   11.9964 C   0  0  0  0  0  0  0  0  0  0  0  0
   21.3220   29.9156   11.8560 O   0  0  0  0  0  0  0  0  0  0  0  0
   20.3039   27.0278   12.4339 H   0  0  0  0  0  0  0  0  0  0  0  0
   22.5143   27.9202   11.7094 C   0  0  0  0  0  0  0  0  0  0  0  0
   23.7052   28.3594   12.2994 C   0  0  0  0  0  0  0  0  0  0  0  0
   24.9019   27.6694   12.1105 C   0  0  0  0  0  0  0  0  0  0  0  0
   24.9009   26.5112   11.3483 C   0  0  0  0  0  0  0  0  0  0  0  0
   23.7050   26.0662   10.7845 C   0  0  0  0  0  0  0  0  0  0  0  0
   23.7040   24.9402   10.0329 O   0  0  0  0  0  0  0  0  0  0  0  0
   22.5131   26.7600   10.9602 C   0  0  0  0  0  0  0  0  0  0  0  0
   24.4993   24.4615    9.9052 H   0  0  0  0  0  0  0  0  0  0  0  0
   17.9428   27.3592   12.1397 C   0  0  0  0  0  0  0  0  0  0  0  0
   17.9174   27.1279   10.6350 C   0  0  0  0  0  0  0  0  0  0  0  0
   17.6390   25.8504   10.1322 C   0  0  0  0  0  0  0  0  0  0  0  0
   17.6326   25.6147    8.7667 C   0  0  0  0  0  0  0  0  0  0  0  0
   17.8945   26.6500    7.8782 C   0  0  0  0  0  0  0  0  0  0  0  0
   18.1754   27.9223    8.3662 C   0  0  0  0  0  0  0  0  0  0  0  0
   18.1832   28.1589    9.7426 C   0  0  0  0  0  0  0  0  0  0  0  0
  6  7  2  0  0  0
  7  8  2  0  0  0
  7  5  1  0  0  0
  7  9  1  0  0  0
  9 10  2  0  0  0
  9 17  1  0  0  0
 10 11  1  0  0  0
 11 12  1  0  0  0
 11 15  2  0  0  0
 12 13  1  0  0  0
 13 14  2  0  0  0
 14 15  1  0  0  0
 15 16  1  0  0  0
 16 17  2  0  0  0
  5  4  1  0  0  0
  5 18  1  0  0  0
 18 19  1  0  0  0
 19 20  1  0  0  0
 19 21  1  0  0  0
  4  1  1  0  0  0
  1 22  1  0  0  0
  1  2  1  0  0  0
 22 23  1  0  0  0
 22 35  1  0  0  0
 35 36  1  0  0  0
 36 41  2  0  0  0
 36 37  1  0  0  0
 37 38  2  0  0  0
 38 39  1  0  0  0
 39 40  2  0  0  0
 40 41  1  0  0  0
 23 24  1  0  0  0
 24 27  1  0  0  0
 24 25  2  0  0  0
 27 28  2  0  0  0
 27 33  1  0  0  0
 28 29  1  0  0  0
 29 30  2  0  0  0
 30 31  1  0  0  0
 31 32  1  0  0  0
 31 33  2  0  0  0
  2  3  1  0  0  0
 23 26  1  0  0  0
 32 34  1  0  0  0
M  END
> <minimizedAffinity>
-9.42103

$$$$
2QI6_MZ8_A_200


 41 44  0  0  0  0  0  0  0  0999 V2000
   21.6949   31.7591   15.4179 C   0  0  0  0  0  0  0  0  0  0  0  0
   23.1223   31.5800   15.4203 O   0  0  0  0  0  0  0  0  0  0  0  0
   23.5344   32.2591   14.8636 H   0  0  0  0  0  0  0  0  0  0  0  0
   21.1349   31.6054   14.0012 C   0  0  0  0  0  0  0  0  0  0  0  0
   20.4792   30.2911   13.8187 N   0  0  0  0  0  0  0  0  0  0  0  0
   22.7424   29.7531   13.1402 O   0  0  0  0  0  0  0  0  0  0  0  0
   21.5283   29.0895   13.4898 S   0  0  0  0  0  0  0  0  0  0  0  0
   21.7263   28.3270   14.6895 O   0  0  0  0  0  0  0  0  0  0  0  0
   20.9963   28.1377   12.2699 C   0  0  0  0  0  0  0  0  0  0  0  0
   19.8914   28.4156   11.4346 C   0  0  0  0  0  0  0  0  0  0  0  0
   19.4705   27.5234   10.4186 C   0  0  0  0  0  0  0  0  0  0  0  0
   18.1513   27.7548    9.3567 S   0  0  0  0  0  0  0  0  0  0  0  0
   18.5638   26.2153    8.6648 C   0  0  0  0  0  0  0  0  0  0  0  0
   19.6184   25.5899    9.2354 N   0  0  0  0  0  0  0  0  0  0  0  0
   20.1661   26.3224   10.2412 C   0  0  0  0  0  0  0  0  0  0  0  0
   21.2566   26.0368   11.0544 C   0  0  0  0  0  0  0  0  0  0  0  0
   21.6720   26.9322   12.0395 C   0  0  0  0  0  0  0  0  0  0  0  0
   19.5335   29.9576   14.9113 C   0  0  0  0  0  0  0  0  0  0  0  0
   18.1021   29.8294   14.3729 C   0  0  0  0  0  0  0  0  0  0  0  0
   17.8421   30.7209   13.1589 C   0  0  0  0  0  0  0  0  0  0  0  0
   17.8088   28.3626   14.0775 C   0  0  0  0  0  0  0  0  0  0  0  0
   21.3159   33.1121   15.9961 C   0  0  0  0  0  0  0  0  0  0  0  0
   19.9253   33.1490   16.4276 N   0  0  0  0  0  0  0  0  0  0  0  0
   18.9150   33.6442   15.7227 C   0  0  0  0  0  0  0  0  0  0  0  0
   18.9903   34.0998   14.5891 O   0  0  0  0  0  0  0  0  0  0  0  0
   19.7174   32.7762   17.3148 H   0  0  0  0  0  0  0  0  0  0  0  0
   17.5953   33.7226   16.4157 C   0  0  0  0  0  0  0  0  0  0  0  0
   16.6042   32.8160   16.0221 C   0  0  0  0  0  0  0  0  0  0  0  0
   15.3546   32.7989   16.6404 C   0  0  0  0  0  0  0  0  0  0  0  0
   15.1049   33.6776   17.6835 C   0  0  0  0  0  0  0  0  0  0  0  0
   16.1067   34.5609   18.0865 C   0  0  0  0  0  0  0  0  0  0  0  0
   15.8615   35.4253   19.0992 O   0  0  0  0  0  0  0  0  0  0  0  0
   17.3487   34.5891   17.4625 C   0  0  0  0  0  0  0  0  0  0  0  0
   15.0293   35.4186   19.5297 H   0  0  0  0  0  0  0  0  0  0  0  0
   22.0852   33.5133   17.2659 C   0  0  0  0  0  0  0  0  0  0  0  0
   21.7652   34.9495   17.6575 C   0  0  0  0  0  0  0  0  0  0  0  0
   21.7813   35.9561   16.6835 C   0  0  0  0  0  0  0  0  0  0  0  0
   21.5143   37.2726   17.0238 C   0  0  0  0  0  0  0  0  0  0  0  0
   21.2175   37.6074   18.3390 C   0  0  0  0  0  0  0  0  0  0  0  0
   21.2018   36.6165   19.3155 C   0  0  0  0  0  0  0  0  0  0  0  0
   21.4726   35.2901   18.9722 C   0  0  0  0  0  0  0  0  0  0  0  0
  6  7  2  0  0  0
  7  8  2  0  0  0
  7  5  1  0  0  0
  7  9  1  0  0  0
  9 10  2  0  0  0
  9 17  1  0  0  0
 10 11  1  0  0  0
 11 12  1  0  0  0
 11 15  2  0  0  0
 12 13  1  0  0  0
 13 14  2  0  0  0
 14 15  1  0  0  0
 15 16  1  0  0  0
 16 17  2  0  0  0
  5  4  1  0  0  0
  5 18  1  0  0  0
 18 19  1  0  0  0
 19 20  1  0  0  0
 19 21  1  0  0  0
  4  1  1  0  0  0
  1 22  1  0  0  0
  1  2  1  0  0  0
 22 23  1  0  0  0
 22 35  1  0  0  0
 35 36  1  0  0  0
 36 41  2  0  0  0
 36 37  1  0  0  0
 37 38  2  0  0  0
 38 39  1  0  0  0
 39 40  2  0  0  0
 40 41  1  0  0  0
 23 24  1  0  0  0
 24 27  1  0  0  0
 24 25  2  0  0  0
 27 28  2  0  0  0
 27 33  1  0  0  0
 28 29  1  0  0  0
 29 30  2  0  0  0
 30 31  1  0  0  0
 31 32  1  0  0  0
 31 33  2  0  0  0
  2  3  1  0  0  0
 23 26  1  0  0  0
 32 34  1  0  0  0
M  END
> <minimizedAffinity>
-9.40938

$$$$
2QI6_MZ8_A_200


 41 44  0  0  0  0  0  0  0  0999 V2000
   20.3565   30.5911   15.9587 C   0  0  0  0  0  0  0  0  0  0  0  0
   19.8950   29.7033   16.9924 O   0  0  0  0  0  0  0  0  0  0  0  0
   18.9281   29.7522   17.0527 H   0  0  0  0  0  0  0  0  0  0  0  0
   19.9810   32.0392   16.2849 C   0  0  0  0  0  0  0  0  0  0  0  0
   21.1204   32.9568   16.0611 N   0  0  0  0  0  0  0  0  0  0  0  0
   21.9046   34.2074   17.9828 O   0  0  0  0  0  0  0  0  0  0  0  0
   20.9953   34.3518   16.8923 S   0  0  0  0  0  0  0  0  0  0  0  0
   21.4329   35.4212   16.0410 O   0  0  0  0  0  0  0  0  0  0  0  0
   19.4678   34.6081   17.4195 C   0  0  0  0  0  0  0  0  0  0  0  0
   18.2902   34.2247   16.7398 C   0  0  0  0  0  0  0  0  0  0  0  0
   16.9993   34.5127   17.2458 C   0  0  0  0  0  0  0  0  0  0  0  0
   15.5128   34.1015   16.5092 S   0  0  0  0  0  0  0  0  0  0  0  0
   14.7408   34.8692   17.8633 C   0  0  0  0  0  0  0  0  0  0  0  0
   15.5799   35.4051   18.7785 N   0  0  0  0  0  0  0  0  0  0  0  0
   16.8855   35.2078   18.4548 C   0  0  0  0  0  0  0  0  0  0  0  0
   18.0356   35.5894   19.1356 C   0  0  0  0  0  0  0  0  0  0  0  0
   19.3010   35.2837   18.6354 C   0  0  0  0  0  0  0  0  0  0  0  0
   22.4382   32.2963   16.2242 C   0  0  0  0  0  0  0  0  0  0  0  0
   23.3025   32.4874   14.9706 C   0  0  0  0  0  0  0  0  0  0  0  0
   22.5141   33.0422   13.7845 C   0  0  0  0  0  0  0  0  0  0  0  0
   24.5014   33.3627   15.3189 C   0  0  0  0  0  0  0  0  0  0  0  0
   19.7959   30.1878   14.6054 C   0  0  0  0  0  0  0  0  0  0  0  0
   20.6426   29.2104   13.9352 N   0  0  0  0  0  0  0  0  0  0  0  0
   21.3526   29.4344   12.8359 C   0  0  0  0  0  0  0  0  0  0  0  0
   21.4406   30.5043   12.2479 O   0  0  0  0  0  0  0  0  0  0  0  0
   20.6925   28.3098   14.3297 H   0  0  0  0  0  0  0  0  0  0  0  0
   22.0296   28.2510   12.2283 C   0  0  0  0  0  0  0  0  0  0  0  0
   23.4289   28.2546   12.1938 C   0  0  0  0  0  0  0  0  0  0  0  0
   24.1411   27.1744   11.6742 C   0  0  0  0  0  0  0  0  0  0  0  0
   23.4467   26.0668   11.2122 C   0  0  0  0  0  0  0  0  0  0  0  0
   22.0531   26.0606   11.2733 C   0  0  0  0  0  0  0  0  0  0  0  0
   21.3733   24.9834   10.8147 O   0  0  0  0  0  0  0  0  0  0  0  0
   21.3403   27.1420   11.7784 C   0  0  0  0  0  0  0  0  0  0  0  0
   21.8394   24.2467   10.4712 H   0  0  0  0  0  0  0  0  0  0  0  0
   18.4270   29.4883   14.6528 C   0  0  0  0  0  0  0  0  0  0  0  0
   18.0876   28.8782   13.2997 C   0  0  0  0  0  0  0  0  0  0  0  0
   17.7618   29.7124   12.2226 C   0  0  0  0  0  0  0  0  0  0  0  0
   17.4288   29.1758   10.9891 C   0  0  0  0  0  0  0  0  0  0  0  0
   17.4235   27.7988   10.8051 C   0  0  0  0  0  0  0  0  0  0  0  0
   17.7423   26.9604   11.8687 C   0  0  0  0  0  0  0  0  0  0  0  0
   18.0763   27.5017   13.1120 C   0  0  0  0  0  0  0  0  0  0  0  0
  6  7  2  0  0  0
  7  8  2  0  0  0
  7  5  1  0  0  0
  7  9  1  0  0  0
  9 10  2  0  0  0
  9 17  1  0  0  0
 10 11  1  0  0  0
 11 12  1  0  0  0
 11 15  2  0  0  0
 12 13  1  0  0  0
 13 14  2  0  0  0
 14 15  1  0  0  0
 15 16  1  0  0  0
 16 17  2  0  0  0
  5  4  1  0  0  0
  5 18  1  0  0  0
 18 19  1  0  0  0
 19 20  1  0  0  0
 19 21  1  0  0  0
  4  1  1  0  0  0
  1 22  1  0  0  0
  1  2  1  0  0  0
 22 23  1  0  0  0
 22 35  1  0  0  0
 35 36  1  0  0  0
 36 41  2  0  0  0
 36 37  1  0  0  0
 37 38  2  0  0  0
 38 39  1  0  0  0
 39 40  2  0  0  0
 40 41  1  0  0  0
 23 24  1  0  0  0
 24 27  1  0  0  0
 24 25  2  0  0  0
 27 28  2  0  0  0
 27 33  1  0  0  0
 28 29  1  0  0  0
 29 30  2  0  0  0
 30 31  1  0  0  0
 31 32  1  0  0  0
 31 33  2  0  0  0
  2  3  1  0  0  0
 23 26  1  0  0  0
 32 34  1  0  0  0
M  END
> <minimizedAffinity>
-9.33732

$$$$
