2Y7X_MZA_A_1246


 34 38  0  0  0  0  0  0  0  0999 V2000
    5.8583    4.4136   20.8411 N   0  0  0  0  0  0  0  0  0  0  0  0
    6.3972    5.4688   21.5167 C   0  0  0  0  0  0  0  0  0  0  0  0
    7.5827    5.7717   21.6116 O   0  0  0  0  0  0  0  0  0  0  0  0
    4.3964    4.4115   20.8232 C   0  0  0  0  0  0  0  0  0  0  0  0
    4.0069    5.7970   21.3604 C   0  0  0  0  0  0  0  0  0  0  0  0
    5.2482    6.2349   22.1534 C   0  0  0  0  0  0  0  0  0  0  0  0
    7.6155    4.8372   18.6645 F   0  0  0  0  0  0  0  0  0  0  0  0
    7.4899    3.5955   19.1630 C   0  0  0  0  0  0  0  0  0  0  0  0
    8.2239    2.5378   18.5972 C   0  0  0  0  0  0  0  0  0  0  0  0
    9.1658    2.7862   17.4266 C   0  0  0  0  0  0  0  0  0  0  0  0
   10.0317    1.5829   17.1121 C   0  0  0  0  0  0  0  0  0  0  0  0
    9.2611    0.3230   17.1817 N   0  0  0  0  0  0  0  0  0  0  0  0
    8.8403    0.0659   18.5783 C   0  0  0  0  0  0  0  0  0  0  0  0
    8.0713    1.2430   19.1464 C   0  0  0  0  0  0  0  0  0  0  0  0
    7.2099    1.0068   20.2237 C   0  0  0  0  0  0  0  0  0  0  0  0
    6.4890    2.0730   20.7644 C   0  0  0  0  0  0  0  0  0  0  0  0
    6.6167    3.3798   20.2388 C   0  0  0  0  0  0  0  0  0  0  0  0
    9.8441   -0.4483   16.8566 H   0  0  0  0  0  0  0  0  0  0  0  0
    5.5003    7.6659   22.0662 N   0  0  0  0  0  0  0  0  0  0  0  0
    4.6911    8.0679   21.5930 H   0  0  0  0  0  0  0  0  0  0  0  0
    5.7586    8.5847   23.3739 S   0  0  0  0  0  0  0  0  0  0  0  0
    5.5178    9.9106   22.9212 O   0  0  0  0  0  0  0  0  0  0  0  0
    4.9271    8.0818   24.4051 O   0  0  0  0  0  0  0  0  0  0  0  0
    7.4779    8.3932   23.8249 C   0  0  0  0  0  0  0  0  0  0  0  0
    7.8234    7.7548   24.9975 C   0  0  0  0  0  0  0  0  0  0  0  0
    8.4632    8.8758   22.9595 C   0  0  0  0  0  0  0  0  0  0  0  0
    9.7984    8.7503   23.2379 C   0  0  0  0  0  0  0  0  0  0  0  0
   10.1864    8.0966   24.4396 C   0  0  0  0  0  0  0  0  0  0  0  0
   11.5435    7.9272   24.7817 C   0  0  0  0  0  0  0  0  0  0  0  0
   11.8697    7.3065   25.9566 C   0  0  0  0  0  0  0  0  0  0  0  0
   13.5389    7.1238   26.3762 Cl  0  0  0  0  0  0  0  0  0  0  0  0
    9.1936    7.5856   25.3308 C   0  0  0  0  0  0  0  0  0  0  0  0
    9.5770    6.9428   26.5278 C   0  0  0  0  0  0  0  0  0  0  0  0
   10.8988    6.8177   26.8250 C   0  0  0  0  0  0  0  0  0  0  0  0
  7  8  1  0  0  0
  8  9  1  0  0  0
  8 17  2  0  0  0
  9 10  1  0  0  0
  9 14  2  0  0  0
 10 11  1  0  0  0
 11 12  1  0  0  0
 12 13  1  0  0  0
 13 14  1  0  0  0
 14 15  1  0  0  0
 15 16  2  0  0  0
 16 17  1  0  0  0
 17  1  1  0  0  0
  1  2  1  0  0  0
  1  4  1  0  0  0
  2  3  2  0  0  0
  2  6  1  0  0  0
  4  5  1  0  0  0
  5  6  1  0  0  0
  6 19  1  0  0  0
 19 21  1  0  0  0
 21 22  2  0  0  0
 21 23  2  0  0  0
 21 24  1  0  0  0
 24 25  1  0  0  0
 24 26  2  0  0  0
 25 32  2  0  0  0
 26 27  1  0  0  0
 27 28  2  0  0  0
 28 29  1  0  0  0
 28 32  1  0  0  0
 29 30  2  0  0  0
 30 31  1  0  0  0
 30 34  1  0  0  0
 32 33  1  0  0  0
 33 34  2  0  0  0
 12 18  1  0  0  0
 19 20  1  0  0  0
M  END
> <minimizedAffinity>
-11.14238

$$$$
2Y7X_MZA_A_1246


 34 38  0  0  0  0  0  0  0  0999 V2000
    5.7797    5.1692   19.7006 N   0  0  0  0  0  0  0  0  0  0  0  0
    6.2945    6.2422   20.3671 C   0  0  0  0  0  0  0  0  0  0  0  0
    7.4423    6.3914   20.7749 O   0  0  0  0  0  0  0  0  0  0  0  0
    4.4046    5.3647   19.2444 C   0  0  0  0  0  0  0  0  0  0  0  0
    4.1414    6.8629   19.4590 C   0  0  0  0  0  0  0  0  0  0  0  0
    5.1741    7.2581   20.5261 C   0  0  0  0  0  0  0  0  0  0  0  0
    7.8469    4.8636   17.7932 F   0  0  0  0  0  0  0  0  0  0  0  0
    7.5003    3.8065   18.5473 C   0  0  0  0  0  0  0  0  0  0  0  0
    8.1620    2.5777   18.3743 C   0  0  0  0  0  0  0  0  0  0  0  0
    9.2732    2.4335   17.3431 C   0  0  0  0  0  0  0  0  0  0  0  0
   10.0130    1.1166   17.4664 C   0  0  0  0  0  0  0  0  0  0  0  0
    9.0863   -0.0090   17.7115 N   0  0  0  0  0  0  0  0  0  0  0  0
    8.4565    0.1374   19.0441 C   0  0  0  0  0  0  0  0  0  0  0  0
    7.7753    1.4850   19.1853 C   0  0  0  0  0  0  0  0  0  0  0  0
    6.7570    1.6099   20.1369 C   0  0  0  0  0  0  0  0  0  0  0  0
    6.1127    2.8393   20.2861 C   0  0  0  0  0  0  0  0  0  0  0  0
    6.4732    3.9520   19.4908 C   0  0  0  0  0  0  0  0  0  0  0  0
    9.6041   -0.8870   17.6768 H   0  0  0  0  0  0  0  0  0  0  0  0
    5.6969    8.6035   20.3377 N   0  0  0  0  0  0  0  0  0  0  0  0
    5.1402    9.0220   19.5925 H   0  0  0  0  0  0  0  0  0  0  0  0
    5.7411    9.6947   21.5327 S   0  0  0  0  0  0  0  0  0  0  0  0
    6.3667   10.8286   20.9463 O   0  0  0  0  0  0  0  0  0  0  0  0
    4.4137    9.8476   22.0042 O   0  0  0  0  0  0  0  0  0  0  0  0
    6.7770    9.0228   22.8257 C   0  0  0  0  0  0  0  0  0  0  0  0
    8.1500    9.1173   22.7377 C   0  0  0  0  0  0  0  0  0  0  0  0
    6.1737    8.4262   23.9358 C   0  0  0  0  0  0  0  0  0  0  0  0
    6.9077    7.9037   24.9675 C   0  0  0  0  0  0  0  0  0  0  0  0
    8.3260    7.9858   24.9059 C   0  0  0  0  0  0  0  0  0  0  0  0
    9.1396    7.4751   25.9376 C   0  0  0  0  0  0  0  0  0  0  0  0
   10.5007    7.5616   25.8277 C   0  0  0  0  0  0  0  0  0  0  0  0
   11.4895    6.9114   27.0907 Cl  0  0  0  0  0  0  0  0  0  0  0  0
    8.9606    8.6033   23.7846 C   0  0  0  0  0  0  0  0  0  0  0  0
   10.3687    8.6791   23.7185 C   0  0  0  0  0  0  0  0  0  0  0  0
   11.1140    8.1567   24.7299 C   0  0  0  0  0  0  0  0  0  0  0  0
  7  8  1  0  0  0
  8  9  1  0  0  0
  8 17  2  0  0  0
  9 10  1  0  0  0
  9 14  2  0  0  0
 10 11  1  0  0  0
 11 12  1  0  0  0
 12 13  1  0  0  0
 13 14  1  0  0  0
 14 15  1  0  0  0
 15 16  2  0  0  0
 16 17  1  0  0  0
 17  1  1  0  0  0
  1  2  1  0  0  0
  1  4  1  0  0  0
  2  3  2  0  0  0
  2  6  1  0  0  0
  4  5  1  0  0  0
  5  6  1  0  0  0
  6 19  1  0  0  0
 19 21  1  0  0  0
 21 22  2  0  0  0
 21 23  2  0  0  0
 21 24  1  0  0  0
 24 25  1  0  0  0
 24 26  2  0  0  0
 25 32  2  0  0  0
 26 27  1  0  0  0
 27 28  2  0  0  0
 28 29  1  0  0  0
 28 32  1  0  0  0
 29 30  2  0  0  0
 30 31  1  0  0  0
 30 34  1  0  0  0
 32 33  1  0  0  0
 33 34  2  0  0  0
 12 18  1  0  0  0
 19 20  1  0  0  0
M  END
> <minimizedAffinity>
-10.28152

$$$$
2Y7X_MZA_A_1246


 34 38  0  0  0  0  0  0  0  0999 V2000
    6.7159    7.5029   20.7504 N   0  0  0  0  0  0  0  0  0  0  0  0
    6.6073    6.3541   20.0232 C   0  0  0  0  0  0  0  0  0  0  0  0
    6.8365    5.2071   20.3946 O   0  0  0  0  0  0  0  0  0  0  0  0
    6.2443    8.6929   20.0441 C   0  0  0  0  0  0  0  0  0  0  0  0
    5.5258    8.1400   18.8040 C   0  0  0  0  0  0  0  0  0  0  0  0
    6.1386    6.7417   18.6294 C   0  0  0  0  0  0  0  0  0  0  0  0
    9.3394    8.4185   21.2831 F   0  0  0  0  0  0  0  0  0  0  0  0
    8.5668    8.0327   22.3128 C   0  0  0  0  0  0  0  0  0  0  0  0
    9.0719    8.0867   23.6242 C   0  0  0  0  0  0  0  0  0  0  0  0
   10.4864    8.5838   23.8906 C   0  0  0  0  0  0  0  0  0  0  0  0
   10.7626    8.7863   25.3669 C   0  0  0  0  0  0  0  0  0  0  0  0
   10.2034    7.6872   26.1824 N   0  0  0  0  0  0  0  0  0  0  0  0
    8.7238    7.7159   26.1206 C   0  0  0  0  0  0  0  0  0  0  0  0
    8.2327    7.6759   24.6863 C   0  0  0  0  0  0  0  0  0  0  0  0
    6.9308    7.2202   24.4502 C   0  0  0  0  0  0  0  0  0  0  0  0
    6.4545    7.1721   23.1388 C   0  0  0  0  0  0  0  0  0  0  0  0
    7.2673    7.5739   22.0533 C   0  0  0  0  0  0  0  0  0  0  0  0
   10.5036    7.7982   27.1509 H   0  0  0  0  0  0  0  0  0  0  0  0
    5.1811    5.7607   18.1397 N   0  0  0  0  0  0  0  0  0  0  0  0
    4.2685    6.2151   18.1715 H   0  0  0  0  0  0  0  0  0  0  0  0
    5.2980    5.0891   16.6713 S   0  0  0  0  0  0  0  0  0  0  0  0
    3.9551    4.7815   16.3209 O   0  0  0  0  0  0  0  0  0  0  0  0
    5.9971    6.0076   15.8495 O   0  0  0  0  0  0  0  0  0  0  0  0
    6.2453    3.5836   16.8510 C   0  0  0  0  0  0  0  0  0  0  0  0
    7.5867    3.6383   17.1663 C   0  0  0  0  0  0  0  0  0  0  0  0
    5.6001    2.3543   16.6936 C   0  0  0  0  0  0  0  0  0  0  0  0
    6.2633    1.1637   16.8305 C   0  0  0  0  0  0  0  0  0  0  0  0
    7.6474    1.1871   17.1555 C   0  0  0  0  0  0  0  0  0  0  0  0
    8.3867   -0.0020   17.3186 C   0  0  0  0  0  0  0  0  0  0  0  0
    9.7206    0.0692   17.6149 C   0  0  0  0  0  0  0  0  0  0  0  0
   10.6225   -1.3975   17.7913 Cl  0  0  0  0  0  0  0  0  0  0  0  0
    8.3215    2.4343   17.3326 C   0  0  0  0  0  0  0  0  0  0  0  0
    9.6974    2.4594   17.6480 C   0  0  0  0  0  0  0  0  0  0  0  0
   10.3742    1.2864   17.7785 C   0  0  0  0  0  0  0  0  0  0  0  0
  7  8  1  0  0  0
  8  9  1  0  0  0
  8 17  2  0  0  0
  9 10  1  0  0  0
  9 14  2  0  0  0
 10 11  1  0  0  0
 11 12  1  0  0  0
 12 13  1  0  0  0
 13 14  1  0  0  0
 14 15  1  0  0  0
 15 16  2  0  0  0
 16 17  1  0  0  0
 17  1  1  0  0  0
  1  2  1  0  0  0
  1  4  1  0  0  0
  2  3  2  0  0  0
  2  6  1  0  0  0
  4  5  1  0  0  0
  5  6  1  0  0  0
  6 19  1  0  0  0
 19 21  1  0  0  0
 21 22  2  0  0  0
 21 23  2  0  0  0
 21 24  1  0  0  0
 24 25  1  0  0  0
 24 26  2  0  0  0
 25 32  2  0  0  0
 26 27  1  0  0  0
 27 28  2  0  0  0
 28 29  1  0  0  0
 28 32  1  0  0  0
 29 30  2  0  0  0
 30 31  1  0  0  0
 30 34  1  0  0  0
 32 33  1  0  0  0
 33 34  2  0  0  0
 12 18  1  0  0  0
 19 20  1  0  0  0
M  END
> <minimizedAffinity>
-9.98142

$$$$
2Y7X_MZA_A_1246


 34 38  0  0  0  0  0  0  0  0999 V2000
    5.7883    7.1451   21.7635 N   0  0  0  0  0  0  0  0  0  0  0  0
    5.7251    6.1730   20.8088 C   0  0  0  0  0  0  0  0  0  0  0  0
    6.6287    5.4340   20.4302 O   0  0  0  0  0  0  0  0  0  0  0  0
    4.4960    7.7587   22.0646 C   0  0  0  0  0  0  0  0  0  0  0  0
    3.4722    6.8555   21.3604 C   0  0  0  0  0  0  0  0  0  0  0  0
    4.3018    6.1542   20.2736 C   0  0  0  0  0  0  0  0  0  0  0  0
    6.4047    6.5976   24.4700 F   0  0  0  0  0  0  0  0  0  0  0  0
    7.2876    7.2925   23.7327 C   0  0  0  0  0  0  0  0  0  0  0  0
    8.4893    7.7345   24.3145 C   0  0  0  0  0  0  0  0  0  0  0  0
    8.8035    7.4287   25.7729 C   0  0  0  0  0  0  0  0  0  0  0  0
   10.2293    7.7812   26.1463 C   0  0  0  0  0  0  0  0  0  0  0  0
   10.6432    9.0738   25.5601 N   0  0  0  0  0  0  0  0  0  0  0  0
   10.7111    8.9598   24.0849 C   0  0  0  0  0  0  0  0  0  0  0  0
    9.3988    8.4614   23.5110 C   0  0  0  0  0  0  0  0  0  0  0  0
    9.1187    8.7443   22.1694 C   0  0  0  0  0  0  0  0  0  0  0  0
    7.9169    8.2982   21.6168 C   0  0  0  0  0  0  0  0  0  0  0  0
    6.9845    7.5702   22.3921 C   0  0  0  0  0  0  0  0  0  0  0  0
   11.5615    9.3308   25.9221 H   0  0  0  0  0  0  0  0  0  0  0  0
    3.8809    4.7809   20.0374 N   0  0  0  0  0  0  0  0  0  0  0  0
    2.9225    4.7154   20.3802 H   0  0  0  0  0  0  0  0  0  0  0  0
    3.8775    4.1138   18.5624 S   0  0  0  0  0  0  0  0  0  0  0  0
    2.6372    3.4224   18.4955 O   0  0  0  0  0  0  0  0  0  0  0  0
    4.0966    5.1607   17.6330 O   0  0  0  0  0  0  0  0  0  0  0  0
    5.2329    2.9493   18.5043 C   0  0  0  0  0  0  0  0  0  0  0  0
    6.4696    3.3428   18.0378 C   0  0  0  0  0  0  0  0  0  0  0  0
    5.0262    1.6457   18.9629 C   0  0  0  0  0  0  0  0  0  0  0  0
    6.0246    0.7080   18.9585 C   0  0  0  0  0  0  0  0  0  0  0  0
    7.3112    1.0834   18.4834 C   0  0  0  0  0  0  0  0  0  0  0  0
    8.3841    0.1692   18.4597 C   0  0  0  0  0  0  0  0  0  0  0  0
    9.6005    0.5702   17.9783 C   0  0  0  0  0  0  0  0  0  0  0  0
   10.9041   -0.5674   17.9340 Cl  0  0  0  0  0  0  0  0  0  0  0  0
    7.5449    2.4152   18.0220 C   0  0  0  0  0  0  0  0  0  0  0  0
    8.8198    2.7875   17.5432 C   0  0  0  0  0  0  0  0  0  0  0  0
    9.8207    1.8661   17.5227 C   0  0  0  0  0  0  0  0  0  0  0  0
  7  8  1  0  0  0
  8  9  1  0  0  0
  8 17  2  0  0  0
  9 10  1  0  0  0
  9 14  2  0  0  0
 10 11  1  0  0  0
 11 12  1  0  0  0
 12 13  1  0  0  0
 13 14  1  0  0  0
 14 15  1  0  0  0
 15 16  2  0  0  0
 16 17  1  0  0  0
 17  1  1  0  0  0
  1  2  1  0  0  0
  1  4  1  0  0  0
  2  3  2  0  0  0
  2  6  1  0  0  0
  4  5  1  0  0  0
  5  6  1  0  0  0
  6 19  1  0  0  0
 19 21  1  0  0  0
 21 22  2  0  0  0
 21 23  2  0  0  0
 21 24  1  0  0  0
 24 25  1  0  0  0
 24 26  2  0  0  0
 25 32  2  0  0  0
 26 27  1  0  0  0
 27 28  2  0  0  0
 28 29  1  0  0  0
 28 32  1  0  0  0
 29 30  2  0  0  0
 30 31  1  0  0  0
 30 34  1  0  0  0
 32 33  1  0  0  0
 33 34  2  0  0  0
 12 18  1  0  0  0
 19 20  1  0  0  0
M  END
> <minimizedAffinity>
-9.70322

$$$$
2Y7X_MZA_A_1246


 34 38  0  0  0  0  0  0  0  0999 V2000
    4.2518    8.0883   22.3747 N   0  0  0  0  0  0  0  0  0  0  0  0
    4.2490    6.7977   21.9336 C   0  0  0  0  0  0  0  0  0  0  0  0
    4.7090    6.3638   20.8818 O   0  0  0  0  0  0  0  0  0  0  0  0
    3.7333    8.2469   23.7325 C   0  0  0  0  0  0  0  0  0  0  0  0
    3.6297    6.8118   24.2707 C   0  0  0  0  0  0  0  0  0  0  0  0
    3.5596    5.9561   22.9962 C   0  0  0  0  0  0  0  0  0  0  0  0
    6.7564    9.3612   22.7081 F   0  0  0  0  0  0  0  0  0  0  0  0
    5.9169    9.8212   21.7648 C   0  0  0  0  0  0  0  0  0  0  0  0
    6.2926   10.9188   20.9700 C   0  0  0  0  0  0  0  0  0  0  0  0
    7.6458   11.5898   21.1639 C   0  0  0  0  0  0  0  0  0  0  0  0
    7.9591   12.5922   20.0712 C   0  0  0  0  0  0  0  0  0  0  0  0
    6.7764   13.4084   19.7241 N   0  0  0  0  0  0  0  0  0  0  0  0
    5.7413   12.5549   19.0966 C   0  0  0  0  0  0  0  0  0  0  0  0
    5.3875   11.3773   19.9842 C   0  0  0  0  0  0  0  0  0  0  0  0
    4.1432   10.7646   19.7980 C   0  0  0  0  0  0  0  0  0  0  0  0
    3.7922    9.6794   20.6030 C   0  0  0  0  0  0  0  0  0  0  0  0
    4.6726    9.1963   21.5990 C   0  0  0  0  0  0  0  0  0  0  0  0
    7.0516   14.1419   19.0708 H   0  0  0  0  0  0  0  0  0  0  0  0
    4.2425    4.6779   23.1338 N   0  0  0  0  0  0  0  0  0  0  0  0
    4.2704    4.4778   24.1336 H   0  0  0  0  0  0  0  0  0  0  0  0
    3.7102    3.3262   22.4194 S   0  0  0  0  0  0  0  0  0  0  0  0
    3.4360    2.4453   23.5009 O   0  0  0  0  0  0  0  0  0  0  0  0
    2.6274    3.6972   21.5841 O   0  0  0  0  0  0  0  0  0  0  0  0
    5.0546    2.6844   21.4311 C   0  0  0  0  0  0  0  0  0  0  0  0
    5.7568    3.5174   20.5855 C   0  0  0  0  0  0  0  0  0  0  0  0
    5.3983    1.3352   21.5492 C   0  0  0  0  0  0  0  0  0  0  0  0
    6.4256    0.7824   20.8314 C   0  0  0  0  0  0  0  0  0  0  0  0
    7.1686    1.6158   19.9509 C   0  0  0  0  0  0  0  0  0  0  0  0
    8.2426    1.1118   19.1895 C   0  0  0  0  0  0  0  0  0  0  0  0
    8.9187    1.9472   18.3427 C   0  0  0  0  0  0  0  0  0  0  0  0
   10.2215    1.3118   17.3969 Cl  0  0  0  0  0  0  0  0  0  0  0  0
    6.8399    3.0006   19.8260 C   0  0  0  0  0  0  0  0  0  0  0  0
    7.5719    3.8277   18.9468 C   0  0  0  0  0  0  0  0  0  0  0  0
    8.5895    3.2932   18.2187 C   0  0  0  0  0  0  0  0  0  0  0  0
  7  8  1  0  0  0
  8  9  1  0  0  0
  8 17  2  0  0  0
  9 10  1  0  0  0
  9 14  2  0  0  0
 10 11  1  0  0  0
 11 12  1  0  0  0
 12 13  1  0  0  0
 13 14  1  0  0  0
 14 15  1  0  0  0
 15 16  2  0  0  0
 16 17  1  0  0  0
 17  1  1  0  0  0
  1  2  1  0  0  0
  1  4  1  0  0  0
  2  3  2  0  0  0
  2  6  1  0  0  0
  4  5  1  0  0  0
  5  6  1  0  0  0
  6 19  1  0  0  0
 19 21  1  0  0  0
 21 22  2  0  0  0
 21 23  2  0  0  0
 21 24  1  0  0  0
 24 25  1  0  0  0
 24 26  2  0  0  0
 25 32  2  0  0  0
 26 27  1  0  0  0
 27 28  2  0  0  0
 28 29  1  0  0  0
 28 32  1  0  0  0
 29 30  2  0  0  0
 30 31  1  0  0  0
 30 34  1  0  0  0
 32 33  1  0  0  0
 33 34  2  0  0  0
 12 18  1  0  0  0
 19 20  1  0  0  0
M  END
> <minimizedAffinity>
-9.52555

$$$$
2Y7X_MZA_A_1246


 34 38  0  0  0  0  0  0  0  0999 V2000
    5.8454   10.7541   19.3446 N   0  0  0  0  0  0  0  0  0  0  0  0
    5.2206    9.7385   20.0068 C   0  0  0  0  0  0  0  0  0  0  0  0
    4.4764    8.8831   19.5371 O   0  0  0  0  0  0  0  0  0  0  0  0
    6.7657   11.5230   20.1809 C   0  0  0  0  0  0  0  0  0  0  0  0
    6.8904   10.6964   21.4696 C   0  0  0  0  0  0  0  0  0  0  0  0
    5.6122    9.8435   21.4725 C   0  0  0  0  0  0  0  0  0  0  0  0
    7.2456    9.5625   17.1941 F   0  0  0  0  0  0  0  0  0  0  0  0
    6.3077   10.4862   16.9234 C   0  0  0  0  0  0  0  0  0  0  0  0
    6.0436   10.8438   15.5893 C   0  0  0  0  0  0  0  0  0  0  0  0
    6.8071   10.1901   14.4453 C   0  0  0  0  0  0  0  0  0  0  0  0
    6.2254   10.5319   13.0883 C   0  0  0  0  0  0  0  0  0  0  0  0
    5.8478   11.9585   13.0001 N   0  0  0  0  0  0  0  0  0  0  0  0
    4.7201   12.2393   13.9185 C   0  0  0  0  0  0  0  0  0  0  0  0
    5.0487   11.8175   15.3376 C   0  0  0  0  0  0  0  0  0  0  0  0
    4.3408   12.4211   16.3830 C   0  0  0  0  0  0  0  0  0  0  0  0
    4.6249   12.0519   17.6990 C   0  0  0  0  0  0  0  0  0  0  0  0
    5.6143   11.0829   17.9863 C   0  0  0  0  0  0  0  0  0  0  0  0
    5.5673   12.1756   12.0438 H   0  0  0  0  0  0  0  0  0  0  0  0
    5.8203    8.5128   22.0247 N   0  0  0  0  0  0  0  0  0  0  0  0
    6.6961    8.1744   21.6260 H   0  0  0  0  0  0  0  0  0  0  0  0
    5.9150    8.2369   23.6170 S   0  0  0  0  0  0  0  0  0  0  0  0
    5.3462    9.3988   24.2064 O   0  0  0  0  0  0  0  0  0  0  0  0
    5.2757    6.9963   23.8620 O   0  0  0  0  0  0  0  0  0  0  0  0
    7.6501    8.1247   24.0332 C   0  0  0  0  0  0  0  0  0  0  0  0
    8.0462    7.5334   25.2144 C   0  0  0  0  0  0  0  0  0  0  0  0
    8.5963    8.6204   23.1324 C   0  0  0  0  0  0  0  0  0  0  0  0
    9.9412    8.5545   23.3830 C   0  0  0  0  0  0  0  0  0  0  0  0
   10.3811    7.9503   24.5928 C   0  0  0  0  0  0  0  0  0  0  0  0
   11.7509    7.8431   24.9079 C   0  0  0  0  0  0  0  0  0  0  0  0
   12.1271    7.2687   26.0914 C   0  0  0  0  0  0  0  0  0  0  0  0
   13.8111    7.1625   26.4770 Cl  0  0  0  0  0  0  0  0  0  0  0  0
    9.4290    7.4266   25.5204 C   0  0  0  0  0  0  0  0  0  0  0  0
    9.8637    6.8330   26.7253 C   0  0  0  0  0  0  0  0  0  0  0  0
   11.1956    6.7675   26.9950 C   0  0  0  0  0  0  0  0  0  0  0  0
  7  8  1  0  0  0
  8  9  1  0  0  0
  8 17  2  0  0  0
  9 10  1  0  0  0
  9 14  2  0  0  0
 10 11  1  0  0  0
 11 12  1  0  0  0
 12 13  1  0  0  0
 13 14  1  0  0  0
 14 15  1  0  0  0
 15 16  2  0  0  0
 16 17  1  0  0  0
 17  1  1  0  0  0
  1  2  1  0  0  0
  1  4  1  0  0  0
  2  3  2  0  0  0
  2  6  1  0  0  0
  4  5  1  0  0  0
  5  6  1  0  0  0
  6 19  1  0  0  0
 19 21  1  0  0  0
 21 22  2  0  0  0
 21 23  2  0  0  0
 21 24  1  0  0  0
 24 25  1  0  0  0
 24 26  2  0  0  0
 25 32  2  0  0  0
 26 27  1  0  0  0
 27 28  2  0  0  0
 28 29  1  0  0  0
 28 32  1  0  0  0
 29 30  2  0  0  0
 30 31  1  0  0  0
 30 34  1  0  0  0
 32 33  1  0  0  0
 33 34  2  0  0  0
 12 18  1  0  0  0
 19 20  1  0  0  0
M  END
> <minimizedAffinity>
-8.99816

$$$$
2Y7X_MZA_A_1246


 34 38  0  0  0  0  0  0  0  0999 V2000
    3.7280    6.6197   23.3990 N   0  0  0  0  0  0  0  0  0  0  0  0
    3.7487    5.3232   22.9758 C   0  0  0  0  0  0  0  0  0  0  0  0
    4.6384    4.7521   22.3525 O   0  0  0  0  0  0  0  0  0  0  0  0
    2.5696    6.9492   24.2279 C   0  0  0  0  0  0  0  0  0  0  0  0
    1.9295    5.5895   24.5458 C   0  0  0  0  0  0  0  0  0  0  0  0
    2.4441    4.6798   23.4194 C   0  0  0  0  0  0  0  0  0  0  0  0
    6.2563    6.8089   24.6546 F   0  0  0  0  0  0  0  0  0  0  0  0
    5.9544    7.6759   23.6731 C   0  0  0  0  0  0  0  0  0  0  0  0
    6.8896    8.6550   23.2933 C   0  0  0  0  0  0  0  0  0  0  0  0
    8.2460    8.7399   23.9804 C   0  0  0  0  0  0  0  0  0  0  0  0
    9.1918    9.6967   23.2827 C   0  0  0  0  0  0  0  0  0  0  0  0
    8.5024   10.9345   22.8604 N   0  0  0  0  0  0  0  0  0  0  0  0
    7.5130   10.6247   21.8026 C   0  0  0  0  0  0  0  0  0  0  0  0
    6.5423    9.5510   22.2552 C   0  0  0  0  0  0  0  0  0  0  0  0
    5.2990    9.4780   21.6170 C   0  0  0  0  0  0  0  0  0  0  0  0
    4.3864    8.4997   22.0156 C   0  0  0  0  0  0  0  0  0  0  0  0
    4.7006    7.5888   23.0510 C   0  0  0  0  0  0  0  0  0  0  0  0
    9.1884   11.5969   22.4983 H   0  0  0  0  0  0  0  0  0  0  0  0
    2.6917    3.3152   23.8616 N   0  0  0  0  0  0  0  0  0  0  0  0
    2.3601    3.2650   24.8248 H   0  0  0  0  0  0  0  0  0  0  0  0
    2.0671    2.0285   23.1034 S   0  0  0  0  0  0  0  0  0  0  0  0
    2.1390    0.9868   24.0680 O   0  0  0  0  0  0  0  0  0  0  0  0
    0.7828    2.4044   22.6375 O   0  0  0  0  0  0  0  0  0  0  0  0
    3.1366    1.6580   21.7195 C   0  0  0  0  0  0  0  0  0  0  0  0
    4.4944    1.5087   21.9091 C   0  0  0  0  0  0  0  0  0  0  0  0
    2.5724    1.4964   20.4515 C   0  0  0  0  0  0  0  0  0  0  0  0
    3.3324    1.1989   19.3515 C   0  0  0  0  0  0  0  0  0  0  0  0
    4.7359    1.0387   19.5148 C   0  0  0  0  0  0  0  0  0  0  0  0
    5.5738    0.7245   18.4256 C   0  0  0  0  0  0  0  0  0  0  0  0
    6.9210    0.5961   18.6270 C   0  0  0  0  0  0  0  0  0  0  0  0
    7.9423    0.2316   17.2780 Cl  0  0  0  0  0  0  0  0  0  0  0  0
    5.3293    1.1879   20.8058 C   0  0  0  0  0  0  0  0  0  0  0  0
    6.7234    1.0363   20.9684 C   0  0  0  0  0  0  0  0  0  0  0  0
    7.4950    0.7503   19.8849 C   0  0  0  0  0  0  0  0  0  0  0  0
  7  8  1  0  0  0
  8  9  1  0  0  0
  8 17  2  0  0  0
  9 10  1  0  0  0
  9 14  2  0  0  0
 10 11  1  0  0  0
 11 12  1  0  0  0
 12 13  1  0  0  0
 13 14  1  0  0  0
 14 15  1  0  0  0
 15 16  2  0  0  0
 16 17  1  0  0  0
 17  1  1  0  0  0
  1  2  1  0  0  0
  1  4  1  0  0  0
  2  3  2  0  0  0
  2  6  1  0  0  0
  4  5  1  0  0  0
  5  6  1  0  0  0
  6 19  1  0  0  0
 19 21  1  0  0  0
 21 22  2  0  0  0
 21 23  2  0  0  0
 21 24  1  0  0  0
 24 25  1  0  0  0
 24 26  2  0  0  0
 25 32  2  0  0  0
 26 27  1  0  0  0
 27 28  2  0  0  0
 28 29  1  0  0  0
 28 32  1  0  0  0
 29 30  2  0  0  0
 30 31  1  0  0  0
 30 34  1  0  0  0
 32 33  1  0  0  0
 33 34  2  0  0  0
 12 18  1  0  0  0
 19 20  1  0  0  0
M  END
> <minimizedAffinity>
-8.64006

$$$$
2Y7X_MZA_A_1246


 34 38  0  0  0  0  0  0  0  0999 V2000
    3.9487    6.4283   22.6732 N   0  0  0  0  0  0  0  0  0  0  0  0
    4.0689    5.2075   22.0769 C   0  0  0  0  0  0  0  0  0  0  0  0
    5.0208    4.7784   21.4320 O   0  0  0  0  0  0  0  0  0  0  0  0
    2.7337    6.5752   23.4729 C   0  0  0  0  0  0  0  0  0  0  0  0
    2.1630    5.1519   23.5635 C   0  0  0  0  0  0  0  0  0  0  0  0
    2.7860    4.4390   22.3531 C   0  0  0  0  0  0  0  0  0  0  0  0
    3.9571    8.1765   20.4486 F   0  0  0  0  0  0  0  0  0  0  0  0
    4.8736    8.3544   21.4153 C   0  0  0  0  0  0  0  0  0  0  0  0
    5.8142    9.3939   21.3037 C   0  0  0  0  0  0  0  0  0  0  0  0
    5.8017   10.3253   20.0991 C   0  0  0  0  0  0  0  0  0  0  0  0
    6.7308   11.5102   20.2711 C   0  0  0  0  0  0  0  0  0  0  0  0
    8.0181   11.1105   20.8784 N   0  0  0  0  0  0  0  0  0  0  0  0
    7.7999   10.6619   22.2731 C   0  0  0  0  0  0  0  0  0  0  0  0
    6.7642    9.5561   22.3393 C   0  0  0  0  0  0  0  0  0  0  0  0
    6.7809    8.7061   23.4508 C   0  0  0  0  0  0  0  0  0  0  0  0
    5.8392    7.6790   23.5357 C   0  0  0  0  0  0  0  0  0  0  0  0
    4.8763    7.4876   22.5176 C   0  0  0  0  0  0  0  0  0  0  0  0
    8.6554   11.9069   20.8751 H   0  0  0  0  0  0  0  0  0  0  0  0
    3.0946    3.0410   22.6161 N   0  0  0  0  0  0  0  0  0  0  0  0
    2.5585    2.7836   23.4448 H   0  0  0  0  0  0  0  0  0  0  0  0
    2.8290    1.8722   21.5279 S   0  0  0  0  0  0  0  0  0  0  0  0
    2.3267    0.7874   22.2972 O   0  0  0  0  0  0  0  0  0  0  0  0
    1.9825    2.4178   20.5312 O   0  0  0  0  0  0  0  0  0  0  0  0
    4.4117    1.4396   20.8179 C   0  0  0  0  0  0  0  0  0  0  0  0
    4.5191    1.1654   19.4706 C   0  0  0  0  0  0  0  0  0  0  0  0
    5.5391    1.4103   21.6428 C   0  0  0  0  0  0  0  0  0  0  0  0
    6.7831    1.0998   21.1610 C   0  0  0  0  0  0  0  0  0  0  0  0
    6.9262    0.8122   19.7758 C   0  0  0  0  0  0  0  0  0  0  0  0
    8.1794    0.4934   19.2146 C   0  0  0  0  0  0  0  0  0  0  0  0
    8.2666    0.2074   17.8794 C   0  0  0  0  0  0  0  0  0  0  0  0
    9.8071   -0.2039   17.2061 Cl  0  0  0  0  0  0  0  0  0  0  0  0
    5.7871    0.8494   18.9143 C   0  0  0  0  0  0  0  0  0  0  0  0
    5.9261    0.5570   17.5402 C   0  0  0  0  0  0  0  0  0  0  0  0
    7.1528    0.2371   17.0462 C   0  0  0  0  0  0  0  0  0  0  0  0
  7  8  1  0  0  0
  8  9  1  0  0  0
  8 17  2  0  0  0
  9 10  1  0  0  0
  9 14  2  0  0  0
 10 11  1  0  0  0
 11 12  1  0  0  0
 12 13  1  0  0  0
 13 14  1  0  0  0
 14 15  1  0  0  0
 15 16  2  0  0  0
 16 17  1  0  0  0
 17  1  1  0  0  0
  1  2  1  0  0  0
  1  4  1  0  0  0
  2  3  2  0  0  0
  2  6  1  0  0  0
  4  5  1  0  0  0
  5  6  1  0  0  0
  6 19  1  0  0  0
 19 21  1  0  0  0
 21 22  2  0  0  0
 21 23  2  0  0  0
 21 24  1  0  0  0
 24 25  1  0  0  0
 24 26  2  0  0  0
 25 32  2  0  0  0
 26 27  1  0  0  0
 27 28  2  0  0  0
 28 29  1  0  0  0
 28 32  1  0  0  0
 29 30  2  0  0  0
 30 31  1  0  0  0
 30 34  1  0  0  0
 32 33  1  0  0  0
 33 34  2  0  0  0
 12 18  1  0  0  0
 19 20  1  0  0  0
M  END
> <minimizedAffinity>
-8.63189

$$$$
2Y7X_MZA_A_1246


 34 38  0  0  0  0  0  0  0  0999 V2000
    5.6366    6.1164   19.8517 N   0  0  0  0  0  0  0  0  0  0  0  0
    5.0857    5.9037   21.0812 C   0  0  0  0  0  0  0  0  0  0  0  0
    5.1057    4.8705   21.7432 O   0  0  0  0  0  0  0  0  0  0  0  0
    5.5411    7.5024   19.3963 C   0  0  0  0  0  0  0  0  0  0  0  0
    5.0805    8.2805   20.6382 C   0  0  0  0  0  0  0  0  0  0  0  0
    4.4211    7.2020   21.5117 C   0  0  0  0  0  0  0  0  0  0  0  0
    4.1661    4.5637   17.9993 F   0  0  0  0  0  0  0  0  0  0  0  0
    5.4845    4.3384   18.1303 C   0  0  0  0  0  0  0  0  0  0  0  0
    6.1038    3.3420   17.3548 C   0  0  0  0  0  0  0  0  0  0  0  0
    5.2953    2.5175   16.3621 C   0  0  0  0  0  0  0  0  0  0  0  0
    6.1710    1.6662   15.4647 C   0  0  0  0  0  0  0  0  0  0  0  0
    7.2743    1.0345   16.2192 N   0  0  0  0  0  0  0  0  0  0  0  0
    8.2140    2.0725   16.7022 C   0  0  0  0  0  0  0  0  0  0  0  0
    7.4935    3.1312   17.5145 C   0  0  0  0  0  0  0  0  0  0  0  0
    8.2440    3.8863   18.4227 C   0  0  0  0  0  0  0  0  0  0  0  0
    7.6048    4.8665   19.1840 C   0  0  0  0  0  0  0  0  0  0  0  0
    6.2167    5.1025   19.0505 C   0  0  0  0  0  0  0  0  0  0  0  0
    7.7718    0.3848   15.6102 H   0  0  0  0  0  0  0  0  0  0  0  0
    4.6343    7.4175   22.9354 N   0  0  0  0  0  0  0  0  0  0  0  0
    5.3031    6.7070   23.2325 H   0  0  0  0  0  0  0  0  0  0  0  0
    5.1764    8.8220   23.5308 S   0  0  0  0  0  0  0  0  0  0  0  0
    4.9838    9.7479   22.4695 O   0  0  0  0  0  0  0  0  0  0  0  0
    4.4784    9.0564   24.7415 O   0  0  0  0  0  0  0  0  0  0  0  0
    6.9221    8.6198   23.8593 C   0  0  0  0  0  0  0  0  0  0  0  0
    7.3453    7.9436   24.9843 C   0  0  0  0  0  0  0  0  0  0  0  0
    7.8471    9.1332   22.9466 C   0  0  0  0  0  0  0  0  0  0  0  0
    9.1980    9.0017   23.1307 C   0  0  0  0  0  0  0  0  0  0  0  0
    9.6657    8.3094   24.2814 C   0  0  0  0  0  0  0  0  0  0  0  0
   11.0426    8.1320   24.5263 C   0  0  0  0  0  0  0  0  0  0  0  0
   11.4468    7.4734   25.6554 C   0  0  0  0  0  0  0  0  0  0  0  0
   13.1403    7.2810   25.9562 Cl  0  0  0  0  0  0  0  0  0  0  0  0
    8.7348    7.7667   25.2195 C   0  0  0  0  0  0  0  0  0  0  0  0
    9.1975    7.0854   26.3661 C   0  0  0  0  0  0  0  0  0  0  0  0
   10.5363    6.9538   26.5700 C   0  0  0  0  0  0  0  0  0  0  0  0
  7  8  1  0  0  0
  8  9  1  0  0  0
  8 17  2  0  0  0
  9 10  1  0  0  0
  9 14  2  0  0  0
 10 11  1  0  0  0
 11 12  1  0  0  0
 12 13  1  0  0  0
 13 14  1  0  0  0
 14 15  1  0  0  0
 15 16  2  0  0  0
 16 17  1  0  0  0
 17  1  1  0  0  0
  1  2  1  0  0  0
  1  4  1  0  0  0
  2  3  2  0  0  0
  2  6  1  0  0  0
  4  5  1  0  0  0
  5  6  1  0  0  0
  6 19  1  0  0  0
 19 21  1  0  0  0
 21 22  2  0  0  0
 21 23  2  0  0  0
 21 24  1  0  0  0
 24 25  1  0  0  0
 24 26  2  0  0  0
 25 32  2  0  0  0
 26 27  1  0  0  0
 27 28  2  0  0  0
 28 29  1  0  0  0
 28 32  1  0  0  0
 29 30  2  0  0  0
 30 31  1  0  0  0
 30 34  1  0  0  0
 32 33  1  0  0  0
 33 34  2  0  0  0
 12 18  1  0  0  0
 19 20  1  0  0  0
M  END
> <minimizedAffinity>
-8.24728

$$$$
