1M2P_HNA_A_351


 23 25  0  0  0  0  0  0  0  0999 V2000
   23.6216    5.1586   20.4612 C   0  0  0  0  0  0  0  0  0  0  0  0
   23.6453    5.7386   19.1433 C   0  0  0  0  0  0  0  0  0  0  0  0
   24.3832    5.0903   18.0852 C   0  0  0  0  0  0  0  0  0  0  0  0
   25.0780    3.8890   18.3742 C   0  0  0  0  0  0  0  0  0  0  0  0
   25.0421    3.3479   19.6893 C   0  0  0  0  0  0  0  0  0  0  0  0
   24.3195    3.9675   20.7259 C   0  0  0  0  0  0  0  0  0  0  0  0
   24.3628    5.7346   16.7097 C   0  0  0  0  0  0  0  0  0  0  0  0
   23.6276    6.9916   16.4616 C   0  0  0  0  0  0  0  0  0  0  0  0
   22.9099    7.6428   17.5116 C   0  0  0  0  0  0  0  0  0  0  0  0
   22.8979    7.0188   18.8753 C   0  0  0  0  0  0  0  0  0  0  0  0
   22.2108    8.8740   17.2247 C   0  0  0  0  0  0  0  0  0  0  0  0
   22.2455    9.4153   15.9148 C   0  0  0  0  0  0  0  0  0  0  0  0
   22.9560    8.7579   14.8792 C   0  0  0  0  0  0  0  0  0  0  0  0
   23.6438    7.5575   15.1513 C   0  0  0  0  0  0  0  0  0  0  0  0
   22.2816    7.5623   19.7899 O   0  0  0  0  0  0  0  0  0  0  0  0
   24.9608    5.2524   15.7507 O   0  0  0  0  0  0  0  0  0  0  0  0
   22.9216    5.7438   21.5016 O   0  0  0  0  0  0  0  0  0  0  0  0
   21.5064    9.5661   18.1981 O   0  0  0  0  0  0  0  0  0  0  0  0
   22.4460    6.5383   21.3579 H   0  0  0  0  0  0  0  0  0  0  0  0
   21.4657    9.2329   19.0729 H   0  0  0  0  0  0  0  0  0  0  0  0
   25.8666    3.1225   17.4504 N   0  0  0  0  0  0  0  0  0  0  0  0
   25.2968    2.0993   16.8969 O   0  0  0  0  0  0  0  0  0  0  0  0
   27.0642    3.3616   17.1540 O   0  0  0  0  0  0  0  0  0  0  0  0
  1  2  2  0  0  0
  1  6  1  0  0  0
  1 17  1  0  0  0
  2  3  1  0  0  0
  2 10  1  0  0  0
  3  4  2  0  0  0
  3  7  1  0  0  0
  4  5  1  0  0  0
  4 21  1  0  0  0
  5  6  2  0  0  0
  7  8  1  0  0  0
  7 16  2  0  0  0
  8  9  2  0  0  0
  8 14  1  0  0  0
  9 10  1  0  0  0
  9 11  1  0  0  0
 10 15  2  0  0  0
 11 12  2  0  0  0
 11 18  1  0  0  0
 12 13  1  0  0  0
 13 14  2  0  0  0
 21 22  1  0  0  0
 21 23  2  0  0  0
 17 19  1  0  0  0
 18 20  1  0  0  0
M  CHG 1  21   1
M  CHG 1  22  -1
M  END
> <minimizedAffinity>
-10.62820

$$$$
1M2P_HNA_A_351


 23 25  0  0  0  0  0  0  0  0999 V2000
   25.2527    3.8525   17.9866 C   0  0  0  0  0  0  0  0  0  0  0  0
   24.4967    5.0686   17.8329 C   0  0  0  0  0  0  0  0  0  0  0  0
   23.7721    5.6121   18.9571 C   0  0  0  0  0  0  0  0  0  0  0  0
   23.8187    4.9252   20.1961 C   0  0  0  0  0  0  0  0  0  0  0  0
   24.5671    3.7210   20.3115 C   0  0  0  0  0  0  0  0  0  0  0  0
   25.2834    3.1867   19.2242 C   0  0  0  0  0  0  0  0  0  0  0  0
   23.0037    6.9054   18.7461 C   0  0  0  0  0  0  0  0  0  0  0  0
   22.9818    7.5798   17.4320 C   0  0  0  0  0  0  0  0  0  0  0  0
   23.6855    7.0346   16.3143 C   0  0  0  0  0  0  0  0  0  0  0  0
   24.4676    5.7683   16.4992 C   0  0  0  0  0  0  0  0  0  0  0  0
   23.6304    7.7246   15.0463 C   0  0  0  0  0  0  0  0  0  0  0  0
   22.8849    8.9248   14.9290 C   0  0  0  0  0  0  0  0  0  0  0  0
   22.1952    9.4598   16.0458 C   0  0  0  0  0  0  0  0  0  0  0  0
   22.2409    8.7910   17.2863 C   0  0  0  0  0  0  0  0  0  0  0  0
   25.0835    5.2871   15.5499 O   0  0  0  0  0  0  0  0  0  0  0  0
   22.3604    7.4403   19.6460 O   0  0  0  0  0  0  0  0  0  0  0  0
   25.9664    3.3015   16.9370 O   0  0  0  0  0  0  0  0  0  0  0  0
   24.2774    7.2454   13.9174 O   0  0  0  0  0  0  0  0  0  0  0  0
   25.9664    3.7209   16.0991 H   0  0  0  0  0  0  0  0  0  0  0  0
   24.7776    6.4545   13.9643 H   0  0  0  0  0  0  0  0  0  0  0  0
   23.1525    5.3151   21.4072 N   0  0  0  0  0  0  0  0  0  0  0  0
   23.7540    6.1832   22.1574 O   0  0  0  0  0  0  0  0  0  0  0  0
   22.0445    4.8676   21.7964 O   0  0  0  0  0  0  0  0  0  0  0  0
  1  2  2  0  0  0
  1  6  1  0  0  0
  1 17  1  0  0  0
  2  3  1  0  0  0
  2 10  1  0  0  0
  3  4  2  0  0  0
  3  7  1  0  0  0
  4  5  1  0  0  0
  4 21  1  0  0  0
  5  6  2  0  0  0
  7  8  1  0  0  0
  7 16  2  0  0  0
  8  9  2  0  0  0
  8 14  1  0  0  0
  9 10  1  0  0  0
  9 11  1  0  0  0
 10 15  2  0  0  0
 11 12  2  0  0  0
 11 18  1  0  0  0
 12 13  1  0  0  0
 13 14  2  0  0  0
 21 22  1  0  0  0
 21 23  2  0  0  0
 17 19  1  0  0  0
 18 20  1  0  0  0
M  CHG 1  21   1
M  CHG 1  22  -1
M  END
> <minimizedAffinity>
-10.51046

$$$$
1M2P_HNA_A_351


 23 25  0  0  0  0  0  0  0  0999 V2000
   23.5418    5.2641   20.6026 C   0  0  0  0  0  0  0  0  0  0  0  0
   23.2185    6.1948   19.5523 C   0  0  0  0  0  0  0  0  0  0  0  0
   22.3182    7.2922   19.8156 C   0  0  0  0  0  0  0  0  0  0  0  0
   21.7646    7.4248   21.1138 C   0  0  0  0  0  0  0  0  0  0  0  0
   22.0972    6.4823   22.1261 C   0  0  0  0  0  0  0  0  0  0  0  0
   22.9797    5.4135   21.8823 C   0  0  0  0  0  0  0  0  0  0  0  0
   22.0227    8.2546   18.6780 C   0  0  0  0  0  0  0  0  0  0  0  0
   22.6210    8.0688   17.3403 C   0  0  0  0  0  0  0  0  0  0  0  0
   23.4997    6.9740   17.0738 C   0  0  0  0  0  0  0  0  0  0  0  0
   23.8234    6.0190   18.1839 C   0  0  0  0  0  0  0  0  0  0  0  0
   24.0563    6.8278   15.7487 C   0  0  0  0  0  0  0  0  0  0  0  0
   23.7260    7.7658   14.7383 C   0  0  0  0  0  0  0  0  0  0  0  0
   22.8576    8.8514   15.0151 C   0  0  0  0  0  0  0  0  0  0  0  0
   22.3074    8.9997   16.3048 C   0  0  0  0  0  0  0  0  0  0  0  0
   24.5816    5.0739   17.9745 O   0  0  0  0  0  0  0  0  0  0  0  0
   21.2701    9.2166   18.8117 O   0  0  0  0  0  0  0  0  0  0  0  0
   24.4051    4.2027   20.3945 O   0  0  0  0  0  0  0  0  0  0  0  0
   24.9042    5.7823   15.4163 O   0  0  0  0  0  0  0  0  0  0  0  0
   24.7965    4.0753   19.5527 H   0  0  0  0  0  0  0  0  0  0  0  0
   25.1404    5.1468   16.0632 H   0  0  0  0  0  0  0  0  0  0  0  0
   20.8486    8.4435   21.5449 N   0  0  0  0  0  0  0  0  0  0  0  0
   21.3440    9.4373   22.2121 O   0  0  0  0  0  0  0  0  0  0  0  0
   19.6093    8.4334   21.3365 O   0  0  0  0  0  0  0  0  0  0  0  0
  1  2  2  0  0  0
  1  6  1  0  0  0
  1 17  1  0  0  0
  2  3  1  0  0  0
  2 10  1  0  0  0
  3  4  2  0  0  0
  3  7  1  0  0  0
  4  5  1  0  0  0
  4 21  1  0  0  0
  5  6  2  0  0  0
  7  8  1  0  0  0
  7 16  2  0  0  0
  8  9  2  0  0  0
  8 14  1  0  0  0
  9 10  1  0  0  0
  9 11  1  0  0  0
 10 15  2  0  0  0
 11 12  2  0  0  0
 11 18  1  0  0  0
 12 13  1  0  0  0
 13 14  2  0  0  0
 21 22  1  0  0  0
 21 23  2  0  0  0
 17 19  1  0  0  0
 18 20  1  0  0  0
M  CHG 1  21   1
M  CHG 1  22  -1
M  END
> <minimizedAffinity>
-10.50945

$$$$
1M2P_HNA_A_351


 23 25  0  0  0  0  0  0  0  0999 V2000
   23.0116    8.4543   16.4077 C   0  0  0  0  0  0  0  0  0  0  0  0
   22.9228    7.7757   17.6748 C   0  0  0  0  0  0  0  0  0  0  0  0
   23.6124    6.5224   17.8694 C   0  0  0  0  0  0  0  0  0  0  0  0
   24.3634    5.9823   16.7954 C   0  0  0  0  0  0  0  0  0  0  0  0
   24.4224    6.6733   15.5534 C   0  0  0  0  0  0  0  0  0  0  0  0
   23.7605    7.8994   15.3555 C   0  0  0  0  0  0  0  0  0  0  0  0
   23.4994    5.8556   19.2297 C   0  0  0  0  0  0  0  0  0  0  0  0
   22.6984    6.4570   20.3153 C   0  0  0  0  0  0  0  0  0  0  0  0
   22.0024    7.6894   20.1191 C   0  0  0  0  0  0  0  0  0  0  0  0
   22.1116    8.3788   18.7917 C   0  0  0  0  0  0  0  0  0  0  0  0
   21.2255    8.2372   21.2070 C   0  0  0  0  0  0  0  0  0  0  0  0
   21.1650    7.5500   22.4455 C   0  0  0  0  0  0  0  0  0  0  0  0
   21.8641    6.3309   22.6311 C   0  0  0  0  0  0  0  0  0  0  0  0
   22.6220    5.7875   21.5736 C   0  0  0  0  0  0  0  0  0  0  0  0
   21.5236    9.4427   18.6061 O   0  0  0  0  0  0  0  0  0  0  0  0
   24.0534    4.7890   19.4852 O   0  0  0  0  0  0  0  0  0  0  0  0
   22.3718    9.6603   16.1814 O   0  0  0  0  0  0  0  0  0  0  0  0
   20.5143    9.4209   21.0822 O   0  0  0  0  0  0  0  0  0  0  0  0
   21.8646   10.0566   16.8623 H   0  0  0  0  0  0  0  0  0  0  0  0
   20.5351    9.8972   20.2755 H   0  0  0  0  0  0  0  0  0  0  0  0
   25.0976    4.7480   16.8105 N   0  0  0  0  0  0  0  0  0  0  0  0
   26.3830    4.8287   16.9500 O   0  0  0  0  0  0  0  0  0  0  0  0
   24.5894    3.6056   16.6843 O   0  0  0  0  0  0  0  0  0  0  0  0
  1  2  2  0  0  0
  1  6  1  0  0  0
  1 17  1  0  0  0
  2  3  1  0  0  0
  2 10  1  0  0  0
  3  4  2  0  0  0
  3  7  1  0  0  0
  4  5  1  0  0  0
  4 21  1  0  0  0
  5  6  2  0  0  0
  7  8  1  0  0  0
  7 16  2  0  0  0
  8  9  2  0  0  0
  8 14  1  0  0  0
  9 10  1  0  0  0
  9 11  1  0  0  0
 10 15  2  0  0  0
 11 12  2  0  0  0
 11 18  1  0  0  0
 12 13  1  0  0  0
 13 14  2  0  0  0
 21 22  1  0  0  0
 21 23  2  0  0  0
 17 19  1  0  0  0
 18 20  1  0  0  0
M  CHG 1  21   1
M  CHG 1  22  -1
M  END
> <minimizedAffinity>
-10.37336

$$$$
1M2P_HNA_A_351


 23 25  0  0  0  0  0  0  0  0999 V2000
   22.2968    7.0673   21.1796 C   0  0  0  0  0  0  0  0  0  0  0  0
   22.7300    6.9941   19.8081 C   0  0  0  0  0  0  0  0  0  0  0  0
   23.5202    5.8711   19.3623 C   0  0  0  0  0  0  0  0  0  0  0  0
   23.8583    4.8604   20.2968 C   0  0  0  0  0  0  0  0  0  0  0  0
   23.4226    4.9681   21.6466 C   0  0  0  0  0  0  0  0  0  0  0  0
   22.6453    6.0544   22.0898 C   0  0  0  0  0  0  0  0  0  0  0  0
   23.9378    5.8340   17.9022 C   0  0  0  0  0  0  0  0  0  0  0  0
   23.5645    6.9167   16.9692 C   0  0  0  0  0  0  0  0  0  0  0  0
   22.7959    8.0366   17.4127 C   0  0  0  0  0  0  0  0  0  0  0  0
   22.3543    8.0898   18.8450 C   0  0  0  0  0  0  0  0  0  0  0  0
   22.4597    9.0754   16.4667 C   0  0  0  0  0  0  0  0  0  0  0  0
   22.8932    8.9702   15.1210 C   0  0  0  0  0  0  0  0  0  0  0  0
   23.6505    7.8519   14.6904 C   0  0  0  0  0  0  0  0  0  0  0  0
   23.9858    6.8351   15.6080 C   0  0  0  0  0  0  0  0  0  0  0  0
   21.6880    9.0433   19.2434 O   0  0  0  0  0  0  0  0  0  0  0  0
   24.6095    4.9172   17.4354 O   0  0  0  0  0  0  0  0  0  0  0  0
   21.5327    8.1224   21.6463 O   0  0  0  0  0  0  0  0  0  0  0  0
   21.7291   10.1962   16.8311 O   0  0  0  0  0  0  0  0  0  0  0  0
   21.2835    8.8137   21.0649 H   0  0  0  0  0  0  0  0  0  0  0  0
   21.4290   10.2934   17.7134 H   0  0  0  0  0  0  0  0  0  0  0  0
   24.6422    3.6869   20.0298 N   0  0  0  0  0  0  0  0  0  0  0  0
   24.0019    2.6200   19.6693 O   0  0  0  0  0  0  0  0  0  0  0  0
   25.8925    3.6163   20.1343 O   0  0  0  0  0  0  0  0  0  0  0  0
  1  2  2  0  0  0
  1  6  1  0  0  0
  1 17  1  0  0  0
  2  3  1  0  0  0
  2 10  1  0  0  0
  3  4  2  0  0  0
  3  7  1  0  0  0
  4  5  1  0  0  0
  4 21  1  0  0  0
  5  6  2  0  0  0
  7  8  1  0  0  0
  7 16  2  0  0  0
  8  9  2  0  0  0
  8 14  1  0  0  0
  9 10  1  0  0  0
  9 11  1  0  0  0
 10 15  2  0  0  0
 11 12  2  0  0  0
 11 18  1  0  0  0
 12 13  1  0  0  0
 13 14  2  0  0  0
 21 22  1  0  0  0
 21 23  2  0  0  0
 17 19  1  0  0  0
 18 20  1  0  0  0
M  CHG 1  21   1
M  CHG 1  22  -1
M  END
> <minimizedAffinity>
-10.36909

$$$$
1M2P_HNA_A_351


 23 25  0  0  0  0  0  0  0  0999 V2000
   23.6399    7.5848   15.4537 C   0  0  0  0  0  0  0  0  0  0  0  0
   23.7911    6.7590   16.6238 C   0  0  0  0  0  0  0  0  0  0  0  0
   23.1053    7.1091   17.8449 C   0  0  0  0  0  0  0  0  0  0  0  0
   22.2956    8.2724   17.8638 C   0  0  0  0  0  0  0  0  0  0  0  0
   22.1754    9.0717   16.6933 C   0  0  0  0  0  0  0  0  0  0  0  0
   22.8333    8.7352   15.4955 C   0  0  0  0  0  0  0  0  0  0  0  0
   23.2856    6.1959   19.0455 C   0  0  0  0  0  0  0  0  0  0  0  0
   24.1463    4.9974   18.9760 C   0  0  0  0  0  0  0  0  0  0  0  0
   24.8384    4.6583   17.7727 C   0  0  0  0  0  0  0  0  0  0  0  0
   24.6636    5.5322   16.5665 C   0  0  0  0  0  0  0  0  0  0  0  0
   25.6747    3.4805   17.7527 C   0  0  0  0  0  0  0  0  0  0  0  0
   25.7961    2.6826   18.9182 C   0  0  0  0  0  0  0  0  0  0  0  0
   25.1005    3.0251   20.1049 C   0  0  0  0  0  0  0  0  0  0  0  0
   24.2848    4.1748   20.1341 C   0  0  0  0  0  0  0  0  0  0  0  0
   25.2474    5.2533   15.5209 O   0  0  0  0  0  0  0  0  0  0  0  0
   22.7395    6.4152   20.1241 O   0  0  0  0  0  0  0  0  0  0  0  0
   24.2740    7.2815   14.2617 O   0  0  0  0  0  0  0  0  0  0  0  0
   26.3854    3.1000   16.6245 O   0  0  0  0  0  0  0  0  0  0  0  0
   24.8187    6.5215   14.2010 H   0  0  0  0  0  0  0  0  0  0  0  0
   26.3250    3.6078   15.8394 H   0  0  0  0  0  0  0  0  0  0  0  0
   21.5558    8.7723   18.9888 N   0  0  0  0  0  0  0  0  0  0  0  0
   20.2768    8.5667   18.9914 O   0  0  0  0  0  0  0  0  0  0  0  0
   22.0529    9.4026   19.9556 O   0  0  0  0  0  0  0  0  0  0  0  0
  1  2  2  0  0  0
  1  6  1  0  0  0
  1 17  1  0  0  0
  2  3  1  0  0  0
  2 10  1  0  0  0
  3  4  2  0  0  0
  3  7  1  0  0  0
  4  5  1  0  0  0
  4 21  1  0  0  0
  5  6  2  0  0  0
  7  8  1  0  0  0
  7 16  2  0  0  0
  8  9  2  0  0  0
  8 14  1  0  0  0
  9 10  1  0  0  0
  9 11  1  0  0  0
 10 15  2  0  0  0
 11 12  2  0  0  0
 11 18  1  0  0  0
 12 13  1  0  0  0
 13 14  2  0  0  0
 21 22  1  0  0  0
 21 23  2  0  0  0
 17 19  1  0  0  0
 18 20  1  0  0  0
M  CHG 1  21   1
M  CHG 1  22  -1
M  END
> <minimizedAffinity>
-10.30386

$$$$
1M2P_HNA_A_351


 23 25  0  0  0  0  0  0  0  0999 V2000
   22.0401    8.8566   18.1151 C   0  0  0  0  0  0  0  0  0  0  0  0
   22.8079    7.6461   17.9767 C   0  0  0  0  0  0  0  0  0  0  0  0
   23.3523    7.2827   16.6900 C   0  0  0  0  0  0  0  0  0  0  0  0
   23.1106    8.1326   15.5816 C   0  0  0  0  0  0  0  0  0  0  0  0
   22.3397    9.3161   15.7505 C   0  0  0  0  0  0  0  0  0  0  0  0
   21.8110    9.6837   17.0019 C   0  0  0  0  0  0  0  0  0  0  0  0
   24.1682    6.0043   16.6015 C   0  0  0  0  0  0  0  0  0  0  0  0
   24.3862    5.1493   17.7861 C   0  0  0  0  0  0  0  0  0  0  0  0
   23.8347    5.4994   19.0569 C   0  0  0  0  0  0  0  0  0  0  0  0
   23.0404    6.7659   19.1769 C   0  0  0  0  0  0  0  0  0  0  0  0
   24.0679    4.6297   20.1865 C   0  0  0  0  0  0  0  0  0  0  0  0
   24.8357    3.4495   20.0204 C   0  0  0  0  0  0  0  0  0  0  0  0
   25.3830    3.1146   18.7564 C   0  0  0  0  0  0  0  0  0  0  0  0
   25.1574    3.9562   17.6479 C   0  0  0  0  0  0  0  0  0  0  0  0
   22.5623    7.0859   20.2636 O   0  0  0  0  0  0  0  0  0  0  0  0
   24.6702    5.6183   15.5485 O   0  0  0  0  0  0  0  0  0  0  0  0
   21.5062    9.2450   19.3312 O   0  0  0  0  0  0  0  0  0  0  0  0
   23.5516    4.9004   21.4446 O   0  0  0  0  0  0  0  0  0  0  0  0
   21.6409    8.7156   20.0925 H   0  0  0  0  0  0  0  0  0  0  0  0
   23.0402    5.6729   21.5848 H   0  0  0  0  0  0  0  0  0  0  0  0
   23.5640    7.9201   14.2355 N   0  0  0  0  0  0  0  0  0  0  0  0
   22.6593    7.8725   13.3096 O   0  0  0  0  0  0  0  0  0  0  0  0
   24.7636    7.7632   13.8955 O   0  0  0  0  0  0  0  0  0  0  0  0
  1  2  2  0  0  0
  1  6  1  0  0  0
  1 17  1  0  0  0
  2  3  1  0  0  0
  2 10  1  0  0  0
  3  4  2  0  0  0
  3  7  1  0  0  0
  4  5  1  0  0  0
  4 21  1  0  0  0
  5  6  2  0  0  0
  7  8  1  0  0  0
  7 16  2  0  0  0
  8  9  2  0  0  0
  8 14  1  0  0  0
  9 10  1  0  0  0
  9 11  1  0  0  0
 10 15  2  0  0  0
 11 12  2  0  0  0
 11 18  1  0  0  0
 12 13  1  0  0  0
 13 14  2  0  0  0
 21 22  1  0  0  0
 21 23  2  0  0  0
 17 19  1  0  0  0
 18 20  1  0  0  0
M  CHG 1  21   1
M  CHG 1  22  -1
M  END
> <minimizedAffinity>
-9.83453

$$$$
1M2P_HNA_A_351


 23 25  0  0  0  0  0  0  0  0999 V2000
   24.4557    5.9756   16.1544 C   0  0  0  0  0  0  0  0  0  0  0  0
   23.7956    6.3223   17.3864 C   0  0  0  0  0  0  0  0  0  0  0  0
   23.9235    5.4613   18.5381 C   0  0  0  0  0  0  0  0  0  0  0  0
   24.6995    4.2805   18.4250 C   0  0  0  0  0  0  0  0  0  0  0  0
   25.3305    3.9623   17.1905 C   0  0  0  0  0  0  0  0  0  0  0  0
   25.2188    4.7986   16.0640 C   0  0  0  0  0  0  0  0  0  0  0  0
   23.2206    5.8809   19.8178 C   0  0  0  0  0  0  0  0  0  0  0  0
   22.4180    7.1193   19.8822 C   0  0  0  0  0  0  0  0  0  0  0  0
   22.2774    7.9644   18.7386 C   0  0  0  0  0  0  0  0  0  0  0  0
   22.9760    7.5837   17.4672 C   0  0  0  0  0  0  0  0  0  0  0  0
   21.4771    9.1623   18.8457 C   0  0  0  0  0  0  0  0  0  0  0  0
   20.8471    9.4812   20.0751 C   0  0  0  0  0  0  0  0  0  0  0  0
   20.9979    8.6387   21.2050 C   0  0  0  0  0  0  0  0  0  0  0  0
   21.7746    7.4658   21.1082 C   0  0  0  0  0  0  0  0  0  0  0  0
   22.8705    8.3013   16.4743 O   0  0  0  0  0  0  0  0  0  0  0  0
   23.2757    5.2108   20.8462 O   0  0  0  0  0  0  0  0  0  0  0  0
   24.3645    6.7761   15.0293 O   0  0  0  0  0  0  0  0  0  0  0  0
   21.2865   10.0201   17.7731 O   0  0  0  0  0  0  0  0  0  0  0  0
   23.8635    7.5675   15.0567 H   0  0  0  0  0  0  0  0  0  0  0  0
   21.6902    9.8353   16.9480 H   0  0  0  0  0  0  0  0  0  0  0  0
   24.9228    3.3103   19.4602 N   0  0  0  0  0  0  0  0  0  0  0  0
   25.9455    3.4979   20.2330 O   0  0  0  0  0  0  0  0  0  0  0  0
   24.2126    2.2929   19.6597 O   0  0  0  0  0  0  0  0  0  0  0  0
  1  2  2  0  0  0
  1  6  1  0  0  0
  1 17  1  0  0  0
  2  3  1  0  0  0
  2 10  1  0  0  0
  3  4  2  0  0  0
  3  7  1  0  0  0
  4  5  1  0  0  0
  4 21  1  0  0  0
  5  6  2  0  0  0
  7  8  1  0  0  0
  7 16  2  0  0  0
  8  9  2  0  0  0
  8 14  1  0  0  0
  9 10  1  0  0  0
  9 11  1  0  0  0
 10 15  2  0  0  0
 11 12  2  0  0  0
 11 18  1  0  0  0
 12 13  1  0  0  0
 13 14  2  0  0  0
 21 22  1  0  0  0
 21 23  2  0  0  0
 17 19  1  0  0  0
 18 20  1  0  0  0
M  CHG 1  21   1
M  CHG 1  22  -1
M  END
> <minimizedAffinity>
-9.65347

$$$$
1M2P_HNA_A_351


 23 25  0  0  0  0  0  0  0  0999 V2000
   24.6633    4.2133   18.6036 C   0  0  0  0  0  0  0  0  0  0  0  0
   23.8517    5.3292   19.0157 C   0  0  0  0  0  0  0  0  0  0  0  0
   23.6172    6.4237   18.1039 C   0  0  0  0  0  0  0  0  0  0  0  0
   24.2023    6.3749   16.8138 C   0  0  0  0  0  0  0  0  0  0  0  0
   25.0069    5.2624   16.4417 C   0  0  0  0  0  0  0  0  0  0  0  0
   25.2355    4.1866   17.3199 C   0  0  0  0  0  0  0  0  0  0  0  0
   22.7409    7.5687   18.5822 C   0  0  0  0  0  0  0  0  0  0  0  0
   22.1591    7.5748   19.9399 C   0  0  0  0  0  0  0  0  0  0  0  0
   22.4033    6.4998   20.8491 C   0  0  0  0  0  0  0  0  0  0  0  0
   23.2499    5.3475   20.3966 C   0  0  0  0  0  0  0  0  0  0  0  0
   21.8193    6.5514   22.1694 C   0  0  0  0  0  0  0  0  0  0  0  0
   21.0173    7.6593   22.5424 C   0  0  0  0  0  0  0  0  0  0  0  0
   20.7769    8.7177   21.6305 C   0  0  0  0  0  0  0  0  0  0  0  0
   21.3457    8.6769   20.3410 C   0  0  0  0  0  0  0  0  0  0  0  0
   23.4667    4.4112   21.1635 O   0  0  0  0  0  0  0  0  0  0  0  0
   22.4868    8.5401   17.8740 O   0  0  0  0  0  0  0  0  0  0  0  0
   24.9075    3.1411   19.4437 O   0  0  0  0  0  0  0  0  0  0  0  0
   22.0257    5.5505   23.1066 O   0  0  0  0  0  0  0  0  0  0  0  0
   24.5406    3.1285   20.3059 H   0  0  0  0  0  0  0  0  0  0  0  0
   22.5513    4.8060   22.8888 H   0  0  0  0  0  0  0  0  0  0  0  0
   24.0837    7.3758   15.7906 N   0  0  0  0  0  0  0  0  0  0  0  0
   24.8327    8.4266   15.9045 O   0  0  0  0  0  0  0  0  0  0  0  0
   23.3015    7.3137   14.8090 O   0  0  0  0  0  0  0  0  0  0  0  0
  1  2  2  0  0  0
  1  6  1  0  0  0
  1 17  1  0  0  0
  2  3  1  0  0  0
  2 10  1  0  0  0
  3  4  2  0  0  0
  3  7  1  0  0  0
  4  5  1  0  0  0
  4 21  1  0  0  0
  5  6  2  0  0  0
  7  8  1  0  0  0
  7 16  2  0  0  0
  8  9  2  0  0  0
  8 14  1  0  0  0
  9 10  1  0  0  0
  9 11  1  0  0  0
 10 15  2  0  0  0
 11 12  2  0  0  0
 11 18  1  0  0  0
 12 13  1  0  0  0
 13 14  2  0  0  0
 21 22  1  0  0  0
 21 23  2  0  0  0
 17 19  1  0  0  0
 18 20  1  0  0  0
M  CHG 1  21   1
M  CHG 1  22  -1
M  END
> <minimizedAffinity>
-9.48197

$$$$
1M2P_HNA_A_351


 23 25  0  0  0  0  0  0  0  0999 V2000
   21.2835    8.8168   19.5581 C   0  0  0  0  0  0  0  0  0  0  0  0
   22.0522    7.5993   19.5851 C   0  0  0  0  0  0  0  0  0  0  0  0
   22.8581    7.2320   18.4450 C   0  0  0  0  0  0  0  0  0  0  0  0
   22.8688    8.0851   17.3131 C   0  0  0  0  0  0  0  0  0  0  0  0
   22.0902    9.2757   17.3152 C   0  0  0  0  0  0  0  0  0  0  0  0
   21.3073    9.6471   18.4241 C   0  0  0  0  0  0  0  0  0  0  0  0
   23.6622    5.9461   18.5309 C   0  0  0  0  0  0  0  0  0  0  0  0
   23.6119    5.0879   19.7322 C   0  0  0  0  0  0  0  0  0  0  0  0
   22.8024    5.4421   20.8551 C   0  0  0  0  0  0  0  0  0  0  0  0
   22.0123    6.7159   20.8047 C   0  0  0  0  0  0  0  0  0  0  0  0
   22.7786    4.5691   22.0059 C   0  0  0  0  0  0  0  0  0  0  0  0
   23.5535    3.3819   22.0059 C   0  0  0  0  0  0  0  0  0  0  0  0
   24.3576    3.0430   20.8887 C   0  0  0  0  0  0  0  0  0  0  0  0
   24.3840    3.8878   19.7600 C   0  0  0  0  0  0  0  0  0  0  0  0
   21.3139    7.0394   21.7635 O   0  0  0  0  0  0  0  0  0  0  0  0
   24.3761    5.5563   17.6099 O   0  0  0  0  0  0  0  0  0  0  0  0
   20.5034    9.2092   20.6316 O   0  0  0  0  0  0  0  0  0  0  0  0
   22.0055    4.8436   23.1237 O   0  0  0  0  0  0  0  0  0  0  0  0
   20.4658    8.6779   21.4025 H   0  0  0  0  0  0  0  0  0  0  0  0
   21.4829    5.6208   23.1526 H   0  0  0  0  0  0  0  0  0  0  0  0
   23.6000    7.8696   16.0959 N   0  0  0  0  0  0  0  0  0  0  0  0
   24.7926    8.3708   16.0283 O   0  0  0  0  0  0  0  0  0  0  0  0
   23.1647    7.2481   15.0941 O   0  0  0  0  0  0  0  0  0  0  0  0
  1  2  2  0  0  0
  1  6  1  0  0  0
  1 17  1  0  0  0
  2  3  1  0  0  0
  2 10  1  0  0  0
  3  4  2  0  0  0
  3  7  1  0  0  0
  4  5  1  0  0  0
  4 21  1  0  0  0
  5  6  2  0  0  0
  7  8  1  0  0  0
  7 16  2  0  0  0
  8  9  2  0  0  0
  8 14  1  0  0  0
  9 10  1  0  0  0
  9 11  1  0  0  0
 10 15  2  0  0  0
 11 12  2  0  0  0
 11 18  1  0  0  0
 12 13  1  0  0  0
 13 14  2  0  0  0
 21 22  1  0  0  0
 21 23  2  0  0  0
 17 19  1  0  0  0
 18 20  1  0  0  0
M  CHG 1  21   1
M  CHG 1  22  -1
M  END
> <minimizedAffinity>
-9.19318

$$$$
