1BQ4_BHC_A_302


 30 30  0  0  0  0  0  0  0  0999 V2000
    6.5134   -6.6985   35.8654 C   0  0  0  0  0  0  0  0  0  0  0  0
    5.1639   -7.1559   35.8322 C   0  0  0  0  0  0  0  0  0  0  0  0
    4.8920   -8.5114   35.6158 C   0  0  0  0  0  0  0  0  0  0  0  0
    5.9483   -9.4326   35.4592 C   0  0  0  0  0  0  0  0  0  0  0  0
    7.2829   -8.9943   35.5145 C   0  0  0  0  0  0  0  0  0  0  0  0
    7.5610   -7.6177   35.7167 C   0  0  0  0  0  0  0  0  0  0  0  0
    6.8514   -5.1997   35.9466 C   0  0  0  0  0  0  0  0  0  0  0  0
    7.2043   -4.6640   37.1121 O   0  0  0  0  0  0  0  0  0  0  0  0
    6.7772   -4.5620   34.8689 O   0  0  0  0  0  0  0  0  0  0  0  0
    6.5216   -5.0010   34.0815 H   0  0  0  0  0  0  0  0  0  0  0  0
    3.9833   -6.1605   36.0420 C   0  0  0  0  0  0  0  0  0  0  0  0
    3.6220   -5.8716   37.2178 O   0  0  0  0  0  0  0  0  0  0  0  0
    3.4319   -5.7111   35.0132 O   0  0  0  0  0  0  0  0  0  0  0  0
    3.7448   -5.9618   34.1664 H   0  0  0  0  0  0  0  0  0  0  0  0
    3.4384   -9.0053   35.5726 C   0  0  0  0  0  0  0  0  0  0  0  0
    2.9166   -9.5578   36.6619 O   0  0  0  0  0  0  0  0  0  0  0  0
    2.8157   -8.8315   34.4892 O   0  0  0  0  0  0  0  0  0  0  0  0
    3.2479   -8.4340   33.7590 H   0  0  0  0  0  0  0  0  0  0  0  0
    5.6627  -10.8957   35.1125 C   0  0  0  0  0  0  0  0  0  0  0  0
    5.7858  -11.2962   33.9147 O   0  0  0  0  0  0  0  0  0  0  0  0
    5.3002  -11.6273   36.0685 O   0  0  0  0  0  0  0  0  0  0  0  0
    5.2289  -11.2694   36.9315 H   0  0  0  0  0  0  0  0  0  0  0  0
    8.4224  -10.0307   35.4038 C   0  0  0  0  0  0  0  0  0  0  0  0
    8.9093  -10.5389   36.5126 O   0  0  0  0  0  0  0  0  0  0  0  0
    8.8490  -10.3476   34.2663 O   0  0  0  0  0  0  0  0  0  0  0  0
    8.4730   -9.9605   33.5003 H   0  0  0  0  0  0  0  0  0  0  0  0
    9.0206   -7.1040   35.8196 C   0  0  0  0  0  0  0  0  0  0  0  0
    9.8436   -7.5444   34.9796 O   0  0  0  0  0  0  0  0  0  0  0  0
    9.4183   -6.8268   36.9658 O   0  0  0  0  0  0  0  0  0  0  0  0
    8.8162   -6.4973   37.6037 H   0  0  0  0  0  0  0  0  0  0  0  0
  1  7  1  0  0  0
  1  2  2  0  0  0
  1  6  1  0  0  0
  7  8  2  0  0  0
  7  9  1  0  0  0
  2 11  1  0  0  0
  2  3  1  0  0  0
 11 12  2  0  0  0
 11 13  1  0  0  0
  3 15  1  0  0  0
  3  4  2  0  0  0
 15 16  2  0  0  0
 15 17  1  0  0  0
  4 19  1  0  0  0
  4  5  1  0  0  0
 19 20  2  0  0  0
 19 21  1  0  0  0
  5 23  1  0  0  0
  5  6  2  0  0  0
 23 24  2  0  0  0
 23 25  1  0  0  0
  6 27  1  0  0  0
 27 28  2  0  0  0
 27 29  1  0  0  0
  9 10  1  0  0  0
 13 14  1  0  0  0
 17 18  1  0  0  0
 21 22  1  0  0  0
 25 26  1  0  0  0
 29 30  1  0  0  0
M  END
> <minimizedAffinity>
-8.06471

$$$$
1BQ4_BHC_A_302


 30 30  0  0  0  0  0  0  0  0999 V2000
    6.5144   -6.8384   36.0124 C   0  0  0  0  0  0  0  0  0  0  0  0
    7.5613   -7.7836   35.8073 C   0  0  0  0  0  0  0  0  0  0  0  0
    7.2505   -9.1157   35.5123 C   0  0  0  0  0  0  0  0  0  0  0  0
    5.9055   -9.5215   35.3881 C   0  0  0  0  0  0  0  0  0  0  0  0
    4.8668   -8.5910   35.5650 C   0  0  0  0  0  0  0  0  0  0  0  0
    5.1790   -7.2434   35.8811 C   0  0  0  0  0  0  0  0  0  0  0  0
    6.8086   -5.4051   36.4881 C   0  0  0  0  0  0  0  0  0  0  0  0
    6.8930   -4.4182   35.6000 O   0  0  0  0  0  0  0  0  0  0  0  0
    6.9456   -5.2559   37.7261 O   0  0  0  0  0  0  0  0  0  0  0  0
    6.8739   -5.9948   38.2978 H   0  0  0  0  0  0  0  0  0  0  0  0
    9.0543   -7.3469   35.9014 C   0  0  0  0  0  0  0  0  0  0  0  0
    9.8248   -7.5703   34.9252 O   0  0  0  0  0  0  0  0  0  0  0  0
    9.4208   -6.8091   36.9696 O   0  0  0  0  0  0  0  0  0  0  0  0
    8.8026   -6.6690   37.6597 H   0  0  0  0  0  0  0  0  0  0  0  0
    8.3769  -10.1373   35.2979 C   0  0  0  0  0  0  0  0  0  0  0  0
    8.8977  -10.7486   36.3558 O   0  0  0  0  0  0  0  0  0  0  0  0
    8.7271  -10.3486   34.1043 O   0  0  0  0  0  0  0  0  0  0  0  0
    8.3153   -9.8797   33.4053 H   0  0  0  0  0  0  0  0  0  0  0  0
    5.5517  -10.9954   35.1756 C   0  0  0  0  0  0  0  0  0  0  0  0
    5.2701  -11.7271   36.1735 O   0  0  0  0  0  0  0  0  0  0  0  0
    5.5763  -11.4014   33.9860 O   0  0  0  0  0  0  0  0  0  0  0  0
    5.7923  -10.8089   33.2931 H   0  0  0  0  0  0  0  0  0  0  0  0
    3.4048   -9.0447   35.3616 C   0  0  0  0  0  0  0  0  0  0  0  0
    2.7555   -9.5292   36.3953 O   0  0  0  0  0  0  0  0  0  0  0  0
    2.8886   -8.9430   34.2216 O   0  0  0  0  0  0  0  0  0  0  0  0
    3.3878   -8.5913   33.5109 H   0  0  0  0  0  0  0  0  0  0  0  0
    4.0608   -6.1818   36.0471 C   0  0  0  0  0  0  0  0  0  0  0  0
    3.5230   -6.0881   37.1780 O   0  0  0  0  0  0  0  0  0  0  0  0
    3.3772   -5.9512   35.0331 O   0  0  0  0  0  0  0  0  0  0  0  0
    3.7643   -6.0169   34.1823 H   0  0  0  0  0  0  0  0  0  0  0  0
  1  7  1  0  0  0
  1  2  2  0  0  0
  1  6  1  0  0  0
  7  8  2  0  0  0
  7  9  1  0  0  0
  2 11  1  0  0  0
  2  3  1  0  0  0
 11 12  2  0  0  0
 11 13  1  0  0  0
  3 15  1  0  0  0
  3  4  2  0  0  0
 15 16  2  0  0  0
 15 17  1  0  0  0
  4 19  1  0  0  0
  4  5  1  0  0  0
 19 20  2  0  0  0
 19 21  1  0  0  0
  5 23  1  0  0  0
  5  6  2  0  0  0
 23 24  2  0  0  0
 23 25  1  0  0  0
  6 27  1  0  0  0
 27 28  2  0  0  0
 27 29  1  0  0  0
  9 10  1  0  0  0
 13 14  1  0  0  0
 17 18  1  0  0  0
 21 22  1  0  0  0
 25 26  1  0  0  0
 29 30  1  0  0  0
M  END
> <minimizedAffinity>
-7.91985

$$$$
1BQ4_BHC_A_302


 30 30  0  0  0  0  0  0  0  0999 V2000
    7.5381   -7.8131   35.8522 C   0  0  0  0  0  0  0  0  0  0  0  0
    6.4869   -6.8617   35.9984 C   0  0  0  0  0  0  0  0  0  0  0  0
    5.1570   -7.2590   35.8207 C   0  0  0  0  0  0  0  0  0  0  0  0
    4.8495   -8.6034   35.5259 C   0  0  0  0  0  0  0  0  0  0  0  0
    5.8782   -9.5537   35.4036 C   0  0  0  0  0  0  0  0  0  0  0  0
    7.2287   -9.1499   35.5664 C   0  0  0  0  0  0  0  0  0  0  0  0
    9.0164   -7.3879   35.8871 C   0  0  0  0  0  0  0  0  0  0  0  0
    9.7863   -7.5859   34.8204 O   0  0  0  0  0  0  0  0  0  0  0  0
    9.4087   -6.8565   36.9535 O   0  0  0  0  0  0  0  0  0  0  0  0
    8.8135   -6.7463   37.6687 H   0  0  0  0  0  0  0  0  0  0  0  0
    6.8029   -5.3797   36.3623 C   0  0  0  0  0  0  0  0  0  0  0  0
    6.7912   -4.5050   35.4506 O   0  0  0  0  0  0  0  0  0  0  0  0
    7.0793   -5.1368   37.5577 O   0  0  0  0  0  0  0  0  0  0  0  0
    7.0715   -5.8280   38.1902 H   0  0  0  0  0  0  0  0  0  0  0  0
    4.0232   -6.2340   35.9708 C   0  0  0  0  0  0  0  0  0  0  0  0
    3.4367   -6.0957   37.1545 O   0  0  0  0  0  0  0  0  0  0  0  0
    3.7308   -5.5619   34.9438 O   0  0  0  0  0  0  0  0  0  0  0  0
    4.1871   -5.7130   34.1395 H   0  0  0  0  0  0  0  0  0  0  0  0
    3.4104   -9.0260   35.2209 C   0  0  0  0  0  0  0  0  0  0  0  0
    2.9690   -8.9517   34.0335 O   0  0  0  0  0  0  0  0  0  0  0  0
    2.7327   -9.4209   36.2034 O   0  0  0  0  0  0  0  0  0  0  0  0
    3.1187   -9.4523   37.0566 H   0  0  0  0  0  0  0  0  0  0  0  0
    5.5131  -11.0314   35.1434 C   0  0  0  0  0  0  0  0  0  0  0  0
    5.0360  -11.7383   36.1422 O   0  0  0  0  0  0  0  0  0  0  0  0
    5.6886  -11.5091   33.9956 O   0  0  0  0  0  0  0  0  0  0  0  0
    6.0316  -10.9692   33.3109 H   0  0  0  0  0  0  0  0  0  0  0  0
    8.3866  -10.1775   35.4747 C   0  0  0  0  0  0  0  0  0  0  0  0
    8.6343  -10.6620   34.3430 O   0  0  0  0  0  0  0  0  0  0  0  0
    8.5688  -10.8807   36.4852 O   0  0  0  0  0  0  0  0  0  0  0  0
    8.3885  -10.5332   37.3365 H   0  0  0  0  0  0  0  0  0  0  0  0
  1  7  1  0  0  0
  1  2  2  0  0  0
  1  6  1  0  0  0
  7  8  2  0  0  0
  7  9  1  0  0  0
  2 11  1  0  0  0
  2  3  1  0  0  0
 11 12  2  0  0  0
 11 13  1  0  0  0
  3 15  1  0  0  0
  3  4  2  0  0  0
 15 16  2  0  0  0
 15 17  1  0  0  0
  4 19  1  0  0  0
  4  5  1  0  0  0
 19 20  2  0  0  0
 19 21  1  0  0  0
  5 23  1  0  0  0
  5  6  2  0  0  0
 23 24  2  0  0  0
 23 25  1  0  0  0
  6 27  1  0  0  0
 27 28  2  0  0  0
 27 29  1  0  0  0
  9 10  1  0  0  0
 13 14  1  0  0  0
 17 18  1  0  0  0
 21 22  1  0  0  0
 25 26  1  0  0  0
 29 30  1  0  0  0
M  END
> <minimizedAffinity>
-7.90569

$$$$
1BQ4_BHC_A_302


 30 30  0  0  0  0  0  0  0  0999 V2000
    7.3632   -8.9326   35.5276 C   0  0  0  0  0  0  0  0  0  0  0  0
    6.0186   -9.3958   35.4332 C   0  0  0  0  0  0  0  0  0  0  0  0
    4.9584   -8.4930   35.5713 C   0  0  0  0  0  0  0  0  0  0  0  0
    5.2144   -7.1211   35.7748 C   0  0  0  0  0  0  0  0  0  0  0  0
    6.5374   -6.6514   35.8453 C   0  0  0  0  0  0  0  0  0  0  0  0
    7.6141   -7.5674   35.7226 C   0  0  0  0  0  0  0  0  0  0  0  0
    8.5508   -9.9107   35.5353 C   0  0  0  0  0  0  0  0  0  0  0  0
    9.1153  -10.2557   36.6895 O   0  0  0  0  0  0  0  0  0  0  0  0
    8.9150  -10.3393   34.4141 O   0  0  0  0  0  0  0  0  0  0  0  0
    8.4734  -10.0555   33.6380 H   0  0  0  0  0  0  0  0  0  0  0  0
    5.7148  -10.9015   35.1698 C   0  0  0  0  0  0  0  0  0  0  0  0
    5.8867  -11.3713   34.0095 O   0  0  0  0  0  0  0  0  0  0  0  0
    5.2863  -11.5702   36.1360 O   0  0  0  0  0  0  0  0  0  0  0  0
    5.1794  -11.1662   36.9746 H   0  0  0  0  0  0  0  0  0  0  0  0
    3.5088   -8.9913   35.4769 C   0  0  0  0  0  0  0  0  0  0  0  0
    2.9305   -9.4903   36.5635 O   0  0  0  0  0  0  0  0  0  0  0  0
    2.9435   -8.8725   34.3552 O   0  0  0  0  0  0  0  0  0  0  0  0
    3.4134   -8.5107   33.6298 H   0  0  0  0  0  0  0  0  0  0  0  0
    4.0662   -6.1437   36.0372 C   0  0  0  0  0  0  0  0  0  0  0  0
    3.6071   -6.0102   37.2127 O   0  0  0  0  0  0  0  0  0  0  0  0
    3.6297   -5.5250   35.0336 O   0  0  0  0  0  0  0  0  0  0  0  0
    4.0134   -5.6690   34.1910 H   0  0  0  0  0  0  0  0  0  0  0  0
    6.7927   -5.1368   36.0050 C   0  0  0  0  0  0  0  0  0  0  0  0
    7.1425   -4.6875   37.1885 O   0  0  0  0  0  0  0  0  0  0  0  0
    6.6526   -4.3871   35.0077 O   0  0  0  0  0  0  0  0  0  0  0  0
    6.4016   -4.7493   34.1809 H   0  0  0  0  0  0  0  0  0  0  0  0
    9.0860   -7.0802   35.7588 C   0  0  0  0  0  0  0  0  0  0  0  0
    9.8760   -7.5807   34.9208 O   0  0  0  0  0  0  0  0  0  0  0  0
    9.5213   -6.7526   36.8777 O   0  0  0  0  0  0  0  0  0  0  0  0
    8.9442   -6.3779   37.5136 H   0  0  0  0  0  0  0  0  0  0  0  0
  1  7  1  0  0  0
  1  2  2  0  0  0
  1  6  1  0  0  0
  7  8  2  0  0  0
  7  9  1  0  0  0
  2 11  1  0  0  0
  2  3  1  0  0  0
 11 12  2  0  0  0
 11 13  1  0  0  0
  3 15  1  0  0  0
  3  4  2  0  0  0
 15 16  2  0  0  0
 15 17  1  0  0  0
  4 19  1  0  0  0
  4  5  1  0  0  0
 19 20  2  0  0  0
 19 21  1  0  0  0
  5 23  1  0  0  0
  5  6  2  0  0  0
 23 24  2  0  0  0
 23 25  1  0  0  0
  6 27  1  0  0  0
 27 28  2  0  0  0
 27 29  1  0  0  0
  9 10  1  0  0  0
 13 14  1  0  0  0
 17 18  1  0  0  0
 21 22  1  0  0  0
 25 26  1  0  0  0
 29 30  1  0  0  0
M  END
> <minimizedAffinity>
-7.87962

$$$$
1BQ4_BHC_A_302


 30 30  0  0  0  0  0  0  0  0999 V2000
    5.1573   -7.1695   35.7642 C   0  0  0  0  0  0  0  0  0  0  0  0
    6.5289   -6.7889   35.8373 C   0  0  0  0  0  0  0  0  0  0  0  0
    7.5291   -7.7624   35.7370 C   0  0  0  0  0  0  0  0  0  0  0  0
    7.1870   -9.1156   35.5348 C   0  0  0  0  0  0  0  0  0  0  0  0
    5.8375   -9.4969   35.4376 C   0  0  0  0  0  0  0  0  0  0  0  0
    4.8208   -8.5142   35.5560 C   0  0  0  0  0  0  0  0  0  0  0  0
    4.0282   -6.1568   36.0228 C   0  0  0  0  0  0  0  0  0  0  0  0
    3.4854   -5.4975   35.0027 O   0  0  0  0  0  0  0  0  0  0  0  0
    3.6765   -6.0217   37.2193 O   0  0  0  0  0  0  0  0  0  0  0  0
    4.1012   -6.5178   37.8913 H   0  0  0  0  0  0  0  0  0  0  0  0
    6.9288   -5.2940   36.0212 C   0  0  0  0  0  0  0  0  0  0  0  0
    7.2171   -4.8705   37.1762 O   0  0  0  0  0  0  0  0  0  0  0  0
    6.9196   -4.5753   34.9975 O   0  0  0  0  0  0  0  0  0  0  0  0
    6.6972   -4.9465   34.1664 H   0  0  0  0  0  0  0  0  0  0  0  0
    9.0075   -7.3554   35.8224 C   0  0  0  0  0  0  0  0  0  0  0  0
    9.7934   -7.5712   34.7736 O   0  0  0  0  0  0  0  0  0  0  0  0
    9.3818   -6.8126   36.8981 O   0  0  0  0  0  0  0  0  0  0  0  0
    8.7716   -6.6916   37.5988 H   0  0  0  0  0  0  0  0  0  0  0  0
    8.2656  -10.2014   35.5344 C   0  0  0  0  0  0  0  0  0  0  0  0
    8.6485  -10.7112   36.6317 O   0  0  0  0  0  0  0  0  0  0  0  0
    8.7265  -10.5191   34.4087 O   0  0  0  0  0  0  0  0  0  0  0  0
    8.4001  -10.1040   33.6347 H   0  0  0  0  0  0  0  0  0  0  0  0
    5.4897  -10.9743   35.1529 C   0  0  0  0  0  0  0  0  0  0  0  0
    5.6214  -11.4174   33.9236 O   0  0  0  0  0  0  0  0  0  0  0  0
    5.0886  -11.6984   36.0969 O   0  0  0  0  0  0  0  0  0  0  0  0
    5.0090  -11.3417   36.9597 H   0  0  0  0  0  0  0  0  0  0  0  0
    3.3234   -8.8927   35.4174 C   0  0  0  0  0  0  0  0  0  0  0  0
    2.8248   -9.6008   36.3268 O   0  0  0  0  0  0  0  0  0  0  0  0
    2.9020   -9.0208   34.2535 O   0  0  0  0  0  0  0  0  0  0  0  0
    3.2640   -8.4995   33.5642 H   0  0  0  0  0  0  0  0  0  0  0  0
  1  7  1  0  0  0
  1  2  2  0  0  0
  1  6  1  0  0  0
  7  8  2  0  0  0
  7  9  1  0  0  0
  2 11  1  0  0  0
  2  3  1  0  0  0
 11 12  2  0  0  0
 11 13  1  0  0  0
  3 15  1  0  0  0
  3  4  2  0  0  0
 15 16  2  0  0  0
 15 17  1  0  0  0
  4 19  1  0  0  0
  4  5  1  0  0  0
 19 20  2  0  0  0
 19 21  1  0  0  0
  5 23  1  0  0  0
  5  6  2  0  0  0
 23 24  2  0  0  0
 23 25  1  0  0  0
  6 27  1  0  0  0
 27 28  2  0  0  0
 27 29  1  0  0  0
  9 10  1  0  0  0
 13 14  1  0  0  0
 17 18  1  0  0  0
 21 22  1  0  0  0
 25 26  1  0  0  0
 29 30  1  0  0  0
M  END
> <minimizedAffinity>
-7.85177

$$$$
1BQ4_BHC_A_302


 30 30  0  0  0  0  0  0  0  0999 V2000
    4.8653   -8.6557   35.5221 C   0  0  0  0  0  0  0  0  0  0  0  0
    5.9107   -9.6189   35.4177 C   0  0  0  0  0  0  0  0  0  0  0  0
    7.2442   -9.2188   35.5581 C   0  0  0  0  0  0  0  0  0  0  0  0
    7.5576   -7.8712   35.8315 C   0  0  0  0  0  0  0  0  0  0  0  0
    6.5318   -6.9187   35.9600 C   0  0  0  0  0  0  0  0  0  0  0  0
    5.1797   -7.3186   35.8011 C   0  0  0  0  0  0  0  0  0  0  0  0
    3.4017   -9.0237   35.2228 C   0  0  0  0  0  0  0  0  0  0  0  0
    2.9601   -9.0099   33.9680 O   0  0  0  0  0  0  0  0  0  0  0  0
    2.6998   -9.3313   36.2160 O   0  0  0  0  0  0  0  0  0  0  0  0
    3.0736   -9.3206   37.0752 H   0  0  0  0  0  0  0  0  0  0  0  0
    5.5835  -11.1197   35.1548 C   0  0  0  0  0  0  0  0  0  0  0  0
    5.2419  -11.8551   36.1238 O   0  0  0  0  0  0  0  0  0  0  0  0
    5.7021  -11.5275   33.9784 O   0  0  0  0  0  0  0  0  0  0  0  0
    5.9591  -10.9339   33.3004 H   0  0  0  0  0  0  0  0  0  0  0  0
    8.3726  -10.2538   35.4390 C   0  0  0  0  0  0  0  0  0  0  0  0
    8.8059  -10.8592   36.5389 O   0  0  0  0  0  0  0  0  0  0  0  0
    8.8091  -10.4810   34.2772 O   0  0  0  0  0  0  0  0  0  0  0  0
    8.4561  -10.0154   33.5447 H   0  0  0  0  0  0  0  0  0  0  0  0
    9.0139   -7.4026   35.8772 C   0  0  0  0  0  0  0  0  0  0  0  0
    9.7614   -7.5653   34.8647 O   0  0  0  0  0  0  0  0  0  0  0  0
    9.3904   -6.8801   36.9569 O   0  0  0  0  0  0  0  0  0  0  0  0
    8.7876   -6.7887   37.6685 H   0  0  0  0  0  0  0  0  0  0  0  0
    6.8958   -5.4623   36.3222 C   0  0  0  0  0  0  0  0  0  0  0  0
    6.9471   -4.5761   35.3543 O   0  0  0  0  0  0  0  0  0  0  0  0
    7.1359   -5.1746   37.5205 O   0  0  0  0  0  0  0  0  0  0  0  0
    7.0879   -5.8381   38.1804 H   0  0  0  0  0  0  0  0  0  0  0  0
    4.0205   -6.3027   35.9721 C   0  0  0  0  0  0  0  0  0  0  0  0
    3.4542   -6.2628   37.0922 O   0  0  0  0  0  0  0  0  0  0  0  0
    3.3523   -6.0654   34.9494 O   0  0  0  0  0  0  0  0  0  0  0  0
    3.7606   -6.0913   34.1065 H   0  0  0  0  0  0  0  0  0  0  0  0
  1  7  1  0  0  0
  1  2  2  0  0  0
  1  6  1  0  0  0
  7  8  2  0  0  0
  7  9  1  0  0  0
  2 11  1  0  0  0
  2  3  1  0  0  0
 11 12  2  0  0  0
 11 13  1  0  0  0
  3 15  1  0  0  0
  3  4  2  0  0  0
 15 16  2  0  0  0
 15 17  1  0  0  0
  4 19  1  0  0  0
  4  5  1  0  0  0
 19 20  2  0  0  0
 19 21  1  0  0  0
  5 23  1  0  0  0
  5  6  2  0  0  0
 23 24  2  0  0  0
 23 25  1  0  0  0
  6 27  1  0  0  0
 27 28  2  0  0  0
 27 29  1  0  0  0
  9 10  1  0  0  0
 13 14  1  0  0  0
 17 18  1  0  0  0
 21 22  1  0  0  0
 25 26  1  0  0  0
 29 30  1  0  0  0
M  END
> <minimizedAffinity>
-7.79921

$$$$
1BQ4_BHC_A_302


 30 30  0  0  0  0  0  0  0  0999 V2000
    4.8367   -8.6097   35.5734 C   0  0  0  0  0  0  0  0  0  0  0  0
    5.1565   -7.2419   35.8148 C   0  0  0  0  0  0  0  0  0  0  0  0
    6.4948   -6.8454   35.9141 C   0  0  0  0  0  0  0  0  0  0  0  0
    7.5302   -7.7883   35.7475 C   0  0  0  0  0  0  0  0  0  0  0  0
    7.2247   -9.1351   35.4852 C   0  0  0  0  0  0  0  0  0  0  0  0
    5.8682   -9.5429   35.4011 C   0  0  0  0  0  0  0  0  0  0  0  0
    3.3833   -9.1130   35.6102 C   0  0  0  0  0  0  0  0  0  0  0  0
    2.8636   -9.5488   36.7547 O   0  0  0  0  0  0  0  0  0  0  0  0
    2.7606   -9.0696   34.5221 O   0  0  0  0  0  0  0  0  0  0  0  0
    3.1867   -8.7507   33.7508 H   0  0  0  0  0  0  0  0  0  0  0  0
    4.0279   -6.1774   35.9630 C   0  0  0  0  0  0  0  0  0  0  0  0
    3.5996   -5.5854   34.9322 O   0  0  0  0  0  0  0  0  0  0  0  0
    3.6161   -5.9462   37.1212 O   0  0  0  0  0  0  0  0  0  0  0  0
    3.9723   -6.4181   37.8480 H   0  0  0  0  0  0  0  0  0  0  0  0
    6.8414   -5.3732   36.1811 C   0  0  0  0  0  0  0  0  0  0  0  0
    6.8800   -4.5280   35.1574 O   0  0  0  0  0  0  0  0  0  0  0  0
    7.0509   -5.0523   37.3832 O   0  0  0  0  0  0  0  0  0  0  0  0
    7.0071   -5.7027   38.0562 H   0  0  0  0  0  0  0  0  0  0  0  0
    8.9917   -7.3885   35.9632 C   0  0  0  0  0  0  0  0  0  0  0  0
    9.8289   -7.5230   35.0190 O   0  0  0  0  0  0  0  0  0  0  0  0
    9.2795   -6.9494   37.1056 O   0  0  0  0  0  0  0  0  0  0  0  0
    8.6133   -6.8744   37.7602 H   0  0  0  0  0  0  0  0  0  0  0  0
    8.3753  -10.1365   35.2437 C   0  0  0  0  0  0  0  0  0  0  0  0
    8.8667  -10.7789   36.2784 O   0  0  0  0  0  0  0  0  0  0  0  0
    8.8061  -10.2989   34.0756 O   0  0  0  0  0  0  0  0  0  0  0  0
    8.4265   -9.8199   33.3654 H   0  0  0  0  0  0  0  0  0  0  0  0
    5.4942  -11.0126   35.0771 C   0  0  0  0  0  0  0  0  0  0  0  0
    5.5063  -11.8304   36.0300 O   0  0  0  0  0  0  0  0  0  0  0  0
    5.7957  -11.4102   33.9371 O   0  0  0  0  0  0  0  0  0  0  0  0
    5.7912  -10.8120   33.2159 H   0  0  0  0  0  0  0  0  0  0  0  0
  1  7  1  0  0  0
  1  2  2  0  0  0
  1  6  1  0  0  0
  7  8  2  0  0  0
  7  9  1  0  0  0
  2 11  1  0  0  0
  2  3  1  0  0  0
 11 12  2  0  0  0
 11 13  1  0  0  0
  3 15  1  0  0  0
  3  4  2  0  0  0
 15 16  2  0  0  0
 15 17  1  0  0  0
  4 19  1  0  0  0
  4  5  1  0  0  0
 19 20  2  0  0  0
 19 21  1  0  0  0
  5 23  1  0  0  0
  5  6  2  0  0  0
 23 24  2  0  0  0
 23 25  1  0  0  0
  6 27  1  0  0  0
 27 28  2  0  0  0
 27 29  1  0  0  0
  9 10  1  0  0  0
 13 14  1  0  0  0
 17 18  1  0  0  0
 21 22  1  0  0  0
 25 26  1  0  0  0
 29 30  1  0  0  0
M  END
> <minimizedAffinity>
-7.79016

$$$$
1BQ4_BHC_A_302


 30 30  0  0  0  0  0  0  0  0999 V2000
    6.2689   -9.3288   35.4343 C   0  0  0  0  0  0  0  0  0  0  0  0
    7.5864   -8.8380   35.6681 C   0  0  0  0  0  0  0  0  0  0  0  0
    7.7879   -7.4785   35.9314 C   0  0  0  0  0  0  0  0  0  0  0  0
    6.6897   -6.5960   35.9953 C   0  0  0  0  0  0  0  0  0  0  0  0
    5.3843   -7.0754   35.7898 C   0  0  0  0  0  0  0  0  0  0  0  0
    5.1789   -8.4504   35.5057 C   0  0  0  0  0  0  0  0  0  0  0  0
    6.0198  -10.7809   34.9913 C   0  0  0  0  0  0  0  0  0  0  0  0
    5.7470  -11.7120   35.9015 O   0  0  0  0  0  0  0  0  0  0  0  0
    6.0845  -10.9961   33.7571 O   0  0  0  0  0  0  0  0  0  0  0  0
    6.2816  -10.2939   33.1688 H   0  0  0  0  0  0  0  0  0  0  0  0
    8.8093   -9.8036   35.6406 C   0  0  0  0  0  0  0  0  0  0  0  0
    9.2217  -10.3072   36.7236 O   0  0  0  0  0  0  0  0  0  0  0  0
    9.3407  -10.0129   34.5278 O   0  0  0  0  0  0  0  0  0  0  0  0
    8.9894   -9.6108   33.7578 H   0  0  0  0  0  0  0  0  0  0  0  0
    9.2075   -6.9464   36.1766 C   0  0  0  0  0  0  0  0  0  0  0  0
   10.1659   -7.2540   35.3100 O   0  0  0  0  0  0  0  0  0  0  0  0
    9.3693   -6.2197   37.1952 O   0  0  0  0  0  0  0  0  0  0  0  0
    8.6464   -6.0438   37.7648 H   0  0  0  0  0  0  0  0  0  0  0  0
    6.9071   -5.0914   36.1723 C   0  0  0  0  0  0  0  0  0  0  0  0
    7.0754   -4.6103   37.3345 O   0  0  0  0  0  0  0  0  0  0  0  0
    6.8917   -4.4052   35.1189 O   0  0  0  0  0  0  0  0  0  0  0  0
    6.7626   -4.8224   34.2899 H   0  0  0  0  0  0  0  0  0  0  0  0
    4.1929   -6.1025   35.9275 C   0  0  0  0  0  0  0  0  0  0  0  0
    3.8653   -5.3710   34.8872 O   0  0  0  0  0  0  0  0  0  0  0  0
    3.5836   -6.0371   37.0233 O   0  0  0  0  0  0  0  0  0  0  0  0
    3.8505   -6.5774   37.7408 H   0  0  0  0  0  0  0  0  0  0  0  0
    3.7504   -9.0212   35.3098 C   0  0  0  0  0  0  0  0  0  0  0  0
    3.2191   -8.8615   34.1832 O   0  0  0  0  0  0  0  0  0  0  0  0
    3.0268   -9.0309   36.3222 O   0  0  0  0  0  0  0  0  0  0  0  0
    3.4084   -9.1490   37.1697 H   0  0  0  0  0  0  0  0  0  0  0  0
  1  7  1  0  0  0
  1  2  2  0  0  0
  1  6  1  0  0  0
  7  8  2  0  0  0
  7  9  1  0  0  0
  2 11  1  0  0  0
  2  3  1  0  0  0
 11 12  2  0  0  0
 11 13  1  0  0  0
  3 15  1  0  0  0
  3  4  2  0  0  0
 15 16  2  0  0  0
 15 17  1  0  0  0
  4 19  1  0  0  0
  4  5  1  0  0  0
 19 20  2  0  0  0
 19 21  1  0  0  0
  5 23  1  0  0  0
  5  6  2  0  0  0
 23 24  2  0  0  0
 23 25  1  0  0  0
  6 27  1  0  0  0
 27 28  2  0  0  0
 27 29  1  0  0  0
  9 10  1  0  0  0
 13 14  1  0  0  0
 17 18  1  0  0  0
 21 22  1  0  0  0
 25 26  1  0  0  0
 29 30  1  0  0  0
M  END
> <minimizedAffinity>
-7.71785

$$$$
1BQ4_BHC_A_302


 30 30  0  0  0  0  0  0  0  0999 V2000
    7.6554   -7.5618   35.8274 C   0  0  0  0  0  0  0  0  0  0  0  0
    7.3422   -8.9205   35.5322 C   0  0  0  0  0  0  0  0  0  0  0  0
    6.0055   -9.3231   35.4356 C   0  0  0  0  0  0  0  0  0  0  0  0
    4.9662   -8.3843   35.6005 C   0  0  0  0  0  0  0  0  0  0  0  0
    5.2659   -7.0372   35.8682 C   0  0  0  0  0  0  0  0  0  0  0  0
    6.6202   -6.6297   35.9836 C   0  0  0  0  0  0  0  0  0  0  0  0
    9.1021   -7.1108   36.0935 C   0  0  0  0  0  0  0  0  0  0  0  0
   10.0651   -7.4399   35.2366 O   0  0  0  0  0  0  0  0  0  0  0  0
    9.2821   -6.4318   37.1328 O   0  0  0  0  0  0  0  0  0  0  0  0
    8.5587   -6.2349   37.6949 H   0  0  0  0  0  0  0  0  0  0  0  0
    8.4764   -9.9655   35.3078 C   0  0  0  0  0  0  0  0  0  0  0  0
    8.9710  -10.5624   36.3056 O   0  0  0  0  0  0  0  0  0  0  0  0
    8.8586  -10.1422   34.1300 O   0  0  0  0  0  0  0  0  0  0  0  0
    8.4528   -9.6698   33.4299 H   0  0  0  0  0  0  0  0  0  0  0  0
    5.6658  -10.7882   35.1245 C   0  0  0  0  0  0  0  0  0  0  0  0
    5.3458  -11.5988   36.1268 O   0  0  0  0  0  0  0  0  0  0  0  0
    5.6935  -11.1279   33.9097 O   0  0  0  0  0  0  0  0  0  0  0  0
    5.9290  -10.5018   33.2535 H   0  0  0  0  0  0  0  0  0  0  0  0
    3.5030   -8.8332   35.6070 C   0  0  0  0  0  0  0  0  0  0  0  0
    2.9861   -9.2855   36.6741 O   0  0  0  0  0  0  0  0  0  0  0  0
    2.8914   -8.7323   34.5131 O   0  0  0  0  0  0  0  0  0  0  0  0
    3.3313   -8.3893   33.7603 H   0  0  0  0  0  0  0  0  0  0  0  0
    4.1131   -6.0160   35.9818 C   0  0  0  0  0  0  0  0  0  0  0  0
    3.5759   -5.5602   34.8735 O   0  0  0  0  0  0  0  0  0  0  0  0
    3.7327   -5.6513   37.1214 O   0  0  0  0  0  0  0  0  0  0  0  0
    4.1437   -6.0019   37.8870 H   0  0  0  0  0  0  0  0  0  0  0  0
    6.9890   -5.1458   36.2419 C   0  0  0  0  0  0  0  0  0  0  0  0
    6.8026   -4.7026   37.4019 O   0  0  0  0  0  0  0  0  0  0  0  0
    6.8527   -4.3767   35.2730 O   0  0  0  0  0  0  0  0  0  0  0  0
    6.9884   -4.6926   34.4014 H   0  0  0  0  0  0  0  0  0  0  0  0
  1  7  1  0  0  0
  1  2  2  0  0  0
  1  6  1  0  0  0
  7  8  2  0  0  0
  7  9  1  0  0  0
  2 11  1  0  0  0
  2  3  1  0  0  0
 11 12  2  0  0  0
 11 13  1  0  0  0
  3 15  1  0  0  0
  3  4  2  0  0  0
 15 16  2  0  0  0
 15 17  1  0  0  0
  4 19  1  0  0  0
  4  5  1  0  0  0
 19 20  2  0  0  0
 19 21  1  0  0  0
  5 23  1  0  0  0
  5  6  2  0  0  0
 23 24  2  0  0  0
 23 25  1  0  0  0
  6 27  1  0  0  0
 27 28  2  0  0  0
 27 29  1  0  0  0
  9 10  1  0  0  0
 13 14  1  0  0  0
 17 18  1  0  0  0
 21 22  1  0  0  0
 25 26  1  0  0  0
 29 30  1  0  0  0
M  END
> <minimizedAffinity>
-7.71222

$$$$
1BQ4_BHC_A_302


 30 30  0  0  0  0  0  0  0  0999 V2000
    7.4282   -8.7633   35.5393 C   0  0  0  0  0  0  0  0  0  0  0  0
    7.6590   -7.4304   35.9881 C   0  0  0  0  0  0  0  0  0  0  0  0
    6.5763   -6.5735   36.2154 C   0  0  0  0  0  0  0  0  0  0  0  0
    5.2554   -7.0318   36.0302 C   0  0  0  0  0  0  0  0  0  0  0  0
    5.0173   -8.3522   35.6108 C   0  0  0  0  0  0  0  0  0  0  0  0
    6.1140   -9.2178   35.3632 C   0  0  0  0  0  0  0  0  0  0  0  0
    8.5900   -9.6857   35.1314 C   0  0  0  0  0  0  0  0  0  0  0  0
    8.9325   -9.7901   33.8501 O   0  0  0  0  0  0  0  0  0  0  0  0
    9.1626  -10.2927   36.0681 O   0  0  0  0  0  0  0  0  0  0  0  0
    8.8708  -10.1744   36.9506 H   0  0  0  0  0  0  0  0  0  0  0  0
    9.1092   -6.9167   36.2364 C   0  0  0  0  0  0  0  0  0  0  0  0
   10.0395   -7.3040   35.4741 O   0  0  0  0  0  0  0  0  0  0  0  0
    9.2799   -6.1518   37.2112 O   0  0  0  0  0  0  0  0  0  0  0  0
    8.5501   -5.8987   37.7416 H   0  0  0  0  0  0  0  0  0  0  0  0
    6.8231   -5.1347   36.6924 C   0  0  0  0  0  0  0  0  0  0  0  0
    7.0887   -4.1970   35.7900 O   0  0  0  0  0  0  0  0  0  0  0  0
    6.7353   -4.9293   37.9341 O   0  0  0  0  0  0  0  0  0  0  0  0
    6.5445   -5.6399   38.5142 H   0  0  0  0  0  0  0  0  0  0  0  0
    4.0703   -6.0732   36.1685 C   0  0  0  0  0  0  0  0  0  0  0  0
    3.5518   -5.5569   35.1317 O   0  0  0  0  0  0  0  0  0  0  0  0
    3.6829   -5.8425   37.3421 O   0  0  0  0  0  0  0  0  0  0  0  0
    4.1094   -6.2569   38.0662 H   0  0  0  0  0  0  0  0  0  0  0  0
    3.5617   -8.8501   35.4761 C   0  0  0  0  0  0  0  0  0  0  0  0
    3.0049   -9.4290   36.5152 O   0  0  0  0  0  0  0  0  0  0  0  0
    2.9629   -8.6929   34.3838 O   0  0  0  0  0  0  0  0  0  0  0  0
    3.3977   -8.2742   33.6672 H   0  0  0  0  0  0  0  0  0  0  0  0
    5.8884  -10.6911   34.9348 C   0  0  0  0  0  0  0  0  0  0  0  0
    6.1997  -11.5826   35.7626 O   0  0  0  0  0  0  0  0  0  0  0  0
    6.0113  -10.9272   33.7192 O   0  0  0  0  0  0  0  0  0  0  0  0
    5.7831  -10.2721   33.0893 H   0  0  0  0  0  0  0  0  0  0  0  0
  1  7  1  0  0  0
  1  2  2  0  0  0
  1  6  1  0  0  0
  7  8  2  0  0  0
  7  9  1  0  0  0
  2 11  1  0  0  0
  2  3  1  0  0  0
 11 12  2  0  0  0
 11 13  1  0  0  0
  3 15  1  0  0  0
  3  4  2  0  0  0
 15 16  2  0  0  0
 15 17  1  0  0  0
  4 19  1  0  0  0
  4  5  1  0  0  0
 19 20  2  0  0  0
 19 21  1  0  0  0
  5 23  1  0  0  0
  5  6  2  0  0  0
 23 24  2  0  0  0
 23 25  1  0  0  0
  6 27  1  0  0  0
 27 28  2  0  0  0
 27 29  1  0  0  0
  9 10  1  0  0  0
 13 14  1  0  0  0
 17 18  1  0  0  0
 21 22  1  0  0  0
 25 26  1  0  0  0
 29 30  1  0  0  0
M  END
> <minimizedAffinity>
-7.65568

$$$$
