1G1D_FSB_A_555


 24 25  0  0  0  0  0  0  0  0999 V2000
   -6.1817    4.7248   15.1933 C   0  0  0  0  0  0  0  0  0  0  0  0
   -6.6560    3.7179   16.0622 C   0  0  0  0  0  0  0  0  0  0  0  0
   -5.7643    2.6302   16.3649 C   0  0  0  0  0  0  0  0  0  0  0  0
   -4.4787    2.6353   15.7852 C   0  0  0  0  0  0  0  0  0  0  0  0
   -4.0551    3.6551   14.9322 C   0  0  0  0  0  0  0  0  0  0  0  0
   -4.8922    4.6953   14.6321 C   0  0  0  0  0  0  0  0  0  0  0  0
   -6.3840    1.3369   17.4885 S   0  0  0  0  0  0  0  0  0  0  0  0
   -5.6218   -0.0246   17.3079 N   0  0  0  0  0  0  0  0  0  0  0  0
   -7.8299    1.3796   17.0804 O   0  0  0  0  0  0  0  0  0  0  0  0
   -6.2778    1.9869   18.7993 O   0  0  0  0  0  0  0  0  0  0  0  0
   -5.7711   -0.3749   16.3616 H   0  0  0  0  0  0  0  0  0  0  0  0
   -5.9751   -0.7040   17.9817 H   0  0  0  0  0  0  0  0  0  0  0  0
   -4.4433    5.8003   13.6960 C   0  0  0  0  0  0  0  0  0  0  0  0
   -3.3403    6.2822   13.8418 O   0  0  0  0  0  0  0  0  0  0  0  0
   -5.2782    6.2472   12.6828 N   0  0  0  0  0  0  0  0  0  0  0  0
   -6.1623    5.8169   12.6320 H   0  0  0  0  0  0  0  0  0  0  0  0
   -5.0109    7.2737   11.6841 C   0  0  0  0  0  0  0  0  0  0  0  0
   -5.9916    7.3879   10.6366 C   0  0  0  0  0  0  0  0  0  0  0  0
   -5.6867    6.7971    9.3632 C   0  0  0  0  0  0  0  0  0  0  0  0
   -6.5782    6.8556    8.2633 C   0  0  0  0  0  0  0  0  0  0  0  0
   -7.8078    7.5191    8.4359 C   0  0  0  0  0  0  0  0  0  0  0  0
   -8.1633    8.1269    9.6978 C   0  0  0  0  0  0  0  0  0  0  0  0
   -7.2388    8.0619   10.8209 C   0  0  0  0  0  0  0  0  0  0  0  0
   -7.5517    8.6209   11.9981 F   0  0  0  0  0  0  0  0  0  0  0  0
  1  2  2  0  0  0
  1  6  1  0  0  0
  2  3  1  0  0  0
  3  4  2  0  0  0
  3  7  1  0  0  0
  4  5  1  0  0  0
  5  6  2  0  0  0
  6 13  1  0  0  0
 13 14  2  0  0  0
 13 15  1  0  0  0
 15 17  1  0  0  0
 17 18  1  0  0  0
  7  8  1  0  0  0
  7  9  2  0  0  0
  7 10  2  0  0  0
 18 19  2  0  0  0
 18 23  1  0  0  0
 19 20  1  0  0  0
 20 21  2  0  0  0
 21 22  1  0  0  0
 22 23  2  0  0  0
 23 24  1  0  0  0
 15 16  1  0  0  0
  8 11  1  0  0  0
  8 12  1  0  0  0
M  END
> <minimizedAffinity>
-7.96554

$$$$
1G1D_FSB_A_555


 24 25  0  0  0  0  0  0  0  0999 V2000
   -6.2882    4.5040   14.8674 C   0  0  0  0  0  0  0  0  0  0  0  0
   -6.7266    3.5696   15.8311 C   0  0  0  0  0  0  0  0  0  0  0  0
   -5.7881    2.5643   16.2538 C   0  0  0  0  0  0  0  0  0  0  0  0
   -4.4956    2.5734   15.6896 C   0  0  0  0  0  0  0  0  0  0  0  0
   -4.1088    3.5196   14.7400 C   0  0  0  0  0  0  0  0  0  0  0  0
   -4.9904    4.4808   14.3254 C   0  0  0  0  0  0  0  0  0  0  0  0
   -6.3618    1.3645   17.4989 S   0  0  0  0  0  0  0  0  0  0  0  0
   -5.5763    0.0063   17.4238 N   0  0  0  0  0  0  0  0  0  0  0  0
   -7.8154    1.3449   17.1173 O   0  0  0  0  0  0  0  0  0  0  0  0
   -6.2447    2.1296   18.7450 O   0  0  0  0  0  0  0  0  0  0  0  0
   -5.7358   -0.4289   16.5152 H   0  0  0  0  0  0  0  0  0  0  0  0
   -5.9039   -0.6171   18.1617 H   0  0  0  0  0  0  0  0  0  0  0  0
   -4.5811    5.5044   13.2845 C   0  0  0  0  0  0  0  0  0  0  0  0
   -3.4686    5.4438   12.8062 O   0  0  0  0  0  0  0  0  0  0  0  0
   -5.4688    6.4899   12.8791 N   0  0  0  0  0  0  0  0  0  0  0  0
   -6.3498    6.4832   13.3184 H   0  0  0  0  0  0  0  0  0  0  0  0
   -5.2607    7.5339   11.8845 C   0  0  0  0  0  0  0  0  0  0  0  0
   -6.1079    7.4595   10.7231 C   0  0  0  0  0  0  0  0  0  0  0  0
   -7.2324    8.3506   10.6532 C   0  0  0  0  0  0  0  0  0  0  0  0
   -8.1322    8.3575    9.5586 C   0  0  0  0  0  0  0  0  0  0  0  0
   -7.9055    7.4535    8.5033 C   0  0  0  0  0  0  0  0  0  0  0  0
   -6.7869    6.5390    8.5241 C   0  0  0  0  0  0  0  0  0  0  0  0
   -5.8695    6.5397    9.6549 C   0  0  0  0  0  0  0  0  0  0  0  0
   -4.8274    5.6978    9.6913 F   0  0  0  0  0  0  0  0  0  0  0  0
  1  2  2  0  0  0
  1  6  1  0  0  0
  2  3  1  0  0  0
  3  4  2  0  0  0
  3  7  1  0  0  0
  4  5  1  0  0  0
  5  6  2  0  0  0
  6 13  1  0  0  0
 13 14  2  0  0  0
 13 15  1  0  0  0
 15 17  1  0  0  0
 17 18  1  0  0  0
  7  8  1  0  0  0
  7  9  2  0  0  0
  7 10  2  0  0  0
 18 19  2  0  0  0
 18 23  1  0  0  0
 19 20  1  0  0  0
 20 21  2  0  0  0
 21 22  1  0  0  0
 22 23  2  0  0  0
 23 24  1  0  0  0
 15 16  1  0  0  0
  8 11  1  0  0  0
  8 12  1  0  0  0
M  END
> <minimizedAffinity>
-7.74781

$$$$
1G1D_FSB_A_555


 24 25  0  0  0  0  0  0  0  0999 V2000
   -6.2573    4.4778   15.3917 C   0  0  0  0  0  0  0  0  0  0  0  0
   -6.6263    3.4299   16.2633 C   0  0  0  0  0  0  0  0  0  0  0  0
   -5.6813    2.3616   16.4520 C   0  0  0  0  0  0  0  0  0  0  0  0
   -4.4510    2.4249   15.7655 C   0  0  0  0  0  0  0  0  0  0  0  0
   -4.1315    3.4835   14.9146 C   0  0  0  0  0  0  0  0  0  0  0  0
   -5.0205    4.5061   14.7222 C   0  0  0  0  0  0  0  0  0  0  0  0
   -6.1651    1.0151   17.5798 S   0  0  0  0  0  0  0  0  0  0  0  0
   -5.7488    1.3044   19.0664 N   0  0  0  0  0  0  0  0  0  0  0  0
   -5.4665   -0.1122   16.8726 O   0  0  0  0  0  0  0  0  0  0  0  0
   -7.6005    0.8823   17.3076 O   0  0  0  0  0  0  0  0  0  0  0  0
   -4.7330    1.3749   19.1275 H   0  0  0  0  0  0  0  0  0  0  0  0
   -6.0734    0.5446   19.6645 H   0  0  0  0  0  0  0  0  0  0  0  0
   -4.6853    5.6532   13.7892 C   0  0  0  0  0  0  0  0  0  0  0  0
   -5.5452    6.0781   13.0476 O   0  0  0  0  0  0  0  0  0  0  0  0
   -3.4168    6.2140   13.7902 N   0  0  0  0  0  0  0  0  0  0  0  0
   -2.7680    5.8104   14.4112 H   0  0  0  0  0  0  0  0  0  0  0  0
   -2.9240    7.3254   12.9874 C   0  0  0  0  0  0  0  0  0  0  0  0
   -2.3219    8.4036   13.7271 C   0  0  0  0  0  0  0  0  0  0  0  0
   -1.9859    8.1687   15.1039 C   0  0  0  0  0  0  0  0  0  0  0  0
   -1.3949    9.1618   15.9239 C   0  0  0  0  0  0  0  0  0  0  0  0
   -1.1293   10.4230   15.3575 C   0  0  0  0  0  0  0  0  0  0  0  0
   -1.4452   10.7085   13.9766 C   0  0  0  0  0  0  0  0  0  0  0  0
   -2.0539    9.6809   13.1437 C   0  0  0  0  0  0  0  0  0  0  0  0
   -2.3544    9.9285   11.8613 F   0  0  0  0  0  0  0  0  0  0  0  0
  1  2  2  0  0  0
  1  6  1  0  0  0
  2  3  1  0  0  0
  3  4  2  0  0  0
  3  7  1  0  0  0
  4  5  1  0  0  0
  5  6  2  0  0  0
  6 13  1  0  0  0
 13 14  2  0  0  0
 13 15  1  0  0  0
 15 17  1  0  0  0
 17 18  1  0  0  0
  7  8  1  0  0  0
  7  9  2  0  0  0
  7 10  2  0  0  0
 18 19  2  0  0  0
 18 23  1  0  0  0
 19 20  1  0  0  0
 20 21  2  0  0  0
 21 22  1  0  0  0
 22 23  2  0  0  0
 23 24  1  0  0  0
 15 16  1  0  0  0
  8 11  1  0  0  0
  8 12  1  0  0  0
M  END
> <minimizedAffinity>
-7.58913

$$$$
1G1D_FSB_A_555


 24 25  0  0  0  0  0  0  0  0999 V2000
   -3.9554    3.0991   14.9970 C   0  0  0  0  0  0  0  0  0  0  0  0
   -4.4166    2.3039   16.0688 C   0  0  0  0  0  0  0  0  0  0  0  0
   -5.7616    2.5270   16.5282 C   0  0  0  0  0  0  0  0  0  0  0  0
   -6.5355    3.5145   15.8842 C   0  0  0  0  0  0  0  0  0  0  0  0
   -6.0347    4.2749   14.8270 C   0  0  0  0  0  0  0  0  0  0  0  0
   -4.7566    4.0769   14.3798 C   0  0  0  0  0  0  0  0  0  0  0  0
   -6.3486    1.4950   17.9101 S   0  0  0  0  0  0  0  0  0  0  0  0
   -6.3756    2.2799   19.2703 N   0  0  0  0  0  0  0  0  0  0  0  0
   -5.3522    0.3778   17.7757 O   0  0  0  0  0  0  0  0  0  0  0  0
   -7.6340    1.0007   17.4047 O   0  0  0  0  0  0  0  0  0  0  0  0
   -5.4286    2.5698   19.5145 H   0  0  0  0  0  0  0  0  0  0  0  0
   -6.7462    1.6760   20.0041 H   0  0  0  0  0  0  0  0  0  0  0  0
   -4.2015    4.9082   13.2398 C   0  0  0  0  0  0  0  0  0  0  0  0
   -4.9670    5.3624   12.4166 O   0  0  0  0  0  0  0  0  0  0  0  0
   -2.8396    5.1526   13.1448 N   0  0  0  0  0  0  0  0  0  0  0  0
   -2.2788    4.7431   13.8427 H   0  0  0  0  0  0  0  0  0  0  0  0
   -2.1349    5.9396   12.1416 C   0  0  0  0  0  0  0  0  0  0  0  0
   -0.9530    5.3276   11.5933 C   0  0  0  0  0  0  0  0  0  0  0  0
    0.3235    5.8265   12.0235 C   0  0  0  0  0  0  0  0  0  0  0  0
    1.5484    5.3000   11.5435 C   0  0  0  0  0  0  0  0  0  0  0  0
    1.5015    4.2466   10.6106 C   0  0  0  0  0  0  0  0  0  0  0  0
    0.2431    3.7070   10.1488 C   0  0  0  0  0  0  0  0  0  0  0  0
   -1.0094    4.2569   10.6477 C   0  0  0  0  0  0  0  0  0  0  0  0
   -2.1857    3.7693   10.2295 F   0  0  0  0  0  0  0  0  0  0  0  0
  1  2  2  0  0  0
  1  6  1  0  0  0
  2  3  1  0  0  0
  3  4  2  0  0  0
  3  7  1  0  0  0
  4  5  1  0  0  0
  5  6  2  0  0  0
  6 13  1  0  0  0
 13 14  2  0  0  0
 13 15  1  0  0  0
 15 17  1  0  0  0
 17 18  1  0  0  0
  7  8  1  0  0  0
  7  9  2  0  0  0
  7 10  2  0  0  0
 18 19  2  0  0  0
 18 23  1  0  0  0
 19 20  1  0  0  0
 20 21  2  0  0  0
 21 22  1  0  0  0
 22 23  2  0  0  0
 23 24  1  0  0  0
 15 16  1  0  0  0
  8 11  1  0  0  0
  8 12  1  0  0  0
M  END
> <minimizedAffinity>
-7.09565

$$$$
1G1D_FSB_A_555


 24 25  0  0  0  0  0  0  0  0999 V2000
   -3.3017    7.0126   15.1020 C   0  0  0  0  0  0  0  0  0  0  0  0
   -2.5851    8.2074   15.3320 C   0  0  0  0  0  0  0  0  0  0  0  0
   -2.1385    8.9442   14.1797 C   0  0  0  0  0  0  0  0  0  0  0  0
   -2.4435    8.4372   12.8996 C   0  0  0  0  0  0  0  0  0  0  0  0
   -3.1564    7.2508   12.7235 C   0  0  0  0  0  0  0  0  0  0  0  0
   -3.5860    6.5368   13.8091 C   0  0  0  0  0  0  0  0  0  0  0  0
   -1.2166   10.4854   14.4861 S   0  0  0  0  0  0  0  0  0  0  0  0
   -2.1156   11.7617   14.3134 N   0  0  0  0  0  0  0  0  0  0  0  0
   -0.1157   10.2740   13.4850 O   0  0  0  0  0  0  0  0  0  0  0  0
   -0.6504   10.2492   15.8186 O   0  0  0  0  0  0  0  0  0  0  0  0
   -2.4476   11.8160   13.3504 H   0  0  0  0  0  0  0  0  0  0  0  0
   -1.5690   12.5947   14.5320 H   0  0  0  0  0  0  0  0  0  0  0  0
   -4.3502    5.2403   13.6255 C   0  0  0  0  0  0  0  0  0  0  0  0
   -5.2994    5.2192   12.8714 O   0  0  0  0  0  0  0  0  0  0  0  0
   -3.9640    4.0934   14.3030 N   0  0  0  0  0  0  0  0  0  0  0  0
   -3.1913    4.1888   14.9056 H   0  0  0  0  0  0  0  0  0  0  0  0
   -4.5586    2.7651   14.2347 C   0  0  0  0  0  0  0  0  0  0  0  0
   -5.2649    2.3421   15.4155 C   0  0  0  0  0  0  0  0  0  0  0  0
   -6.2306    3.2433   15.9801 C   0  0  0  0  0  0  0  0  0  0  0  0
   -6.9772    2.9292   17.1427 C   0  0  0  0  0  0  0  0  0  0  0  0
   -6.7577    1.6829   17.7598 C   0  0  0  0  0  0  0  0  0  0  0  0
   -5.8000    0.7398   17.2293 C   0  0  0  0  0  0  0  0  0  0  0  0
   -5.0373    1.0738   16.0348 C   0  0  0  0  0  0  0  0  0  0  0  0
   -4.1442    0.2116   15.5296 F   0  0  0  0  0  0  0  0  0  0  0  0
  1  2  2  0  0  0
  1  6  1  0  0  0
  2  3  1  0  0  0
  3  4  2  0  0  0
  3  7  1  0  0  0
  4  5  1  0  0  0
  5  6  2  0  0  0
  6 13  1  0  0  0
 13 14  2  0  0  0
 13 15  1  0  0  0
 15 17  1  0  0  0
 17 18  1  0  0  0
  7  8  1  0  0  0
  7  9  2  0  0  0
  7 10  2  0  0  0
 18 19  2  0  0  0
 18 23  1  0  0  0
 19 20  1  0  0  0
 20 21  2  0  0  0
 21 22  1  0  0  0
 22 23  2  0  0  0
 23 24  1  0  0  0
 15 16  1  0  0  0
  8 11  1  0  0  0
  8 12  1  0  0  0
M  END
> <minimizedAffinity>
-7.03810

$$$$
1G1D_FSB_A_555


 24 25  0  0  0  0  0  0  0  0999 V2000
   -5.6247    4.3291   14.8953 C   0  0  0  0  0  0  0  0  0  0  0  0
   -6.3053    3.4541   15.7699 C   0  0  0  0  0  0  0  0  0  0  0  0
   -5.5282    2.4362   16.4257 C   0  0  0  0  0  0  0  0  0  0  0  0
   -4.1441    2.3751   16.1626 C   0  0  0  0  0  0  0  0  0  0  0  0
   -3.5162    3.2644   15.2898 C   0  0  0  0  0  0  0  0  0  0  0  0
   -4.2416    4.2365   14.6561 C   0  0  0  0  0  0  0  0  0  0  0  0
   -6.4144    1.3133   17.5539 S   0  0  0  0  0  0  0  0  0  0  0  0
   -5.7812   -0.1238   17.5831 N   0  0  0  0  0  0  0  0  0  0  0  0
   -7.7857    1.4530   16.9546 O   0  0  0  0  0  0  0  0  0  0  0  0
   -6.4059    2.0669   18.8125 O   0  0  0  0  0  0  0  0  0  0  0  0
   -5.8466   -0.5431   16.6556 H   0  0  0  0  0  0  0  0  0  0  0  0
   -6.2845   -0.7035   18.2546 H   0  0  0  0  0  0  0  0  0  0  0  0
   -3.5683    5.1982   13.6966 C   0  0  0  0  0  0  0  0  0  0  0  0
   -3.4166    6.3534   14.0322 O   0  0  0  0  0  0  0  0  0  0  0  0
   -3.1248    4.7613   12.4573 N   0  0  0  0  0  0  0  0  0  0  0  0
   -3.2917    3.8135   12.2498 H   0  0  0  0  0  0  0  0  0  0  0  0
   -2.4429    5.5292   11.4240 C   0  0  0  0  0  0  0  0  0  0  0  0
   -1.0260    5.2992   11.3159 C   0  0  0  0  0  0  0  0  0  0  0  0
   -0.5778    4.2814   10.4067 C   0  0  0  0  0  0  0  0  0  0  0  0
    0.7929    3.9703   10.2271 C   0  0  0  0  0  0  0  0  0  0  0  0
    1.7440    4.6933   10.9719 C   0  0  0  0  0  0  0  0  0  0  0  0
    1.3449    5.7291   11.8970 C   0  0  0  0  0  0  0  0  0  0  0  0
   -0.0667    6.0393   12.0746 C   0  0  0  0  0  0  0  0  0  0  0  0
   -0.4548    6.9962   12.9290 F   0  0  0  0  0  0  0  0  0  0  0  0
  1  2  2  0  0  0
  1  6  1  0  0  0
  2  3  1  0  0  0
  3  4  2  0  0  0
  3  7  1  0  0  0
  4  5  1  0  0  0
  5  6  2  0  0  0
  6 13  1  0  0  0
 13 14  2  0  0  0
 13 15  1  0  0  0
 15 17  1  0  0  0
 17 18  1  0  0  0
  7  8  1  0  0  0
  7  9  2  0  0  0
  7 10  2  0  0  0
 18 19  2  0  0  0
 18 23  1  0  0  0
 19 20  1  0  0  0
 20 21  2  0  0  0
 21 22  1  0  0  0
 22 23  2  0  0  0
 23 24  1  0  0  0
 15 16  1  0  0  0
  8 11  1  0  0  0
  8 12  1  0  0  0
M  END
> <minimizedAffinity>
-6.97702

$$$$
1G1D_FSB_A_555


 24 25  0  0  0  0  0  0  0  0999 V2000
   -6.4686    7.4695   12.1774 C   0  0  0  0  0  0  0  0  0  0  0  0
   -7.2826    8.0580   11.1849 C   0  0  0  0  0  0  0  0  0  0  0  0
   -6.9827    7.7476    9.8125 C   0  0  0  0  0  0  0  0  0  0  0  0
   -5.9060    6.8782    9.5411 C   0  0  0  0  0  0  0  0  0  0  0  0
   -5.1305    6.3201   10.5578 C   0  0  0  0  0  0  0  0  0  0  0  0
   -5.4010    6.6074   11.8682 C   0  0  0  0  0  0  0  0  0  0  0  0
   -8.0395    8.5097    8.5391 S   0  0  0  0  0  0  0  0  0  0  0  0
   -9.5530    8.1281    8.7144 N   0  0  0  0  0  0  0  0  0  0  0  0
   -7.3272    7.9757    7.3281 O   0  0  0  0  0  0  0  0  0  0  0  0
   -7.6961    9.9308    8.6599 O   0  0  0  0  0  0  0  0  0  0  0  0
   -9.6638    7.1196    8.6093 H   0  0  0  0  0  0  0  0  0  0  0  0
  -10.1087    8.6070    8.0057 H   0  0  0  0  0  0  0  0  0  0  0  0
   -4.5546    6.0146   12.9777 C   0  0  0  0  0  0  0  0  0  0  0  0
   -3.6953    6.6990   13.4910 O   0  0  0  0  0  0  0  0  0  0  0  0
   -4.7658    4.7122   13.4052 N   0  0  0  0  0  0  0  0  0  0  0  0
   -5.4731    4.2141   12.9353 H   0  0  0  0  0  0  0  0  0  0  0  0
   -4.0720    3.9890   14.4626 C   0  0  0  0  0  0  0  0  0  0  0  0
   -4.9095    3.1886   15.3170 C   0  0  0  0  0  0  0  0  0  0  0  0
   -4.4901    1.8444   15.6012 C   0  0  0  0  0  0  0  0  0  0  0  0
   -5.2414    0.9700   16.4251 C   0  0  0  0  0  0  0  0  0  0  0  0
   -6.4428    1.4472   16.9829 C   0  0  0  0  0  0  0  0  0  0  0  0
   -6.9067    2.7922   16.7304 C   0  0  0  0  0  0  0  0  0  0  0  0
   -6.1272    3.6815   15.8808 C   0  0  0  0  0  0  0  0  0  0  0  0
   -6.5429    4.9318   15.6351 F   0  0  0  0  0  0  0  0  0  0  0  0
  1  2  2  0  0  0
  1  6  1  0  0  0
  2  3  1  0  0  0
  3  4  2  0  0  0
  3  7  1  0  0  0
  4  5  1  0  0  0
  5  6  2  0  0  0
  6 13  1  0  0  0
 13 14  2  0  0  0
 13 15  1  0  0  0
 15 17  1  0  0  0
 17 18  1  0  0  0
  7  8  1  0  0  0
  7  9  2  0  0  0
  7 10  2  0  0  0
 18 19  2  0  0  0
 18 23  1  0  0  0
 19 20  1  0  0  0
 20 21  2  0  0  0
 21 22  1  0  0  0
 22 23  2  0  0  0
 23 24  1  0  0  0
 15 16  1  0  0  0
  8 11  1  0  0  0
  8 12  1  0  0  0
M  END
> <minimizedAffinity>
-6.92625

$$$$
1G1D_FSB_A_555


 24 25  0  0  0  0  0  0  0  0999 V2000
   -1.8993    5.8588   12.0122 C   0  0  0  0  0  0  0  0  0  0  0  0
   -0.5532    5.9322   11.5921 C   0  0  0  0  0  0  0  0  0  0  0  0
    0.1726    4.6955   11.4751 C   0  0  0  0  0  0  0  0  0  0  0  0
   -0.4978    3.4927   11.7795 C   0  0  0  0  0  0  0  0  0  0  0  0
   -1.8311    3.4716   12.1901 C   0  0  0  0  0  0  0  0  0  0  0  0
   -2.5347    4.6394   12.3091 C   0  0  0  0  0  0  0  0  0  0  0  0
    1.9080    4.8000   10.9305 S   0  0  0  0  0  0  0  0  0  0  0  0
    2.9169    4.6702   12.1273 N   0  0  0  0  0  0  0  0  0  0  0  0
    1.8294    6.1289   10.2328 O   0  0  0  0  0  0  0  0  0  0  0  0
    1.9716    3.7629    9.8948 O   0  0  0  0  0  0  0  0  0  0  0  0
    2.7758    5.4443   12.7764 H   0  0  0  0  0  0  0  0  0  0  0  0
    3.8723    4.6953   11.7708 H   0  0  0  0  0  0  0  0  0  0  0  0
   -3.9800    4.6251   12.7669 C   0  0  0  0  0  0  0  0  0  0  0  0
   -4.8188    5.1709   12.0824 O   0  0  0  0  0  0  0  0  0  0  0  0
   -4.3387    3.9897   13.9464 N   0  0  0  0  0  0  0  0  0  0  0  0
   -3.6029    3.5778   14.4546 H   0  0  0  0  0  0  0  0  0  0  0  0
   -5.6678    3.8557   14.5276 C   0  0  0  0  0  0  0  0  0  0  0  0
   -5.7875    2.8804   15.5796 C   0  0  0  0  0  0  0  0  0  0  0  0
   -5.0271    1.6674   15.4612 C   0  0  0  0  0  0  0  0  0  0  0  0
   -5.0750    0.6401   16.4360 C   0  0  0  0  0  0  0  0  0  0  0  0
   -5.9013    0.8258   17.5606 C   0  0  0  0  0  0  0  0  0  0  0  0
   -6.6834    2.0293   17.7282 C   0  0  0  0  0  0  0  0  0  0  0  0
   -6.6277    3.0778   16.7193 C   0  0  0  0  0  0  0  0  0  0  0  0
   -7.3470    4.2000   16.8581 F   0  0  0  0  0  0  0  0  0  0  0  0
  1  2  2  0  0  0
  1  6  1  0  0  0
  2  3  1  0  0  0
  3  4  2  0  0  0
  3  7  1  0  0  0
  4  5  1  0  0  0
  5  6  2  0  0  0
  6 13  1  0  0  0
 13 14  2  0  0  0
 13 15  1  0  0  0
 15 17  1  0  0  0
 17 18  1  0  0  0
  7  8  1  0  0  0
  7  9  2  0  0  0
  7 10  2  0  0  0
 18 19  2  0  0  0
 18 23  1  0  0  0
 19 20  1  0  0  0
 20 21  2  0  0  0
 21 22  1  0  0  0
 22 23  2  0  0  0
 23 24  1  0  0  0
 15 16  1  0  0  0
  8 11  1  0  0  0
  8 12  1  0  0  0
M  END
> <minimizedAffinity>
-6.90088

$$$$
1G1D_FSB_A_555


 24 25  0  0  0  0  0  0  0  0999 V2000
   -6.0978    4.5925   15.0209 C   0  0  0  0  0  0  0  0  0  0  0  0
   -6.5370    3.7366   16.0546 C   0  0  0  0  0  0  0  0  0  0  0  0
   -5.8521    2.4811   16.2109 C   0  0  0  0  0  0  0  0  0  0  0  0
   -4.7888    2.1831   15.3338 C   0  0  0  0  0  0  0  0  0  0  0  0
   -4.3904    3.0632   14.3271 C   0  0  0  0  0  0  0  0  0  0  0  0
   -5.0333    4.2602   14.1634 C   0  0  0  0  0  0  0  0  0  0  0  0
   -6.4243    1.3844   17.5484 S   0  0  0  0  0  0  0  0  0  0  0  0
   -5.5716    0.0689   17.6461 N   0  0  0  0  0  0  0  0  0  0  0  0
   -7.8561    1.2498   17.1113 O   0  0  0  0  0  0  0  0  0  0  0  0
   -6.4022    2.2764   18.7127 O   0  0  0  0  0  0  0  0  0  0  0  0
   -5.6676   -0.4636   16.7815 H   0  0  0  0  0  0  0  0  0  0  0  0
   -5.9025   -0.4933   18.4302 H   0  0  0  0  0  0  0  0  0  0  0  0
   -4.6143    5.2160   13.0636 C   0  0  0  0  0  0  0  0  0  0  0  0
   -5.4580    5.9035   12.5293 O   0  0  0  0  0  0  0  0  0  0  0  0
   -3.2845    5.3090   12.6805 N   0  0  0  0  0  0  0  0  0  0  0  0
   -2.6581    4.7129   13.1511 H   0  0  0  0  0  0  0  0  0  0  0  0
   -2.6987    6.1784   11.6688 C   0  0  0  0  0  0  0  0  0  0  0  0
   -1.9990    5.5061   10.6055 C   0  0  0  0  0  0  0  0  0  0  0  0
   -1.4041    4.2307   10.8935 C   0  0  0  0  0  0  0  0  0  0  0  0
   -0.6891    3.4868    9.9222 C   0  0  0  0  0  0  0  0  0  0  0  0
   -0.5640    4.0266    8.6280 C   0  0  0  0  0  0  0  0  0  0  0  0
   -1.1469    5.3041    8.2868 C   0  0  0  0  0  0  0  0  0  0  0  0
   -1.8782    6.0605    9.2934 C   0  0  0  0  0  0  0  0  0  0  0  0
   -2.4244    7.2474    8.9947 F   0  0  0  0  0  0  0  0  0  0  0  0
  1  2  2  0  0  0
  1  6  1  0  0  0
  2  3  1  0  0  0
  3  4  2  0  0  0
  3  7  1  0  0  0
  4  5  1  0  0  0
  5  6  2  0  0  0
  6 13  1  0  0  0
 13 14  2  0  0  0
 13 15  1  0  0  0
 15 17  1  0  0  0
 17 18  1  0  0  0
  7  8  1  0  0  0
  7  9  2  0  0  0
  7 10  2  0  0  0
 18 19  2  0  0  0
 18 23  1  0  0  0
 19 20  1  0  0  0
 20 21  2  0  0  0
 21 22  1  0  0  0
 22 23  2  0  0  0
 23 24  1  0  0  0
 15 16  1  0  0  0
  8 11  1  0  0  0
  8 12  1  0  0  0
M  END
> <minimizedAffinity>
-6.70988

$$$$
1G1D_FSB_A_555


 24 25  0  0  0  0  0  0  0  0999 V2000
   -5.6932    6.5231   12.7458 C   0  0  0  0  0  0  0  0  0  0  0  0
   -6.2646    7.3858   11.7850 C   0  0  0  0  0  0  0  0  0  0  0  0
   -5.4001    8.3578   11.1703 C   0  0  0  0  0  0  0  0  0  0  0  0
   -4.0440    8.3889   11.5561 C   0  0  0  0  0  0  0  0  0  0  0  0
   -3.5255    7.5134   12.5108 C   0  0  0  0  0  0  0  0  0  0  0  0
   -4.3351    6.5848   13.1068 C   0  0  0  0  0  0  0  0  0  0  0  0
   -6.1455    9.4651    9.9304 S   0  0  0  0  0  0  0  0  0  0  0  0
   -5.2713    9.5782    8.6304 N   0  0  0  0  0  0  0  0  0  0  0  0
   -6.2678   10.6914   10.7907 O   0  0  0  0  0  0  0  0  0  0  0  0
   -7.4905    8.8997    9.7773 O   0  0  0  0  0  0  0  0  0  0  0  0
   -4.3648    9.9830    8.8644 H   0  0  0  0  0  0  0  0  0  0  0  0
   -5.7455   10.1750    7.9526 H   0  0  0  0  0  0  0  0  0  0  0  0
   -3.7814    5.6387   14.1542 C   0  0  0  0  0  0  0  0  0  0  0  0
   -2.9102    6.0321   14.8999 O   0  0  0  0  0  0  0  0  0  0  0  0
   -4.2703    4.3453   14.2635 N   0  0  0  0  0  0  0  0  0  0  0  0
   -4.9694    4.0932   13.6177 H   0  0  0  0  0  0  0  0  0  0  0  0
   -3.8790    3.3132   15.2143 C   0  0  0  0  0  0  0  0  0  0  0  0
   -4.9636    2.6571   15.8963 C   0  0  0  0  0  0  0  0  0  0  0  0
   -6.1760    3.3998   16.1012 C   0  0  0  0  0  0  0  0  0  0  0  0
   -7.3020    2.8521   16.7646 C   0  0  0  0  0  0  0  0  0  0  0  0
   -7.2197    1.5279   17.2358 C   0  0  0  0  0  0  0  0  0  0  0  0
   -6.0239    0.7377   17.0518 C   0  0  0  0  0  0  0  0  0  0  0  0
   -4.8723    1.3113   16.3700 C   0  0  0  0  0  0  0  0  0  0  0  0
   -3.7549    0.5931   16.1915 F   0  0  0  0  0  0  0  0  0  0  0  0
  1  2  2  0  0  0
  1  6  1  0  0  0
  2  3  1  0  0  0
  3  4  2  0  0  0
  3  7  1  0  0  0
  4  5  1  0  0  0
  5  6  2  0  0  0
  6 13  1  0  0  0
 13 14  2  0  0  0
 13 15  1  0  0  0
 15 17  1  0  0  0
 17 18  1  0  0  0
  7  8  1  0  0  0
  7  9  2  0  0  0
  7 10  2  0  0  0
 18 19  2  0  0  0
 18 23  1  0  0  0
 19 20  1  0  0  0
 20 21  2  0  0  0
 21 22  1  0  0  0
 22 23  2  0  0  0
 23 24  1  0  0  0
 15 16  1  0  0  0
  8 11  1  0  0  0
  8 12  1  0  0  0
M  END
> <minimizedAffinity>
-6.66948

$$$$
