3E12_KD0_A_268


 27 26  0  0  0  0  0  0  0  0999 V2000
   35.5681   52.4326   19.5220 C   0  0  0  0  0  0  0  0  0  0  0  0
   35.6321   50.9939   19.3164 O   0  0  0  0  0  0  0  0  0  0  0  0
   35.0208   50.7412   18.6069 H   0  0  0  0  0  0  0  0  0  0  0  0
   34.1561   52.7968   19.9248 C   0  0  0  0  0  0  0  0  0  0  0  0
   34.1605   53.8599   20.8846 O   0  0  0  0  0  0  0  0  0  0  0  0
   34.6539   53.5824   21.6723 H   0  0  0  0  0  0  0  0  0  0  0  0
   33.5345   51.5762   20.5886 C   0  0  0  0  0  0  0  0  0  0  0  0
   32.6788   51.0237   19.6911 O   0  0  0  0  0  0  0  0  0  0  0  0
   31.9172   49.3316   21.3221 O   0  0  0  0  0  0  0  0  0  0  0  0
   32.2928   49.5254   19.7869 P   0  0  0  0  0  0  0  0  0  0  0  0
   31.0149   49.2552   18.8652 O   0  0  0  0  0  0  0  0  0  0  0  0
   33.4472   48.6597   19.4182 O   0  0  0  0  0  0  0  0  0  0  0  0
   31.1648   49.9017   21.5453 H   0  0  0  0  0  0  0  0  0  0  0  0
   33.1864   47.7277   19.4841 H   0  0  0  0  0  0  0  0  0  0  0  0
   36.0013   53.1603   18.2402 C   0  0  0  0  0  0  0  0  0  0  0  0
   35.4137   54.4674   18.1489 O   0  0  0  0  0  0  0  0  0  0  0  0
   34.4472   54.3868   18.1307 H   0  0  0  0  0  0  0  0  0  0  0  0
   35.5110   52.3713   17.0442 C   0  0  0  0  0  0  0  0  0  0  0  0
   36.6136   51.7180   16.4460 O   0  0  0  0  0  0  0  0  0  0  0  0
   37.2645   52.3781   16.1604 H   0  0  0  0  0  0  0  0  0  0  0  0
   34.9116   53.3162   16.0009 C   0  0  0  0  0  0  0  0  0  0  0  0
   35.9298   53.5802   14.8913 C   0  0  0  0  0  0  0  0  0  0  0  0
   36.0268   52.8051   13.9353 O   0  0  0  0  0  0  0  0  0  0  0  0
   36.8072   54.8296   14.9393 C   0  0  0  0  0  0  0  0  0  0  0  0
   37.7641   54.8878   14.1045 O   0  0  0  0  0  0  0  0  0  0  0  0
   36.4738   55.7356   15.7675 O   0  0  0  0  0  0  0  0  0  0  0  0
   35.7492   55.5983   16.3455 H   0  0  0  0  0  0  0  0  0  0  0  0
  9 10  1  0  0  0
 11 10  2  0  0  0
  8 10  1  0  0  0
 10 12  1  0  0  0
  7  8  1  0  0  0
  7  4  1  0  0  0
  1  4  1  0  0  0
  4  5  1  0  0  0
  2  1  1  0  0  0
  1 15  1  0  0  0
 18 15  1  0  0  0
 15 16  1  0  0  0
 19 18  1  0  0  0
 18 21  1  0  0  0
 22 21  1  0  0  0
 23 22  2  0  0  0
 22 24  1  0  0  0
 25 24  2  0  0  0
 24 26  1  0  0  0
  9 13  1  0  0  0
 12 14  1  0  0  0
  5  6  1  0  0  0
  2  3  1  0  0  0
 16 17  1  0  0  0
 19 20  1  0  0  0
 26 27  1  0  0  0
M  END
> <minimizedAffinity>
-7.82109

$$$$
3E12_KD0_A_268


 27 26  0  0  0  0  0  0  0  0999 V2000
   35.4405   52.2565   18.7075 C   0  0  0  0  0  0  0  0  0  0  0  0
   35.2099   50.8698   18.3331 O   0  0  0  0  0  0  0  0  0  0  0  0
   34.4470   50.8186   17.7363 H   0  0  0  0  0  0  0  0  0  0  0  0
   34.2105   52.7708   19.4226 C   0  0  0  0  0  0  0  0  0  0  0  0
   34.5558   53.8175   20.3371 O   0  0  0  0  0  0  0  0  0  0  0  0
   35.1860   53.4795   20.9924 H   0  0  0  0  0  0  0  0  0  0  0  0
   33.6311   51.6200   20.2331 C   0  0  0  0  0  0  0  0  0  0  0  0
   32.6786   51.0294   19.4670 O   0  0  0  0  0  0  0  0  0  0  0  0
   30.9191   49.4028   18.8657 O   0  0  0  0  0  0  0  0  0  0  0  0
   32.2396   49.5680   19.7401 P   0  0  0  0  0  0  0  0  0  0  0  0
   33.3779   48.5743   19.2181 O   0  0  0  0  0  0  0  0  0  0  0  0
   31.9376   49.3701   21.1850 O   0  0  0  0  0  0  0  0  0  0  0  0
   31.1331   49.5345   17.9288 H   0  0  0  0  0  0  0  0  0  0  0  0
   31.6653   48.4513   21.3355 H   0  0  0  0  0  0  0  0  0  0  0  0
   35.7608   53.0863   17.4550 C   0  0  0  0  0  0  0  0  0  0  0  0
   35.0012   54.3044   17.4180 O   0  0  0  0  0  0  0  0  0  0  0  0
   34.0544   54.0945   17.3993 H   0  0  0  0  0  0  0  0  0  0  0  0
   35.3721   52.2862   16.2294 C   0  0  0  0  0  0  0  0  0  0  0  0
   36.4230   51.3932   15.9157 O   0  0  0  0  0  0  0  0  0  0  0  0
   37.2325   51.8967   15.7367 H   0  0  0  0  0  0  0  0  0  0  0  0
   35.1840   53.2183   15.0309 C   0  0  0  0  0  0  0  0  0  0  0  0
   34.7927   52.4063   13.7959 C   0  0  0  0  0  0  0  0  0  0  0  0
   35.6497   51.7875   13.1581 O   0  0  0  0  0  0  0  0  0  0  0  0
   33.3292   52.3233   13.3669 C   0  0  0  0  0  0  0  0  0  0  0  0
   32.5318   53.1633   13.8910 O   0  0  0  0  0  0  0  0  0  0  0  0
   33.0382   51.4623   12.4770 O   0  0  0  0  0  0  0  0  0  0  0  0
   33.6991   50.8834   12.1513 H   0  0  0  0  0  0  0  0  0  0  0  0
  9 10  1  0  0  0
 11 10  2  0  0  0
  8 10  1  0  0  0
 10 12  1  0  0  0
  7  8  1  0  0  0
  7  4  1  0  0  0
  1  4  1  0  0  0
  4  5  1  0  0  0
  2  1  1  0  0  0
  1 15  1  0  0  0
 18 15  1  0  0  0
 15 16  1  0  0  0
 19 18  1  0  0  0
 18 21  1  0  0  0
 22 21  1  0  0  0
 23 22  2  0  0  0
 22 24  1  0  0  0
 25 24  2  0  0  0
 24 26  1  0  0  0
  9 13  1  0  0  0
 12 14  1  0  0  0
  5  6  1  0  0  0
  2  3  1  0  0  0
 16 17  1  0  0  0
 19 20  1  0  0  0
 26 27  1  0  0  0
M  END
> <minimizedAffinity>
-7.81682

$$$$
3E12_KD0_A_268


 27 26  0  0  0  0  0  0  0  0999 V2000
   36.0226   52.7866   17.0362 C   0  0  0  0  0  0  0  0  0  0  0  0
   37.4330   52.5716   17.3201 O   0  0  0  0  0  0  0  0  0  0  0  0
   37.8527   53.4196   17.5338 H   0  0  0  0  0  0  0  0  0  0  0  0
   35.9091   53.7148   15.8469 C   0  0  0  0  0  0  0  0  0  0  0  0
   35.0157   54.7975   16.1316 O   0  0  0  0  0  0  0  0  0  0  0  0
   34.1375   54.4446   16.3440 H   0  0  0  0  0  0  0  0  0  0  0  0
   35.3182   52.9181   14.6924 C   0  0  0  0  0  0  0  0  0  0  0  0
   34.5676   53.7762   13.9555 O   0  0  0  0  0  0  0  0  0  0  0  0
   33.0158   51.9117   13.4873 O   0  0  0  0  0  0  0  0  0  0  0  0
   33.0664   53.4896   13.6959 P   0  0  0  0  0  0  0  0  0  0  0  0
   32.2240   53.9050   14.9894 O   0  0  0  0  0  0  0  0  0  0  0  0
   32.6002   54.1939   12.4692 O   0  0  0  0  0  0  0  0  0  0  0  0
   33.3221   51.4690   14.2942 H   0  0  0  0  0  0  0  0  0  0  0  0
   31.6605   54.0025   12.3240 H   0  0  0  0  0  0  0  0  0  0  0  0
   35.3246   53.3624   18.2777 C   0  0  0  0  0  0  0  0  0  0  0  0
   36.0209   54.5075   18.7935 O   0  0  0  0  0  0  0  0  0  0  0  0
   36.9195   54.2499   19.0525 H   0  0  0  0  0  0  0  0  0  0  0  0
   35.3313   52.3129   19.3694 C   0  0  0  0  0  0  0  0  0  0  0  0
   35.5213   51.0419   18.7788 O   0  0  0  0  0  0  0  0  0  0  0  0
   34.7996   50.8638   18.1555 H   0  0  0  0  0  0  0  0  0  0  0  0
   33.9802   52.2921   20.0869 C   0  0  0  0  0  0  0  0  0  0  0  0
   34.1120   51.5635   21.4246 C   0  0  0  0  0  0  0  0  0  0  0  0
   35.1570   50.9732   21.7139 O   0  0  0  0  0  0  0  0  0  0  0  0
   32.9627   51.5961   22.4302 C   0  0  0  0  0  0  0  0  0  0  0  0
   31.7856   51.6305   21.9512 O   0  0  0  0  0  0  0  0  0  0  0  0
   33.2732   51.5252   23.6616 O   0  0  0  0  0  0  0  0  0  0  0  0
   34.1745   51.5051   23.9171 H   0  0  0  0  0  0  0  0  0  0  0  0
  9 10  1  0  0  0
 11 10  2  0  0  0
  8 10  1  0  0  0
 10 12  1  0  0  0
  7  8  1  0  0  0
  7  4  1  0  0  0
  1  4  1  0  0  0
  4  5  1  0  0  0
  2  1  1  0  0  0
  1 15  1  0  0  0
 18 15  1  0  0  0
 15 16  1  0  0  0
 19 18  1  0  0  0
 18 21  1  0  0  0
 22 21  1  0  0  0
 23 22  2  0  0  0
 22 24  1  0  0  0
 25 24  2  0  0  0
 24 26  1  0  0  0
  9 13  1  0  0  0
 12 14  1  0  0  0
  5  6  1  0  0  0
  2  3  1  0  0  0
 16 17  1  0  0  0
 19 20  1  0  0  0
 26 27  1  0  0  0
M  END
> <minimizedAffinity>
-7.69573

$$$$
3E12_KD0_A_268


 27 26  0  0  0  0  0  0  0  0999 V2000
   35.6094   53.6741   18.5169 C   0  0  0  0  0  0  0  0  0  0  0  0
   36.4247   54.7482   19.0626 O   0  0  0  0  0  0  0  0  0  0  0  0
   37.2870   54.3948   19.3317 H   0  0  0  0  0  0  0  0  0  0  0  0
   35.4085   52.6304   19.5935 C   0  0  0  0  0  0  0  0  0  0  0  0
   35.7091   51.3221   19.0944 O   0  0  0  0  0  0  0  0  0  0  0  0
   35.1279   51.1207   18.3444 H   0  0  0  0  0  0  0  0  0  0  0  0
   33.9385   52.6491   19.9880 C   0  0  0  0  0  0  0  0  0  0  0  0
   33.8834   52.5127   21.3375 O   0  0  0  0  0  0  0  0  0  0  0  0
   33.3261   51.5213   23.5307 O   0  0  0  0  0  0  0  0  0  0  0  0
   33.4205   51.1793   21.9783 P   0  0  0  0  0  0  0  0  0  0  0  0
   31.9773   50.7980   21.4060 O   0  0  0  0  0  0  0  0  0  0  0  0
   34.4234   50.1044   21.7402 O   0  0  0  0  0  0  0  0  0  0  0  0
   32.6695   52.2220   23.6680 H   0  0  0  0  0  0  0  0  0  0  0  0
   34.1163   49.2796   22.1480 H   0  0  0  0  0  0  0  0  0  0  0  0
   36.2909   53.0856   17.2721 C   0  0  0  0  0  0  0  0  0  0  0  0
   37.6902   52.8524   17.4948 O   0  0  0  0  0  0  0  0  0  0  0  0
   38.1289   53.6922   17.7027 H   0  0  0  0  0  0  0  0  0  0  0  0
   36.1846   54.0868   16.1409 C   0  0  0  0  0  0  0  0  0  0  0  0
   35.2476   55.0833   16.5006 O   0  0  0  0  0  0  0  0  0  0  0  0
   34.3832   54.6725   16.6586 H   0  0  0  0  0  0  0  0  0  0  0  0
   35.6657   53.3987   14.8769 C   0  0  0  0  0  0  0  0  0  0  0  0
   34.7451   54.3471   14.1082 C   0  0  0  0  0  0  0  0  0  0  0  0
   35.2035   55.3522   13.5569 O   0  0  0  0  0  0  0  0  0  0  0  0
   33.2553   54.0337   13.9838 C   0  0  0  0  0  0  0  0  0  0  0  0
   32.8007   53.8790   12.8068 O   0  0  0  0  0  0  0  0  0  0  0  0
   32.6042   53.8934   15.0674 O   0  0  0  0  0  0  0  0  0  0  0  0
   33.0299   54.0302   15.8908 H   0  0  0  0  0  0  0  0  0  0  0  0
  9 10  1  0  0  0
 11 10  2  0  0  0
  8 10  1  0  0  0
 10 12  1  0  0  0
  7  8  1  0  0  0
  7  4  1  0  0  0
  1  4  1  0  0  0
  4  5  1  0  0  0
  2  1  1  0  0  0
  1 15  1  0  0  0
 18 15  1  0  0  0
 15 16  1  0  0  0
 19 18  1  0  0  0
 18 21  1  0  0  0
 22 21  1  0  0  0
 23 22  2  0  0  0
 22 24  1  0  0  0
 25 24  2  0  0  0
 24 26  1  0  0  0
  9 13  1  0  0  0
 12 14  1  0  0  0
  5  6  1  0  0  0
  2  3  1  0  0  0
 16 17  1  0  0  0
 19 20  1  0  0  0
 26 27  1  0  0  0
M  END
> <minimizedAffinity>
-7.69243

$$$$
3E12_KD0_A_268


 27 26  0  0  0  0  0  0  0  0999 V2000
   35.8666   53.4397   18.7716 C   0  0  0  0  0  0  0  0  0  0  0  0
   34.7552   54.3103   18.4207 O   0  0  0  0  0  0  0  0  0  0  0  0
   34.0827   53.7996   17.9433 H   0  0  0  0  0  0  0  0  0  0  0  0
   36.4670   52.8911   17.4959 C   0  0  0  0  0  0  0  0  0  0  0  0
   37.8978   52.9121   17.5586 O   0  0  0  0  0  0  0  0  0  0  0  0
   38.2025   53.8240   17.6865 H   0  0  0  0  0  0  0  0  0  0  0  0
   36.0401   53.8024   16.3539 C   0  0  0  0  0  0  0  0  0  0  0  0
   35.0103   53.1901   15.7156 O   0  0  0  0  0  0  0  0  0  0  0  0
   36.2011   51.0281   15.6126 O   0  0  0  0  0  0  0  0  0  0  0  0
   35.2707   51.9983   14.7591 P   0  0  0  0  0  0  0  0  0  0  0  0
   33.8807   51.2822   14.4263 O   0  0  0  0  0  0  0  0  0  0  0  0
   35.9786   52.4540   13.5306 O   0  0  0  0  0  0  0  0  0  0  0  0
   35.7257   50.7410   16.4078 H   0  0  0  0  0  0  0  0  0  0  0  0
   36.1322   51.6955   12.9458 H   0  0  0  0  0  0  0  0  0  0  0  0
   35.3751   52.3180   19.6990 C   0  0  0  0  0  0  0  0  0  0  0  0
   36.4690   51.6380   20.3338 O   0  0  0  0  0  0  0  0  0  0  0  0
   37.0356   51.2352   19.6573 H   0  0  0  0  0  0  0  0  0  0  0  0
   34.6378   51.2887   18.8682 C   0  0  0  0  0  0  0  0  0  0  0  0
   33.3611   51.7994   18.5372 O   0  0  0  0  0  0  0  0  0  0  0  0
   32.8652   51.9822   19.3506 H   0  0  0  0  0  0  0  0  0  0  0  0
   34.4278   50.0096   19.6810 C   0  0  0  0  0  0  0  0  0  0  0  0
   33.5457   49.0352   18.8999 C   0  0  0  0  0  0  0  0  0  0  0  0
   32.4496   48.6874   19.3490 O   0  0  0  0  0  0  0  0  0  0  0  0
   33.9995   48.5165   17.5367 C   0  0  0  0  0  0  0  0  0  0  0  0
   34.5232   47.3584   17.5117 O   0  0  0  0  0  0  0  0  0  0  0  0
   33.7623   49.2579   16.5308 O   0  0  0  0  0  0  0  0  0  0  0  0
   33.3713   50.1008   16.6518 H   0  0  0  0  0  0  0  0  0  0  0  0
  9 10  1  0  0  0
 11 10  2  0  0  0
  8 10  1  0  0  0
 10 12  1  0  0  0
  7  8  1  0  0  0
  7  4  1  0  0  0
  1  4  1  0  0  0
  4  5  1  0  0  0
  2  1  1  0  0  0
  1 15  1  0  0  0
 18 15  1  0  0  0
 15 16  1  0  0  0
 19 18  1  0  0  0
 18 21  1  0  0  0
 22 21  1  0  0  0
 23 22  2  0  0  0
 22 24  1  0  0  0
 25 24  2  0  0  0
 24 26  1  0  0  0
  9 13  1  0  0  0
 12 14  1  0  0  0
  5  6  1  0  0  0
  2  3  1  0  0  0
 16 17  1  0  0  0
 19 20  1  0  0  0
 26 27  1  0  0  0
M  END
> <minimizedAffinity>
-7.61618

$$$$
3E12_KD0_A_268


 27 26  0  0  0  0  0  0  0  0999 V2000
   35.3375   52.6063   19.8199 C   0  0  0  0  0  0  0  0  0  0  0  0
   34.5921   53.7442   20.3354 O   0  0  0  0  0  0  0  0  0  0  0  0
   33.6414   53.5823   20.2306 H   0  0  0  0  0  0  0  0  0  0  0  0
   35.0159   52.4488   18.3501 C   0  0  0  0  0  0  0  0  0  0  0  0
   35.9456   51.5602   17.7196 O   0  0  0  0  0  0  0  0  0  0  0  0
   36.8441   51.9136   17.8120 H   0  0  0  0  0  0  0  0  0  0  0  0
   35.1635   53.8147   17.6947 C   0  0  0  0  0  0  0  0  0  0  0  0
   36.2928   54.3791   18.1938 O   0  0  0  0  0  0  0  0  0  0  0  0
   38.1162   55.9746   17.7110 O   0  0  0  0  0  0  0  0  0  0  0  0
   37.5534   54.5410   17.3063 P   0  0  0  0  0  0  0  0  0  0  0  0
   38.6099   53.4032   17.6869 O   0  0  0  0  0  0  0  0  0  0  0  0
   37.1885   54.5115   15.8627 O   0  0  0  0  0  0  0  0  0  0  0  0
   38.3487   55.9765   18.6527 H   0  0  0  0  0  0  0  0  0  0  0  0
   37.9891   54.6140   15.3247 H   0  0  0  0  0  0  0  0  0  0  0  0
   34.9794   51.3450   20.6205 C   0  0  0  0  0  0  0  0  0  0  0  0
   35.7545   50.2121   20.1987 O   0  0  0  0  0  0  0  0  0  0  0  0
   35.5763   50.0288   19.2630 H   0  0  0  0  0  0  0  0  0  0  0  0
   33.5258   51.0047   20.3666 C   0  0  0  0  0  0  0  0  0  0  0  0
   32.7555   51.4444   21.4682 O   0  0  0  0  0  0  0  0  0  0  0  0
   33.0614   51.0003   22.2745 H   0  0  0  0  0  0  0  0  0  0  0  0
   33.3523   49.4886   20.2567 C   0  0  0  0  0  0  0  0  0  0  0  0
   32.7852   49.1275   18.8835 C   0  0  0  0  0  0  0  0  0  0  0  0
   31.5696   49.1835   18.6754 O   0  0  0  0  0  0  0  0  0  0  0  0
   33.7261   48.7333   17.7466 C   0  0  0  0  0  0  0  0  0  0  0  0
   33.3345   48.9926   16.5653 O   0  0  0  0  0  0  0  0  0  0  0  0
   34.8487   48.2339   18.0756 O   0  0  0  0  0  0  0  0  0  0  0  0
   35.0460   48.0788   18.9783 H   0  0  0  0  0  0  0  0  0  0  0  0
  9 10  1  0  0  0
 11 10  2  0  0  0
  8 10  1  0  0  0
 10 12  1  0  0  0
  7  8  1  0  0  0
  7  4  1  0  0  0
  1  4  1  0  0  0
  4  5  1  0  0  0
  2  1  1  0  0  0
  1 15  1  0  0  0
 18 15  1  0  0  0
 15 16  1  0  0  0
 19 18  1  0  0  0
 18 21  1  0  0  0
 22 21  1  0  0  0
 23 22  2  0  0  0
 22 24  1  0  0  0
 25 24  2  0  0  0
 24 26  1  0  0  0
  9 13  1  0  0  0
 12 14  1  0  0  0
  5  6  1  0  0  0
  2  3  1  0  0  0
 16 17  1  0  0  0
 19 20  1  0  0  0
 26 27  1  0  0  0
M  END
> <minimizedAffinity>
-7.60784

$$$$
3E12_KD0_A_268


 27 26  0  0  0  0  0  0  0  0999 V2000
   36.0272   52.2038   17.4984 C   0  0  0  0  0  0  0  0  0  0  0  0
   37.3571   52.7712   17.3384 O   0  0  0  0  0  0  0  0  0  0  0  0
   37.2918   53.6240   16.8808 H   0  0  0  0  0  0  0  0  0  0  0  0
   35.4287   51.9904   16.1255 C   0  0  0  0  0  0  0  0  0  0  0  0
   34.3060   52.8560   15.9212 O   0  0  0  0  0  0  0  0  0  0  0  0
   33.6310   52.6742   16.5936 H   0  0  0  0  0  0  0  0  0  0  0  0
   34.9256   50.5554   16.0576 C   0  0  0  0  0  0  0  0  0  0  0  0
   34.1835   50.3373   17.1733 O   0  0  0  0  0  0  0  0  0  0  0  0
   32.4167   48.9639   18.2199 O   0  0  0  0  0  0  0  0  0  0  0  0
   33.9095   48.8946   17.6699 P   0  0  0  0  0  0  0  0  0  0  0  0
   33.9971   47.8897   16.4297 O   0  0  0  0  0  0  0  0  0  0  0  0
   34.8522   48.5257   18.7622 O   0  0  0  0  0  0  0  0  0  0  0  0
   31.8166   49.2049   17.4970 H   0  0  0  0  0  0  0  0  0  0  0  0
   34.6652   47.6214   19.0590 H   0  0  0  0  0  0  0  0  0  0  0  0
   35.1633   53.1391   18.3581 C   0  0  0  0  0  0  0  0  0  0  0  0
   35.7810   54.4244   18.5270 O   0  0  0  0  0  0  0  0  0  0  0  0
   36.6349   54.3165   18.9744 H   0  0  0  0  0  0  0  0  0  0  0  0
   35.0182   52.5341   19.7388 C   0  0  0  0  0  0  0  0  0  0  0  0
   35.7129   51.3025   19.7722 O   0  0  0  0  0  0  0  0  0  0  0  0
   35.3384   50.7020   19.1088 H   0  0  0  0  0  0  0  0  0  0  0  0
   33.5454   52.2425   20.0328 C   0  0  0  0  0  0  0  0  0  0  0  0
   33.4149   51.5234   21.3757 C   0  0  0  0  0  0  0  0  0  0  0  0
   33.4367   52.1630   22.4315 O   0  0  0  0  0  0  0  0  0  0  0  0
   33.2157   50.0095   21.4169 C   0  0  0  0  0  0  0  0  0  0  0  0
   32.0424   49.5813   21.1801 O   0  0  0  0  0  0  0  0  0  0  0  0
   34.2496   49.2983   21.6243 O   0  0  0  0  0  0  0  0  0  0  0  0
   35.0751   49.7092   21.7910 H   0  0  0  0  0  0  0  0  0  0  0  0
  9 10  1  0  0  0
 11 10  2  0  0  0
  8 10  1  0  0  0
 10 12  1  0  0  0
  7  8  1  0  0  0
  7  4  1  0  0  0
  1  4  1  0  0  0
  4  5  1  0  0  0
  2  1  1  0  0  0
  1 15  1  0  0  0
 18 15  1  0  0  0
 15 16  1  0  0  0
 19 18  1  0  0  0
 18 21  1  0  0  0
 22 21  1  0  0  0
 23 22  2  0  0  0
 22 24  1  0  0  0
 25 24  2  0  0  0
 24 26  1  0  0  0
  9 13  1  0  0  0
 12 14  1  0  0  0
  5  6  1  0  0  0
  2  3  1  0  0  0
 16 17  1  0  0  0
 19 20  1  0  0  0
 26 27  1  0  0  0
M  END
> <minimizedAffinity>
-7.59410

$$$$
3E12_KD0_A_268


 27 26  0  0  0  0  0  0  0  0999 V2000
   36.0807   52.8477   16.8595 C   0  0  0  0  0  0  0  0  0  0  0  0
   37.4013   52.3310   17.1838 O   0  0  0  0  0  0  0  0  0  0  0  0
   37.6232   52.5625   18.0992 H   0  0  0  0  0  0  0  0  0  0  0  0
   36.1068   54.3536   17.0025 C   0  0  0  0  0  0  0  0  0  0  0  0
   35.0138   54.9496   16.2944 O   0  0  0  0  0  0  0  0  0  0  0  0
   35.0734   54.7187   15.3541 H   0  0  0  0  0  0  0  0  0  0  0  0
   37.3971   54.8564   16.3707 C   0  0  0  0  0  0  0  0  0  0  0  0
   37.4155   54.4121   15.0881 O   0  0  0  0  0  0  0  0  0  0  0  0
   38.1116   54.5018   12.7194 O   0  0  0  0  0  0  0  0  0  0  0  0
   37.5653   55.4079   13.9095 P   0  0  0  0  0  0  0  0  0  0  0  0
   36.1272   56.0002   13.5400 O   0  0  0  0  0  0  0  0  0  0  0  0
   38.5464   56.4770   14.2448 O   0  0  0  0  0  0  0  0  0  0  0  0
   37.4616   53.8116   12.5139 H   0  0  0  0  0  0  0  0  0  0  0  0
   38.6261   57.0889   13.4964 H   0  0  0  0  0  0  0  0  0  0  0  0
   35.0313   52.2056   17.7796 C   0  0  0  0  0  0  0  0  0  0  0  0
   33.7390   52.8086   17.6109 O   0  0  0  0  0  0  0  0  0  0  0  0
   33.7904   53.7512   17.8340 H   0  0  0  0  0  0  0  0  0  0  0  0
   35.4413   52.4356   19.2191 C   0  0  0  0  0  0  0  0  0  0  0  0
   35.8740   51.2076   19.7716 O   0  0  0  0  0  0  0  0  0  0  0  0
   35.1498   50.5634   19.7347 H   0  0  0  0  0  0  0  0  0  0  0  0
   34.2405   52.9135   20.0378 C   0  0  0  0  0  0  0  0  0  0  0  0
   33.6838   51.7575   20.8694 C   0  0  0  0  0  0  0  0  0  0  0  0
   34.1870   51.4740   21.9606 O   0  0  0  0  0  0  0  0  0  0  0  0
   32.4730   50.9705   20.3717 C   0  0  0  0  0  0  0  0  0  0  0  0
   32.2006   49.8920   20.9871 O   0  0  0  0  0  0  0  0  0  0  0  0
   31.8011   51.4869   19.4232 O   0  0  0  0  0  0  0  0  0  0  0  0
   32.0846   52.2894   19.0310 H   0  0  0  0  0  0  0  0  0  0  0  0
  9 10  1  0  0  0
 11 10  2  0  0  0
  8 10  1  0  0  0
 10 12  1  0  0  0
  7  8  1  0  0  0
  7  4  1  0  0  0
  1  4  1  0  0  0
  4  5  1  0  0  0
  2  1  1  0  0  0
  1 15  1  0  0  0
 18 15  1  0  0  0
 15 16  1  0  0  0
 19 18  1  0  0  0
 18 21  1  0  0  0
 22 21  1  0  0  0
 23 22  2  0  0  0
 22 24  1  0  0  0
 25 24  2  0  0  0
 24 26  1  0  0  0
  9 13  1  0  0  0
 12 14  1  0  0  0
  5  6  1  0  0  0
  2  3  1  0  0  0
 16 17  1  0  0  0
 19 20  1  0  0  0
 26 27  1  0  0  0
M  END
> <minimizedAffinity>
-7.51661

$$$$
3E12_KD0_A_268


 27 26  0  0  0  0  0  0  0  0999 V2000
   34.8128   53.1751   18.8584 C   0  0  0  0  0  0  0  0  0  0  0  0
   35.4864   54.2389   19.5870 O   0  0  0  0  0  0  0  0  0  0  0  0
   36.3966   53.9688   19.7855 H   0  0  0  0  0  0  0  0  0  0  0  0
   34.7889   51.9383   19.7293 C   0  0  0  0  0  0  0  0  0  0  0  0
   35.1787   50.7821   18.9794 O   0  0  0  0  0  0  0  0  0  0  0  0
   34.5687   50.6584   18.2354 H   0  0  0  0  0  0  0  0  0  0  0  0
   33.3551   51.7270   20.1944 C   0  0  0  0  0  0  0  0  0  0  0  0
   32.7526   50.9206   19.2835 O   0  0  0  0  0  0  0  0  0  0  0  0
   30.8878   49.3577   18.8554 O   0  0  0  0  0  0  0  0  0  0  0  0
   32.2336   49.5180   19.6914 P   0  0  0  0  0  0  0  0  0  0  0  0
   33.3001   48.4153   19.2418 O   0  0  0  0  0  0  0  0  0  0  0  0
   31.9503   49.4658   21.1526 O   0  0  0  0  0  0  0  0  0  0  0  0
   31.0899   49.3939   17.9074 H   0  0  0  0  0  0  0  0  0  0  0  0
   31.6272   48.5820   21.3879 H   0  0  0  0  0  0  0  0  0  0  0  0
   35.5339   52.9207   17.5260 C   0  0  0  0  0  0  0  0  0  0  0  0
   36.9010   52.5312   17.7295 O   0  0  0  0  0  0  0  0  0  0  0  0
   37.3742   53.2413   18.1907 H   0  0  0  0  0  0  0  0  0  0  0  0
   35.5556   54.2097   16.7314 C   0  0  0  0  0  0  0  0  0  0  0  0
   34.3272   54.8840   16.9228 O   0  0  0  0  0  0  0  0  0  0  0  0
   33.5984   54.3214   16.6174 H   0  0  0  0  0  0  0  0  0  0  0  0
   35.6878   53.9045   15.2381 C   0  0  0  0  0  0  0  0  0  0  0  0
   34.5501   52.9857   14.7916 C   0  0  0  0  0  0  0  0  0  0  0  0
   33.3833   53.3890   14.7959 O   0  0  0  0  0  0  0  0  0  0  0  0
   34.8564   51.5730   14.2980 C   0  0  0  0  0  0  0  0  0  0  0  0
   34.3582   50.6137   14.9671 O   0  0  0  0  0  0  0  0  0  0  0  0
   35.5328   51.4720   13.2256 O   0  0  0  0  0  0  0  0  0  0  0  0
   35.8594   52.2421   12.8034 H   0  0  0  0  0  0  0  0  0  0  0  0
  9 10  1  0  0  0
 11 10  2  0  0  0
  8 10  1  0  0  0
 10 12  1  0  0  0
  7  8  1  0  0  0
  7  4  1  0  0  0
  1  4  1  0  0  0
  4  5  1  0  0  0
  2  1  1  0  0  0
  1 15  1  0  0  0
 18 15  1  0  0  0
 15 16  1  0  0  0
 19 18  1  0  0  0
 18 21  1  0  0  0
 22 21  1  0  0  0
 23 22  2  0  0  0
 22 24  1  0  0  0
 25 24  2  0  0  0
 24 26  1  0  0  0
  9 13  1  0  0  0
 12 14  1  0  0  0
  5  6  1  0  0  0
  2  3  1  0  0  0
 16 17  1  0  0  0
 19 20  1  0  0  0
 26 27  1  0  0  0
M  END
> <minimizedAffinity>
-7.49036

$$$$
3E12_KD0_A_268


 27 26  0  0  0  0  0  0  0  0999 V2000
   35.7689   53.4905   18.4468 C   0  0  0  0  0  0  0  0  0  0  0  0
   34.6551   54.3197   18.0133 O   0  0  0  0  0  0  0  0  0  0  0  0
   33.9507   53.7552   17.6583 H   0  0  0  0  0  0  0  0  0  0  0  0
   36.2937   52.7287   17.2497 C   0  0  0  0  0  0  0  0  0  0  0  0
   37.7235   52.7919   17.1950 O   0  0  0  0  0  0  0  0  0  0  0  0
   38.0040   53.7182   17.1299 H   0  0  0  0  0  0  0  0  0  0  0  0
   35.7520   53.4037   15.9975 C   0  0  0  0  0  0  0  0  0  0  0  0
   34.5902   52.7794   15.6759 O   0  0  0  0  0  0  0  0  0  0  0  0
   33.2912   51.8172   13.8078 O   0  0  0  0  0  0  0  0  0  0  0  0
   34.5852   51.5726   14.7030 P   0  0  0  0  0  0  0  0  0  0  0  0
   35.9026   51.6249   13.7989 O   0  0  0  0  0  0  0  0  0  0  0  0
   34.4667   50.2917   15.4534 O   0  0  0  0  0  0  0  0  0  0  0  0
   33.3845   52.6542   13.3265 H   0  0  0  0  0  0  0  0  0  0  0  0
   34.4653   49.5498   14.8285 H   0  0  0  0  0  0  0  0  0  0  0  0
   35.3079   52.5455   19.5669 C   0  0  0  0  0  0  0  0  0  0  0  0
   36.4215   51.9959   20.2879 O   0  0  0  0  0  0  0  0  0  0  0  0
   36.9792   51.4847   19.6809 H   0  0  0  0  0  0  0  0  0  0  0  0
   34.5662   51.3807   18.9453 C   0  0  0  0  0  0  0  0  0  0  0  0
   33.2262   51.7671   18.7095 O   0  0  0  0  0  0  0  0  0  0  0  0
   32.8080   52.0129   19.5495 H   0  0  0  0  0  0  0  0  0  0  0  0
   34.5424   50.1960   19.9130 C   0  0  0  0  0  0  0  0  0  0  0  0
   33.5282   49.1553   19.4374 C   0  0  0  0  0  0  0  0  0  0  0  0
   33.8816   48.2302   18.7002 O   0  0  0  0  0  0  0  0  0  0  0  0
   32.0764   49.2319   19.9060 C   0  0  0  0  0  0  0  0  0  0  0  0
   31.1923   49.3785   19.0044 O   0  0  0  0  0  0  0  0  0  0  0  0
   31.8649   49.0825   21.1513 O   0  0  0  0  0  0  0  0  0  0  0  0
   32.5866   48.9814   21.7403 H   0  0  0  0  0  0  0  0  0  0  0  0
  9 10  1  0  0  0
 11 10  2  0  0  0
  8 10  1  0  0  0
 10 12  1  0  0  0
  7  8  1  0  0  0
  7  4  1  0  0  0
  1  4  1  0  0  0
  4  5  1  0  0  0
  2  1  1  0  0  0
  1 15  1  0  0  0
 18 15  1  0  0  0
 15 16  1  0  0  0
 19 18  1  0  0  0
 18 21  1  0  0  0
 22 21  1  0  0  0
 23 22  2  0  0  0
 22 24  1  0  0  0
 25 24  2  0  0  0
 24 26  1  0  0  0
  9 13  1  0  0  0
 12 14  1  0  0  0
  5  6  1  0  0  0
  2  3  1  0  0  0
 16 17  1  0  0  0
 19 20  1  0  0  0
 26 27  1  0  0  0
M  END
> <minimizedAffinity>
-7.47276

$$$$
