3KDC_JZP_A_100


 49 53  0  0  0  0  0  0  0  0999 V2000
   15.7071   23.5064   18.2960 C   0  0  0  0  0  0  0  0  0  0  0  0
   14.5478   24.3387   18.3824 O   0  0  0  0  0  0  0  0  0  0  0  0
   14.4965   24.9043   17.5960 H   0  0  0  0  0  0  0  0  0  0  0  0
   16.9480   24.3618   18.2580 C   0  0  0  0  0  0  0  0  0  0  0  0
   16.9191   25.4273   17.6583 O   0  0  0  0  0  0  0  0  0  0  0  0
   18.0338   23.9105   18.9026 N   0  0  0  0  0  0  0  0  0  0  0  0
   19.2562   24.7327   18.9700 C   0  0  0  0  0  0  0  0  0  0  0  0
   20.1732   24.2443   20.0926 C   0  0  0  0  0  0  0  0  0  0  0  0
   18.1665   22.6147   19.5829 C   0  0  0  0  0  0  0  0  0  0  0  0
   21.6687   24.4080   19.8346 C   0  0  0  0  0  0  0  0  0  0  0  0
   19.8165   24.9423   21.3836 C   0  0  0  0  0  0  0  0  0  0  0  0
   19.7885   22.5443   20.2409 S   0  0  0  0  0  0  0  0  0  0  0  0
   19.9653   24.7929   17.6407 C   0  0  0  0  0  0  0  0  0  0  0  0
   20.0331   23.7920   16.9427 O   0  0  0  0  0  0  0  0  0  0  0  0
   20.4843   25.9764   17.2950 N   0  0  0  0  0  0  0  0  0  0  0  0
   20.2660   26.7653   17.8421 H   0  0  0  0  0  0  0  0  0  0  0  0
   22.0475   28.0246   17.5210 O   0  0  0  0  0  0  0  0  0  0  0  0
   21.3561   26.1460   16.1463 C   0  0  0  0  0  0  0  0  0  0  0  0
   20.6096   26.5996   14.9606 C   0  0  0  0  0  0  0  0  0  0  0  0
   19.4708   26.0391   14.3961 C   0  0  0  0  0  0  0  0  0  0  0  0
   18.9458   26.6589   13.2571 C   0  0  0  0  0  0  0  0  0  0  0  0
   22.3939   27.2609   16.3629 C   0  0  0  0  0  0  0  0  0  0  0  0
   21.2279   27.7887   14.3730 C   0  0  0  0  0  0  0  0  0  0  0  0
   20.6872   28.3877   13.2444 C   0  0  0  0  0  0  0  0  0  0  0  0
   19.5390   27.8021   12.6966 C   0  0  0  0  0  0  0  0  0  0  0  0
   22.4424   28.2079   15.1530 C   0  0  0  0  0  0  0  0  0  0  0  0
   22.0126   27.4407   18.2948 H   0  0  0  0  0  0  0  0  0  0  0  0
   15.6193   22.5744   17.0854 C   0  0  0  0  0  0  0  0  0  0  0  0
   16.4400   20.1708   18.2328 O   0  0  0  0  0  0  0  0  0  0  0  0
   15.2655   20.3161   17.9387 C   0  0  0  0  0  0  0  0  0  0  0  0
   14.7642   21.4477   17.4304 N   0  0  0  0  0  0  0  0  0  0  0  0
   13.7930   21.5202   17.2861 H   0  0  0  0  0  0  0  0  0  0  0  0
   14.3204   19.1569   18.1498 C   0  0  0  0  0  0  0  0  0  0  0  0
   13.0206   19.5698   18.5764 O   0  0  0  0  0  0  0  0  0  0  0  0
   13.2269   18.3451   21.4242 Cl  0  0  0  0  0  0  0  0  0  0  0  0
   11.1299   18.9649   16.2072 Cl  0  0  0  0  0  0  0  0  0  0  0  0
   10.2257   16.5085   19.3347 C   0  0  0  0  0  0  0  0  0  0  0  0
   11.1297   16.8749   20.3355 C   0  0  0  0  0  0  0  0  0  0  0  0
   12.0737   17.8795   20.1331 C   0  0  0  0  0  0  0  0  0  0  0  0
   12.1044   18.5812   18.8300 C   0  0  0  0  0  0  0  0  0  0  0  0
   11.1291   18.1555   17.7996 C   0  0  0  0  0  0  0  0  0  0  0  0
   10.2196   17.1375   18.0851 C   0  0  0  0  0  0  0  0  0  0  0  0
   15.1628   23.2712   15.7992 C   0  0  0  0  0  0  0  0  0  0  0  0
   14.3370   22.3268   14.9599 C   0  0  0  0  0  0  0  0  0  0  0  0
   12.8371   20.5789   13.3886 C   0  0  0  0  0  0  0  0  0  0  0  0
   12.9496   22.4729   14.8863 C   0  0  0  0  0  0  0  0  0  0  0  0
   14.9721   21.3078   14.2496 C   0  0  0  0  0  0  0  0  0  0  0  0
   12.2012   21.5954   14.1012 C   0  0  0  0  0  0  0  0  0  0  0  0
   14.2231   20.4332   13.4640 C   0  0  0  0  0  0  0  0  0  0  0  0
 12  8  1  0  0  0
 12  9  1  0  0  0
 35 39  1  0  0  0
 31 30  1  0  0  0
 31 28  1  0  0  0
 34 33  1  0  0  0
 34 40  1  0  0  0
 36 41  1  0  0  0
  6  4  1  0  0  0
  6  7  1  0  0  0
  6  9  1  0  0  0
  5  4  2  0  0  0
 15 13  1  0  0  0
 15 18  1  0  0  0
 14 13  2  0  0  0
  2  1  1  0  0  0
 17 22  1  0  0  0
 29 30  2  0  0  0
 30 33  1  0  0  0
 28  1  1  0  0  0
 28 43  1  0  0  0
  1  4  1  0  0  0
 43 44  1  0  0  0
  7  8  1  0  0  0
  7 13  1  0  0  0
  8 10  1  0  0  0
  8 11  1  0  0  0
 44 46  2  0  0  0
 44 47  1  0  0  0
 46 48  1  0  0  0
 48 45  2  0  0  0
 45 49  1  0  0  0
 49 47  2  0  0  0
 18 19  1  0  0  0
 18 22  1  0  0  0
 19 20  2  0  0  0
 19 23  1  0  0  0
 20 21  1  0  0  0
 21 25  2  0  0  0
 22 26  1  0  0  0
 23 24  2  0  0  0
 23 26  1  0  0  0
 24 25  1  0  0  0
 37 38  2  0  0  0
 37 42  1  0  0  0
 38 39  1  0  0  0
 39 40  2  0  0  0
 40 41  1  0  0  0
 41 42  2  0  0  0
 31 32  1  0  0  0
  2  3  1  0  0  0
 15 16  1  0  0  0
 17 27  1  0  0  0
M  END
> <minimizedAffinity>
-12.55268

$$$$
3KDC_JZP_A_100


 49 53  0  0  0  0  0  0  0  0999 V2000
   15.7369   23.8544   17.7251 C   0  0  0  0  0  0  0  0  0  0  0  0
   15.4301   24.8138   18.7398 O   0  0  0  0  0  0  0  0  0  0  0  0
   15.2811   24.3568   19.5824 H   0  0  0  0  0  0  0  0  0  0  0  0
   14.5728   22.9138   17.5432 C   0  0  0  0  0  0  0  0  0  0  0  0
   13.8678   22.6450   18.5057 O   0  0  0  0  0  0  0  0  0  0  0  0
   14.3586   22.4205   16.3148 N   0  0  0  0  0  0  0  0  0  0  0  0
   13.1928   21.5565   16.0512 C   0  0  0  0  0  0  0  0  0  0  0  0
   12.9024   21.4860   14.5511 C   0  0  0  0  0  0  0  0  0  0  0  0
   15.1990   22.6404   15.1296 C   0  0  0  0  0  0  0  0  0  0  0  0
   12.3271   20.1613   14.0570 C   0  0  0  0  0  0  0  0  0  0  0  0
   11.9681   22.6059   14.1585 C   0  0  0  0  0  0  0  0  0  0  0  0
   14.4616   21.7597   13.8069 S   0  0  0  0  0  0  0  0  0  0  0  0
   13.3585   20.1890   16.6643 C   0  0  0  0  0  0  0  0  0  0  0  0
   14.4677   19.6788   16.7200 O   0  0  0  0  0  0  0  0  0  0  0  0
   12.2483   19.6062   17.1304 N   0  0  0  0  0  0  0  0  0  0  0  0
   11.4208   20.1375   17.1777 H   0  0  0  0  0  0  0  0  0  0  0  0
    9.8542   18.6277   17.1576 O   0  0  0  0  0  0  0  0  0  0  0  0
   12.2129   18.2226   17.5692 C   0  0  0  0  0  0  0  0  0  0  0  0
   12.4895   18.1032   19.0107 C   0  0  0  0  0  0  0  0  0  0  0  0
   13.5628   18.6199   19.7253 C   0  0  0  0  0  0  0  0  0  0  0  0
   13.6031   18.3642   21.1001 C   0  0  0  0  0  0  0  0  0  0  0  0
   10.8134   17.6007   17.4214 C   0  0  0  0  0  0  0  0  0  0  0  0
   11.4519   17.3194   19.6822 C   0  0  0  0  0  0  0  0  0  0  0  0
   11.5119   17.0814   21.0477 C   0  0  0  0  0  0  0  0  0  0  0  0
   12.6045   17.6145   21.7432 C   0  0  0  0  0  0  0  0  0  0  0  0
   10.3998   16.8684   18.7081 C   0  0  0  0  0  0  0  0  0  0  0  0
   10.1011   19.1003   16.3473 H   0  0  0  0  0  0  0  0  0  0  0  0
   17.0293   23.1053   18.0570 C   0  0  0  0  0  0  0  0  0  0  0  0
   18.5132   23.1519   15.6983 O   0  0  0  0  0  0  0  0  0  0  0  0
   18.8337   23.8903   16.6144 C   0  0  0  0  0  0  0  0  0  0  0  0
   18.1576   23.9781   17.7655 N   0  0  0  0  0  0  0  0  0  0  0  0
   18.4297   24.6497   18.4320 H   0  0  0  0  0  0  0  0  0  0  0  0
   20.0648   24.7500   16.4507 C   0  0  0  0  0  0  0  0  0  0  0  0
   19.7769   26.1487   16.5020 O   0  0  0  0  0  0  0  0  0  0  0  0
   18.0518   26.1351   13.9182 Cl  0  0  0  0  0  0  0  0  0  0  0  0
   22.4186   27.5908   17.2061 Cl  0  0  0  0  0  0  0  0  0  0  0  0
   21.3408   28.5103   13.3818 C   0  0  0  0  0  0  0  0  0  0  0  0
   20.1448   27.8153   13.1824 C   0  0  0  0  0  0  0  0  0  0  0  0
   19.5883   27.0202   14.1821 C   0  0  0  0  0  0  0  0  0  0  0  0
   20.2775   26.9259   15.4888 C   0  0  0  0  0  0  0  0  0  0  0  0
   21.5435   27.6776   15.6513 C   0  0  0  0  0  0  0  0  0  0  0  0
   22.0322   28.4478   14.5963 C   0  0  0  0  0  0  0  0  0  0  0  0
   17.0785   22.5589   19.4878 C   0  0  0  0  0  0  0  0  0  0  0  0
   18.4125   22.8736   20.1202 C   0  0  0  0  0  0  0  0  0  0  0  0
   20.8736   23.4864   21.2780 C   0  0  0  0  0  0  0  0  0  0  0  0
   19.4061   21.8950   20.2025 C   0  0  0  0  0  0  0  0  0  0  0  0
   18.6496   24.1554   20.6171 C   0  0  0  0  0  0  0  0  0  0  0  0
   20.6358   22.2037   20.7845 C   0  0  0  0  0  0  0  0  0  0  0  0
   19.8796   24.4627   21.1964 C   0  0  0  0  0  0  0  0  0  0  0  0
 12  8  1  0  0  0
 12  9  1  0  0  0
 35 39  1  0  0  0
 31 30  1  0  0  0
 31 28  1  0  0  0
 34 33  1  0  0  0
 34 40  1  0  0  0
 36 41  1  0  0  0
  6  4  1  0  0  0
  6  7  1  0  0  0
  6  9  1  0  0  0
  5  4  2  0  0  0
 15 13  1  0  0  0
 15 18  1  0  0  0
 14 13  2  0  0  0
  2  1  1  0  0  0
 17 22  1  0  0  0
 29 30  2  0  0  0
 30 33  1  0  0  0
 28  1  1  0  0  0
 28 43  1  0  0  0
  1  4  1  0  0  0
 43 44  1  0  0  0
  7  8  1  0  0  0
  7 13  1  0  0  0
  8 10  1  0  0  0
  8 11  1  0  0  0
 44 46  2  0  0  0
 44 47  1  0  0  0
 46 48  1  0  0  0
 48 45  2  0  0  0
 45 49  1  0  0  0
 49 47  2  0  0  0
 18 19  1  0  0  0
 18 22  1  0  0  0
 19 20  2  0  0  0
 19 23  1  0  0  0
 20 21  1  0  0  0
 21 25  2  0  0  0
 22 26  1  0  0  0
 23 24  2  0  0  0
 23 26  1  0  0  0
 24 25  1  0  0  0
 37 38  2  0  0  0
 37 42  1  0  0  0
 38 39  1  0  0  0
 39 40  2  0  0  0
 40 41  1  0  0  0
 41 42  2  0  0  0
 31 32  1  0  0  0
  2  3  1  0  0  0
 15 16  1  0  0  0
 17 27  1  0  0  0
M  END
> <minimizedAffinity>
-11.62954

$$$$
3KDC_JZP_A_100


 49 53  0  0  0  0  0  0  0  0999 V2000
   14.9662   22.6916   18.1139 C   0  0  0  0  0  0  0  0  0  0  0  0
   13.8895   23.3759   17.4686 O   0  0  0  0  0  0  0  0  0  0  0  0
   14.1687   23.6552   16.5826 H   0  0  0  0  0  0  0  0  0  0  0  0
   16.1421   23.6221   18.2698 C   0  0  0  0  0  0  0  0  0  0  0  0
   16.1312   24.6986   17.6895 O   0  0  0  0  0  0  0  0  0  0  0  0
   17.1509   23.2221   19.0576 N   0  0  0  0  0  0  0  0  0  0  0  0
   18.2956   24.1157   19.3145 C   0  0  0  0  0  0  0  0  0  0  0  0
   19.0714   23.6563   20.5501 C   0  0  0  0  0  0  0  0  0  0  0  0
   17.2676   21.9202   19.7290 C   0  0  0  0  0  0  0  0  0  0  0  0
   20.5748   23.9177   20.5141 C   0  0  0  0  0  0  0  0  0  0  0  0
   18.4889   24.2984   21.7869 C   0  0  0  0  0  0  0  0  0  0  0  0
   18.7794   21.9327   20.6137 S   0  0  0  0  0  0  0  0  0  0  0  0
   19.1827   24.2527   18.1031 C   0  0  0  0  0  0  0  0  0  0  0  0
   19.5059   23.2576   17.4714 O   0  0  0  0  0  0  0  0  0  0  0  0
   19.5651   25.4937   17.7815 N   0  0  0  0  0  0  0  0  0  0  0  0
   19.1498   26.2522   18.2521 H   0  0  0  0  0  0  0  0  0  0  0  0
   20.9408   27.6246   18.2878 O   0  0  0  0  0  0  0  0  0  0  0  0
   20.5672   25.7684   16.7674 C   0  0  0  0  0  0  0  0  0  0  0  0
   19.9544   26.2255   15.5087 C   0  0  0  0  0  0  0  0  0  0  0  0
   18.9412   25.6195   14.7767 C   0  0  0  0  0  0  0  0  0  0  0  0
   18.5298   26.2544   13.5999 C   0  0  0  0  0  0  0  0  0  0  0  0
   21.4885   26.9361   17.1607 C   0  0  0  0  0  0  0  0  0  0  0  0
   20.5619   27.4761   15.0517 C   0  0  0  0  0  0  0  0  0  0  0  0
   20.1351   28.0888   13.8825 C   0  0  0  0  0  0  0  0  0  0  0  0
   19.1120   27.4564   13.1648 C   0  0  0  0  0  0  0  0  0  0  0  0
   21.6312   27.9366   16.0024 C   0  0  0  0  0  0  0  0  0  0  0  0
   20.8442   27.0062   19.0289 H   0  0  0  0  0  0  0  0  0  0  0  0
   15.3414   21.4214   17.3472 C   0  0  0  0  0  0  0  0  0  0  0  0
   14.1350   20.1193   19.4958 O   0  0  0  0  0  0  0  0  0  0  0  0
   13.6953   19.9408   18.3725 C   0  0  0  0  0  0  0  0  0  0  0  0
   14.1718   20.5567   17.2845 N   0  0  0  0  0  0  0  0  0  0  0  0
   13.7202   20.4218   16.4201 H   0  0  0  0  0  0  0  0  0  0  0  0
   12.5555   18.9666   18.1907 C   0  0  0  0  0  0  0  0  0  0  0  0
   11.4337   19.5425   17.5184 O   0  0  0  0  0  0  0  0  0  0  0  0
   10.5655   21.3868   15.1739 Cl  0  0  0  0  0  0  0  0  0  0  0  0
   11.4020   16.4685   17.8401 Cl  0  0  0  0  0  0  0  0  0  0  0  0
    9.9136   17.4715   14.1780 C   0  0  0  0  0  0  0  0  0  0  0  0
    9.9834   18.8669   14.1460 C   0  0  0  0  0  0  0  0  0  0  0  0
   10.4764   19.5971   15.2254 C   0  0  0  0  0  0  0  0  0  0  0  0
   10.9495   18.8704   16.4253 C   0  0  0  0  0  0  0  0  0  0  0  0
   10.8522   17.3923   16.4136 C   0  0  0  0  0  0  0  0  0  0  0  0
   10.3422   16.7405   15.2910 C   0  0  0  0  0  0  0  0  0  0  0  0
   15.9354   21.6881   15.9600 C   0  0  0  0  0  0  0  0  0  0  0  0
   14.9021   21.4258   14.8914 C   0  0  0  0  0  0  0  0  0  0  0  0
   13.0092   20.9133   12.9096 C   0  0  0  0  0  0  0  0  0  0  0  0
   14.2767   22.4884   14.2345 C   0  0  0  0  0  0  0  0  0  0  0  0
   14.5801   20.1100   14.5582 C   0  0  0  0  0  0  0  0  0  0  0  0
   13.3282   22.2291   13.2449 C   0  0  0  0  0  0  0  0  0  0  0  0
   13.6336   19.8527   13.5677 C   0  0  0  0  0  0  0  0  0  0  0  0
 12  8  1  0  0  0
 12  9  1  0  0  0
 35 39  1  0  0  0
 31 30  1  0  0  0
 31 28  1  0  0  0
 34 33  1  0  0  0
 34 40  1  0  0  0
 36 41  1  0  0  0
  6  4  1  0  0  0
  6  7  1  0  0  0
  6  9  1  0  0  0
  5  4  2  0  0  0
 15 13  1  0  0  0
 15 18  1  0  0  0
 14 13  2  0  0  0
  2  1  1  0  0  0
 17 22  1  0  0  0
 29 30  2  0  0  0
 30 33  1  0  0  0
 28  1  1  0  0  0
 28 43  1  0  0  0
  1  4  1  0  0  0
 43 44  1  0  0  0
  7  8  1  0  0  0
  7 13  1  0  0  0
  8 10  1  0  0  0
  8 11  1  0  0  0
 44 46  2  0  0  0
 44 47  1  0  0  0
 46 48  1  0  0  0
 48 45  2  0  0  0
 45 49  1  0  0  0
 49 47  2  0  0  0
 18 19  1  0  0  0
 18 22  1  0  0  0
 19 20  2  0  0  0
 19 23  1  0  0  0
 20 21  1  0  0  0
 21 25  2  0  0  0
 22 26  1  0  0  0
 23 24  2  0  0  0
 23 26  1  0  0  0
 24 25  1  0  0  0
 37 38  2  0  0  0
 37 42  1  0  0  0
 38 39  1  0  0  0
 39 40  2  0  0  0
 40 41  1  0  0  0
 41 42  2  0  0  0
 31 32  1  0  0  0
  2  3  1  0  0  0
 15 16  1  0  0  0
 17 27  1  0  0  0
M  END
> <minimizedAffinity>
-10.07769

$$$$
3KDC_JZP_A_100


 49 53  0  0  0  0  0  0  0  0999 V2000
   16.2789   21.3076   17.8349 C   0  0  0  0  0  0  0  0  0  0  0  0
   16.3214   20.7041   19.1304 O   0  0  0  0  0  0  0  0  0  0  0  0
   15.8898   21.2881   19.7735 H   0  0  0  0  0  0  0  0  0  0  0  0
   17.0326   22.6132   17.8550 C   0  0  0  0  0  0  0  0  0  0  0  0
   16.6806   23.5159   17.1087 O   0  0  0  0  0  0  0  0  0  0  0  0
   18.0590   22.7250   18.7106 N   0  0  0  0  0  0  0  0  0  0  0  0
   18.7895   24.0000   18.8358 C   0  0  0  0  0  0  0  0  0  0  0  0
   19.5883   24.0377   20.1398 C   0  0  0  0  0  0  0  0  0  0  0  0
   18.5833   21.6663   19.5844 C   0  0  0  0  0  0  0  0  0  0  0  0
   20.8988   24.8182   20.0828 C   0  0  0  0  0  0  0  0  0  0  0  0
   18.7293   24.5972   21.2490 C   0  0  0  0  0  0  0  0  0  0  0  0
   19.9249   22.3544   20.4762 S   0  0  0  0  0  0  0  0  0  0  0  0
   19.6535   24.2718   17.6305 C   0  0  0  0  0  0  0  0  0  0  0  0
   19.9964   23.3474   16.9081 O   0  0  0  0  0  0  0  0  0  0  0  0
   19.9939   25.5477   17.4165 N   0  0  0  0  0  0  0  0  0  0  0  0
   19.5636   26.2480   17.9584 H   0  0  0  0  0  0  0  0  0  0  0  0
   21.1784   27.7709   18.0033 O   0  0  0  0  0  0  0  0  0  0  0  0
   20.9717   25.9426   16.4184 C   0  0  0  0  0  0  0  0  0  0  0  0
   20.3256   26.3881   15.1723 C   0  0  0  0  0  0  0  0  0  0  0  0
   19.3710   25.7223   14.4139 C   0  0  0  0  0  0  0  0  0  0  0  0
   18.9100   26.3594   13.2568 C   0  0  0  0  0  0  0  0  0  0  0  0
   21.7872   27.1713   16.8568 C   0  0  0  0  0  0  0  0  0  0  0  0
   20.8241   27.7014   14.7618 C   0  0  0  0  0  0  0  0  0  0  0  0
   20.3496   28.3147   13.6114 C   0  0  0  0  0  0  0  0  0  0  0  0
   19.3874   27.6213   12.8664 C   0  0  0  0  0  0  0  0  0  0  0  0
   21.8465   28.2196   15.7341 C   0  0  0  0  0  0  0  0  0  0  0  0
   21.1333   27.1213   18.7223 H   0  0  0  0  0  0  0  0  0  0  0  0
   14.8334   21.4903   17.3666 C   0  0  0  0  0  0  0  0  0  0  0  0
   15.4006   22.0773   14.7018 O   0  0  0  0  0  0  0  0  0  0  0  0
   14.8709   21.0132   14.9741 C   0  0  0  0  0  0  0  0  0  0  0  0
   14.6038   20.6176   16.2240 N   0  0  0  0  0  0  0  0  0  0  0  0
   14.2431   19.7141   16.3748 H   0  0  0  0  0  0  0  0  0  0  0  0
   14.4854   20.0893   13.8431 C   0  0  0  0  0  0  0  0  0  0  0  0
   13.3471   20.5499   13.1123 O   0  0  0  0  0  0  0  0  0  0  0  0
   12.1855   17.6816   12.8367 Cl  0  0  0  0  0  0  0  0  0  0  0  0
   12.2396   23.0983   14.4662 Cl  0  0  0  0  0  0  0  0  0  0  0  0
    9.5586   20.0544   14.8900 C   0  0  0  0  0  0  0  0  0  0  0  0
   10.1644   18.9680   14.2527 C   0  0  0  0  0  0  0  0  0  0  0  0
   11.4148   19.0817   13.6488 C   0  0  0  0  0  0  0  0  0  0  0  0
   12.1193   20.3827   13.7002 C   0  0  0  0  0  0  0  0  0  0  0  0
   11.4358   21.5052   14.3835 C   0  0  0  0  0  0  0  0  0  0  0  0
   10.1814   21.3051   14.9593 C   0  0  0  0  0  0  0  0  0  0  0  0
   13.7930   21.2783   18.4715 C   0  0  0  0  0  0  0  0  0  0  0  0
   13.2538   19.8694   18.4161 C   0  0  0  0  0  0  0  0  0  0  0  0
   12.2271   17.2794   18.3124 C   0  0  0  0  0  0  0  0  0  0  0  0
   13.9284   18.8270   19.0564 C   0  0  0  0  0  0  0  0  0  0  0  0
   12.0690   19.6161   17.7246 C   0  0  0  0  0  0  0  0  0  0  0  0
   13.4137   17.5315   19.0009 C   0  0  0  0  0  0  0  0  0  0  0  0
   11.5550   18.3214   17.6719 C   0  0  0  0  0  0  0  0  0  0  0  0
 12  8  1  0  0  0
 12  9  1  0  0  0
 35 39  1  0  0  0
 31 30  1  0  0  0
 31 28  1  0  0  0
 34 33  1  0  0  0
 34 40  1  0  0  0
 36 41  1  0  0  0
  6  4  1  0  0  0
  6  7  1  0  0  0
  6  9  1  0  0  0
  5  4  2  0  0  0
 15 13  1  0  0  0
 15 18  1  0  0  0
 14 13  2  0  0  0
  2  1  1  0  0  0
 17 22  1  0  0  0
 29 30  2  0  0  0
 30 33  1  0  0  0
 28  1  1  0  0  0
 28 43  1  0  0  0
  1  4  1  0  0  0
 43 44  1  0  0  0
  7  8  1  0  0  0
  7 13  1  0  0  0
  8 10  1  0  0  0
  8 11  1  0  0  0
 44 46  2  0  0  0
 44 47  1  0  0  0
 46 48  1  0  0  0
 48 45  2  0  0  0
 45 49  1  0  0  0
 49 47  2  0  0  0
 18 19  1  0  0  0
 18 22  1  0  0  0
 19 20  2  0  0  0
 19 23  1  0  0  0
 20 21  1  0  0  0
 21 25  2  0  0  0
 22 26  1  0  0  0
 23 24  2  0  0  0
 23 26  1  0  0  0
 24 25  1  0  0  0
 37 38  2  0  0  0
 37 42  1  0  0  0
 38 39  1  0  0  0
 39 40  2  0  0  0
 40 41  1  0  0  0
 41 42  2  0  0  0
 31 32  1  0  0  0
  2  3  1  0  0  0
 15 16  1  0  0  0
 17 27  1  0  0  0
M  END
> <minimizedAffinity>
-9.97780

$$$$
3KDC_JZP_A_100


 49 53  0  0  0  0  0  0  0  0999 V2000
   14.8491   22.6543   17.0241 C   0  0  0  0  0  0  0  0  0  0  0  0
   13.9575   23.4469   17.8122 O   0  0  0  0  0  0  0  0  0  0  0  0
   13.8013   23.0083   18.6631 H   0  0  0  0  0  0  0  0  0  0  0  0
   14.2264   21.3097   16.7458 C   0  0  0  0  0  0  0  0  0  0  0  0
   13.9669   21.0007   15.5913 O   0  0  0  0  0  0  0  0  0  0  0  0
   13.9955   20.5034   17.7920 N   0  0  0  0  0  0  0  0  0  0  0  0
   13.4601   19.1453   17.5826 C   0  0  0  0  0  0  0  0  0  0  0  0
   13.6963   18.2762   18.8190 C   0  0  0  0  0  0  0  0  0  0  0  0
   14.2143   20.8301   19.2079 C   0  0  0  0  0  0  0  0  0  0  0  0
   12.6258   17.2234   19.0938 C   0  0  0  0  0  0  0  0  0  0  0  0
   15.0412   17.5964   18.7161 C   0  0  0  0  0  0  0  0  0  0  0  0
   13.7395   19.4239   20.1384 S   0  0  0  0  0  0  0  0  0  0  0  0
   12.0092   19.1716   17.1735 C   0  0  0  0  0  0  0  0  0  0  0  0
   11.1529   19.4734   17.9917 O   0  0  0  0  0  0  0  0  0  0  0  0
   11.7432   18.8614   15.8997 N   0  0  0  0  0  0  0  0  0  0  0  0
   12.4943   18.7689   15.2700 H   0  0  0  0  0  0  0  0  0  0  0  0
   11.6747   17.4531   13.7313 O   0  0  0  0  0  0  0  0  0  0  0  0
   10.3930   18.6553   15.4073 C   0  0  0  0  0  0  0  0  0  0  0  0
    9.8221   19.8949   14.8537 C   0  0  0  0  0  0  0  0  0  0  0  0
    9.7379   21.1448   15.4538 C   0  0  0  0  0  0  0  0  0  0  0  0
    9.1421   22.1736   14.7164 C   0  0  0  0  0  0  0  0  0  0  0  0
   10.3496   17.6800   14.2182 C   0  0  0  0  0  0  0  0  0  0  0  0
    9.2990   19.6763   13.5045 C   0  0  0  0  0  0  0  0  0  0  0  0
    8.7147   20.7130   12.7914 C   0  0  0  0  0  0  0  0  0  0  0  0
    8.6436   21.9624   13.4203 C   0  0  0  0  0  0  0  0  0  0  0  0
    9.5015   18.2515   13.0705 C   0  0  0  0  0  0  0  0  0  0  0  0
   12.2238   17.0918   14.4446 H   0  0  0  0  0  0  0  0  0  0  0  0
   16.2105   22.5216   17.7102 C   0  0  0  0  0  0  0  0  0  0  0  0
   18.5903   21.7223   16.4997 O   0  0  0  0  0  0  0  0  0  0  0  0
   18.3009   22.9069   16.5123 C   0  0  0  0  0  0  0  0  0  0  0  0
   17.1606   23.3849   17.0232 N   0  0  0  0  0  0  0  0  0  0  0  0
   16.9588   24.3442   16.9324 H   0  0  0  0  0  0  0  0  0  0  0  0
   19.2822   23.8952   15.9276 C   0  0  0  0  0  0  0  0  0  0  0  0
   18.9705   25.2500   16.2582 O   0  0  0  0  0  0  0  0  0  0  0  0
   21.2335   25.9582   18.2655 Cl  0  0  0  0  0  0  0  0  0  0  0  0
   18.3089   26.3272   13.4376 Cl  0  0  0  0  0  0  0  0  0  0  0  0
   21.6023   28.2437   14.8910 C   0  0  0  0  0  0  0  0  0  0  0  0
   21.8058   27.6754   16.1515 C   0  0  0  0  0  0  0  0  0  0  0  0
   20.9625   26.6840   16.6489 C   0  0  0  0  0  0  0  0  0  0  0  0
   19.8355   26.2158   15.8109 C   0  0  0  0  0  0  0  0  0  0  0  0
   19.6585   26.8505   14.4842 C   0  0  0  0  0  0  0  0  0  0  0  0
   20.5480   27.8395   14.0652 C   0  0  0  0  0  0  0  0  0  0  0  0
   16.1731   22.7915   19.2181 C   0  0  0  0  0  0  0  0  0  0  0  0
   17.5701   22.7558   19.7887 C   0  0  0  0  0  0  0  0  0  0  0  0
   20.1566   22.7196   20.8290 C   0  0  0  0  0  0  0  0  0  0  0  0
   18.2348   21.5390   19.9595 C   0  0  0  0  0  0  0  0  0  0  0  0
   18.1978   23.9515   20.1388 C   0  0  0  0  0  0  0  0  0  0  0  0
   19.5281   21.5236   20.4825 C   0  0  0  0  0  0  0  0  0  0  0  0
   19.4908   23.9344   20.6593 C   0  0  0  0  0  0  0  0  0  0  0  0
 12  8  1  0  0  0
 12  9  1  0  0  0
 35 39  1  0  0  0
 31 30  1  0  0  0
 31 28  1  0  0  0
 34 33  1  0  0  0
 34 40  1  0  0  0
 36 41  1  0  0  0
  6  4  1  0  0  0
  6  7  1  0  0  0
  6  9  1  0  0  0
  5  4  2  0  0  0
 15 13  1  0  0  0
 15 18  1  0  0  0
 14 13  2  0  0  0
  2  1  1  0  0  0
 17 22  1  0  0  0
 29 30  2  0  0  0
 30 33  1  0  0  0
 28  1  1  0  0  0
 28 43  1  0  0  0
  1  4  1  0  0  0
 43 44  1  0  0  0
  7  8  1  0  0  0
  7 13  1  0  0  0
  8 10  1  0  0  0
  8 11  1  0  0  0
 44 46  2  0  0  0
 44 47  1  0  0  0
 46 48  1  0  0  0
 48 45  2  0  0  0
 45 49  1  0  0  0
 49 47  2  0  0  0
 18 19  1  0  0  0
 18 22  1  0  0  0
 19 20  2  0  0  0
 19 23  1  0  0  0
 20 21  1  0  0  0
 21 25  2  0  0  0
 22 26  1  0  0  0
 23 24  2  0  0  0
 23 26  1  0  0  0
 24 25  1  0  0  0
 37 38  2  0  0  0
 37 42  1  0  0  0
 38 39  1  0  0  0
 39 40  2  0  0  0
 40 41  1  0  0  0
 41 42  2  0  0  0
 31 32  1  0  0  0
  2  3  1  0  0  0
 15 16  1  0  0  0
 17 27  1  0  0  0
M  END
> <minimizedAffinity>
-9.67795

$$$$
3KDC_JZP_A_100


 49 53  0  0  0  0  0  0  0  0999 V2000
   16.1631   21.0867   17.3443 C   0  0  0  0  0  0  0  0  0  0  0  0
   16.4281   20.3038   18.5108 O   0  0  0  0  0  0  0  0  0  0  0  0
   16.0843   20.7627   19.2932 H   0  0  0  0  0  0  0  0  0  0  0  0
   16.8679   22.4153   17.4501 C   0  0  0  0  0  0  0  0  0  0  0  0
   16.5446   23.3231   16.6970 O   0  0  0  0  0  0  0  0  0  0  0  0
   17.8202   22.5406   18.3858 N   0  0  0  0  0  0  0  0  0  0  0  0
   18.4948   23.8354   18.5941 C   0  0  0  0  0  0  0  0  0  0  0  0
   19.1878   23.8690   19.9573 C   0  0  0  0  0  0  0  0  0  0  0  0
   18.3106   21.4797   19.2765 C   0  0  0  0  0  0  0  0  0  0  0  0
   20.4714   24.6927   20.0194 C   0  0  0  0  0  0  0  0  0  0  0  0
   18.2264   24.3748   21.0067 C   0  0  0  0  0  0  0  0  0  0  0  0
   19.5544   22.1902   20.2848 S   0  0  0  0  0  0  0  0  0  0  0  0
   19.4403   24.1627   17.4662 C   0  0  0  0  0  0  0  0  0  0  0  0
   19.8308   23.2738   16.7238 O   0  0  0  0  0  0  0  0  0  0  0  0
   19.7965   25.4460   17.3403 N   0  0  0  0  0  0  0  0  0  0  0  0
   19.3308   26.1205   17.8856 H   0  0  0  0  0  0  0  0  0  0  0  0
   20.9185   27.6490   18.1004 O   0  0  0  0  0  0  0  0  0  0  0  0
   20.8414   25.8854   16.4329 C   0  0  0  0  0  0  0  0  0  0  0  0
   20.2845   26.3779   15.1617 C   0  0  0  0  0  0  0  0  0  0  0  0
   19.3926   25.7391   14.3096 C   0  0  0  0  0  0  0  0  0  0  0  0
   19.0123   26.4203   13.1483 C   0  0  0  0  0  0  0  0  0  0  0  0
   21.6137   27.0990   16.9785 C   0  0  0  0  0  0  0  0  0  0  0  0
   20.8017   27.7090   14.8415 C   0  0  0  0  0  0  0  0  0  0  0  0
   20.4076   28.3662   13.6850 C   0  0  0  0  0  0  0  0  0  0  0  0
   19.5074   27.6991   12.8446 C   0  0  0  0  0  0  0  0  0  0  0  0
   21.7467   28.1921   15.9059 C   0  0  0  0  0  0  0  0  0  0  0  0
   20.8260   26.9707   18.7877 H   0  0  0  0  0  0  0  0  0  0  0  0
   14.6569   21.2552   17.1323 C   0  0  0  0  0  0  0  0  0  0  0  0
   14.0635   22.0338   14.5229 O   0  0  0  0  0  0  0  0  0  0  0  0
   13.9364   20.8617   14.8347 C   0  0  0  0  0  0  0  0  0  0  0  0
   14.2422   20.3803   16.0449 N   0  0  0  0  0  0  0  0  0  0  0  0
   14.1855   19.4105   16.2042 H   0  0  0  0  0  0  0  0  0  0  0  0
   13.3976   19.8961   13.8057 C   0  0  0  0  0  0  0  0  0  0  0  0
   12.3978   19.0221   14.3333 O   0  0  0  0  0  0  0  0  0  0  0  0
    9.5989   20.3174   14.7086 Cl  0  0  0  0  0  0  0  0  0  0  0  0
   13.4287   16.8859   12.3514 Cl  0  0  0  0  0  0  0  0  0  0  0  0
    9.4693   17.5832   11.6665 C   0  0  0  0  0  0  0  0  0  0  0  0
    9.1217   18.5581   12.6057 C   0  0  0  0  0  0  0  0  0  0  0  0
   10.0532   19.0643   13.5098 C   0  0  0  0  0  0  0  0  0  0  0  0
   11.4456   18.5641   13.4589 C   0  0  0  0  0  0  0  0  0  0  0  0
   11.7650   17.5287   12.4489 C   0  0  0  0  0  0  0  0  0  0  0  0
   10.7699   17.0747   11.5835 C   0  0  0  0  0  0  0  0  0  0  0  0
   13.8245   21.0331   18.3996 C   0  0  0  0  0  0  0  0  0  0  0  0
   13.2084   19.6552   18.3834 C   0  0  0  0  0  0  0  0  0  0  0  0
   12.1008   17.0967   18.3513 C   0  0  0  0  0  0  0  0  0  0  0  0
   11.9439   19.4509   17.8257 C   0  0  0  0  0  0  0  0  0  0  0  0
   13.9163   18.5819   18.9248 C   0  0  0  0  0  0  0  0  0  0  0  0
   11.3910   18.1701   17.8131 C   0  0  0  0  0  0  0  0  0  0  0  0
   13.3633   17.3024   18.9095 C   0  0  0  0  0  0  0  0  0  0  0  0
 12  8  1  0  0  0
 12  9  1  0  0  0
 35 39  1  0  0  0
 31 30  1  0  0  0
 31 28  1  0  0  0
 34 33  1  0  0  0
 34 40  1  0  0  0
 36 41  1  0  0  0
  6  4  1  0  0  0
  6  7  1  0  0  0
  6  9  1  0  0  0
  5  4  2  0  0  0
 15 13  1  0  0  0
 15 18  1  0  0  0
 14 13  2  0  0  0
  2  1  1  0  0  0
 17 22  1  0  0  0
 29 30  2  0  0  0
 30 33  1  0  0  0
 28  1  1  0  0  0
 28 43  1  0  0  0
  1  4  1  0  0  0
 43 44  1  0  0  0
  7  8  1  0  0  0
  7 13  1  0  0  0
  8 10  1  0  0  0
  8 11  1  0  0  0
 44 46  2  0  0  0
 44 47  1  0  0  0
 46 48  1  0  0  0
 48 45  2  0  0  0
 45 49  1  0  0  0
 49 47  2  0  0  0
 18 19  1  0  0  0
 18 22  1  0  0  0
 19 20  2  0  0  0
 19 23  1  0  0  0
 20 21  1  0  0  0
 21 25  2  0  0  0
 22 26  1  0  0  0
 23 24  2  0  0  0
 23 26  1  0  0  0
 24 25  1  0  0  0
 37 38  2  0  0  0
 37 42  1  0  0  0
 38 39  1  0  0  0
 39 40  2  0  0  0
 40 41  1  0  0  0
 41 42  2  0  0  0
 31 32  1  0  0  0
  2  3  1  0  0  0
 15 16  1  0  0  0
 17 27  1  0  0  0
M  END
> <minimizedAffinity>
-9.60316

$$$$
