1P1N_KAI_A_999


 18 18  0  0  0  0  0  0  0  0999 V2000
   14.2693    3.4020   15.7798 N   0  0  0  0  0  0  0  0  0  0  0  0
   15.4581    4.2244   15.3529 C   0  0  0  0  0  0  0  0  0  0  0  0
   14.7211    2.1648   16.3373 C   0  0  0  0  0  0  0  0  0  0  0  0
   16.1446    1.8730   15.8696 C   0  0  0  0  0  0  0  0  0  0  0  0
   16.6094    3.2122   15.7320 C   0  0  0  0  0  0  0  0  0  0  0  0
   13.6775    3.2143   14.9705 H   0  0  0  0  0  0  0  0  0  0  0  0
   14.6437    2.1877   17.8981 C   0  0  0  0  0  0  0  0  0  0  0  0
   15.5681    1.5920   18.4910 O   0  0  0  0  0  0  0  0  0  0  0  0
   13.6831    2.8064   18.4029 O   0  0  0  0  0  0  0  0  0  0  0  0
   13.0473    3.2162   17.8500 H   0  0  0  0  0  0  0  0  0  0  0  0
   18.9913    3.0443   15.9857 C   0  0  0  0  0  0  0  0  0  0  0  0
   18.2498    4.4081   14.1083 C   0  0  0  0  0  0  0  0  0  0  0  0
   18.0538    3.5357   15.2776 C   0  0  0  0  0  0  0  0  0  0  0  0
   16.2411    1.2788   14.4599 C   0  0  0  0  0  0  0  0  0  0  0  0
   16.0125   -0.2119   14.3790 C   0  0  0  0  0  0  0  0  0  0  0  0
   17.0365   -0.9264   14.3027 O   0  0  0  0  0  0  0  0  0  0  0  0
   14.8342   -0.6207   14.4070 O   0  0  0  0  0  0  0  0  0  0  0  0
   17.8849   -0.5291   14.2875 H   0  0  0  0  0  0  0  0  0  0  0  0
  1  2  1  0  0  0
  1  3  1  0  0  0
  2  5  1  0  0  0
 11 13  2  0  0  0
 12 13  1  0  0  0
  3  4  1  0  0  0
  3  7  1  0  0  0
  4 14  1  0  0  0
  4  5  1  0  0  0
 14 15  1  0  0  0
  5 13  1  0  0  0
 15 16  1  0  0  0
 15 17  2  0  0  0
  7  8  2  0  0  0
  7  9  1  0  0  0
  1  6  1  0  0  0
 16 18  1  0  0  0
  9 10  1  0  0  0
M  END
> <minimizedAffinity>
-8.37006

$$$$
1P1N_KAI_A_999


 18 18  0  0  0  0  0  0  0  0999 V2000
   15.8394    0.9917   15.7332 N   0  0  0  0  0  0  0  0  0  0  0  0
   15.6956    0.5013   14.3152 C   0  0  0  0  0  0  0  0  0  0  0  0
   15.8694    2.4216   15.7423 C   0  0  0  0  0  0  0  0  0  0  0  0
   16.2499    2.9423   14.3587 C   0  0  0  0  0  0  0  0  0  0  0  0
   15.6970    1.8935   13.5696 C   0  0  0  0  0  0  0  0  0  0  0  0
   16.7063    0.6309   16.1315 H   0  0  0  0  0  0  0  0  0  0  0  0
   14.4962    3.0119   16.1989 C   0  0  0  0  0  0  0  0  0  0  0  0
   13.8734    2.3335   17.0431 O   0  0  0  0  0  0  0  0  0  0  0  0
   14.1596    4.1038   15.6942 O   0  0  0  0  0  0  0  0  0  0  0  0
   14.7154    4.5204   15.0653 H   0  0  0  0  0  0  0  0  0  0  0  0
   16.2216    0.8394   11.4769 C   0  0  0  0  0  0  0  0  0  0  0  0
   15.3901    3.1222   11.2995 C   0  0  0  0  0  0  0  0  0  0  0  0
   15.7785    1.9008   12.0235 C   0  0  0  0  0  0  0  0  0  0  0  0
   17.7526    2.9076   14.0577 C   0  0  0  0  0  0  0  0  0  0  0  0
   18.2868    4.1222   13.3364 C   0  0  0  0  0  0  0  0  0  0  0  0
   18.9362    3.9043   12.2897 O   0  0  0  0  0  0  0  0  0  0  0  0
   18.0346    5.2433   13.8222 O   0  0  0  0  0  0  0  0  0  0  0  0
   19.0765    3.0243   12.0000 H   0  0  0  0  0  0  0  0  0  0  0  0
  1  2  1  0  0  0
  1  3  1  0  0  0
  2  5  1  0  0  0
 11 13  2  0  0  0
 12 13  1  0  0  0
  3  4  1  0  0  0
  3  7  1  0  0  0
  4 14  1  0  0  0
  4  5  1  0  0  0
 14 15  1  0  0  0
  5 13  1  0  0  0
 15 16  1  0  0  0
 15 17  2  0  0  0
  7  8  2  0  0  0
  7  9  1  0  0  0
  1  6  1  0  0  0
 16 18  1  0  0  0
  9 10  1  0  0  0
M  END
> <minimizedAffinity>
-7.84500

$$$$
1P1N_KAI_A_999


 18 18  0  0  0  0  0  0  0  0999 V2000
   18.0633    3.5785   12.3330 N   0  0  0  0  0  0  0  0  0  0  0  0
   17.8373    4.1067   13.7265 C   0  0  0  0  0  0  0  0  0  0  0  0
   16.9984    2.6908   11.9812 C   0  0  0  0  0  0  0  0  0  0  0  0
   16.3007    2.1902   13.2433 C   0  0  0  0  0  0  0  0  0  0  0  0
   16.5086    3.3275   14.0750 C   0  0  0  0  0  0  0  0  0  0  0  0
   18.9501    3.0757   12.2997 H   0  0  0  0  0  0  0  0  0  0  0  0
   15.9786    3.3853   11.0219 C   0  0  0  0  0  0  0  0  0  0  0  0
   14.7963    2.9934   11.1191 O   0  0  0  0  0  0  0  0  0  0  0  0
   16.4329    4.2697   10.2658 O   0  0  0  0  0  0  0  0  0  0  0  0
   17.3464    4.4776   10.2837 H   0  0  0  0  0  0  0  0  0  0  0  0
   14.8611    3.9723   15.6986 C   0  0  0  0  0  0  0  0  0  0  0  0
   16.8039    2.8167   16.6067 C   0  0  0  0  0  0  0  0  0  0  0  0
   15.9795    3.3872   15.5289 C   0  0  0  0  0  0  0  0  0  0  0  0
   17.0260    1.0448   13.9586 C   0  0  0  0  0  0  0  0  0  0  0  0
   16.2076   -0.2108   14.1448 C   0  0  0  0  0  0  0  0  0  0  0  0
   16.8444   -1.2868   14.1843 O   0  0  0  0  0  0  0  0  0  0  0  0
   14.9714   -0.0864   14.2578 O   0  0  0  0  0  0  0  0  0  0  0  0
   17.7766   -1.2833   14.0897 H   0  0  0  0  0  0  0  0  0  0  0  0
  1  2  1  0  0  0
  1  3  1  0  0  0
  2  5  1  0  0  0
 11 13  2  0  0  0
 12 13  1  0  0  0
  3  4  1  0  0  0
  3  7  1  0  0  0
  4 14  1  0  0  0
  4  5  1  0  0  0
 14 15  1  0  0  0
  5 13  1  0  0  0
 15 16  1  0  0  0
 15 17  2  0  0  0
  7  8  2  0  0  0
  7  9  1  0  0  0
  1  6  1  0  0  0
 16 18  1  0  0  0
  9 10  1  0  0  0
M  END
> <minimizedAffinity>
-7.67425

$$$$
1P1N_KAI_A_999


 18 18  0  0  0  0  0  0  0  0999 V2000
   16.0425    1.0882   13.7985 N   0  0  0  0  0  0  0  0  0  0  0  0
   17.3694    1.0239   14.5105 C   0  0  0  0  0  0  0  0  0  0  0  0
   15.5848    2.4428   13.7648 C   0  0  0  0  0  0  0  0  0  0  0  0
   16.2872    3.2559   14.8492 C   0  0  0  0  0  0  0  0  0  0  0  0
   17.5236    2.5499   14.8868 C   0  0  0  0  0  0  0  0  0  0  0  0
   15.3624    0.5117   14.2939 H   0  0  0  0  0  0  0  0  0  0  0  0
   15.8141    3.0811   12.3568 C   0  0  0  0  0  0  0  0  0  0  0  0
   15.2489    2.5013   11.4052 O   0  0  0  0  0  0  0  0  0  0  0  0
   16.5210    4.1101   12.3159 O   0  0  0  0  0  0  0  0  0  0  0  0
   16.8943    4.4536   13.1037 H   0  0  0  0  0  0  0  0  0  0  0  0
   19.4236    3.9102   15.4396 C   0  0  0  0  0  0  0  0  0  0  0  0
   18.8524    2.2179   17.0962 C   0  0  0  0  0  0  0  0  0  0  0  0
   18.6736    2.9614   15.8384 C   0  0  0  0  0  0  0  0  0  0  0  0
   15.6970    3.0860   16.2536 C   0  0  0  0  0  0  0  0  0  0  0  0
   14.3359    2.4329   16.2988 C   0  0  0  0  0  0  0  0  0  0  0  0
   13.3503    3.2011   16.2416 O   0  0  0  0  0  0  0  0  0  0  0  0
   14.2916    1.1885   16.3757 O   0  0  0  0  0  0  0  0  0  0  0  0
   13.4808    4.1273   16.1853 H   0  0  0  0  0  0  0  0  0  0  0  0
  1  2  1  0  0  0
  1  3  1  0  0  0
  2  5  1  0  0  0
 11 13  2  0  0  0
 12 13  1  0  0  0
  3  4  1  0  0  0
  3  7  1  0  0  0
  4 14  1  0  0  0
  4  5  1  0  0  0
 14 15  1  0  0  0
  5 13  1  0  0  0
 15 16  1  0  0  0
 15 17  2  0  0  0
  7  8  2  0  0  0
  7  9  1  0  0  0
  1  6  1  0  0  0
 16 18  1  0  0  0
  9 10  1  0  0  0
M  END
> <minimizedAffinity>
-7.32933

$$$$
1P1N_KAI_A_999


 18 18  0  0  0  0  0  0  0  0999 V2000
   14.7479    1.5339   15.9927 N   0  0  0  0  0  0  0  0  0  0  0  0
   15.7727    1.6080   17.0955 C   0  0  0  0  0  0  0  0  0  0  0  0
   15.3981    1.6798   14.7272 C   0  0  0  0  0  0  0  0  0  0  0  0
   16.7591    2.3451   14.9158 C   0  0  0  0  0  0  0  0  0  0  0  0
   17.0626    1.8586   16.2195 C   0  0  0  0  0  0  0  0  0  0  0  0
   14.0650    2.2821   16.1124 H   0  0  0  0  0  0  0  0  0  0  0  0
   15.5497    0.3004   14.0084 C   0  0  0  0  0  0  0  0  0  0  0  0
   14.8469   -0.6251   14.4672 O   0  0  0  0  0  0  0  0  0  0  0  0
   16.3397    0.2556   13.0418 O   0  0  0  0  0  0  0  0  0  0  0  0
   16.8154    1.0225   12.7896 H   0  0  0  0  0  0  0  0  0  0  0  0
   18.4642    1.8896   18.1689 C   0  0  0  0  0  0  0  0  0  0  0  0
   19.4265    2.9397   16.1926 C   0  0  0  0  0  0  0  0  0  0  0  0
   18.3846    2.2178   16.9410 C   0  0  0  0  0  0  0  0  0  0  0  0
   16.7056    3.8693   15.0698 C   0  0  0  0  0  0  0  0  0  0  0  0
   17.1770    4.6490   13.8653 C   0  0  0  0  0  0  0  0  0  0  0  0
   17.9966    5.5679   14.0859 O   0  0  0  0  0  0  0  0  0  0  0  0
   16.7315    4.3170   12.7483 O   0  0  0  0  0  0  0  0  0  0  0  0
   18.2757    5.7463   14.9623 H   0  0  0  0  0  0  0  0  0  0  0  0
  1  2  1  0  0  0
  1  3  1  0  0  0
  2  5  1  0  0  0
 11 13  2  0  0  0
 12 13  1  0  0  0
  3  4  1  0  0  0
  3  7  1  0  0  0
  4 14  1  0  0  0
  4  5  1  0  0  0
 14 15  1  0  0  0
  5 13  1  0  0  0
 15 16  1  0  0  0
 15 17  2  0  0  0
  7  8  2  0  0  0
  7  9  1  0  0  0
  1  6  1  0  0  0
 16 18  1  0  0  0
  9 10  1  0  0  0
M  END
> <minimizedAffinity>
-7.32802

$$$$
1P1N_KAI_A_999


 18 18  0  0  0  0  0  0  0  0999 V2000
   15.3901    0.4737   15.9229 N   0  0  0  0  0  0  0  0  0  0  0  0
   15.2724    0.2051   14.4445 C   0  0  0  0  0  0  0  0  0  0  0  0
   15.6826    1.8577   16.1341 C   0  0  0  0  0  0  0  0  0  0  0  0
   16.2622    2.4668   14.8600 C   0  0  0  0  0  0  0  0  0  0  0  0
   15.5903    1.6541   13.9027 C   0  0  0  0  0  0  0  0  0  0  0  0
   16.1408   -0.0959   16.3132 H   0  0  0  0  0  0  0  0  0  0  0  0
   14.4097    2.6396   16.5936 C   0  0  0  0  0  0  0  0  0  0  0  0
   13.8424    2.1919   17.6127 O   0  0  0  0  0  0  0  0  0  0  0  0
   14.0901    3.6387   15.9153 O   0  0  0  0  0  0  0  0  0  0  0  0
   14.5980    3.8776   15.1651 H   0  0  0  0  0  0  0  0  0  0  0  0
   15.4792    2.9808   11.9044 C   0  0  0  0  0  0  0  0  0  0  0  0
   16.2897    0.7058   11.5856 C   0  0  0  0  0  0  0  0  0  0  0  0
   15.7954    1.8424   12.3797 C   0  0  0  0  0  0  0  0  0  0  0  0
   17.7518    2.1805   14.6394 C   0  0  0  0  0  0  0  0  0  0  0  0
   18.6831    2.8576   15.6166 C   0  0  0  0  0  0  0  0  0  0  0  0
   19.0786    2.1622   16.5782 O   0  0  0  0  0  0  0  0  0  0  0  0
   18.9985    4.0435   15.3913 O   0  0  0  0  0  0  0  0  0  0  0  0
   18.7871    1.2761   16.6668 H   0  0  0  0  0  0  0  0  0  0  0  0
  1  2  1  0  0  0
  1  3  1  0  0  0
  2  5  1  0  0  0
 11 13  2  0  0  0
 12 13  1  0  0  0
  3  4  1  0  0  0
  3  7  1  0  0  0
  4 14  1  0  0  0
  4  5  1  0  0  0
 14 15  1  0  0  0
  5 13  1  0  0  0
 15 16  1  0  0  0
 15 17  2  0  0  0
  7  8  2  0  0  0
  7  9  1  0  0  0
  1  6  1  0  0  0
 16 18  1  0  0  0
  9 10  1  0  0  0
M  END
> <minimizedAffinity>
-7.18926

$$$$
1P1N_KAI_A_999


 18 18  0  0  0  0  0  0  0  0999 V2000
   16.8931    1.6643   13.1402 N   0  0  0  0  0  0  0  0  0  0  0  0
   15.8084    2.6012   13.6063 C   0  0  0  0  0  0  0  0  0  0  0  0
   17.3732    0.9011   14.2504 C   0  0  0  0  0  0  0  0  0  0  0  0
   17.0220    1.6074   15.5573 C   0  0  0  0  0  0  0  0  0  0  0  0
   15.8177    2.2461   15.1450 C   0  0  0  0  0  0  0  0  0  0  0  0
   17.6609    2.2046   12.7415 H   0  0  0  0  0  0  0  0  0  0  0  0
   16.7931   -0.5500   14.2307 C   0  0  0  0  0  0  0  0  0  0  0  0
   15.5685   -0.6426   14.4602 O   0  0  0  0  0  0  0  0  0  0  0  0
   17.5963   -1.4716   13.9744 O   0  0  0  0  0  0  0  0  0  0  0  0
   18.4994   -1.2761   13.8188 H   0  0  0  0  0  0  0  0  0  0  0  0
   14.6253    4.2644   15.6652 C   0  0  0  0  0  0  0  0  0  0  0  0
   14.7060    2.6240   17.4643 C   0  0  0  0  0  0  0  0  0  0  0  0
   14.9854    3.1265   16.1092 C   0  0  0  0  0  0  0  0  0  0  0  0
   17.9652    2.7560   15.9325 C   0  0  0  0  0  0  0  0  0  0  0  0
   18.9561    2.4362   17.0265 C   0  0  0  0  0  0  0  0  0  0  0  0
   18.4869    1.9244   18.0671 O   0  0  0  0  0  0  0  0  0  0  0  0
   20.1587    2.6897   16.8126 O   0  0  0  0  0  0  0  0  0  0  0  0
   17.5656    1.7699   18.1389 H   0  0  0  0  0  0  0  0  0  0  0  0
  1  2  1  0  0  0
  1  3  1  0  0  0
  2  5  1  0  0  0
 11 13  2  0  0  0
 12 13  1  0  0  0
  3  4  1  0  0  0
  3  7  1  0  0  0
  4 14  1  0  0  0
  4  5  1  0  0  0
 14 15  1  0  0  0
  5 13  1  0  0  0
 15 16  1  0  0  0
 15 17  2  0  0  0
  7  8  2  0  0  0
  7  9  1  0  0  0
  1  6  1  0  0  0
 16 18  1  0  0  0
  9 10  1  0  0  0
M  END
> <minimizedAffinity>
-7.14592

$$$$
1P1N_KAI_A_999


 18 18  0  0  0  0  0  0  0  0999 V2000
   19.0448    3.1466   15.2212 N   0  0  0  0  0  0  0  0  0  0  0  0
   18.3598    2.9351   16.5470 C   0  0  0  0  0  0  0  0  0  0  0  0
   18.0675    3.1625   14.1770 C   0  0  0  0  0  0  0  0  0  0  0  0
   16.7874    2.4804   14.6528 C   0  0  0  0  0  0  0  0  0  0  0  0
   16.8709    2.7987   16.0384 C   0  0  0  0  0  0  0  0  0  0  0  0
   19.7068    2.3885   15.0558 H   0  0  0  0  0  0  0  0  0  0  0  0
   17.7745    4.6218   13.7006 C   0  0  0  0  0  0  0  0  0  0  0  0
   16.7787    4.7552   12.9580 O   0  0  0  0  0  0  0  0  0  0  0  0
   18.5461    5.5125   14.1149 O   0  0  0  0  0  0  0  0  0  0  0  0
   19.2652    5.2875   14.6719 H   0  0  0  0  0  0  0  0  0  0  0  0
   16.1936    1.7049   18.0659 C   0  0  0  0  0  0  0  0  0  0  0  0
   14.3760    2.6598   16.7550 C   0  0  0  0  0  0  0  0  0  0  0  0
   15.7854    2.3530   17.0485 C   0  0  0  0  0  0  0  0  0  0  0  0
   16.8260    0.9489   14.6003 C   0  0  0  0  0  0  0  0  0  0  0  0
   15.6514    0.3048   13.9029 C   0  0  0  0  0  0  0  0  0  0  0  0
   15.5093    0.5770   12.6903 O   0  0  0  0  0  0  0  0  0  0  0  0
   14.9230   -0.4540   14.5738 O   0  0  0  0  0  0  0  0  0  0  0  0
   16.1084    1.1606   12.2678 H   0  0  0  0  0  0  0  0  0  0  0  0
  1  2  1  0  0  0
  1  3  1  0  0  0
  2  5  1  0  0  0
 11 13  2  0  0  0
 12 13  1  0  0  0
  3  4  1  0  0  0
  3  7  1  0  0  0
  4 14  1  0  0  0
  4  5  1  0  0  0
 14 15  1  0  0  0
  5 13  1  0  0  0
 15 16  1  0  0  0
 15 17  2  0  0  0
  7  8  2  0  0  0
  7  9  1  0  0  0
  1  6  1  0  0  0
 16 18  1  0  0  0
  9 10  1  0  0  0
M  END
> <minimizedAffinity>
-7.11497

$$$$
1P1N_KAI_A_999


 18 18  0  0  0  0  0  0  0  0999 V2000
   18.1550    4.1416   14.5054 N   0  0  0  0  0  0  0  0  0  0  0  0
   17.7786    3.2348   13.3618 C   0  0  0  0  0  0  0  0  0  0  0  0
   17.9733    3.4482   15.7431 C   0  0  0  0  0  0  0  0  0  0  0  0
   17.0209    2.2718   15.5449 C   0  0  0  0  0  0  0  0  0  0  0  0
   17.3283    1.9666   14.1882 C   0  0  0  0  0  0  0  0  0  0  0  0
   17.5623    4.9716   14.4905 H   0  0  0  0  0  0  0  0  0  0  0  0
   19.3407    2.9633   16.3242 C   0  0  0  0  0  0  0  0  0  0  0  0
   20.3336    3.6531   16.0092 O   0  0  0  0  0  0  0  0  0  0  0  0
   19.3120    1.9506   17.0548 O   0  0  0  0  0  0  0  0  0  0  0  0
   18.4991    1.5144   17.2192 H   0  0  0  0  0  0  0  0  0  0  0  0
   16.8278   -0.3651   13.9077 C   0  0  0  0  0  0  0  0  0  0  0  0
   15.8678    1.1040   12.2183 C   0  0  0  0  0  0  0  0  0  0  0  0
   16.6408    0.8021   13.4341 C   0  0  0  0  0  0  0  0  0  0  0  0
   15.5358    2.6512   15.5336 C   0  0  0  0  0  0  0  0  0  0  0  0
   14.6776    1.8985   16.5225 C   0  0  0  0  0  0  0  0  0  0  0  0
   13.7298    2.5363   17.0320 O   0  0  0  0  0  0  0  0  0  0  0  0
   14.9632    0.7052   16.7484 O   0  0  0  0  0  0  0  0  0  0  0  0
   13.5915    3.4339   16.8015 H   0  0  0  0  0  0  0  0  0  0  0  0
  1  2  1  0  0  0
  1  3  1  0  0  0
  2  5  1  0  0  0
 11 13  2  0  0  0
 12 13  1  0  0  0
  3  4  1  0  0  0
  3  7  1  0  0  0
  4 14  1  0  0  0
  4  5  1  0  0  0
 14 15  1  0  0  0
  5 13  1  0  0  0
 15 16  1  0  0  0
 15 17  2  0  0  0
  7  8  2  0  0  0
  7  9  1  0  0  0
  1  6  1  0  0  0
 16 18  1  0  0  0
  9 10  1  0  0  0
M  END
> <minimizedAffinity>
-6.88409

$$$$
1P1N_KAI_A_999


 18 18  0  0  0  0  0  0  0  0999 V2000
   16.8886    4.7726   13.0329 N   0  0  0  0  0  0  0  0  0  0  0  0
   16.5726    3.5256   12.2474 C   0  0  0  0  0  0  0  0  0  0  0  0
   17.3100    4.4115   14.3511 C   0  0  0  0  0  0  0  0  0  0  0  0
   16.8317    3.0000   14.6813 C   0  0  0  0  0  0  0  0  0  0  0  0
   16.8513    2.4486   13.3684 C   0  0  0  0  0  0  0  0  0  0  0  0
   16.0555    5.3583   13.0907 H   0  0  0  0  0  0  0  0  0  0  0  0
   18.8623    4.5195   14.4966 C   0  0  0  0  0  0  0  0  0  0  0  0
   19.4368    5.2117   13.6295 O   0  0  0  0  0  0  0  0  0  0  0  0
   19.3776    3.9227   15.4654 O   0  0  0  0  0  0  0  0  0  0  0  0
   18.8385    3.4307   16.0531 H   0  0  0  0  0  0  0  0  0  0  0  0
   15.7429    0.7706   12.0563 C   0  0  0  0  0  0  0  0  0  0  0  0
   16.8797   -0.0615   14.0436 C   0  0  0  0  0  0  0  0  0  0  0  0
   16.4555    0.9777   13.0912 C   0  0  0  0  0  0  0  0  0  0  0  0
   15.3657    2.9122   15.1205 C   0  0  0  0  0  0  0  0  0  0  0  0
   15.1225    2.1058   16.3741 C   0  0  0  0  0  0  0  0  0  0  0  0
   14.2377    1.2244   16.3034 O   0  0  0  0  0  0  0  0  0  0  0  0
   15.8217    2.3636   17.3747 O   0  0  0  0  0  0  0  0  0  0  0  0
   13.7610    1.1021   15.5060 H   0  0  0  0  0  0  0  0  0  0  0  0
  1  2  1  0  0  0
  1  3  1  0  0  0
  2  5  1  0  0  0
 11 13  2  0  0  0
 12 13  1  0  0  0
  3  4  1  0  0  0
  3  7  1  0  0  0
  4 14  1  0  0  0
  4  5  1  0  0  0
 14 15  1  0  0  0
  5 13  1  0  0  0
 15 16  1  0  0  0
 15 17  2  0  0  0
  7  8  2  0  0  0
  7  9  1  0  0  0
  1  6  1  0  0  0
 16 18  1  0  0  0
  9 10  1  0  0  0
M  END
> <minimizedAffinity>
-6.81321

$$$$
