4W52_BNZ_A_200


  6  6  0  0  0  0  0  0  0  0999 V2000
  -34.1869    6.5174    5.9383 C   0  0  0  0  0  0  0  0  0  0  0  0
  -33.4677    7.0579    4.8824 C   0  0  0  0  0  0  0  0  0  0  0  0
  -33.4102    6.4282    3.6332 C   0  0  0  0  0  0  0  0  0  0  0  0
  -34.0797    5.2270    3.4499 C   0  0  0  0  0  0  0  0  0  0  0  0
  -34.8113    4.7010    4.5114 C   0  0  0  0  0  0  0  0  0  0  0  0
  -34.8662    5.3163    5.7472 C   0  0  0  0  0  0  0  0  0  0  0  0
  1  2  2  0  0  0
  1  6  1  0  0  0
  2  3  1  0  0  0
  3  4  2  0  0  0
  4  5  1  0  0  0
  5  6  2  0  0  0
M  END
> <minimizedAffinity>
-5.45831

$$$$
4W52_BNZ_A_200


  6  6  0  0  0  0  0  0  0  0999 V2000
  -34.8144    5.3849    5.8078 C   0  0  0  0  0  0  0  0  0  0  0  0
  -34.8044    4.7126    4.5944 C   0  0  0  0  0  0  0  0  0  0  0  0
  -34.1071    5.2070    3.4856 C   0  0  0  0  0  0  0  0  0  0  0  0
  -33.4182    6.4059    3.5994 C   0  0  0  0  0  0  0  0  0  0  0  0
  -33.4219    7.0649    4.8260 C   0  0  0  0  0  0  0  0  0  0  0  0
  -34.1131    6.5833    5.9210 C   0  0  0  0  0  0  0  0  0  0  0  0
  1  2  2  0  0  0
  1  6  1  0  0  0
  2  3  1  0  0  0
  3  4  2  0  0  0
  4  5  1  0  0  0
  5  6  2  0  0  0
M  END
> <minimizedAffinity>
-5.45365

$$$$
4W52_BNZ_A_200


  6  6  0  0  0  0  0  0  0  0999 V2000
  -34.1374    5.1714    3.4957 C   0  0  0  0  0  0  0  0  0  0  0  0
  -34.8454    4.7186    4.5993 C   0  0  0  0  0  0  0  0  0  0  0  0
  -34.8463    5.4203    5.8109 C   0  0  0  0  0  0  0  0  0  0  0  0
  -34.1109    6.5922    5.9143 C   0  0  0  0  0  0  0  0  0  0  0  0
  -33.4163    7.0461    4.7961 C   0  0  0  0  0  0  0  0  0  0  0  0
  -33.4084    6.3539    3.6004 C   0  0  0  0  0  0  0  0  0  0  0  0
  1  2  2  0  0  0
  1  6  1  0  0  0
  2  3  1  0  0  0
  3  4  2  0  0  0
  4  5  1  0  0  0
  5  6  2  0  0  0
M  END
> <minimizedAffinity>
-5.44234

$$$$
4W52_BNZ_A_200


  6  6  0  0  0  0  0  0  0  0999 V2000
  -33.3919    6.3379    3.5720 C   0  0  0  0  0  0  0  0  0  0  0  0
  -33.4071    7.0263    4.7763 C   0  0  0  0  0  0  0  0  0  0  0  0
  -34.1288    6.5592    5.8812 C   0  0  0  0  0  0  0  0  0  0  0  0
  -34.8571    5.3840    5.7657 C   0  0  0  0  0  0  0  0  0  0  0  0
  -34.8226    4.6926    4.5575 C   0  0  0  0  0  0  0  0  0  0  0  0
  -34.1162    5.1530    3.4631 C   0  0  0  0  0  0  0  0  0  0  0  0
  1  2  2  0  0  0
  1  6  1  0  0  0
  2  3  1  0  0  0
  3  4  2  0  0  0
  4  5  1  0  0  0
  5  6  2  0  0  0
M  END
> <minimizedAffinity>
-5.43966

$$$$
4W52_BNZ_A_200


  6  6  0  0  0  0  0  0  0  0999 V2000
  -34.9657    5.1167    5.4515 C   0  0  0  0  0  0  0  0  0  0  0  0
  -34.3771    6.2942    5.8890 C   0  0  0  0  0  0  0  0  0  0  0  0
  -33.5369    7.0482    5.0609 C   0  0  0  0  0  0  0  0  0  0  0  0
  -33.2768    6.6005    3.7737 C   0  0  0  0  0  0  0  0  0  0  0  0
  -33.8849    5.4257    3.3392 C   0  0  0  0  0  0  0  0  0  0  0  0
  -34.7102    4.6759    4.1549 C   0  0  0  0  0  0  0  0  0  0  0  0
  1  2  2  0  0  0
  1  6  1  0  0  0
  2  3  1  0  0  0
  3  4  2  0  0  0
  4  5  1  0  0  0
  5  6  2  0  0  0
M  END
> <minimizedAffinity>
-5.37606

$$$$
