1XWS_BI1_A_1001


 33 37  0  0  0  0  0  0  0  0999 V2000
  -16.5910  -35.9899    1.5100 C   0  0  0  0  0  0  0  0  0  0  0  0
  -15.1931  -35.5251    1.7243 C   0  0  0  0  0  0  0  0  0  0  0  0
  -14.3872  -35.2175    0.7744 O   0  0  0  0  0  0  0  0  0  0  0  0
  -14.7954  -35.5418    3.0153 N   0  0  0  0  0  0  0  0  0  0  0  0
  -15.8766  -35.9102    3.7166 C   0  0  0  0  0  0  0  0  0  0  0  0
  -15.8322  -36.0067    4.9876 O   0  0  0  0  0  0  0  0  0  0  0  0
  -17.0682  -36.2023    2.8883 C   0  0  0  0  0  0  0  0  0  0  0  0
  -13.9008  -35.3285    3.3666 H   0  0  0  0  0  0  0  0  0  0  0  0
  -18.4094  -36.6047    3.4221 C   0  0  0  0  0  0  0  0  0  0  0  0
  -18.8547  -37.9045    3.7367 C   0  0  0  0  0  0  0  0  0  0  0  0
  -18.2499  -39.1670    3.6948 C   0  0  0  0  0  0  0  0  0  0  0  0
  -18.9922  -40.2766    4.0835 C   0  0  0  0  0  0  0  0  0  0  0  0
  -20.3086  -40.0949    4.5102 C   0  0  0  0  0  0  0  0  0  0  0  0
  -20.9171  -38.8286    4.5624 C   0  0  0  0  0  0  0  0  0  0  0  0
  -20.1719  -37.7067    4.1531 C   0  0  0  0  0  0  0  0  0  0  0  0
  -20.4636  -36.3661    4.0983 N   0  0  0  0  0  0  0  0  0  0  0  0
  -19.3960  -35.6479    3.6548 C   0  0  0  0  0  0  0  0  0  0  0  0
  -21.3322  -35.9752    4.3473 H   0  0  0  0  0  0  0  0  0  0  0  0
  -17.8068  -35.3289   -1.8300 N   0  0  0  0  0  0  0  0  0  0  0  0
  -17.0384  -35.0043   -0.7461 C   0  0  0  0  0  0  0  0  0  0  0  0
  -18.5054  -36.4515   -1.6119 C   0  0  0  0  0  0  0  0  0  0  0  0
  -19.3901  -37.1965   -2.3959 C   0  0  0  0  0  0  0  0  0  0  0  0
  -19.9710  -38.3440   -1.8932 C   0  0  0  0  0  0  0  0  0  0  0  0
  -19.6689  -38.7906   -0.5954 C   0  0  0  0  0  0  0  0  0  0  0  0
  -18.7841  -38.0610    0.2043 C   0  0  0  0  0  0  0  0  0  0  0  0
  -18.1866  -36.9152   -0.3323 C   0  0  0  0  0  0  0  0  0  0  0  0
  -17.3221  -35.9676    0.1934 C   0  0  0  0  0  0  0  0  0  0  0  0
  -17.8141  -34.5622   -3.0610 C   0  0  0  0  0  0  0  0  0  0  0  0
  -16.5041  -34.6866   -3.8023 C   0  0  0  0  0  0  0  0  0  0  0  0
  -16.4759  -36.1462   -4.2268 C   0  0  0  0  0  0  0  0  0  0  0  0
  -15.7367  -37.6436   -6.0479 C   0  0  0  0  0  0  0  0  0  0  0  0
  -15.7282  -36.3037   -5.4725 N   0  0  0  0  0  0  0  0  0  0  0  0
  -15.0490  -35.2170   -6.1613 C   0  0  0  0  0  0  0  0  0  0  0  0
 31 32  1  0  0  0
 32 33  1  0  0  0
 32 30  1  0  0  0
 30 29  1  0  0  0
 29 28  1  0  0  0
 28 19  1  0  0  0
 19 20  1  0  0  0
 19 21  1  0  0  0
 20 27  2  0  0  0
 21 22  1  0  0  0
 21 26  2  0  0  0
 22 23  2  0  0  0
 23 24  1  0  0  0
 24 25  2  0  0  0
 25 26  1  0  0  0
 26 27  1  0  0  0
 27  1  1  0  0  0
  1  2  1  0  0  0
  1  7  2  0  0  0
  2  3  2  0  0  0
  2  4  1  0  0  0
  4  5  1  0  0  0
  5  6  2  0  0  0
  5  7  1  0  0  0
  7  9  1  0  0  0
  9 10  1  0  0  0
  9 17  2  0  0  0
 10 11  1  0  0  0
 10 15  2  0  0  0
 11 12  2  0  0  0
 12 13  1  0  0  0
 13 14  2  0  0  0
 14 15  1  0  0  0
 15 16  1  0  0  0
 16 17  1  0  0  0
  4  8  1  0  0  0
 16 18  1  0  0  0
M  END
> <minimizedAffinity>
-9.84741

$$$$
1XWS_BI1_A_1001


 33 37  0  0  0  0  0  0  0  0999 V2000
  -18.8678  -37.4674   -1.1158 C   0  0  0  0  0  0  0  0  0  0  0  0
  -19.8961  -38.5419   -1.1789 C   0  0  0  0  0  0  0  0  0  0  0  0
  -20.3695  -39.1416   -0.1481 O   0  0  0  0  0  0  0  0  0  0  0  0
  -20.2326  -38.9137   -2.4334 N   0  0  0  0  0  0  0  0  0  0  0  0
  -19.5545  -38.0889   -3.2437 C   0  0  0  0  0  0  0  0  0  0  0  0
  -19.6697  -38.1735   -4.5110 O   0  0  0  0  0  0  0  0  0  0  0  0
  -18.6782  -37.1274   -2.5373 C   0  0  0  0  0  0  0  0  0  0  0  0
  -20.8460  -39.6374   -2.6968 H   0  0  0  0  0  0  0  0  0  0  0  0
  -17.8374  -36.0803   -3.2026 C   0  0  0  0  0  0  0  0  0  0  0  0
  -16.9355  -36.2536   -4.2718 C   0  0  0  0  0  0  0  0  0  0  0  0
  -16.5573  -37.3589   -5.0443 C   0  0  0  0  0  0  0  0  0  0  0  0
  -15.6130  -37.1801   -6.0490 C   0  0  0  0  0  0  0  0  0  0  0  0
  -15.0815  -35.9069   -6.2598 C   0  0  0  0  0  0  0  0  0  0  0  0
  -15.4645  -34.7927   -5.4929 C   0  0  0  0  0  0  0  0  0  0  0  0
  -16.4081  -34.9760   -4.4645 C   0  0  0  0  0  0  0  0  0  0  0  0
  -16.9866  -34.1115   -3.5682 N   0  0  0  0  0  0  0  0  0  0  0  0
  -17.8821  -34.7557   -2.7711 C   0  0  0  0  0  0  0  0  0  0  0  0
  -16.7804  -33.1506   -3.5098 H   0  0  0  0  0  0  0  0  0  0  0  0
  -18.4711  -36.0850    2.2013 N   0  0  0  0  0  0  0  0  0  0  0  0
  -19.2377  -36.6534    1.2214 C   0  0  0  0  0  0  0  0  0  0  0  0
  -17.2082  -35.9086    1.7894 C   0  0  0  0  0  0  0  0  0  0  0  0
  -16.0603  -35.4068    2.4083 C   0  0  0  0  0  0  0  0  0  0  0  0
  -14.8652  -35.3481    1.7189 C   0  0  0  0  0  0  0  0  0  0  0  0
  -14.7791  -35.8078    0.3937 C   0  0  0  0  0  0  0  0  0  0  0  0
  -15.9156  -36.3160   -0.2428 C   0  0  0  0  0  0  0  0  0  0  0  0
  -17.1107  -36.3905    0.4808 C   0  0  0  0  0  0  0  0  0  0  0  0
  -18.3945  -36.7905    0.1438 C   0  0  0  0  0  0  0  0  0  0  0  0
  -18.9754  -35.7629    3.5224 C   0  0  0  0  0  0  0  0  0  0  0  0
  -19.5741  -36.9726    4.2001 C   0  0  0  0  0  0  0  0  0  0  0  0
  -18.3565  -37.7582    4.6602 C   0  0  0  0  0  0  0  0  0  0  0  0
  -19.3033  -39.7627    3.5691 C   0  0  0  0  0  0  0  0  0  0  0  0
  -18.1375  -38.9168    3.7969 N   0  0  0  0  0  0  0  0  0  0  0  0
  -16.8749  -39.2207    3.1411 C   0  0  0  0  0  0  0  0  0  0  0  0
 31 32  1  0  0  0
 32 33  1  0  0  0
 32 30  1  0  0  0
 30 29  1  0  0  0
 29 28  1  0  0  0
 28 19  1  0  0  0
 19 20  1  0  0  0
 19 21  1  0  0  0
 20 27  2  0  0  0
 21 22  1  0  0  0
 21 26  2  0  0  0
 22 23  2  0  0  0
 23 24  1  0  0  0
 24 25  2  0  0  0
 25 26  1  0  0  0
 26 27  1  0  0  0
 27  1  1  0  0  0
  1  2  1  0  0  0
  1  7  2  0  0  0
  2  3  2  0  0  0
  2  4  1  0  0  0
  4  5  1  0  0  0
  5  6  2  0  0  0
  5  7  1  0  0  0
  7  9  1  0  0  0
  9 10  1  0  0  0
  9 17  2  0  0  0
 10 11  1  0  0  0
 10 15  2  0  0  0
 11 12  2  0  0  0
 12 13  1  0  0  0
 13 14  2  0  0  0
 14 15  1  0  0  0
 15 16  1  0  0  0
 16 17  1  0  0  0
  4  8  1  0  0  0
 16 18  1  0  0  0
M  END
> <minimizedAffinity>
-9.58255

$$$$
1XWS_BI1_A_1001


 33 37  0  0  0  0  0  0  0  0999 V2000
  -20.0399  -38.0985   -0.7431 C   0  0  0  0  0  0  0  0  0  0  0  0
  -20.5455  -39.1180   -1.7028 C   0  0  0  0  0  0  0  0  0  0  0  0
  -20.2428  -39.1403   -2.9495 O   0  0  0  0  0  0  0  0  0  0  0  0
  -21.4407  -39.9807   -1.1741 N   0  0  0  0  0  0  0  0  0  0  0  0
  -21.5138  -39.6659    0.1267 C   0  0  0  0  0  0  0  0  0  0  0  0
  -22.2737  -40.3172    0.9173 O   0  0  0  0  0  0  0  0  0  0  0  0
  -20.6708  -38.5151    0.5221 C   0  0  0  0  0  0  0  0  0  0  0  0
  -21.9347  -40.6905   -1.6447 H   0  0  0  0  0  0  0  0  0  0  0  0
  -20.5468  -37.9780    1.9157 C   0  0  0  0  0  0  0  0  0  0  0  0
  -20.0647  -38.6510    3.0564 C   0  0  0  0  0  0  0  0  0  0  0  0
  -19.5490  -39.9352    3.2718 C   0  0  0  0  0  0  0  0  0  0  0  0
  -19.1550  -40.2900    4.5572 C   0  0  0  0  0  0  0  0  0  0  0  0
  -19.2776  -39.3542    5.5854 C   0  0  0  0  0  0  0  0  0  0  0  0
  -19.7864  -38.0610    5.3724 C   0  0  0  0  0  0  0  0  0  0  0  0
  -20.2011  -37.7066    4.0747 C   0  0  0  0  0  0  0  0  0  0  0  0
  -20.7165  -36.5485    3.5470 N   0  0  0  0  0  0  0  0  0  0  0  0
  -20.9402  -36.6737    2.2104 C   0  0  0  0  0  0  0  0  0  0  0  0
  -20.9003  -35.7335    4.0678 H   0  0  0  0  0  0  0  0  0  0  0  0
  -17.9172  -35.5072   -2.1035 N   0  0  0  0  0  0  0  0  0  0  0  0
  -18.9729  -36.3709   -2.2056 C   0  0  0  0  0  0  0  0  0  0  0  0
  -17.2933  -35.6393   -0.9249 C   0  0  0  0  0  0  0  0  0  0  0  0
  -16.2064  -34.9860   -0.3382 C   0  0  0  0  0  0  0  0  0  0  0  0
  -15.7774  -35.3424    0.9251 C   0  0  0  0  0  0  0  0  0  0  0  0
  -16.4361  -36.3523    1.6471 C   0  0  0  0  0  0  0  0  0  0  0  0
  -17.5274  -37.0165    1.0789 C   0  0  0  0  0  0  0  0  0  0  0  0
  -17.9623  -36.6235   -0.1915 C   0  0  0  0  0  0  0  0  0  0  0  0
  -18.9582  -37.0917   -1.0346 C   0  0  0  0  0  0  0  0  0  0  0  0
  -17.5655  -34.5519   -3.1365 C   0  0  0  0  0  0  0  0  0  0  0  0
  -16.2590  -34.9099   -3.8045 C   0  0  0  0  0  0  0  0  0  0  0  0
  -16.5336  -36.2788   -4.4061 C   0  0  0  0  0  0  0  0  0  0  0  0
  -15.0973  -35.2857   -6.1541 C   0  0  0  0  0  0  0  0  0  0  0  0
  -15.7274  -36.4820   -5.6080 N   0  0  0  0  0  0  0  0  0  0  0  0
  -15.4935  -37.7781   -6.2261 C   0  0  0  0  0  0  0  0  0  0  0  0
 31 32  1  0  0  0
 32 33  1  0  0  0
 32 30  1  0  0  0
 30 29  1  0  0  0
 29 28  1  0  0  0
 28 19  1  0  0  0
 19 20  1  0  0  0
 19 21  1  0  0  0
 20 27  2  0  0  0
 21 22  1  0  0  0
 21 26  2  0  0  0
 22 23  2  0  0  0
 23 24  1  0  0  0
 24 25  2  0  0  0
 25 26  1  0  0  0
 26 27  1  0  0  0
 27  1  1  0  0  0
  1  2  1  0  0  0
  1  7  2  0  0  0
  2  3  2  0  0  0
  2  4  1  0  0  0
  4  5  1  0  0  0
  5  6  2  0  0  0
  5  7  1  0  0  0
  7  9  1  0  0  0
  9 10  1  0  0  0
  9 17  2  0  0  0
 10 11  1  0  0  0
 10 15  2  0  0  0
 11 12  2  0  0  0
 12 13  1  0  0  0
 13 14  2  0  0  0
 14 15  1  0  0  0
 15 16  1  0  0  0
 16 17  1  0  0  0
  4  8  1  0  0  0
 16 18  1  0  0  0
M  END
> <minimizedAffinity>
-9.49302

$$$$
1XWS_BI1_A_1001


 33 37  0  0  0  0  0  0  0  0999 V2000
  -19.0206  -37.7901   -1.8616 C   0  0  0  0  0  0  0  0  0  0  0  0
  -19.2202  -38.3083   -3.2429 C   0  0  0  0  0  0  0  0  0  0  0  0
  -18.6051  -37.8549   -4.2736 O   0  0  0  0  0  0  0  0  0  0  0  0
  -20.1866  -39.2463   -3.3485 N   0  0  0  0  0  0  0  0  0  0  0  0
  -20.6058  -39.4690   -2.0950 C   0  0  0  0  0  0  0  0  0  0  0  0
  -21.5177  -40.3266   -1.8510 O   0  0  0  0  0  0  0  0  0  0  0  0
  -19.9400  -38.6301   -1.0731 C   0  0  0  0  0  0  0  0  0  0  0  0
  -20.5138  -39.6756   -4.1719 H   0  0  0  0  0  0  0  0  0  0  0  0
  -20.2015  -38.6996    0.4008 C   0  0  0  0  0  0  0  0  0  0  0  0
  -20.2182  -37.6330    1.3222 C   0  0  0  0  0  0  0  0  0  0  0  0
  -20.0411  -36.2493    1.1981 C   0  0  0  0  0  0  0  0  0  0  0  0
  -20.1217  -35.4604    2.3401 C   0  0  0  0  0  0  0  0  0  0  0  0
  -20.3845  -36.0708    3.5674 C   0  0  0  0  0  0  0  0  0  0  0  0
  -20.5717  -37.4582    3.6957 C   0  0  0  0  0  0  0  0  0  0  0  0
  -20.4738  -38.2597    2.5426 C   0  0  0  0  0  0  0  0  0  0  0  0
  -20.6140  -39.6095    2.3337 N   0  0  0  0  0  0  0  0  0  0  0  0
  -20.4574  -39.9227    1.0185 C   0  0  0  0  0  0  0  0  0  0  0  0
  -20.8033  -40.2654    3.0430 H   0  0  0  0  0  0  0  0  0  0  0  0
  -16.1968  -36.1046   -0.3598 N   0  0  0  0  0  0  0  0  0  0  0  0
  -17.0857  -37.1427   -0.4129 C   0  0  0  0  0  0  0  0  0  0  0  0
  -16.4434  -35.2037   -1.3208 C   0  0  0  0  0  0  0  0  0  0  0  0
  -15.8201  -34.0116   -1.6987 C   0  0  0  0  0  0  0  0  0  0  0  0
  -16.3077  -33.2757   -2.7606 C   0  0  0  0  0  0  0  0  0  0  0  0
  -17.4242  -33.7214   -3.4885 C   0  0  0  0  0  0  0  0  0  0  0  0
  -18.0607  -34.9130   -3.1281 C   0  0  0  0  0  0  0  0  0  0  0  0
  -17.5362  -35.6568   -2.0654 C   0  0  0  0  0  0  0  0  0  0  0  0
  -17.9411  -36.8271   -1.4423 C   0  0  0  0  0  0  0  0  0  0  0  0
  -15.1099  -36.0334    0.5978 C   0  0  0  0  0  0  0  0  0  0  0  0
  -15.5998  -35.6254    1.9670 C   0  0  0  0  0  0  0  0  0  0  0  0
  -14.7565  -36.4691    2.9095 C   0  0  0  0  0  0  0  0  0  0  0  0
  -15.1976  -37.4286    5.1433 C   0  0  0  0  0  0  0  0  0  0  0  0
  -15.6094  -37.3072    3.7497 N   0  0  0  0  0  0  0  0  0  0  0  0
  -16.8278  -37.9550    3.2888 C   0  0  0  0  0  0  0  0  0  0  0  0
 31 32  1  0  0  0
 32 33  1  0  0  0
 32 30  1  0  0  0
 30 29  1  0  0  0
 29 28  1  0  0  0
 28 19  1  0  0  0
 19 20  1  0  0  0
 19 21  1  0  0  0
 20 27  2  0  0  0
 21 22  1  0  0  0
 21 26  2  0  0  0
 22 23  2  0  0  0
 23 24  1  0  0  0
 24 25  2  0  0  0
 25 26  1  0  0  0
 26 27  1  0  0  0
 27  1  1  0  0  0
  1  2  1  0  0  0
  1  7  2  0  0  0
  2  3  2  0  0  0
  2  4  1  0  0  0
  4  5  1  0  0  0
  5  6  2  0  0  0
  5  7  1  0  0  0
  7  9  1  0  0  0
  9 10  1  0  0  0
  9 17  2  0  0  0
 10 11  1  0  0  0
 10 15  2  0  0  0
 11 12  2  0  0  0
 12 13  1  0  0  0
 13 14  2  0  0  0
 14 15  1  0  0  0
 15 16  1  0  0  0
 16 17  1  0  0  0
  4  8  1  0  0  0
 16 18  1  0  0  0
M  END
> <minimizedAffinity>
-9.41104

$$$$
1XWS_BI1_A_1001


 33 37  0  0  0  0  0  0  0  0999 V2000
  -18.6673  -37.6242   -1.1013 C   0  0  0  0  0  0  0  0  0  0  0  0
  -19.7162  -38.6797   -1.1457 C   0  0  0  0  0  0  0  0  0  0  0  0
  -20.1253  -39.3264   -0.1158 O   0  0  0  0  0  0  0  0  0  0  0  0
  -20.1476  -38.9800   -2.3902 N   0  0  0  0  0  0  0  0  0  0  0  0
  -19.5147  -38.1229   -3.2034 C   0  0  0  0  0  0  0  0  0  0  0  0
  -19.7214  -38.1389   -4.4619 O   0  0  0  0  0  0  0  0  0  0  0  0
  -18.5736  -37.2122   -2.5133 C   0  0  0  0  0  0  0  0  0  0  0  0
  -20.7908  -39.6802   -2.6457 H   0  0  0  0  0  0  0  0  0  0  0  0
  -17.7642  -36.1431   -3.1825 C   0  0  0  0  0  0  0  0  0  0  0  0
  -16.8856  -36.2872   -4.2751 C   0  0  0  0  0  0  0  0  0  0  0  0
  -16.5099  -37.3753   -5.0729 C   0  0  0  0  0  0  0  0  0  0  0  0
  -15.5925  -37.1677   -6.0968 C   0  0  0  0  0  0  0  0  0  0  0  0
  -15.0848  -35.8838   -6.3010 C   0  0  0  0  0  0  0  0  0  0  0  0
  -15.4655  -34.7867   -5.5085 C   0  0  0  0  0  0  0  0  0  0  0  0
  -16.3816  -34.9992   -4.4610 C   0  0  0  0  0  0  0  0  0  0  0  0
  -16.9510  -34.1567   -3.5384 N   0  0  0  0  0  0  0  0  0  0  0  0
  -17.8179  -34.8257   -2.7302 C   0  0  0  0  0  0  0  0  0  0  0  0
  -16.7575  -33.1938   -3.4705 H   0  0  0  0  0  0  0  0  0  0  0  0
  -16.6071  -36.0945    1.4456 N   0  0  0  0  0  0  0  0  0  0  0  0
  -16.7625  -36.6829    0.2206 C   0  0  0  0  0  0  0  0  0  0  0  0
  -17.7730  -36.0241    2.1025 C   0  0  0  0  0  0  0  0  0  0  0  0
  -18.1427  -35.4997    3.3438 C   0  0  0  0  0  0  0  0  0  0  0  0
  -19.4553  -35.5687    3.7672 C   0  0  0  0  0  0  0  0  0  0  0  0
  -20.4417  -36.1489    2.9515 C   0  0  0  0  0  0  0  0  0  0  0  0
  -20.0930  -36.6770    1.7048 C   0  0  0  0  0  0  0  0  0  0  0  0
  -18.7628  -36.5747    1.2832 C   0  0  0  0  0  0  0  0  0  0  0  0
  -18.0937  -37.0214    0.1542 C   0  0  0  0  0  0  0  0  0  0  0  0
  -15.3393  -35.5832    1.9297 C   0  0  0  0  0  0  0  0  0  0  0  0
  -14.7349  -36.4912    2.9744 C   0  0  0  0  0  0  0  0  0  0  0  0
  -14.3080  -35.5306    4.0727 C   0  0  0  0  0  0  0  0  0  0  0  0
  -14.9612  -37.4420    5.4957 C   0  0  0  0  0  0  0  0  0  0  0  0
  -14.7748  -36.0008    5.3753 N   0  0  0  0  0  0  0  0  0  0  0  0
  -15.0015  -35.1364    6.5233 C   0  0  0  0  0  0  0  0  0  0  0  0
 31 32  1  0  0  0
 32 33  1  0  0  0
 32 30  1  0  0  0
 30 29  1  0  0  0
 29 28  1  0  0  0
 28 19  1  0  0  0
 19 20  1  0  0  0
 19 21  1  0  0  0
 20 27  2  0  0  0
 21 22  1  0  0  0
 21 26  2  0  0  0
 22 23  2  0  0  0
 23 24  1  0  0  0
 24 25  2  0  0  0
 25 26  1  0  0  0
 26 27  1  0  0  0
 27  1  1  0  0  0
  1  2  1  0  0  0
  1  7  2  0  0  0
  2  3  2  0  0  0
  2  4  1  0  0  0
  4  5  1  0  0  0
  5  6  2  0  0  0
  5  7  1  0  0  0
  7  9  1  0  0  0
  9 10  1  0  0  0
  9 17  2  0  0  0
 10 11  1  0  0  0
 10 15  2  0  0  0
 11 12  2  0  0  0
 12 13  1  0  0  0
 13 14  2  0  0  0
 14 15  1  0  0  0
 15 16  1  0  0  0
 16 17  1  0  0  0
  4  8  1  0  0  0
 16 18  1  0  0  0
M  END
> <minimizedAffinity>
-9.31731

$$$$
1XWS_BI1_A_1001


 33 37  0  0  0  0  0  0  0  0999 V2000
  -16.5924  -36.2159    1.5976 C   0  0  0  0  0  0  0  0  0  0  0  0
  -15.1905  -35.7292    1.7157 C   0  0  0  0  0  0  0  0  0  0  0  0
  -14.4128  -35.5358    0.7137 O   0  0  0  0  0  0  0  0  0  0  0  0
  -14.7565  -35.5936    2.9879 N   0  0  0  0  0  0  0  0  0  0  0  0
  -15.8162  -35.8767    3.7582 C   0  0  0  0  0  0  0  0  0  0  0  0
  -15.7357  -35.8228    5.0299 O   0  0  0  0  0  0  0  0  0  0  0  0
  -17.0298  -36.2643    3.0043 C   0  0  0  0  0  0  0  0  0  0  0  0
  -13.8530  -35.3404    3.2861 H   0  0  0  0  0  0  0  0  0  0  0  0
  -18.3541  -36.6010    3.6197 C   0  0  0  0  0  0  0  0  0  0  0  0
  -18.8332  -37.8753    3.9847 C   0  0  0  0  0  0  0  0  0  0  0  0
  -18.2835  -39.1624    3.9347 C   0  0  0  0  0  0  0  0  0  0  0  0
  -19.0471  -40.2330    4.3864 C   0  0  0  0  0  0  0  0  0  0  0  0
  -20.3290  -39.9890    4.8816 C   0  0  0  0  0  0  0  0  0  0  0  0
  -20.8817  -38.6978    4.9420 C   0  0  0  0  0  0  0  0  0  0  0  0
  -20.1158  -37.6153    4.4694 C   0  0  0  0  0  0  0  0  0  0  0  0
  -20.3556  -36.2650    4.4037 N   0  0  0  0  0  0  0  0  0  0  0  0
  -19.2863  -35.5999    3.8874 C   0  0  0  0  0  0  0  0  0  0  0  0
  -21.1923  -35.8339    4.6926 H   0  0  0  0  0  0  0  0  0  0  0  0
  -18.8457  -37.1263   -1.0791 N   0  0  0  0  0  0  0  0  0  0  0  0
  -18.2880  -37.3514    0.1494 C   0  0  0  0  0  0  0  0  0  0  0  0
  -18.3363  -36.0262   -1.6500 C   0  0  0  0  0  0  0  0  0  0  0  0
  -18.5880  -35.3698   -2.8576 C   0  0  0  0  0  0  0  0  0  0  0  0
  -17.8928  -34.2228   -3.1861 C   0  0  0  0  0  0  0  0  0  0  0  0
  -16.9367  -33.6876   -2.3061 C   0  0  0  0  0  0  0  0  0  0  0  0
  -16.6719  -34.3278   -1.0917 C   0  0  0  0  0  0  0  0  0  0  0  0
  -17.4047  -35.4743   -0.7659 C   0  0  0  0  0  0  0  0  0  0  0  0
  -17.3604  -36.3488    0.3087 C   0  0  0  0  0  0  0  0  0  0  0  0
  -19.8840  -37.9633   -1.6491 C   0  0  0  0  0  0  0  0  0  0  0  0
  -21.0814  -38.0660   -0.7343 C   0  0  0  0  0  0  0  0  0  0  0  0
  -21.5724  -39.4880   -0.9539 C   0  0  0  0  0  0  0  0  0  0  0  0
  -20.5817  -40.3126    1.1541 C   0  0  0  0  0  0  0  0  0  0  0  0
  -21.7727  -40.1648    0.3258 N   0  0  0  0  0  0  0  0  0  0  0  0
  -23.0627  -40.6304    0.8112 C   0  0  0  0  0  0  0  0  0  0  0  0
 31 32  1  0  0  0
 32 33  1  0  0  0
 32 30  1  0  0  0
 30 29  1  0  0  0
 29 28  1  0  0  0
 28 19  1  0  0  0
 19 20  1  0  0  0
 19 21  1  0  0  0
 20 27  2  0  0  0
 21 22  1  0  0  0
 21 26  2  0  0  0
 22 23  2  0  0  0
 23 24  1  0  0  0
 24 25  2  0  0  0
 25 26  1  0  0  0
 26 27  1  0  0  0
 27  1  1  0  0  0
  1  2  1  0  0  0
  1  7  2  0  0  0
  2  3  2  0  0  0
  2  4  1  0  0  0
  4  5  1  0  0  0
  5  6  2  0  0  0
  5  7  1  0  0  0
  7  9  1  0  0  0
  9 10  1  0  0  0
  9 17  2  0  0  0
 10 11  1  0  0  0
 10 15  2  0  0  0
 11 12  2  0  0  0
 12 13  1  0  0  0
 13 14  2  0  0  0
 14 15  1  0  0  0
 15 16  1  0  0  0
 16 17  1  0  0  0
  4  8  1  0  0  0
 16 18  1  0  0  0
M  END
> <minimizedAffinity>
-9.27073

$$$$
1XWS_BI1_A_1001


 33 37  0  0  0  0  0  0  0  0999 V2000
  -18.3269  -35.9580   -1.5315 C   0  0  0  0  0  0  0  0  0  0  0  0
  -18.6631  -35.0844   -2.6891 C   0  0  0  0  0  0  0  0  0  0  0  0
  -19.6997  -35.2427   -3.4284 O   0  0  0  0  0  0  0  0  0  0  0  0
  -17.7276  -34.1507   -2.9686 N   0  0  0  0  0  0  0  0  0  0  0  0
  -16.8013  -34.2753   -2.0078 C   0  0  0  0  0  0  0  0  0  0  0  0
  -15.7786  -33.5138   -1.9802 O   0  0  0  0  0  0  0  0  0  0  0  0
  -17.0724  -35.3613   -1.0391 C   0  0  0  0  0  0  0  0  0  0  0  0
  -17.7264  -33.5136   -3.7192 H   0  0  0  0  0  0  0  0  0  0  0  0
  -16.2140  -35.6933    0.1436 C   0  0  0  0  0  0  0  0  0  0  0  0
  -16.6143  -35.8129    1.4898 C   0  0  0  0  0  0  0  0  0  0  0  0
  -17.8490  -35.7030    2.1416 C   0  0  0  0  0  0  0  0  0  0  0  0
  -17.8954  -35.8829    3.5196 C   0  0  0  0  0  0  0  0  0  0  0  0
  -16.7148  -36.1752    4.2042 C   0  0  0  0  0  0  0  0  0  0  0  0
  -15.4746  -36.2953    3.5532 C   0  0  0  0  0  0  0  0  0  0  0  0
  -15.4239  -36.0968    2.1605 C   0  0  0  0  0  0  0  0  0  0  0  0
  -14.3981  -36.1549    1.2496 N   0  0  0  0  0  0  0  0  0  0  0  0
  -14.8468  -35.9154   -0.0128 C   0  0  0  0  0  0  0  0  0  0  0  0
  -13.4599  -36.3450    1.4798 H   0  0  0  0  0  0  0  0  0  0  0  0
  -20.5717  -37.9147    0.5186 N   0  0  0  0  0  0  0  0  0  0  0  0
  -19.7299  -36.8519    0.3377 C   0  0  0  0  0  0  0  0  0  0  0  0
  -20.6432  -38.6715   -0.5850 C   0  0  0  0  0  0  0  0  0  0  0  0
  -21.3666  -39.8212   -0.9126 C   0  0  0  0  0  0  0  0  0  0  0  0
  -21.2380  -40.3937   -2.1626 C   0  0  0  0  0  0  0  0  0  0  0  0
  -20.3943  -39.8209   -3.1296 C   0  0  0  0  0  0  0  0  0  0  0  0
  -19.6637  -38.6690   -2.8227 C   0  0  0  0  0  0  0  0  0  0  0  0
  -19.8271  -38.0899   -1.5595 C   0  0  0  0  0  0  0  0  0  0  0  0
  -19.2364  -37.0011   -0.9371 C   0  0  0  0  0  0  0  0  0  0  0  0
  -21.3121  -38.1462    1.7440 C   0  0  0  0  0  0  0  0  0  0  0  0
  -20.4725  -38.8623    2.7752 C   0  0  0  0  0  0  0  0  0  0  0  0
  -21.0196  -40.2806    2.7528 C   0  0  0  0  0  0  0  0  0  0  0  0
  -21.2667  -42.1549    4.3437 C   0  0  0  0  0  0  0  0  0  0  0  0
  -20.4333  -41.0736    3.8313 N   0  0  0  0  0  0  0  0  0  0  0  0
  -19.0917  -40.8730    4.3572 C   0  0  0  0  0  0  0  0  0  0  0  0
 31 32  1  0  0  0
 32 33  1  0  0  0
 32 30  1  0  0  0
 30 29  1  0  0  0
 29 28  1  0  0  0
 28 19  1  0  0  0
 19 20  1  0  0  0
 19 21  1  0  0  0
 20 27  2  0  0  0
 21 22  1  0  0  0
 21 26  2  0  0  0
 22 23  2  0  0  0
 23 24  1  0  0  0
 24 25  2  0  0  0
 25 26  1  0  0  0
 26 27  1  0  0  0
 27  1  1  0  0  0
  1  2  1  0  0  0
  1  7  2  0  0  0
  2  3  2  0  0  0
  2  4  1  0  0  0
  4  5  1  0  0  0
  5  6  2  0  0  0
  5  7  1  0  0  0
  7  9  1  0  0  0
  9 10  1  0  0  0
  9 17  2  0  0  0
 10 11  1  0  0  0
 10 15  2  0  0  0
 11 12  2  0  0  0
 12 13  1  0  0  0
 13 14  2  0  0  0
 14 15  1  0  0  0
 15 16  1  0  0  0
 16 17  1  0  0  0
  4  8  1  0  0  0
 16 18  1  0  0  0
M  END
> <minimizedAffinity>
-8.90892

$$$$
1XWS_BI1_A_1001


 33 37  0  0  0  0  0  0  0  0999 V2000
  -18.7850  -36.9768    4.5989 C   0  0  0  0  0  0  0  0  0  0  0  0
  -19.2892  -36.5669    5.9383 C   0  0  0  0  0  0  0  0  0  0  0  0
  -20.4156  -36.9420    6.4250 O   0  0  0  0  0  0  0  0  0  0  0  0
  -18.5007  -35.6759    6.5782 N   0  0  0  0  0  0  0  0  0  0  0  0
  -17.4299  -35.5155    5.7881 C   0  0  0  0  0  0  0  0  0  0  0  0
  -16.4778  -34.7363    6.1242 O   0  0  0  0  0  0  0  0  0  0  0  0
  -17.4829  -36.2898    4.5276 C   0  0  0  0  0  0  0  0  0  0  0  0
  -18.6756  -35.2373    7.4421 H   0  0  0  0  0  0  0  0  0  0  0  0
  -16.4059  -36.3123    3.4857 C   0  0  0  0  0  0  0  0  0  0  0  0
  -16.5150  -35.9472    2.1287 C   0  0  0  0  0  0  0  0  0  0  0  0
  -17.5645  -35.4506    1.3455 C   0  0  0  0  0  0  0  0  0  0  0  0
  -17.3286  -35.1894    0.0004 C   0  0  0  0  0  0  0  0  0  0  0  0
  -16.0549  -35.4215   -0.5211 C   0  0  0  0  0  0  0  0  0  0  0  0
  -14.9960  -35.9115    0.2630 C   0  0  0  0  0  0  0  0  0  0  0  0
  -15.2383  -36.1920    1.6210 C   0  0  0  0  0  0  0  0  0  0  0  0
  -14.4340  -36.6556    2.6327 N   0  0  0  0  0  0  0  0  0  0  0  0
  -15.1185  -36.7400    3.8061 C   0  0  0  0  0  0  0  0  0  0  0  0
  -13.4855  -36.8958    2.5236 H   0  0  0  0  0  0  0  0  0  0  0  0
  -20.2025  -38.9329    1.9091 N   0  0  0  0  0  0  0  0  0  0  0  0
  -19.7630  -37.7461    2.4279 C   0  0  0  0  0  0  0  0  0  0  0  0
  -20.0925  -39.9248    2.8033 C   0  0  0  0  0  0  0  0  0  0  0  0
  -20.3710  -41.2932    2.7549 C   0  0  0  0  0  0  0  0  0  0  0  0
  -20.1476  -42.0901    3.8603 C   0  0  0  0  0  0  0  0  0  0  0  0
  -19.6206  -41.5435    5.0429 C   0  0  0  0  0  0  0  0  0  0  0  0
  -19.3327  -40.1770    5.1111 C   0  0  0  0  0  0  0  0  0  0  0  0
  -19.5423  -39.3914    3.9725 C   0  0  0  0  0  0  0  0  0  0  0  0
  -19.4043  -38.0347    3.7237 C   0  0  0  0  0  0  0  0  0  0  0  0
  -20.6822  -39.0796    0.5483 C   0  0  0  0  0  0  0  0  0  0  0  0
  -19.5959  -38.7875   -0.4597 C   0  0  0  0  0  0  0  0  0  0  0  0
  -20.1033  -37.5461   -1.1757 C   0  0  0  0  0  0  0  0  0  0  0  0
  -19.1851  -36.1661   -3.0081 C   0  0  0  0  0  0  0  0  0  0  0  0
  -19.5783  -37.4894   -2.5384 N   0  0  0  0  0  0  0  0  0  0  0  0
  -19.3900  -38.6531   -3.3910 C   0  0  0  0  0  0  0  0  0  0  0  0
 31 32  1  0  0  0
 32 33  1  0  0  0
 32 30  1  0  0  0
 30 29  1  0  0  0
 29 28  1  0  0  0
 28 19  1  0  0  0
 19 20  1  0  0  0
 19 21  1  0  0  0
 20 27  2  0  0  0
 21 22  1  0  0  0
 21 26  2  0  0  0
 22 23  2  0  0  0
 23 24  1  0  0  0
 24 25  2  0  0  0
 25 26  1  0  0  0
 26 27  1  0  0  0
 27  1  1  0  0  0
  1  2  1  0  0  0
  1  7  2  0  0  0
  2  3  2  0  0  0
  2  4  1  0  0  0
  4  5  1  0  0  0
  5  6  2  0  0  0
  5  7  1  0  0  0
  7  9  1  0  0  0
  9 10  1  0  0  0
  9 17  2  0  0  0
 10 11  1  0  0  0
 10 15  2  0  0  0
 11 12  2  0  0  0
 12 13  1  0  0  0
 13 14  2  0  0  0
 14 15  1  0  0  0
 15 16  1  0  0  0
 16 17  1  0  0  0
  4  8  1  0  0  0
 16 18  1  0  0  0
M  END
> <minimizedAffinity>
-8.78798

$$$$
1XWS_BI1_A_1001


 33 37  0  0  0  0  0  0  0  0999 V2000
  -19.7351  -38.0600   -0.8463 C   0  0  0  0  0  0  0  0  0  0  0  0
  -20.0074  -38.7576   -2.1329 C   0  0  0  0  0  0  0  0  0  0  0  0
  -19.4535  -38.4463   -3.2476 O   0  0  0  0  0  0  0  0  0  0  0  0
  -20.9719  -39.7007   -2.0585 N   0  0  0  0  0  0  0  0  0  0  0  0
  -21.3195  -39.7538   -0.7650 C   0  0  0  0  0  0  0  0  0  0  0  0
  -22.2106  -40.5707   -0.3585 O   0  0  0  0  0  0  0  0  0  0  0  0
  -20.6037  -38.7866    0.0972 C   0  0  0  0  0  0  0  0  0  0  0  0
  -21.3413  -40.2357   -2.7978 H   0  0  0  0  0  0  0  0  0  0  0  0
  -20.7827  -38.6587    1.5795 C   0  0  0  0  0  0  0  0  0  0  0  0
  -20.7083  -39.6822    2.5458 C   0  0  0  0  0  0  0  0  0  0  0  0
  -20.4368  -41.0544    2.4774 C   0  0  0  0  0  0  0  0  0  0  0  0
  -20.4439  -41.7963    3.6533 C   0  0  0  0  0  0  0  0  0  0  0  0
  -20.7114  -41.1490    4.8605 C   0  0  0  0  0  0  0  0  0  0  0  0
  -20.9757  -39.7702    4.9353 C   0  0  0  0  0  0  0  0  0  0  0  0
  -20.9853  -39.0214    3.7434 C   0  0  0  0  0  0  0  0  0  0  0  0
  -21.1905  -37.6888    3.4840 N   0  0  0  0  0  0  0  0  0  0  0  0
  -21.0688  -37.4218    2.1549 C   0  0  0  0  0  0  0  0  0  0  0  0
  -21.3986  -37.0142    4.1701 H   0  0  0  0  0  0  0  0  0  0  0  0
  -16.8671  -36.1722    0.2858 N   0  0  0  0  0  0  0  0  0  0  0  0
  -17.7630  -37.1958    0.4287 C   0  0  0  0  0  0  0  0  0  0  0  0
  -17.1311  -35.4443   -0.8080 C   0  0  0  0  0  0  0  0  0  0  0  0
  -16.5101  -34.3392   -1.3958 C   0  0  0  0  0  0  0  0  0  0  0  0
  -17.0184  -33.7886   -2.5557 C   0  0  0  0  0  0  0  0  0  0  0  0
  -18.1543  -34.3400   -3.1727 C   0  0  0  0  0  0  0  0  0  0  0  0
  -18.7889  -35.4474   -2.6020 C   0  0  0  0  0  0  0  0  0  0  0  0
  -18.2438  -36.0061   -1.4408 C   0  0  0  0  0  0  0  0  0  0  0  0
  -18.6406  -37.0504   -0.6200 C   0  0  0  0  0  0  0  0  0  0  0  0
  -15.7576  -35.9508    1.1931 C   0  0  0  0  0  0  0  0  0  0  0  0
  -16.2194  -35.8740    2.6291 C   0  0  0  0  0  0  0  0  0  0  0  0
  -15.4709  -37.0135    3.3020 C   0  0  0  0  0  0  0  0  0  0  0  0
  -14.8696  -37.4674    5.6551 C   0  0  0  0  0  0  0  0  0  0  0  0
  -14.8193  -36.5480    4.5244 N   0  0  0  0  0  0  0  0  0  0  0  0
  -14.1079  -35.2843    4.6413 C   0  0  0  0  0  0  0  0  0  0  0  0
 31 32  1  0  0  0
 32 33  1  0  0  0
 32 30  1  0  0  0
 30 29  1  0  0  0
 29 28  1  0  0  0
 28 19  1  0  0  0
 19 20  1  0  0  0
 19 21  1  0  0  0
 20 27  2  0  0  0
 21 22  1  0  0  0
 21 26  2  0  0  0
 22 23  2  0  0  0
 23 24  1  0  0  0
 24 25  2  0  0  0
 25 26  1  0  0  0
 26 27  1  0  0  0
 27  1  1  0  0  0
  1  2  1  0  0  0
  1  7  2  0  0  0
  2  3  2  0  0  0
  2  4  1  0  0  0
  4  5  1  0  0  0
  5  6  2  0  0  0
  5  7  1  0  0  0
  7  9  1  0  0  0
  9 10  1  0  0  0
  9 17  2  0  0  0
 10 11  1  0  0  0
 10 15  2  0  0  0
 11 12  2  0  0  0
 12 13  1  0  0  0
 13 14  2  0  0  0
 14 15  1  0  0  0
 15 16  1  0  0  0
 16 17  1  0  0  0
  4  8  1  0  0  0
 16 18  1  0  0  0
M  END
> <minimizedAffinity>
-8.75002

$$$$
1XWS_BI1_A_1001


 33 37  0  0  0  0  0  0  0  0999 V2000
  -19.2725  -37.7883    0.1664 C   0  0  0  0  0  0  0  0  0  0  0  0
  -20.0944  -38.4245   -0.8994 C   0  0  0  0  0  0  0  0  0  0  0  0
  -20.0699  -38.0677   -2.1316 O   0  0  0  0  0  0  0  0  0  0  0  0
  -20.9568  -39.3617   -0.4487 N   0  0  0  0  0  0  0  0  0  0  0  0
  -20.7109  -39.4704    0.8644 C   0  0  0  0  0  0  0  0  0  0  0  0
  -21.3599  -40.2972    1.5869 O   0  0  0  0  0  0  0  0  0  0  0  0
  -19.6660  -38.5494    1.3657 C   0  0  0  0  0  0  0  0  0  0  0  0
  -21.6245  -39.8595   -0.9737 H   0  0  0  0  0  0  0  0  0  0  0  0
  -19.1815  -38.4873    2.7824 C   0  0  0  0  0  0  0  0  0  0  0  0
  -19.1996  -37.3759    3.6491 C   0  0  0  0  0  0  0  0  0  0  0  0
  -19.6607  -36.0599    3.5194 C   0  0  0  0  0  0  0  0  0  0  0  0
  -19.5205  -35.1935    4.5978 C   0  0  0  0  0  0  0  0  0  0  0  0
  -18.9348  -35.6653    5.7736 C   0  0  0  0  0  0  0  0  0  0  0  0
  -18.4785  -36.9878    5.9116 C   0  0  0  0  0  0  0  0  0  0  0  0
  -18.6048  -37.8610    4.8147 C   0  0  0  0  0  0  0  0  0  0  0  0
  -18.2783  -39.1826    4.6357 N   0  0  0  0  0  0  0  0  0  0  0  0
  -18.6238  -39.6106    3.3908 C   0  0  0  0  0  0  0  0  0  0  0  0
  -17.8499  -39.7472    5.3190 H   0  0  0  0  0  0  0  0  0  0  0  0
  -17.1271  -35.1066   -0.9637 N   0  0  0  0  0  0  0  0  0  0  0  0
  -18.2417  -35.8885   -1.0946 C   0  0  0  0  0  0  0  0  0  0  0  0
  -16.4022  -35.4685    0.1037 C   0  0  0  0  0  0  0  0  0  0  0  0
  -15.2234  -34.9782    0.6717 C   0  0  0  0  0  0  0  0  0  0  0  0
  -14.6984  -35.5660    1.8056 C   0  0  0  0  0  0  0  0  0  0  0  0
  -15.3486  -36.6521    2.4162 C   0  0  0  0  0  0  0  0  0  0  0  0
  -16.5306  -37.1561    1.8650 C   0  0  0  0  0  0  0  0  0  0  0  0
  -17.0598  -36.5307    0.7308 C   0  0  0  0  0  0  0  0  0  0  0  0
  -18.1609  -36.7993   -0.0675 C   0  0  0  0  0  0  0  0  0  0  0  0
  -16.8154  -34.0063   -1.8555 C   0  0  0  0  0  0  0  0  0  0  0  0
  -17.2960  -34.2759   -3.2618 C   0  0  0  0  0  0  0  0  0  0  0  0
  -16.0074  -34.3732   -4.0626 C   0  0  0  0  0  0  0  0  0  0  0  0
  -15.2161  -35.4761   -6.1272 C   0  0  0  0  0  0  0  0  0  0  0  0
  -16.0214  -35.5606   -4.9144 N   0  0  0  0  0  0  0  0  0  0  0  0
  -16.7310  -36.7892   -4.5927 C   0  0  0  0  0  0  0  0  0  0  0  0
 31 32  1  0  0  0
 32 33  1  0  0  0
 32 30  1  0  0  0
 30 29  1  0  0  0
 29 28  1  0  0  0
 28 19  1  0  0  0
 19 20  1  0  0  0
 19 21  1  0  0  0
 20 27  2  0  0  0
 21 22  1  0  0  0
 21 26  2  0  0  0
 22 23  2  0  0  0
 23 24  1  0  0  0
 24 25  2  0  0  0
 25 26  1  0  0  0
 26 27  1  0  0  0
 27  1  1  0  0  0
  1  2  1  0  0  0
  1  7  2  0  0  0
  2  3  2  0  0  0
  2  4  1  0  0  0
  4  5  1  0  0  0
  5  6  2  0  0  0
  5  7  1  0  0  0
  7  9  1  0  0  0
  9 10  1  0  0  0
  9 17  2  0  0  0
 10 11  1  0  0  0
 10 15  2  0  0  0
 11 12  2  0  0  0
 12 13  1  0  0  0
 13 14  2  0  0  0
 14 15  1  0  0  0
 15 16  1  0  0  0
 16 17  1  0  0  0
  4  8  1  0  0  0
 16 18  1  0  0  0
M  END
> <minimizedAffinity>
-8.59670

$$$$
