3FVN_9DX_A_1


 24 25  0  0  0  0  0  0  0  0999 V2000
   -7.3539   15.4065   20.1161 C   0  0  0  0  0  0  0  0  0  0  0  0
   -8.0520   14.1674   19.8639 O   0  0  0  0  0  0  0  0  0  0  0  0
   -8.7106   13.7099   21.0255 C   0  0  0  0  0  0  0  0  0  0  0  0
  -10.1505   13.3230   20.6656 C   0  0  0  0  0  0  0  0  0  0  0  0
  -10.7353   14.1576   19.6645 O   0  0  0  0  0  0  0  0  0  0  0  0
  -11.0885   13.5089   21.8715 C   0  0  0  0  0  0  0  0  0  0  0  0
  -11.0774   14.9935   22.3524 C   0  0  0  0  0  0  0  0  0  0  0  0
   -9.9036   15.6725   21.8648 O   0  0  0  0  0  0  0  0  0  0  0  0
   -8.6875   14.8883   21.9906 C   0  0  0  0  0  0  0  0  0  0  0  0
   -7.5195   15.7344   21.6017 C   0  0  0  0  0  0  0  0  0  0  0  0
  -10.7984   15.0664   19.9977 H   0  0  0  0  0  0  0  0  0  0  0  0
   -9.2251   16.5874   19.1558 O   0  0  0  0  0  0  0  0  0  0  0  0
   -7.9786   16.5635   19.2997 C   0  0  0  0  0  0  0  0  0  0  0  0
   -7.2119   17.4132   18.8029 O   0  0  0  0  0  0  0  0  0  0  0  0
   -9.7551   15.9235   19.5510 H   0  0  0  0  0  0  0  0  0  0  0  0
   -5.8824   15.2405   19.8031 C   0  0  0  0  0  0  0  0  0  0  0  0
   -5.5837   14.9428   18.3286 C   0  0  0  0  0  0  0  0  0  0  0  0
   -5.9615   13.5429   17.9489 N   0  0  0  0  0  0  0  0  0  0  0  0
   -5.4172   12.8817   18.5030 H   0  0  0  0  0  0  0  0  0  0  0  0
   -5.7689   13.3956   16.9582 H   0  0  0  0  0  0  0  0  0  0  0  0
   -4.1249   15.1625   18.0721 C   0  0  0  0  0  0  0  0  0  0  0  0
   -3.6301   16.2747   18.3496 O   0  0  0  0  0  0  0  0  0  0  0  0
   -3.4499   14.2188   17.5495 O   0  0  0  0  0  0  0  0  0  0  0  0
   -3.8614   13.3992   17.3573 H   0  0  0  0  0  0  0  0  0  0  0  0
 12 13  1  0  0  0
 13 14  2  0  0  0
 13  1  1  0  0  0
  1 16  1  0  0  0
  1  2  1  0  0  0
  1 10  1  0  0  0
 16 17  1  0  0  0
 17 18  1  0  0  0
 17 21  1  0  0  0
 21 22  2  0  0  0
 21 23  1  0  0  0
  2  3  1  0  0  0
  3  4  1  0  0  0
  3  9  1  0  0  0
  4  5  1  0  0  0
  4  6  1  0  0  0
  6  7  1  0  0  0
  7  8  1  0  0  0
  8  9  1  0  0  0
  9 10  1  0  0  0
 12 15  1  0  0  0
 18 19  1  0  0  0
 18 20  1  0  0  0
 23 24  1  0  0  0
  5 11  1  0  0  0
M  END
> <minimizedAffinity>
-10.34436

$$$$
