1D3D_BZT_B_400


 39 44  0  0  0  0  0  0  0  0999 V2000
  -24.2674  -31.5518   23.7043 C   0  0  0  0  0  0  0  0  0  0  0  0
  -24.3578  -32.5531   22.6497 C   0  0  0  0  0  0  0  0  0  0  0  0
  -23.3758  -32.6961   21.6250 C   0  0  0  0  0  0  0  0  0  0  0  0
  -22.2356  -31.8250   21.6144 C   0  0  0  0  0  0  0  0  0  0  0  0
  -22.1328  -30.8316   22.6435 C   0  0  0  0  0  0  0  0  0  0  0  0
  -23.1378  -30.6955   23.6848 C   0  0  0  0  0  0  0  0  0  0  0  0
  -23.2736  -33.7859   20.3017 S   0  0  0  0  0  0  0  0  0  0  0  0
  -21.8428  -33.2026   19.7155 C   0  0  0  0  0  0  0  0  0  0  0  0
  -21.3540  -32.1172   20.5375 C   0  0  0  0  0  0  0  0  0  0  0  0
  -25.2028  -31.4160   24.6856 O   0  0  0  0  0  0  0  0  0  0  0  0
  -25.9506  -31.9804   24.7013 H   0  0  0  0  0  0  0  0  0  0  0  0
  -21.1931  -33.8032   18.4949 C   0  0  0  0  0  0  0  0  0  0  0  0
  -20.6351  -33.0272   17.3810 C   0  0  0  0  0  0  0  0  0  0  0  0
  -20.0197  -33.6602   16.2847 C   0  0  0  0  0  0  0  0  0  0  0  0
  -19.9146  -35.0719   16.2156 C   0  0  0  0  0  0  0  0  0  0  0  0
  -20.4785  -35.8425   17.3258 C   0  0  0  0  0  0  0  0  0  0  0  0
  -21.1118  -35.2354   18.4629 C   0  0  0  0  0  0  0  0  0  0  0  0
  -19.2567  -35.5845   15.0484 O   0  0  0  0  0  0  0  0  0  0  0  0
  -18.8762  -34.6092   13.9914 C   0  0  0  0  0  0  0  0  0  0  0  0
  -18.2866  -35.2374   12.6895 C   0  0  0  0  0  0  0  0  0  0  0  0
  -16.6453  -34.7117   10.8652 C   0  0  0  0  0  0  0  0  0  0  0  0
  -16.8987  -34.7657   12.3033 N   0  0  0  0  0  0  0  0  0  0  0  0
  -15.8111  -35.6480   12.7444 C   0  0  0  0  0  0  0  0  0  0  0  0
  -14.6203  -34.8750   12.1663 C   0  0  0  0  0  0  0  0  0  0  0  0
  -15.1662  -34.2135   10.8677 C   0  0  0  0  0  0  0  0  0  0  0  0
  -19.9798  -31.6360   20.2590 C   0  0  0  0  0  0  0  0  0  0  0  0
  -18.8417  -33.2349   22.0866 C   0  0  0  0  0  0  0  0  0  0  0  0
  -18.7016  -32.3777   20.9541 C   0  0  0  0  0  0  0  0  0  0  0  0
  -17.3856  -32.2092   20.4226 C   0  0  0  0  0  0  0  0  0  0  0  0
  -16.2463  -32.8870   21.0173 C   0  0  0  0  0  0  0  0  0  0  0  0
  -16.3826  -33.7321   22.1468 C   0  0  0  0  0  0  0  0  0  0  0  0
  -17.7151  -33.8665   22.6416 C   0  0  0  0  0  0  0  0  0  0  0  0
  -14.6954  -32.5174   20.1500 Br  0  0  0  0  0  0  0  0  0  0  0  0
  -15.2540  -34.4926   22.8663 C   0  0  0  0  0  0  0  0  0  0  0  0
  -15.3453  -34.8114   26.6314 C   0  0  0  0  0  0  0  0  0  0  0  0
  -14.3347  -33.6501   26.5130 C   0  0  0  0  0  0  0  0  0  0  0  0
  -13.9632  -33.8485   24.9906 C   0  0  0  0  0  0  0  0  0  0  0  0
  -15.2392  -34.3648   24.3153 N   0  0  0  0  0  0  0  0  0  0  0  0
  -15.4597  -35.5257   25.2486 C   0  0  0  0  0  0  0  0  0  0  0  0
  1  2  1  0  0  0
  1  6  2  0  0  0
  1 10  1  0  0  0
  2  3  2  0  0  0
  3  4  1  0  0  0
  3  7  1  0  0  0
  4  5  2  0  0  0
  4  9  1  0  0  0
  5  6  1  0  0  0
  7  8  1  0  0  0
  8  9  2  0  0  0
  8 12  1  0  0  0
  9 26  1  0  0  0
 26 28  1  0  0  0
 12 13  2  0  0  0
 12 17  1  0  0  0
 13 14  1  0  0  0
 14 15  2  0  0  0
 15 16  1  0  0  0
 15 18  1  0  0  0
 16 17  2  0  0  0
 18 19  1  0  0  0
 19 20  1  0  0  0
 27 28  2  0  0  0
 27 32  1  0  0  0
 28 29  1  0  0  0
 29 30  2  0  0  0
 30 31  1  0  0  0
 30 33  1  0  0  0
 31 32  2  0  0  0
 31 34  1  0  0  0
 34 38  1  0  0  0
 35 36  1  0  0  0
 35 39  1  0  0  0
 36 37  1  0  0  0
 37 38  1  0  0  0
 38 39  1  0  0  0
 21 22  1  0  0  0
 21 25  1  0  0  0
 22 23  1  0  0  0
 22 20  1  0  0  0
 23 24  1  0  0  0
 24 25  1  0  0  0
 10 11  1  0  0  0
M  END
> <minimizedAffinity>
-10.47436

$$$$
1D3D_BZT_B_400


 39 44  0  0  0  0  0  0  0  0999 V2000
  -23.9962  -30.6624   23.8626 C   0  0  0  0  0  0  0  0  0  0  0  0
  -24.2175  -31.7714   22.9438 C   0  0  0  0  0  0  0  0  0  0  0  0
  -23.2952  -32.1271   21.9155 C   0  0  0  0  0  0  0  0  0  0  0  0
  -22.0845  -31.3723   21.7620 C   0  0  0  0  0  0  0  0  0  0  0  0
  -21.8525  -30.2753   22.6562 C   0  0  0  0  0  0  0  0  0  0  0  0
  -22.7977  -29.9224   23.7025 C   0  0  0  0  0  0  0  0  0  0  0  0
  -23.3438  -33.3737   20.7353 S   0  0  0  0  0  0  0  0  0  0  0  0
  -21.8930  -32.9997   20.0380 C   0  0  0  0  0  0  0  0  0  0  0  0
  -21.2773  -31.8725   20.7035 C   0  0  0  0  0  0  0  0  0  0  0  0
  -24.8746  -30.3234   24.8474 O   0  0  0  0  0  0  0  0  0  0  0  0
  -25.6677  -30.8105   24.9558 H   0  0  0  0  0  0  0  0  0  0  0  0
  -21.3495  -33.8008   18.8823 C   0  0  0  0  0  0  0  0  0  0  0  0
  -20.8669  -33.2235   17.6221 C   0  0  0  0  0  0  0  0  0  0  0  0
  -20.3486  -34.0362   16.5965 C   0  0  0  0  0  0  0  0  0  0  0  0
  -20.2721  -35.4439   16.7424 C   0  0  0  0  0  0  0  0  0  0  0  0
  -20.7608  -36.0164   17.9986 C   0  0  0  0  0  0  0  0  0  0  0  0
  -21.2942  -35.2223   19.0698 C   0  0  0  0  0  0  0  0  0  0  0  0
  -19.7149  -36.1501   15.6249 O   0  0  0  0  0  0  0  0  0  0  0  0
  -18.8330  -35.3867   14.7016 C   0  0  0  0  0  0  0  0  0  0  0  0
  -19.2304  -35.4575   13.1936 C   0  0  0  0  0  0  0  0  0  0  0  0
  -19.4026  -32.9553   13.1048 C   0  0  0  0  0  0  0  0  0  0  0  0
  -19.0299  -34.1807   12.4013 N   0  0  0  0  0  0  0  0  0  0  0  0
  -19.8631  -34.0743   11.1970 C   0  0  0  0  0  0  0  0  0  0  0  0
  -19.4076  -32.6953   10.7063 C   0  0  0  0  0  0  0  0  0  0  0  0
  -19.0786  -31.8990   12.0023 C   0  0  0  0  0  0  0  0  0  0  0  0
  -19.8790  -31.5570   20.3258 C   0  0  0  0  0  0  0  0  0  0  0  0
  -18.8513  -33.3074   22.0784 C   0  0  0  0  0  0  0  0  0  0  0  0
  -18.6449  -32.3650   21.0266 C   0  0  0  0  0  0  0  0  0  0  0  0
  -17.3011  -32.1692   20.5809 C   0  0  0  0  0  0  0  0  0  0  0  0
  -16.1999  -32.9041   21.1796 C   0  0  0  0  0  0  0  0  0  0  0  0
  -16.4023  -33.8342   22.2295 C   0  0  0  0  0  0  0  0  0  0  0  0
  -17.7603  -33.9930   22.6406 C   0  0  0  0  0  0  0  0  0  0  0  0
  -14.6022  -32.4838   20.4280 Br  0  0  0  0  0  0  0  0  0  0  0  0
  -15.3190  -34.6613   22.9453 C   0  0  0  0  0  0  0  0  0  0  0  0
  -15.1749  -34.6979   26.7221 C   0  0  0  0  0  0  0  0  0  0  0  0
  -14.1089  -33.6143   26.4514 C   0  0  0  0  0  0  0  0  0  0  0  0
  -13.8529  -33.9464   24.9285 C   0  0  0  0  0  0  0  0  0  0  0  0
  -15.1993  -34.4292   24.3764 N   0  0  0  0  0  0  0  0  0  0  0  0
  -15.4235  -35.5026   25.4083 C   0  0  0  0  0  0  0  0  0  0  0  0
  1  2  1  0  0  0
  1  6  2  0  0  0
  1 10  1  0  0  0
  2  3  2  0  0  0
  3  4  1  0  0  0
  3  7  1  0  0  0
  4  5  2  0  0  0
  4  9  1  0  0  0
  5  6  1  0  0  0
  7  8  1  0  0  0
  8  9  2  0  0  0
  8 12  1  0  0  0
  9 26  1  0  0  0
 26 28  1  0  0  0
 12 13  2  0  0  0
 12 17  1  0  0  0
 13 14  1  0  0  0
 14 15  2  0  0  0
 15 16  1  0  0  0
 15 18  1  0  0  0
 16 17  2  0  0  0
 18 19  1  0  0  0
 19 20  1  0  0  0
 27 28  2  0  0  0
 27 32  1  0  0  0
 28 29  1  0  0  0
 29 30  2  0  0  0
 30 31  1  0  0  0
 30 33  1  0  0  0
 31 32  2  0  0  0
 31 34  1  0  0  0
 34 38  1  0  0  0
 35 36  1  0  0  0
 35 39  1  0  0  0
 36 37  1  0  0  0
 37 38  1  0  0  0
 38 39  1  0  0  0
 21 22  1  0  0  0
 21 25  1  0  0  0
 22 23  1  0  0  0
 22 20  1  0  0  0
 23 24  1  0  0  0
 24 25  1  0  0  0
 10 11  1  0  0  0
M  END
> <minimizedAffinity>
-10.37745

$$$$
1D3D_BZT_B_400


 39 44  0  0  0  0  0  0  0  0999 V2000
  -24.1171  -31.5313   23.3722 C   0  0  0  0  0  0  0  0  0  0  0  0
  -24.2154  -32.5410   22.3262 C   0  0  0  0  0  0  0  0  0  0  0  0
  -23.2119  -32.7314   21.3305 C   0  0  0  0  0  0  0  0  0  0  0  0
  -22.0408  -31.9022   21.3417 C   0  0  0  0  0  0  0  0  0  0  0  0
  -21.9297  -30.9012   22.3626 C   0  0  0  0  0  0  0  0  0  0  0  0
  -22.9569  -30.7168   23.3744 C   0  0  0  0  0  0  0  0  0  0  0  0
  -23.1138  -33.8396   20.0222 S   0  0  0  0  0  0  0  0  0  0  0  0
  -21.6474  -33.3153   19.4692 C   0  0  0  0  0  0  0  0  0  0  0  0
  -21.1417  -32.2387   20.2926 C   0  0  0  0  0  0  0  0  0  0  0  0
  -25.0731  -31.3504   24.3259 O   0  0  0  0  0  0  0  0  0  0  0  0
  -25.8411  -31.8871   24.3272 H   0  0  0  0  0  0  0  0  0  0  0  0
  -20.9872  -33.9532   18.2734 C   0  0  0  0  0  0  0  0  0  0  0  0
  -20.8330  -35.3999   18.0799 C   0  0  0  0  0  0  0  0  0  0  0  0
  -20.2266  -35.9224   16.9221 C   0  0  0  0  0  0  0  0  0  0  0  0
  -19.7427  -35.0704   15.8980 C   0  0  0  0  0  0  0  0  0  0  0  0
  -19.8926  -33.6275   16.0981 C   0  0  0  0  0  0  0  0  0  0  0  0
  -20.5071  -33.0547   17.2630 C   0  0  0  0  0  0  0  0  0  0  0  0
  -19.1561  -35.7344   14.7698 O   0  0  0  0  0  0  0  0  0  0  0  0
  -18.8620  -34.9113   13.5660 C   0  0  0  0  0  0  0  0  0  0  0  0
  -18.0231  -35.6270   12.4610 C   0  0  0  0  0  0  0  0  0  0  0  0
  -16.6485  -34.6674   10.5933 C   0  0  0  0  0  0  0  0  0  0  0  0
  -16.7584  -34.9109   12.0300 N   0  0  0  0  0  0  0  0  0  0  0  0
  -15.5199  -35.6585   12.2808 C   0  0  0  0  0  0  0  0  0  0  0  0
  -14.5101  -34.6562   11.7101 C   0  0  0  0  0  0  0  0  0  0  0  0
  -15.2621  -33.9524   10.5434 C   0  0  0  0  0  0  0  0  0  0  0  0
  -19.7439  -31.8108   20.0468 C   0  0  0  0  0  0  0  0  0  0  0  0
  -17.2569  -31.9395   21.0417 C   0  0  0  0  0  0  0  0  0  0  0  0
  -18.5146  -32.5718   20.8062 C   0  0  0  0  0  0  0  0  0  0  0  0
  -18.6740  -33.9071   21.2903 C   0  0  0  0  0  0  0  0  0  0  0  0
  -17.5953  -34.5823   21.9915 C   0  0  0  0  0  0  0  0  0  0  0  0
  -16.3431  -33.9587   22.2190 C   0  0  0  0  0  0  0  0  0  0  0  0
  -16.2324  -32.6274   21.7152 C   0  0  0  0  0  0  0  0  0  0  0  0
  -18.0556  -36.2589   22.5122 Br  0  0  0  0  0  0  0  0  0  0  0  0
  -15.1282  -34.5732   22.9375 C   0  0  0  0  0  0  0  0  0  0  0  0
  -15.2426  -34.8992   26.7013 C   0  0  0  0  0  0  0  0  0  0  0  0
  -14.2644  -33.7096   26.5928 C   0  0  0  0  0  0  0  0  0  0  0  0
  -13.8744  -33.8954   25.0735 C   0  0  0  0  0  0  0  0  0  0  0  0
  -15.1295  -34.4469   24.3867 N   0  0  0  0  0  0  0  0  0  0  0  0
  -15.3248  -35.6147   25.3169 C   0  0  0  0  0  0  0  0  0  0  0  0
  1  2  1  0  0  0
  1  6  2  0  0  0
  1 10  1  0  0  0
  2  3  2  0  0  0
  3  4  1  0  0  0
  3  7  1  0  0  0
  4  5  2  0  0  0
  4  9  1  0  0  0
  5  6  1  0  0  0
  7  8  1  0  0  0
  8  9  2  0  0  0
  8 12  1  0  0  0
  9 26  1  0  0  0
 26 28  1  0  0  0
 12 13  2  0  0  0
 12 17  1  0  0  0
 13 14  1  0  0  0
 14 15  2  0  0  0
 15 16  1  0  0  0
 15 18  1  0  0  0
 16 17  2  0  0  0
 18 19  1  0  0  0
 19 20  1  0  0  0
 27 28  2  0  0  0
 27 32  1  0  0  0
 28 29  1  0  0  0
 29 30  2  0  0  0
 30 31  1  0  0  0
 30 33  1  0  0  0
 31 32  2  0  0  0
 31 34  1  0  0  0
 34 38  1  0  0  0
 35 36  1  0  0  0
 35 39  1  0  0  0
 36 37  1  0  0  0
 37 38  1  0  0  0
 38 39  1  0  0  0
 21 22  1  0  0  0
 21 25  1  0  0  0
 22 23  1  0  0  0
 22 20  1  0  0  0
 23 24  1  0  0  0
 24 25  1  0  0  0
 10 11  1  0  0  0
M  END
> <minimizedAffinity>
-10.15371

$$$$
1D3D_BZT_B_400


 39 44  0  0  0  0  0  0  0  0999 V2000
  -24.0988  -31.2282   23.0173 C   0  0  0  0  0  0  0  0  0  0  0  0
  -23.7411  -30.8146   21.6667 C   0  0  0  0  0  0  0  0  0  0  0  0
  -22.8414  -31.5500   20.8393 C   0  0  0  0  0  0  0  0  0  0  0  0
  -22.2508  -32.7583   21.3396 C   0  0  0  0  0  0  0  0  0  0  0  0
  -22.5898  -33.1780   22.6683 C   0  0  0  0  0  0  0  0  0  0  0  0
  -23.5098  -32.4227   23.5026 C   0  0  0  0  0  0  0  0  0  0  0  0
  -22.2815  -31.2602   19.2419 S   0  0  0  0  0  0  0  0  0  0  0  0
  -21.3230  -32.6035   19.1549 C   0  0  0  0  0  0  0  0  0  0  0  0
  -21.3961  -33.3683   20.3807 C   0  0  0  0  0  0  0  0  0  0  0  0
  -24.9605  -30.5287   23.8075 O   0  0  0  0  0  0  0  0  0  0  0  0
  -25.3516  -29.7388   23.4896 H   0  0  0  0  0  0  0  0  0  0  0  0
  -20.5336  -32.9236   17.9111 C   0  0  0  0  0  0  0  0  0  0  0  0
  -20.6954  -34.1445   17.1127 C   0  0  0  0  0  0  0  0  0  0  0  0
  -19.9380  -34.3614   15.9464 C   0  0  0  0  0  0  0  0  0  0  0  0
  -18.9904  -33.4077   15.4978 C   0  0  0  0  0  0  0  0  0  0  0  0
  -18.8274  -32.1940   16.3009 C   0  0  0  0  0  0  0  0  0  0  0  0
  -19.5818  -31.9338   17.4949 C   0  0  0  0  0  0  0  0  0  0  0  0
  -18.2947  -33.7505   14.2910 O   0  0  0  0  0  0  0  0  0  0  0  0
  -18.6775  -33.0263   13.0491 C   0  0  0  0  0  0  0  0  0  0  0  0
  -20.1304  -32.4553   13.0345 C   0  0  0  0  0  0  0  0  0  0  0  0
  -20.7227  -32.9994   10.6572 C   0  0  0  0  0  0  0  0  0  0  0  0
  -21.0881  -33.1220   12.0669 N   0  0  0  0  0  0  0  0  0  0  0  0
  -22.4393  -32.5478   12.0548 C   0  0  0  0  0  0  0  0  0  0  0  0
  -23.0730  -33.4380   10.9797 C   0  0  0  0  0  0  0  0  0  0  0  0
  -21.9102  -33.7701   10.0001 C   0  0  0  0  0  0  0  0  0  0  0  0
  -20.7573  -34.7059   20.3715 C   0  0  0  0  0  0  0  0  0  0  0  0
  -19.0954  -36.0680   21.9761 C   0  0  0  0  0  0  0  0  0  0  0  0
  -19.3362  -34.9342   21.1433 C   0  0  0  0  0  0  0  0  0  0  0  0
  -18.2636  -34.0034   20.9827 C   0  0  0  0  0  0  0  0  0  0  0  0
  -16.9864  -34.2126   21.6431 C   0  0  0  0  0  0  0  0  0  0  0  0
  -16.7485  -35.3337   22.4769 C   0  0  0  0  0  0  0  0  0  0  0  0
  -17.8500  -36.2326   22.6073 C   0  0  0  0  0  0  0  0  0  0  0  0
  -15.7931  -32.8979   21.2671 Br  0  0  0  0  0  0  0  0  0  0  0  0
  -15.4468  -35.6560   23.2331 C   0  0  0  0  0  0  0  0  0  0  0  0
  -15.0264  -34.5478   26.8221 C   0  0  0  0  0  0  0  0  0  0  0  0
  -14.3082  -33.3738   26.1224 C   0  0  0  0  0  0  0  0  0  0  0  0
  -14.0838  -34.0687   24.7218 C   0  0  0  0  0  0  0  0  0  0  0  0
  -15.2901  -34.9929   24.5183 N   0  0  0  0  0  0  0  0  0  0  0  0
  -15.1467  -35.7374   25.8192 C   0  0  0  0  0  0  0  0  0  0  0  0
  1  2  1  0  0  0
  1  6  2  0  0  0
  1 10  1  0  0  0
  2  3  2  0  0  0
  3  4  1  0  0  0
  3  7  1  0  0  0
  4  5  2  0  0  0
  4  9  1  0  0  0
  5  6  1  0  0  0
  7  8  1  0  0  0
  8  9  2  0  0  0
  8 12  1  0  0  0
  9 26  1  0  0  0
 26 28  1  0  0  0
 12 13  2  0  0  0
 12 17  1  0  0  0
 13 14  1  0  0  0
 14 15  2  0  0  0
 15 16  1  0  0  0
 15 18  1  0  0  0
 16 17  2  0  0  0
 18 19  1  0  0  0
 19 20  1  0  0  0
 27 28  2  0  0  0
 27 32  1  0  0  0
 28 29  1  0  0  0
 29 30  2  0  0  0
 30 31  1  0  0  0
 30 33  1  0  0  0
 31 32  2  0  0  0
 31 34  1  0  0  0
 34 38  1  0  0  0
 35 36  1  0  0  0
 35 39  1  0  0  0
 36 37  1  0  0  0
 37 38  1  0  0  0
 38 39  1  0  0  0
 21 22  1  0  0  0
 21 25  1  0  0  0
 22 23  1  0  0  0
 22 20  1  0  0  0
 23 24  1  0  0  0
 24 25  1  0  0  0
 10 11  1  0  0  0
M  END
> <minimizedAffinity>
-9.27838

$$$$
1D3D_BZT_B_400


 39 44  0  0  0  0  0  0  0  0999 V2000
  -14.5190  -34.5371   26.3487 C   0  0  0  0  0  0  0  0  0  0  0  0
  -15.2886  -35.7693   26.2369 C   0  0  0  0  0  0  0  0  0  0  0  0
  -16.1960  -36.0267   25.1668 C   0  0  0  0  0  0  0  0  0  0  0  0
  -16.3732  -35.0404   24.1397 C   0  0  0  0  0  0  0  0  0  0  0  0
  -15.6256  -33.8204   24.2363 C   0  0  0  0  0  0  0  0  0  0  0  0
  -14.7015  -33.5687   25.3296 C   0  0  0  0  0  0  0  0  0  0  0  0
  -17.1936  -37.3840   24.8327 S   0  0  0  0  0  0  0  0  0  0  0  0
  -17.8403  -36.7764   23.4386 C   0  0  0  0  0  0  0  0  0  0  0  0
  -17.2980  -35.4673   23.1474 C   0  0  0  0  0  0  0  0  0  0  0  0
  -13.6494  -34.2911   27.3683 O   0  0  0  0  0  0  0  0  0  0  0  0
  -13.5266  -34.9291   28.0435 H   0  0  0  0  0  0  0  0  0  0  0  0
  -18.8367  -37.5656   22.6281 C   0  0  0  0  0  0  0  0  0  0  0  0
  -20.2625  -37.6910   22.9532 C   0  0  0  0  0  0  0  0  0  0  0  0
  -21.1380  -38.4261   22.1321 C   0  0  0  0  0  0  0  0  0  0  0  0
  -20.6757  -39.0727   20.9586 C   0  0  0  0  0  0  0  0  0  0  0  0
  -19.2512  -38.9506   20.6415 C   0  0  0  0  0  0  0  0  0  0  0  0
  -18.3260  -38.2084   21.4512 C   0  0  0  0  0  0  0  0  0  0  0  0
  -21.6747  -39.7791   20.2098 O   0  0  0  0  0  0  0  0  0  0  0  0
  -22.6966  -38.9685   19.4943 C   0  0  0  0  0  0  0  0  0  0  0  0
  -22.5312  -38.9106   17.9431 C   0  0  0  0  0  0  0  0  0  0  0  0
  -20.4104  -38.0201   16.9390 C   0  0  0  0  0  0  0  0  0  0  0  0
  -21.7610  -37.7191   17.4091 N   0  0  0  0  0  0  0  0  0  0  0  0
  -21.4828  -36.6776   18.4058 C   0  0  0  0  0  0  0  0  0  0  0  0
  -20.7016  -35.6976   17.5231 C   0  0  0  0  0  0  0  0  0  0  0  0
  -19.9522  -36.5953   16.4963 C   0  0  0  0  0  0  0  0  0  0  0  0
  -17.6241  -34.8899   21.8216 C   0  0  0  0  0  0  0  0  0  0  0  0
  -18.9189  -32.5492   21.6311 C   0  0  0  0  0  0  0  0  0  0  0  0
  -18.9651  -33.9756   21.6399 C   0  0  0  0  0  0  0  0  0  0  0  0
  -20.2430  -34.5879   21.4534 C   0  0  0  0  0  0  0  0  0  0  0  0
  -21.4375  -33.7829   21.2632 C   0  0  0  0  0  0  0  0  0  0  0  0
  -21.3945  -32.3663   21.2623 C   0  0  0  0  0  0  0  0  0  0  0  0
  -20.0969  -31.8025   21.4542 C   0  0  0  0  0  0  0  0  0  0  0  0
  -22.9240  -34.7992   21.0362 Br  0  0  0  0  0  0  0  0  0  0  0  0
  -22.5882  -31.4114   21.0806 C   0  0  0  0  0  0  0  0  0  0  0  0
  -24.4562  -31.1353   24.3547 C   0  0  0  0  0  0  0  0  0  0  0  0
  -23.6605  -29.8138   24.4199 C   0  0  0  0  0  0  0  0  0  0  0  0
  -22.5766  -30.1664   23.3264 C   0  0  0  0  0  0  0  0  0  0  0  0
  -23.2935  -31.0531   22.3014 N   0  0  0  0  0  0  0  0  0  0  0  0
  -23.8000  -32.0692   23.2905 C   0  0  0  0  0  0  0  0  0  0  0  0
  1  2  1  0  0  0
  1  6  2  0  0  0
  1 10  1  0  0  0
  2  3  2  0  0  0
  3  4  1  0  0  0
  3  7  1  0  0  0
  4  5  2  0  0  0
  4  9  1  0  0  0
  5  6  1  0  0  0
  7  8  1  0  0  0
  8  9  2  0  0  0
  8 12  1  0  0  0
  9 26  1  0  0  0
 26 28  1  0  0  0
 12 13  2  0  0  0
 12 17  1  0  0  0
 13 14  1  0  0  0
 14 15  2  0  0  0
 15 16  1  0  0  0
 15 18  1  0  0  0
 16 17  2  0  0  0
 18 19  1  0  0  0
 19 20  1  0  0  0
 27 28  2  0  0  0
 27 32  1  0  0  0
 28 29  1  0  0  0
 29 30  2  0  0  0
 30 31  1  0  0  0
 30 33  1  0  0  0
 31 32  2  0  0  0
 31 34  1  0  0  0
 34 38  1  0  0  0
 35 36  1  0  0  0
 35 39  1  0  0  0
 36 37  1  0  0  0
 37 38  1  0  0  0
 38 39  1  0  0  0
 21 22  1  0  0  0
 21 25  1  0  0  0
 22 23  1  0  0  0
 22 20  1  0  0  0
 23 24  1  0  0  0
 24 25  1  0  0  0
 10 11  1  0  0  0
M  END
> <minimizedAffinity>
-9.20700

$$$$
1D3D_BZT_B_400


 39 44  0  0  0  0  0  0  0  0999 V2000
  -23.8237  -30.6587   23.6623 C   0  0  0  0  0  0  0  0  0  0  0  0
  -24.0649  -31.8047   22.7952 C   0  0  0  0  0  0  0  0  0  0  0  0
  -23.1522  -32.2198   21.7806 C   0  0  0  0  0  0  0  0  0  0  0  0
  -21.9315  -31.4904   21.5888 C   0  0  0  0  0  0  0  0  0  0  0  0
  -21.6798  -30.3578   22.4317 C   0  0  0  0  0  0  0  0  0  0  0  0
  -22.6154  -29.9443   23.4645 C   0  0  0  0  0  0  0  0  0  0  0  0
  -23.2239  -33.5175   20.6581 S   0  0  0  0  0  0  0  0  0  0  0  0
  -21.7709  -33.1965   19.9393 C   0  0  0  0  0  0  0  0  0  0  0  0
  -21.1361  -32.0495   20.5510 C   0  0  0  0  0  0  0  0  0  0  0  0
  -24.6928  -30.2629   24.6339 O   0  0  0  0  0  0  0  0  0  0  0  0
  -25.4923  -30.7330   24.7672 H   0  0  0  0  0  0  0  0  0  0  0  0
  -21.2440  -34.0567   18.8190 C   0  0  0  0  0  0  0  0  0  0  0  0
  -20.7229  -33.5415   17.5472 C   0  0  0  0  0  0  0  0  0  0  0  0
  -20.2233  -34.4079   16.5569 C   0  0  0  0  0  0  0  0  0  0  0  0
  -20.2035  -35.8118   16.7509 C   0  0  0  0  0  0  0  0  0  0  0  0
  -20.7305  -36.3220   18.0184 C   0  0  0  0  0  0  0  0  0  0  0  0
  -21.2465  -35.4721   19.0547 C   0  0  0  0  0  0  0  0  0  0  0  0
  -19.6598  -36.5764   15.6657 O   0  0  0  0  0  0  0  0  0  0  0  0
  -18.7549  -37.7064   16.0085 C   0  0  0  0  0  0  0  0  0  0  0  0
  -19.4333  -39.1119   16.0474 C   0  0  0  0  0  0  0  0  0  0  0  0
  -20.6593  -40.9010   14.7845 C   0  0  0  0  0  0  0  0  0  0  0  0
  -20.1408  -39.5348   14.7751 N   0  0  0  0  0  0  0  0  0  0  0  0
  -19.2824  -39.5714   13.5845 C   0  0  0  0  0  0  0  0  0  0  0  0
  -20.3136  -40.0471   12.5548 C   0  0  0  0  0  0  0  0  0  0  0  0
  -21.2820  -40.9659   13.3548 C   0  0  0  0  0  0  0  0  0  0  0  0
  -19.7351  -31.7718   20.1543 C   0  0  0  0  0  0  0  0  0  0  0  0
  -17.2164  -32.0223   21.0404 C   0  0  0  0  0  0  0  0  0  0  0  0
  -18.5119  -32.5930   20.8590 C   0  0  0  0  0  0  0  0  0  0  0  0
  -18.7141  -33.9206   21.3483 C   0  0  0  0  0  0  0  0  0  0  0  0
  -17.6397  -34.6486   22.0015 C   0  0  0  0  0  0  0  0  0  0  0  0
  -16.3504  -34.0863   22.1751 C   0  0  0  0  0  0  0  0  0  0  0  0
  -16.1979  -32.7603   21.6683 C   0  0  0  0  0  0  0  0  0  0  0  0
  -18.1568  -36.3028   22.5402 Br  0  0  0  0  0  0  0  0  0  0  0  0
  -15.1364  -34.7604   22.8398 C   0  0  0  0  0  0  0  0  0  0  0  0
  -14.8364  -35.2472   26.5759 C   0  0  0  0  0  0  0  0  0  0  0  0
  -14.6030  -33.7223   26.5128 C   0  0  0  0  0  0  0  0  0  0  0  0
  -14.2677  -33.6241   24.9724 C   0  0  0  0  0  0  0  0  0  0  0  0
  -15.1114  -34.7094   24.2933 N   0  0  0  0  0  0  0  0  0  0  0  0
  -14.6312  -35.8500   25.1511 C   0  0  0  0  0  0  0  0  0  0  0  0
  1  2  1  0  0  0
  1  6  2  0  0  0
  1 10  1  0  0  0
  2  3  2  0  0  0
  3  4  1  0  0  0
  3  7  1  0  0  0
  4  5  2  0  0  0
  4  9  1  0  0  0
  5  6  1  0  0  0
  7  8  1  0  0  0
  8  9  2  0  0  0
  8 12  1  0  0  0
  9 26  1  0  0  0
 26 28  1  0  0  0
 12 13  2  0  0  0
 12 17  1  0  0  0
 13 14  1  0  0  0
 14 15  2  0  0  0
 15 16  1  0  0  0
 15 18  1  0  0  0
 16 17  2  0  0  0
 18 19  1  0  0  0
 19 20  1  0  0  0
 27 28  2  0  0  0
 27 32  1  0  0  0
 28 29  1  0  0  0
 29 30  2  0  0  0
 30 31  1  0  0  0
 30 33  1  0  0  0
 31 32  2  0  0  0
 31 34  1  0  0  0
 34 38  1  0  0  0
 35 36  1  0  0  0
 35 39  1  0  0  0
 36 37  1  0  0  0
 37 38  1  0  0  0
 38 39  1  0  0  0
 21 22  1  0  0  0
 21 25  1  0  0  0
 22 23  1  0  0  0
 22 20  1  0  0  0
 23 24  1  0  0  0
 24 25  1  0  0  0
 10 11  1  0  0  0
M  END
> <minimizedAffinity>
-9.07124

$$$$
1D3D_BZT_B_400


 39 44  0  0  0  0  0  0  0  0999 V2000
  -19.1966  -31.9905   14.5436 C   0  0  0  0  0  0  0  0  0  0  0  0
  -19.7363  -33.3145   14.8242 C   0  0  0  0  0  0  0  0  0  0  0  0
  -19.9573  -33.8015   16.1466 C   0  0  0  0  0  0  0  0  0  0  0  0
  -19.6426  -32.9640   17.2684 C   0  0  0  0  0  0  0  0  0  0  0  0
  -19.1075  -31.6588   17.0099 C   0  0  0  0  0  0  0  0  0  0  0  0
  -18.8882  -31.1709   15.6584 C   0  0  0  0  0  0  0  0  0  0  0  0
  -20.5739  -35.3020   16.7101 S   0  0  0  0  0  0  0  0  0  0  0  0
  -20.4617  -34.9353   18.3175 C   0  0  0  0  0  0  0  0  0  0  0  0
  -19.9395  -33.5994   18.5055 C   0  0  0  0  0  0  0  0  0  0  0  0
  -18.9880  -31.5226   13.2811 O   0  0  0  0  0  0  0  0  0  0  0  0
  -19.1908  -32.0619   12.5422 H   0  0  0  0  0  0  0  0  0  0  0  0
  -20.8959  -35.9159   19.3771 C   0  0  0  0  0  0  0  0  0  0  0  0
  -21.8759  -35.6250   20.4302 C   0  0  0  0  0  0  0  0  0  0  0  0
  -22.2504  -36.6026   21.3710 C   0  0  0  0  0  0  0  0  0  0  0  0
  -21.6956  -37.9064   21.3362 C   0  0  0  0  0  0  0  0  0  0  0  0
  -20.7133  -38.1904   20.2879 C   0  0  0  0  0  0  0  0  0  0  0  0
  -20.3063  -37.2222   19.3083 C   0  0  0  0  0  0  0  0  0  0  0  0
  -22.1715  -38.8060   22.3471 O   0  0  0  0  0  0  0  0  0  0  0  0
  -21.1761  -39.7080   22.9865 C   0  0  0  0  0  0  0  0  0  0  0  0
  -20.1021  -38.9943   23.8664 C   0  0  0  0  0  0  0  0  0  0  0  0
  -17.6221  -39.3629   23.9763 C   0  0  0  0  0  0  0  0  0  0  0  0
  -18.7432  -38.8079   23.2209 N   0  0  0  0  0  0  0  0  0  0  0  0
  -18.3208  -37.4083   23.0845 C   0  0  0  0  0  0  0  0  0  0  0  0
  -16.9478  -37.6297   22.4396 C   0  0  0  0  0  0  0  0  0  0  0  0
  -16.4401  -38.9755   23.0336 C   0  0  0  0  0  0  0  0  0  0  0  0
  -19.9818  -33.0543   19.8833 C   0  0  0  0  0  0  0  0  0  0  0  0
  -18.7955  -33.8013   22.1695 C   0  0  0  0  0  0  0  0  0  0  0  0
  -18.6896  -33.2277   20.8668 C   0  0  0  0  0  0  0  0  0  0  0  0
  -17.3873  -32.8286   20.4339 C   0  0  0  0  0  0  0  0  0  0  0  0
  -16.2275  -33.0045   21.2912 C   0  0  0  0  0  0  0  0  0  0  0  0
  -16.3322  -33.5665   22.5881 C   0  0  0  0  0  0  0  0  0  0  0  0
  -17.6527  -33.9470   22.9752 C   0  0  0  0  0  0  0  0  0  0  0  0
  -14.6959  -32.4311   20.5042 Br  0  0  0  0  0  0  0  0  0  0  0  0
  -15.1824  -33.7933   23.5863 C   0  0  0  0  0  0  0  0  0  0  0  0
  -15.0890  -36.8931   25.7470 C   0  0  0  0  0  0  0  0  0  0  0  0
  -15.8606  -35.9574   26.7024 C   0  0  0  0  0  0  0  0  0  0  0  0
  -15.4819  -34.5896   26.0091 C   0  0  0  0  0  0  0  0  0  0  0  0
  -15.3677  -34.9001   24.5120 N   0  0  0  0  0  0  0  0  0  0  0  0
  -14.3835  -36.0307   24.6543 C   0  0  0  0  0  0  0  0  0  0  0  0
  1  2  1  0  0  0
  1  6  2  0  0  0
  1 10  1  0  0  0
  2  3  2  0  0  0
  3  4  1  0  0  0
  3  7  1  0  0  0
  4  5  2  0  0  0
  4  9  1  0  0  0
  5  6  1  0  0  0
  7  8  1  0  0  0
  8  9  2  0  0  0
  8 12  1  0  0  0
  9 26  1  0  0  0
 26 28  1  0  0  0
 12 13  2  0  0  0
 12 17  1  0  0  0
 13 14  1  0  0  0
 14 15  2  0  0  0
 15 16  1  0  0  0
 15 18  1  0  0  0
 16 17  2  0  0  0
 18 19  1  0  0  0
 19 20  1  0  0  0
 27 28  2  0  0  0
 27 32  1  0  0  0
 28 29  1  0  0  0
 29 30  2  0  0  0
 30 31  1  0  0  0
 30 33  1  0  0  0
 31 32  2  0  0  0
 31 34  1  0  0  0
 34 38  1  0  0  0
 35 36  1  0  0  0
 35 39  1  0  0  0
 36 37  1  0  0  0
 37 38  1  0  0  0
 38 39  1  0  0  0
 21 22  1  0  0  0
 21 25  1  0  0  0
 22 23  1  0  0  0
 22 20  1  0  0  0
 23 24  1  0  0  0
 24 25  1  0  0  0
 10 11  1  0  0  0
M  END
> <minimizedAffinity>
-8.95254

$$$$
1D3D_BZT_B_400


 39 44  0  0  0  0  0  0  0  0999 V2000
  -11.6683  -35.4351   24.7715 C   0  0  0  0  0  0  0  0  0  0  0  0
  -12.4379  -36.6354   24.4713 C   0  0  0  0  0  0  0  0  0  0  0  0
  -13.8616  -36.6465   24.3841 C   0  0  0  0  0  0  0  0  0  0  0  0
  -14.5907  -35.4290   24.5962 C   0  0  0  0  0  0  0  0  0  0  0  0
  -13.8487  -34.2389   24.8958 C   0  0  0  0  0  0  0  0  0  0  0  0
  -12.3976  -34.2376   24.9800 C   0  0  0  0  0  0  0  0  0  0  0  0
  -14.9635  -37.9202   24.0483 S   0  0  0  0  0  0  0  0  0  0  0  0
  -16.3275  -36.9937   24.1575 C   0  0  0  0  0  0  0  0  0  0  0  0
  -15.9931  -35.6183   24.4559 C   0  0  0  0  0  0  0  0  0  0  0  0
  -10.3083  -35.4221   24.8518 O   0  0  0  0  0  0  0  0  0  0  0  0
   -9.8233  -36.2120   24.7145 H   0  0  0  0  0  0  0  0  0  0  0  0
  -17.6961  -37.5847   23.9330 C   0  0  0  0  0  0  0  0  0  0  0  0
  -18.4952  -37.3974   22.7162 C   0  0  0  0  0  0  0  0  0  0  0  0
  -19.7570  -38.0036   22.5693 C   0  0  0  0  0  0  0  0  0  0  0  0
  -20.3035  -38.8194   23.5914 C   0  0  0  0  0  0  0  0  0  0  0  0
  -19.5059  -38.9982   24.8064 C   0  0  0  0  0  0  0  0  0  0  0  0
  -18.2141  -38.3996   24.9944 C   0  0  0  0  0  0  0  0  0  0  0  0
  -21.5923  -39.3820   23.3078 O   0  0  0  0  0  0  0  0  0  0  0  0
  -21.8787  -39.7652   21.8992 C   0  0  0  0  0  0  0  0  0  0  0  0
  -23.2879  -39.3499   21.3714 C   0  0  0  0  0  0  0  0  0  0  0  0
  -22.3235  -38.1130   19.4122 C   0  0  0  0  0  0  0  0  0  0  0  0
  -23.3201  -38.1235   20.4809 N   0  0  0  0  0  0  0  0  0  0  0  0
  -23.0053  -36.8643   21.1671 C   0  0  0  0  0  0  0  0  0  0  0  0
  -23.1128  -35.9043   19.9769 C   0  0  0  0  0  0  0  0  0  0  0  0
  -22.6514  -36.7395   18.7475 C   0  0  0  0  0  0  0  0  0  0  0  0
  -17.0957  -34.6309   24.3747 C   0  0  0  0  0  0  0  0  0  0  0  0
  -18.8197  -33.6593   22.5648 C   0  0  0  0  0  0  0  0  0  0  0  0
  -17.4733  -33.9492   22.9394 C   0  0  0  0  0  0  0  0  0  0  0  0
  -16.4467  -33.5913   22.0117 C   0  0  0  0  0  0  0  0  0  0  0  0
  -16.7711  -32.9591   20.7443 C   0  0  0  0  0  0  0  0  0  0  0  0
  -18.1081  -32.6780   20.3674 C   0  0  0  0  0  0  0  0  0  0  0  0
  -19.0967  -33.0557   21.3257 C   0  0  0  0  0  0  0  0  0  0  0  0
  -15.2919  -32.5957   19.7575 Br  0  0  0  0  0  0  0  0  0  0  0  0
  -18.5737  -32.0233   19.0541 C   0  0  0  0  0  0  0  0  0  0  0  0
  -20.4069  -34.4627   16.8238 C   0  0  0  0  0  0  0  0  0  0  0  0
  -19.6282  -33.6854   15.7407 C   0  0  0  0  0  0  0  0  0  0  0  0
  -19.2615  -32.4200   16.6122 C   0  0  0  0  0  0  0  0  0  0  0  0
  -19.0761  -32.9400   18.0426 N   0  0  0  0  0  0  0  0  0  0  0  0
  -20.4127  -33.6263   18.1413 C   0  0  0  0  0  0  0  0  0  0  0  0
  1  2  1  0  0  0
  1  6  2  0  0  0
  1 10  1  0  0  0
  2  3  2  0  0  0
  3  4  1  0  0  0
  3  7  1  0  0  0
  4  5  2  0  0  0
  4  9  1  0  0  0
  5  6  1  0  0  0
  7  8  1  0  0  0
  8  9  2  0  0  0
  8 12  1  0  0  0
  9 26  1  0  0  0
 26 28  1  0  0  0
 12 13  2  0  0  0
 12 17  1  0  0  0
 13 14  1  0  0  0
 14 15  2  0  0  0
 15 16  1  0  0  0
 15 18  1  0  0  0
 16 17  2  0  0  0
 18 19  1  0  0  0
 19 20  1  0  0  0
 27 28  2  0  0  0
 27 32  1  0  0  0
 28 29  1  0  0  0
 29 30  2  0  0  0
 30 31  1  0  0  0
 30 33  1  0  0  0
 31 32  2  0  0  0
 31 34  1  0  0  0
 34 38  1  0  0  0
 35 36  1  0  0  0
 35 39  1  0  0  0
 36 37  1  0  0  0
 37 38  1  0  0  0
 38 39  1  0  0  0
 21 22  1  0  0  0
 21 25  1  0  0  0
 22 23  1  0  0  0
 22 20  1  0  0  0
 23 24  1  0  0  0
 24 25  1  0  0  0
 10 11  1  0  0  0
M  END
> <minimizedAffinity>
-8.84865

$$$$
1D3D_BZT_B_400


 39 44  0  0  0  0  0  0  0  0999 V2000
  -14.5924  -34.3081   26.4718 C   0  0  0  0  0  0  0  0  0  0  0  0
  -15.2985  -35.5789   26.5702 C   0  0  0  0  0  0  0  0  0  0  0  0
  -16.1566  -36.0748   25.5444 C   0  0  0  0  0  0  0  0  0  0  0  0
  -16.3462  -35.3035   24.3494 C   0  0  0  0  0  0  0  0  0  0  0  0
  -15.6610  -34.0486   24.2376 C   0  0  0  0  0  0  0  0  0  0  0  0
  -14.7867  -33.5532   25.2878 C   0  0  0  0  0  0  0  0  0  0  0  0
  -17.0771  -37.5210   25.4420 S   0  0  0  0  0  0  0  0  0  0  0  0
  -17.7052  -37.2132   23.9448 C   0  0  0  0  0  0  0  0  0  0  0  0
  -17.2163  -35.9525   23.4307 C   0  0  0  0  0  0  0  0  0  0  0  0
  -13.7699  -33.8346   27.4492 O   0  0  0  0  0  0  0  0  0  0  0  0
  -13.6393  -34.3312   28.2330 H   0  0  0  0  0  0  0  0  0  0  0  0
  -18.6357  -38.1886   23.2698 C   0  0  0  0  0  0  0  0  0  0  0  0
  -20.0721  -37.9657   23.0669 C   0  0  0  0  0  0  0  0  0  0  0  0
  -20.8729  -38.9143   22.4035 C   0  0  0  0  0  0  0  0  0  0  0  0
  -20.3216  -40.1211   21.9050 C   0  0  0  0  0  0  0  0  0  0  0  0
  -18.8894  -40.3425   22.1154 C   0  0  0  0  0  0  0  0  0  0  0  0
  -18.0378  -39.3993   22.7846 C   0  0  0  0  0  0  0  0  0  0  0  0
  -21.2471  -40.9941   21.2424 O   0  0  0  0  0  0  0  0  0  0  0  0
  -22.6940  -40.8102   21.5358 C   0  0  0  0  0  0  0  0  0  0  0  0
  -23.6535  -41.0654   20.3311 C   0  0  0  0  0  0  0  0  0  0  0  0
  -23.9162  -39.5569   18.3426 C   0  0  0  0  0  0  0  0  0  0  0  0
  -24.2926  -39.8302   19.7279 N   0  0  0  0  0  0  0  0  0  0  0  0
  -23.9090  -38.5688   20.3742 C   0  0  0  0  0  0  0  0  0  0  0  0
  -24.7080  -37.5946   19.5011 C   0  0  0  0  0  0  0  0  0  0  0  0
  -24.7337  -38.2515   18.0906 C   0  0  0  0  0  0  0  0  0  0  0  0
  -17.5252  -35.6449   22.0139 C   0  0  0  0  0  0  0  0  0  0  0  0
  -18.7948  -33.2862   22.1414 C   0  0  0  0  0  0  0  0  0  0  0  0
  -18.7484  -34.6256   21.6506 C   0  0  0  0  0  0  0  0  0  0  0  0
  -19.8128  -35.0432   20.7931 C   0  0  0  0  0  0  0  0  0  0  0  0
  -20.8908  -34.1345   20.4420 C   0  0  0  0  0  0  0  0  0  0  0  0
  -20.9426  -32.8068   20.9351 C   0  0  0  0  0  0  0  0  0  0  0  0
  -19.8589  -32.4380   21.7884 C   0  0  0  0  0  0  0  0  0  0  0  0
  -22.1055  -34.9025   19.3335 Br  0  0  0  0  0  0  0  0  0  0  0  0
  -22.0328  -31.7601   20.6421 C   0  0  0  0  0  0  0  0  0  0  0  0
  -24.3661  -31.7149   23.6152 C   0  0  0  0  0  0  0  0  0  0  0  0
  -23.8152  -30.2764   23.7202 C   0  0  0  0  0  0  0  0  0  0  0  0
  -22.5442  -30.4701   22.8026 C   0  0  0  0  0  0  0  0  0  0  0  0
  -22.9532  -31.4933   21.7364 N   0  0  0  0  0  0  0  0  0  0  0  0
  -23.4214  -32.5529   22.6983 C   0  0  0  0  0  0  0  0  0  0  0  0
  1  2  1  0  0  0
  1  6  2  0  0  0
  1 10  1  0  0  0
  2  3  2  0  0  0
  3  4  1  0  0  0
  3  7  1  0  0  0
  4  5  2  0  0  0
  4  9  1  0  0  0
  5  6  1  0  0  0
  7  8  1  0  0  0
  8  9  2  0  0  0
  8 12  1  0  0  0
  9 26  1  0  0  0
 26 28  1  0  0  0
 12 13  2  0  0  0
 12 17  1  0  0  0
 13 14  1  0  0  0
 14 15  2  0  0  0
 15 16  1  0  0  0
 15 18  1  0  0  0
 16 17  2  0  0  0
 18 19  1  0  0  0
 19 20  1  0  0  0
 27 28  2  0  0  0
 27 32  1  0  0  0
 28 29  1  0  0  0
 29 30  2  0  0  0
 30 31  1  0  0  0
 30 33  1  0  0  0
 31 32  2  0  0  0
 31 34  1  0  0  0
 34 38  1  0  0  0
 35 36  1  0  0  0
 35 39  1  0  0  0
 36 37  1  0  0  0
 37 38  1  0  0  0
 38 39  1  0  0  0
 21 22  1  0  0  0
 21 25  1  0  0  0
 22 23  1  0  0  0
 22 20  1  0  0  0
 23 24  1  0  0  0
 24 25  1  0  0  0
 10 11  1  0  0  0
M  END
> <minimizedAffinity>
-8.72693

$$$$
1D3D_BZT_B_400


 39 44  0  0  0  0  0  0  0  0999 V2000
  -24.1052  -31.2878   22.9690 C   0  0  0  0  0  0  0  0  0  0  0  0
  -23.6821  -30.8475   21.6460 C   0  0  0  0  0  0  0  0  0  0  0  0
  -22.7959  -31.6010   20.8206 C   0  0  0  0  0  0  0  0  0  0  0  0
  -22.2864  -32.8560   21.2945 C   0  0  0  0  0  0  0  0  0  0  0  0
  -22.6903  -33.3027   22.5959 C   0  0  0  0  0  0  0  0  0  0  0  0
  -23.5961  -32.5284   23.4285 C   0  0  0  0  0  0  0  0  0  0  0  0
  -22.1696  -31.2864   19.2528 S   0  0  0  0  0  0  0  0  0  0  0  0
  -21.2808  -32.6755   19.1465 C   0  0  0  0  0  0  0  0  0  0  0  0
  -21.4341  -33.4774   20.3407 C   0  0  0  0  0  0  0  0  0  0  0  0
  -24.9542  -30.5708   23.7572 O   0  0  0  0  0  0  0  0  0  0  0  0
  -25.2925  -29.7504   23.4565 H   0  0  0  0  0  0  0  0  0  0  0  0
  -20.4691  -32.9943   17.9167 C   0  0  0  0  0  0  0  0  0  0  0  0
  -20.6959  -34.1540   17.0462 C   0  0  0  0  0  0  0  0  0  0  0  0
  -19.9109  -34.3715   15.8983 C   0  0  0  0  0  0  0  0  0  0  0  0
  -18.8716  -33.4774   15.5388 C   0  0  0  0  0  0  0  0  0  0  0  0
  -18.6444  -32.3252   16.4137 C   0  0  0  0  0  0  0  0  0  0  0  0
  -19.4241  -32.0663   17.5917 C   0  0  0  0  0  0  0  0  0  0  0  0
  -18.1566  -33.8129   14.3413 O   0  0  0  0  0  0  0  0  0  0  0  0
  -18.3940  -35.1594   13.7551 C   0  0  0  0  0  0  0  0  0  0  0  0
  -17.2093  -36.1655   13.9010 C   0  0  0  0  0  0  0  0  0  0  0  0
  -18.0546  -37.8762   15.5312 C   0  0  0  0  0  0  0  0  0  0  0  0
  -17.6001  -37.6054   14.1690 N   0  0  0  0  0  0  0  0  0  0  0  0
  -16.4984  -38.5682   14.0469 C   0  0  0  0  0  0  0  0  0  0  0  0
  -17.2564  -39.8526   14.4013 C   0  0  0  0  0  0  0  0  0  0  0  0
  -18.3417  -39.4065   15.4235 C   0  0  0  0  0  0  0  0  0  0  0  0
  -20.8667  -34.8463   20.3026 C   0  0  0  0  0  0  0  0  0  0  0  0
  -19.1114  -36.4625   21.5268 C   0  0  0  0  0  0  0  0  0  0  0  0
  -19.4487  -35.1604   21.0494 C   0  0  0  0  0  0  0  0  0  0  0  0
  -18.4752  -34.1289   21.2253 C   0  0  0  0  0  0  0  0  0  0  0  0
  -17.1995  -34.4052   21.8637 C   0  0  0  0  0  0  0  0  0  0  0  0
  -16.8664  -35.6957   22.3455 C   0  0  0  0  0  0  0  0  0  0  0  0
  -17.8713  -36.6906   22.1485 C   0  0  0  0  0  0  0  0  0  0  0  0
  -16.1408  -32.9338   21.9524 Br  0  0  0  0  0  0  0  0  0  0  0  0
  -15.5570  -36.1056   23.0436 C   0  0  0  0  0  0  0  0  0  0  0  0
  -15.2898  -35.0412   26.6604 C   0  0  0  0  0  0  0  0  0  0  0  0
  -16.4524  -36.0486   26.7917 C   0  0  0  0  0  0  0  0  0  0  0  0
  -16.8472  -36.1150   25.2637 C   0  0  0  0  0  0  0  0  0  0  0  0
  -15.5376  -35.9316   24.4876 N   0  0  0  0  0  0  0  0  0  0  0  0
  -15.1285  -34.6474   25.1589 C   0  0  0  0  0  0  0  0  0  0  0  0
  1  2  1  0  0  0
  1  6  2  0  0  0
  1 10  1  0  0  0
  2  3  2  0  0  0
  3  4  1  0  0  0
  3  7  1  0  0  0
  4  5  2  0  0  0
  4  9  1  0  0  0
  5  6  1  0  0  0
  7  8  1  0  0  0
  8  9  2  0  0  0
  8 12  1  0  0  0
  9 26  1  0  0  0
 26 28  1  0  0  0
 12 13  2  0  0  0
 12 17  1  0  0  0
 13 14  1  0  0  0
 14 15  2  0  0  0
 15 16  1  0  0  0
 15 18  1  0  0  0
 16 17  2  0  0  0
 18 19  1  0  0  0
 19 20  1  0  0  0
 27 28  2  0  0  0
 27 32  1  0  0  0
 28 29  1  0  0  0
 29 30  2  0  0  0
 30 31  1  0  0  0
 30 33  1  0  0  0
 31 32  2  0  0  0
 31 34  1  0  0  0
 34 38  1  0  0  0
 35 36  1  0  0  0
 35 39  1  0  0  0
 36 37  1  0  0  0
 37 38  1  0  0  0
 38 39  1  0  0  0
 21 22  1  0  0  0
 21 25  1  0  0  0
 22 23  1  0  0  0
 22 20  1  0  0  0
 23 24  1  0  0  0
 24 25  1  0  0  0
 10 11  1  0  0  0
M  END
> <minimizedAffinity>
-8.55781

$$$$
