1NJD_UMP_A_317


 24 25  0  0  0  0  0  0  0  0999 V2000
   15.4858   48.9219  -54.6250 C   0  0  0  0  0  0  0  0  0  0  0  0
   15.1069   48.2858  -55.9544 C   0  0  0  0  0  0  0  0  0  0  0  0
   16.4222   48.4029  -56.7084 C   0  0  0  0  0  0  0  0  0  0  0  0
   16.9284   49.8296  -56.4709 C   0  0  0  0  0  0  0  0  0  0  0  0
   17.3032   47.4415  -56.0872 O   0  0  0  0  0  0  0  0  0  0  0  0
   16.4257   50.0303  -55.0523 O   0  0  0  0  0  0  0  0  0  0  0  0
   17.3585   47.6213  -55.1356 H   0  0  0  0  0  0  0  0  0  0  0  0
   14.5544   49.0355  -53.4932 N   0  0  0  0  0  0  0  0  0  0  0  0
   13.7354   47.9482  -53.1573 C   0  0  0  0  0  0  0  0  0  0  0  0
   13.2072   47.9517  -51.9042 N   0  0  0  0  0  0  0  0  0  0  0  0
   13.4030   48.9317  -50.9553 C   0  0  0  0  0  0  0  0  0  0  0  0
   14.2434   50.0542  -51.3978 C   0  0  0  0  0  0  0  0  0  0  0  0
   14.7917   50.0569  -52.6853 C   0  0  0  0  0  0  0  0  0  0  0  0
   13.3945   47.0344  -53.8881 O   0  0  0  0  0  0  0  0  0  0  0  0
   12.9209   48.7715  -49.8339 O   0  0  0  0  0  0  0  0  0  0  0  0
   12.6365   47.1896  -51.6536 H   0  0  0  0  0  0  0  0  0  0  0  0
   16.2101   50.8252  -57.3886 C   0  0  0  0  0  0  0  0  0  0  0  0
   16.3358   50.4895  -58.8151 O   0  0  0  0  0  0  0  0  0  0  0  0
   15.7503   51.4975  -59.8966 P   0  0  0  0  0  0  0  0  0  0  0  0
   14.5209   50.8525  -60.3467 O   0  0  0  0  0  0  0  0  0  0  0  0
   15.4011   52.8492  -59.4655 O   0  0  0  0  0  0  0  0  0  0  0  0
   16.7032   51.5924  -61.0218 O   0  0  0  0  0  0  0  0  0  0  0  0
   14.7751   52.8012  -58.7261 H   0  0  0  0  0  0  0  0  0  0  0  0
   16.9436   50.7005  -61.3180 H   0  0  0  0  0  0  0  0  0  0  0  0
  8  9  1  0  0  0
  8 13  1  0  0  0
  8  1  1  0  0  0
  9 10  1  0  0  0
  9 14  2  0  0  0
 10 11  1  0  0  0
 11 12  1  0  0  0
 11 15  2  0  0  0
 12 13  2  0  0  0
  1  2  1  0  0  0
  1  6  1  0  0  0
  2  3  1  0  0  0
  3  4  1  0  0  0
  3  5  1  0  0  0
  4  6  1  0  0  0
  4 17  1  0  0  0
 17 18  1  0  0  0
 18 19  1  0  0  0
 19 20  2  0  0  0
 19 21  1  0  0  0
 19 22  1  0  0  0
 10 16  1  0  0  0
  5  7  1  0  0  0
 21 23  1  0  0  0
 22 24  1  0  0  0
M  END
> <minimizedAffinity>
-8.79029

$$$$
1NJD_UMP_A_317


 24 25  0  0  0  0  0  0  0  0999 V2000
   17.3787   49.8247  -55.2282 C   0  0  0  0  0  0  0  0  0  0  0  0
   17.6845   50.6482  -53.9856 C   0  0  0  0  0  0  0  0  0  0  0  0
   18.1149   49.5543  -53.0209 C   0  0  0  0  0  0  0  0  0  0  0  0
   17.0848   48.4285  -53.1602 C   0  0  0  0  0  0  0  0  0  0  0  0
   19.4092   49.1196  -53.4925 O   0  0  0  0  0  0  0  0  0  0  0  0
   16.7799   48.5630  -54.6415 O   0  0  0  0  0  0  0  0  0  0  0  0
   19.3396   48.8444  -54.4201 H   0  0  0  0  0  0  0  0  0  0  0  0
   16.9402   50.4193  -56.4992 N   0  0  0  0  0  0  0  0  0  0  0  0
   16.8091   49.6084  -57.6354 C   0  0  0  0  0  0  0  0  0  0  0  0
   16.0395   50.0981  -58.6440 N   0  0  0  0  0  0  0  0  0  0  0  0
   15.3956   51.3166  -58.6409 C   0  0  0  0  0  0  0  0  0  0  0  0
   15.6128   52.1215  -57.4297 C   0  0  0  0  0  0  0  0  0  0  0  0
   16.4022   51.6236  -56.3870 C   0  0  0  0  0  0  0  0  0  0  0  0
   17.3621   48.5422  -57.8424 O   0  0  0  0  0  0  0  0  0  0  0  0
   14.6717   51.6033  -59.5945 O   0  0  0  0  0  0  0  0  0  0  0  0
   15.9335   49.5345  -59.4442 H   0  0  0  0  0  0  0  0  0  0  0  0
   15.8121   48.7500  -52.3689 C   0  0  0  0  0  0  0  0  0  0  0  0
   14.8607   47.6291  -52.3259 O   0  0  0  0  0  0  0  0  0  0  0  0
   13.6243   47.6313  -53.3259 P   0  0  0  0  0  0  0  0  0  0  0  0
   12.8278   48.7757  -52.8949 O   0  0  0  0  0  0  0  0  0  0  0  0
   13.8888   47.7968  -54.7534 O   0  0  0  0  0  0  0  0  0  0  0  0
   12.8532   46.3863  -53.1300 O   0  0  0  0  0  0  0  0  0  0  0  0
   14.3952   48.6118  -54.8960 H   0  0  0  0  0  0  0  0  0  0  0  0
   12.6706   46.2643  -52.1852 H   0  0  0  0  0  0  0  0  0  0  0  0
  8  9  1  0  0  0
  8 13  1  0  0  0
  8  1  1  0  0  0
  9 10  1  0  0  0
  9 14  2  0  0  0
 10 11  1  0  0  0
 11 12  1  0  0  0
 11 15  2  0  0  0
 12 13  2  0  0  0
  1  2  1  0  0  0
  1  6  1  0  0  0
  2  3  1  0  0  0
  3  4  1  0  0  0
  3  5  1  0  0  0
  4  6  1  0  0  0
  4 17  1  0  0  0
 17 18  1  0  0  0
 18 19  1  0  0  0
 19 20  2  0  0  0
 19 21  1  0  0  0
 19 22  1  0  0  0
 10 16  1  0  0  0
  5  7  1  0  0  0
 21 23  1  0  0  0
 22 24  1  0  0  0
M  END
> <minimizedAffinity>
-8.35628

$$$$
1NJD_UMP_A_317


 24 25  0  0  0  0  0  0  0  0999 V2000
   17.2608   48.2950  -55.1038 C   0  0  0  0  0  0  0  0  0  0  0  0
   16.0578   49.1975  -54.8717 C   0  0  0  0  0  0  0  0  0  0  0  0
   15.2248   48.8798  -56.1036 C   0  0  0  0  0  0  0  0  0  0  0  0
   16.1901   48.9043  -57.2934 C   0  0  0  0  0  0  0  0  0  0  0  0
   14.7201   47.5438  -55.8867 O   0  0  0  0  0  0  0  0  0  0  0  0
   17.4317   48.3630  -56.6074 O   0  0  0  0  0  0  0  0  0  0  0  0
   15.4621   46.9399  -55.7263 H   0  0  0  0  0  0  0  0  0  0  0  0
   18.3840   48.1936  -54.1605 N   0  0  0  0  0  0  0  0  0  0  0  0
   19.6303   48.7352  -54.5056 C   0  0  0  0  0  0  0  0  0  0  0  0
   20.4925   48.9724  -53.4810 N   0  0  0  0  0  0  0  0  0  0  0  0
   20.2445   48.7164  -52.1499 C   0  0  0  0  0  0  0  0  0  0  0  0
   18.9306   48.1156  -51.8758 C   0  0  0  0  0  0  0  0  0  0  0  0
   18.0374   47.8700  -52.9247 C   0  0  0  0  0  0  0  0  0  0  0  0
   20.0477   48.9556  -55.6292 O   0  0  0  0  0  0  0  0  0  0  0  0
   21.0895   49.0476  -51.3182 O   0  0  0  0  0  0  0  0  0  0  0  0
   21.3682   49.3599  -53.7097 H   0  0  0  0  0  0  0  0  0  0  0  0
   16.4688   50.3430  -57.7426 C   0  0  0  0  0  0  0  0  0  0  0  0
   16.5627   50.4835  -59.2037 O   0  0  0  0  0  0  0  0  0  0  0  0
   15.7428   51.6432  -59.9188 P   0  0  0  0  0  0  0  0  0  0  0  0
   14.6255   50.9455  -60.5473 O   0  0  0  0  0  0  0  0  0  0  0  0
   15.1814   52.7070  -59.0893 O   0  0  0  0  0  0  0  0  0  0  0  0
   16.5953   52.2556  -60.9586 O   0  0  0  0  0  0  0  0  0  0  0  0
   14.6188   52.3180  -58.4015 H   0  0  0  0  0  0  0  0  0  0  0  0
   16.9747   51.5591  -61.5171 H   0  0  0  0  0  0  0  0  0  0  0  0
  8  9  1  0  0  0
  8 13  1  0  0  0
  8  1  1  0  0  0
  9 10  1  0  0  0
  9 14  2  0  0  0
 10 11  1  0  0  0
 11 12  1  0  0  0
 11 15  2  0  0  0
 12 13  2  0  0  0
  1  2  1  0  0  0
  1  6  1  0  0  0
  2  3  1  0  0  0
  3  4  1  0  0  0
  3  5  1  0  0  0
  4  6  1  0  0  0
  4 17  1  0  0  0
 17 18  1  0  0  0
 18 19  1  0  0  0
 19 20  2  0  0  0
 19 21  1  0  0  0
 19 22  1  0  0  0
 10 16  1  0  0  0
  5  7  1  0  0  0
 21 23  1  0  0  0
 22 24  1  0  0  0
M  END
> <minimizedAffinity>
-8.34830

$$$$
1NJD_UMP_A_317


 24 25  0  0  0  0  0  0  0  0999 V2000
   17.0907   49.2318  -53.2907 C   0  0  0  0  0  0  0  0  0  0  0  0
   18.1184   48.2057  -53.7452 C   0  0  0  0  0  0  0  0  0  0  0  0
   19.3454   49.0888  -53.9097 C   0  0  0  0  0  0  0  0  0  0  0  0
   18.8788   50.3363  -54.6674 C   0  0  0  0  0  0  0  0  0  0  0  0
   19.7491   49.4322  -52.5659 O   0  0  0  0  0  0  0  0  0  0  0  0
   17.4779   50.4561  -54.0944 O   0  0  0  0  0  0  0  0  0  0  0  0
   19.0053   49.8460  -52.1006 H   0  0  0  0  0  0  0  0  0  0  0  0
   15.7024   48.8848  -52.9536 N   0  0  0  0  0  0  0  0  0  0  0  0
   14.9550   49.7379  -52.1295 C   0  0  0  0  0  0  0  0  0  0  0  0
   13.6035   49.5941  -52.1754 N   0  0  0  0  0  0  0  0  0  0  0  0
   12.9210   48.6814  -52.9503 C   0  0  0  0  0  0  0  0  0  0  0  0
   13.7781   47.8003  -53.7573 C   0  0  0  0  0  0  0  0  0  0  0  0
   15.1696   47.9433  -53.7164 C   0  0  0  0  0  0  0  0  0  0  0  0
   15.3883   50.5491  -51.3297 O   0  0  0  0  0  0  0  0  0  0  0  0
   11.6902   48.7090  -52.9476 O   0  0  0  0  0  0  0  0  0  0  0  0
   13.0671   50.1928  -51.6070 H   0  0  0  0  0  0  0  0  0  0  0  0
   18.7690   50.0549  -56.1700 C   0  0  0  0  0  0  0  0  0  0  0  0
   17.5356   50.5880  -56.7683 O   0  0  0  0  0  0  0  0  0  0  0  0
   16.5886   49.6040  -57.5829 P   0  0  0  0  0  0  0  0  0  0  0  0
   17.4067   48.4110  -57.7759 O   0  0  0  0  0  0  0  0  0  0  0  0
   15.3358   49.1781  -56.9632 O   0  0  0  0  0  0  0  0  0  0  0  0
   16.2833   50.2153  -58.8929 O   0  0  0  0  0  0  0  0  0  0  0  0
   15.5223   48.7744  -56.1011 H   0  0  0  0  0  0  0  0  0  0  0  0
   17.1076   50.5028  -59.3155 H   0  0  0  0  0  0  0  0  0  0  0  0
  8  9  1  0  0  0
  8 13  1  0  0  0
  8  1  1  0  0  0
  9 10  1  0  0  0
  9 14  2  0  0  0
 10 11  1  0  0  0
 11 12  1  0  0  0
 11 15  2  0  0  0
 12 13  2  0  0  0
  1  2  1  0  0  0
  1  6  1  0  0  0
  2  3  1  0  0  0
  3  4  1  0  0  0
  3  5  1  0  0  0
  4  6  1  0  0  0
  4 17  1  0  0  0
 17 18  1  0  0  0
 18 19  1  0  0  0
 19 20  2  0  0  0
 19 21  1  0  0  0
 19 22  1  0  0  0
 10 16  1  0  0  0
  5  7  1  0  0  0
 21 23  1  0  0  0
 22 24  1  0  0  0
M  END
> <minimizedAffinity>
-7.83052

$$$$
1NJD_UMP_A_317


 24 25  0  0  0  0  0  0  0  0999 V2000
   17.1092   48.9447  -54.1827 C   0  0  0  0  0  0  0  0  0  0  0  0
   15.9439   48.5784  -55.0901 C   0  0  0  0  0  0  0  0  0  0  0  0
   16.5442   48.8772  -56.4549 C   0  0  0  0  0  0  0  0  0  0  0  0
   17.2346   50.2397  -56.3320 C   0  0  0  0  0  0  0  0  0  0  0  0
   17.5172   47.8333  -56.6788 O   0  0  0  0  0  0  0  0  0  0  0  0
   17.7104   50.1395  -54.8937 O   0  0  0  0  0  0  0  0  0  0  0  0
   18.1520   47.8202  -55.9455 H   0  0  0  0  0  0  0  0  0  0  0  0
   17.0639   48.8059  -52.7198 N   0  0  0  0  0  0  0  0  0  0  0  0
   16.1246   49.5404  -51.9823 C   0  0  0  0  0  0  0  0  0  0  0  0
   15.8549   49.0919  -50.7271 N   0  0  0  0  0  0  0  0  0  0  0  0
   16.4319   47.9932  -50.1279 C   0  0  0  0  0  0  0  0  0  0  0  0
   17.4321   47.2998  -50.9531 C   0  0  0  0  0  0  0  0  0  0  0  0
   17.7139   47.7545  -52.2462 C   0  0  0  0  0  0  0  0  0  0  0  0
   15.5727   50.5730  -52.3207 O   0  0  0  0  0  0  0  0  0  0  0  0
   16.0408   47.6580  -49.0098 O   0  0  0  0  0  0  0  0  0  0  0  0
   15.1911   49.5948  -50.2019 H   0  0  0  0  0  0  0  0  0  0  0  0
   16.2158   51.3805  -56.4307 C   0  0  0  0  0  0  0  0  0  0  0  0
   16.3344   52.1541  -57.6760 O   0  0  0  0  0  0  0  0  0  0  0  0
   15.4215   51.7588  -58.9166 P   0  0  0  0  0  0  0  0  0  0  0  0
   16.2619   50.8553  -59.6958 O   0  0  0  0  0  0  0  0  0  0  0  0
   14.1614   51.0664  -58.6559 O   0  0  0  0  0  0  0  0  0  0  0  0
   15.1368   52.9765  -59.7035 O   0  0  0  0  0  0  0  0  0  0  0  0
   14.3344   50.2638  -58.1393 H   0  0  0  0  0  0  0  0  0  0  0  0
   15.9662   53.4462  -59.8836 H   0  0  0  0  0  0  0  0  0  0  0  0
  8  9  1  0  0  0
  8 13  1  0  0  0
  8  1  1  0  0  0
  9 10  1  0  0  0
  9 14  2  0  0  0
 10 11  1  0  0  0
 11 12  1  0  0  0
 11 15  2  0  0  0
 12 13  2  0  0  0
  1  2  1  0  0  0
  1  6  1  0  0  0
  2  3  1  0  0  0
  3  4  1  0  0  0
  3  5  1  0  0  0
  4  6  1  0  0  0
  4 17  1  0  0  0
 17 18  1  0  0  0
 18 19  1  0  0  0
 19 20  2  0  0  0
 19 21  1  0  0  0
 19 22  1  0  0  0
 10 16  1  0  0  0
  5  7  1  0  0  0
 21 23  1  0  0  0
 22 24  1  0  0  0
M  END
> <minimizedAffinity>
-7.76580

$$$$
1NJD_UMP_A_317


 24 25  0  0  0  0  0  0  0  0999 V2000
   14.7991   48.7554  -53.6450 C   0  0  0  0  0  0  0  0  0  0  0  0
   14.2796   47.5634  -52.8545 C   0  0  0  0  0  0  0  0  0  0  0  0
   13.2117   48.2328  -52.0037 C   0  0  0  0  0  0  0  0  0  0  0  0
   13.8445   49.5129  -51.4479 C   0  0  0  0  0  0  0  0  0  0  0  0
   12.1412   48.5518  -52.9196 O   0  0  0  0  0  0  0  0  0  0  0  0
   14.7311   49.8744  -52.6263 O   0  0  0  0  0  0  0  0  0  0  0  0
   12.4874   49.0946  -53.6452 H   0  0  0  0  0  0  0  0  0  0  0  0
   15.8516   48.6465  -54.6657 N   0  0  0  0  0  0  0  0  0  0  0  0
   15.4977   48.4643  -56.0101 C   0  0  0  0  0  0  0  0  0  0  0  0
   16.4489   48.7673  -56.9336 N   0  0  0  0  0  0  0  0  0  0  0  0
   17.7191   49.2235  -56.6550 C   0  0  0  0  0  0  0  0  0  0  0  0
   18.0234   49.3528  -55.2222 C   0  0  0  0  0  0  0  0  0  0  0  0
   17.0492   49.0442  -54.2661 C   0  0  0  0  0  0  0  0  0  0  0  0
   14.4534   48.0031  -56.4368 O   0  0  0  0  0  0  0  0  0  0  0  0
   18.4556   49.5274  -57.5936 O   0  0  0  0  0  0  0  0  0  0  0  0
   16.2098   48.6509  -57.8815 H   0  0  0  0  0  0  0  0  0  0  0  0
   14.7382   49.2028  -50.2420 C   0  0  0  0  0  0  0  0  0  0  0  0
   14.2600   49.8200  -48.9954 O   0  0  0  0  0  0  0  0  0  0  0  0
   13.0578   49.1361  -48.2109 P   0  0  0  0  0  0  0  0  0  0  0  0
   13.4345   49.2704  -46.8073 O   0  0  0  0  0  0  0  0  0  0  0  0
   11.7207   49.7060  -48.3601 O   0  0  0  0  0  0  0  0  0  0  0  0
   13.0048   47.7057  -48.5771 O   0  0  0  0  0  0  0  0  0  0  0  0
   11.7416   50.6462  -48.1224 H   0  0  0  0  0  0  0  0  0  0  0  0
   13.8874   47.3147  -48.4823 H   0  0  0  0  0  0  0  0  0  0  0  0
  8  9  1  0  0  0
  8 13  1  0  0  0
  8  1  1  0  0  0
  9 10  1  0  0  0
  9 14  2  0  0  0
 10 11  1  0  0  0
 11 12  1  0  0  0
 11 15  2  0  0  0
 12 13  2  0  0  0
  1  2  1  0  0  0
  1  6  1  0  0  0
  2  3  1  0  0  0
  3  4  1  0  0  0
  3  5  1  0  0  0
  4  6  1  0  0  0
  4 17  1  0  0  0
 17 18  1  0  0  0
 18 19  1  0  0  0
 19 20  2  0  0  0
 19 21  1  0  0  0
 19 22  1  0  0  0
 10 16  1  0  0  0
  5  7  1  0  0  0
 21 23  1  0  0  0
 22 24  1  0  0  0
M  END
> <minimizedAffinity>
-7.60498

$$$$
1NJD_UMP_A_317


 24 25  0  0  0  0  0  0  0  0999 V2000
   14.0966   51.3001  -51.3106 C   0  0  0  0  0  0  0  0  0  0  0  0
   13.1752   52.4097  -51.7959 C   0  0  0  0  0  0  0  0  0  0  0  0
   13.1843   53.3328  -50.5875 C   0  0  0  0  0  0  0  0  0  0  0  0
   12.9934   52.4359  -49.3598 C   0  0  0  0  0  0  0  0  0  0  0  0
   14.4979   53.9335  -50.5783 O   0  0  0  0  0  0  0  0  0  0  0  0
   13.7455   51.2074  -49.8399 O   0  0  0  0  0  0  0  0  0  0  0  0
   15.1722   53.2364  -50.5669 H   0  0  0  0  0  0  0  0  0  0  0  0
   14.4609   50.1389  -52.1354 N   0  0  0  0  0  0  0  0  0  0  0  0
   13.5667   49.0657  -52.2554 C   0  0  0  0  0  0  0  0  0  0  0  0
   13.7601   48.2310  -53.3115 N   0  0  0  0  0  0  0  0  0  0  0  0
   14.7583   48.3500  -54.2541 C   0  0  0  0  0  0  0  0  0  0  0  0
   15.6750   49.4790  -54.0368 C   0  0  0  0  0  0  0  0  0  0  0  0
   15.4816   50.3430  -52.9531 C   0  0  0  0  0  0  0  0  0  0  0  0
   12.6761   48.7638  -51.4801 O   0  0  0  0  0  0  0  0  0  0  0  0
   14.7726   47.5627  -55.2004 O   0  0  0  0  0  0  0  0  0  0  0  0
   13.1339   47.4779  -53.4110 H   0  0  0  0  0  0  0  0  0  0  0  0
   11.5177   52.0643  -49.1775 C   0  0  0  0  0  0  0  0  0  0  0  0
   11.2054   51.5902  -47.8206 O   0  0  0  0  0  0  0  0  0  0  0  0
   11.4431   50.0580  -47.4678 P   0  0  0  0  0  0  0  0  0  0  0  0
   10.0948   49.5198  -47.3191 O   0  0  0  0  0  0  0  0  0  0  0  0
   12.1408   49.2233  -48.4432 O   0  0  0  0  0  0  0  0  0  0  0  0
   12.1577   49.9735  -46.1773 O   0  0  0  0  0  0  0  0  0  0  0  0
   11.6812   49.2699  -49.2961 H   0  0  0  0  0  0  0  0  0  0  0  0
   11.7042   50.5240  -45.5199 H   0  0  0  0  0  0  0  0  0  0  0  0
  8  9  1  0  0  0
  8 13  1  0  0  0
  8  1  1  0  0  0
  9 10  1  0  0  0
  9 14  2  0  0  0
 10 11  1  0  0  0
 11 12  1  0  0  0
 11 15  2  0  0  0
 12 13  2  0  0  0
  1  2  1  0  0  0
  1  6  1  0  0  0
  2  3  1  0  0  0
  3  4  1  0  0  0
  3  5  1  0  0  0
  4  6  1  0  0  0
  4 17  1  0  0  0
 17 18  1  0  0  0
 18 19  1  0  0  0
 19 20  2  0  0  0
 19 21  1  0  0  0
 19 22  1  0  0  0
 10 16  1  0  0  0
  5  7  1  0  0  0
 21 23  1  0  0  0
 22 24  1  0  0  0
M  END
> <minimizedAffinity>
-7.55440

$$$$
1NJD_UMP_A_317


 24 25  0  0  0  0  0  0  0  0999 V2000
   16.4567   49.0731  -52.2425 C   0  0  0  0  0  0  0  0  0  0  0  0
   17.2731   47.8075  -52.4599 C   0  0  0  0  0  0  0  0  0  0  0  0
   18.3273   48.3150  -53.4313 C   0  0  0  0  0  0  0  0  0  0  0  0
   17.5789   49.1321  -54.4897 C   0  0  0  0  0  0  0  0  0  0  0  0
   19.1881   49.1685  -52.6458 O   0  0  0  0  0  0  0  0  0  0  0  0
   16.4852   49.7166  -53.6136 O   0  0  0  0  0  0  0  0  0  0  0  0
   18.6569   49.8591  -52.2194 H   0  0  0  0  0  0  0  0  0  0  0  0
   15.3010   49.1390  -51.3362 N   0  0  0  0  0  0  0  0  0  0  0  0
   14.1373   48.4198  -51.6429 C   0  0  0  0  0  0  0  0  0  0  0  0
   13.2776   48.1909  -50.6144 N   0  0  0  0  0  0  0  0  0  0  0  0
   13.4534   48.6133  -49.3145 C   0  0  0  0  0  0  0  0  0  0  0  0
   14.6794   49.3915  -49.0834 C   0  0  0  0  0  0  0  0  0  0  0  0
   15.5696   49.6298  -50.1365 C   0  0  0  0  0  0  0  0  0  0  0  0
   13.7829   48.0342  -52.7434 O   0  0  0  0  0  0  0  0  0  0  0  0
   12.6275   48.2733  -48.4671 O   0  0  0  0  0  0  0  0  0  0  0  0
   12.4603   47.6801  -50.8155 H   0  0  0  0  0  0  0  0  0  0  0  0
   16.9307   48.2145  -55.5324 C   0  0  0  0  0  0  0  0  0  0  0  0
   16.0080   48.9241  -56.4315 O   0  0  0  0  0  0  0  0  0  0  0  0
   16.6095   49.8140  -57.6041 P   0  0  0  0  0  0  0  0  0  0  0  0
   17.9241   49.2292  -57.8482 O   0  0  0  0  0  0  0  0  0  0  0  0
   15.9019   49.8452  -58.8821 O   0  0  0  0  0  0  0  0  0  0  0  0
   16.7642   51.2001  -57.1164 O   0  0  0  0  0  0  0  0  0  0  0  0
   15.7935   48.9401  -59.2138 H   0  0  0  0  0  0  0  0  0  0  0  0
   17.2331   51.1936  -56.2673 H   0  0  0  0  0  0  0  0  0  0  0  0
  8  9  1  0  0  0
  8 13  1  0  0  0
  8  1  1  0  0  0
  9 10  1  0  0  0
  9 14  2  0  0  0
 10 11  1  0  0  0
 11 12  1  0  0  0
 11 15  2  0  0  0
 12 13  2  0  0  0
  1  2  1  0  0  0
  1  6  1  0  0  0
  2  3  1  0  0  0
  3  4  1  0  0  0
  3  5  1  0  0  0
  4  6  1  0  0  0
  4 17  1  0  0  0
 17 18  1  0  0  0
 18 19  1  0  0  0
 19 20  2  0  0  0
 19 21  1  0  0  0
 19 22  1  0  0  0
 10 16  1  0  0  0
  5  7  1  0  0  0
 21 23  1  0  0  0
 22 24  1  0  0  0
M  END
> <minimizedAffinity>
-7.51029

$$$$
1NJD_UMP_A_317


 24 25  0  0  0  0  0  0  0  0999 V2000
   14.8264   49.1626  -53.3667 C   0  0  0  0  0  0  0  0  0  0  0  0
   14.4953   48.1286  -52.3005 C   0  0  0  0  0  0  0  0  0  0  0  0
   13.1444   48.6382  -51.8231 C   0  0  0  0  0  0  0  0  0  0  0  0
   13.2974   50.1513  -51.6355 C   0  0  0  0  0  0  0  0  0  0  0  0
   12.2272   48.3503  -52.9012 O   0  0  0  0  0  0  0  0  0  0  0  0
   14.2694   50.4370  -52.7664 O   0  0  0  0  0  0  0  0  0  0  0  0
   12.5528   48.7563  -53.7198 H   0  0  0  0  0  0  0  0  0  0  0  0
   16.0483   49.1134  -54.1829 N   0  0  0  0  0  0  0  0  0  0  0  0
   16.0421   48.4163  -55.3993 C   0  0  0  0  0  0  0  0  0  0  0  0
   17.0293   48.7276  -56.2812 N   0  0  0  0  0  0  0  0  0  0  0  0
   18.0273   49.6546  -56.0718 C   0  0  0  0  0  0  0  0  0  0  0  0
   17.9847   50.3150  -54.7587 C   0  0  0  0  0  0  0  0  0  0  0  0
   16.9710   50.0009  -53.8465 C   0  0  0  0  0  0  0  0  0  0  0  0
   15.2867   47.5168  -55.7245 O   0  0  0  0  0  0  0  0  0  0  0  0
   18.8166   49.8883  -56.9873 O   0  0  0  0  0  0  0  0  0  0  0  0
   17.0312   48.2503  -57.1423 H   0  0  0  0  0  0  0  0  0  0  0  0
   13.9887   50.4709  -50.3054 C   0  0  0  0  0  0  0  0  0  0  0  0
   13.2882   51.5013  -49.5239 O   0  0  0  0  0  0  0  0  0  0  0  0
   12.5209   51.0720  -48.1989 P   0  0  0  0  0  0  0  0  0  0  0  0
   11.8595   49.8240  -48.5662 O   0  0  0  0  0  0  0  0  0  0  0  0
   13.3089   50.8105  -46.9965 O   0  0  0  0  0  0  0  0  0  0  0  0
   11.5063   52.0990  -47.8841 O   0  0  0  0  0  0  0  0  0  0  0  0
   13.9797   50.1370  -47.1897 H   0  0  0  0  0  0  0  0  0  0  0  0
   10.9755   52.2822  -48.6751 H   0  0  0  0  0  0  0  0  0  0  0  0
  8  9  1  0  0  0
  8 13  1  0  0  0
  8  1  1  0  0  0
  9 10  1  0  0  0
  9 14  2  0  0  0
 10 11  1  0  0  0
 11 12  1  0  0  0
 11 15  2  0  0  0
 12 13  2  0  0  0
  1  2  1  0  0  0
  1  6  1  0  0  0
  2  3  1  0  0  0
  3  4  1  0  0  0
  3  5  1  0  0  0
  4  6  1  0  0  0
  4 17  1  0  0  0
 17 18  1  0  0  0
 18 19  1  0  0  0
 19 20  2  0  0  0
 19 21  1  0  0  0
 19 22  1  0  0  0
 10 16  1  0  0  0
  5  7  1  0  0  0
 21 23  1  0  0  0
 22 24  1  0  0  0
M  END
> <minimizedAffinity>
-7.49310

$$$$
1NJD_UMP_A_317


 24 25  0  0  0  0  0  0  0  0999 V2000
   14.6328   48.5160  -51.8183 C   0  0  0  0  0  0  0  0  0  0  0  0
   13.5573   49.0097  -52.7750 C   0  0  0  0  0  0  0  0  0  0  0  0
   13.7277   48.0268  -53.9227 C   0  0  0  0  0  0  0  0  0  0  0  0
   15.2341   47.9307  -54.1865 C   0  0  0  0  0  0  0  0  0  0  0  0
   13.2181   46.7700  -53.4254 O   0  0  0  0  0  0  0  0  0  0  0  0
   15.7385   48.0939  -52.7638 O   0  0  0  0  0  0  0  0  0  0  0  0
   13.6849   46.5322  -52.6090 H   0  0  0  0  0  0  0  0  0  0  0  0
   14.8752   49.1198  -50.5000 N   0  0  0  0  0  0  0  0  0  0  0  0
   14.2309   48.5980  -49.3693 C   0  0  0  0  0  0  0  0  0  0  0  0
   14.7761   48.9101  -48.1632 N   0  0  0  0  0  0  0  0  0  0  0  0
   15.8909   49.6963  -47.9675 C   0  0  0  0  0  0  0  0  0  0  0  0
   16.4858   50.2340  -49.2001 C   0  0  0  0  0  0  0  0  0  0  0  0
   15.9312   49.9160  -50.4449 C   0  0  0  0  0  0  0  0  0  0  0  0
   13.1992   47.9495  -49.3478 O   0  0  0  0  0  0  0  0  0  0  0  0
   16.3184   49.8386  -46.8218 O   0  0  0  0  0  0  0  0  0  0  0  0
   14.3372   48.5433  -47.3619 H   0  0  0  0  0  0  0  0  0  0  0  0
   15.7216   49.1233  -55.0169 C   0  0  0  0  0  0  0  0  0  0  0  0
   15.6677   48.8780  -56.4661 O   0  0  0  0  0  0  0  0  0  0  0  0
   16.5990   49.7375  -57.4265 P   0  0  0  0  0  0  0  0  0  0  0  0
   15.9379   49.6506  -58.7247 O   0  0  0  0  0  0  0  0  0  0  0  0
   16.7833   51.1553  -57.1250 O   0  0  0  0  0  0  0  0  0  0  0  0
   17.9270   49.0941  -57.5003 O   0  0  0  0  0  0  0  0  0  0  0  0
   15.9178   51.5901  -57.0738 H   0  0  0  0  0  0  0  0  0  0  0  0
   17.8188   48.1511  -57.7002 H   0  0  0  0  0  0  0  0  0  0  0  0
  8  9  1  0  0  0
  8 13  1  0  0  0
  8  1  1  0  0  0
  9 10  1  0  0  0
  9 14  2  0  0  0
 10 11  1  0  0  0
 11 12  1  0  0  0
 11 15  2  0  0  0
 12 13  2  0  0  0
  1  2  1  0  0  0
  1  6  1  0  0  0
  2  3  1  0  0  0
  3  4  1  0  0  0
  3  5  1  0  0  0
  4  6  1  0  0  0
  4 17  1  0  0  0
 17 18  1  0  0  0
 18 19  1  0  0  0
 19 20  2  0  0  0
 19 21  1  0  0  0
 19 22  1  0  0  0
 10 16  1  0  0  0
  5  7  1  0  0  0
 21 23  1  0  0  0
 22 24  1  0  0  0
M  END
> <minimizedAffinity>
-7.48116

$$$$
