1ELC_0Z3_A_256


 42 43  0  0  0  0  0  0  0  0999 V2000
   40.3227   20.1969   36.7167 C   0  0  0  0  0  0  0  0  0  0  0  0
   40.3576   19.4767   35.7293 O   0  0  0  0  0  0  0  0  0  0  0  0
   39.4089   20.1605   37.6803 N   0  0  0  0  0  0  0  0  0  0  0  0
   39.2624   20.9979   38.1769 H   0  0  0  0  0  0  0  0  0  0  0  0
   41.1921   21.4321   36.9649 C   0  0  0  0  0  0  0  0  0  0  0  0
   42.9025   21.9960   35.1479 C   0  0  0  0  0  0  0  0  0  0  0  0
   43.7296   22.3311   36.0216 O   0  0  0  0  0  0  0  0  0  0  0  0
   41.6145   21.7912   35.5737 N   0  0  0  0  0  0  0  0  0  0  0  0
   40.9014   21.8894   34.9021 H   0  0  0  0  0  0  0  0  0  0  0  0
   43.2962   21.9626   33.5682 C   0  0  0  0  0  0  0  0  0  0  0  0
   42.4955   21.3048   32.7106 F   0  0  0  0  0  0  0  0  0  0  0  0
   43.3456   23.2264   33.0485 F   0  0  0  0  0  0  0  0  0  0  0  0
   44.5337   21.4482   33.3189 F   0  0  0  0  0  0  0  0  0  0  0  0
   40.2966   22.4154   37.7188 C   0  0  0  0  0  0  0  0  0  0  0  0
   40.2620   23.7434   36.9501 C   0  0  0  0  0  0  0  0  0  0  0  0
   39.1913   24.6810   37.4844 C   0  0  0  0  0  0  0  0  0  0  0  0
   39.6989   25.5479   38.6459 C   0  0  0  0  0  0  0  0  0  0  0  0
   41.0816   25.9558   38.4588 N   0  0  0  0  0  0  0  0  0  0  0  0
   41.6774   25.1289   38.4174 H   0  0  0  0  0  0  0  0  0  0  0  0
   41.3710   26.5447   39.2398 H   0  0  0  0  0  0  0  0  0  0  0  0
   41.1666   26.4800   37.5880 H   0  0  0  0  0  0  0  0  0  0  0  0
   38.6110   19.0343   38.0776 C   0  0  0  0  0  0  0  0  0  0  0  0
   37.1007   19.2844   38.2353 C   0  0  0  0  0  0  0  0  0  0  0  0
   36.5280   20.1614   37.5540 O   0  0  0  0  0  0  0  0  0  0  0  0
   36.5688   18.2934   39.0386 N   0  0  0  0  0  0  0  0  0  0  0  0
   37.1258   17.4921   39.1681 H   0  0  0  0  0  0  0  0  0  0  0  0
   35.3789   18.2976   39.6634 C   0  0  0  0  0  0  0  0  0  0  0  0
   35.3096   18.1583   41.0513 C   0  0  0  0  0  0  0  0  0  0  0  0
   34.0909   17.9125   41.6605 C   0  0  0  0  0  0  0  0  0  0  0  0
   32.9109   17.8091   40.9026 C   0  0  0  0  0  0  0  0  0  0  0  0
   32.9696   17.9657   39.5072 C   0  0  0  0  0  0  0  0  0  0  0  0
   34.1990   18.2102   38.8956 C   0  0  0  0  0  0  0  0  0  0  0  0
   31.5913   17.4816   41.6433 C   0  0  0  0  0  0  0  0  0  0  0  0
   31.6815   16.0163   42.1056 C   0  0  0  0  0  0  0  0  0  0  0  0
   30.3818   17.7724   40.7825 C   0  0  0  0  0  0  0  0  0  0  0  0
   39.3791   18.6758   39.3290 C   0  0  0  0  0  0  0  0  0  0  0  0
   40.1089   17.4007   39.1931 C   0  0  0  0  0  0  0  0  0  0  0  0
   39.4675   16.2680   38.7244 C   0  0  0  0  0  0  0  0  0  0  0  0
   41.4267   17.3700   39.5710 C   0  0  0  0  0  0  0  0  0  0  0  0
   40.1665   15.0783   38.6308 C   0  0  0  0  0  0  0  0  0  0  0  0
   42.1236   16.1796   39.4823 C   0  0  0  0  0  0  0  0  0  0  0  0
   41.5018   15.0488   39.0142 C   0  0  0  0  0  0  0  0  0  0  0  0
  6 10  1  0  0  0
  6  7  2  0  0  0
 10 11  1  0  0  0
 10 12  1  0  0  0
 10 13  1  0  0  0
  8  5  1  0  0  0
  5  1  1  0  0  0
  5 14  1  0  0  0
  1  2  2  0  0  0
 14 15  1  0  0  0
 15 16  1  0  0  0
 16 17  1  0  0  0
 17 18  1  0  0  0
  3 22  1  0  0  0
 22 23  1  0  0  0
 22 36  1  0  0  0
 23 24  2  0  0  0
 36 37  1  0  0  0
 37 38  2  0  0  0
 37 39  1  0  0  0
 38 40  1  0  0  0
 39 41  2  0  0  0
 40 42  2  0  0  0
 41 42  1  0  0  0
 27 25  1  0  0  0
 27 28  2  0  0  0
 27 32  1  0  0  0
 28 29  1  0  0  0
 29 30  2  0  0  0
 30 31  1  0  0  0
 30 33  1  0  0  0
 31 32  2  0  0  0
 33 34  1  0  0  0
 33 35  1  0  0  0
  6  8  1  0  0  0
  1  3  1  0  0  0
 23 25  1  0  0  0
  8  9  1  0  0  0
 18 19  1  0  0  0
 18 20  1  0  0  0
 18 21  1  0  0  0
  3  4  1  0  0  0
 25 26  1  0  0  0
M  CHG 1  18   1
M  END
> <minimizedAffinity>
-8.03678

$$$$
1ELC_0Z3_A_256


 42 43  0  0  0  0  0  0  0  0999 V2000
   39.2134   21.3426   37.4816 C   0  0  0  0  0  0  0  0  0  0  0  0
   38.5340   21.7865   38.3959 O   0  0  0  0  0  0  0  0  0  0  0  0
   39.4999   20.0628   37.2690 N   0  0  0  0  0  0  0  0  0  0  0  0
   40.3314   19.8762   36.7762 H   0  0  0  0  0  0  0  0  0  0  0  0
   40.0555   22.1630   36.5012 C   0  0  0  0  0  0  0  0  0  0  0  0
   39.7491   24.4883   37.5228 C   0  0  0  0  0  0  0  0  0  0  0  0
   38.9486   24.7895   36.6128 O   0  0  0  0  0  0  0  0  0  0  0  0
   40.4610   23.3283   37.3498 N   0  0  0  0  0  0  0  0  0  0  0  0
   41.3183   23.2552   37.8282 H   0  0  0  0  0  0  0  0  0  0  0  0
   40.0483   25.4978   38.7650 C   0  0  0  0  0  0  0  0  0  0  0  0
   40.0589   25.0058   40.0168 F   0  0  0  0  0  0  0  0  0  0  0  0
   41.2819   26.0746   38.6417 F   0  0  0  0  0  0  0  0  0  0  0  0
   39.1893   26.5537   38.8369 F   0  0  0  0  0  0  0  0  0  0  0  0
   41.1514   21.2150   36.0137 C   0  0  0  0  0  0  0  0  0  0  0  0
   42.3296   22.0476   35.4900 C   0  0  0  0  0  0  0  0  0  0  0  0
   43.5136   21.1759   35.1038 C   0  0  0  0  0  0  0  0  0  0  0  0
   44.8590   21.8235   35.4625 C   0  0  0  0  0  0  0  0  0  0  0  0
   45.1180   23.0168   34.6736 N   0  0  0  0  0  0  0  0  0  0  0  0
   45.1572   22.7689   33.6850 H   0  0  0  0  0  0  0  0  0  0  0  0
   46.0085   23.4253   34.9573 H   0  0  0  0  0  0  0  0  0  0  0  0
   44.3699   23.6935   34.8250 H   0  0  0  0  0  0  0  0  0  0  0  0
   38.7303   18.9216   37.6789 C   0  0  0  0  0  0  0  0  0  0  0  0
   37.1995   19.0768   37.6426 C   0  0  0  0  0  0  0  0  0  0  0  0
   36.6479   19.7141   36.7202 O   0  0  0  0  0  0  0  0  0  0  0  0
   36.6487   18.2675   38.6183 N   0  0  0  0  0  0  0  0  0  0  0  0
   37.2363   17.5695   38.9880 H   0  0  0  0  0  0  0  0  0  0  0  0
   35.4034   18.3236   39.1205 C   0  0  0  0  0  0  0  0  0  0  0  0
   35.1953   18.6817   40.4542 C   0  0  0  0  0  0  0  0  0  0  0  0
   33.9509   18.4974   41.0325 C   0  0  0  0  0  0  0  0  0  0  0  0
   32.8818   17.9609   40.2932 C   0  0  0  0  0  0  0  0  0  0  0  0
   33.0783   17.6145   38.9455 C   0  0  0  0  0  0  0  0  0  0  0  0
   34.3336   17.7983   38.3661 C   0  0  0  0  0  0  0  0  0  0  0  0
   31.5321   17.7337   41.0173 C   0  0  0  0  0  0  0  0  0  0  0  0
   31.7141   16.5207   41.9471 C   0  0  0  0  0  0  0  0  0  0  0  0
   30.3918   17.5791   40.0353 C   0  0  0  0  0  0  0  0  0  0  0  0
   39.3659   18.7281   39.0365 C   0  0  0  0  0  0  0  0  0  0  0  0
   40.1174   17.4617   39.1285 C   0  0  0  0  0  0  0  0  0  0  0  0
   39.5002   16.2544   38.8540 C   0  0  0  0  0  0  0  0  0  0  0  0
   41.4304   17.5196   39.5198 C   0  0  0  0  0  0  0  0  0  0  0  0
   40.2190   15.0788   38.9727 C   0  0  0  0  0  0  0  0  0  0  0  0
   42.1471   16.3441   39.6434 C   0  0  0  0  0  0  0  0  0  0  0  0
   41.5494   15.1390   39.3694 C   0  0  0  0  0  0  0  0  0  0  0  0
  6 10  1  0  0  0
  6  7  2  0  0  0
 10 11  1  0  0  0
 10 12  1  0  0  0
 10 13  1  0  0  0
  8  5  1  0  0  0
  5  1  1  0  0  0
  5 14  1  0  0  0
  1  2  2  0  0  0
 14 15  1  0  0  0
 15 16  1  0  0  0
 16 17  1  0  0  0
 17 18  1  0  0  0
  3 22  1  0  0  0
 22 23  1  0  0  0
 22 36  1  0  0  0
 23 24  2  0  0  0
 36 37  1  0  0  0
 37 38  2  0  0  0
 37 39  1  0  0  0
 38 40  1  0  0  0
 39 41  2  0  0  0
 40 42  2  0  0  0
 41 42  1  0  0  0
 27 25  1  0  0  0
 27 28  2  0  0  0
 27 32  1  0  0  0
 28 29  1  0  0  0
 29 30  2  0  0  0
 30 31  1  0  0  0
 30 33  1  0  0  0
 31 32  2  0  0  0
 33 34  1  0  0  0
 33 35  1  0  0  0
  6  8  1  0  0  0
  1  3  1  0  0  0
 23 25  1  0  0  0
  8  9  1  0  0  0
 18 19  1  0  0  0
 18 20  1  0  0  0
 18 21  1  0  0  0
  3  4  1  0  0  0
 25 26  1  0  0  0
M  CHG 1  18   1
M  END
> <minimizedAffinity>
-8.01826

$$$$
1ELC_0Z3_A_256


 42 43  0  0  0  0  0  0  0  0999 V2000
   42.5542   22.5009   35.5650 C   0  0  0  0  0  0  0  0  0  0  0  0
   43.1494   23.5677   35.6168 O   0  0  0  0  0  0  0  0  0  0  0  0
   42.7021   21.5665   34.6323 N   0  0  0  0  0  0  0  0  0  0  0  0
   41.9303   20.9748   34.4790 H   0  0  0  0  0  0  0  0  0  0  0  0
   41.3633   22.0879   36.4335 C   0  0  0  0  0  0  0  0  0  0  0  0
   40.0105   23.6702   37.9205 C   0  0  0  0  0  0  0  0  0  0  0  0
   39.3699   22.7014   38.3794 O   0  0  0  0  0  0  0  0  0  0  0  0
   40.7966   23.4178   36.8249 N   0  0  0  0  0  0  0  0  0  0  0  0
   41.0080   24.1821   36.2415 H   0  0  0  0  0  0  0  0  0  0  0  0
   39.7985   25.1806   38.4909 C   0  0  0  0  0  0  0  0  0  0  0  0
   39.4002   25.3464   39.7649 F   0  0  0  0  0  0  0  0  0  0  0  0
   40.9619   25.8962   38.4278 F   0  0  0  0  0  0  0  0  0  0  0  0
   38.9087   25.9219   37.7720 F   0  0  0  0  0  0  0  0  0  0  0  0
   40.5110   21.1774   35.5494 C   0  0  0  0  0  0  0  0  0  0  0  0
   40.0082   19.9977   36.3926 C   0  0  0  0  0  0  0  0  0  0  0  0
   41.1483   19.1082   36.8615 C   0  0  0  0  0  0  0  0  0  0  0  0
   41.1972   18.9765   38.3907 C   0  0  0  0  0  0  0  0  0  0  0  0
   40.2889   19.9021   39.0476 N   0  0  0  0  0  0  0  0  0  0  0  0
   40.5555   20.8598   38.8191 H   0  0  0  0  0  0  0  0  0  0  0  0
   40.3377   19.7673   40.0575 H   0  0  0  0  0  0  0  0  0  0  0  0
   39.3362   19.7287   38.7270 H   0  0  0  0  0  0  0  0  0  0  0  0
   43.8635   21.3243   33.8229 C   0  0  0  0  0  0  0  0  0  0  0  0
   43.8286   21.8799   32.3881 C   0  0  0  0  0  0  0  0  0  0  0  0
   43.6370   21.1175   31.4168 O   0  0  0  0  0  0  0  0  0  0  0  0
   43.8384   23.2607   32.4471 N   0  0  0  0  0  0  0  0  0  0  0  0
   43.6182   23.6609   33.3192 H   0  0  0  0  0  0  0  0  0  0  0  0
   44.1138   24.1201   31.4512 C   0  0  0  0  0  0  0  0  0  0  0  0
   43.1471   24.4185   30.4885 C   0  0  0  0  0  0  0  0  0  0  0  0
   43.5063   25.0982   29.3370 C   0  0  0  0  0  0  0  0  0  0  0  0
   44.8350   25.5050   29.1216 C   0  0  0  0  0  0  0  0  0  0  0  0
   45.8103   25.2240   30.0937 C   0  0  0  0  0  0  0  0  0  0  0  0
   45.4465   24.5366   31.2514 C   0  0  0  0  0  0  0  0  0  0  0  0
   45.1765   26.2150   27.7886 C   0  0  0  0  0  0  0  0  0  0  0  0
   43.8573   26.7620   27.2145 C   0  0  0  0  0  0  0  0  0  0  0  0
   45.9152   25.2961   26.8409 C   0  0  0  0  0  0  0  0  0  0  0  0
   43.9028   19.8209   33.9732 C   0  0  0  0  0  0  0  0  0  0  0  0
   45.2706   19.3153   34.1982 C   0  0  0  0  0  0  0  0  0  0  0  0
   46.2311   20.1187   34.7865 C   0  0  0  0  0  0  0  0  0  0  0  0
   45.5626   18.0419   33.7817 C   0  0  0  0  0  0  0  0  0  0  0  0
   47.5131   19.6307   34.9628 C   0  0  0  0  0  0  0  0  0  0  0  0
   46.8453   17.5564   33.9533 C   0  0  0  0  0  0  0  0  0  0  0  0
   47.8075   18.3401   34.5402 C   0  0  0  0  0  0  0  0  0  0  0  0
  6 10  1  0  0  0
  6  7  2  0  0  0
 10 11  1  0  0  0
 10 12  1  0  0  0
 10 13  1  0  0  0
  8  5  1  0  0  0
  5  1  1  0  0  0
  5 14  1  0  0  0
  1  2  2  0  0  0
 14 15  1  0  0  0
 15 16  1  0  0  0
 16 17  1  0  0  0
 17 18  1  0  0  0
  3 22  1  0  0  0
 22 23  1  0  0  0
 22 36  1  0  0  0
 23 24  2  0  0  0
 36 37  1  0  0  0
 37 38  2  0  0  0
 37 39  1  0  0  0
 38 40  1  0  0  0
 39 41  2  0  0  0
 40 42  2  0  0  0
 41 42  1  0  0  0
 27 25  1  0  0  0
 27 28  2  0  0  0
 27 32  1  0  0  0
 28 29  1  0  0  0
 29 30  2  0  0  0
 30 31  1  0  0  0
 30 33  1  0  0  0
 31 32  2  0  0  0
 33 34  1  0  0  0
 33 35  1  0  0  0
  6  8  1  0  0  0
  1  3  1  0  0  0
 23 25  1  0  0  0
  8  9  1  0  0  0
 18 19  1  0  0  0
 18 20  1  0  0  0
 18 21  1  0  0  0
  3  4  1  0  0  0
 25 26  1  0  0  0
M  CHG 1  18   1
M  END
> <minimizedAffinity>
-7.94709

$$$$
1ELC_0Z3_A_256


 42 43  0  0  0  0  0  0  0  0999 V2000
   39.1447   19.6899   35.7753 C   0  0  0  0  0  0  0  0  0  0  0  0
   38.4709   19.1460   34.9122 O   0  0  0  0  0  0  0  0  0  0  0  0
   38.8991   19.6821   37.0809 N   0  0  0  0  0  0  0  0  0  0  0  0
   39.2547   20.4407   37.5979 H   0  0  0  0  0  0  0  0  0  0  0  0
   40.2965   20.6699   35.5380 C   0  0  0  0  0  0  0  0  0  0  0  0
   40.2518   22.6290   37.1826 C   0  0  0  0  0  0  0  0  0  0  0  0
   40.9397   21.9730   37.9926 O   0  0  0  0  0  0  0  0  0  0  0  0
   39.7419   21.9362   36.1139 N   0  0  0  0  0  0  0  0  0  0  0  0
   38.9362   22.3059   35.6856 H   0  0  0  0  0  0  0  0  0  0  0  0
   39.8492   24.1812   37.4659 C   0  0  0  0  0  0  0  0  0  0  0  0
   40.8075   25.1236   37.4112 F   0  0  0  0  0  0  0  0  0  0  0  0
   38.9223   24.6201   36.5616 F   0  0  0  0  0  0  0  0  0  0  0  0
   39.2594   24.3857   38.6777 F   0  0  0  0  0  0  0  0  0  0  0  0
   41.5117   20.0431   36.2218 C   0  0  0  0  0  0  0  0  0  0  0  0
   41.9986   18.8577   35.3773 C   0  0  0  0  0  0  0  0  0  0  0  0
   42.5566   17.7372   36.2400 C   0  0  0  0  0  0  0  0  0  0  0  0
   44.0684   17.5479   36.0478 C   0  0  0  0  0  0  0  0  0  0  0  0
   44.5944   16.4772   36.8787 N   0  0  0  0  0  0  0  0  0  0  0  0
   44.4418   16.7034   37.8615 H   0  0  0  0  0  0  0  0  0  0  0  0
   45.5940   16.3721   36.7053 H   0  0  0  0  0  0  0  0  0  0  0  0
   44.1164   15.6050   36.6523 H   0  0  0  0  0  0  0  0  0  0  0  0
   38.1720   18.6892   37.8212 C   0  0  0  0  0  0  0  0  0  0  0  0
   36.6692   18.9498   38.0268 C   0  0  0  0  0  0  0  0  0  0  0  0
   36.0657   19.7797   37.3139 O   0  0  0  0  0  0  0  0  0  0  0  0
   36.1749   18.0148   38.9165 N   0  0  0  0  0  0  0  0  0  0  0  0
   36.7389   17.2236   39.0749 H   0  0  0  0  0  0  0  0  0  0  0  0
   35.0130   18.0610   39.5903 C   0  0  0  0  0  0  0  0  0  0  0  0
   35.0077   18.1239   40.9854 C   0  0  0  0  0  0  0  0  0  0  0  0
   33.8283   17.9196   41.6813 C   0  0  0  0  0  0  0  0  0  0  0  0
   32.6244   17.6574   41.0035 C   0  0  0  0  0  0  0  0  0  0  0  0
   32.6179   17.6101   39.5990 C   0  0  0  0  0  0  0  0  0  0  0  0
   33.8079   17.8131   38.9004 C   0  0  0  0  0  0  0  0  0  0  0  0
   31.3537   17.3875   41.8461 C   0  0  0  0  0  0  0  0  0  0  0  0
   31.4298   15.9276   42.3278 C   0  0  0  0  0  0  0  0  0  0  0  0
   30.0936   17.7054   41.0719 C   0  0  0  0  0  0  0  0  0  0  0  0
   39.0408   18.6851   39.0580 C   0  0  0  0  0  0  0  0  0  0  0  0
   39.9078   17.4934   39.1304 C   0  0  0  0  0  0  0  0  0  0  0  0
   39.4186   16.2443   38.7919 C   0  0  0  0  0  0  0  0  0  0  0  0
   41.1965   17.6608   39.5683 C   0  0  0  0  0  0  0  0  0  0  0  0
   40.2436   15.1389   38.8931 C   0  0  0  0  0  0  0  0  0  0  0  0
   42.0190   16.5550   39.6743 C   0  0  0  0  0  0  0  0  0  0  0  0
   41.5491   15.3100   39.3370 C   0  0  0  0  0  0  0  0  0  0  0  0
  6 10  1  0  0  0
  6  7  2  0  0  0
 10 11  1  0  0  0
 10 12  1  0  0  0
 10 13  1  0  0  0
  8  5  1  0  0  0
  5  1  1  0  0  0
  5 14  1  0  0  0
  1  2  2  0  0  0
 14 15  1  0  0  0
 15 16  1  0  0  0
 16 17  1  0  0  0
 17 18  1  0  0  0
  3 22  1  0  0  0
 22 23  1  0  0  0
 22 36  1  0  0  0
 23 24  2  0  0  0
 36 37  1  0  0  0
 37 38  2  0  0  0
 37 39  1  0  0  0
 38 40  1  0  0  0
 39 41  2  0  0  0
 40 42  2  0  0  0
 41 42  1  0  0  0
 27 25  1  0  0  0
 27 28  2  0  0  0
 27 32  1  0  0  0
 28 29  1  0  0  0
 29 30  2  0  0  0
 30 31  1  0  0  0
 30 33  1  0  0  0
 31 32  2  0  0  0
 33 34  1  0  0  0
 33 35  1  0  0  0
  6  8  1  0  0  0
  1  3  1  0  0  0
 23 25  1  0  0  0
  8  9  1  0  0  0
 18 19  1  0  0  0
 18 20  1  0  0  0
 18 21  1  0  0  0
  3  4  1  0  0  0
 25 26  1  0  0  0
M  CHG 1  18   1
M  END
> <minimizedAffinity>
-7.77696

$$$$
1ELC_0Z3_A_256


 42 43  0  0  0  0  0  0  0  0999 V2000
   39.0420   19.5582   35.7812 C   0  0  0  0  0  0  0  0  0  0  0  0
   38.3244   19.0255   34.9469 O   0  0  0  0  0  0  0  0  0  0  0  0
   38.8743   19.5181   37.0984 N   0  0  0  0  0  0  0  0  0  0  0  0
   39.2514   20.2693   37.6110 H   0  0  0  0  0  0  0  0  0  0  0  0
   40.1668   20.5576   35.4991 C   0  0  0  0  0  0  0  0  0  0  0  0
   40.2696   22.5673   37.0788 C   0  0  0  0  0  0  0  0  0  0  0  0
   41.1331   21.9876   37.7702 O   0  0  0  0  0  0  0  0  0  0  0  0
   39.6321   21.8043   36.1335 N   0  0  0  0  0  0  0  0  0  0  0  0
   38.7398   22.1044   35.8452 H   0  0  0  0  0  0  0  0  0  0  0  0
   39.8128   24.0986   37.3917 C   0  0  0  0  0  0  0  0  0  0  0  0
   40.7361   25.0759   37.3489 F   0  0  0  0  0  0  0  0  0  0  0  0
   38.8656   24.5195   36.4999 F   0  0  0  0  0  0  0  0  0  0  0  0
   39.2229   24.2603   38.6098 F   0  0  0  0  0  0  0  0  0  0  0  0
   41.4267   19.9319   36.0978 C   0  0  0  0  0  0  0  0  0  0  0  0
   42.4531   19.7162   34.9773 C   0  0  0  0  0  0  0  0  0  0  0  0
   42.8855   21.0284   34.3431 C   0  0  0  0  0  0  0  0  0  0  0  0
   43.8775   21.8044   35.2217 C   0  0  0  0  0  0  0  0  0  0  0  0
   43.3324   23.0759   35.6682 N   0  0  0  0  0  0  0  0  0  0  0  0
   43.1262   23.6607   34.8582 H   0  0  0  0  0  0  0  0  0  0  0  0
   44.0133   23.5475   36.2635 H   0  0  0  0  0  0  0  0  0  0  0  0
   42.4752   22.9118   36.1961 H   0  0  0  0  0  0  0  0  0  0  0  0
   38.2033   18.4999   37.8572 C   0  0  0  0  0  0  0  0  0  0  0  0
   36.6920   18.6906   38.0764 C   0  0  0  0  0  0  0  0  0  0  0  0
   36.0838   19.6304   37.5212 O   0  0  0  0  0  0  0  0  0  0  0  0
   36.2017   17.5950   38.7616 N   0  0  0  0  0  0  0  0  0  0  0  0
   36.7794   16.7980   38.7790 H   0  0  0  0  0  0  0  0  0  0  0  0
   35.0273   17.4922   39.4069 C   0  0  0  0  0  0  0  0  0  0  0  0
   33.8847   17.0614   38.7293 C   0  0  0  0  0  0  0  0  0  0  0  0
   32.6399   17.1946   39.3207 C   0  0  0  0  0  0  0  0  0  0  0  0
   32.5049   17.7512   40.6050 C   0  0  0  0  0  0  0  0  0  0  0  0
   33.6517   18.1709   41.3007 C   0  0  0  0  0  0  0  0  0  0  0  0
   34.9041   18.0384   40.7014 C   0  0  0  0  0  0  0  0  0  0  0  0
   31.0788   17.9178   41.1846 C   0  0  0  0  0  0  0  0  0  0  0  0
   30.8506   16.7577   42.1700 C   0  0  0  0  0  0  0  0  0  0  0  0
   30.0379   17.9969   40.0898 C   0  0  0  0  0  0  0  0  0  0  0  0
   39.0840   18.5511   39.0844 C   0  0  0  0  0  0  0  0  0  0  0  0
   39.9849   17.3863   39.1773 C   0  0  0  0  0  0  0  0  0  0  0  0
   41.3033   17.5442   39.5659 C   0  0  0  0  0  0  0  0  0  0  0  0
   39.4824   16.1556   38.8407 C   0  0  0  0  0  0  0  0  0  0  0  0
   42.1348   16.4404   39.6200 C   0  0  0  0  0  0  0  0  0  0  0  0
   40.3151   15.0535   38.8898 C   0  0  0  0  0  0  0  0  0  0  0  0
   41.6242   15.1940   39.2786 C   0  0  0  0  0  0  0  0  0  0  0  0
  6 10  1  0  0  0
  6  7  2  0  0  0
 10 11  1  0  0  0
 10 12  1  0  0  0
 10 13  1  0  0  0
  8  5  1  0  0  0
  5  1  1  0  0  0
  5 14  1  0  0  0
  1  2  2  0  0  0
 14 15  1  0  0  0
 15 16  1  0  0  0
 16 17  1  0  0  0
 17 18  1  0  0  0
  3 22  1  0  0  0
 22 23  1  0  0  0
 22 36  1  0  0  0
 23 24  2  0  0  0
 36 37  1  0  0  0
 37 38  2  0  0  0
 37 39  1  0  0  0
 38 40  1  0  0  0
 39 41  2  0  0  0
 40 42  2  0  0  0
 41 42  1  0  0  0
 27 25  1  0  0  0
 27 28  2  0  0  0
 27 32  1  0  0  0
 28 29  1  0  0  0
 29 30  2  0  0  0
 30 31  1  0  0  0
 30 33  1  0  0  0
 31 32  2  0  0  0
 33 34  1  0  0  0
 33 35  1  0  0  0
  6  8  1  0  0  0
  1  3  1  0  0  0
 23 25  1  0  0  0
  8  9  1  0  0  0
 18 19  1  0  0  0
 18 20  1  0  0  0
 18 21  1  0  0  0
  3  4  1  0  0  0
 25 26  1  0  0  0
M  CHG 1  18   1
M  END
> <minimizedAffinity>
-7.54959

$$$$
1ELC_0Z3_A_256


 42 43  0  0  0  0  0  0  0  0999 V2000
   41.4488   20.7249   35.7960 C   0  0  0  0  0  0  0  0  0  0  0  0
   40.9949   20.7289   34.6608 O   0  0  0  0  0  0  0  0  0  0  0  0
   42.7337   20.6500   36.1251 N   0  0  0  0  0  0  0  0  0  0  0  0
   42.9377   20.2694   37.0099 H   0  0  0  0  0  0  0  0  0  0  0  0
   40.6424   20.5954   37.0907 C   0  0  0  0  0  0  0  0  0  0  0  0
   40.8490   18.6367   38.7235 C   0  0  0  0  0  0  0  0  0  0  0  0
   39.8344   19.0316   39.3353 O   0  0  0  0  0  0  0  0  0  0  0  0
   41.3795   19.5015   37.7999 N   0  0  0  0  0  0  0  0  0  0  0  0
   42.3336   19.3928   37.5831 H   0  0  0  0  0  0  0  0  0  0  0  0
   41.5936   17.2427   39.1159 C   0  0  0  0  0  0  0  0  0  0  0  0
   42.1084   17.1039   40.3508 F   0  0  0  0  0  0  0  0  0  0  0  0
   40.7367   16.1825   39.0096 F   0  0  0  0  0  0  0  0  0  0  0  0
   42.6307   16.9204   38.2920 F   0  0  0  0  0  0  0  0  0  0  0  0
   40.6519   21.9898   37.7174 C   0  0  0  0  0  0  0  0  0  0  0  0
   39.4488   22.7802   37.1852 C   0  0  0  0  0  0  0  0  0  0  0  0
   39.6986   24.2795   37.2098 C   0  0  0  0  0  0  0  0  0  0  0  0
   39.6392   24.8596   38.6305 C   0  0  0  0  0  0  0  0  0  0  0  0
   40.0287   26.2598   38.6650 N   0  0  0  0  0  0  0  0  0  0  0  0
   40.9916   26.3530   38.3417 H   0  0  0  0  0  0  0  0  0  0  0  0
   39.9555   26.6096   39.6203 H   0  0  0  0  0  0  0  0  0  0  0  0
   39.4123   26.7993   38.0572 H   0  0  0  0  0  0  0  0  0  0  0  0
   43.8581   21.0629   35.3326 C   0  0  0  0  0  0  0  0  0  0  0  0
   43.7340   22.4215   34.6204 C   0  0  0  0  0  0  0  0  0  0  0  0
   43.5465   23.4678   35.2773 O   0  0  0  0  0  0  0  0  0  0  0  0
   44.0559   22.2539   33.2868 N   0  0  0  0  0  0  0  0  0  0  0  0
   44.5319   21.4240   33.0547 H   0  0  0  0  0  0  0  0  0  0  0  0
   43.7940   23.0931   32.2703 C   0  0  0  0  0  0  0  0  0  0  0  0
   42.8529   22.7511   31.2968 C   0  0  0  0  0  0  0  0  0  0  0  0
   42.7669   23.4908   30.1295 C   0  0  0  0  0  0  0  0  0  0  0  0
   43.6098   24.5945   29.9087 C   0  0  0  0  0  0  0  0  0  0  0  0
   44.5474   24.9559   30.8912 C   0  0  0  0  0  0  0  0  0  0  0  0
   44.6341   24.2073   32.0648 C   0  0  0  0  0  0  0  0  0  0  0  0
   43.4949   25.3451   28.5593 C   0  0  0  0  0  0  0  0  0  0  0  0
   42.6717   24.4536   27.6123 C   0  0  0  0  0  0  0  0  0  0  0  0
   44.8546   25.7181   28.0113 C   0  0  0  0  0  0  0  0  0  0  0  0
   43.9459   19.8360   34.4544 C   0  0  0  0  0  0  0  0  0  0  0  0
   45.2681   19.1855   34.5303 C   0  0  0  0  0  0  0  0  0  0  0  0
   46.4240   19.9433   34.5896 C   0  0  0  0  0  0  0  0  0  0  0  0
   45.3130   17.8151   34.5116 C   0  0  0  0  0  0  0  0  0  0  0  0
   47.6527   19.3100   34.6338 C   0  0  0  0  0  0  0  0  0  0  0  0
   46.5415   17.1825   34.5504 C   0  0  0  0  0  0  0  0  0  0  0  0
   47.6967   17.9213   34.6147 C   0  0  0  0  0  0  0  0  0  0  0  0
  6 10  1  0  0  0
  6  7  2  0  0  0
 10 11  1  0  0  0
 10 12  1  0  0  0
 10 13  1  0  0  0
  8  5  1  0  0  0
  5  1  1  0  0  0
  5 14  1  0  0  0
  1  2  2  0  0  0
 14 15  1  0  0  0
 15 16  1  0  0  0
 16 17  1  0  0  0
 17 18  1  0  0  0
  3 22  1  0  0  0
 22 23  1  0  0  0
 22 36  1  0  0  0
 23 24  2  0  0  0
 36 37  1  0  0  0
 37 38  2  0  0  0
 37 39  1  0  0  0
 38 40  1  0  0  0
 39 41  2  0  0  0
 40 42  2  0  0  0
 41 42  1  0  0  0
 27 25  1  0  0  0
 27 28  2  0  0  0
 27 32  1  0  0  0
 28 29  1  0  0  0
 29 30  2  0  0  0
 30 31  1  0  0  0
 30 33  1  0  0  0
 31 32  2  0  0  0
 33 34  1  0  0  0
 33 35  1  0  0  0
  6  8  1  0  0  0
  1  3  1  0  0  0
 23 25  1  0  0  0
  8  9  1  0  0  0
 18 19  1  0  0  0
 18 20  1  0  0  0
 18 21  1  0  0  0
  3  4  1  0  0  0
 25 26  1  0  0  0
M  CHG 1  18   1
M  END
> <minimizedAffinity>
-7.31296

$$$$
1ELC_0Z3_A_256


 42 43  0  0  0  0  0  0  0  0999 V2000
   46.0933   20.8729   33.3839 C   0  0  0  0  0  0  0  0  0  0  0  0
   46.5792   21.0660   34.4891 O   0  0  0  0  0  0  0  0  0  0  0  0
   44.9243   21.3326   32.9514 N   0  0  0  0  0  0  0  0  0  0  0  0
   44.4837   20.8107   32.2423 H   0  0  0  0  0  0  0  0  0  0  0  0
   46.6136   19.8956   32.3267 C   0  0  0  0  0  0  0  0  0  0  0  0
   46.6358   20.6124   29.8710 C   0  0  0  0  0  0  0  0  0  0  0  0
   46.4752   19.4257   29.5166 O   0  0  0  0  0  0  0  0  0  0  0  0
   46.9387   20.8186   31.1931 N   0  0  0  0  0  0  0  0  0  0  0  0
   47.4140   21.6511   31.4175 H   0  0  0  0  0  0  0  0  0  0  0  0
   46.6448   21.8316   28.7916 C   0  0  0  0  0  0  0  0  0  0  0  0
   46.9419   21.5632   27.5075 F   0  0  0  0  0  0  0  0  0  0  0  0
   45.4163   22.4268   28.7140 F   0  0  0  0  0  0  0  0  0  0  0  0
   47.4914   22.8495   29.1163 F   0  0  0  0  0  0  0  0  0  0  0  0
   47.7671   19.1480   32.9960 C   0  0  0  0  0  0  0  0  0  0  0  0
   47.5315   17.6387   32.8474 C   0  0  0  0  0  0  0  0  0  0  0  0
   47.4244   16.9453   34.1960 C   0  0  0  0  0  0  0  0  0  0  0  0
   45.9914   16.9562   34.7477 C   0  0  0  0  0  0  0  0  0  0  0  0
   45.7292   18.1311   35.5628 N   0  0  0  0  0  0  0  0  0  0  0  0
   46.3604   18.1368   36.3640 H   0  0  0  0  0  0  0  0  0  0  0  0
   44.7636   18.1088   35.8908 H   0  0  0  0  0  0  0  0  0  0  0  0
   45.8796   18.9720   35.0055 H   0  0  0  0  0  0  0  0  0  0  0  0
   44.2325   22.5069   33.4041 C   0  0  0  0  0  0  0  0  0  0  0  0
   43.4445   22.3752   34.7196 C   0  0  0  0  0  0  0  0  0  0  0  0
   43.4753   23.2884   35.5720 O   0  0  0  0  0  0  0  0  0  0  0  0
   42.6346   21.2581   34.6412 N   0  0  0  0  0  0  0  0  0  0  0  0
   42.4889   20.8881   33.7406 H   0  0  0  0  0  0  0  0  0  0  0  0
   42.0228   20.6187   35.6526 C   0  0  0  0  0  0  0  0  0  0  0  0
   41.2814   21.3345   36.5951 C   0  0  0  0  0  0  0  0  0  0  0  0
   40.8669   20.7157   37.7622 C   0  0  0  0  0  0  0  0  0  0  0  0
   41.1728   19.3664   38.0137 C   0  0  0  0  0  0  0  0  0  0  0  0
   41.9033   18.6341   37.0622 C   0  0  0  0  0  0  0  0  0  0  0  0
   42.3223   19.2607   35.8888 C   0  0  0  0  0  0  0  0  0  0  0  0
   40.7227   18.7526   39.3621 C   0  0  0  0  0  0  0  0  0  0  0  0
   41.4675   17.4154   39.5236 C   0  0  0  0  0  0  0  0  0  0  0  0
   39.2177   18.6215   39.4400 C   0  0  0  0  0  0  0  0  0  0  0  0
   43.4300   22.7632   32.1492 C   0  0  0  0  0  0  0  0  0  0  0  0
   44.0350   23.8075   31.3003 C   0  0  0  0  0  0  0  0  0  0  0  0
   45.3107   24.2754   31.5600 C   0  0  0  0  0  0  0  0  0  0  0  0
   43.2845   24.3142   30.2705 C   0  0  0  0  0  0  0  0  0  0  0  0
   45.8456   25.2732   30.7656 C   0  0  0  0  0  0  0  0  0  0  0  0
   43.8174   25.3151   29.4800 C   0  0  0  0  0  0  0  0  0  0  0  0
   45.0840   25.7858   29.7225 C   0  0  0  0  0  0  0  0  0  0  0  0
  6 10  1  0  0  0
  6  7  2  0  0  0
 10 11  1  0  0  0
 10 12  1  0  0  0
 10 13  1  0  0  0
  8  5  1  0  0  0
  5  1  1  0  0  0
  5 14  1  0  0  0
  1  2  2  0  0  0
 14 15  1  0  0  0
 15 16  1  0  0  0
 16 17  1  0  0  0
 17 18  1  0  0  0
  3 22  1  0  0  0
 22 23  1  0  0  0
 22 36  1  0  0  0
 23 24  2  0  0  0
 36 37  1  0  0  0
 37 38  2  0  0  0
 37 39  1  0  0  0
 38 40  1  0  0  0
 39 41  2  0  0  0
 40 42  2  0  0  0
 41 42  1  0  0  0
 27 25  1  0  0  0
 27 28  2  0  0  0
 27 32  1  0  0  0
 28 29  1  0  0  0
 29 30  2  0  0  0
 30 31  1  0  0  0
 30 33  1  0  0  0
 31 32  2  0  0  0
 33 34  1  0  0  0
 33 35  1  0  0  0
  6  8  1  0  0  0
  1  3  1  0  0  0
 23 25  1  0  0  0
  8  9  1  0  0  0
 18 19  1  0  0  0
 18 20  1  0  0  0
 18 21  1  0  0  0
  3  4  1  0  0  0
 25 26  1  0  0  0
M  CHG 1  18   1
M  END
> <minimizedAffinity>
-7.24416

$$$$
1ELC_0Z3_A_256


 42 43  0  0  0  0  0  0  0  0999 V2000
   40.7239   19.8808   37.0098 C   0  0  0  0  0  0  0  0  0  0  0  0
   41.0159   19.9036   38.1969 O   0  0  0  0  0  0  0  0  0  0  0  0
   41.5703   19.7211   35.9984 N   0  0  0  0  0  0  0  0  0  0  0  0
   41.2957   20.1022   35.1332 H   0  0  0  0  0  0  0  0  0  0  0  0
   39.3621   20.2361   36.4077 C   0  0  0  0  0  0  0  0  0  0  0  0
   38.8589   22.6057   37.2302 C   0  0  0  0  0  0  0  0  0  0  0  0
   37.8690   22.1826   37.8631 O   0  0  0  0  0  0  0  0  0  0  0  0
   39.4374   21.7305   36.3461 N   0  0  0  0  0  0  0  0  0  0  0  0
   39.9497   22.1213   35.6018 H   0  0  0  0  0  0  0  0  0  0  0  0
   39.3352   24.1597   37.3301 C   0  0  0  0  0  0  0  0  0  0  0  0
   38.6621   25.0938   36.6347 F   0  0  0  0  0  0  0  0  0  0  0  0
   39.2640   24.6123   38.6184 F   0  0  0  0  0  0  0  0  0  0  0  0
   40.6354   24.3620   36.9743 F   0  0  0  0  0  0  0  0  0  0  0  0
   39.2871   19.4669   35.0886 C   0  0  0  0  0  0  0  0  0  0  0  0
   37.8304   19.4528   34.6056 C   0  0  0  0  0  0  0  0  0  0  0  0
   36.8484   19.3977   35.7647 C   0  0  0  0  0  0  0  0  0  0  0  0
   35.5857   20.2313   35.5023 C   0  0  0  0  0  0  0  0  0  0  0  0
   35.8379   21.6577   35.6256 N   0  0  0  0  0  0  0  0  0  0  0  0
   36.1455   21.8677   36.5752 H   0  0  0  0  0  0  0  0  0  0  0  0
   34.9812   22.1732   35.4239 H   0  0  0  0  0  0  0  0  0  0  0  0
   36.5641   21.9329   34.9643 H   0  0  0  0  0  0  0  0  0  0  0  0
   42.8416   19.0536   36.0278 C   0  0  0  0  0  0  0  0  0  0  0  0
   43.9169   19.5818   35.0617 C   0  0  0  0  0  0  0  0  0  0  0  0
   45.0935   19.1674   35.1338 O   0  0  0  0  0  0  0  0  0  0  0  0
   43.3021   20.3506   34.0916 N   0  0  0  0  0  0  0  0  0  0  0  0
   42.3270   20.2456   34.0060 H   0  0  0  0  0  0  0  0  0  0  0  0
   43.8819   21.2250   33.2517 C   0  0  0  0  0  0  0  0  0  0  0  0
   43.7058   22.5988   33.4304 C   0  0  0  0  0  0  0  0  0  0  0  0
   44.0887   23.4795   32.4331 C   0  0  0  0  0  0  0  0  0  0  0  0
   44.6650   23.0132   31.2382 C   0  0  0  0  0  0  0  0  0  0  0  0
   44.8619   21.6334   31.0580 C   0  0  0  0  0  0  0  0  0  0  0  0
   44.4724   20.7481   32.0629 C   0  0  0  0  0  0  0  0  0  0  0  0
   45.0219   24.0493   30.1444 C   0  0  0  0  0  0  0  0  0  0  0  0
   46.5004   23.8304   29.7764 C   0  0  0  0  0  0  0  0  0  0  0  0
   44.7110   25.4608   30.5909 C   0  0  0  0  0  0  0  0  0  0  0  0
   42.3366   17.6495   35.7873 C   0  0  0  0  0  0  0  0  0  0  0  0
   42.8027   16.7016   36.8175 C   0  0  0  0  0  0  0  0  0  0  0  0
   44.0073   16.0373   36.6707 C   0  0  0  0  0  0  0  0  0  0  0  0
   41.9941   16.4823   37.9031 C   0  0  0  0  0  0  0  0  0  0  0  0
   44.4099   15.1341   37.6376 C   0  0  0  0  0  0  0  0  0  0  0  0
   42.3944   15.5757   38.8667 C   0  0  0  0  0  0  0  0  0  0  0  0
   43.5895   14.9128   38.7371 C   0  0  0  0  0  0  0  0  0  0  0  0
  6 10  1  0  0  0
  6  7  2  0  0  0
 10 11  1  0  0  0
 10 12  1  0  0  0
 10 13  1  0  0  0
  8  5  1  0  0  0
  5  1  1  0  0  0
  5 14  1  0  0  0
  1  2  2  0  0  0
 14 15  1  0  0  0
 15 16  1  0  0  0
 16 17  1  0  0  0
 17 18  1  0  0  0
  3 22  1  0  0  0
 22 23  1  0  0  0
 22 36  1  0  0  0
 23 24  2  0  0  0
 36 37  1  0  0  0
 37 38  2  0  0  0
 37 39  1  0  0  0
 38 40  1  0  0  0
 39 41  2  0  0  0
 40 42  2  0  0  0
 41 42  1  0  0  0
 27 25  1  0  0  0
 27 28  2  0  0  0
 27 32  1  0  0  0
 28 29  1  0  0  0
 29 30  2  0  0  0
 30 31  1  0  0  0
 30 33  1  0  0  0
 31 32  2  0  0  0
 33 34  1  0  0  0
 33 35  1  0  0  0
  6  8  1  0  0  0
  1  3  1  0  0  0
 23 25  1  0  0  0
  8  9  1  0  0  0
 18 19  1  0  0  0
 18 20  1  0  0  0
 18 21  1  0  0  0
  3  4  1  0  0  0
 25 26  1  0  0  0
M  CHG 1  18   1
M  END
> <minimizedAffinity>
-7.19776

$$$$
1ELC_0Z3_A_256


 42 43  0  0  0  0  0  0  0  0999 V2000
   42.7686   21.7035   35.7569 C   0  0  0  0  0  0  0  0  0  0  0  0
   43.5389   22.6494   35.8389 O   0  0  0  0  0  0  0  0  0  0  0  0
   42.9845   20.5734   35.0926 N   0  0  0  0  0  0  0  0  0  0  0  0
   42.1860   20.0894   34.7806 H   0  0  0  0  0  0  0  0  0  0  0  0
   41.3094   21.6841   36.2192 C   0  0  0  0  0  0  0  0  0  0  0  0
   40.5762   19.7163   37.6803 C   0  0  0  0  0  0  0  0  0  0  0  0
   39.4553   19.7169   37.1297 O   0  0  0  0  0  0  0  0  0  0  0  0
   41.3833   20.7953   37.4222 N   0  0  0  0  0  0  0  0  0  0  0  0
   42.0757   21.0047   38.0901 H   0  0  0  0  0  0  0  0  0  0  0  0
   40.9911   18.5796   38.7701 C   0  0  0  0  0  0  0  0  0  0  0  0
   41.0307   18.9098   40.0734 F   0  0  0  0  0  0  0  0  0  0  0  0
   40.1186   17.5273   38.7371 F   0  0  0  0  0  0  0  0  0  0  0  0
   42.2094   18.0133   38.5398 F   0  0  0  0  0  0  0  0  0  0  0  0
   40.9306   23.1498   36.4327 C   0  0  0  0  0  0  0  0  0  0  0  0
   39.7874   23.2222   37.4542 C   0  0  0  0  0  0  0  0  0  0  0  0
   39.2133   24.6254   37.5653 C   0  0  0  0  0  0  0  0  0  0  0  0
   39.6942   25.3564   38.8273 C   0  0  0  0  0  0  0  0  0  0  0  0
   40.6955   24.5919   39.5528 N   0  0  0  0  0  0  0  0  0  0  0  0
   40.2932   23.7042   39.8538 H   0  0  0  0  0  0  0  0  0  0  0  0
   41.0013   25.1209   40.3695 H   0  0  0  0  0  0  0  0  0  0  0  0
   41.4944   24.4141   38.9441 H   0  0  0  0  0  0  0  0  0  0  0  0
   44.2543   19.9800   34.7793 C   0  0  0  0  0  0  0  0  0  0  0  0
   45.2543   20.8630   34.0120 C   0  0  0  0  0  0  0  0  0  0  0  0
   46.4696   20.8447   34.3018 O   0  0  0  0  0  0  0  0  0  0  0  0
   44.6054   21.4328   32.9329 N   0  0  0  0  0  0  0  0  0  0  0  0
   43.7472   21.0246   32.6757 H   0  0  0  0  0  0  0  0  0  0  0  0
   45.0107   22.4798   32.1942 C   0  0  0  0  0  0  0  0  0  0  0  0
   44.2894   23.6756   32.2086 C   0  0  0  0  0  0  0  0  0  0  0  0
   44.5587   24.6556   31.2685 C   0  0  0  0  0  0  0  0  0  0  0  0
   45.5593   24.4717   30.2977 C   0  0  0  0  0  0  0  0  0  0  0  0
   46.3016   23.2784   30.2876 C   0  0  0  0  0  0  0  0  0  0  0  0
   46.0263   22.2914   31.2338 C   0  0  0  0  0  0  0  0  0  0  0  0
   45.7721   25.5870   29.2451 C   0  0  0  0  0  0  0  0  0  0  0  0
   44.3866   25.9501   28.6816 C   0  0  0  0  0  0  0  0  0  0  0  0
   46.7675   25.1705   28.1850 C   0  0  0  0  0  0  0  0  0  0  0  0
   43.7323   18.7563   34.0622 C   0  0  0  0  0  0  0  0  0  0  0  0
   43.5040   17.6233   34.9795 C   0  0  0  0  0  0  0  0  0  0  0  0
   42.2743   16.9911   35.0261 C   0  0  0  0  0  0  0  0  0  0  0  0
   44.5354   17.2399   35.7978 C   0  0  0  0  0  0  0  0  0  0  0  0
   42.0772   15.9484   35.9131 C   0  0  0  0  0  0  0  0  0  0  0  0
   44.3364   16.2012   36.6878 C   0  0  0  0  0  0  0  0  0  0  0  0
   43.1232   15.5610   36.7418 C   0  0  0  0  0  0  0  0  0  0  0  0
  6 10  1  0  0  0
  6  7  2  0  0  0
 10 11  1  0  0  0
 10 12  1  0  0  0
 10 13  1  0  0  0
  8  5  1  0  0  0
  5  1  1  0  0  0
  5 14  1  0  0  0
  1  2  2  0  0  0
 14 15  1  0  0  0
 15 16  1  0  0  0
 16 17  1  0  0  0
 17 18  1  0  0  0
  3 22  1  0  0  0
 22 23  1  0  0  0
 22 36  1  0  0  0
 23 24  2  0  0  0
 36 37  1  0  0  0
 37 38  2  0  0  0
 37 39  1  0  0  0
 38 40  1  0  0  0
 39 41  2  0  0  0
 40 42  2  0  0  0
 41 42  1  0  0  0
 27 25  1  0  0  0
 27 28  2  0  0  0
 27 32  1  0  0  0
 28 29  1  0  0  0
 29 30  2  0  0  0
 30 31  1  0  0  0
 30 33  1  0  0  0
 31 32  2  0  0  0
 33 34  1  0  0  0
 33 35  1  0  0  0
  6  8  1  0  0  0
  1  3  1  0  0  0
 23 25  1  0  0  0
  8  9  1  0  0  0
 18 19  1  0  0  0
 18 20  1  0  0  0
 18 21  1  0  0  0
  3  4  1  0  0  0
 25 26  1  0  0  0
M  CHG 1  18   1
M  END
> <minimizedAffinity>
-7.18734

$$$$
1ELC_0Z3_A_256


 42 43  0  0  0  0  0  0  0  0999 V2000
   41.1551   18.5896   38.2589 C   0  0  0  0  0  0  0  0  0  0  0  0
   41.0378   18.9588   39.4185 O   0  0  0  0  0  0  0  0  0  0  0  0
   40.4330   19.0107   37.2263 N   0  0  0  0  0  0  0  0  0  0  0  0
   40.3475   18.3879   36.4687 H   0  0  0  0  0  0  0  0  0  0  0  0
   42.0079   17.4179   37.7659 C   0  0  0  0  0  0  0  0  0  0  0  0
   40.8672   15.5065   39.0270 C   0  0  0  0  0  0  0  0  0  0  0  0
   41.8181   15.4640   39.8354 O   0  0  0  0  0  0  0  0  0  0  0  0
   41.0559   16.2701   37.9029 N   0  0  0  0  0  0  0  0  0  0  0  0
   40.5149   16.0421   37.1125 H   0  0  0  0  0  0  0  0  0  0  0  0
   39.5423   14.5792   39.2181 C   0  0  0  0  0  0  0  0  0  0  0  0
   39.4403   13.8063   40.3143 F   0  0  0  0  0  0  0  0  0  0  0  0
   38.4105   15.3450   39.2649 F   0  0  0  0  0  0  0  0  0  0  0  0
   39.3208   13.7147   38.1877 F   0  0  0  0  0  0  0  0  0  0  0  0
   42.4626   17.8086   36.3596 C   0  0  0  0  0  0  0  0  0  0  0  0
   43.9643   17.5211   36.2267 C   0  0  0  0  0  0  0  0  0  0  0  0
   44.5404   18.0929   34.9414 C   0  0  0  0  0  0  0  0  0  0  0  0
   45.6760   19.0930   35.2029 C   0  0  0  0  0  0  0  0  0  0  0  0
   46.2129   19.6440   33.9694 N   0  0  0  0  0  0  0  0  0  0  0  0
   46.5999   18.8909   33.4007 H   0  0  0  0  0  0  0  0  0  0  0  0
   46.9478   20.3164   34.1889 H   0  0  0  0  0  0  0  0  0  0  0  0
   45.4677   20.1114   33.4531 H   0  0  0  0  0  0  0  0  0  0  0  0
   39.7634   20.2743   37.0934 C   0  0  0  0  0  0  0  0  0  0  0  0
   38.3687   20.3831   37.7351 C   0  0  0  0  0  0  0  0  0  0  0  0
   37.9086   21.4959   38.0686 O   0  0  0  0  0  0  0  0  0  0  0  0
   37.7486   19.1502   37.6596 N   0  0  0  0  0  0  0  0  0  0  0  0
   38.1403   18.5037   37.0288 H   0  0  0  0  0  0  0  0  0  0  0  0
   36.6727   18.7321   38.3478 C   0  0  0  0  0  0  0  0  0  0  0  0
   35.3982   18.8117   37.7826 C   0  0  0  0  0  0  0  0  0  0  0  0
   34.2786   18.6195   38.5741 C   0  0  0  0  0  0  0  0  0  0  0  0
   34.4024   18.3339   39.9454 C   0  0  0  0  0  0  0  0  0  0  0  0
   35.6819   18.2345   40.5181 C   0  0  0  0  0  0  0  0  0  0  0  0
   36.8080   18.4317   39.7193 C   0  0  0  0  0  0  0  0  0  0  0  0
   33.1080   18.1818   40.7814 C   0  0  0  0  0  0  0  0  0  0  0  0
   33.2944   16.9516   41.6874 C   0  0  0  0  0  0  0  0  0  0  0  0
   31.8809   18.1052   39.9000 C   0  0  0  0  0  0  0  0  0  0  0  0
   39.8332   20.3809   35.5874 C   0  0  0  0  0  0  0  0  0  0  0  0
   41.1100   20.9580   35.1247 C   0  0  0  0  0  0  0  0  0  0  0  0
   41.7613   21.9206   35.8751 C   0  0  0  0  0  0  0  0  0  0  0  0
   41.6103   20.5315   33.9213 C   0  0  0  0  0  0  0  0  0  0  0  0
   42.9434   22.4651   35.4072 C   0  0  0  0  0  0  0  0  0  0  0  0
   42.7890   21.0797   33.4515 C   0  0  0  0  0  0  0  0  0  0  0  0
   43.4492   22.0320   34.1875 C   0  0  0  0  0  0  0  0  0  0  0  0
  6 10  1  0  0  0
  6  7  2  0  0  0
 10 11  1  0  0  0
 10 12  1  0  0  0
 10 13  1  0  0  0
  8  5  1  0  0  0
  5  1  1  0  0  0
  5 14  1  0  0  0
  1  2  2  0  0  0
 14 15  1  0  0  0
 15 16  1  0  0  0
 16 17  1  0  0  0
 17 18  1  0  0  0
  3 22  1  0  0  0
 22 23  1  0  0  0
 22 36  1  0  0  0
 23 24  2  0  0  0
 36 37  1  0  0  0
 37 38  2  0  0  0
 37 39  1  0  0  0
 38 40  1  0  0  0
 39 41  2  0  0  0
 40 42  2  0  0  0
 41 42  1  0  0  0
 27 25  1  0  0  0
 27 28  2  0  0  0
 27 32  1  0  0  0
 28 29  1  0  0  0
 29 30  2  0  0  0
 30 31  1  0  0  0
 30 33  1  0  0  0
 31 32  2  0  0  0
 33 34  1  0  0  0
 33 35  1  0  0  0
  6  8  1  0  0  0
  1  3  1  0  0  0
 23 25  1  0  0  0
  8  9  1  0  0  0
 18 19  1  0  0  0
 18 20  1  0  0  0
 18 21  1  0  0  0
  3  4  1  0  0  0
 25 26  1  0  0  0
M  CHG 1  18   1
M  END
> <minimizedAffinity>
-7.11606

$$$$
