1QBT_146_B_300


 68 76  0  0  0  0  0  0  0  0999 V2000
   -8.9162   15.1774   27.8609 C   0  0  0  0  0  0  0  0  0  0  0  0
   -8.7727   17.4199   26.7690 C   0  0  0  0  0  0  0  0  0  0  0  0
  -10.1382   18.0061   27.0353 C   0  0  0  0  0  0  0  0  0  0  0  0
  -10.5266   17.8928   28.4940 C   0  0  0  0  0  0  0  0  0  0  0  0
  -10.8530   16.4616   28.8379 C   0  0  0  0  0  0  0  0  0  0  0  0
   -8.6923   15.9540   26.7866 N   0  0  0  0  0  0  0  0  0  0  0  0
   -9.7182   15.5135   28.8933 N   0  0  0  0  0  0  0  0  0  0  0  0
   -8.3522   14.1009   27.9027 O   0  0  0  0  0  0  0  0  0  0  0  0
  -10.0460   19.3459   26.6576 O   0  0  0  0  0  0  0  0  0  0  0  0
  -11.6998   18.6135   28.7703 O   0  0  0  0  0  0  0  0  0  0  0  0
   -9.3516   19.7811   27.1767 H   0  0  0  0  0  0  0  0  0  0  0  0
  -12.4326   18.2508   28.2484 H   0  0  0  0  0  0  0  0  0  0  0  0
   -8.1267   15.3130   25.6027 C   0  0  0  0  0  0  0  0  0  0  0  0
   -8.7115   15.7470   24.3004 C   0  0  0  0  0  0  0  0  0  0  0  0
   -7.8387   16.0999   23.2584 C   0  0  0  0  0  0  0  0  0  0  0  0
   -8.3721   16.5325   22.0248 C   0  0  0  0  0  0  0  0  0  0  0  0
   -9.7726   16.6045   21.8370 C   0  0  0  0  0  0  0  0  0  0  0  0
  -10.6397   16.2418   22.8816 C   0  0  0  0  0  0  0  0  0  0  0  0
  -10.1075   15.8149   24.1136 C   0  0  0  0  0  0  0  0  0  0  0  0
   -7.4702   16.9160   20.8954 C   0  0  0  0  0  0  0  0  0  0  0  0
   -6.3527   16.1988   20.8197 N   0  0  0  0  0  0  0  0  0  0  0  0
   -7.7316   17.7880   20.0840 O   0  0  0  0  0  0  0  0  0  0  0  0
   -6.1482   15.5502   21.5316 H   0  0  0  0  0  0  0  0  0  0  0  0
   -5.4236   16.3514   19.7064 C   0  0  0  0  0  0  0  0  0  0  0  0
   -4.3450   16.8883   16.3430 C   0  0  0  0  0  0  0  0  0  0  0  0
   -3.0095   16.7976   15.9049 C   0  0  0  0  0  0  0  0  0  0  0  0
   -1.9662   16.4811   16.8012 C   0  0  0  0  0  0  0  0  0  0  0  0
   -2.2138   16.2431   18.1655 C   0  0  0  0  0  0  0  0  0  0  0  0
   -3.5359   16.3228   18.6386 C   0  0  0  0  0  0  0  0  0  0  0  0
   -4.6371   16.6570   17.6972 C   0  0  0  0  0  0  0  0  0  0  0  0
   -5.7785   16.6544   18.4384 N   0  0  0  0  0  0  0  0  0  0  0  0
   -4.1159   16.1513   19.8614 N   0  0  0  0  0  0  0  0  0  0  0  0
   -6.6892   16.8384   18.1127 H   0  0  0  0  0  0  0  0  0  0  0  0
   -9.5580   14.7635   30.1370 C   0  0  0  0  0  0  0  0  0  0  0  0
   -9.4626   15.5755   31.3941 C   0  0  0  0  0  0  0  0  0  0  0  0
  -10.1860   15.1228   32.4963 C   0  0  0  0  0  0  0  0  0  0  0  0
  -10.1168   15.8308   33.7045 C   0  0  0  0  0  0  0  0  0  0  0  0
   -9.3188   16.9844   33.8211 C   0  0  0  0  0  0  0  0  0  0  0  0
   -8.5815   17.4435   32.7153 C   0  0  0  0  0  0  0  0  0  0  0  0
   -8.6616   16.7343   31.4976 C   0  0  0  0  0  0  0  0  0  0  0  0
  -10.9233   15.3746   34.8725 C   0  0  0  0  0  0  0  0  0  0  0  0
  -11.1253   14.0469   34.9243 N   0  0  0  0  0  0  0  0  0  0  0  0
  -11.3594   16.1434   35.7113 O   0  0  0  0  0  0  0  0  0  0  0  0
  -10.8705   13.5016   34.1453 H   0  0  0  0  0  0  0  0  0  0  0  0
  -11.7086   13.3742   36.0906 C   0  0  0  0  0  0  0  0  0  0  0  0
  -12.5109   10.5377   38.0983 C   0  0  0  0  0  0  0  0  0  0  0  0
  -13.5004   10.5105   39.1013 C   0  0  0  0  0  0  0  0  0  0  0  0
  -14.2517   11.6654   39.4077 C   0  0  0  0  0  0  0  0  0  0  0  0
  -14.0477   12.8841   38.7273 C   0  0  0  0  0  0  0  0  0  0  0  0
  -13.0751   12.9539   37.7162 C   0  0  0  0  0  0  0  0  0  0  0  0
  -12.2841   11.7351   37.3990 C   0  0  0  0  0  0  0  0  0  0  0  0
  -11.4579   12.0859   36.3911 N   0  0  0  0  0  0  0  0  0  0  0  0
  -12.6533   13.9318   36.8600 N   0  0  0  0  0  0  0  0  0  0  0  0
  -12.9785   14.8601   36.8170 H   0  0  0  0  0  0  0  0  0  0  0  0
   -7.6106   18.0171   27.6017 C   0  0  0  0  0  0  0  0  0  0  0  0
   -6.2699   17.9406   26.9203 C   0  0  0  0  0  0  0  0  0  0  0  0
   -5.1979   17.2688   27.5476 C   0  0  0  0  0  0  0  0  0  0  0  0
   -3.9768   17.1217   26.8634 C   0  0  0  0  0  0  0  0  0  0  0  0
   -3.8228   17.6507   25.5620 C   0  0  0  0  0  0  0  0  0  0  0  0
   -4.8933   18.3347   24.9410 C   0  0  0  0  0  0  0  0  0  0  0  0
   -6.1201   18.4836   25.6242 C   0  0  0  0  0  0  0  0  0  0  0  0
  -12.0173   15.8596   28.0254 C   0  0  0  0  0  0  0  0  0  0  0  0
  -12.5153   14.5592   28.5798 C   0  0  0  0  0  0  0  0  0  0  0  0
  -13.2748   14.5749   29.7679 C   0  0  0  0  0  0  0  0  0  0  0  0
  -13.7152   13.3545   30.3057 C   0  0  0  0  0  0  0  0  0  0  0  0
  -13.4046   12.1341   29.6634 C   0  0  0  0  0  0  0  0  0  0  0  0
  -12.6568   12.1330   28.4755 C   0  0  0  0  0  0  0  0  0  0  0  0
  -12.2061   13.3492   27.9309 C   0  0  0  0  0  0  0  0  0  0  0  0
  1  6  1  0  0  0
  1  7  1  0  0  0
  1  8  2  0  0  0
 13 14  1  0  0  0
 13  6  1  0  0  0
  2  3  1  0  0  0
  2 55  1  0  0  0
  2  6  1  0  0  0
  3  4  1  0  0  0
  3  9  1  0  0  0
  4  5  1  0  0  0
  4 10  1  0  0  0
  5 62  1  0  0  0
  5  7  1  0  0  0
 34 35  1  0  0  0
 34  7  1  0  0  0
 14 15  2  0  0  0
 14 19  1  0  0  0
 15 16  1  0  0  0
 16 17  2  0  0  0
 16 20  1  0  0  0
 17 18  1  0  0  0
 18 19  2  0  0  0
 20 21  1  0  0  0
 20 22  2  0  0  0
 24 21  1  0  0  0
 24 31  1  0  0  0
 24 32  2  0  0  0
 25 26  1  0  0  0
 25 30  2  0  0  0
 26 27  2  0  0  0
 27 28  1  0  0  0
 28 29  2  0  0  0
 29 30  1  0  0  0
 29 32  1  0  0  0
 30 31  1  0  0  0
 55 56  1  0  0  0
 56 57  2  0  0  0
 56 61  1  0  0  0
 57 58  1  0  0  0
 58 59  2  0  0  0
 59 60  1  0  0  0
 60 61  2  0  0  0
 62 63  1  0  0  0
 63 64  2  0  0  0
 63 68  1  0  0  0
 64 65  1  0  0  0
 65 66  2  0  0  0
 66 67  1  0  0  0
 67 68  2  0  0  0
 35 36  2  0  0  0
 35 40  1  0  0  0
 36 37  1  0  0  0
 37 38  2  0  0  0
 37 41  1  0  0  0
 38 39  1  0  0  0
 39 40  2  0  0  0
 41 42  1  0  0  0
 41 43  2  0  0  0
 45 42  1  0  0  0
 45 52  2  0  0  0
 45 53  1  0  0  0
 46 47  2  0  0  0
 46 51  1  0  0  0
 47 48  1  0  0  0
 48 49  2  0  0  0
 49 50  1  0  0  0
 50 51  2  0  0  0
 50 53  1  0  0  0
 51 52  1  0  0  0
 21 23  1  0  0  0
 31 33  1  0  0  0
 42 44  1  0  0  0
 53 54  1  0  0  0
  9 11  1  0  0  0
 10 12  1  0  0  0
M  END
> <minimizedAffinity>
-15.31041

$$$$
1QBT_146_B_300


 68 76  0  0  0  0  0  0  0  0999 V2000
  -10.0730   17.7283   27.7796 C   0  0  0  0  0  0  0  0  0  0  0  0
   -8.7552   16.3008   26.2090 C   0  0  0  0  0  0  0  0  0  0  0  0
   -8.0963   15.3086   27.1366 C   0  0  0  0  0  0  0  0  0  0  0  0
   -9.0912   14.6773   28.0869 C   0  0  0  0  0  0  0  0  0  0  0  0
   -9.5196   15.6749   29.1330 C   0  0  0  0  0  0  0  0  0  0  0  0
   -9.1482   17.5788   26.8155 N   0  0  0  0  0  0  0  0  0  0  0  0
  -10.3963   16.7786   28.6828 N   0  0  0  0  0  0  0  0  0  0  0  0
  -10.6588   18.7926   27.8354 O   0  0  0  0  0  0  0  0  0  0  0  0
   -7.5346   14.3401   26.3042 O   0  0  0  0  0  0  0  0  0  0  0  0
   -8.5139   13.6174   28.8049 O   0  0  0  0  0  0  0  0  0  0  0  0
   -8.2312   13.9332   25.7657 H   0  0  0  0  0  0  0  0  0  0  0  0
   -7.7775   13.9526   29.3400 H   0  0  0  0  0  0  0  0  0  0  0  0
   -8.6440   18.7914   26.1768 C   0  0  0  0  0  0  0  0  0  0  0  0
   -7.1643   18.8493   25.9943 C   0  0  0  0  0  0  0  0  0  0  0  0
   -6.6456   18.7568   24.6925 C   0  0  0  0  0  0  0  0  0  0  0  0
   -5.2473   18.7893   24.5002 C   0  0  0  0  0  0  0  0  0  0  0  0
   -4.3760   18.9198   25.6072 C   0  0  0  0  0  0  0  0  0  0  0  0
   -4.9026   19.0201   26.9062 C   0  0  0  0  0  0  0  0  0  0  0  0
   -6.2973   18.9828   27.0982 C   0  0  0  0  0  0  0  0  0  0  0  0
   -4.6629   18.6925   23.1272 C   0  0  0  0  0  0  0  0  0  0  0  0
   -5.0082   17.5940   22.4617 N   0  0  0  0  0  0  0  0  0  0  0  0
   -3.9530   19.5501   22.6296 O   0  0  0  0  0  0  0  0  0  0  0  0
   -5.5279   16.8960   22.9221 H   0  0  0  0  0  0  0  0  0  0  0  0
   -4.6345   17.3999   21.0657 C   0  0  0  0  0  0  0  0  0  0  0  0
   -4.3966   18.1081   17.5720 C   0  0  0  0  0  0  0  0  0  0  0  0
   -3.8360   17.2408   16.6143 C   0  0  0  0  0  0  0  0  0  0  0  0
   -3.3054   15.9868   16.9857 C   0  0  0  0  0  0  0  0  0  0  0  0
   -3.3135   15.5502   18.3230 C   0  0  0  0  0  0  0  0  0  0  0  0
   -3.8673   16.3892   19.3067 C   0  0  0  0  0  0  0  0  0  0  0  0
   -4.4262   17.7112   18.9190 C   0  0  0  0  0  0  0  0  0  0  0  0
   -4.8837   18.2774   20.0688 N   0  0  0  0  0  0  0  0  0  0  0  0
   -4.0382   16.2816   20.6559 N   0  0  0  0  0  0  0  0  0  0  0  0
   -5.3141   19.1584   20.1574 H   0  0  0  0  0  0  0  0  0  0  0  0
  -11.6603   16.9379   29.3982 C   0  0  0  0  0  0  0  0  0  0  0  0
  -12.2549   15.6905   29.9807 C   0  0  0  0  0  0  0  0  0  0  0  0
  -12.2608   15.5815   31.3704 C   0  0  0  0  0  0  0  0  0  0  0  0
  -12.8238   14.4464   31.9705 C   0  0  0  0  0  0  0  0  0  0  0  0
  -13.3920   13.4228   31.1891 C   0  0  0  0  0  0  0  0  0  0  0  0
  -13.3953   13.5288   29.7869 C   0  0  0  0  0  0  0  0  0  0  0  0
  -12.8183   14.6680   29.1857 C   0  0  0  0  0  0  0  0  0  0  0  0
  -12.7925   14.3059   33.4545 C   0  0  0  0  0  0  0  0  0  0  0  0
  -12.7435   13.0361   33.8919 N   0  0  0  0  0  0  0  0  0  0  0  0
  -12.8068   15.2646   34.2064 O   0  0  0  0  0  0  0  0  0  0  0  0
  -12.8784   12.3090   33.2419 H   0  0  0  0  0  0  0  0  0  0  0  0
  -12.4977   12.6853   35.2953 C   0  0  0  0  0  0  0  0  0  0  0  0
  -11.5387   10.4946   37.9414 C   0  0  0  0  0  0  0  0  0  0  0  0
  -11.8558   10.6820   39.3016 C   0  0  0  0  0  0  0  0  0  0  0  0
  -12.5825   11.8152   39.7255 C   0  0  0  0  0  0  0  0  0  0  0  0
  -13.0206   12.7982   38.8135 C   0  0  0  0  0  0  0  0  0  0  0  0
  -12.7309   12.6479   37.4472 C   0  0  0  0  0  0  0  0  0  0  0  0
  -11.9625   11.4535   37.0059 C   0  0  0  0  0  0  0  0  0  0  0  0
  -11.8552   11.5612   35.6648 N   0  0  0  0  0  0  0  0  0  0  0  0
  -13.0227   13.3670   36.3224 N   0  0  0  0  0  0  0  0  0  0  0  0
  -13.5193   14.2158   36.2760 H   0  0  0  0  0  0  0  0  0  0  0  0
   -9.9221   15.7481   25.3524 C   0  0  0  0  0  0  0  0  0  0  0  0
   -9.7332   15.9366   23.8703 C   0  0  0  0  0  0  0  0  0  0  0  0
  -10.8582   16.0070   23.0199 C   0  0  0  0  0  0  0  0  0  0  0  0
  -10.6762   16.2763   21.6506 C   0  0  0  0  0  0  0  0  0  0  0  0
   -9.3761   16.4659   21.1299 C   0  0  0  0  0  0  0  0  0  0  0  0
   -8.2500   16.3818   21.9810 C   0  0  0  0  0  0  0  0  0  0  0  0
   -8.4289   16.1123   23.3555 C   0  0  0  0  0  0  0  0  0  0  0  0
   -8.3690   16.2224   30.0017 C   0  0  0  0  0  0  0  0  0  0  0  0
   -8.6790   16.2135   31.4681 C   0  0  0  0  0  0  0  0  0  0  0  0
   -8.9660   14.9824   32.0931 C   0  0  0  0  0  0  0  0  0  0  0  0
   -9.2877   14.9763   33.4602 C   0  0  0  0  0  0  0  0  0  0  0  0
   -9.3188   16.1836   34.1950 C   0  0  0  0  0  0  0  0  0  0  0  0
   -9.0207   17.4012   33.5634 C   0  0  0  0  0  0  0  0  0  0  0  0
   -8.7023   17.4195   32.1933 C   0  0  0  0  0  0  0  0  0  0  0  0
  1  6  1  0  0  0
  1  7  1  0  0  0
  1  8  2  0  0  0
 13 14  1  0  0  0
 13  6  1  0  0  0
  2  3  1  0  0  0
  2 55  1  0  0  0
  2  6  1  0  0  0
  3  4  1  0  0  0
  3  9  1  0  0  0
  4  5  1  0  0  0
  4 10  1  0  0  0
  5 62  1  0  0  0
  5  7  1  0  0  0
 34 35  1  0  0  0
 34  7  1  0  0  0
 14 15  2  0  0  0
 14 19  1  0  0  0
 15 16  1  0  0  0
 16 17  2  0  0  0
 16 20  1  0  0  0
 17 18  1  0  0  0
 18 19  2  0  0  0
 20 21  1  0  0  0
 20 22  2  0  0  0
 24 21  1  0  0  0
 24 31  1  0  0  0
 24 32  2  0  0  0
 25 26  1  0  0  0
 25 30  2  0  0  0
 26 27  2  0  0  0
 27 28  1  0  0  0
 28 29  2  0  0  0
 29 30  1  0  0  0
 29 32  1  0  0  0
 30 31  1  0  0  0
 55 56  1  0  0  0
 56 57  2  0  0  0
 56 61  1  0  0  0
 57 58  1  0  0  0
 58 59  2  0  0  0
 59 60  1  0  0  0
 60 61  2  0  0  0
 62 63  1  0  0  0
 63 64  2  0  0  0
 63 68  1  0  0  0
 64 65  1  0  0  0
 65 66  2  0  0  0
 66 67  1  0  0  0
 67 68  2  0  0  0
 35 36  2  0  0  0
 35 40  1  0  0  0
 36 37  1  0  0  0
 37 38  2  0  0  0
 37 41  1  0  0  0
 38 39  1  0  0  0
 39 40  2  0  0  0
 41 42  1  0  0  0
 41 43  2  0  0  0
 45 42  1  0  0  0
 45 52  2  0  0  0
 45 53  1  0  0  0
 46 47  2  0  0  0
 46 51  1  0  0  0
 47 48  1  0  0  0
 48 49  2  0  0  0
 49 50  1  0  0  0
 50 51  2  0  0  0
 50 53  1  0  0  0
 51 52  1  0  0  0
 21 23  1  0  0  0
 31 33  1  0  0  0
 42 44  1  0  0  0
 53 54  1  0  0  0
  9 11  1  0  0  0
 10 12  1  0  0  0
M  END
> <minimizedAffinity>
-12.85723

$$$$
1QBT_146_B_300


 68 76  0  0  0  0  0  0  0  0999 V2000
   -8.6806   15.3027   27.9224 C   0  0  0  0  0  0  0  0  0  0  0  0
   -8.5534   17.5806   26.9043 C   0  0  0  0  0  0  0  0  0  0  0  0
   -9.9547   18.1083   27.0968 C   0  0  0  0  0  0  0  0  0  0  0  0
  -10.4313   17.9373   28.5234 C   0  0  0  0  0  0  0  0  0  0  0  0
  -10.7239   16.4856   28.8058 C   0  0  0  0  0  0  0  0  0  0  0  0
   -8.4181   16.1188   26.8868 N   0  0  0  0  0  0  0  0  0  0  0  0
   -9.5595   15.5783   28.9091 N   0  0  0  0  0  0  0  0  0  0  0  0
   -8.0795   14.2468   27.9714 O   0  0  0  0  0  0  0  0  0  0  0  0
   -9.8899   19.4613   26.7629 O   0  0  0  0  0  0  0  0  0  0  0  0
  -11.6467   18.6061   28.7422 O   0  0  0  0  0  0  0  0  0  0  0  0
   -9.2475   19.9058   27.3380 H   0  0  0  0  0  0  0  0  0  0  0  0
  -12.3299   18.2327   28.1637 H   0  0  0  0  0  0  0  0  0  0  0  0
   -7.7534   15.5345   25.7252 C   0  0  0  0  0  0  0  0  0  0  0  0
   -7.6202   16.4371   24.5445 C   0  0  0  0  0  0  0  0  0  0  0  0
   -6.3402   16.6570   24.0103 C   0  0  0  0  0  0  0  0  0  0  0  0
   -6.1903   17.5234   22.9057 C   0  0  0  0  0  0  0  0  0  0  0  0
   -7.3189   18.1600   22.3376 C   0  0  0  0  0  0  0  0  0  0  0  0
   -8.5976   17.9285   22.8724 C   0  0  0  0  0  0  0  0  0  0  0  0
   -8.7464   17.0680   23.9772 C   0  0  0  0  0  0  0  0  0  0  0  0
   -4.8412   17.7794   22.3137 C   0  0  0  0  0  0  0  0  0  0  0  0
   -4.5282   19.0671   22.2015 N   0  0  0  0  0  0  0  0  0  0  0  0
   -4.0664   16.8975   21.9834 O   0  0  0  0  0  0  0  0  0  0  0  0
   -5.2061   19.7475   22.4173 H   0  0  0  0  0  0  0  0  0  0  0  0
   -3.2037   19.4940   21.7661 C   0  0  0  0  0  0  0  0  0  0  0  0
   -0.5338   20.2144   19.5040 C   0  0  0  0  0  0  0  0  0  0  0  0
    0.7636   20.6018   19.8920 C   0  0  0  0  0  0  0  0  0  0  0  0
    1.1080   20.7418   21.2535 C   0  0  0  0  0  0  0  0  0  0  0  0
    0.1745   20.5011   22.2782 C   0  0  0  0  0  0  0  0  0  0  0  0
   -1.1305   20.1103   21.9283 C   0  0  0  0  0  0  0  0  0  0  0  0
   -1.4969   19.9629   20.4950 C   0  0  0  0  0  0  0  0  0  0  0  0
   -2.8018   19.5769   20.4787 N   0  0  0  0  0  0  0  0  0  0  0  0
   -2.2500   19.8009   22.6438 N   0  0  0  0  0  0  0  0  0  0  0  0
   -3.3487   19.3931   19.6810 H   0  0  0  0  0  0  0  0  0  0  0  0
   -9.4509   14.7978   30.1396 C   0  0  0  0  0  0  0  0  0  0  0  0
   -9.3648   15.5799   31.4162 C   0  0  0  0  0  0  0  0  0  0  0  0
  -10.0079   15.0443   32.5309 C   0  0  0  0  0  0  0  0  0  0  0  0
   -9.9423   15.7221   33.7566 C   0  0  0  0  0  0  0  0  0  0  0  0
   -9.2273   16.9284   33.8775 C   0  0  0  0  0  0  0  0  0  0  0  0
   -8.5709   17.4714   32.7588 C   0  0  0  0  0  0  0  0  0  0  0  0
   -8.6477   16.7920   31.5241 C   0  0  0  0  0  0  0  0  0  0  0  0
  -10.6654   15.1751   34.9401 C   0  0  0  0  0  0  0  0  0  0  0  0
  -10.9217   13.8574   34.8750 N   0  0  0  0  0  0  0  0  0  0  0  0
  -10.9927   15.8667   35.8883 O   0  0  0  0  0  0  0  0  0  0  0  0
  -10.7596   13.3880   34.0249 H   0  0  0  0  0  0  0  0  0  0  0  0
  -11.4325   13.0873   36.0147 C   0  0  0  0  0  0  0  0  0  0  0  0
  -13.4389   10.5737   37.5565 C   0  0  0  0  0  0  0  0  0  0  0  0
  -13.7615   10.5244   38.9273 C   0  0  0  0  0  0  0  0  0  0  0  0
  -13.2649   11.4959   39.8227 C   0  0  0  0  0  0  0  0  0  0  0  0
  -12.4344   12.5495   39.3868 C   0  0  0  0  0  0  0  0  0  0  0  0
  -12.0925   12.6397   38.0273 C   0  0  0  0  0  0  0  0  0  0  0  0
  -12.6159   11.6119   37.0883 C   0  0  0  0  0  0  0  0  0  0  0  0
  -12.1523   11.9588   35.8692 N   0  0  0  0  0  0  0  0  0  0  0  0
  -11.3614   13.5203   37.2808 N   0  0  0  0  0  0  0  0  0  0  0  0
  -10.8791   14.3139   37.6076 H   0  0  0  0  0  0  0  0  0  0  0  0
   -7.4709   18.1947   27.8272 C   0  0  0  0  0  0  0  0  0  0  0  0
   -6.1175   18.3214   27.1793 C   0  0  0  0  0  0  0  0  0  0  0  0
   -5.1386   17.3261   27.3918 C   0  0  0  0  0  0  0  0  0  0  0  0
   -3.9106   17.4047   26.7087 C   0  0  0  0  0  0  0  0  0  0  0  0
   -3.6566   18.4770   25.8238 C   0  0  0  0  0  0  0  0  0  0  0  0
   -4.6331   19.4797   25.6228 C   0  0  0  0  0  0  0  0  0  0  0  0
   -5.8666   19.4037   26.3061 C   0  0  0  0  0  0  0  0  0  0  0  0
  -11.8097   15.8660   27.9027 C   0  0  0  0  0  0  0  0  0  0  0  0
  -12.3479   14.5699   28.4289 C   0  0  0  0  0  0  0  0  0  0  0  0
  -12.0129   13.3748   27.7595 C   0  0  0  0  0  0  0  0  0  0  0  0
  -12.5421   12.1629   28.2326 C   0  0  0  0  0  0  0  0  0  0  0  0
  -13.3921   12.1440   29.3620 C   0  0  0  0  0  0  0  0  0  0  0  0
  -13.7093   13.3394   30.0258 C   0  0  0  0  0  0  0  0  0  0  0  0
  -13.1890   14.5595   29.5573 C   0  0  0  0  0  0  0  0  0  0  0  0
  1  6  1  0  0  0
  1  7  1  0  0  0
  1  8  2  0  0  0
 13 14  1  0  0  0
 13  6  1  0  0  0
  2  3  1  0  0  0
  2 55  1  0  0  0
  2  6  1  0  0  0
  3  4  1  0  0  0
  3  9  1  0  0  0
  4  5  1  0  0  0
  4 10  1  0  0  0
  5 62  1  0  0  0
  5  7  1  0  0  0
 34 35  1  0  0  0
 34  7  1  0  0  0
 14 15  2  0  0  0
 14 19  1  0  0  0
 15 16  1  0  0  0
 16 17  2  0  0  0
 16 20  1  0  0  0
 17 18  1  0  0  0
 18 19  2  0  0  0
 20 21  1  0  0  0
 20 22  2  0  0  0
 24 21  1  0  0  0
 24 31  1  0  0  0
 24 32  2  0  0  0
 25 26  1  0  0  0
 25 30  2  0  0  0
 26 27  2  0  0  0
 27 28  1  0  0  0
 28 29  2  0  0  0
 29 30  1  0  0  0
 29 32  1  0  0  0
 30 31  1  0  0  0
 55 56  1  0  0  0
 56 57  2  0  0  0
 56 61  1  0  0  0
 57 58  1  0  0  0
 58 59  2  0  0  0
 59 60  1  0  0  0
 60 61  2  0  0  0
 62 63  1  0  0  0
 63 64  2  0  0  0
 63 68  1  0  0  0
 64 65  1  0  0  0
 65 66  2  0  0  0
 66 67  1  0  0  0
 67 68  2  0  0  0
 35 36  2  0  0  0
 35 40  1  0  0  0
 36 37  1  0  0  0
 37 38  2  0  0  0
 37 41  1  0  0  0
 38 39  1  0  0  0
 39 40  2  0  0  0
 41 42  1  0  0  0
 41 43  2  0  0  0
 45 42  1  0  0  0
 45 52  2  0  0  0
 45 53  1  0  0  0
 46 47  2  0  0  0
 46 51  1  0  0  0
 47 48  1  0  0  0
 48 49  2  0  0  0
 49 50  1  0  0  0
 50 51  2  0  0  0
 50 53  1  0  0  0
 51 52  1  0  0  0
 21 23  1  0  0  0
 31 33  1  0  0  0
 42 44  1  0  0  0
 53 54  1  0  0  0
  9 11  1  0  0  0
 10 12  1  0  0  0
M  END
> <minimizedAffinity>
-12.77405

$$$$
