1JLR_GTP_A_303


 41 43  0  0  0  0  0  0  0  0999 V2000
   13.2203   88.7720   73.3575 C   0  0  0  0  0  0  0  0  0  0  0  0
   12.8071   89.5470   74.5216 O   0  0  0  0  0  0  0  0  0  0  0  0
   12.8342   89.5871   72.1208 C   0  0  0  0  0  0  0  0  0  0  0  0
   11.9488   88.8397   71.2977 O   0  0  0  0  0  0  0  0  0  0  0  0
   12.2162   90.8966   72.6545 C   0  0  0  0  0  0  0  0  0  0  0  0
   10.9247   91.1573   72.1362 O   0  0  0  0  0  0  0  0  0  0  0  0
   12.1610   90.7598   74.1576 C   0  0  0  0  0  0  0  0  0  0  0  0
   11.1597   88.5983   71.8075 H   0  0  0  0  0  0  0  0  0  0  0  0
   10.3250   90.4366   72.3848 H   0  0  0  0  0  0  0  0  0  0  0  0
   12.8044   91.8934   74.8828 N   0  0  0  0  0  0  0  0  0  0  0  0
   13.9513   91.9266   75.6370 C   0  0  0  0  0  0  0  0  0  0  0  0
   14.2438   93.0738   76.1487 N   0  0  0  0  0  0  0  0  0  0  0  0
   13.2617   93.8967   75.7430 C   0  0  0  0  0  0  0  0  0  0  0  0
   13.0389   95.3002   75.9958 C   0  0  0  0  0  0  0  0  0  0  0  0
   13.7730   96.0564   76.6925 O   0  0  0  0  0  0  0  0  0  0  0  0
   11.8295   95.8222   75.3568 N   0  0  0  0  0  0  0  0  0  0  0  0
   10.9734   95.0580   74.5801 C   0  0  0  0  0  0  0  0  0  0  0  0
    9.9116   95.6794   74.0670 N   0  0  0  0  0  0  0  0  0  0  0  0
   11.1650   93.7559   74.3372 N   0  0  0  0  0  0  0  0  0  0  0  0
   12.3296   93.2129   74.9430 C   0  0  0  0  0  0  0  0  0  0  0  0
   11.6114   96.7734   75.4866 H   0  0  0  0  0  0  0  0  0  0  0  0
    9.7685   96.6372   74.2442 H   0  0  0  0  0  0  0  0  0  0  0  0
    9.2706   95.1806   73.5107 H   0  0  0  0  0  0  0  0  0  0  0  0
   14.6782   88.3190   73.4392 C   0  0  0  0  0  0  0  0  0  0  0  0
   14.8006   87.0815   74.1790 O   0  0  0  0  0  0  0  0  0  0  0  0
   15.5930   86.9243   75.4290 P   0  0  0  0  0  0  0  0  0  0  0  0
   16.9504   86.3926   75.1267 O   0  0  0  0  0  0  0  0  0  0  0  0
   14.8174   86.2479   76.4673 O   0  0  0  0  0  0  0  0  0  0  0  0
   15.3574   86.1595   77.2682 H   0  0  0  0  0  0  0  0  0  0  0  0
   15.8104   88.5107   75.8355 O   0  0  0  0  0  0  0  0  0  0  0  0
   16.4054   88.9401   77.2512 P   0  0  0  0  0  0  0  0  0  0  0  0
   16.8159   90.3549   77.1660 O   0  0  0  0  0  0  0  0  0  0  0  0
   17.3695   87.9431   77.7108 O   0  0  0  0  0  0  0  0  0  0  0  0
   17.7266   88.2114   78.5718 H   0  0  0  0  0  0  0  0  0  0  0  0
   15.2814   88.6115   78.2377 O   0  0  0  0  0  0  0  0  0  0  0  0
   15.2643   89.1333   79.6956 P   0  0  0  0  0  0  0  0  0  0  0  0
   16.3122   88.4494   80.4913 O   0  0  0  0  0  0  0  0  0  0  0  0
   15.5229   90.5946   80.0672 O   0  0  0  0  0  0  0  0  0  0  0  0
   14.0371   88.6182   80.3522 O   0  0  0  0  0  0  0  0  0  0  0  0
   15.4640   90.6987   81.0298 H   0  0  0  0  0  0  0  0  0  0  0  0
   14.0046   88.9330   81.2691 H   0  0  0  0  0  0  0  0  0  0  0  0
 36 37  2  0  0  0
 36 38  1  0  0  0
 36 39  1  0  0  0
 36 35  1  0  0  0
 35 31  1  0  0  0
 31 32  2  0  0  0
 31 33  1  0  0  0
 31 30  1  0  0  0
 30 26  1  0  0  0
 26 27  2  0  0  0
 26 28  1  0  0  0
 26 25  1  0  0  0
 25 24  1  0  0  0
 24  1  1  0  0  0
  1  2  1  0  0  0
  1  3  1  0  0  0
  2  7  1  0  0  0
  3  4  1  0  0  0
  3  5  1  0  0  0
  5  6  1  0  0  0
  5  7  1  0  0  0
  7 10  1  0  0  0
 10 11  1  0  0  0
 10 20  1  0  0  0
 11 12  2  0  0  0
 12 13  1  0  0  0
 13 14  1  0  0  0
 13 20  2  0  0  0
 14 15  2  0  0  0
 14 16  1  0  0  0
 16 17  1  0  0  0
 17 18  1  0  0  0
 17 19  2  0  0  0
 19 20  1  0  0  0
 38 40  1  0  0  0
 39 41  1  0  0  0
 33 34  1  0  0  0
 28 29  1  0  0  0
  4  8  1  0  0  0
  6  9  1  0  0  0
 16 21  1  0  0  0
 18 22  1  0  0  0
 18 23  1  0  0  0
M  END
> <minimizedAffinity>
-9.24948

$$$$
1JLR_GTP_A_303


 41 43  0  0  0  0  0  0  0  0999 V2000
   13.8255   89.1506   74.1304 C   0  0  0  0  0  0  0  0  0  0  0  0
   13.0521   90.0807   74.9449 O   0  0  0  0  0  0  0  0  0  0  0  0
   14.0443   89.8238   72.7733 C   0  0  0  0  0  0  0  0  0  0  0  0
   13.4998   89.0212   71.7344 O   0  0  0  0  0  0  0  0  0  0  0  0
   13.3860   91.2154   72.8815 C   0  0  0  0  0  0  0  0  0  0  0  0
   12.4409   91.4679   71.8580 O   0  0  0  0  0  0  0  0  0  0  0  0
   12.7198   91.2672   74.2359 C   0  0  0  0  0  0  0  0  0  0  0  0
   12.5540   88.8800   71.8969 H   0  0  0  0  0  0  0  0  0  0  0  0
   11.7289   90.8109   71.9061 H   0  0  0  0  0  0  0  0  0  0  0  0
   13.1182   92.4515   75.0507 N   0  0  0  0  0  0  0  0  0  0  0  0
   14.1620   92.6136   75.9279 C   0  0  0  0  0  0  0  0  0  0  0  0
   14.2359   93.7712   76.4918 N   0  0  0  0  0  0  0  0  0  0  0  0
   13.1983   94.4669   75.9963 C   0  0  0  0  0  0  0  0  0  0  0  0
   12.7569   95.8173   76.2510 C   0  0  0  0  0  0  0  0  0  0  0  0
   13.3001   96.6412   77.0398 O   0  0  0  0  0  0  0  0  0  0  0  0
   11.5623   96.1924   75.4923 N   0  0  0  0  0  0  0  0  0  0  0  0
   10.9087   95.3468   74.6103 C   0  0  0  0  0  0  0  0  0  0  0  0
    9.8321   95.8360   73.9951 N   0  0  0  0  0  0  0  0  0  0  0  0
   11.3041   94.0922   74.3641 N   0  0  0  0  0  0  0  0  0  0  0  0
   12.4612   93.6914   75.0843 C   0  0  0  0  0  0  0  0  0  0  0  0
   11.2017   97.1000   75.6162 H   0  0  0  0  0  0  0  0  0  0  0  0
    9.5393   96.7586   74.1746 H   0  0  0  0  0  0  0  0  0  0  0  0
    9.3298   95.2746   73.3612 H   0  0  0  0  0  0  0  0  0  0  0  0
   15.0801   88.6462   74.8439 C   0  0  0  0  0  0  0  0  0  0  0  0
   15.1233   89.1076   76.2146 O   0  0  0  0  0  0  0  0  0  0  0  0
   14.4288   88.4394   77.3487 P   0  0  0  0  0  0  0  0  0  0  0  0
   14.1993   86.9993   77.0487 O   0  0  0  0  0  0  0  0  0  0  0  0
   13.2847   89.2254   77.8073 O   0  0  0  0  0  0  0  0  0  0  0  0
   12.8523   88.7671   78.5449 H   0  0  0  0  0  0  0  0  0  0  0  0
   15.6271   88.4778   78.4853 O   0  0  0  0  0  0  0  0  0  0  0  0
   15.3434   88.9273   79.9887 P   0  0  0  0  0  0  0  0  0  0  0  0
   14.2150   88.1265   80.5015 O   0  0  0  0  0  0  0  0  0  0  0  0
   15.2804   90.3847   80.0706 O   0  0  0  0  0  0  0  0  0  0  0  0
   15.1077   90.6499   80.9875 H   0  0  0  0  0  0  0  0  0  0  0  0
   16.6914   88.7384   80.6898 O   0  0  0  0  0  0  0  0  0  0  0  0
   18.0420   88.7574   79.9323 P   0  0  0  0  0  0  0  0  0  0  0  0
   19.1647   88.8213   80.8989 O   0  0  0  0  0  0  0  0  0  0  0  0
   18.5079   87.6223   79.0185 O   0  0  0  0  0  0  0  0  0  0  0  0
   18.1747   90.0765   79.2654 O   0  0  0  0  0  0  0  0  0  0  0  0
   19.3775   87.8411   78.6488 H   0  0  0  0  0  0  0  0  0  0  0  0
   19.0156   90.1118   78.7832 H   0  0  0  0  0  0  0  0  0  0  0  0
 36 37  2  0  0  0
 36 38  1  0  0  0
 36 39  1  0  0  0
 36 35  1  0  0  0
 35 31  1  0  0  0
 31 32  2  0  0  0
 31 33  1  0  0  0
 31 30  1  0  0  0
 30 26  1  0  0  0
 26 27  2  0  0  0
 26 28  1  0  0  0
 26 25  1  0  0  0
 25 24  1  0  0  0
 24  1  1  0  0  0
  1  2  1  0  0  0
  1  3  1  0  0  0
  2  7  1  0  0  0
  3  4  1  0  0  0
  3  5  1  0  0  0
  5  6  1  0  0  0
  5  7  1  0  0  0
  7 10  1  0  0  0
 10 11  1  0  0  0
 10 20  1  0  0  0
 11 12  2  0  0  0
 12 13  1  0  0  0
 13 14  1  0  0  0
 13 20  2  0  0  0
 14 15  2  0  0  0
 14 16  1  0  0  0
 16 17  1  0  0  0
 17 18  1  0  0  0
 17 19  2  0  0  0
 19 20  1  0  0  0
 38 40  1  0  0  0
 39 41  1  0  0  0
 33 34  1  0  0  0
 28 29  1  0  0  0
  4  8  1  0  0  0
  6  9  1  0  0  0
 16 21  1  0  0  0
 18 22  1  0  0  0
 18 23  1  0  0  0
M  END
> <minimizedAffinity>
-9.18998

$$$$
1JLR_GTP_A_303


 41 43  0  0  0  0  0  0  0  0999 V2000
   14.6632   86.6042   72.1930 C   0  0  0  0  0  0  0  0  0  0  0  0
   13.7233   87.6943   72.4266 O   0  0  0  0  0  0  0  0  0  0  0  0
   15.7118   87.1248   71.2070 C   0  0  0  0  0  0  0  0  0  0  0  0
   15.7299   86.3163   70.0382 O   0  0  0  0  0  0  0  0  0  0  0  0
   15.3360   88.5956   70.9288 C   0  0  0  0  0  0  0  0  0  0  0  0
   15.1865   88.8834   69.5506 O   0  0  0  0  0  0  0  0  0  0  0  0
   14.0403   88.8499   71.6619 C   0  0  0  0  0  0  0  0  0  0  0  0
   14.8492   86.3161   69.6316 H   0  0  0  0  0  0  0  0  0  0  0  0
   14.4788   88.3331   69.1802 H   0  0  0  0  0  0  0  0  0  0  0  0
   14.0901   90.0357   72.5655 N   0  0  0  0  0  0  0  0  0  0  0  0
   14.4593   91.3327   72.3068 C   0  0  0  0  0  0  0  0  0  0  0  0
   14.4024   92.1355   73.3146 N   0  0  0  0  0  0  0  0  0  0  0  0
   13.9745   91.3784   74.3393 C   0  0  0  0  0  0  0  0  0  0  0  0
   13.7193   91.7124   75.7201 C   0  0  0  0  0  0  0  0  0  0  0  0
   13.8651   92.8502   76.2495 O   0  0  0  0  0  0  0  0  0  0  0  0
   13.2560   90.5757   76.5181 N   0  0  0  0  0  0  0  0  0  0  0  0
   13.0729   89.2987   76.0124 C   0  0  0  0  0  0  0  0  0  0  0  0
   12.6464   88.3692   76.8674 N   0  0  0  0  0  0  0  0  0  0  0  0
   13.3061   88.9724   74.7356 N   0  0  0  0  0  0  0  0  0  0  0  0
   13.7590   90.0510   73.9294 C   0  0  0  0  0  0  0  0  0  0  0  0
   13.0630   90.7279   77.4715 H   0  0  0  0  0  0  0  0  0  0  0  0
   12.4742   88.6068   77.8071 H   0  0  0  0  0  0  0  0  0  0  0  0
   12.5037   87.4452   76.5591 H   0  0  0  0  0  0  0  0  0  0  0  0
   15.1987   86.0002   73.4914 C   0  0  0  0  0  0  0  0  0  0  0  0
   16.0051   86.9562   74.2192 O   0  0  0  0  0  0  0  0  0  0  0  0
   16.1589   86.9717   75.6995 P   0  0  0  0  0  0  0  0  0  0  0  0
   17.4405   86.3292   76.1009 O   0  0  0  0  0  0  0  0  0  0  0  0
   14.9381   86.5191   76.3644 O   0  0  0  0  0  0  0  0  0  0  0  0
   15.0669   86.5395   77.3256 H   0  0  0  0  0  0  0  0  0  0  0  0
   16.3676   88.5908   75.9521 O   0  0  0  0  0  0  0  0  0  0  0  0
   16.6631   89.1824   77.4031 P   0  0  0  0  0  0  0  0  0  0  0  0
   16.4846   90.6461   77.3467 O   0  0  0  0  0  0  0  0  0  0  0  0
   17.9152   88.6349   77.9200 O   0  0  0  0  0  0  0  0  0  0  0  0
   18.0877   88.9994   78.8022 H   0  0  0  0  0  0  0  0  0  0  0  0
   15.7069   88.4107   78.3167 O   0  0  0  0  0  0  0  0  0  0  0  0
   15.2232   88.9596   79.6817 P   0  0  0  0  0  0  0  0  0  0  0  0
   15.8793   88.2199   80.7868 O   0  0  0  0  0  0  0  0  0  0  0  0
   15.4406   90.4061   80.1294 O   0  0  0  0  0  0  0  0  0  0  0  0
   13.8113   88.5427   79.8687 O   0  0  0  0  0  0  0  0  0  0  0  0
   15.0596   90.5320   81.0125 H   0  0  0  0  0  0  0  0  0  0  0  0
   13.4858   88.8760   80.7195 H   0  0  0  0  0  0  0  0  0  0  0  0
 36 37  2  0  0  0
 36 38  1  0  0  0
 36 39  1  0  0  0
 36 35  1  0  0  0
 35 31  1  0  0  0
 31 32  2  0  0  0
 31 33  1  0  0  0
 31 30  1  0  0  0
 30 26  1  0  0  0
 26 27  2  0  0  0
 26 28  1  0  0  0
 26 25  1  0  0  0
 25 24  1  0  0  0
 24  1  1  0  0  0
  1  2  1  0  0  0
  1  3  1  0  0  0
  2  7  1  0  0  0
  3  4  1  0  0  0
  3  5  1  0  0  0
  5  6  1  0  0  0
  5  7  1  0  0  0
  7 10  1  0  0  0
 10 11  1  0  0  0
 10 20  1  0  0  0
 11 12  2  0  0  0
 12 13  1  0  0  0
 13 14  1  0  0  0
 13 20  2  0  0  0
 14 15  2  0  0  0
 14 16  1  0  0  0
 16 17  1  0  0  0
 17 18  1  0  0  0
 17 19  2  0  0  0
 19 20  1  0  0  0
 38 40  1  0  0  0
 39 41  1  0  0  0
 33 34  1  0  0  0
 28 29  1  0  0  0
  4  8  1  0  0  0
  6  9  1  0  0  0
 16 21  1  0  0  0
 18 22  1  0  0  0
 18 23  1  0  0  0
M  END
> <minimizedAffinity>
-8.74504

$$$$
1JLR_GTP_A_303


 41 43  0  0  0  0  0  0  0  0999 V2000
   14.0827   87.7572   76.6013 C   0  0  0  0  0  0  0  0  0  0  0  0
   12.9956   87.7720   75.6294 O   0  0  0  0  0  0  0  0  0  0  0  0
   15.3897   87.8245   75.8076 C   0  0  0  0  0  0  0  0  0  0  0  0
   16.1961   86.6897   76.0937 O   0  0  0  0  0  0  0  0  0  0  0  0
   14.9777   87.9251   74.3238 C   0  0  0  0  0  0  0  0  0  0  0  0
   15.5696   86.9287   73.5104 O   0  0  0  0  0  0  0  0  0  0  0  0
   13.4726   87.8041   74.2907 C   0  0  0  0  0  0  0  0  0  0  0  0
   15.7058   85.8815   75.8761 H   0  0  0  0  0  0  0  0  0  0  0  0
   15.2973   86.0519   73.8234 H   0  0  0  0  0  0  0  0  0  0  0  0
   12.8016   88.9175   73.5591 N   0  0  0  0  0  0  0  0  0  0  0  0
   12.0602   88.8993   72.4035 C   0  0  0  0  0  0  0  0  0  0  0  0
   11.6145   90.0452   72.0142 N   0  0  0  0  0  0  0  0  0  0  0  0
   12.0580   90.9214   72.9317 C   0  0  0  0  0  0  0  0  0  0  0  0
   11.8858   92.3507   73.0355 C   0  0  0  0  0  0  0  0  0  0  0  0
   11.2484   93.0839   72.2278 O   0  0  0  0  0  0  0  0  0  0  0  0
   12.5420   92.9328   74.2077 N   0  0  0  0  0  0  0  0  0  0  0  0
   13.2598   92.1975   75.1373 C   0  0  0  0  0  0  0  0  0  0  0  0
   13.7999   92.8739   76.1510 N   0  0  0  0  0  0  0  0  0  0  0  0
   13.4298   90.8726   75.0549 N   0  0  0  0  0  0  0  0  0  0  0  0
   12.8075   90.2717   73.9280 C   0  0  0  0  0  0  0  0  0  0  0  0
   12.4689   93.9051   74.3436 H   0  0  0  0  0  0  0  0  0  0  0  0
   13.6762   93.8486   76.2138 H   0  0  0  0  0  0  0  0  0  0  0  0
   14.3225   92.3988   76.8369 H   0  0  0  0  0  0  0  0  0  0  0  0
   13.9049   88.8060   77.6993 C   0  0  0  0  0  0  0  0  0  0  0  0
   14.2983   88.2836   78.9901 O   0  0  0  0  0  0  0  0  0  0  0  0
   15.3514   88.8833   79.8541 P   0  0  0  0  0  0  0  0  0  0  0  0
   15.5834   88.0417   81.0600 O   0  0  0  0  0  0  0  0  0  0  0  0
   15.1179   90.3116   80.0609 O   0  0  0  0  0  0  0  0  0  0  0  0
   15.8175   90.6751   80.6260 H   0  0  0  0  0  0  0  0  0  0  0  0
   16.6754   88.6655   78.8905 O   0  0  0  0  0  0  0  0  0  0  0  0
   18.0984   89.2776   79.2690 P   0  0  0  0  0  0  0  0  0  0  0  0
   19.1294   88.5458   78.5082 O   0  0  0  0  0  0  0  0  0  0  0  0
   18.2248   89.3870   80.7204 O   0  0  0  0  0  0  0  0  0  0  0  0
   19.0923   89.7599   80.9423 H   0  0  0  0  0  0  0  0  0  0  0  0
   17.9505   90.7702   78.9608 O   0  0  0  0  0  0  0  0  0  0  0  0
   17.6579   91.3092   77.5388 P   0  0  0  0  0  0  0  0  0  0  0  0
   16.2021   91.5372   77.3726 O   0  0  0  0  0  0  0  0  0  0  0  0
   18.2223   92.6286   77.0087 O   0  0  0  0  0  0  0  0  0  0  0  0
   17.8770   90.2021   76.5752 O   0  0  0  0  0  0  0  0  0  0  0  0
   17.9134   92.7705   76.1002 H   0  0  0  0  0  0  0  0  0  0  0  0
   17.6992   90.5170   75.6751 H   0  0  0  0  0  0  0  0  0  0  0  0
 36 37  2  0  0  0
 36 38  1  0  0  0
 36 39  1  0  0  0
 36 35  1  0  0  0
 35 31  1  0  0  0
 31 32  2  0  0  0
 31 33  1  0  0  0
 31 30  1  0  0  0
 30 26  1  0  0  0
 26 27  2  0  0  0
 26 28  1  0  0  0
 26 25  1  0  0  0
 25 24  1  0  0  0
 24  1  1  0  0  0
  1  2  1  0  0  0
  1  3  1  0  0  0
  2  7  1  0  0  0
  3  4  1  0  0  0
  3  5  1  0  0  0
  5  6  1  0  0  0
  5  7  1  0  0  0
  7 10  1  0  0  0
 10 11  1  0  0  0
 10 20  1  0  0  0
 11 12  2  0  0  0
 12 13  1  0  0  0
 13 14  1  0  0  0
 13 20  2  0  0  0
 14 15  2  0  0  0
 14 16  1  0  0  0
 16 17  1  0  0  0
 17 18  1  0  0  0
 17 19  2  0  0  0
 19 20  1  0  0  0
 38 40  1  0  0  0
 39 41  1  0  0  0
 33 34  1  0  0  0
 28 29  1  0  0  0
  4  8  1  0  0  0
  6  9  1  0  0  0
 16 21  1  0  0  0
 18 22  1  0  0  0
 18 23  1  0  0  0
M  END
> <minimizedAffinity>
-8.71330

$$$$
1JLR_GTP_A_303


 41 43  0  0  0  0  0  0  0  0999 V2000
   13.0183   88.8121   73.6969 C   0  0  0  0  0  0  0  0  0  0  0  0
   12.1089   89.9187   73.4235 O   0  0  0  0  0  0  0  0  0  0  0  0
   14.4025   89.2421   73.2051 C   0  0  0  0  0  0  0  0  0  0  0  0
   14.8784   88.3319   72.2227 O   0  0  0  0  0  0  0  0  0  0  0  0
   14.2337   90.6819   72.6757 C   0  0  0  0  0  0  0  0  0  0  0  0
   14.6868   90.8448   71.3442 O   0  0  0  0  0  0  0  0  0  0  0  0
   12.7607   91.0010   72.7719 C   0  0  0  0  0  0  0  0  0  0  0  0
   14.2501   88.2951   71.4846 H   0  0  0  0  0  0  0  0  0  0  0  0
   14.1794   90.2634   70.7566 H   0  0  0  0  0  0  0  0  0  0  0  0
   12.4718   92.2631   73.5125 N   0  0  0  0  0  0  0  0  0  0  0  0
   11.5231   93.2288   73.2827 C   0  0  0  0  0  0  0  0  0  0  0  0
   11.5319   94.2203   74.1075 N   0  0  0  0  0  0  0  0  0  0  0  0
   12.5320   93.9517   74.9643 C   0  0  0  0  0  0  0  0  0  0  0  0
   13.0276   94.6902   76.1011 C   0  0  0  0  0  0  0  0  0  0  0  0
   12.5837   95.7962   76.5207 O   0  0  0  0  0  0  0  0  0  0  0  0
   14.1505   94.0365   76.7756 N   0  0  0  0  0  0  0  0  0  0  0  0
   14.6946   92.8263   76.3763 C   0  0  0  0  0  0  0  0  0  0  0  0
   15.7168   92.3610   77.0942 N   0  0  0  0  0  0  0  0  0  0  0  0
   14.2477   92.1300   75.3244 N   0  0  0  0  0  0  0  0  0  0  0  0
   13.1577   92.7346   74.6428 C   0  0  0  0  0  0  0  0  0  0  0  0
   14.5427   94.4837   77.5601 H   0  0  0  0  0  0  0  0  0  0  0  0
   16.0473   92.8714   77.8684 H   0  0  0  0  0  0  0  0  0  0  0  0
   16.1413   91.5069   76.8501 H   0  0  0  0  0  0  0  0  0  0  0  0
   12.9370   88.3272   75.1446 C   0  0  0  0  0  0  0  0  0  0  0  0
   13.9097   89.0012   75.9772 O   0  0  0  0  0  0  0  0  0  0  0  0
   14.8925   88.3060   76.8524 P   0  0  0  0  0  0  0  0  0  0  0  0
   16.1077   87.9276   76.0801 O   0  0  0  0  0  0  0  0  0  0  0  0
   14.2479   87.2655   77.6518 O   0  0  0  0  0  0  0  0  0  0  0  0
   14.9103   86.8304   78.2110 H   0  0  0  0  0  0  0  0  0  0  0  0
   15.3496   89.5591   77.8271 O   0  0  0  0  0  0  0  0  0  0  0  0
   15.1466   89.5097   79.4079 P   0  0  0  0  0  0  0  0  0  0  0  0
   13.7595   89.0855   79.6791 O   0  0  0  0  0  0  0  0  0  0  0  0
   15.6486   90.7406   80.0144 O   0  0  0  0  0  0  0  0  0  0  0  0
   15.5215   90.7027   80.9753 H   0  0  0  0  0  0  0  0  0  0  0  0
   16.2563   88.5725   79.8922 O   0  0  0  0  0  0  0  0  0  0  0  0
   17.7600   88.8603   79.6589 P   0  0  0  0  0  0  0  0  0  0  0  0
   18.4124   87.6800   79.0424 O   0  0  0  0  0  0  0  0  0  0  0  0
   18.2690   89.9820   78.7518 O   0  0  0  0  0  0  0  0  0  0  0  0
   18.4316   88.8889   80.9819 O   0  0  0  0  0  0  0  0  0  0  0  0
   19.2390   89.9823   78.7511 H   0  0  0  0  0  0  0  0  0  0  0  0
   19.3772   89.0681   80.8607 H   0  0  0  0  0  0  0  0  0  0  0  0
 36 37  2  0  0  0
 36 38  1  0  0  0
 36 39  1  0  0  0
 36 35  1  0  0  0
 35 31  1  0  0  0
 31 32  2  0  0  0
 31 33  1  0  0  0
 31 30  1  0  0  0
 30 26  1  0  0  0
 26 27  2  0  0  0
 26 28  1  0  0  0
 26 25  1  0  0  0
 25 24  1  0  0  0
 24  1  1  0  0  0
  1  2  1  0  0  0
  1  3  1  0  0  0
  2  7  1  0  0  0
  3  4  1  0  0  0
  3  5  1  0  0  0
  5  6  1  0  0  0
  5  7  1  0  0  0
  7 10  1  0  0  0
 10 11  1  0  0  0
 10 20  1  0  0  0
 11 12  2  0  0  0
 12 13  1  0  0  0
 13 14  1  0  0  0
 13 20  2  0  0  0
 14 15  2  0  0  0
 14 16  1  0  0  0
 16 17  1  0  0  0
 17 18  1  0  0  0
 17 19  2  0  0  0
 19 20  1  0  0  0
 38 40  1  0  0  0
 39 41  1  0  0  0
 33 34  1  0  0  0
 28 29  1  0  0  0
  4  8  1  0  0  0
  6  9  1  0  0  0
 16 21  1  0  0  0
 18 22  1  0  0  0
 18 23  1  0  0  0
M  END
> <minimizedAffinity>
-8.69220

$$$$
1JLR_GTP_A_303


 41 43  0  0  0  0  0  0  0  0999 V2000
   14.0515   88.9881   72.5680 C   0  0  0  0  0  0  0  0  0  0  0  0
   13.2521   90.1336   72.9867 O   0  0  0  0  0  0  0  0  0  0  0  0
   15.2700   89.5434   71.8264 C   0  0  0  0  0  0  0  0  0  0  0  0
   15.3109   89.0341   70.5002 O   0  0  0  0  0  0  0  0  0  0  0  0
   15.1379   91.0798   71.8889 C   0  0  0  0  0  0  0  0  0  0  0  0
   15.1914   91.6978   70.6162 O   0  0  0  0  0  0  0  0  0  0  0  0
   13.8140   91.3665   72.5568 C   0  0  0  0  0  0  0  0  0  0  0  0
   14.4921   89.2713   70.0373 H   0  0  0  0  0  0  0  0  0  0  0  0
   14.4617   91.3707   70.0671 H   0  0  0  0  0  0  0  0  0  0  0  0
   13.9234   92.2878   73.7248 N   0  0  0  0  0  0  0  0  0  0  0  0
   14.9305   92.4355   74.6463 C   0  0  0  0  0  0  0  0  0  0  0  0
   14.7216   93.3254   75.5562 N   0  0  0  0  0  0  0  0  0  0  0  0
   13.5109   93.8356   75.2729 C   0  0  0  0  0  0  0  0  0  0  0  0
   12.7383   94.8606   75.9332 C   0  0  0  0  0  0  0  0  0  0  0  0
   13.0821   95.5022   76.9658 O   0  0  0  0  0  0  0  0  0  0  0  0
   11.4485   95.1217   75.2916 N   0  0  0  0  0  0  0  0  0  0  0  0
   10.9994   94.4605   74.1597 C   0  0  0  0  0  0  0  0  0  0  0  0
    9.8003   94.8111   73.6951 N   0  0  0  0  0  0  0  0  0  0  0  0
   11.7026   93.5074   73.5366 N   0  0  0  0  0  0  0  0  0  0  0  0
   12.9612   93.2251   74.1321 C   0  0  0  0  0  0  0  0  0  0  0  0
   10.8652   95.8085   75.6882 H   0  0  0  0  0  0  0  0  0  0  0  0
    9.2811   95.5120   74.1517 H   0  0  0  0  0  0  0  0  0  0  0  0
    9.4338   94.3692   72.8953 H   0  0  0  0  0  0  0  0  0  0  0  0
   14.3429   88.0222   73.7167 C   0  0  0  0  0  0  0  0  0  0  0  0
   15.6487   88.2694   74.2893 O   0  0  0  0  0  0  0  0  0  0  0  0
   15.9768   88.1133   75.7325 P   0  0  0  0  0  0  0  0  0  0  0  0
   17.3185   88.6853   76.0308 O   0  0  0  0  0  0  0  0  0  0  0  0
   15.7033   86.7536   76.1947 O   0  0  0  0  0  0  0  0  0  0  0  0
   15.9258   86.6812   77.1361 H   0  0  0  0  0  0  0  0  0  0  0  0
   14.8831   89.1606   76.3931 O   0  0  0  0  0  0  0  0  0  0  0  0
   13.8197   88.6864   77.4825 P   0  0  0  0  0  0  0  0  0  0  0  0
   12.8856   87.7468   76.8329 O   0  0  0  0  0  0  0  0  0  0  0  0
   13.2867   89.8441   78.1969 O   0  0  0  0  0  0  0  0  0  0  0  0
   12.6411   89.5475   78.8572 H   0  0  0  0  0  0  0  0  0  0  0  0
   14.6808   88.1220   78.6159 O   0  0  0  0  0  0  0  0  0  0  0  0
   14.8780   88.8550   79.9657 P   0  0  0  0  0  0  0  0  0  0  0  0
   15.9317   88.1791   80.7605 O   0  0  0  0  0  0  0  0  0  0  0  0
   15.3244   90.3145   80.0709 O   0  0  0  0  0  0  0  0  0  0  0  0
   13.6845   88.5933   80.8078 O   0  0  0  0  0  0  0  0  0  0  0  0
   15.3829   90.5682   81.0053 H   0  0  0  0  0  0  0  0  0  0  0  0
   13.7856   89.0437   81.6609 H   0  0  0  0  0  0  0  0  0  0  0  0
 36 37  2  0  0  0
 36 38  1  0  0  0
 36 39  1  0  0  0
 36 35  1  0  0  0
 35 31  1  0  0  0
 31 32  2  0  0  0
 31 33  1  0  0  0
 31 30  1  0  0  0
 30 26  1  0  0  0
 26 27  2  0  0  0
 26 28  1  0  0  0
 26 25  1  0  0  0
 25 24  1  0  0  0
 24  1  1  0  0  0
  1  2  1  0  0  0
  1  3  1  0  0  0
  2  7  1  0  0  0
  3  4  1  0  0  0
  3  5  1  0  0  0
  5  6  1  0  0  0
  5  7  1  0  0  0
  7 10  1  0  0  0
 10 11  1  0  0  0
 10 20  1  0  0  0
 11 12  2  0  0  0
 12 13  1  0  0  0
 13 14  1  0  0  0
 13 20  2  0  0  0
 14 15  2  0  0  0
 14 16  1  0  0  0
 16 17  1  0  0  0
 17 18  1  0  0  0
 17 19  2  0  0  0
 19 20  1  0  0  0
 38 40  1  0  0  0
 39 41  1  0  0  0
 33 34  1  0  0  0
 28 29  1  0  0  0
  4  8  1  0  0  0
  6  9  1  0  0  0
 16 21  1  0  0  0
 18 22  1  0  0  0
 18 23  1  0  0  0
M  END
> <minimizedAffinity>
-8.67290

$$$$
1JLR_GTP_A_303


 41 43  0  0  0  0  0  0  0  0999 V2000
   13.4530   88.0501   76.8228 C   0  0  0  0  0  0  0  0  0  0  0  0
   12.9854   88.6607   75.5840 O   0  0  0  0  0  0  0  0  0  0  0  0
   14.6643   87.1862   76.4633 C   0  0  0  0  0  0  0  0  0  0  0  0
   14.4286   85.8337   76.8312 O   0  0  0  0  0  0  0  0  0  0  0  0
   14.8855   87.3793   74.9482 C   0  0  0  0  0  0  0  0  0  0  0  0
   14.9189   86.1607   74.2281 O   0  0  0  0  0  0  0  0  0  0  0  0
   13.7502   88.2472   74.4593 C   0  0  0  0  0  0  0  0  0  0  0  0
   13.6327   85.5102   76.3809 H   0  0  0  0  0  0  0  0  0  0  0  0
   14.0733   85.6979   74.3364 H   0  0  0  0  0  0  0  0  0  0  0  0
   14.2035   89.4524   73.7063 N   0  0  0  0  0  0  0  0  0  0  0  0
   14.0938   90.7853   74.0172 C   0  0  0  0  0  0  0  0  0  0  0  0
   14.5842   91.5989   73.1450 N   0  0  0  0  0  0  0  0  0  0  0  0
   15.0649   90.8126   72.1668 C   0  0  0  0  0  0  0  0  0  0  0  0
   15.7255   91.1425   70.9265 C   0  0  0  0  0  0  0  0  0  0  0  0
   15.9845   92.3062   70.5082 O   0  0  0  0  0  0  0  0  0  0  0  0
   16.0949   89.9688   70.1333 N   0  0  0  0  0  0  0  0  0  0  0  0
   15.8444   88.6624   70.5216 C   0  0  0  0  0  0  0  0  0  0  0  0
   16.2416   87.7011   69.6880 N   0  0  0  0  0  0  0  0  0  0  0  0
   15.2322   88.3398   71.6671 N   0  0  0  0  0  0  0  0  0  0  0  0
   14.8570   89.4544   72.4641 C   0  0  0  0  0  0  0  0  0  0  0  0
   16.5485   90.1165   69.2721 H   0  0  0  0  0  0  0  0  0  0  0  0
   16.6921   87.9359   68.8448 H   0  0  0  0  0  0  0  0  0  0  0  0
   16.0843   86.7562   69.9156 H   0  0  0  0  0  0  0  0  0  0  0  0
   13.6608   89.0719   77.9410 C   0  0  0  0  0  0  0  0  0  0  0  0
   14.1926   88.4438   79.1311 O   0  0  0  0  0  0  0  0  0  0  0  0
   15.2983   89.0043   79.9547 P   0  0  0  0  0  0  0  0  0  0  0  0
   15.4639   88.2244   81.2120 O   0  0  0  0  0  0  0  0  0  0  0  0
   15.1899   90.4576   80.0697 O   0  0  0  0  0  0  0  0  0  0  0  0
   15.9214   90.7947   80.6102 H   0  0  0  0  0  0  0  0  0  0  0  0
   16.5931   88.6120   79.0068 O   0  0  0  0  0  0  0  0  0  0  0  0
   18.0879   88.6814   79.5578 P   0  0  0  0  0  0  0  0  0  0  0  0
   18.5937   87.3011   79.6864 O   0  0  0  0  0  0  0  0  0  0  0  0
   18.1541   89.5767   80.7105 O   0  0  0  0  0  0  0  0  0  0  0  0
   19.0658   89.6134   81.0395 H   0  0  0  0  0  0  0  0  0  0  0  0
   18.8089   89.5839   78.5528 O   0  0  0  0  0  0  0  0  0  0  0  0
   18.0633   90.5906   77.6423 P   0  0  0  0  0  0  0  0  0  0  0  0
   19.0396   91.3827   76.8561 O   0  0  0  0  0  0  0  0  0  0  0  0
   17.0832   90.1654   76.5472 O   0  0  0  0  0  0  0  0  0  0  0  0
   17.4815   91.6468   78.5073 O   0  0  0  0  0  0  0  0  0  0  0  0
   16.7339   90.9534   76.1023 H   0  0  0  0  0  0  0  0  0  0  0  0
   17.0082   92.2906   77.9575 H   0  0  0  0  0  0  0  0  0  0  0  0
 36 37  2  0  0  0
 36 38  1  0  0  0
 36 39  1  0  0  0
 36 35  1  0  0  0
 35 31  1  0  0  0
 31 32  2  0  0  0
 31 33  1  0  0  0
 31 30  1  0  0  0
 30 26  1  0  0  0
 26 27  2  0  0  0
 26 28  1  0  0  0
 26 25  1  0  0  0
 25 24  1  0  0  0
 24  1  1  0  0  0
  1  2  1  0  0  0
  1  3  1  0  0  0
  2  7  1  0  0  0
  3  4  1  0  0  0
  3  5  1  0  0  0
  5  6  1  0  0  0
  5  7  1  0  0  0
  7 10  1  0  0  0
 10 11  1  0  0  0
 10 20  1  0  0  0
 11 12  2  0  0  0
 12 13  1  0  0  0
 13 14  1  0  0  0
 13 20  2  0  0  0
 14 15  2  0  0  0
 14 16  1  0  0  0
 16 17  1  0  0  0
 17 18  1  0  0  0
 17 19  2  0  0  0
 19 20  1  0  0  0
 38 40  1  0  0  0
 39 41  1  0  0  0
 33 34  1  0  0  0
 28 29  1  0  0  0
  4  8  1  0  0  0
  6  9  1  0  0  0
 16 21  1  0  0  0
 18 22  1  0  0  0
 18 23  1  0  0  0
M  END
> <minimizedAffinity>
-8.59592

$$$$
1JLR_GTP_A_303


 41 43  0  0  0  0  0  0  0  0999 V2000
   13.3520   88.0244   76.6042 C   0  0  0  0  0  0  0  0  0  0  0  0
   13.0010   88.5473   75.2891 O   0  0  0  0  0  0  0  0  0  0  0  0
   14.6177   87.1826   76.4248 C   0  0  0  0  0  0  0  0  0  0  0  0
   14.3818   85.8462   76.8470 O   0  0  0  0  0  0  0  0  0  0  0  0
   14.9920   87.2964   74.9319 C   0  0  0  0  0  0  0  0  0  0  0  0
   15.1346   86.0404   74.2939 O   0  0  0  0  0  0  0  0  0  0  0  0
   13.8912   88.0963   74.2767 C   0  0  0  0  0  0  0  0  0  0  0  0
   13.6470   85.4709   76.3370 H   0  0  0  0  0  0  0  0  0  0  0  0
   14.2953   85.5564   74.3416 H   0  0  0  0  0  0  0  0  0  0  0  0
   14.3881   89.2711   73.5035 N   0  0  0  0  0  0  0  0  0  0  0  0
   14.2424   89.5838   72.1744 C   0  0  0  0  0  0  0  0  0  0  0  0
   14.8039   90.6829   71.8000 N   0  0  0  0  0  0  0  0  0  0  0  0
   15.3771   91.1771   72.9106 C   0  0  0  0  0  0  0  0  0  0  0  0
   16.1496   92.3779   73.1222 C   0  0  0  0  0  0  0  0  0  0  0  0
   16.4483   93.2349   72.2433 O   0  0  0  0  0  0  0  0  0  0  0  0
   16.5959   92.5469   74.5063 N   0  0  0  0  0  0  0  0  0  0  0  0
   16.3113   91.6525   75.5257 C   0  0  0  0  0  0  0  0  0  0  0  0
   16.7905   91.9466   76.7343 N   0  0  0  0  0  0  0  0  0  0  0  0
   15.5980   90.5345   75.3459 N   0  0  0  0  0  0  0  0  0  0  0  0
   15.1481   90.3354   74.0131 C   0  0  0  0  0  0  0  0  0  0  0  0
   17.1304   93.3439   74.7259 H   0  0  0  0  0  0  0  0  0  0  0  0
   17.3155   92.7684   76.8690 H   0  0  0  0  0  0  0  0  0  0  0  0
   16.6194   91.3419   77.4922 H   0  0  0  0  0  0  0  0  0  0  0  0
   13.4126   89.1147   77.6743 C   0  0  0  0  0  0  0  0  0  0  0  0
   14.7540   89.2601   78.1972 O   0  0  0  0  0  0  0  0  0  0  0  0
   15.1013   89.2183   79.6438 P   0  0  0  0  0  0  0  0  0  0  0  0
   14.2007   88.2837   80.3732 O   0  0  0  0  0  0  0  0  0  0  0  0
   15.2639   90.5648   80.1895 O   0  0  0  0  0  0  0  0  0  0  0  0
   15.4892   90.5070   81.1312 H   0  0  0  0  0  0  0  0  0  0  0  0
   16.5687   88.4633   79.5677 O   0  0  0  0  0  0  0  0  0  0  0  0
   17.7447   89.0067   78.6380 P   0  0  0  0  0  0  0  0  0  0  0  0
   18.1230   90.3507   79.1157 O   0  0  0  0  0  0  0  0  0  0  0  0
   17.3956   88.8207   77.2315 O   0  0  0  0  0  0  0  0  0  0  0  0
   18.1155   89.1535   76.6729 H   0  0  0  0  0  0  0  0  0  0  0  0
   18.8190   87.9196   78.7304 O   0  0  0  0  0  0  0  0  0  0  0  0
   19.7516   87.7626   79.9567 P   0  0  0  0  0  0  0  0  0  0  0  0
   19.6698   86.3784   80.4820 O   0  0  0  0  0  0  0  0  0  0  0  0
   21.2671   87.9600   79.8893 O   0  0  0  0  0  0  0  0  0  0  0  0
   19.1576   88.5228   81.0843 O   0  0  0  0  0  0  0  0  0  0  0  0
   21.6517   87.8134   80.7677 H   0  0  0  0  0  0  0  0  0  0  0  0
   19.7261   88.4390   81.8658 H   0  0  0  0  0  0  0  0  0  0  0  0
 36 37  2  0  0  0
 36 38  1  0  0  0
 36 39  1  0  0  0
 36 35  1  0  0  0
 35 31  1  0  0  0
 31 32  2  0  0  0
 31 33  1  0  0  0
 31 30  1  0  0  0
 30 26  1  0  0  0
 26 27  2  0  0  0
 26 28  1  0  0  0
 26 25  1  0  0  0
 25 24  1  0  0  0
 24  1  1  0  0  0
  1  2  1  0  0  0
  1  3  1  0  0  0
  2  7  1  0  0  0
  3  4  1  0  0  0
  3  5  1  0  0  0
  5  6  1  0  0  0
  5  7  1  0  0  0
  7 10  1  0  0  0
 10 11  1  0  0  0
 10 20  1  0  0  0
 11 12  2  0  0  0
 12 13  1  0  0  0
 13 14  1  0  0  0
 13 20  2  0  0  0
 14 15  2  0  0  0
 14 16  1  0  0  0
 16 17  1  0  0  0
 17 18  1  0  0  0
 17 19  2  0  0  0
 19 20  1  0  0  0
 38 40  1  0  0  0
 39 41  1  0  0  0
 33 34  1  0  0  0
 28 29  1  0  0  0
  4  8  1  0  0  0
  6  9  1  0  0  0
 16 21  1  0  0  0
 18 22  1  0  0  0
 18 23  1  0  0  0
M  END
> <minimizedAffinity>
-8.43072

$$$$
1JLR_GTP_A_303


 41 43  0  0  0  0  0  0  0  0999 V2000
   13.3989   93.0089   74.3789 C   0  0  0  0  0  0  0  0  0  0  0  0
   14.4516   92.4336   73.5500 O   0  0  0  0  0  0  0  0  0  0  0  0
   12.0665   92.5049   73.8190 C   0  0  0  0  0  0  0  0  0  0  0  0
   11.2501   93.6025   73.4335 O   0  0  0  0  0  0  0  0  0  0  0  0
   12.4286   91.5690   72.6465 C   0  0  0  0  0  0  0  0  0  0  0  0
   11.7907   91.9212   71.4325 O   0  0  0  0  0  0  0  0  0  0  0  0
   13.9292   91.6415   72.4915 C   0  0  0  0  0  0  0  0  0  0  0  0
   11.7177   94.1370   72.7728 H   0  0  0  0  0  0  0  0  0  0  0  0
   12.0577   92.8176   71.1751 H   0  0  0  0  0  0  0  0  0  0  0  0
   14.5944   90.3065   72.5054 N   0  0  0  0  0  0  0  0  0  0  0  0
   15.5027   89.7594   71.6331 C   0  0  0  0  0  0  0  0  0  0  0  0
   15.8908   88.5626   71.9171 N   0  0  0  0  0  0  0  0  0  0  0  0
   15.2297   88.2398   73.0418 C   0  0  0  0  0  0  0  0  0  0  0  0
   15.2460   87.0345   73.8358 C   0  0  0  0  0  0  0  0  0  0  0  0
   15.9264   85.9967   73.5988 O   0  0  0  0  0  0  0  0  0  0  0  0
   14.3649   87.0943   75.0034 N   0  0  0  0  0  0  0  0  0  0  0  0
   13.5868   88.1935   75.3301 C   0  0  0  0  0  0  0  0  0  0  0  0
   12.8352   88.0931   76.4263 N   0  0  0  0  0  0  0  0  0  0  0  0
   13.5594   89.3175   74.6043 N   0  0  0  0  0  0  0  0  0  0  0  0
   14.4021   89.2962   73.4607 C   0  0  0  0  0  0  0  0  0  0  0  0
   14.3226   86.3062   75.5919 H   0  0  0  0  0  0  0  0  0  0  0  0
   12.8536   87.2672   76.9619 H   0  0  0  0  0  0  0  0  0  0  0  0
   12.2615   88.8448   76.7004 H   0  0  0  0  0  0  0  0  0  0  0  0
   13.6337   92.7791   75.8721 C   0  0  0  0  0  0  0  0  0  0  0  0
   14.9258   92.1732   76.1111 O   0  0  0  0  0  0  0  0  0  0  0  0
   15.2523   91.3278   77.2917 P   0  0  0  0  0  0  0  0  0  0  0  0
   14.0722   90.5166   77.6990 O   0  0  0  0  0  0  0  0  0  0  0  0
   15.9300   92.1039   78.3288 O   0  0  0  0  0  0  0  0  0  0  0  0
   16.1301   91.5291   79.0840 H   0  0  0  0  0  0  0  0  0  0  0  0
   16.3136   90.2656   76.6028 O   0  0  0  0  0  0  0  0  0  0  0  0
   16.8687   88.9997   77.3978 P   0  0  0  0  0  0  0  0  0  0  0  0
   17.9025   88.3535   76.5665 O   0  0  0  0  0  0  0  0  0  0  0  0
   15.7553   88.1998   77.9029 O   0  0  0  0  0  0  0  0  0  0  0  0
   16.1010   87.4323   78.3849 H   0  0  0  0  0  0  0  0  0  0  0  0
   17.3312   89.5802   78.7371 O   0  0  0  0  0  0  0  0  0  0  0  0
   17.6299   88.6999   79.9757 P   0  0  0  0  0  0  0  0  0  0  0  0
   18.1840   87.3930   79.5471 O   0  0  0  0  0  0  0  0  0  0  0  0
   18.6269   89.0961   81.0662 O   0  0  0  0  0  0  0  0  0  0  0  0
   16.3333   88.2738   80.5583 O   0  0  0  0  0  0  0  0  0  0  0  0
   18.6575   88.4026   81.7437 H   0  0  0  0  0  0  0  0  0  0  0  0
   16.4956   87.7197   81.3377 H   0  0  0  0  0  0  0  0  0  0  0  0
 36 37  2  0  0  0
 36 38  1  0  0  0
 36 39  1  0  0  0
 36 35  1  0  0  0
 35 31  1  0  0  0
 31 32  2  0  0  0
 31 33  1  0  0  0
 31 30  1  0  0  0
 30 26  1  0  0  0
 26 27  2  0  0  0
 26 28  1  0  0  0
 26 25  1  0  0  0
 25 24  1  0  0  0
 24  1  1  0  0  0
  1  2  1  0  0  0
  1  3  1  0  0  0
  2  7  1  0  0  0
  3  4  1  0  0  0
  3  5  1  0  0  0
  5  6  1  0  0  0
  5  7  1  0  0  0
  7 10  1  0  0  0
 10 11  1  0  0  0
 10 20  1  0  0  0
 11 12  2  0  0  0
 12 13  1  0  0  0
 13 14  1  0  0  0
 13 20  2  0  0  0
 14 15  2  0  0  0
 14 16  1  0  0  0
 16 17  1  0  0  0
 17 18  1  0  0  0
 17 19  2  0  0  0
 19 20  1  0  0  0
 38 40  1  0  0  0
 39 41  1  0  0  0
 33 34  1  0  0  0
 28 29  1  0  0  0
  4  8  1  0  0  0
  6  9  1  0  0  0
 16 21  1  0  0  0
 18 22  1  0  0  0
 18 23  1  0  0  0
M  END
> <minimizedAffinity>
-8.37198

$$$$
1JLR_GTP_A_303


 41 43  0  0  0  0  0  0  0  0999 V2000
   14.2050   90.9845   76.0134 C   0  0  0  0  0  0  0  0  0  0  0  0
   14.8344   90.2018   74.9562 O   0  0  0  0  0  0  0  0  0  0  0  0
   12.9881   91.6741   75.3918 C   0  0  0  0  0  0  0  0  0  0  0  0
   13.1030   93.0845   75.5240 O   0  0  0  0  0  0  0  0  0  0  0  0
   12.9372   91.1983   73.9245 C   0  0  0  0  0  0  0  0  0  0  0  0
   12.9059   92.2634   72.9922 O   0  0  0  0  0  0  0  0  0  0  0  0
   14.1670   90.3484   73.7097 C   0  0  0  0  0  0  0  0  0  0  0  0
   13.9205   93.3838   75.0962 H   0  0  0  0  0  0  0  0  0  0  0  0
   13.7065   92.8023   73.0899 H   0  0  0  0  0  0  0  0  0  0  0  0
   13.8673   88.9971   73.1536 N   0  0  0  0  0  0  0  0  0  0  0  0
   12.7476   88.5318   72.5092 C   0  0  0  0  0  0  0  0  0  0  0  0
   12.7900   87.2936   72.1510 N   0  0  0  0  0  0  0  0  0  0  0  0
   13.9930   86.8541   72.5583 C   0  0  0  0  0  0  0  0  0  0  0  0
   14.6138   85.5560   72.4452 C   0  0  0  0  0  0  0  0  0  0  0  0
   14.1033   84.5312   71.9110 O   0  0  0  0  0  0  0  0  0  0  0  0
   15.9548   85.4989   73.0297 N   0  0  0  0  0  0  0  0  0  0  0  0
   16.5821   86.5767   73.6338 C   0  0  0  0  0  0  0  0  0  0  0  0
   17.8050   86.3650   74.1202 N   0  0  0  0  0  0  0  0  0  0  0  0
   16.0200   87.7859   73.7479 N   0  0  0  0  0  0  0  0  0  0  0  0
   14.7158   87.8796   73.1926 C   0  0  0  0  0  0  0  0  0  0  0  0
   16.4402   84.6432   72.9913 H   0  0  0  0  0  0  0  0  0  0  0  0
   18.2206   85.4764   74.0375 H   0  0  0  0  0  0  0  0  0  0  0  0
   18.2926   87.0972   74.5621 H   0  0  0  0  0  0  0  0  0  0  0  0
   13.9439   90.1645   77.2771 C   0  0  0  0  0  0  0  0  0  0  0  0
   15.1780   89.8664   77.9713 O   0  0  0  0  0  0  0  0  0  0  0  0
   15.2549   89.2070   79.3033 P   0  0  0  0  0  0  0  0  0  0  0  0
   14.2445   88.1187   79.4095 O   0  0  0  0  0  0  0  0  0  0  0  0
   15.3026   90.1932   80.3814 O   0  0  0  0  0  0  0  0  0  0  0  0
   15.3522   89.7363   81.2356 H   0  0  0  0  0  0  0  0  0  0  0  0
   16.7182   88.4522   79.1688 O   0  0  0  0  0  0  0  0  0  0  0  0
   18.0870   89.2187   79.4545 P   0  0  0  0  0  0  0  0  0  0  0  0
   18.4395   89.0146   80.8727 O   0  0  0  0  0  0  0  0  0  0  0  0
   18.0179   90.5784   78.9241 O   0  0  0  0  0  0  0  0  0  0  0  0
   18.8536   91.0376   79.1018 H   0  0  0  0  0  0  0  0  0  0  0  0
   19.0552   88.6412   78.4183 O   0  0  0  0  0  0  0  0  0  0  0  0
   18.5789   87.8852   77.1535 P   0  0  0  0  0  0  0  0  0  0  0  0
   19.6934   87.7692   76.1823 O   0  0  0  0  0  0  0  0  0  0  0  0
   18.0643   86.4448   77.1805 O   0  0  0  0  0  0  0  0  0  0  0  0
   17.6537   88.7752   76.4090 O   0  0  0  0  0  0  0  0  0  0  0  0
   17.8210   86.1714   76.2822 H   0  0  0  0  0  0  0  0  0  0  0  0
   17.3414   88.3217   75.6104 H   0  0  0  0  0  0  0  0  0  0  0  0
 36 37  2  0  0  0
 36 38  1  0  0  0
 36 39  1  0  0  0
 36 35  1  0  0  0
 35 31  1  0  0  0
 31 32  2  0  0  0
 31 33  1  0  0  0
 31 30  1  0  0  0
 30 26  1  0  0  0
 26 27  2  0  0  0
 26 28  1  0  0  0
 26 25  1  0  0  0
 25 24  1  0  0  0
 24  1  1  0  0  0
  1  2  1  0  0  0
  1  3  1  0  0  0
  2  7  1  0  0  0
  3  4  1  0  0  0
  3  5  1  0  0  0
  5  6  1  0  0  0
  5  7  1  0  0  0
  7 10  1  0  0  0
 10 11  1  0  0  0
 10 20  1  0  0  0
 11 12  2  0  0  0
 12 13  1  0  0  0
 13 14  1  0  0  0
 13 20  2  0  0  0
 14 15  2  0  0  0
 14 16  1  0  0  0
 16 17  1  0  0  0
 17 18  1  0  0  0
 17 19  2  0  0  0
 19 20  1  0  0  0
 38 40  1  0  0  0
 39 41  1  0  0  0
 33 34  1  0  0  0
 28 29  1  0  0  0
  4  8  1  0  0  0
  6  9  1  0  0  0
 16 21  1  0  0  0
 18 22  1  0  0  0
 18 23  1  0  0  0
M  END
> <minimizedAffinity>
-8.22860

$$$$
