3AI8_HNQ_B_255


 15 16  0  0  0  0  0  0  0  0999 V2000
  -34.6742  -10.2637  -46.3020 C   0  0  0  0  0  0  0  0  0  0  0  0
  -34.7574   -9.6022  -45.2686 C   0  0  0  0  0  0  0  0  0  0  0  0
  -36.7658  -12.9786  -45.6326 N   0  0  0  0  0  0  0  0  0  0  0  0
  -35.5235  -10.0229  -44.2388 C   0  0  0  0  0  0  0  0  0  0  0  0
  -37.0248  -11.6173  -43.3361 O   0  0  0  0  0  0  0  0  0  0  0  0
  -36.2056  -11.1494  -44.3595 C   0  0  0  0  0  0  0  0  0  0  0  0
  -36.0899  -11.8285  -45.5045 C   0  0  0  0  0  0  0  0  0  0  0  0
  -36.6612  -13.5997  -46.7273 C   0  0  0  0  0  0  0  0  0  0  0  0
  -35.8987  -13.1604  -47.7477 C   0  0  0  0  0  0  0  0  0  0  0  0
  -35.2520  -12.0972  -47.6242 C   0  0  0  0  0  0  0  0  0  0  0  0
  -35.3333  -11.3809  -46.4627 C   0  0  0  0  0  0  0  0  0  0  0  0
  -37.0990  -11.1335  -42.5371 H   0  0  0  0  0  0  0  0  0  0  0  0
  -33.8562   -9.8328  -47.2285 N   0  0  0  0  0  0  0  0  0  0  0  0
  -34.2071   -9.0659  -48.0085 O   0  0  0  0  0  0  0  0  0  0  0  0
  -32.9327  -10.1822  -47.1781 O   0  0  0  0  0  0  0  0  0  0  0  0
  1 13  1  0  0  0
  1  2  2  0  0  0
  1 11  1  0  0  0
 13 14  1  0  0  0
 13 15  2  0  0  0
  2  4  1  0  0  0
  3  7  2  0  0  0
  3  8  1  0  0  0
  4  6  2  0  0  0
  5  6  1  0  0  0
  6  7  1  0  0  0
  7 11  1  0  0  0
  8  9  2  0  0  0
  9 10  1  0  0  0
 10 11  2  0  0  0
  5 12  1  0  0  0
M  CHG 1  13   1
M  CHG 1  14  -1
M  END
> <minimizedAffinity>
-6.11966

$$$$
3AI8_HNQ_B_255


 15 16  0  0  0  0  0  0  0  0999 V2000
  -37.3434  -11.4300  -46.1613 C   0  0  0  0  0  0  0  0  0  0  0  0
  -37.4178  -11.8651  -45.0134 C   0  0  0  0  0  0  0  0  0  0  0  0
  -33.9908  -10.4816  -46.3950 N   0  0  0  0  0  0  0  0  0  0  0  0
  -36.3369  -11.8658  -44.2035 C   0  0  0  0  0  0  0  0  0  0  0  0
  -34.0357  -11.4081  -43.8783 O   0  0  0  0  0  0  0  0  0  0  0  0
  -35.1838  -11.4114  -44.6650 C   0  0  0  0  0  0  0  0  0  0  0  0
  -35.1507  -10.9573  -45.9213 C   0  0  0  0  0  0  0  0  0  0  0  0
  -33.9706  -10.0733  -47.5900 C   0  0  0  0  0  0  0  0  0  0  0  0
  -35.0570  -10.0881  -48.3867 C   0  0  0  0  0  0  0  0  0  0  0  0
  -36.1454  -10.5140  -47.9416 C   0  0  0  0  0  0  0  0  0  0  0  0
  -36.2230  -10.9742  -46.6567 C   0  0  0  0  0  0  0  0  0  0  0  0
  -34.0696  -11.7287  -42.9986 H   0  0  0  0  0  0  0  0  0  0  0  0
  -38.4473  -11.3924  -46.8637 N   0  0  0  0  0  0  0  0  0  0  0  0
  -38.7428  -12.2748  -47.5373 O   0  0  0  0  0  0  0  0  0  0  0  0
  -39.0042  -10.5850  -46.7398 O   0  0  0  0  0  0  0  0  0  0  0  0
  1 13  1  0  0  0
  1  2  2  0  0  0
  1 11  1  0  0  0
 13 14  1  0  0  0
 13 15  2  0  0  0
  2  4  1  0  0  0
  3  7  2  0  0  0
  3  8  1  0  0  0
  4  6  2  0  0  0
  5  6  1  0  0  0
  6  7  1  0  0  0
  7 11  1  0  0  0
  8  9  2  0  0  0
  9 10  1  0  0  0
 10 11  2  0  0  0
  5 12  1  0  0  0
M  CHG 1  13   1
M  CHG 1  14  -1
M  END
> <minimizedAffinity>
-5.90228

$$$$
3AI8_HNQ_B_255


 15 16  0  0  0  0  0  0  0  0999 V2000
  -35.7503  -11.7243  -46.7357 C   0  0  0  0  0  0  0  0  0  0  0  0
  -36.4197  -12.1014  -45.7754 C   0  0  0  0  0  0  0  0  0  0  0  0
  -34.2541   -8.8134  -45.5184 N   0  0  0  0  0  0  0  0  0  0  0  0
  -36.4366  -11.3942  -44.6248 C   0  0  0  0  0  0  0  0  0  0  0  0
  -35.6722   -9.5421  -43.3615 O   0  0  0  0  0  0  0  0  0  0  0  0
  -35.7054  -10.2963  -44.5307 C   0  0  0  0  0  0  0  0  0  0  0  0
  -34.9881   -9.9319  -45.5976 C   0  0  0  0  0  0  0  0  0  0  0  0
  -33.5671   -8.4919  -46.5282 C   0  0  0  0  0  0  0  0  0  0  0  0
  -33.5555   -9.2145  -47.6653 C   0  0  0  0  0  0  0  0  0  0  0  0
  -34.2539  -10.2485  -47.7490 C   0  0  0  0  0  0  0  0  0  0  0  0
  -35.0124  -10.6467  -46.6836 C   0  0  0  0  0  0  0  0  0  0  0  0
  -36.1789   -9.8063  -42.6189 H   0  0  0  0  0  0  0  0  0  0  0  0
  -35.8397  -12.4186  -47.8417 N   0  0  0  0  0  0  0  0  0  0  0  0
  -35.4802  -13.5090  -47.8789 O   0  0  0  0  0  0  0  0  0  0  0  0
  -36.2631  -11.9531  -48.6043 O   0  0  0  0  0  0  0  0  0  0  0  0
  1 13  1  0  0  0
  1  2  2  0  0  0
  1 11  1  0  0  0
 13 14  1  0  0  0
 13 15  2  0  0  0
  2  4  1  0  0  0
  3  7  2  0  0  0
  3  8  1  0  0  0
  4  6  2  0  0  0
  5  6  1  0  0  0
  6  7  1  0  0  0
  7 11  1  0  0  0
  8  9  2  0  0  0
  9 10  1  0  0  0
 10 11  2  0  0  0
  5 12  1  0  0  0
M  CHG 1  13   1
M  CHG 1  14  -1
M  END
> <minimizedAffinity>
-5.88147

$$$$
3AI8_HNQ_B_255


 15 16  0  0  0  0  0  0  0  0999 V2000
  -35.7432  -10.4233  -45.2450 C   0  0  0  0  0  0  0  0  0  0  0  0
  -34.6417  -10.8262  -45.6150 C   0  0  0  0  0  0  0  0  0  0  0  0
  -37.9359  -12.5167  -46.9779 N   0  0  0  0  0  0  0  0  0  0  0  0
  -34.5391  -11.8412  -46.5003 C   0  0  0  0  0  0  0  0  0  0  0  0
  -35.5895  -13.4791  -47.8511 O   0  0  0  0  0  0  0  0  0  0  0  0
  -35.6402  -12.4170  -46.9531 C   0  0  0  0  0  0  0  0  0  0  0  0
  -36.8131  -11.9500  -46.5151 C   0  0  0  0  0  0  0  0  0  0  0  0
  -39.0361  -12.0770  -46.5408 C   0  0  0  0  0  0  0  0  0  0  0  0
  -39.1194  -11.0689  -45.6507 C   0  0  0  0  0  0  0  0  0  0  0  0
  -38.0741  -10.5255  -45.2312 C   0  0  0  0  0  0  0  0  0  0  0  0
  -36.8552  -10.9658  -45.6662 C   0  0  0  0  0  0  0  0  0  0  0  0
  -34.7619  -13.7991  -48.1520 H   0  0  0  0  0  0  0  0  0  0  0  0
  -35.7676   -9.3889  -44.4433 N   0  0  0  0  0  0  0  0  0  0  0  0
  -35.7148   -8.3211  -44.8637 O   0  0  0  0  0  0  0  0  0  0  0  0
  -35.8705   -9.5966  -43.4822 O   0  0  0  0  0  0  0  0  0  0  0  0
  1 13  1  0  0  0
  1  2  2  0  0  0
  1 11  1  0  0  0
 13 14  1  0  0  0
 13 15  2  0  0  0
  2  4  1  0  0  0
  3  7  2  0  0  0
  3  8  1  0  0  0
  4  6  2  0  0  0
  5  6  1  0  0  0
  6  7  1  0  0  0
  7 11  1  0  0  0
  8  9  2  0  0  0
  9 10  1  0  0  0
 10 11  2  0  0  0
  5 12  1  0  0  0
M  CHG 1  13   1
M  CHG 1  14  -1
M  END
> <minimizedAffinity>
-5.77943

$$$$
3AI8_HNQ_B_255


 15 16  0  0  0  0  0  0  0  0999 V2000
  -35.7040  -10.2042  -49.2563 C   0  0  0  0  0  0  0  0  0  0  0  0
  -34.9991   -9.3233  -49.7459 C   0  0  0  0  0  0  0  0  0  0  0  0
  -34.0043  -10.9812  -46.3066 N   0  0  0  0  0  0  0  0  0  0  0  0
  -33.8700   -8.9176  -49.1255 C   0  0  0  0  0  0  0  0  0  0  0  0
  -32.3947   -9.0683  -47.2784 O   0  0  0  0  0  0  0  0  0  0  0  0
  -33.5371   -9.4640  -47.9681 C   0  0  0  0  0  0  0  0  0  0  0  0
  -34.3391  -10.4107  -47.4722 C   0  0  0  0  0  0  0  0  0  0  0  0
  -34.7817  -11.8610  -45.8414 C   0  0  0  0  0  0  0  0  0  0  0  0
  -35.9092  -12.2473  -46.4700 C   0  0  0  0  0  0  0  0  0  0  0  0
  -36.2146  -11.7303  -47.5669 C   0  0  0  0  0  0  0  0  0  0  0  0
  -35.4122  -10.7681  -48.1139 C   0  0  0  0  0  0  0  0  0  0  0  0
  -31.8389   -8.4035  -47.6350 H   0  0  0  0  0  0  0  0  0  0  0  0
  -36.7427  -10.5981  -49.9485 N   0  0  0  0  0  0  0  0  0  0  0  0
  -37.7826  -10.1531  -49.7481 O   0  0  0  0  0  0  0  0  0  0  0  0
  -36.5557  -11.2597  -50.6589 O   0  0  0  0  0  0  0  0  0  0  0  0
  1 13  1  0  0  0
  1  2  2  0  0  0
  1 11  1  0  0  0
 13 14  1  0  0  0
 13 15  2  0  0  0
  2  4  1  0  0  0
  3  7  2  0  0  0
  3  8  1  0  0  0
  4  6  2  0  0  0
  5  6  1  0  0  0
  6  7  1  0  0  0
  7 11  1  0  0  0
  8  9  2  0  0  0
  9 10  1  0  0  0
 10 11  2  0  0  0
  5 12  1  0  0  0
M  CHG 1  13   1
M  CHG 1  14  -1
M  END
> <minimizedAffinity>
-5.75586

$$$$
3AI8_HNQ_B_255


 15 16  0  0  0  0  0  0  0  0999 V2000
  -34.7677  -10.3002  -47.2711 C   0  0  0  0  0  0  0  0  0  0  0  0
  -35.2716  -10.2273  -48.3906 C   0  0  0  0  0  0  0  0  0  0  0  0
  -37.2958  -11.8189  -45.4012 N   0  0  0  0  0  0  0  0  0  0  0  0
  -36.5257  -10.6763  -48.6143 C   0  0  0  0  0  0  0  0  0  0  0  0
  -38.4926  -11.7144  -47.7993 O   0  0  0  0  0  0  0  0  0  0  0  0
  -37.2048  -11.2188  -47.6176 C   0  0  0  0  0  0  0  0  0  0  0  0
  -36.6118  -11.2837  -46.4219 C   0  0  0  0  0  0  0  0  0  0  0  0
  -36.7154  -11.8903  -44.2818 C   0  0  0  0  0  0  0  0  0  0  0  0
  -35.4600  -11.4451  -44.0788 C   0  0  0  0  0  0  0  0  0  0  0  0
  -34.8260  -10.9281  -45.0247 C   0  0  0  0  0  0  0  0  0  0  0  0
  -35.4036  -10.8309  -46.2599 C   0  0  0  0  0  0  0  0  0  0  0  0
  -38.8995  -11.6640  -48.6418 H   0  0  0  0  0  0  0  0  0  0  0  0
  -33.5779   -9.7787  -47.1112 N   0  0  0  0  0  0  0  0  0  0  0  0
  -33.4546   -8.7286  -46.6622 O   0  0  0  0  0  0  0  0  0  0  0  0
  -32.8198  -10.3603  -47.3652 O   0  0  0  0  0  0  0  0  0  0  0  0
  1 13  1  0  0  0
  1  2  2  0  0  0
  1 11  1  0  0  0
 13 14  1  0  0  0
 13 15  2  0  0  0
  2  4  1  0  0  0
  3  7  2  0  0  0
  3  8  1  0  0  0
  4  6  2  0  0  0
  5  6  1  0  0  0
  6  7  1  0  0  0
  7 11  1  0  0  0
  8  9  2  0  0  0
  9 10  1  0  0  0
 10 11  2  0  0  0
  5 12  1  0  0  0
M  CHG 1  13   1
M  CHG 1  14  -1
M  END
> <minimizedAffinity>
-5.69813

$$$$
3AI8_HNQ_B_255


 15 16  0  0  0  0  0  0  0  0999 V2000
  -36.4923  -12.4046  -46.1735 C   0  0  0  0  0  0  0  0  0  0  0  0
  -36.1705  -12.4230  -44.9867 C   0  0  0  0  0  0  0  0  0  0  0  0
  -34.8716   -9.5450  -47.3524 N   0  0  0  0  0  0  0  0  0  0  0  0
  -35.3811  -11.4565  -44.4699 C   0  0  0  0  0  0  0  0  0  0  0  0
  -34.1041   -9.4862  -44.7830 O   0  0  0  0  0  0  0  0  0  0  0  0
  -34.9359  -10.4947  -45.2608 C   0  0  0  0  0  0  0  0  0  0  0  0
  -35.3055  -10.5224  -46.5446 C   0  0  0  0  0  0  0  0  0  0  0  0
  -35.2139   -9.5949  -48.5670 C   0  0  0  0  0  0  0  0  0  0  0  0
  -35.9953  -10.5719  -49.0674 C   0  0  0  0  0  0  0  0  0  0  0  0
  -36.4172  -11.4750  -48.3122 C   0  0  0  0  0  0  0  0  0  0  0  0
  -36.0724  -11.4737  -46.9893 C   0  0  0  0  0  0  0  0  0  0  0  0
  -33.8508   -9.4760  -43.8810 H   0  0  0  0  0  0  0  0  0  0  0  0
  -37.3185  -13.3314  -46.5877 N   0  0  0  0  0  0  0  0  0  0  0  0
  -36.9224  -14.2943  -47.0730 O   0  0  0  0  0  0  0  0  0  0  0  0
  -38.2765  -13.1551  -46.4184 O   0  0  0  0  0  0  0  0  0  0  0  0
  1 13  1  0  0  0
  1  2  2  0  0  0
  1 11  1  0  0  0
 13 14  1  0  0  0
 13 15  2  0  0  0
  2  4  1  0  0  0
  3  7  2  0  0  0
  3  8  1  0  0  0
  4  6  2  0  0  0
  5  6  1  0  0  0
  6  7  1  0  0  0
  7 11  1  0  0  0
  8  9  2  0  0  0
  9 10  1  0  0  0
 10 11  2  0  0  0
  5 12  1  0  0  0
M  CHG 1  13   1
M  CHG 1  14  -1
M  END
> <minimizedAffinity>
-5.68707

$$$$
3AI8_HNQ_B_255


 15 16  0  0  0  0  0  0  0  0999 V2000
  -34.7257   -9.8410  -46.6093 C   0  0  0  0  0  0  0  0  0  0  0  0
  -34.6474  -10.7109  -45.7434 C   0  0  0  0  0  0  0  0  0  0  0  0
  -36.1868  -11.5576  -49.2762 N   0  0  0  0  0  0  0  0  0  0  0  0
  -35.0726  -11.9694  -45.9881 C   0  0  0  0  0  0  0  0  0  0  0  0
  -36.0686  -13.5315  -47.4641 O   0  0  0  0  0  0  0  0  0  0  0  0
  -35.5975  -12.2558  -47.1676 C   0  0  0  0  0  0  0  0  0  0  0  0
  -35.6693  -11.2753  -48.0726 C   0  0  0  0  0  0  0  0  0  0  0  0
  -36.2651  -10.6163  -50.1145 C   0  0  0  0  0  0  0  0  0  0  0  0
  -35.8438   -9.3641  -49.8501 C   0  0  0  0  0  0  0  0  0  0  0  0
  -35.3432   -9.1020  -48.7345 C   0  0  0  0  0  0  0  0  0  0  0  0
  -35.2396  -10.0817  -47.7867 C   0  0  0  0  0  0  0  0  0  0  0  0
  -36.0136  -14.2121  -46.8224 H   0  0  0  0  0  0  0  0  0  0  0  0
  -34.2270   -8.6642  -46.3272 N   0  0  0  0  0  0  0  0  0  0  0  0
  -34.9003   -7.8237  -45.9274 O   0  0  0  0  0  0  0  0  0  0  0  0
  -33.2497   -8.5754  -46.4470 O   0  0  0  0  0  0  0  0  0  0  0  0
  1 13  1  0  0  0
  1  2  2  0  0  0
  1 11  1  0  0  0
 13 14  1  0  0  0
 13 15  2  0  0  0
  2  4  1  0  0  0
  3  7  2  0  0  0
  3  8  1  0  0  0
  4  6  2  0  0  0
  5  6  1  0  0  0
  6  7  1  0  0  0
  7 11  1  0  0  0
  8  9  2  0  0  0
  9 10  1  0  0  0
 10 11  2  0  0  0
  5 12  1  0  0  0
M  CHG 1  13   1
M  CHG 1  14  -1
M  END
> <minimizedAffinity>
-5.67997

$$$$
3AI8_HNQ_B_255


 15 16  0  0  0  0  0  0  0  0999 V2000
  -35.2766  -11.1691  -45.8211 C   0  0  0  0  0  0  0  0  0  0  0  0
  -35.6267  -12.2222  -46.3510 C   0  0  0  0  0  0  0  0  0  0  0  0
  -35.5400   -8.8786  -48.4438 N   0  0  0  0  0  0  0  0  0  0  0  0
  -35.9740  -12.2569  -47.6558 C   0  0  0  0  0  0  0  0  0  0  0  0
  -36.3223  -11.1147  -49.7015 O   0  0  0  0  0  0  0  0  0  0  0  0
  -35.9551  -11.1372  -48.3592 C   0  0  0  0  0  0  0  0  0  0  0  0
  -35.5762  -10.0169  -47.7372 C   0  0  0  0  0  0  0  0  0  0  0  0
  -35.1978   -7.8247  -47.8378 C   0  0  0  0  0  0  0  0  0  0  0  0
  -34.8628   -7.8071  -46.5328 C   0  0  0  0  0  0  0  0  0  0  0  0
  -34.8775   -8.8709  -45.8755 C   0  0  0  0  0  0  0  0  0  0  0  0
  -35.2462  -10.0404  -46.4796 C   0  0  0  0  0  0  0  0  0  0  0  0
  -36.5865  -11.9059  -50.1282 H   0  0  0  0  0  0  0  0  0  0  0  0
  -34.8838  -11.2242  -44.5738 N   0  0  0  0  0  0  0  0  0  0  0  0
  -35.5774  -10.8786  -43.7258 O   0  0  0  0  0  0  0  0  0  0  0  0
  -33.9858  -11.6106  -44.4262 O   0  0  0  0  0  0  0  0  0  0  0  0
  1 13  1  0  0  0
  1  2  2  0  0  0
  1 11  1  0  0  0
 13 14  1  0  0  0
 13 15  2  0  0  0
  2  4  1  0  0  0
  3  7  2  0  0  0
  3  8  1  0  0  0
  4  6  2  0  0  0
  5  6  1  0  0  0
  6  7  1  0  0  0
  7 11  1  0  0  0
  8  9  2  0  0  0
  9 10  1  0  0  0
 10 11  2  0  0  0
  5 12  1  0  0  0
M  CHG 1  13   1
M  CHG 1  14  -1
M  END
> <minimizedAffinity>
-5.61730

$$$$
3AI8_HNQ_B_255


 15 16  0  0  0  0  0  0  0  0999 V2000
  -36.5401  -10.8987  -48.1944 C   0  0  0  0  0  0  0  0  0  0  0  0
  -36.7825  -11.8838  -47.4992 C   0  0  0  0  0  0  0  0  0  0  0  0
  -33.3408   -9.9904  -47.1301 N   0  0  0  0  0  0  0  0  0  0  0  0
  -35.8854  -12.3265  -46.5917 C   0  0  0  0  0  0  0  0  0  0  0  0
  -33.7601  -12.1277  -45.5648 O   0  0  0  0  0  0  0  0  0  0  0  0
  -34.7268  -11.7006  -46.4706 C   0  0  0  0  0  0  0  0  0  0  0  0
  -34.5060  -10.6409  -47.2539 C   0  0  0  0  0  0  0  0  0  0  0  0
  -33.1389   -9.0022  -47.8901 C   0  0  0  0  0  0  0  0  0  0  0  0
  -34.0421   -8.5796  -48.7963 C   0  0  0  0  0  0  0  0  0  0  0  0
  -35.1379   -9.1730  -48.9012 C   0  0  0  0  0  0  0  0  0  0  0  0
  -35.4069  -10.2532  -48.1077 C   0  0  0  0  0  0  0  0  0  0  0  0
  -33.9249  -12.8721  -45.0200 H   0  0  0  0  0  0  0  0  0  0  0  0
  -37.4846  -10.4829  -48.9995 N   0  0  0  0  0  0  0  0  0  0  0  0
  -38.2276   -9.6744  -48.6619 O   0  0  0  0  0  0  0  0  0  0  0  0
  -37.4803  -10.8821  -49.9040 O   0  0  0  0  0  0  0  0  0  0  0  0
  1 13  1  0  0  0
  1  2  2  0  0  0
  1 11  1  0  0  0
 13 14  1  0  0  0
 13 15  2  0  0  0
  2  4  1  0  0  0
  3  7  2  0  0  0
  3  8  1  0  0  0
  4  6  2  0  0  0
  5  6  1  0  0  0
  6  7  1  0  0  0
  7 11  1  0  0  0
  8  9  2  0  0  0
  9 10  1  0  0  0
 10 11  2  0  0  0
  5 12  1  0  0  0
M  CHG 1  13   1
M  CHG 1  14  -1
M  END
> <minimizedAffinity>
-5.61434

$$$$
