2WZS_MVL_A_801


 18 19  0  0  0  0  0  0  0  0999 V2000
   44.1816   24.6055  101.0604 C   0  0  0  0  0  0  0  0  0  0  0  0
   43.9835   23.4342  100.4641 N   0  0  0  0  0  0  0  0  0  0  0  0
   44.7094   23.5337  103.2557 C   0  0  0  0  0  0  0  0  0  0  0  0
   44.0460   22.2901  102.6026 C   0  0  0  0  0  0  0  0  0  0  0  0
   44.3266   22.1363  101.0973 C   0  0  0  0  0  0  0  0  0  0  0  0
   43.1360   24.9990   99.1952 C   0  0  0  0  0  0  0  0  0  0  0  0
   43.3069   23.6410   99.3272 C   0  0  0  0  0  0  0  0  0  0  0  0
   43.6866   25.5816  100.2823 N   0  0  0  0  0  0  0  0  0  0  0  0
   43.9211   23.9708  104.3591 O   0  0  0  0  0  0  0  0  0  0  0  0
   44.4193   25.9470  103.0040 O   0  0  0  0  0  0  0  0  0  0  0  0
   44.4585   21.0909  103.2819 O   0  0  0  0  0  0  0  0  0  0  0  0
   44.8961   24.7612  102.3530 C   0  0  0  0  0  0  0  0  0  0  0  0
   43.0552   24.2694  104.0397 H   0  0  0  0  0  0  0  0  0  0  0  0
   44.5457   26.7102  102.4188 H   0  0  0  0  0  0  0  0  0  0  0  0
   45.4153   20.9721  103.1759 H   0  0  0  0  0  0  0  0  0  0  0  0
   43.4872   20.9972  100.4921 C   0  0  0  0  0  0  0  0  0  0  0  0
   42.3566   20.6630  101.3192 O   0  0  0  0  0  0  0  0  0  0  0  0
   42.6686   20.3608  102.1865 H   0  0  0  0  0  0  0  0  0  0  0  0
  1  2  1  0  0  0
  1  8  2  0  0  0
  1 12  1  0  0  0
  2  5  1  0  0  0
  2  7  1  0  0  0
  3  4  1  0  0  0
  3  9  1  0  0  0
  3 12  1  0  0  0
  4  5  1  0  0  0
  4 11  1  0  0  0
  5 16  1  0  0  0
 16 17  1  0  0  0
  6  7  2  0  0  0
  6  8  1  0  0  0
 10 12  1  0  0  0
  9 13  1  0  0  0
 10 14  1  0  0  0
 11 15  1  0  0  0
 17 18  1  0  0  0
M  END
> <minimizedAffinity>
-7.64657

$$$$
2WZS_MVL_A_801


 18 19  0  0  0  0  0  0  0  0999 V2000
   43.5616   22.5162  100.4697 C   0  0  0  0  0  0  0  0  0  0  0  0
   43.3030   23.8045  100.6701 N   0  0  0  0  0  0  0  0  0  0  0  0
   43.9818   22.1002  102.8981 C   0  0  0  0  0  0  0  0  0  0  0  0
   44.0944   23.6483  102.9581 C   0  0  0  0  0  0  0  0  0  0  0  0
   43.1272   24.3934  102.0212 C   0  0  0  0  0  0  0  0  0  0  0  0
   43.6590   23.5029   98.5348 C   0  0  0  0  0  0  0  0  0  0  0  0
   43.3925   24.4468   99.4985 C   0  0  0  0  0  0  0  0  0  0  0  0
   43.7606   22.3089   99.1580 N   0  0  0  0  0  0  0  0  0  0  0  0
   45.2432   21.5174  103.2132 O   0  0  0  0  0  0  0  0  0  0  0  0
   44.4357   20.4258  101.1770 O   0  0  0  0  0  0  0  0  0  0  0  0
   43.8923   24.1108  104.3054 O   0  0  0  0  0  0  0  0  0  0  0  0
   43.5593   21.4980  101.5508 C   0  0  0  0  0  0  0  0  0  0  0  0
   45.8913   21.7626  102.5344 H   0  0  0  0  0  0  0  0  0  0  0  0
   44.1528   20.0591  100.3247 H   0  0  0  0  0  0  0  0  0  0  0  0
   42.9901   23.8955  104.5892 H   0  0  0  0  0  0  0  0  0  0  0  0
   43.4299   25.9021  102.0005 C   0  0  0  0  0  0  0  0  0  0  0  0
   42.2667   26.6893  102.3186 O   0  0  0  0  0  0  0  0  0  0  0  0
   41.5751   26.5257  101.6585 H   0  0  0  0  0  0  0  0  0  0  0  0
  1  2  1  0  0  0
  1  8  2  0  0  0
  1 12  1  0  0  0
  2  5  1  0  0  0
  2  7  1  0  0  0
  3  4  1  0  0  0
  3  9  1  0  0  0
  3 12  1  0  0  0
  4  5  1  0  0  0
  4 11  1  0  0  0
  5 16  1  0  0  0
 16 17  1  0  0  0
  6  7  2  0  0  0
  6  8  1  0  0  0
 10 12  1  0  0  0
  9 13  1  0  0  0
 10 14  1  0  0  0
 11 15  1  0  0  0
 17 18  1  0  0  0
M  END
> <minimizedAffinity>
-6.91474

$$$$
2WZS_MVL_A_801


 18 19  0  0  0  0  0  0  0  0999 V2000
   43.8862   22.9214   99.7315 C   0  0  0  0  0  0  0  0  0  0  0  0
   44.1316   22.7618  101.0280 N   0  0  0  0  0  0  0  0  0  0  0  0
   43.5376   25.3840   99.9787 C   0  0  0  0  0  0  0  0  0  0  0  0
   43.4045   25.0307  101.4855 C   0  0  0  0  0  0  0  0  0  0  0  0
   44.3353   23.9001  101.9585 C   0  0  0  0  0  0  0  0  0  0  0  0
   43.7225   20.7967  100.1630 C   0  0  0  0  0  0  0  0  0  0  0  0
   44.0014   21.4642  101.3323 C   0  0  0  0  0  0  0  0  0  0  0  0
   43.6549   21.7196   99.1789 N   0  0  0  0  0  0  0  0  0  0  0  0
   42.2936   25.8810   99.4934 O   0  0  0  0  0  0  0  0  0  0  0  0
   43.0614   24.1882   97.9014 O   0  0  0  0  0  0  0  0  0  0  0  0
   43.6362   26.1984  102.2934 O   0  0  0  0  0  0  0  0  0  0  0  0
   43.9322   24.2350   99.0402 C   0  0  0  0  0  0  0  0  0  0  0  0
   41.6240   25.1809   99.5434 H   0  0  0  0  0  0  0  0  0  0  0  0
   43.3265   23.4571   97.3216 H   0  0  0  0  0  0  0  0  0  0  0  0
   44.5487   26.5024  102.1680 H   0  0  0  0  0  0  0  0  0  0  0  0
   44.0106   23.4854  103.4046 C   0  0  0  0  0  0  0  0  0  0  0  0
   44.3669   24.5099  104.3518 O   0  0  0  0  0  0  0  0  0  0  0  0
   45.3219   24.6736  104.3071 H   0  0  0  0  0  0  0  0  0  0  0  0
  1  2  1  0  0  0
  1  8  2  0  0  0
  1 12  1  0  0  0
  2  5  1  0  0  0
  2  7  1  0  0  0
  3  4  1  0  0  0
  3  9  1  0  0  0
  3 12  1  0  0  0
  4  5  1  0  0  0
  4 11  1  0  0  0
  5 16  1  0  0  0
 16 17  1  0  0  0
  6  7  2  0  0  0
  6  8  1  0  0  0
 10 12  1  0  0  0
  9 13  1  0  0  0
 10 14  1  0  0  0
 11 15  1  0  0  0
 17 18  1  0  0  0
M  END
> <minimizedAffinity>
-6.51550

$$$$
2WZS_MVL_A_801


 18 19  0  0  0  0  0  0  0  0999 V2000
   43.6826   21.8378  101.4215 C   0  0  0  0  0  0  0  0  0  0  0  0
   43.2023   22.6965  100.5278 N   0  0  0  0  0  0  0  0  0  0  0  0
   44.1317   23.6427  103.0912 C   0  0  0  0  0  0  0  0  0  0  0  0
   43.9742   24.5733  101.8574 C   0  0  0  0  0  0  0  0  0  0  0  0
   42.9071   24.1156  100.8474 C   0  0  0  0  0  0  0  0  0  0  0  0
   43.6373   20.8155   99.5033 C   0  0  0  0  0  0  0  0  0  0  0  0
   43.1972   22.1060   99.3259 C   0  0  0  0  0  0  0  0  0  0  0  0
   43.9342   20.6677  100.8127 N   0  0  0  0  0  0  0  0  0  0  0  0
   45.4699   23.7141  103.5751 O   0  0  0  0  0  0  0  0  0  0  0  0
   44.8940   21.3417  103.4016 O   0  0  0  0  0  0  0  0  0  0  0  0
   43.6749   25.9153  102.2806 O   0  0  0  0  0  0  0  0  0  0  0  0
   43.8399   22.1527  102.8643 C   0  0  0  0  0  0  0  0  0  0  0  0
   46.0760   23.3668  102.9020 H   0  0  0  0  0  0  0  0  0  0  0  0
   44.6916   20.4055  103.2487 H   0  0  0  0  0  0  0  0  0  0  0  0
   42.8193   25.9271  102.7373 H   0  0  0  0  0  0  0  0  0  0  0  0
   42.9448   24.9791   99.5740 C   0  0  0  0  0  0  0  0  0  0  0  0
   41.8972   25.9671   99.5619 O   0  0  0  0  0  0  0  0  0  0  0  0
   41.0346   25.5241   99.5835 H   0  0  0  0  0  0  0  0  0  0  0  0
  1  2  1  0  0  0
  1  8  2  0  0  0
  1 12  1  0  0  0
  2  5  1  0  0  0
  2  7  1  0  0  0
  3  4  1  0  0  0
  3  9  1  0  0  0
  3 12  1  0  0  0
  4  5  1  0  0  0
  4 11  1  0  0  0
  5 16  1  0  0  0
 16 17  1  0  0  0
  6  7  2  0  0  0
  6  8  1  0  0  0
 10 12  1  0  0  0
  9 13  1  0  0  0
 10 14  1  0  0  0
 11 15  1  0  0  0
 17 18  1  0  0  0
M  END
> <minimizedAffinity>
-6.39312

$$$$
2WZS_MVL_A_801


 18 19  0  0  0  0  0  0  0  0999 V2000
   43.8482   23.7954   98.8127 C   0  0  0  0  0  0  0  0  0  0  0  0
   43.9036   22.8140   99.7073 N   0  0  0  0  0  0  0  0  0  0  0  0
   42.8331   25.3898  100.4480 C   0  0  0  0  0  0  0  0  0  0  0  0
   42.5437   24.0946  101.2553 C   0  0  0  0  0  0  0  0  0  0  0  0
   43.6431   23.0225  101.1536 C   0  0  0  0  0  0  0  0  0  0  0  0
   44.1734   21.9438   97.7205 C   0  0  0  0  0  0  0  0  0  0  0  0
   44.0666   21.6530   99.0601 C   0  0  0  0  0  0  0  0  0  0  0  0
   44.0352   23.2808   97.5865 N   0  0  0  0  0  0  0  0  0  0  0  0
   41.6033   25.9854  100.0444 O   0  0  0  0  0  0  0  0  0  0  0  0
   43.0439   25.9007   98.0676 O   0  0  0  0  0  0  0  0  0  0  0  0
   42.3229   24.4103  102.6414 O   0  0  0  0  0  0  0  0  0  0  0  0
   43.6666   25.2256   99.1694 C   0  0  0  0  0  0  0  0  0  0  0  0
   41.1410   25.3902   99.4338 H   0  0  0  0  0  0  0  0  0  0  0  0
   43.5845   25.7855   97.2705 H   0  0  0  0  0  0  0  0  0  0  0  0
   43.1322   24.7879  103.0200 H   0  0  0  0  0  0  0  0  0  0  0  0
   43.1978   21.7091  101.8209 C   0  0  0  0  0  0  0  0  0  0  0  0
   43.4149   21.7275  103.2444 O   0  0  0  0  0  0  0  0  0  0  0  0
   44.3617   21.8357  103.4257 H   0  0  0  0  0  0  0  0  0  0  0  0
  1  2  1  0  0  0
  1  8  2  0  0  0
  1 12  1  0  0  0
  2  5  1  0  0  0
  2  7  1  0  0  0
  3  4  1  0  0  0
  3  9  1  0  0  0
  3 12  1  0  0  0
  4  5  1  0  0  0
  4 11  1  0  0  0
  5 16  1  0  0  0
 16 17  1  0  0  0
  6  7  2  0  0  0
  6  8  1  0  0  0
 10 12  1  0  0  0
  9 13  1  0  0  0
 10 14  1  0  0  0
 11 15  1  0  0  0
 17 18  1  0  0  0
M  END
> <minimizedAffinity>
-6.08492

$$$$
2WZS_MVL_A_801


 18 19  0  0  0  0  0  0  0  0999 V2000
   43.3114   22.3987  101.7268 C   0  0  0  0  0  0  0  0  0  0  0  0
   43.2701   22.4146  100.3984 N   0  0  0  0  0  0  0  0  0  0  0  0
   43.7813   24.8499  101.8606 C   0  0  0  0  0  0  0  0  0  0  0  0
   44.1401   24.6790  100.3589 C   0  0  0  0  0  0  0  0  0  0  0  0
   43.2573   23.6689   99.6048 C   0  0  0  0  0  0  0  0  0  0  0  0
   43.4669   20.3380  101.0511 C   0  0  0  0  0  0  0  0  0  0  0  0
   43.4014   21.1595   99.9504 C   0  0  0  0  0  0  0  0  0  0  0  0
   43.4093   21.1268  102.1461 N   0  0  0  0  0  0  0  0  0  0  0  0
   44.9489   25.2135  102.5918 O   0  0  0  0  0  0  0  0  0  0  0  0
   43.8783   23.3816  103.8116 O   0  0  0  0  0  0  0  0  0  0  0  0
   44.0812   25.9487   99.6849 O   0  0  0  0  0  0  0  0  0  0  0  0
   43.2021   23.6172  102.5688 C   0  0  0  0  0  0  0  0  0  0  0  0
   45.5928   24.4890  102.5539 H   0  0  0  0  0  0  0  0  0  0  0  0
   43.4988   22.6002  104.2432 H   0  0  0  0  0  0  0  0  0  0  0  0
   43.1716   26.2849   99.7076 H   0  0  0  0  0  0  0  0  0  0  0  0
   43.7933   23.4190   98.1839 C   0  0  0  0  0  0  0  0  0  0  0  0
   45.1580   23.8551   98.0385 O   0  0  0  0  0  0  0  0  0  0  0  0
   45.2116   24.8097   98.2023 H   0  0  0  0  0  0  0  0  0  0  0  0
  1  2  1  0  0  0
  1  8  2  0  0  0
  1 12  1  0  0  0
  2  5  1  0  0  0
  2  7  1  0  0  0
  3  4  1  0  0  0
  3  9  1  0  0  0
  3 12  1  0  0  0
  4  5  1  0  0  0
  4 11  1  0  0  0
  5 16  1  0  0  0
 16 17  1  0  0  0
  6  7  2  0  0  0
  6  8  1  0  0  0
 10 12  1  0  0  0
  9 13  1  0  0  0
 10 14  1  0  0  0
 11 15  1  0  0  0
 17 18  1  0  0  0
M  END
> <minimizedAffinity>
-5.92711

$$$$
2WZS_MVL_A_801


 18 19  0  0  0  0  0  0  0  0999 V2000
   43.8495   23.2156  101.9448 C   0  0  0  0  0  0  0  0  0  0  0  0
   44.0222   23.7125  100.7242 N   0  0  0  0  0  0  0  0  0  0  0  0
   43.6085   20.8796  101.0891 C   0  0  0  0  0  0  0  0  0  0  0  0
   43.3839   21.5944   99.7283 C   0  0  0  0  0  0  0  0  0  0  0  0
   44.2343   22.8611   99.5270 C   0  0  0  0  0  0  0  0  0  0  0  0
   43.5621   25.3666  102.0768 C   0  0  0  0  0  0  0  0  0  0  0  0
   43.8145   25.0348  100.7665 C   0  0  0  0  0  0  0  0  0  0  0  0
   43.5882   24.2223  102.7941 N   0  0  0  0  0  0  0  0  0  0  0  0
   42.4157   20.2029  101.4754 O   0  0  0  0  0  0  0  0  0  0  0  0
   43.1789   21.4800  103.4186 O   0  0  0  0  0  0  0  0  0  0  0  0
   43.6313   20.6853   98.6411 O   0  0  0  0  0  0  0  0  0  0  0  0
   43.9933   21.7748  102.2753 C   0  0  0  0  0  0  0  0  0  0  0  0
   41.7114   20.8517  101.6299 H   0  0  0  0  0  0  0  0  0  0  0  0
   43.4368   22.0548  104.1562 H   0  0  0  0  0  0  0  0  0  0  0  0
   44.5626   20.4141   98.6520 H   0  0  0  0  0  0  0  0  0  0  0  0
   43.8185   23.6085   98.2475 C   0  0  0  0  0  0  0  0  0  0  0  0
   44.3494   22.9852   97.0629 O   0  0  0  0  0  0  0  0  0  0  0  0
   45.3187   22.9946   97.0993 H   0  0  0  0  0  0  0  0  0  0  0  0
  1  2  1  0  0  0
  1  8  2  0  0  0
  1 12  1  0  0  0
  2  5  1  0  0  0
  2  7  1  0  0  0
  3  4  1  0  0  0
  3  9  1  0  0  0
  3 12  1  0  0  0
  4  5  1  0  0  0
  4 11  1  0  0  0
  5 16  1  0  0  0
 16 17  1  0  0  0
  6  7  2  0  0  0
  6  8  1  0  0  0
 10 12  1  0  0  0
  9 13  1  0  0  0
 10 14  1  0  0  0
 11 15  1  0  0  0
 17 18  1  0  0  0
M  END
> <minimizedAffinity>
-5.89508

$$$$
2WZS_MVL_A_801


 18 19  0  0  0  0  0  0  0  0999 V2000
   43.8206   22.1036   99.6914 C   0  0  0  0  0  0  0  0  0  0  0  0
   43.5672   22.9561  100.6792 N   0  0  0  0  0  0  0  0  0  0  0  0
   44.3254   23.9417   98.0747 C   0  0  0  0  0  0  0  0  0  0  0  0
   43.6034   24.8232   99.1305 C   0  0  0  0  0  0  0  0  0  0  0  0
   43.8618   24.4081  100.5897 C   0  0  0  0  0  0  0  0  0  0  0  0
   42.7734   20.9997  101.2443 C   0  0  0  0  0  0  0  0  0  0  0  0
   42.8882   22.3123  101.6372 C   0  0  0  0  0  0  0  0  0  0  0  0
   43.3592   20.8895  100.0322 N   0  0  0  0  0  0  0  0  0  0  0  0
   43.5676   23.9252   96.8682 O   0  0  0  0  0  0  0  0  0  0  0  0
   44.1347   21.6029   97.3925 O   0  0  0  0  0  0  0  0  0  0  0  0
   43.9720   26.2037   98.9629 O   0  0  0  0  0  0  0  0  0  0  0  0
   44.5543   22.4718   98.4538 C   0  0  0  0  0  0  0  0  0  0  0  0
   42.7118   23.4980   97.0297 H   0  0  0  0  0  0  0  0  0  0  0  0
   44.2871   20.6803   97.6507 H   0  0  0  0  0  0  0  0  0  0  0  0
   44.9218   26.3074   99.1301 H   0  0  0  0  0  0  0  0  0  0  0  0
   42.9689   25.2049  101.5574 C   0  0  0  0  0  0  0  0  0  0  0  0
   43.6773   26.3016  102.1650 O   0  0  0  0  0  0  0  0  0  0  0  0
   44.4245   25.9584  102.6796 H   0  0  0  0  0  0  0  0  0  0  0  0
  1  2  1  0  0  0
  1  8  2  0  0  0
  1 12  1  0  0  0
  2  5  1  0  0  0
  2  7  1  0  0  0
  3  4  1  0  0  0
  3  9  1  0  0  0
  3 12  1  0  0  0
  4  5  1  0  0  0
  4 11  1  0  0  0
  5 16  1  0  0  0
 16 17  1  0  0  0
  6  7  2  0  0  0
  6  8  1  0  0  0
 10 12  1  0  0  0
  9 13  1  0  0  0
 10 14  1  0  0  0
 11 15  1  0  0  0
 17 18  1  0  0  0
M  END
> <minimizedAffinity>
-5.76641

$$$$
2WZS_MVL_A_801


 18 19  0  0  0  0  0  0  0  0999 V2000
   43.2199   25.1837   99.2333 C   0  0  0  0  0  0  0  0  0  0  0  0
   43.7821   24.2340   98.4926 N   0  0  0  0  0  0  0  0  0  0  0  0
   43.2251   23.7543  101.2835 C   0  0  0  0  0  0  0  0  0  0  0  0
   43.4593   22.6069  100.2629 C   0  0  0  0  0  0  0  0  0  0  0  0
   44.3510   22.9899   99.0686 C   0  0  0  0  0  0  0  0  0  0  0  0
   42.9421   25.7404   97.1500 C   0  0  0  0  0  0  0  0  0  0  0  0
   43.5944   24.5309   97.2004 C   0  0  0  0  0  0  0  0  0  0  0  0
   42.7180   26.1303   98.4237 N   0  0  0  0  0  0  0  0  0  0  0  0
   41.9599   23.5801  101.9153 O   0  0  0  0  0  0  0  0  0  0  0  0
   42.0838   25.9129  101.1857 O   0  0  0  0  0  0  0  0  0  0  0  0
   44.0257   21.4608  100.9229 O   0  0  0  0  0  0  0  0  0  0  0  0
   43.2258   25.1815  100.7184 C   0  0  0  0  0  0  0  0  0  0  0  0
   41.2544   23.6645  101.2550 H   0  0  0  0  0  0  0  0  0  0  0  0
   42.1022   26.8105  100.8184 H   0  0  0  0  0  0  0  0  0  0  0  0
   44.8999   21.6899  101.2754 H   0  0  0  0  0  0  0  0  0  0  0  0
   44.3788   21.8668   98.0168 C   0  0  0  0  0  0  0  0  0  0  0  0
   43.5098   20.7747   98.3717 O   0  0  0  0  0  0  0  0  0  0  0  0
   43.8021   20.3889   99.2123 H   0  0  0  0  0  0  0  0  0  0  0  0
  1  2  1  0  0  0
  1  8  2  0  0  0
  1 12  1  0  0  0
  2  5  1  0  0  0
  2  7  1  0  0  0
  3  4  1  0  0  0
  3  9  1  0  0  0
  3 12  1  0  0  0
  4  5  1  0  0  0
  4 11  1  0  0  0
  5 16  1  0  0  0
 16 17  1  0  0  0
  6  7  2  0  0  0
  6  8  1  0  0  0
 10 12  1  0  0  0
  9 13  1  0  0  0
 10 14  1  0  0  0
 11 15  1  0  0  0
 17 18  1  0  0  0
M  END
> <minimizedAffinity>
-5.68243

$$$$
2WZS_MVL_A_801


 18 19  0  0  0  0  0  0  0  0999 V2000
   44.1370   24.0514  101.2259 C   0  0  0  0  0  0  0  0  0  0  0  0
   43.6570   23.1684  102.0957 N   0  0  0  0  0  0  0  0  0  0  0  0
   43.4588   22.6636   99.2610 C   0  0  0  0  0  0  0  0  0  0  0  0
   43.3375   21.5396  100.3264 C   0  0  0  0  0  0  0  0  0  0  0  0
   42.8157   22.0133  101.6944 C   0  0  0  0  0  0  0  0  0  0  0  0
   44.9770   24.5389  103.1712 C   0  0  0  0  0  0  0  0  0  0  0  0
   44.1869   23.4209  103.2994 C   0  0  0  0  0  0  0  0  0  0  0  0
   44.9332   24.9163  101.8750 N   0  0  0  0  0  0  0  0  0  0  0  0
   44.5020   22.3425   98.3452 O   0  0  0  0  0  0  0  0  0  0  0  0
   44.8490   24.6618   99.0454 O   0  0  0  0  0  0  0  0  0  0  0  0
   42.4906   20.4827   99.8413 O   0  0  0  0  0  0  0  0  0  0  0  0
   43.7721   24.0715   99.7865 C   0  0  0  0  0  0  0  0  0  0  0  0
   45.3511   22.3289   98.8140 H   0  0  0  0  0  0  0  0  0  0  0  0
   45.0316   25.5493   99.3918 H   0  0  0  0  0  0  0  0  0  0  0  0
   41.5926   20.8239   99.7068 H   0  0  0  0  0  0  0  0  0  0  0  0
   42.9036   20.8872  102.7397 C   0  0  0  0  0  0  0  0  0  0  0  0
   41.6033   20.3842  103.1003 O   0  0  0  0  0  0  0  0  0  0  0  0
   41.0771   21.0991  103.4914 H   0  0  0  0  0  0  0  0  0  0  0  0
  1  2  1  0  0  0
  1  8  2  0  0  0
  1 12  1  0  0  0
  2  5  1  0  0  0
  2  7  1  0  0  0
  3  4  1  0  0  0
  3  9  1  0  0  0
  3 12  1  0  0  0
  4  5  1  0  0  0
  4 11  1  0  0  0
  5 16  1  0  0  0
 16 17  1  0  0  0
  6  7  2  0  0  0
  6  8  1  0  0  0
 10 12  1  0  0  0
  9 13  1  0  0  0
 10 14  1  0  0  0
 11 15  1  0  0  0
 17 18  1  0  0  0
M  END
> <minimizedAffinity>
-5.49155

$$$$
