1M2R_MNY_A_351


 26 28  0  0  0  0  0  0  0  0999 V2000
   23.5067    5.7365   20.4926 C   0  0  0  0  0  0  0  0  0  0  0  0
   23.0978    6.7315   19.5323 C   0  0  0  0  0  0  0  0  0  0  0  0
   22.1427    7.7409   19.9162 C   0  0  0  0  0  0  0  0  0  0  0  0
   21.6049    7.7240   21.2475 C   0  0  0  0  0  0  0  0  0  0  0  0
   22.0236    6.7356   22.1684 C   0  0  0  0  0  0  0  0  0  0  0  0
   22.9611    5.7475   21.7923 C   0  0  0  0  0  0  0  0  0  0  0  0
   21.7116    8.7740   18.9207 C   0  0  0  0  0  0  0  0  0  0  0  0
   22.2794    8.7816   17.5351 C   0  0  0  0  0  0  0  0  0  0  0  0
   23.2426    7.7745   17.1534 C   0  0  0  0  0  0  0  0  0  0  0  0
   23.6728    6.7436   18.1483 C   0  0  0  0  0  0  0  0  0  0  0  0
   23.7851    7.7895   15.8251 C   0  0  0  0  0  0  0  0  0  0  0  0
   23.3600    8.7724   14.9062 C   0  0  0  0  0  0  0  0  0  0  0  0
   22.4156    9.7516   15.2725 C   0  0  0  0  0  0  0  0  0  0  0  0
   21.8685    9.7687   16.5684 C   0  0  0  0  0  0  0  0  0  0  0  0
   24.4968    5.8810   17.8208 O   0  0  0  0  0  0  0  0  0  0  0  0
   20.8838    9.6424   19.2484 O   0  0  0  0  0  0  0  0  0  0  0  0
   24.4337    4.7347   20.1645 O   0  0  0  0  0  0  0  0  0  0  0  0
   24.7285    6.8389   15.3993 N   0  0  0  0  0  0  0  0  0  0  0  0
   20.9040   10.7932   16.8895 N   0  0  0  0  0  0  0  0  0  0  0  0
   20.6444    8.7059   21.6805 O   0  0  0  0  0  0  0  0  0  0  0  0
   24.8097    4.7072   19.3067 H   0  0  0  0  0  0  0  0  0  0  0  0
   25.0412    6.1428   16.0213 H   0  0  0  0  0  0  0  0  0  0  0  0
   25.0767    6.8691   14.4789 H   0  0  0  0  0  0  0  0  0  0  0  0
   20.5049   10.8290   17.7888 H   0  0  0  0  0  0  0  0  0  0  0  0
   20.6451   11.4562   16.2093 H   0  0  0  0  0  0  0  0  0  0  0  0
   20.3531    9.3699   21.0870 H   0  0  0  0  0  0  0  0  0  0  0  0
  1  2  2  0  0  0
  1  6  1  0  0  0
  1 17  1  0  0  0
  2  3  1  0  0  0
  2 10  1  0  0  0
  3  4  2  0  0  0
  3  7  1  0  0  0
  4  5  1  0  0  0
  4 20  1  0  0  0
  5  6  2  0  0  0
  7  8  1  0  0  0
  7 16  2  0  0  0
  8  9  2  0  0  0
  8 14  1  0  0  0
  9 10  1  0  0  0
  9 11  1  0  0  0
 10 15  2  0  0  0
 11 12  2  0  0  0
 11 18  1  0  0  0
 12 13  1  0  0  0
 13 14  2  0  0  0
 14 19  1  0  0  0
 17 21  1  0  0  0
 18 22  1  0  0  0
 18 23  1  0  0  0
 19 24  1  0  0  0
 19 25  1  0  0  0
 20 26  1  0  0  0
M  END
> <minimizedAffinity>
-10.62987

$$$$
1M2R_MNY_A_351


 26 28  0  0  0  0  0  0  0  0999 V2000
   21.6535    7.6652   21.2261 C   0  0  0  0  0  0  0  0  0  0  0  0
   22.1841    7.6871   19.8855 C   0  0  0  0  0  0  0  0  0  0  0  0
   23.1326    6.6804   19.4788 C   0  0  0  0  0  0  0  0  0  0  0  0
   23.5423    5.6826   20.4267 C   0  0  0  0  0  0  0  0  0  0  0  0
   23.0058    5.6858   21.7354 C   0  0  0  0  0  0  0  0  0  0  0  0
   22.0748    6.6716   22.1329 C   0  0  0  0  0  0  0  0  0  0  0  0
   23.6898    6.7017   18.0884 C   0  0  0  0  0  0  0  0  0  0  0  0
   23.2551    7.7473   17.1086 C   0  0  0  0  0  0  0  0  0  0  0  0
   22.2985    8.7512   17.5143 C   0  0  0  0  0  0  0  0  0  0  0  0
   21.7422    8.7288   18.9027 C   0  0  0  0  0  0  0  0  0  0  0  0
   21.8837    9.7483   16.5694 C   0  0  0  0  0  0  0  0  0  0  0  0
   22.4262    9.7471   15.2667 C   0  0  0  0  0  0  0  0  0  0  0  0
   23.3646    8.7741   14.8697 C   0  0  0  0  0  0  0  0  0  0  0  0
   23.7880    7.7792   15.7696 C   0  0  0  0  0  0  0  0  0  0  0  0
   20.9239    9.5891   19.2498 O   0  0  0  0  0  0  0  0  0  0  0  0
   24.5121    5.8372   17.7375 O   0  0  0  0  0  0  0  0  0  0  0  0
   20.7281    8.6243   21.6667 O   0  0  0  0  0  0  0  0  0  0  0  0
   20.9528   10.7460   16.9055 N   0  0  0  0  0  0  0  0  0  0  0  0
   24.7523    6.8082   15.3109 N   0  0  0  0  0  0  0  0  0  0  0  0
   24.4905    4.6577   20.0737 O   0  0  0  0  0  0  0  0  0  0  0  0
   20.4334    9.2944   21.0818 H   0  0  0  0  0  0  0  0  0  0  0  0
   20.5598   10.7687   17.8078 H   0  0  0  0  0  0  0  0  0  0  0  0
   20.6937   11.4223   16.2386 H   0  0  0  0  0  0  0  0  0  0  0  0
   25.0662    6.1008   15.9194 H   0  0  0  0  0  0  0  0  0  0  0  0
   25.0961    6.8533   14.3895 H   0  0  0  0  0  0  0  0  0  0  0  0
   24.8585    4.6365   19.2122 H   0  0  0  0  0  0  0  0  0  0  0  0
  1  2  2  0  0  0
  1  6  1  0  0  0
  1 17  1  0  0  0
  2  3  1  0  0  0
  2 10  1  0  0  0
  3  4  2  0  0  0
  3  7  1  0  0  0
  4  5  1  0  0  0
  4 20  1  0  0  0
  5  6  2  0  0  0
  7  8  1  0  0  0
  7 16  2  0  0  0
  8  9  2  0  0  0
  8 14  1  0  0  0
  9 10  1  0  0  0
  9 11  1  0  0  0
 10 15  2  0  0  0
 11 12  2  0  0  0
 11 18  1  0  0  0
 12 13  1  0  0  0
 13 14  2  0  0  0
 14 19  1  0  0  0
 17 21  1  0  0  0
 18 22  1  0  0  0
 18 23  1  0  0  0
 19 24  1  0  0  0
 19 25  1  0  0  0
 20 26  1  0  0  0
M  END
> <minimizedAffinity>
-10.62471

$$$$
1M2R_MNY_A_351


 26 28  0  0  0  0  0  0  0  0999 V2000
   21.8133    9.8286   16.6618 C   0  0  0  0  0  0  0  0  0  0  0  0
   22.2332    8.8067   17.5886 C   0  0  0  0  0  0  0  0  0  0  0  0
   23.1889    7.8129   17.1673 C   0  0  0  0  0  0  0  0  0  0  0  0
   23.6922    7.8528   15.8231 C   0  0  0  0  0  0  0  0  0  0  0  0
   23.2621    8.8663   14.9352 C   0  0  0  0  0  0  0  0  0  0  0  0
   22.3268    9.8413   15.3491 C   0  0  0  0  0  0  0  0  0  0  0  0
   23.6248    6.7469   18.1253 C   0  0  0  0  0  0  0  0  0  0  0  0
   23.0930    6.7155   19.5247 C   0  0  0  0  0  0  0  0  0  0  0  0
   22.1413    7.7164   19.9488 C   0  0  0  0  0  0  0  0  0  0  0  0
   21.7070    8.7808   18.9917 C   0  0  0  0  0  0  0  0  0  0  0  0
   21.6382    7.6823   21.2922 C   0  0  0  0  0  0  0  0  0  0  0  0
   22.0634    6.6657   22.1736 C   0  0  0  0  0  0  0  0  0  0  0  0
   22.9858    5.6837   21.7615 C   0  0  0  0  0  0  0  0  0  0  0  0
   23.5028    5.6918   20.4532 C   0  0  0  0  0  0  0  0  0  0  0  0
   20.8914    9.6371   19.3549 O   0  0  0  0  0  0  0  0  0  0  0  0
   24.4452    5.8856   17.7620 O   0  0  0  0  0  0  0  0  0  0  0  0
   20.8855   10.8165   17.0270 O   0  0  0  0  0  0  0  0  0  0  0  0
   20.7152    8.6322   21.7621 N   0  0  0  0  0  0  0  0  0  0  0  0
   24.4435    4.6614   20.0837 N   0  0  0  0  0  0  0  0  0  0  0  0
   24.6442    6.8813   15.3498 O   0  0  0  0  0  0  0  0  0  0  0  0
   20.5304   10.8282   17.8940 H   0  0  0  0  0  0  0  0  0  0  0  0
   20.4028    9.3515   21.1668 H   0  0  0  0  0  0  0  0  0  0  0  0
   20.3810    8.5784   22.6866 H   0  0  0  0  0  0  0  0  0  0  0  0
   24.8213    4.6428   19.1748 H   0  0  0  0  0  0  0  0  0  0  0  0
   24.7072    3.9771   20.7405 H   0  0  0  0  0  0  0  0  0  0  0  0
   24.9429    6.2012   15.9210 H   0  0  0  0  0  0  0  0  0  0  0  0
  1  2  2  0  0  0
  1  6  1  0  0  0
  1 17  1  0  0  0
  2  3  1  0  0  0
  2 10  1  0  0  0
  3  4  2  0  0  0
  3  7  1  0  0  0
  4  5  1  0  0  0
  4 20  1  0  0  0
  5  6  2  0  0  0
  7  8  1  0  0  0
  7 16  2  0  0  0
  8  9  2  0  0  0
  8 14  1  0  0  0
  9 10  1  0  0  0
  9 11  1  0  0  0
 10 15  2  0  0  0
 11 12  2  0  0  0
 11 18  1  0  0  0
 12 13  1  0  0  0
 13 14  2  0  0  0
 14 19  1  0  0  0
 17 21  1  0  0  0
 18 22  1  0  0  0
 18 23  1  0  0  0
 19 24  1  0  0  0
 19 25  1  0  0  0
 20 26  1  0  0  0
M  END
> <minimizedAffinity>
-10.58710

$$$$
1M2R_MNY_A_351


 26 28  0  0  0  0  0  0  0  0999 V2000
   23.7262    7.8989   15.7603 C   0  0  0  0  0  0  0  0  0  0  0  0
   23.2242    7.8299   17.1104 C   0  0  0  0  0  0  0  0  0  0  0  0
   22.2554    8.7983   17.5598 C   0  0  0  0  0  0  0  0  0  0  0  0
   21.8211    9.8247   16.6543 C   0  0  0  0  0  0  0  0  0  0  0  0
   22.3310    9.8685   15.3358 C   0  0  0  0  0  0  0  0  0  0  0  0
   23.2792    8.9180   14.8951 C   0  0  0  0  0  0  0  0  0  0  0  0
   21.7343    8.7333   18.9628 C   0  0  0  0  0  0  0  0  0  0  0  0
   22.1946    7.6583   19.8981 C   0  0  0  0  0  0  0  0  0  0  0  0
   23.1596    6.6833   19.4447 C   0  0  0  0  0  0  0  0  0  0  0  0
   23.6789    6.7488   18.0434 C   0  0  0  0  0  0  0  0  0  0  0  0
   23.5939    5.6539   20.3451 C   0  0  0  0  0  0  0  0  0  0  0  0
   23.0891    5.6171   21.6623 C   0  0  0  0  0  0  0  0  0  0  0  0
   22.1534    6.5704   22.1103 C   0  0  0  0  0  0  0  0  0  0  0  0
   21.7025    7.5890   21.2513 C   0  0  0  0  0  0  0  0  0  0  0  0
   24.5059    5.9143   17.6558 O   0  0  0  0  0  0  0  0  0  0  0  0
   20.9024    9.5709   19.3539 O   0  0  0  0  0  0  0  0  0  0  0  0
   24.6698    6.9781   15.2785 O   0  0  0  0  0  0  0  0  0  0  0  0
   24.5261    4.6760   19.9583 N   0  0  0  0  0  0  0  0  0  0  0  0
   20.7447    8.5400   21.7625 N   0  0  0  0  0  0  0  0  0  0  0  0
   20.8592   10.8192   17.0540 O   0  0  0  0  0  0  0  0  0  0  0  0
   24.9817    6.2921   15.8353 H   0  0  0  0  0  0  0  0  0  0  0  0
   24.8934    4.6800   19.0449 H   0  0  0  0  0  0  0  0  0  0  0  0
   24.8119    3.9870   20.6008 H   0  0  0  0  0  0  0  0  0  0  0  0
   20.4120    9.2633   21.1834 H   0  0  0  0  0  0  0  0  0  0  0  0
   20.4242    8.4655   22.6904 H   0  0  0  0  0  0  0  0  0  0  0  0
   20.5083   10.8091   17.9228 H   0  0  0  0  0  0  0  0  0  0  0  0
  1  2  2  0  0  0
  1  6  1  0  0  0
  1 17  1  0  0  0
  2  3  1  0  0  0
  2 10  1  0  0  0
  3  4  2  0  0  0
  3  7  1  0  0  0
  4  5  1  0  0  0
  4 20  1  0  0  0
  5  6  2  0  0  0
  7  8  1  0  0  0
  7 16  2  0  0  0
  8  9  2  0  0  0
  8 14  1  0  0  0
  9 10  1  0  0  0
  9 11  1  0  0  0
 10 15  2  0  0  0
 11 12  2  0  0  0
 11 18  1  0  0  0
 12 13  1  0  0  0
 13 14  2  0  0  0
 14 19  1  0  0  0
 17 21  1  0  0  0
 18 22  1  0  0  0
 18 23  1  0  0  0
 19 24  1  0  0  0
 19 25  1  0  0  0
 20 26  1  0  0  0
M  END
> <minimizedAffinity>
-10.57965

$$$$
1M2R_MNY_A_351


 26 28  0  0  0  0  0  0  0  0999 V2000
   24.1002    7.5488   14.1359 C   0  0  0  0  0  0  0  0  0  0  0  0
   24.2434    6.8137   15.3682 C   0  0  0  0  0  0  0  0  0  0  0  0
   23.6321    7.3177   16.5727 C   0  0  0  0  0  0  0  0  0  0  0  0
   22.9040    8.5543   16.5224 C   0  0  0  0  0  0  0  0  0  0  0  0
   22.7804    9.2546   15.2998 C   0  0  0  0  0  0  0  0  0  0  0  0
   23.3782    8.7593   14.1191 C   0  0  0  0  0  0  0  0  0  0  0  0
   23.7818    6.5597   17.8562 C   0  0  0  0  0  0  0  0  0  0  0  0
   24.5434    5.2711   17.8964 C   0  0  0  0  0  0  0  0  0  0  0  0
   25.1491    4.7624   16.6873 C   0  0  0  0  0  0  0  0  0  0  0  0
   24.9987    5.5198   15.4061 C   0  0  0  0  0  0  0  0  0  0  0  0
   25.8748    3.5254   16.7323 C   0  0  0  0  0  0  0  0  0  0  0  0
   26.0027    2.8326   17.9550 C   0  0  0  0  0  0  0  0  0  0  0  0
   25.4196    3.3292   19.1375 C   0  0  0  0  0  0  0  0  0  0  0  0
   24.6967    4.5359   19.1269 C   0  0  0  0  0  0  0  0  0  0  0  0
   25.5182    5.0843   14.3713 O   0  0  0  0  0  0  0  0  0  0  0  0
   23.2595    6.9956   18.8973 O   0  0  0  0  0  0  0  0  0  0  0  0
   24.6775    7.0972   12.9388 O   0  0  0  0  0  0  0  0  0  0  0  0
   26.4804    2.9796   15.5876 N   0  0  0  0  0  0  0  0  0  0  0  0
   24.1217    4.9991   20.3669 N   0  0  0  0  0  0  0  0  0  0  0  0
   22.2786    9.1044   17.6973 O   0  0  0  0  0  0  0  0  0  0  0  0
   25.1620    6.2953   12.9256 H   0  0  0  0  0  0  0  0  0  0  0  0
   26.4058    3.4435   14.7225 H   0  0  0  0  0  0  0  0  0  0  0  0
   26.9793    2.1332   15.6508 H   0  0  0  0  0  0  0  0  0  0  0  0
   23.6107    5.8404   20.3887 H   0  0  0  0  0  0  0  0  0  0  0  0
   24.2403    4.4738   21.1911 H   0  0  0  0  0  0  0  0  0  0  0  0
   22.3477    8.6572   18.5178 H   0  0  0  0  0  0  0  0  0  0  0  0
  1  2  2  0  0  0
  1  6  1  0  0  0
  1 17  1  0  0  0
  2  3  1  0  0  0
  2 10  1  0  0  0
  3  4  2  0  0  0
  3  7  1  0  0  0
  4  5  1  0  0  0
  4 20  1  0  0  0
  5  6  2  0  0  0
  7  8  1  0  0  0
  7 16  2  0  0  0
  8  9  2  0  0  0
  8 14  1  0  0  0
  9 10  1  0  0  0
  9 11  1  0  0  0
 10 15  2  0  0  0
 11 12  2  0  0  0
 11 18  1  0  0  0
 12 13  1  0  0  0
 13 14  2  0  0  0
 14 19  1  0  0  0
 17 21  1  0  0  0
 18 22  1  0  0  0
 18 23  1  0  0  0
 19 24  1  0  0  0
 19 25  1  0  0  0
 20 26  1  0  0  0
M  END
> <minimizedAffinity>
-9.53742

$$$$
1M2R_MNY_A_351


 26 28  0  0  0  0  0  0  0  0999 V2000
   22.7712    6.8525   20.6224 C   0  0  0  0  0  0  0  0  0  0  0  0
   23.1131    6.9344   19.2239 C   0  0  0  0  0  0  0  0  0  0  0  0
   23.9267    5.9038   18.6286 C   0  0  0  0  0  0  0  0  0  0  0  0
   24.3944    4.8217   19.4485 C   0  0  0  0  0  0  0  0  0  0  0  0
   24.0441    4.7674   20.8177 C   0  0  0  0  0  0  0  0  0  0  0  0
   23.2450    5.7767   21.4003 C   0  0  0  0  0  0  0  0  0  0  0  0
   24.2881    5.9869   17.1772 C   0  0  0  0  0  0  0  0  0  0  0  0
   23.7945    7.1203   16.3321 C   0  0  0  0  0  0  0  0  0  0  0  0
   22.9725    8.1486   16.9274 C   0  0  0  0  0  0  0  0  0  0  0  0
   22.6118    8.0645   18.3767 C   0  0  0  0  0  0  0  0  0  0  0  0
   22.5002    9.2301   16.1112 C   0  0  0  0  0  0  0  0  0  0  0  0
   22.8574    9.2857   14.7472 C   0  0  0  0  0  0  0  0  0  0  0  0
   23.6647    8.2887   14.1649 C   0  0  0  0  0  0  0  0  0  0  0  0
   24.1395    7.2119   14.9355 C   0  0  0  0  0  0  0  0  0  0  0  0
   21.9087    8.9456   18.8862 O   0  0  0  0  0  0  0  0  0  0  0  0
   24.9942    5.1016   16.6631 O   0  0  0  0  0  0  0  0  0  0  0  0
   21.9817    7.8319   21.2452 O   0  0  0  0  0  0  0  0  0  0  0  0
   21.6936   10.2555   16.6338 N   0  0  0  0  0  0  0  0  0  0  0  0
   24.9641    6.2196   14.2886 N   0  0  0  0  0  0  0  0  0  0  0  0
   25.2140    3.7694   18.9051 O   0  0  0  0  0  0  0  0  0  0  0  0
   21.6555    8.5563   20.7484 H   0  0  0  0  0  0  0  0  0  0  0  0
   21.4306   10.2397   17.5824 H   0  0  0  0  0  0  0  0  0  0  0  0
   21.3916   10.9895   16.0513 H   0  0  0  0  0  0  0  0  0  0  0  0
   25.3102    5.4553   14.8038 H   0  0  0  0  0  0  0  0  0  0  0  0
   25.1805    6.3069   13.3322 H   0  0  0  0  0  0  0  0  0  0  0  0
   25.4580    3.7854   18.0006 H   0  0  0  0  0  0  0  0  0  0  0  0
  1  2  2  0  0  0
  1  6  1  0  0  0
  1 17  1  0  0  0
  2  3  1  0  0  0
  2 10  1  0  0  0
  3  4  2  0  0  0
  3  7  1  0  0  0
  4  5  1  0  0  0
  4 20  1  0  0  0
  5  6  2  0  0  0
  7  8  1  0  0  0
  7 16  2  0  0  0
  8  9  2  0  0  0
  8 14  1  0  0  0
  9 10  1  0  0  0
  9 11  1  0  0  0
 10 15  2  0  0  0
 11 12  2  0  0  0
 11 18  1  0  0  0
 12 13  1  0  0  0
 13 14  2  0  0  0
 14 19  1  0  0  0
 17 21  1  0  0  0
 18 22  1  0  0  0
 18 23  1  0  0  0
 19 24  1  0  0  0
 19 25  1  0  0  0
 20 26  1  0  0  0
M  END
> <minimizedAffinity>
-9.25572

$$$$
1M2R_MNY_A_351


 26 28  0  0  0  0  0  0  0  0999 V2000
   24.8839    5.4554   16.7383 C   0  0  0  0  0  0  0  0  0  0  0  0
   24.1128    6.0807   17.7841 C   0  0  0  0  0  0  0  0  0  0  0  0
   23.4833    7.3545   17.5398 C   0  0  0  0  0  0  0  0  0  0  0  0
   23.6516    7.9832   16.2598 C   0  0  0  0  0  0  0  0  0  0  0  0
   24.4142    7.3471   15.2527 C   0  0  0  0  0  0  0  0  0  0  0  0
   25.0295    6.0977   15.4920 C   0  0  0  0  0  0  0  0  0  0  0  0
   22.6848    8.0099   18.6246 C   0  0  0  0  0  0  0  0  0  0  0  0
   22.5162    7.3446   19.9555 C   0  0  0  0  0  0  0  0  0  0  0  0
   23.1407    6.0644   20.1972 C   0  0  0  0  0  0  0  0  0  0  0  0
   23.9374    5.4104   19.1131 C   0  0  0  0  0  0  0  0  0  0  0  0
   22.9724    5.4308   21.4737 C   0  0  0  0  0  0  0  0  0  0  0  0
   22.2173    6.0712   22.4791 C   0  0  0  0  0  0  0  0  0  0  0  0
   21.6128    7.3230   22.2495 C   0  0  0  0  0  0  0  0  0  0  0  0
   21.7533    7.9685   21.0075 C   0  0  0  0  0  0  0  0  0  0  0  0
   24.4727    4.3146   19.3208 O   0  0  0  0  0  0  0  0  0  0  0  0
   22.1453    9.1112   18.4174 O   0  0  0  0  0  0  0  0  0  0  0  0
   25.5146    4.2161   16.9301 O   0  0  0  0  0  0  0  0  0  0  0  0
   23.5517    4.1839   21.7641 N   0  0  0  0  0  0  0  0  0  0  0  0
   21.1144    9.2500   20.8271 N   0  0  0  0  0  0  0  0  0  0  0  0
   23.0486    9.2575   15.9654 O   0  0  0  0  0  0  0  0  0  0  0  0
   25.4320    3.7703   17.7501 H   0  0  0  0  0  0  0  0  0  0  0  0
   24.0833    3.7166   21.0797 H   0  0  0  0  0  0  0  0  0  0  0  0
   23.4261    3.7775   22.6520 H   0  0  0  0  0  0  0  0  0  0  0  0
   21.1960    9.7242   19.9682 H   0  0  0  0  0  0  0  0  0  0  0  0
   20.5969    9.6499   21.5630 H   0  0  0  0  0  0  0  0  0  0  0  0
   22.5392    9.6967   16.6178 H   0  0  0  0  0  0  0  0  0  0  0  0
  1  2  2  0  0  0
  1  6  1  0  0  0
  1 17  1  0  0  0
  2  3  1  0  0  0
  2 10  1  0  0  0
  3  4  2  0  0  0
  3  7  1  0  0  0
  4  5  1  0  0  0
  4 20  1  0  0  0
  5  6  2  0  0  0
  7  8  1  0  0  0
  7 16  2  0  0  0
  8  9  2  0  0  0
  8 14  1  0  0  0
  9 10  1  0  0  0
  9 11  1  0  0  0
 10 15  2  0  0  0
 11 12  2  0  0  0
 11 18  1  0  0  0
 12 13  1  0  0  0
 13 14  2  0  0  0
 14 19  1  0  0  0
 17 21  1  0  0  0
 18 22  1  0  0  0
 18 23  1  0  0  0
 19 24  1  0  0  0
 19 25  1  0  0  0
 20 26  1  0  0  0
M  END
> <minimizedAffinity>
-9.13327

$$$$
1M2R_MNY_A_351


 26 28  0  0  0  0  0  0  0  0999 V2000
   24.6993    4.3613   19.1312 C   0  0  0  0  0  0  0  0  0  0  0  0
   24.5094    5.2112   17.9819 C   0  0  0  0  0  0  0  0  0  0  0  0
   25.0909    4.8378   16.7166 C   0  0  0  0  0  0  0  0  0  0  0  0
   25.8633    3.6303   16.6316 C   0  0  0  0  0  0  0  0  0  0  0  0
   26.0337    2.8161   17.7755 C   0  0  0  0  0  0  0  0  0  0  0  0
   25.4620    3.1816   19.0150 C   0  0  0  0  0  0  0  0  0  0  0  0
   24.8999    5.7198   15.5209 C   0  0  0  0  0  0  0  0  0  0  0  0
   24.0923    6.9768   15.6217 C   0  0  0  0  0  0  0  0  0  0  0  0
   23.5031    7.3464   16.8881 C   0  0  0  0  0  0  0  0  0  0  0  0
   23.6939    6.4648   18.0814 C   0  0  0  0  0  0  0  0  0  0  0  0
   22.7277    8.5505   16.9769 C   0  0  0  0  0  0  0  0  0  0  0  0
   22.5655    9.3647   15.8358 C   0  0  0  0  0  0  0  0  0  0  0  0
   23.1446    9.0112   14.6010 C   0  0  0  0  0  0  0  0  0  0  0  0
   23.9057    7.8345   14.4783 C   0  0  0  0  0  0  0  0  0  0  0  0
   23.1901    6.7821   19.1657 O   0  0  0  0  0  0  0  0  0  0  0  0
   25.4051    5.4019   14.4298 O   0  0  0  0  0  0  0  0  0  0  0  0
   24.1522    4.6839   20.3830 O   0  0  0  0  0  0  0  0  0  0  0  0
   22.1268    8.9578   18.1802 N   0  0  0  0  0  0  0  0  0  0  0  0
   24.4772    7.5214   13.1906 N   0  0  0  0  0  0  0  0  0  0  0  0
   26.4698    3.2139   15.3935 O   0  0  0  0  0  0  0  0  0  0  0  0
   23.6417    5.4629   20.4845 H   0  0  0  0  0  0  0  0  0  0  0  0
   22.2251    8.4074   18.9905 H   0  0  0  0  0  0  0  0  0  0  0  0
   21.6075    9.7936   18.2129 H   0  0  0  0  0  0  0  0  0  0  0  0
   25.0143    6.7044   13.0759 H   0  0  0  0  0  0  0  0  0  0  0  0
   24.3299    8.1249   12.4268 H   0  0  0  0  0  0  0  0  0  0  0  0
   26.3698    3.7381   14.6232 H   0  0  0  0  0  0  0  0  0  0  0  0
  1  2  2  0  0  0
  1  6  1  0  0  0
  1 17  1  0  0  0
  2  3  1  0  0  0
  2 10  1  0  0  0
  3  4  2  0  0  0
  3  7  1  0  0  0
  4  5  1  0  0  0
  4 20  1  0  0  0
  5  6  2  0  0  0
  7  8  1  0  0  0
  7 16  2  0  0  0
  8  9  2  0  0  0
  8 14  1  0  0  0
  9 10  1  0  0  0
  9 11  1  0  0  0
 10 15  2  0  0  0
 11 12  2  0  0  0
 11 18  1  0  0  0
 12 13  1  0  0  0
 13 14  2  0  0  0
 14 19  1  0  0  0
 17 21  1  0  0  0
 18 22  1  0  0  0
 18 23  1  0  0  0
 19 24  1  0  0  0
 19 25  1  0  0  0
 20 26  1  0  0  0
M  END
> <minimizedAffinity>
-9.13152

$$$$
1M2R_MNY_A_351


 26 28  0  0  0  0  0  0  0  0999 V2000
   25.9264    3.5882   16.6224 C   0  0  0  0  0  0  0  0  0  0  0  0
   25.1452    4.7959   16.7254 C   0  0  0  0  0  0  0  0  0  0  0  0
   24.5641    5.1618   17.9930 C   0  0  0  0  0  0  0  0  0  0  0  0
   24.7634    4.3037   19.1270 C   0  0  0  0  0  0  0  0  0  0  0  0
   25.5338    3.1247   18.9967 C   0  0  0  0  0  0  0  0  0  0  0  0
   26.1047    2.7674   17.7545 C   0  0  0  0  0  0  0  0  0  0  0  0
   23.7481    6.4132   18.1038 C   0  0  0  0  0  0  0  0  0  0  0  0
   23.5471    7.3003   16.9142 C   0  0  0  0  0  0  0  0  0  0  0  0
   24.1363    6.9372   15.6460 C   0  0  0  0  0  0  0  0  0  0  0  0
   24.9514    5.6876   15.5365 C   0  0  0  0  0  0  0  0  0  0  0  0
   23.9425    7.7934   14.5109 C   0  0  0  0  0  0  0  0  0  0  0  0
   23.1673    8.9652   14.6420 C   0  0  0  0  0  0  0  0  0  0  0  0
   22.5851    9.3187   15.8753 C   0  0  0  0  0  0  0  0  0  0  0  0
   22.7605    8.5045   17.0090 C   0  0  0  0  0  0  0  0  0  0  0  0
   25.4550    5.3767   14.4502 O   0  0  0  0  0  0  0  0  0  0  0  0
   23.2417    6.7277   19.1953 O   0  0  0  0  0  0  0  0  0  0  0  0
   26.5114    3.1917   15.4096 O   0  0  0  0  0  0  0  0  0  0  0  0
   24.4955    7.4943   13.2541 N   0  0  0  0  0  0  0  0  0  0  0  0
   22.1407    8.9134   18.2466 N   0  0  0  0  0  0  0  0  0  0  0  0
   24.2009    4.6199   20.4145 O   0  0  0  0  0  0  0  0  0  0  0  0
   26.4065    3.7212   14.6436 H   0  0  0  0  0  0  0  0  0  0  0  0
   25.0402    6.6826   13.1365 H   0  0  0  0  0  0  0  0  0  0  0  0
   24.3383    8.0963   12.4912 H   0  0  0  0  0  0  0  0  0  0  0  0
   22.2469    8.3627   19.0557 H   0  0  0  0  0  0  0  0  0  0  0  0
   21.6118    9.7429   18.2817 H   0  0  0  0  0  0  0  0  0  0  0  0
   23.6872    5.3959   20.5235 H   0  0  0  0  0  0  0  0  0  0  0  0
  1  2  2  0  0  0
  1  6  1  0  0  0
  1 17  1  0  0  0
  2  3  1  0  0  0
  2 10  1  0  0  0
  3  4  2  0  0  0
  3  7  1  0  0  0
  4  5  1  0  0  0
  4 20  1  0  0  0
  5  6  2  0  0  0
  7  8  1  0  0  0
  7 16  2  0  0  0
  8  9  2  0  0  0
  8 14  1  0  0  0
  9 10  1  0  0  0
  9 11  1  0  0  0
 10 15  2  0  0  0
 11 12  2  0  0  0
 11 18  1  0  0  0
 12 13  1  0  0  0
 13 14  2  0  0  0
 14 19  1  0  0  0
 17 21  1  0  0  0
 18 22  1  0  0  0
 18 23  1  0  0  0
 19 24  1  0  0  0
 19 25  1  0  0  0
 20 26  1  0  0  0
M  END
> <minimizedAffinity>
-9.12391

$$$$
1M2R_MNY_A_351


 26 28  0  0  0  0  0  0  0  0999 V2000
   21.8864    8.9822   18.1070 C   0  0  0  0  0  0  0  0  0  0  0  0
   22.7648    7.9027   17.7295 C   0  0  0  0  0  0  0  0  0  0  0  0
   23.2867    7.8461   16.3868 C   0  0  0  0  0  0  0  0  0  0  0  0
   22.9063    8.8617   15.4457 C   0  0  0  0  0  0  0  0  0  0  0  0
   22.0424    9.9086   15.8435 C   0  0  0  0  0  0  0  0  0  0  0  0
   21.5325    9.9646   17.1601 C   0  0  0  0  0  0  0  0  0  0  0  0
   24.1961    6.7242   15.9888 C   0  0  0  0  0  0  0  0  0  0  0  0
   24.5860    5.6707   16.9791 C   0  0  0  0  0  0  0  0  0  0  0  0
   24.0689    5.7323   18.3268 C   0  0  0  0  0  0  0  0  0  0  0  0
   23.1613    6.8533   18.7234 C   0  0  0  0  0  0  0  0  0  0  0  0
   24.4491    4.7214   19.2715 C   0  0  0  0  0  0  0  0  0  0  0  0
   25.3052    3.6740   18.8698 C   0  0  0  0  0  0  0  0  0  0  0  0
   25.8056    3.6067   17.5545 C   0  0  0  0  0  0  0  0  0  0  0  0
   25.4572    4.5848   16.6054 C   0  0  0  0  0  0  0  0  0  0  0  0
   22.7181    6.9051   19.8772 O   0  0  0  0  0  0  0  0  0  0  0  0
   24.6432    6.6709   14.8295 O   0  0  0  0  0  0  0  0  0  0  0  0
   21.3541    9.0787   19.4023 O   0  0  0  0  0  0  0  0  0  0  0  0
   23.9820    4.7325   20.5969 N   0  0  0  0  0  0  0  0  0  0  0  0
   25.9971    4.4664   15.2722 N   0  0  0  0  0  0  0  0  0  0  0  0
   23.3949    8.8494   14.0910 O   0  0  0  0  0  0  0  0  0  0  0  0
   21.5751    8.4372   20.0486 H   0  0  0  0  0  0  0  0  0  0  0  0
   23.3835    5.4523   20.9019 H   0  0  0  0  0  0  0  0  0  0  0  0
   24.2531    4.0205   21.2204 H   0  0  0  0  0  0  0  0  0  0  0  0
   25.7701    5.1367   14.5878 H   0  0  0  0  0  0  0  0  0  0  0  0
   26.5925    3.7153   15.0471 H   0  0  0  0  0  0  0  0  0  0  0  0
   23.9683    8.1653   13.8060 H   0  0  0  0  0  0  0  0  0  0  0  0
  1  2  2  0  0  0
  1  6  1  0  0  0
  1 17  1  0  0  0
  2  3  1  0  0  0
  2 10  1  0  0  0
  3  4  2  0  0  0
  3  7  1  0  0  0
  4  5  1  0  0  0
  4 20  1  0  0  0
  5  6  2  0  0  0
  7  8  1  0  0  0
  7 16  2  0  0  0
  8  9  2  0  0  0
  8 14  1  0  0  0
  9 10  1  0  0  0
  9 11  1  0  0  0
 10 15  2  0  0  0
 11 12  2  0  0  0
 11 18  1  0  0  0
 12 13  1  0  0  0
 13 14  2  0  0  0
 14 19  1  0  0  0
 17 21  1  0  0  0
 18 22  1  0  0  0
 18 23  1  0  0  0
 19 24  1  0  0  0
 19 25  1  0  0  0
 20 26  1  0  0  0
M  END
> <minimizedAffinity>
-8.91961

$$$$
