2DRC_MTX_A_161


 40 42  0  0  0  0  0  0  0  0999 V2000
   18.7829   61.1756   24.1238 C   0  0  0  0  0  0  0  0  0  0  0  0
   19.8830   60.6866   24.7168 C   0  0  0  0  0  0  0  0  0  0  0  0
   20.3235   59.2884   24.5670 C   0  0  0  0  0  0  0  0  0  0  0  0
   19.5732   58.4939   23.7883 C   0  0  0  0  0  0  0  0  0  0  0  0
   18.3523   59.0437   23.1187 C   0  0  0  0  0  0  0  0  0  0  0  0
   17.9931   60.2546   23.2547 C   0  0  0  0  0  0  0  0  0  0  0  0
   18.3069   62.6224   24.3625 C   0  0  0  0  0  0  0  0  0  0  0  0
   17.0945   62.9037   24.0704 O   0  0  0  0  0  0  0  0  0  0  0  0
   19.1706   63.5474   24.7926 N   0  0  0  0  0  0  0  0  0  0  0  0
   20.1070   63.2720   24.9212 H   0  0  0  0  0  0  0  0  0  0  0  0
   18.8146   64.9896   25.0971 C   0  0  0  0  0  0  0  0  0  0  0  0
   20.0402   65.6246   24.4139 C   0  0  0  0  0  0  0  0  0  0  0  0
   19.9555   66.3364   23.2772 O   0  0  0  0  0  0  0  0  0  0  0  0
   21.1244   65.4359   24.9751 O   0  0  0  0  0  0  0  0  0  0  0  0
   21.1614   64.9365   25.7671 H   0  0  0  0  0  0  0  0  0  0  0  0
   18.8950   65.2775   26.6121 C   0  0  0  0  0  0  0  0  0  0  0  0
   18.0304   64.4332   27.5402 C   0  0  0  0  0  0  0  0  0  0  0  0
   16.3983   64.6184   27.0397 C   0  0  0  0  0  0  0  0  0  0  0  0
   15.8023   66.0102   27.2654 O   0  0  0  0  0  0  0  0  0  0  0  0
   15.7611   63.7417   26.5835 O   0  0  0  0  0  0  0  0  0  0  0  0
   16.1488   62.8984   26.4550 H   0  0  0  0  0  0  0  0  0  0  0  0
   20.0511   57.1231   23.6266 N   0  0  0  0  0  0  0  0  0  0  0  0
   20.7938   56.6975   22.3214 C   0  0  0  0  0  0  0  0  0  0  0  0
   19.7063   56.1809   24.8200 C   0  0  0  0  0  0  0  0  0  0  0  0
   14.4649   54.4604   24.7201 N   0  0  0  0  0  0  0  0  0  0  0  0
   13.8123   54.3807   25.9090 C   0  0  0  0  0  0  0  0  0  0  0  0
   12.5751   54.0913   25.9180 N   0  0  0  0  0  0  0  0  0  0  0  0
   14.4812   54.6020   27.0336 N   0  0  0  0  0  0  0  0  0  0  0  0
   15.8067   54.9651   27.2367 C   0  0  0  0  0  0  0  0  0  0  0  0
   16.3828   55.1627   28.4426 N   0  0  0  0  0  0  0  0  0  0  0  0
   16.4661   55.0698   25.9247 C   0  0  0  0  0  0  0  0  0  0  0  0
   17.6408   55.5384   25.9576 N   0  0  0  0  0  0  0  0  0  0  0  0
   18.3152   55.6512   24.7938 C   0  0  0  0  0  0  0  0  0  0  0  0
   17.6793   55.2501   23.5353 C   0  0  0  0  0  0  0  0  0  0  0  0
   16.3563   54.8112   23.5789 N   0  0  0  0  0  0  0  0  0  0  0  0
   15.8222   54.7657   24.8133 C   0  0  0  0  0  0  0  0  0  0  0  0
   12.1008   53.9315   25.0702 H   0  0  0  0  0  0  0  0  0  0  0  0
   12.0908   54.0268   26.7727 H   0  0  0  0  0  0  0  0  0  0  0  0
   15.8494   55.0672   29.2646 H   0  0  0  0  0  0  0  0  0  0  0  0
   17.3360   55.4022   28.4994 H   0  0  0  0  0  0  0  0  0  0  0  0
 25 26  2  0  0  0
 25 36  1  0  0  0
 26 27  1  0  0  0
 26 28  1  0  0  0
 28 29  2  0  0  0
 29 30  1  0  0  0
 29 31  1  0  0  0
 31 32  1  0  0  0
 31 36  2  0  0  0
 32 33  2  0  0  0
 33 34  1  0  0  0
 33 24  1  0  0  0
 34 35  2  0  0  0
 35 36  1  0  0  0
 24 22  1  0  0  0
 22 23  1  0  0  0
 22  4  1  0  0  0
  1  2  2  0  0  0
  1  6  1  0  0  0
  1  7  1  0  0  0
  2  3  1  0  0  0
  3  4  2  0  0  0
  4  5  1  0  0  0
  5  6  2  0  0  0
  7  8  2  0  0  0
  7  9  1  0  0  0
  9 11  1  0  0  0
 11 12  1  0  0  0
 11 16  1  0  0  0
 12 13  2  0  0  0
 12 14  1  0  0  0
 16 17  1  0  0  0
 17 18  1  0  0  0
 18 19  2  0  0  0
 18 20  1  0  0  0
 27 37  1  0  0  0
 27 38  1  0  0  0
 30 39  1  0  0  0
 30 40  1  0  0  0
  9 10  1  0  0  0
 14 15  1  0  0  0
 20 21  1  0  0  0
M  END
> <minimizedAffinity>
-10.18832

$$$$
2DRC_MTX_A_161


 40 42  0  0  0  0  0  0  0  0999 V2000
   15.6964   59.5234   29.0502 C   0  0  0  0  0  0  0  0  0  0  0  0
   15.9376   60.2017   27.9176 C   0  0  0  0  0  0  0  0  0  0  0  0
   16.4265   59.5604   26.6844 C   0  0  0  0  0  0  0  0  0  0  0  0
   16.6222   58.2335   26.7247 C   0  0  0  0  0  0  0  0  0  0  0  0
   16.3424   57.4764   27.9855 C   0  0  0  0  0  0  0  0  0  0  0  0
   15.9142   58.0469   29.0366 C   0  0  0  0  0  0  0  0  0  0  0  0
   15.2590   60.2354   30.3457 C   0  0  0  0  0  0  0  0  0  0  0  0
   15.3835   59.5953   31.4453 O   0  0  0  0  0  0  0  0  0  0  0  0
   14.7060   61.4508   30.2859 N   0  0  0  0  0  0  0  0  0  0  0  0
   14.5717   61.8472   29.3948 H   0  0  0  0  0  0  0  0  0  0  0  0
   14.2701   62.2641   31.4892 C   0  0  0  0  0  0  0  0  0  0  0  0
   13.5541   63.3779   30.7026 C   0  0  0  0  0  0  0  0  0  0  0  0
   13.0983   64.5026   31.2800 O   0  0  0  0  0  0  0  0  0  0  0  0
   13.4149   63.1747   29.4920 O   0  0  0  0  0  0  0  0  0  0  0  0
   13.7402   62.3837   29.1093 H   0  0  0  0  0  0  0  0  0  0  0  0
   15.4843   62.8815   32.2165 C   0  0  0  0  0  0  0  0  0  0  0  0
   16.5608   63.5408   31.3631 C   0  0  0  0  0  0  0  0  0  0  0  0
   18.0049   62.6322   31.5570 C   0  0  0  0  0  0  0  0  0  0  0  0
   18.3206   61.6607   30.4168 O   0  0  0  0  0  0  0  0  0  0  0  0
   18.6960   62.7157   32.5046 O   0  0  0  0  0  0  0  0  0  0  0  0
   18.4814   63.3182   33.1894 H   0  0  0  0  0  0  0  0  0  0  0  0
   17.0718   57.6165   25.4793 N   0  0  0  0  0  0  0  0  0  0  0  0
   16.9639   56.0719   25.2828 C   0  0  0  0  0  0  0  0  0  0  0  0
   17.6821   58.6191   24.4531 C   0  0  0  0  0  0  0  0  0  0  0  0
   23.1822   58.6873   24.0215 N   0  0  0  0  0  0  0  0  0  0  0  0
   23.7275   58.1212   22.9135 C   0  0  0  0  0  0  0  0  0  0  0  0
   24.9811   58.2102   22.7258 N   0  0  0  0  0  0  0  0  0  0  0  0
   22.9410   57.4845   22.0549 N   0  0  0  0  0  0  0  0  0  0  0  0
   21.5628   57.3102   22.0545 C   0  0  0  0  0  0  0  0  0  0  0  0
   20.8648   56.6331   21.1166 N   0  0  0  0  0  0  0  0  0  0  0  0
   21.0113   57.9639   23.2527 C   0  0  0  0  0  0  0  0  0  0  0  0
   19.7477   58.0076   23.2989 N   0  0  0  0  0  0  0  0  0  0  0  0
   19.1682   58.5798   24.3752 C   0  0  0  0  0  0  0  0  0  0  0  0
   19.9994   59.1430   25.4434 C   0  0  0  0  0  0  0  0  0  0  0  0
   21.3842   59.1177   25.2804 N   0  0  0  0  0  0  0  0  0  0  0  0
   21.8036   58.5218   24.1490 C   0  0  0  0  0  0  0  0  0  0  0  0
   25.5436   58.6879   23.3774 H   0  0  0  0  0  0  0  0  0  0  0  0
   25.3898   57.8014   21.9289 H   0  0  0  0  0  0  0  0  0  0  0  0
   21.3329   56.2313   20.3493 H   0  0  0  0  0  0  0  0  0  0  0  0
   19.8882   56.5414   21.2005 H   0  0  0  0  0  0  0  0  0  0  0  0
 25 26  2  0  0  0
 25 36  1  0  0  0
 26 27  1  0  0  0
 26 28  1  0  0  0
 28 29  2  0  0  0
 29 30  1  0  0  0
 29 31  1  0  0  0
 31 32  1  0  0  0
 31 36  2  0  0  0
 32 33  2  0  0  0
 33 34  1  0  0  0
 33 24  1  0  0  0
 34 35  2  0  0  0
 35 36  1  0  0  0
 24 22  1  0  0  0
 22 23  1  0  0  0
 22  4  1  0  0  0
  1  2  2  0  0  0
  1  6  1  0  0  0
  1  7  1  0  0  0
  2  3  1  0  0  0
  3  4  2  0  0  0
  4  5  1  0  0  0
  5  6  2  0  0  0
  7  8  2  0  0  0
  7  9  1  0  0  0
  9 11  1  0  0  0
 11 12  1  0  0  0
 11 16  1  0  0  0
 12 13  2  0  0  0
 12 14  1  0  0  0
 16 17  1  0  0  0
 17 18  1  0  0  0
 18 19  2  0  0  0
 18 20  1  0  0  0
 27 37  1  0  0  0
 27 38  1  0  0  0
 30 39  1  0  0  0
 30 40  1  0  0  0
  9 10  1  0  0  0
 14 15  1  0  0  0
 20 21  1  0  0  0
M  END
> <minimizedAffinity>
-10.12502

$$$$
2DRC_MTX_A_161


 40 42  0  0  0  0  0  0  0  0999 V2000
   18.8398   61.5852   24.2261 C   0  0  0  0  0  0  0  0  0  0  0  0
   20.0055   61.0801   24.6588 C   0  0  0  0  0  0  0  0  0  0  0  0
   20.4330   59.6964   24.3871 C   0  0  0  0  0  0  0  0  0  0  0  0
   19.5999   58.9329   23.6635 C   0  0  0  0  0  0  0  0  0  0  0  0
   18.3048   59.5010   23.1722 C   0  0  0  0  0  0  0  0  0  0  0  0
   17.9575   60.6993   23.4112 C   0  0  0  0  0  0  0  0  0  0  0  0
   18.3874   63.0126   24.5927 C   0  0  0  0  0  0  0  0  0  0  0  0
   17.1355   63.2147   24.7550 O   0  0  0  0  0  0  0  0  0  0  0  0
   19.2848   64.0008   24.6618 N   0  0  0  0  0  0  0  0  0  0  0  0
   20.2205   63.7826   24.4472 H   0  0  0  0  0  0  0  0  0  0  0  0
   18.9681   65.4330   25.0462 C   0  0  0  0  0  0  0  0  0  0  0  0
   20.0283   66.0979   24.1485 C   0  0  0  0  0  0  0  0  0  0  0  0
   19.7153   66.9442   23.1526 O   0  0  0  0  0  0  0  0  0  0  0  0
   21.2018   65.8014   24.3953 O   0  0  0  0  0  0  0  0  0  0  0  0
   21.3984   65.2092   25.0943 H   0  0  0  0  0  0  0  0  0  0  0  0
   19.3323   65.7097   26.5211 C   0  0  0  0  0  0  0  0  0  0  0  0
   19.4571   67.1639   26.9588 C   0  0  0  0  0  0  0  0  0  0  0  0
   20.8730   67.2959   27.9213 C   0  0  0  0  0  0  0  0  0  0  0  0
   22.1778   67.4681   27.1394 O   0  0  0  0  0  0  0  0  0  0  0  0
   20.8622   67.2299   29.0953 O   0  0  0  0  0  0  0  0  0  0  0  0
   20.0504   67.1245   29.5511 H   0  0  0  0  0  0  0  0  0  0  0  0
   20.0629   57.5775   23.3770 N   0  0  0  0  0  0  0  0  0  0  0  0
   20.6880   57.2368   21.9879 C   0  0  0  0  0  0  0  0  0  0  0  0
   19.8255   56.5623   24.5361 C   0  0  0  0  0  0  0  0  0  0  0  0
   14.6834   54.5620   24.5577 N   0  0  0  0  0  0  0  0  0  0  0  0
   14.0389   54.5129   25.7525 C   0  0  0  0  0  0  0  0  0  0  0  0
   12.8189   54.1588   25.7837 N   0  0  0  0  0  0  0  0  0  0  0  0
   14.6976   54.8306   26.8599 N   0  0  0  0  0  0  0  0  0  0  0  0
   16.0021   55.2744   27.0360 C   0  0  0  0  0  0  0  0  0  0  0  0
   16.5697   55.5681   28.2263 N   0  0  0  0  0  0  0  0  0  0  0  0
   16.6520   55.3422   25.7168 C   0  0  0  0  0  0  0  0  0  0  0  0
   17.8001   55.8738   25.7179 N   0  0  0  0  0  0  0  0  0  0  0  0
   18.4647   55.9586   24.5462 C   0  0  0  0  0  0  0  0  0  0  0  0
   17.8483   55.4560   23.3148 C   0  0  0  0  0  0  0  0  0  0  0  0
   16.5507   54.9502   23.3891 N   0  0  0  0  0  0  0  0  0  0  0  0
   16.0227   54.9439   24.6269 C   0  0  0  0  0  0  0  0  0  0  0  0
   12.3518   53.9279   24.9484 H   0  0  0  0  0  0  0  0  0  0  0  0
   12.3408   54.1154   26.6432 H   0  0  0  0  0  0  0  0  0  0  0  0
   16.0441   55.4894   29.0550 H   0  0  0  0  0  0  0  0  0  0  0  0
   17.5089   55.8608   28.2649 H   0  0  0  0  0  0  0  0  0  0  0  0
 25 26  2  0  0  0
 25 36  1  0  0  0
 26 27  1  0  0  0
 26 28  1  0  0  0
 28 29  2  0  0  0
 29 30  1  0  0  0
 29 31  1  0  0  0
 31 32  1  0  0  0
 31 36  2  0  0  0
 32 33  2  0  0  0
 33 34  1  0  0  0
 33 24  1  0  0  0
 34 35  2  0  0  0
 35 36  1  0  0  0
 24 22  1  0  0  0
 22 23  1  0  0  0
 22  4  1  0  0  0
  1  2  2  0  0  0
  1  6  1  0  0  0
  1  7  1  0  0  0
  2  3  1  0  0  0
  3  4  2  0  0  0
  4  5  1  0  0  0
  5  6  2  0  0  0
  7  8  2  0  0  0
  7  9  1  0  0  0
  9 11  1  0  0  0
 11 12  1  0  0  0
 11 16  1  0  0  0
 12 13  2  0  0  0
 12 14  1  0  0  0
 16 17  1  0  0  0
 17 18  1  0  0  0
 18 19  2  0  0  0
 18 20  1  0  0  0
 27 37  1  0  0  0
 27 38  1  0  0  0
 30 39  1  0  0  0
 30 40  1  0  0  0
  9 10  1  0  0  0
 14 15  1  0  0  0
 20 21  1  0  0  0
M  END
> <minimizedAffinity>
-9.90812

$$$$
2DRC_MTX_A_161


 40 42  0  0  0  0  0  0  0  0999 V2000
   15.6973   58.8907   29.1046 C   0  0  0  0  0  0  0  0  0  0  0  0
   15.5757   57.5668   29.2874 C   0  0  0  0  0  0  0  0  0  0  0  0
   15.8349   56.5806   28.2237 C   0  0  0  0  0  0  0  0  0  0  0  0
   16.2170   57.0593   27.0298 C   0  0  0  0  0  0  0  0  0  0  0  0
   16.3629   58.5359   26.8304 C   0  0  0  0  0  0  0  0  0  0  0  0
   16.1414   59.3699   27.7627 C   0  0  0  0  0  0  0  0  0  0  0  0
   15.3442   59.8997   30.2154 C   0  0  0  0  0  0  0  0  0  0  0  0
   15.4375   59.5041   31.4275 O   0  0  0  0  0  0  0  0  0  0  0  0
   14.8907   61.1153   29.8942 N   0  0  0  0  0  0  0  0  0  0  0  0
   14.7719   61.3197   28.9385 H   0  0  0  0  0  0  0  0  0  0  0  0
   14.5455   62.2028   30.8930 C   0  0  0  0  0  0  0  0  0  0  0  0
   14.0703   63.2461   29.8646 C   0  0  0  0  0  0  0  0  0  0  0  0
   13.5329   64.4265   30.2167 O   0  0  0  0  0  0  0  0  0  0  0  0
   14.2078   62.9306   28.6782 O   0  0  0  0  0  0  0  0  0  0  0  0
   14.5849   62.1026   28.4543 H   0  0  0  0  0  0  0  0  0  0  0  0
   15.8124   62.7444   31.5900 C   0  0  0  0  0  0  0  0  0  0  0  0
   16.9547   63.2294   30.7058 C   0  0  0  0  0  0  0  0  0  0  0  0
   18.2849   62.1714   30.9503 C   0  0  0  0  0  0  0  0  0  0  0  0
   19.1329   62.4677   32.1899 O   0  0  0  0  0  0  0  0  0  0  0  0
   18.5566   61.2972   30.2123 O   0  0  0  0  0  0  0  0  0  0  0  0
   18.0217   61.1357   29.4602 H   0  0  0  0  0  0  0  0  0  0  0  0
   16.5032   56.0602   26.0034 N   0  0  0  0  0  0  0  0  0  0  0  0
   15.4658   55.7742   24.8728 C   0  0  0  0  0  0  0  0  0  0  0  0
   17.8641   55.3228   26.1908 C   0  0  0  0  0  0  0  0  0  0  0  0
   21.9218   56.6713   22.7039 N   0  0  0  0  0  0  0  0  0  0  0  0
   22.8054   57.6189   23.1125 C   0  0  0  0  0  0  0  0  0  0  0  0
   23.8132   57.8808   22.3842 N   0  0  0  0  0  0  0  0  0  0  0  0
   22.5946   58.2529   24.2592 N   0  0  0  0  0  0  0  0  0  0  0  0
   21.5922   58.0903   25.2071 C   0  0  0  0  0  0  0  0  0  0  0  0
   21.4785   58.8037   26.3488 N   0  0  0  0  0  0  0  0  0  0  0  0
   20.6773   57.0358   24.7400 C   0  0  0  0  0  0  0  0  0  0  0  0
   19.7999   56.6842   25.5810 N   0  0  0  0  0  0  0  0  0  0  0  0
   18.9154   55.7310   25.2191 C   0  0  0  0  0  0  0  0  0  0  0  0
   18.9966   55.1219   23.8882 C   0  0  0  0  0  0  0  0  0  0  0  0
   20.0382   55.5153   23.0484 N   0  0  0  0  0  0  0  0  0  0  0  0
   20.8403   56.4671   23.5600 C   0  0  0  0  0  0  0  0  0  0  0  0
   23.9478   57.3967   21.5376 H   0  0  0  0  0  0  0  0  0  0  0  0
   24.4594   58.5677   22.6666 H   0  0  0  0  0  0  0  0  0  0  0  0
   22.1487   59.4904   26.5689 H   0  0  0  0  0  0  0  0  0  0  0  0
   20.7254   58.6369   26.9605 H   0  0  0  0  0  0  0  0  0  0  0  0
 25 26  2  0  0  0
 25 36  1  0  0  0
 26 27  1  0  0  0
 26 28  1  0  0  0
 28 29  2  0  0  0
 29 30  1  0  0  0
 29 31  1  0  0  0
 31 32  1  0  0  0
 31 36  2  0  0  0
 32 33  2  0  0  0
 33 34  1  0  0  0
 33 24  1  0  0  0
 34 35  2  0  0  0
 35 36  1  0  0  0
 24 22  1  0  0  0
 22 23  1  0  0  0
 22  4  1  0  0  0
  1  2  2  0  0  0
  1  6  1  0  0  0
  1  7  1  0  0  0
  2  3  1  0  0  0
  3  4  2  0  0  0
  4  5  1  0  0  0
  5  6  2  0  0  0
  7  8  2  0  0  0
  7  9  1  0  0  0
  9 11  1  0  0  0
 11 12  1  0  0  0
 11 16  1  0  0  0
 12 13  2  0  0  0
 12 14  1  0  0  0
 16 17  1  0  0  0
 17 18  1  0  0  0
 18 19  2  0  0  0
 18 20  1  0  0  0
 27 37  1  0  0  0
 27 38  1  0  0  0
 30 39  1  0  0  0
 30 40  1  0  0  0
  9 10  1  0  0  0
 14 15  1  0  0  0
 20 21  1  0  0  0
M  END
> <minimizedAffinity>
-9.47856

$$$$
2DRC_MTX_A_161


 40 42  0  0  0  0  0  0  0  0999 V2000
   15.9295   59.0451   28.8827 C   0  0  0  0  0  0  0  0  0  0  0  0
   16.2430   59.2834   27.5998 C   0  0  0  0  0  0  0  0  0  0  0  0
   16.4283   58.2126   26.6047 C   0  0  0  0  0  0  0  0  0  0  0  0
   16.2608   56.9510   27.0297 C   0  0  0  0  0  0  0  0  0  0  0  0
   15.9004   56.6871   28.4587 C   0  0  0  0  0  0  0  0  0  0  0  0
   15.7379   57.6250   29.2999 C   0  0  0  0  0  0  0  0  0  0  0  0
   15.8183   60.1835   29.9164 C   0  0  0  0  0  0  0  0  0  0  0  0
   15.6226   59.8589   31.1374 O   0  0  0  0  0  0  0  0  0  0  0  0
   15.8569   61.4574   29.5138 N   0  0  0  0  0  0  0  0  0  0  0  0
   15.9318   61.6280   28.5471 H   0  0  0  0  0  0  0  0  0  0  0  0
   15.7937   62.6594   30.4360 C   0  0  0  0  0  0  0  0  0  0  0  0
   14.2807   62.9121   30.2975 C   0  0  0  0  0  0  0  0  0  0  0  0
   13.4559   63.0050   31.3544 O   0  0  0  0  0  0  0  0  0  0  0  0
   13.8592   63.0213   29.1414 O   0  0  0  0  0  0  0  0  0  0  0  0
   14.4514   62.9533   28.4184 H   0  0  0  0  0  0  0  0  0  0  0  0
   16.5483   63.8654   29.8355 C   0  0  0  0  0  0  0  0  0  0  0  0
   17.2184   63.6778   28.4800 C   0  0  0  0  0  0  0  0  0  0  0  0
   16.3614   64.6353   27.3409 C   0  0  0  0  0  0  0  0  0  0  0  0
   17.1019   65.8824   26.8511 O   0  0  0  0  0  0  0  0  0  0  0  0
   15.2724   64.3823   26.9767 O   0  0  0  0  0  0  0  0  0  0  0  0
   14.8401   63.6128   27.2912 H   0  0  0  0  0  0  0  0  0  0  0  0
   16.4139   55.9103   26.0162 N   0  0  0  0  0  0  0  0  0  0  0  0
   15.2763   55.6474   24.9803 C   0  0  0  0  0  0  0  0  0  0  0  0
   17.7471   55.1086   26.1193 C   0  0  0  0  0  0  0  0  0  0  0  0
   21.8289   56.6298   22.7330 N   0  0  0  0  0  0  0  0  0  0  0  0
   22.7159   57.5472   23.1989 C   0  0  0  0  0  0  0  0  0  0  0  0
   23.7286   57.8442   22.4912 N   0  0  0  0  0  0  0  0  0  0  0  0
   22.5034   58.1159   24.3790 N   0  0  0  0  0  0  0  0  0  0  0  0
   21.4956   57.9055   25.3117 C   0  0  0  0  0  0  0  0  0  0  0  0
   21.3806   58.5531   26.4917 N   0  0  0  0  0  0  0  0  0  0  0  0
   20.5770   56.8848   24.7811 C   0  0  0  0  0  0  0  0  0  0  0  0
   19.6936   56.4911   25.5967 N   0  0  0  0  0  0  0  0  0  0  0  0
   18.8053   55.5654   25.1771 C   0  0  0  0  0  0  0  0  0  0  0  0
   18.8893   55.0328   23.8139 C   0  0  0  0  0  0  0  0  0  0  0  0
   19.9371   55.4673   23.0026 N   0  0  0  0  0  0  0  0  0  0  0  0
   20.7422   56.3835   23.5713 C   0  0  0  0  0  0  0  0  0  0  0  0
   23.8645   57.4085   21.6188 H   0  0  0  0  0  0  0  0  0  0  0  0
   24.3774   58.5100   22.8152 H   0  0  0  0  0  0  0  0  0  0  0  0
   22.0537   59.2221   26.7537 H   0  0  0  0  0  0  0  0  0  0  0  0
   20.6237   58.3562   27.0896 H   0  0  0  0  0  0  0  0  0  0  0  0
 25 26  2  0  0  0
 25 36  1  0  0  0
 26 27  1  0  0  0
 26 28  1  0  0  0
 28 29  2  0  0  0
 29 30  1  0  0  0
 29 31  1  0  0  0
 31 32  1  0  0  0
 31 36  2  0  0  0
 32 33  2  0  0  0
 33 34  1  0  0  0
 33 24  1  0  0  0
 34 35  2  0  0  0
 35 36  1  0  0  0
 24 22  1  0  0  0
 22 23  1  0  0  0
 22  4  1  0  0  0
  1  2  2  0  0  0
  1  6  1  0  0  0
  1  7  1  0  0  0
  2  3  1  0  0  0
  3  4  2  0  0  0
  4  5  1  0  0  0
  5  6  2  0  0  0
  7  8  2  0  0  0
  7  9  1  0  0  0
  9 11  1  0  0  0
 11 12  1  0  0  0
 11 16  1  0  0  0
 12 13  2  0  0  0
 12 14  1  0  0  0
 16 17  1  0  0  0
 17 18  1  0  0  0
 18 19  2  0  0  0
 18 20  1  0  0  0
 27 37  1  0  0  0
 27 38  1  0  0  0
 30 39  1  0  0  0
 30 40  1  0  0  0
  9 10  1  0  0  0
 14 15  1  0  0  0
 20 21  1  0  0  0
M  END
> <minimizedAffinity>
-9.41091

$$$$
2DRC_MTX_A_161


 40 42  0  0  0  0  0  0  0  0999 V2000
   15.9194   59.4910   29.1957 C   0  0  0  0  0  0  0  0  0  0  0  0
   15.9313   58.2064   29.5837 C   0  0  0  0  0  0  0  0  0  0  0  0
   16.0637   57.0823   28.6402 C   0  0  0  0  0  0  0  0  0  0  0  0
   16.1844   57.3901   27.3397 C   0  0  0  0  0  0  0  0  0  0  0  0
   16.1818   58.8240   26.9094 C   0  0  0  0  0  0  0  0  0  0  0  0
   16.0738   59.7795   27.7396 C   0  0  0  0  0  0  0  0  0  0  0  0
   15.7020   60.6405   30.1998 C   0  0  0  0  0  0  0  0  0  0  0  0
   15.4660   60.3283   31.4168 O   0  0  0  0  0  0  0  0  0  0  0  0
   15.6946   61.9073   29.7734 N   0  0  0  0  0  0  0  0  0  0  0  0
   15.8061   62.0641   28.8079 H   0  0  0  0  0  0  0  0  0  0  0  0
   15.5271   63.1208   30.6671 C   0  0  0  0  0  0  0  0  0  0  0  0
   13.9933   63.2106   30.5616 C   0  0  0  0  0  0  0  0  0  0  0  0
   13.1893   63.2687   31.6369 O   0  0  0  0  0  0  0  0  0  0  0  0
   13.5346   63.2212   29.4146 O   0  0  0  0  0  0  0  0  0  0  0  0
   14.1128   63.1799   28.6784 H   0  0  0  0  0  0  0  0  0  0  0  0
   16.1371   64.3820   30.0177 C   0  0  0  0  0  0  0  0  0  0  0  0
   17.0818   64.1850   28.8385 C   0  0  0  0  0  0  0  0  0  0  0  0
   16.1684   64.4012   27.4006 C   0  0  0  0  0  0  0  0  0  0  0  0
   16.5520   65.6243   26.5637 O   0  0  0  0  0  0  0  0  0  0  0  0
   15.2887   63.6886   27.0831 O   0  0  0  0  0  0  0  0  0  0  0  0
   15.0731   62.9460   27.6123 H   0  0  0  0  0  0  0  0  0  0  0  0
   16.3509   56.2601   26.4291 N   0  0  0  0  0  0  0  0  0  0  0  0
   15.3041   55.9974   25.3015 C   0  0  0  0  0  0  0  0  0  0  0  0
   17.5964   55.3727   26.7325 C   0  0  0  0  0  0  0  0  0  0  0  0
   22.2719   57.8714   25.2031 N   0  0  0  0  0  0  0  0  0  0  0  0
   22.6530   57.7402   23.9058 C   0  0  0  0  0  0  0  0  0  0  0  0
   23.6648   58.3864   23.4894 N   0  0  0  0  0  0  0  0  0  0  0  0
   21.9643   56.9377   23.1040 N   0  0  0  0  0  0  0  0  0  0  0  0
   20.8225   56.1849   23.3475 C   0  0  0  0  0  0  0  0  0  0  0  0
   20.2045   55.3946   22.4426 N   0  0  0  0  0  0  0  0  0  0  0  0
   20.4278   56.3803   24.7522 C   0  0  0  0  0  0  0  0  0  0  0  0
   19.3156   55.8658   25.0670 N   0  0  0  0  0  0  0  0  0  0  0  0
   18.8930   55.9915   26.3427 C   0  0  0  0  0  0  0  0  0  0  0  0
   19.7091   56.7216   27.3174 C   0  0  0  0  0  0  0  0  0  0  0  0
   20.8871   57.3196   26.8708 N   0  0  0  0  0  0  0  0  0  0  0  0
   21.1627   57.1102   25.5703 C   0  0  0  0  0  0  0  0  0  0  0  0
   24.1595   58.9756   24.1037 H   0  0  0  0  0  0  0  0  0  0  0  0
   23.9541   58.2978   22.5526 H   0  0  0  0  0  0  0  0  0  0  0  0
   20.5515   55.3343   21.5233 H   0  0  0  0  0  0  0  0  0  0  0  0
   19.4071   54.8790   22.7026 H   0  0  0  0  0  0  0  0  0  0  0  0
 25 26  2  0  0  0
 25 36  1  0  0  0
 26 27  1  0  0  0
 26 28  1  0  0  0
 28 29  2  0  0  0
 29 30  1  0  0  0
 29 31  1  0  0  0
 31 32  1  0  0  0
 31 36  2  0  0  0
 32 33  2  0  0  0
 33 34  1  0  0  0
 33 24  1  0  0  0
 34 35  2  0  0  0
 35 36  1  0  0  0
 24 22  1  0  0  0
 22 23  1  0  0  0
 22  4  1  0  0  0
  1  2  2  0  0  0
  1  6  1  0  0  0
  1  7  1  0  0  0
  2  3  1  0  0  0
  3  4  2  0  0  0
  4  5  1  0  0  0
  5  6  2  0  0  0
  7  8  2  0  0  0
  7  9  1  0  0  0
  9 11  1  0  0  0
 11 12  1  0  0  0
 11 16  1  0  0  0
 12 13  2  0  0  0
 12 14  1  0  0  0
 16 17  1  0  0  0
 17 18  1  0  0  0
 18 19  2  0  0  0
 18 20  1  0  0  0
 27 37  1  0  0  0
 27 38  1  0  0  0
 30 39  1  0  0  0
 30 40  1  0  0  0
  9 10  1  0  0  0
 14 15  1  0  0  0
 20 21  1  0  0  0
M  END
> <minimizedAffinity>
-9.31429

$$$$
2DRC_MTX_A_161


 40 42  0  0  0  0  0  0  0  0999 V2000
   19.4126   58.7121   27.2188 C   0  0  0  0  0  0  0  0  0  0  0  0
   20.3404   57.7487   27.3282 C   0  0  0  0  0  0  0  0  0  0  0  0
   20.7063   56.8542   26.2159 C   0  0  0  0  0  0  0  0  0  0  0  0
   20.0705   57.0421   25.0493 C   0  0  0  0  0  0  0  0  0  0  0  0
   19.0435   58.1244   24.9255 C   0  0  0  0  0  0  0  0  0  0  0  0
   18.7472   58.8901   25.8948 C   0  0  0  0  0  0  0  0  0  0  0  0
   18.9979   59.5806   28.4231 C   0  0  0  0  0  0  0  0  0  0  0  0
   19.9070   59.9055   29.2611 O   0  0  0  0  0  0  0  0  0  0  0  0
   17.7141   59.9082   28.5998 N   0  0  0  0  0  0  0  0  0  0  0  0
   17.0604   59.5551   27.9539 H   0  0  0  0  0  0  0  0  0  0  0  0
   17.1902   60.7837   29.7216 C   0  0  0  0  0  0  0  0  0  0  0  0
   15.8735   60.0172   29.9468 C   0  0  0  0  0  0  0  0  0  0  0  0
   15.4670   59.6040   31.1593 O   0  0  0  0  0  0  0  0  0  0  0  0
   15.2026   59.7949   28.9336 O   0  0  0  0  0  0  0  0  0  0  0  0
   15.5042   60.0918   28.0976 H   0  0  0  0  0  0  0  0  0  0  0  0
   16.8504   62.2013   29.2125 C   0  0  0  0  0  0  0  0  0  0  0  0
   15.9426   63.0660   30.0785 C   0  0  0  0  0  0  0  0  0  0  0  0
   14.6633   63.6332   29.0833 C   0  0  0  0  0  0  0  0  0  0  0  0
   15.0717   64.6519   28.0160 O   0  0  0  0  0  0  0  0  0  0  0  0
   13.5446   63.2973   29.2185 O   0  0  0  0  0  0  0  0  0  0  0  0
   13.3198   62.6721   29.8793 H   0  0  0  0  0  0  0  0  0  0  0  0
   20.4771   56.1671   23.9525 N   0  0  0  0  0  0  0  0  0  0  0  0
   21.2231   56.7536   22.7132 C   0  0  0  0  0  0  0  0  0  0  0  0
   20.0571   54.6767   24.1343 C   0  0  0  0  0  0  0  0  0  0  0  0
   14.5726   54.1498   24.4254 N   0  0  0  0  0  0  0  0  0  0  0  0
   13.9879   54.3757   25.6307 C   0  0  0  0  0  0  0  0  0  0  0  0
   12.7200   54.3685   25.7148 N   0  0  0  0  0  0  0  0  0  0  0  0
   14.7525   54.5941   26.6932 N   0  0  0  0  0  0  0  0  0  0  0  0
   16.1343   54.6817   26.8059 C   0  0  0  0  0  0  0  0  0  0  0  0
   16.8080   54.9085   27.9547 N   0  0  0  0  0  0  0  0  0  0  0  0
   16.7239   54.4619   25.4750 C   0  0  0  0  0  0  0  0  0  0  0  0
   17.9714   54.6616   25.4082 N   0  0  0  0  0  0  0  0  0  0  0  0
   18.5860   54.4663   24.2224 C   0  0  0  0  0  0  0  0  0  0  0  0
   17.8075   54.0489   23.0524 C   0  0  0  0  0  0  0  0  0  0  0  0
   16.4261   53.9207   23.1946 N   0  0  0  0  0  0  0  0  0  0  0  0
   15.9669   54.1598   24.4368 C   0  0  0  0  0  0  0  0  0  0  0  0
   12.1744   54.2041   24.9120 H   0  0  0  0  0  0  0  0  0  0  0  0
   12.2834   54.5272   26.5828 H   0  0  0  0  0  0  0  0  0  0  0  0
   16.3150   55.0437   28.7960 H   0  0  0  0  0  0  0  0  0  0  0  0
   17.7921   54.9386   27.9505 H   0  0  0  0  0  0  0  0  0  0  0  0
 25 26  2  0  0  0
 25 36  1  0  0  0
 26 27  1  0  0  0
 26 28  1  0  0  0
 28 29  2  0  0  0
 29 30  1  0  0  0
 29 31  1  0  0  0
 31 32  1  0  0  0
 31 36  2  0  0  0
 32 33  2  0  0  0
 33 34  1  0  0  0
 33 24  1  0  0  0
 34 35  2  0  0  0
 35 36  1  0  0  0
 24 22  1  0  0  0
 22 23  1  0  0  0
 22  4  1  0  0  0
  1  2  2  0  0  0
  1  6  1  0  0  0
  1  7  1  0  0  0
  2  3  1  0  0  0
  3  4  2  0  0  0
  4  5  1  0  0  0
  5  6  2  0  0  0
  7  8  2  0  0  0
  7  9  1  0  0  0
  9 11  1  0  0  0
 11 12  1  0  0  0
 11 16  1  0  0  0
 12 13  2  0  0  0
 12 14  1  0  0  0
 16 17  1  0  0  0
 17 18  1  0  0  0
 18 19  2  0  0  0
 18 20  1  0  0  0
 27 37  1  0  0  0
 27 38  1  0  0  0
 30 39  1  0  0  0
 30 40  1  0  0  0
  9 10  1  0  0  0
 14 15  1  0  0  0
 20 21  1  0  0  0
M  END
> <minimizedAffinity>
-8.95838

$$$$
2DRC_MTX_A_161


 40 42  0  0  0  0  0  0  0  0999 V2000
   18.3410   60.0391   23.9686 C   0  0  0  0  0  0  0  0  0  0  0  0
   18.1225   61.3057   23.5825 C   0  0  0  0  0  0  0  0  0  0  0  0
   17.4925   62.3145   24.4523 C   0  0  0  0  0  0  0  0  0  0  0  0
   17.1394   61.9200   25.6853 C   0  0  0  0  0  0  0  0  0  0  0  0
   17.3937   60.5097   26.1185 C   0  0  0  0  0  0  0  0  0  0  0  0
   17.9450   59.6564   25.3557 C   0  0  0  0  0  0  0  0  0  0  0  0
   18.9319   58.9879   23.0081 C   0  0  0  0  0  0  0  0  0  0  0  0
   18.2399   58.6661   21.9825 O   0  0  0  0  0  0  0  0  0  0  0  0
   20.0953   58.3971   23.2983 N   0  0  0  0  0  0  0  0  0  0  0  0
   20.5316   58.6414   24.1464 H   0  0  0  0  0  0  0  0  0  0  0  0
   20.7926   57.3784   22.4178 C   0  0  0  0  0  0  0  0  0  0  0  0
   20.7109   56.2009   23.4071 C   0  0  0  0  0  0  0  0  0  0  0  0
   20.3875   56.3561   24.7023 O   0  0  0  0  0  0  0  0  0  0  0  0
   20.9685   55.0876   22.9377 O   0  0  0  0  0  0  0  0  0  0  0  0
   21.1918   55.0013   22.0318 H   0  0  0  0  0  0  0  0  0  0  0  0
   22.2791   57.7420   22.2113 C   0  0  0  0  0  0  0  0  0  0  0  0
   23.2073   57.6383   23.4153 C   0  0  0  0  0  0  0  0  0  0  0  0
   24.8048   57.9470   22.8664 C   0  0  0  0  0  0  0  0  0  0  0  0
   25.0825   59.3946   22.4530 O   0  0  0  0  0  0  0  0  0  0  0  0
   25.6285   57.1124   22.7792 O   0  0  0  0  0  0  0  0  0  0  0  0
   25.4340   56.2333   23.0388 H   0  0  0  0  0  0  0  0  0  0  0  0
   16.5507   62.9477   26.5403 N   0  0  0  0  0  0  0  0  0  0  0  0
   15.8139   62.5486   27.8571 C   0  0  0  0  0  0  0  0  0  0  0  0
   16.6936   64.3984   25.9872 C   0  0  0  0  0  0  0  0  0  0  0  0
   20.4810   67.6092   28.3931 N   0  0  0  0  0  0  0  0  0  0  0  0
   21.6251   67.8492   27.7010 C   0  0  0  0  0  0  0  0  0  0  0  0
   22.4746   68.6674   28.1738 N   0  0  0  0  0  0  0  0  0  0  0  0
   21.8325   67.2214   26.5504 N   0  0  0  0  0  0  0  0  0  0  0  0
   21.0253   66.3333   25.8507 C   0  0  0  0  0  0  0  0  0  0  0  0
   21.3475   65.7498   24.6755 N   0  0  0  0  0  0  0  0  0  0  0  0
   19.7869   66.1264   26.6192 C   0  0  0  0  0  0  0  0  0  0  0  0
   18.8985   65.4521   26.0219 N   0  0  0  0  0  0  0  0  0  0  0  0
   17.7395   65.2087   26.6696 C   0  0  0  0  0  0  0  0  0  0  0  0
   17.5305   65.7338   28.0222 C   0  0  0  0  0  0  0  0  0  0  0  0
   18.5318   66.5281   28.5802 N   0  0  0  0  0  0  0  0  0  0  0  0
   19.6199   66.6843   27.8038 C   0  0  0  0  0  0  0  0  0  0  0  0
   22.2978   69.1209   29.0296 H   0  0  0  0  0  0  0  0  0  0  0  0
   23.3095   68.8479   27.6843 H   0  0  0  0  0  0  0  0  0  0  0  0
   22.2064   65.9582   24.2417 H   0  0  0  0  0  0  0  0  0  0  0  0
   20.7235   65.1163   24.2530 H   0  0  0  0  0  0  0  0  0  0  0  0
 25 26  2  0  0  0
 25 36  1  0  0  0
 26 27  1  0  0  0
 26 28  1  0  0  0
 28 29  2  0  0  0
 29 30  1  0  0  0
 29 31  1  0  0  0
 31 32  1  0  0  0
 31 36  2  0  0  0
 32 33  2  0  0  0
 33 34  1  0  0  0
 33 24  1  0  0  0
 34 35  2  0  0  0
 35 36  1  0  0  0
 24 22  1  0  0  0
 22 23  1  0  0  0
 22  4  1  0  0  0
  1  2  2  0  0  0
  1  6  1  0  0  0
  1  7  1  0  0  0
  2  3  1  0  0  0
  3  4  2  0  0  0
  4  5  1  0  0  0
  5  6  2  0  0  0
  7  8  2  0  0  0
  7  9  1  0  0  0
  9 11  1  0  0  0
 11 12  1  0  0  0
 11 16  1  0  0  0
 12 13  2  0  0  0
 12 14  1  0  0  0
 16 17  1  0  0  0
 17 18  1  0  0  0
 18 19  2  0  0  0
 18 20  1  0  0  0
 27 37  1  0  0  0
 27 38  1  0  0  0
 30 39  1  0  0  0
 30 40  1  0  0  0
  9 10  1  0  0  0
 14 15  1  0  0  0
 20 21  1  0  0  0
M  END
> <minimizedAffinity>
-8.90657

$$$$
2DRC_MTX_A_161


 40 42  0  0  0  0  0  0  0  0999 V2000
   18.7108   59.6765   25.7393 C   0  0  0  0  0  0  0  0  0  0  0  0
   19.7367   58.9032   26.1273 C   0  0  0  0  0  0  0  0  0  0  0  0
   20.2980   57.8304   25.2875 C   0  0  0  0  0  0  0  0  0  0  0  0
   19.7413   57.6481   24.0803 C   0  0  0  0  0  0  0  0  0  0  0  0
   18.6040   58.5186   23.6444 C   0  0  0  0  0  0  0  0  0  0  0  0
   18.1389   59.4434   24.3806 C   0  0  0  0  0  0  0  0  0  0  0  0
   18.0968   60.7392   26.6722 C   0  0  0  0  0  0  0  0  0  0  0  0
   17.5906   61.7815   26.1319 O   0  0  0  0  0  0  0  0  0  0  0  0
   18.1685   60.5857   27.9981 N   0  0  0  0  0  0  0  0  0  0  0  0
   18.6430   59.7940   28.3404 H   0  0  0  0  0  0  0  0  0  0  0  0
   17.5727   61.5410   29.0139 C   0  0  0  0  0  0  0  0  0  0  0  0
   18.6093   61.2900   30.1250 C   0  0  0  0  0  0  0  0  0  0  0  0
   18.8055   62.1409   31.1466 O   0  0  0  0  0  0  0  0  0  0  0  0
   19.2651   60.2483   30.0209 O   0  0  0  0  0  0  0  0  0  0  0  0
   19.1125   59.6686   29.3007 H   0  0  0  0  0  0  0  0  0  0  0  0
   16.1962   61.0452   29.5076 C   0  0  0  0  0  0  0  0  0  0  0  0
   15.5696   59.8592   28.7846 C   0  0  0  0  0  0  0  0  0  0  0  0
   15.9884   58.4403   29.6563 C   0  0  0  0  0  0  0  0  0  0  0  0
   15.2426   57.1723   29.2327 O   0  0  0  0  0  0  0  0  0  0  0  0
   16.7666   58.4321   30.5378 O   0  0  0  0  0  0  0  0  0  0  0  0
   17.2104   59.2215   30.7784 H   0  0  0  0  0  0  0  0  0  0  0  0
   20.3393   56.6033   23.2528 N   0  0  0  0  0  0  0  0  0  0  0  0
   21.1318   56.9794   21.9618 C   0  0  0  0  0  0  0  0  0  0  0  0
   20.0641   55.1535   23.7558 C   0  0  0  0  0  0  0  0  0  0  0  0
   14.6592   54.2144   24.3455 N   0  0  0  0  0  0  0  0  0  0  0  0
   14.1163   54.4458   25.5691 C   0  0  0  0  0  0  0  0  0  0  0  0
   12.8585   54.3435   25.7177 N   0  0  0  0  0  0  0  0  0  0  0  0
   14.9106   54.7684   26.5821 N   0  0  0  0  0  0  0  0  0  0  0  0
   16.2848   54.9681   26.6209 C   0  0  0  0  0  0  0  0  0  0  0  0
   16.9922   55.2958   27.7243 N   0  0  0  0  0  0  0  0  0  0  0  0
   16.8262   54.7378   25.2715 C   0  0  0  0  0  0  0  0  0  0  0  0
   18.0492   55.0309   25.1336 N   0  0  0  0  0  0  0  0  0  0  0  0
   18.6203   54.8333   23.9267 C   0  0  0  0  0  0  0  0  0  0  0  0
   17.8229   54.3066   22.8150 C   0  0  0  0  0  0  0  0  0  0  0  0
   16.4645   54.0775   23.0320 N   0  0  0  0  0  0  0  0  0  0  0  0
   16.0472   54.3334   24.2856 C   0  0  0  0  0  0  0  0  0  0  0  0
   12.2902   54.1028   24.9507 H   0  0  0  0  0  0  0  0  0  0  0  0
   12.4523   54.5049   26.5999 H   0  0  0  0  0  0  0  0  0  0  0  0
   16.5304   55.4282   28.5837 H   0  0  0  0  0  0  0  0  0  0  0  0
   17.9693   55.4022   27.6690 H   0  0  0  0  0  0  0  0  0  0  0  0
 25 26  2  0  0  0
 25 36  1  0  0  0
 26 27  1  0  0  0
 26 28  1  0  0  0
 28 29  2  0  0  0
 29 30  1  0  0  0
 29 31  1  0  0  0
 31 32  1  0  0  0
 31 36  2  0  0  0
 32 33  2  0  0  0
 33 34  1  0  0  0
 33 24  1  0  0  0
 34 35  2  0  0  0
 35 36  1  0  0  0
 24 22  1  0  0  0
 22 23  1  0  0  0
 22  4  1  0  0  0
  1  2  2  0  0  0
  1  6  1  0  0  0
  1  7  1  0  0  0
  2  3  1  0  0  0
  3  4  2  0  0  0
  4  5  1  0  0  0
  5  6  2  0  0  0
  7  8  2  0  0  0
  7  9  1  0  0  0
  9 11  1  0  0  0
 11 12  1  0  0  0
 11 16  1  0  0  0
 12 13  2  0  0  0
 12 14  1  0  0  0
 16 17  1  0  0  0
 17 18  1  0  0  0
 18 19  2  0  0  0
 18 20  1  0  0  0
 27 37  1  0  0  0
 27 38  1  0  0  0
 30 39  1  0  0  0
 30 40  1  0  0  0
  9 10  1  0  0  0
 14 15  1  0  0  0
 20 21  1  0  0  0
M  END
> <minimizedAffinity>
-8.88227

$$$$
2DRC_MTX_A_161


 40 42  0  0  0  0  0  0  0  0999 V2000
   18.3799   61.0875   24.1431 C   0  0  0  0  0  0  0  0  0  0  0  0
   17.6108   60.0196   23.8800 C   0  0  0  0  0  0  0  0  0  0  0  0
   18.1425   58.6486   23.7870 C   0  0  0  0  0  0  0  0  0  0  0  0
   19.4600   58.4917   23.9878 C   0  0  0  0  0  0  0  0  0  0  0  0
   20.3149   59.6824   24.2920 C   0  0  0  0  0  0  0  0  0  0  0  0
   19.8359   60.8560   24.3750 C   0  0  0  0  0  0  0  0  0  0  0  0
   17.8055   62.5181   24.1575 C   0  0  0  0  0  0  0  0  0  0  0  0
   17.2310   62.9373   23.0952 O   0  0  0  0  0  0  0  0  0  0  0  0
   17.9787   63.2966   25.2301 N   0  0  0  0  0  0  0  0  0  0  0  0
   18.4999   62.9297   25.9805 H   0  0  0  0  0  0  0  0  0  0  0  0
   17.4318   64.7033   25.3766 C   0  0  0  0  0  0  0  0  0  0  0  0
   18.7864   65.3989   25.6076 C   0  0  0  0  0  0  0  0  0  0  0  0
   19.9631   64.7571   25.5100 O   0  0  0  0  0  0  0  0  0  0  0  0
   18.7303   66.5984   25.8975 O   0  0  0  0  0  0  0  0  0  0  0  0
   17.8994   67.0269   25.9604 H   0  0  0  0  0  0  0  0  0  0  0  0
   16.5847   64.8431   26.6601 C   0  0  0  0  0  0  0  0  0  0  0  0
   16.8617   63.8714   27.8007 C   0  0  0  0  0  0  0  0  0  0  0  0
   15.6145   62.6910   27.7906 C   0  0  0  0  0  0  0  0  0  0  0  0
   15.8743   61.4775   26.8943 O   0  0  0  0  0  0  0  0  0  0  0  0
   14.6142   62.8057   28.3980 O   0  0  0  0  0  0  0  0  0  0  0  0
   14.4788   63.5580   28.9399 H   0  0  0  0  0  0  0  0  0  0  0  0
   19.9560   57.1191   23.9265 N   0  0  0  0  0  0  0  0  0  0  0  0
   20.6057   56.5751   22.6157 C   0  0  0  0  0  0  0  0  0  0  0  0
   19.7263   56.2974   25.2314 C   0  0  0  0  0  0  0  0  0  0  0  0
   21.8286   58.4102   29.8745 N   0  0  0  0  0  0  0  0  0  0  0  0
   20.9619   58.6769   30.8861 C   0  0  0  0  0  0  0  0  0  0  0  0
   21.4188   59.0638   32.0069 N   0  0  0  0  0  0  0  0  0  0  0  0
   19.6588   58.5323   30.6807 N   0  0  0  0  0  0  0  0  0  0  0  0
   18.9673   58.0896   29.5601 C   0  0  0  0  0  0  0  0  0  0  0  0
   17.6237   57.9851   29.4665 N   0  0  0  0  0  0  0  0  0  0  0  0
   19.9442   57.7835   28.5022 C   0  0  0  0  0  0  0  0  0  0  0  0
   19.4568   57.2290   27.4747 N   0  0  0  0  0  0  0  0  0  0  0  0
   20.2896   56.9305   26.4553 C   0  0  0  0  0  0  0  0  0  0  0  0
   21.7195   57.2353   26.5628 C   0  0  0  0  0  0  0  0  0  0  0  0
   22.1866   57.7810   27.7581 N   0  0  0  0  0  0  0  0  0  0  0  0
   21.2325   58.0096   28.6793 C   0  0  0  0  0  0  0  0  0  0  0  0
   22.3898   59.1634   32.1348 H   0  0  0  0  0  0  0  0  0  0  0  0
   20.8017   59.2639   32.7475 H   0  0  0  0  0  0  0  0  0  0  0  0
   17.0570   58.2161   30.2378 H   0  0  0  0  0  0  0  0  0  0  0  0
   17.2111   57.6779   28.6271 H   0  0  0  0  0  0  0  0  0  0  0  0
 25 26  2  0  0  0
 25 36  1  0  0  0
 26 27  1  0  0  0
 26 28  1  0  0  0
 28 29  2  0  0  0
 29 30  1  0  0  0
 29 31  1  0  0  0
 31 32  1  0  0  0
 31 36  2  0  0  0
 32 33  2  0  0  0
 33 34  1  0  0  0
 33 24  1  0  0  0
 34 35  2  0  0  0
 35 36  1  0  0  0
 24 22  1  0  0  0
 22 23  1  0  0  0
 22  4  1  0  0  0
  1  2  2  0  0  0
  1  6  1  0  0  0
  1  7  1  0  0  0
  2  3  1  0  0  0
  3  4  2  0  0  0
  4  5  1  0  0  0
  5  6  2  0  0  0
  7  8  2  0  0  0
  7  9  1  0  0  0
  9 11  1  0  0  0
 11 12  1  0  0  0
 11 16  1  0  0  0
 12 13  2  0  0  0
 12 14  1  0  0  0
 16 17  1  0  0  0
 17 18  1  0  0  0
 18 19  2  0  0  0
 18 20  1  0  0  0
 27 37  1  0  0  0
 27 38  1  0  0  0
 30 39  1  0  0  0
 30 40  1  0  0  0
  9 10  1  0  0  0
 14 15  1  0  0  0
 20 21  1  0  0  0
M  END
> <minimizedAffinity>
-8.84681

$$$$
