2P15_EZT_A_600


 34 38  0  0  0  0  0  0  0  0999 V2000
  -36.5779    1.6462   21.4794 C   0  0  0  0  0  0  0  0  0  0  0  0
  -36.5321    3.1456   21.0931 C   0  0  0  0  0  0  0  0  0  0  0  0
  -36.2261    3.2443   19.5704 C   0  0  0  0  0  0  0  0  0  0  0  0
  -34.7660    2.8127   19.2233 C   0  0  0  0  0  0  0  0  0  0  0  0
  -33.7386    3.6219   20.0940 C   0  0  0  0  0  0  0  0  0  0  0  0
  -32.2479    3.4162   19.7148 C   0  0  0  0  0  0  0  0  0  0  0  0
  -31.8985    3.1868   18.3929 C   0  0  0  0  0  0  0  0  0  0  0  0
  -30.5505    3.0362   18.0661 C   0  0  0  0  0  0  0  0  0  0  0  0
  -29.5720    3.1138   19.0635 C   0  0  0  0  0  0  0  0  0  0  0  0
  -28.2620    2.9563   18.7686 O   0  0  0  0  0  0  0  0  0  0  0  0
  -29.9212    3.3432   20.3804 C   0  0  0  0  0  0  0  0  0  0  0  0
  -31.2543    3.5239   20.7105 C   0  0  0  0  0  0  0  0  0  0  0  0
  -31.5602    3.7431   22.2108 C   0  0  0  0  0  0  0  0  0  0  0  0
  -32.9747    4.3251   22.4046 C   0  0  0  0  0  0  0  0  0  0  0  0
  -33.9998    3.4553   21.6233 C   0  0  0  0  0  0  0  0  0  0  0  0
  -35.4592    3.9385   21.8822 C   0  0  0  0  0  0  0  0  0  0  0  0
  -36.0211    3.9351   23.3286 C   0  0  0  0  0  0  0  0  0  0  0  0
  -37.5340    4.1071   23.0989 C   0  0  0  0  0  0  0  0  0  0  0  0
  -37.7929    3.9521   21.5769 C   0  0  0  0  0  0  0  0  0  0  0  0
  -39.0289    3.2504   21.3316 O   0  0  0  0  0  0  0  0  0  0  0  0
  -27.9966    2.7995   17.8837 H   0  0  0  0  0  0  0  0  0  0  0  0
  -39.0040    2.3874   21.7738 H   0  0  0  0  0  0  0  0  0  0  0  0
  -37.8207    5.2262   20.9281 C   0  0  0  0  0  0  0  0  0  0  0  0
  -37.7824    6.4876   21.5518 C   0  0  0  0  0  0  0  0  0  0  0  0
  -37.7261    7.7157   20.8492 C   0  0  0  0  0  0  0  0  0  0  0  0
  -38.6371    8.0123   19.8306 C   0  0  0  0  0  0  0  0  0  0  0  0
  -38.5394    9.2201   19.1176 C   0  0  0  0  0  0  0  0  0  0  0  0
  -37.5334   10.1536   19.4235 C   0  0  0  0  0  0  0  0  0  0  0  0
  -36.6120    9.8636   20.4236 C   0  0  0  0  0  0  0  0  0  0  0  0
  -36.7018    8.6543   21.1352 C   0  0  0  0  0  0  0  0  0  0  0  0
  -35.6504    8.4201   22.2551 C   0  0  0  0  0  0  0  0  0  0  0  0
  -34.8364    9.4529   22.2940 F   0  0  0  0  0  0  0  0  0  0  0  0
  -36.1949    8.3490   23.4774 F   0  0  0  0  0  0  0  0  0  0  0  0
  -34.9385    7.3101   22.0774 F   0  0  0  0  0  0  0  0  0  0  0  0
  1  2  1  0  0  0
  2  3  1  0  0  0
  2 16  1  0  0  0
  2 19  1  0  0  0
  3  4  1  0  0  0
  4  5  1  0  0  0
  5  6  1  0  0  0
  5 15  1  0  0  0
  6  7  2  0  0  0
  6 12  1  0  0  0
  7  8  1  0  0  0
  8  9  2  0  0  0
  9 10  1  0  0  0
  9 11  1  0  0  0
 11 12  2  0  0  0
 12 13  1  0  0  0
 13 14  1  0  0  0
 14 15  1  0  0  0
 15 16  1  0  0  0
 16 17  1  0  0  0
 17 18  1  0  0  0
 18 19  1  0  0  0
 19 20  1  0  0  0
 19 23  1  0  0  0
 23 24  2  0  0  0
 24 25  1  0  0  0
 25 26  2  0  0  0
 25 30  1  0  0  0
 26 27  1  0  0  0
 27 28  2  0  0  0
 28 29  1  0  0  0
 29 30  2  0  0  0
 30 31  1  0  0  0
 31 32  1  0  0  0
 31 33  1  0  0  0
 31 34  1  0  0  0
 10 21  1  0  0  0
 20 22  1  0  0  0
M  END
> <minimizedAffinity>
-14.89084

$$$$
