3MSS_MS7_A_516


 24 25  0  0  0  0  0  0  0  0999 V2000
   -8.6854   -2.6515  -31.2530 C   0  0  0  0  0  0  0  0  0  0  0  0
   -7.4569   -2.0364  -31.5547 C   0  0  0  0  0  0  0  0  0  0  0  0
   -6.2261   -2.6022  -31.1640 C   0  0  0  0  0  0  0  0  0  0  0  0
   -6.2247   -3.8166  -30.4433 C   0  0  0  0  0  0  0  0  0  0  0  0
   -7.4426   -4.4345  -30.1287 C   0  0  0  0  0  0  0  0  0  0  0  0
   -8.6705   -3.8573  -30.5289 C   0  0  0  0  0  0  0  0  0  0  0  0
  -10.0236   -2.0140  -31.7003 C   0  0  0  0  0  0  0  0  0  0  0  0
  -11.2408   -0.2393  -30.4828 N   0  0  0  0  0  0  0  0  0  0  0  0
  -10.0855   -0.4884  -31.3567 C   0  0  0  0  0  0  0  0  0  0  0  0
  -11.1576   -0.8066  -29.6392 H   0  0  0  0  0  0  0  0  0  0  0  0
  -12.0992   -0.4862  -30.9753 H   0  0  0  0  0  0  0  0  0  0  0  0
  -10.1817    0.3406  -32.6177 C   0  0  0  0  0  0  0  0  0  0  0  0
  -10.8705    1.3481  -32.5167 O   0  0  0  0  0  0  0  0  0  0  0  0
   -9.5451   -0.0316  -33.7862 N   0  0  0  0  0  0  0  0  0  0  0  0
   -9.6411    0.7644  -35.0251 C   0  0  0  0  0  0  0  0  0  0  0  0
   -9.0086   -0.8571  -33.7925 H   0  0  0  0  0  0  0  0  0  0  0  0
   -5.0367   -4.4141  -29.9980 O   0  0  0  0  0  0  0  0  0  0  0  0
   -4.2104   -5.2827  -30.8039 C   0  0  0  0  0  0  0  0  0  0  0  0
   -2.7872   -4.8398  -30.5791 C   0  0  0  0  0  0  0  0  0  0  0  0
   -1.7292   -5.7393  -30.6976 C   0  0  0  0  0  0  0  0  0  0  0  0
   -0.4208   -5.2934  -30.5049 C   0  0  0  0  0  0  0  0  0  0  0  0
   -0.1994   -3.9508  -30.1140 C   0  0  0  0  0  0  0  0  0  0  0  0
   -1.2843   -3.0964  -29.9412 C   0  0  0  0  0  0  0  0  0  0  0  0
   -2.5806   -3.5131  -30.1846 C   0  0  0  0  0  0  0  0  0  0  0  0
  8  9  1  0  0  0
  9  7  1  0  0  0
  9 12  1  0  0  0
  7  1  1  0  0  0
  1  2  2  0  0  0
  1  6  1  0  0  0
  2  3  1  0  0  0
  3  4  2  0  0  0
  4  5  1  0  0  0
  4 17  1  0  0  0
  5  6  2  0  0  0
 17 18  1  0  0  0
 18 19  1  0  0  0
 19 20  2  0  0  0
 19 24  1  0  0  0
 20 21  1  0  0  0
 21 22  2  0  0  0
 22 23  1  0  0  0
 23 24  2  0  0  0
 12 13  2  0  0  0
 12 14  1  0  0  0
 14 15  1  0  0  0
  8 10  1  0  0  0
  8 11  1  0  0  0
 14 16  1  0  0  0
M  END
> <minimizedAffinity>
-7.36518

$$$$
3MSS_MS7_A_516


 24 25  0  0  0  0  0  0  0  0999 V2000
   -9.0354   -2.5179  -30.6598 C   0  0  0  0  0  0  0  0  0  0  0  0
   -8.1375   -1.6702  -31.3335 C   0  0  0  0  0  0  0  0  0  0  0  0
   -6.7630   -1.9680  -31.4291 C   0  0  0  0  0  0  0  0  0  0  0  0
   -6.2703   -3.1462  -30.8262 C   0  0  0  0  0  0  0  0  0  0  0  0
   -7.1533   -3.9943  -30.1443 C   0  0  0  0  0  0  0  0  0  0  0  0
   -8.5309   -3.6849  -30.0579 C   0  0  0  0  0  0  0  0  0  0  0  0
  -10.5423   -2.1726  -30.5756 C   0  0  0  0  0  0  0  0  0  0  0  0
  -12.5356   -3.3931  -29.7687 N   0  0  0  0  0  0  0  0  0  0  0  0
  -11.2302   -2.8622  -29.3505 C   0  0  0  0  0  0  0  0  0  0  0  0
  -12.4049   -4.0491  -30.5387 H   0  0  0  0  0  0  0  0  0  0  0  0
  -13.1330   -2.6249  -30.0741 H   0  0  0  0  0  0  0  0  0  0  0  0
  -11.3928   -1.8850  -28.2081 C   0  0  0  0  0  0  0  0  0  0  0  0
  -10.5174   -1.9459  -27.3539 O   0  0  0  0  0  0  0  0  0  0  0  0
  -12.4586   -1.0079  -28.1440 N   0  0  0  0  0  0  0  0  0  0  0  0
  -12.6324   -0.0576  -27.0284 C   0  0  0  0  0  0  0  0  0  0  0  0
  -13.1255   -1.0172  -28.8681 H   0  0  0  0  0  0  0  0  0  0  0  0
   -4.9093   -3.4829  -30.8577 O   0  0  0  0  0  0  0  0  0  0  0  0
   -4.3824   -4.7778  -30.4940 C   0  0  0  0  0  0  0  0  0  0  0  0
   -2.8852   -4.6189  -30.4196 C   0  0  0  0  0  0  0  0  0  0  0  0
   -2.0382   -5.7098  -30.6066 C   0  0  0  0  0  0  0  0  0  0  0  0
   -0.6558   -5.5258  -30.5535 C   0  0  0  0  0  0  0  0  0  0  0  0
   -0.1412   -4.2468  -30.2313 C   0  0  0  0  0  0  0  0  0  0  0  0
   -1.0179   -3.1941  -29.9863 C   0  0  0  0  0  0  0  0  0  0  0  0
   -2.3879   -3.3525  -30.0920 C   0  0  0  0  0  0  0  0  0  0  0  0
  8  9  1  0  0  0
  9  7  1  0  0  0
  9 12  1  0  0  0
  7  1  1  0  0  0
  1  2  2  0  0  0
  1  6  1  0  0  0
  2  3  1  0  0  0
  3  4  2  0  0  0
  4  5  1  0  0  0
  4 17  1  0  0  0
  5  6  2  0  0  0
 17 18  1  0  0  0
 18 19  1  0  0  0
 19 20  2  0  0  0
 19 24  1  0  0  0
 20 21  1  0  0  0
 21 22  2  0  0  0
 22 23  1  0  0  0
 23 24  2  0  0  0
 12 13  2  0  0  0
 12 14  1  0  0  0
 14 15  1  0  0  0
  8 10  1  0  0  0
  8 11  1  0  0  0
 14 16  1  0  0  0
M  END
> <minimizedAffinity>
-7.19295

$$$$
3MSS_MS7_A_516


 24 25  0  0  0  0  0  0  0  0999 V2000
   -8.9782   -2.5698  -30.5225 C   0  0  0  0  0  0  0  0  0  0  0  0
   -8.4983   -3.7717  -29.9714 C   0  0  0  0  0  0  0  0  0  0  0  0
   -7.1478   -4.1579  -30.0912 C   0  0  0  0  0  0  0  0  0  0  0  0
   -6.2516   -3.3196  -30.7900 C   0  0  0  0  0  0  0  0  0  0  0  0
   -6.7195   -2.1238  -31.3515 C   0  0  0  0  0  0  0  0  0  0  0  0
   -8.0768   -1.7470  -31.2218 C   0  0  0  0  0  0  0  0  0  0  0  0
  -10.4646   -2.1640  -30.3702 C   0  0  0  0  0  0  0  0  0  0  0  0
  -12.4011   -3.6576  -30.0057 N   0  0  0  0  0  0  0  0  0  0  0  0
  -11.2175   -3.0825  -29.3509 C   0  0  0  0  0  0  0  0  0  0  0  0
  -12.1119   -4.1800  -30.8327 H   0  0  0  0  0  0  0  0  0  0  0  0
  -13.0350   -2.9077  -30.2818 H   0  0  0  0  0  0  0  0  0  0  0  0
  -11.6161   -2.3008  -28.1194 C   0  0  0  0  0  0  0  0  0  0  0  0
  -11.7394   -2.9736  -27.1036 O   0  0  0  0  0  0  0  0  0  0  0  0
  -11.8316   -0.9365  -28.1590 N   0  0  0  0  0  0  0  0  0  0  0  0
  -12.2311   -0.1658  -26.9656 C   0  0  0  0  0  0  0  0  0  0  0  0
  -11.7145   -0.4618  -29.0135 H   0  0  0  0  0  0  0  0  0  0  0  0
   -4.9038   -3.6618  -30.9722 O   0  0  0  0  0  0  0  0  0  0  0  0
   -4.3011   -4.8819  -30.4876 C   0  0  0  0  0  0  0  0  0  0  0  0
   -2.8252   -4.6025  -30.3608 C   0  0  0  0  0  0  0  0  0  0  0  0
   -2.3584   -3.3130  -30.1126 C   0  0  0  0  0  0  0  0  0  0  0  0
   -0.9871   -3.0905  -29.9786 C   0  0  0  0  0  0  0  0  0  0  0  0
   -0.0902   -4.1679  -30.1765 C   0  0  0  0  0  0  0  0  0  0  0  0
   -0.5881   -5.4296  -30.4877 C   0  0  0  0  0  0  0  0  0  0  0  0
   -1.9475   -5.6727  -30.5670 C   0  0  0  0  0  0  0  0  0  0  0  0
  8  9  1  0  0  0
  9  7  1  0  0  0
  9 12  1  0  0  0
  7  1  1  0  0  0
  1  2  2  0  0  0
  1  6  1  0  0  0
  2  3  1  0  0  0
  3  4  2  0  0  0
  4  5  1  0  0  0
  4 17  1  0  0  0
  5  6  2  0  0  0
 17 18  1  0  0  0
 18 19  1  0  0  0
 19 20  2  0  0  0
 19 24  1  0  0  0
 20 21  1  0  0  0
 21 22  2  0  0  0
 22 23  1  0  0  0
 23 24  2  0  0  0
 12 13  2  0  0  0
 12 14  1  0  0  0
 14 15  1  0  0  0
  8 10  1  0  0  0
  8 11  1  0  0  0
 14 16  1  0  0  0
M  END
> <minimizedAffinity>
-7.16375

$$$$
3MSS_MS7_A_516


 24 25  0  0  0  0  0  0  0  0999 V2000
   -9.1161   -2.9155  -30.9036 C   0  0  0  0  0  0  0  0  0  0  0  0
   -8.2362   -1.9079  -31.3386 C   0  0  0  0  0  0  0  0  0  0  0  0
   -6.8371   -2.0769  -31.3049 C   0  0  0  0  0  0  0  0  0  0  0  0
   -6.3016   -3.2880  -30.8143 C   0  0  0  0  0  0  0  0  0  0  0  0
   -7.1676   -4.2960  -30.3694 C   0  0  0  0  0  0  0  0  0  0  0  0
   -8.5698   -4.1145  -30.4110 C   0  0  0  0  0  0  0  0  0  0  0  0
  -10.6495   -2.7087  -30.9583 C   0  0  0  0  0  0  0  0  0  0  0  0
  -10.4702   -1.0133  -29.1675 N   0  0  0  0  0  0  0  0  0  0  0  0
  -11.2185   -2.2059  -29.5898 C   0  0  0  0  0  0  0  0  0  0  0  0
  -10.5432   -0.2937  -29.8867 H   0  0  0  0  0  0  0  0  0  0  0  0
   -9.4896   -1.2582  -29.0299 H   0  0  0  0  0  0  0  0  0  0  0  0
  -11.1280   -3.2916  -28.5412 C   0  0  0  0  0  0  0  0  0  0  0  0
  -10.4748   -2.9924  -27.5496 O   0  0  0  0  0  0  0  0  0  0  0  0
  -11.7317   -4.5228  -28.7116 N   0  0  0  0  0  0  0  0  0  0  0  0
  -11.6408   -5.5929  -27.6994 C   0  0  0  0  0  0  0  0  0  0  0  0
  -12.2404   -4.6921  -29.5373 H   0  0  0  0  0  0  0  0  0  0  0  0
   -4.9191   -3.5059  -30.7245 O   0  0  0  0  0  0  0  0  0  0  0  0
   -4.3136   -4.7860  -30.4392 C   0  0  0  0  0  0  0  0  0  0  0  0
   -2.8273   -4.5441  -30.3700 C   0  0  0  0  0  0  0  0  0  0  0  0
   -2.3197   -3.2842  -30.0578 C   0  0  0  0  0  0  0  0  0  0  0  0
   -0.9388   -3.0976  -29.9799 C   0  0  0  0  0  0  0  0  0  0  0  0
   -0.0773   -4.1752  -30.2978 C   0  0  0  0  0  0  0  0  0  0  0  0
   -0.6185   -5.4024  -30.6692 C   0  0  0  0  0  0  0  0  0  0  0  0
   -1.9853   -5.6136  -30.6946 C   0  0  0  0  0  0  0  0  0  0  0  0
  8  9  1  0  0  0
  9  7  1  0  0  0
  9 12  1  0  0  0
  7  1  1  0  0  0
  1  2  2  0  0  0
  1  6  1  0  0  0
  2  3  1  0  0  0
  3  4  2  0  0  0
  4  5  1  0  0  0
  4 17  1  0  0  0
  5  6  2  0  0  0
 17 18  1  0  0  0
 18 19  1  0  0  0
 19 20  2  0  0  0
 19 24  1  0  0  0
 20 21  1  0  0  0
 21 22  2  0  0  0
 22 23  1  0  0  0
 23 24  2  0  0  0
 12 13  2  0  0  0
 12 14  1  0  0  0
 14 15  1  0  0  0
  8 10  1  0  0  0
  8 11  1  0  0  0
 14 16  1  0  0  0
M  END
> <minimizedAffinity>
-6.91310

$$$$
3MSS_MS7_A_516


 24 25  0  0  0  0  0  0  0  0999 V2000
   -8.7329   -2.6344  -31.7565 C   0  0  0  0  0  0  0  0  0  0  0  0
   -7.5527   -1.8716  -31.8192 C   0  0  0  0  0  0  0  0  0  0  0  0
   -6.3358   -2.3385  -31.2820 C   0  0  0  0  0  0  0  0  0  0  0  0
   -6.3002   -3.6042  -30.6566 C   0  0  0  0  0  0  0  0  0  0  0  0
   -7.4714   -4.3699  -30.5797 C   0  0  0  0  0  0  0  0  0  0  0  0
   -8.6854   -3.8905  -31.1250 C   0  0  0  0  0  0  0  0  0  0  0  0
  -10.0553   -2.1026  -32.3611 C   0  0  0  0  0  0  0  0  0  0  0  0
  -12.3616   -2.9926  -32.3144 N   0  0  0  0  0  0  0  0  0  0  0  0
  -11.2889   -2.4557  -31.4650 C   0  0  0  0  0  0  0  0  0  0  0  0
  -12.0202   -3.8127  -32.8156 H   0  0  0  0  0  0  0  0  0  0  0  0
  -12.6527   -2.2812  -32.9848 H   0  0  0  0  0  0  0  0  0  0  0  0
  -11.7669   -1.2369  -30.7083 C   0  0  0  0  0  0  0  0  0  0  0  0
  -11.7126   -1.3375  -29.4891 O   0  0  0  0  0  0  0  0  0  0  0  0
  -12.2360   -0.1116  -31.3587 N   0  0  0  0  0  0  0  0  0  0  0  0
  -12.7147    1.0789  -30.6298 C   0  0  0  0  0  0  0  0  0  0  0  0
  -12.2515   -0.1039  -32.3430 H   0  0  0  0  0  0  0  0  0  0  0  0
   -5.1296   -4.1118  -30.0745 O   0  0  0  0  0  0  0  0  0  0  0  0
   -4.3351   -5.1775  -30.6400 C   0  0  0  0  0  0  0  0  0  0  0  0
   -2.8946   -4.7693  -30.4644 C   0  0  0  0  0  0  0  0  0  0  0  0
   -2.5538   -3.4499  -30.1721 C   0  0  0  0  0  0  0  0  0  0  0  0
   -1.2125   -3.1080  -29.9936 C   0  0  0  0  0  0  0  0  0  0  0  0
   -0.2163   -4.0943  -30.1915 C   0  0  0  0  0  0  0  0  0  0  0  0
   -0.5889   -5.3872  -30.5469 C   0  0  0  0  0  0  0  0  0  0  0  0
   -1.9180   -5.7500  -30.6709 C   0  0  0  0  0  0  0  0  0  0  0  0
  8  9  1  0  0  0
  9  7  1  0  0  0
  9 12  1  0  0  0
  7  1  1  0  0  0
  1  2  2  0  0  0
  1  6  1  0  0  0
  2  3  1  0  0  0
  3  4  2  0  0  0
  4  5  1  0  0  0
  4 17  1  0  0  0
  5  6  2  0  0  0
 17 18  1  0  0  0
 18 19  1  0  0  0
 19 20  2  0  0  0
 19 24  1  0  0  0
 20 21  1  0  0  0
 21 22  2  0  0  0
 22 23  1  0  0  0
 23 24  2  0  0  0
 12 13  2  0  0  0
 12 14  1  0  0  0
 14 15  1  0  0  0
  8 10  1  0  0  0
  8 11  1  0  0  0
 14 16  1  0  0  0
M  END
> <minimizedAffinity>
-6.68970

$$$$
3MSS_MS7_A_516


 24 25  0  0  0  0  0  0  0  0999 V2000
   -8.4822   -2.6678  -31.5513 C   0  0  0  0  0  0  0  0  0  0  0  0
   -7.2547   -1.9809  -31.5604 C   0  0  0  0  0  0  0  0  0  0  0  0
   -6.0724   -2.5640  -31.0606 C   0  0  0  0  0  0  0  0  0  0  0  0
   -6.1211   -3.8714  -30.5290 C   0  0  0  0  0  0  0  0  0  0  0  0
   -7.3400   -4.5626  -30.5060 C   0  0  0  0  0  0  0  0  0  0  0  0
   -8.5185   -3.9668  -31.0129 C   0  0  0  0  0  0  0  0  0  0  0  0
   -9.7653   -2.0084  -32.1135 C   0  0  0  0  0  0  0  0  0  0  0  0
   -9.7182   -1.4120  -34.5126 N   0  0  0  0  0  0  0  0  0  0  0  0
  -10.0734   -2.4844  -33.5722 C   0  0  0  0  0  0  0  0  0  0  0  0
   -8.7327   -1.1739  -34.4002 H   0  0  0  0  0  0  0  0  0  0  0  0
  -10.2905   -0.5894  -34.3222 H   0  0  0  0  0  0  0  0  0  0  0  0
  -11.5313   -2.8590  -33.7162 C   0  0  0  0  0  0  0  0  0  0  0  0
  -11.9245   -3.7016  -32.9193 O   0  0  0  0  0  0  0  0  0  0  0  0
  -12.3381   -2.2931  -34.6848 N   0  0  0  0  0  0  0  0  0  0  0  0
  -13.7591   -2.6592  -34.8407 C   0  0  0  0  0  0  0  0  0  0  0  0
  -11.9512   -1.6219  -35.2923 H   0  0  0  0  0  0  0  0  0  0  0  0
   -4.9879   -4.4951  -29.9873 O   0  0  0  0  0  0  0  0  0  0  0  0
   -4.1431   -5.4179  -30.7094 C   0  0  0  0  0  0  0  0  0  0  0  0
   -2.7302   -4.9228  -30.5340 C   0  0  0  0  0  0  0  0  0  0  0  0
   -1.6449   -5.7845  -30.6828 C   0  0  0  0  0  0  0  0  0  0  0  0
   -0.3478   -5.2906  -30.5357 C   0  0  0  0  0  0  0  0  0  0  0  0
   -0.1622   -3.9385  -30.1594 C   0  0  0  0  0  0  0  0  0  0  0  0
   -1.2710   -3.1225  -29.9554 C   0  0  0  0  0  0  0  0  0  0  0  0
   -2.5587   -3.5871  -30.1536 C   0  0  0  0  0  0  0  0  0  0  0  0
  8  9  1  0  0  0
  9  7  1  0  0  0
  9 12  1  0  0  0
  7  1  1  0  0  0
  1  2  2  0  0  0
  1  6  1  0  0  0
  2  3  1  0  0  0
  3  4  2  0  0  0
  4  5  1  0  0  0
  4 17  1  0  0  0
  5  6  2  0  0  0
 17 18  1  0  0  0
 18 19  1  0  0  0
 19 20  2  0  0  0
 19 24  1  0  0  0
 20 21  1  0  0  0
 21 22  2  0  0  0
 22 23  1  0  0  0
 23 24  2  0  0  0
 12 13  2  0  0  0
 12 14  1  0  0  0
 14 15  1  0  0  0
  8 10  1  0  0  0
  8 11  1  0  0  0
 14 16  1  0  0  0
M  END
> <minimizedAffinity>
-6.55707

$$$$
3MSS_MS7_A_516


 24 25  0  0  0  0  0  0  0  0999 V2000
   -9.0790   -3.1443  -30.1757 C   0  0  0  0  0  0  0  0  0  0  0  0
   -8.4413   -2.2420  -31.0463 C   0  0  0  0  0  0  0  0  0  0  0  0
   -7.0751   -2.3623  -31.3721 C   0  0  0  0  0  0  0  0  0  0  0  0
   -6.3219   -3.4132  -30.8039 C   0  0  0  0  0  0  0  0  0  0  0  0
   -6.9436   -4.3132  -29.9279 C   0  0  0  0  0  0  0  0  0  0  0  0
   -8.3160   -4.1825  -29.6113 C   0  0  0  0  0  0  0  0  0  0  0  0
  -10.5830   -2.9954  -29.8399 C   0  0  0  0  0  0  0  0  0  0  0  0
  -11.7154   -1.6310  -28.1166 N   0  0  0  0  0  0  0  0  0  0  0  0
  -10.9314   -1.5480  -29.3571 C   0  0  0  0  0  0  0  0  0  0  0  0
  -11.1825   -2.1394  -27.4109 H   0  0  0  0  0  0  0  0  0  0  0  0
  -12.5910   -2.1212  -28.2998 H   0  0  0  0  0  0  0  0  0  0  0  0
  -11.6978   -0.7982  -30.4234 C   0  0  0  0  0  0  0  0  0  0  0  0
  -12.6522   -1.4064  -30.8912 O   0  0  0  0  0  0  0  0  0  0  0  0
  -11.3280    0.4685  -30.8335 N   0  0  0  0  0  0  0  0  0  0  0  0
  -12.0624    1.2046  -31.8806 C   0  0  0  0  0  0  0  0  0  0  0  0
  -10.5470    0.8949  -30.4122 H   0  0  0  0  0  0  0  0  0  0  0  0
   -4.9523   -3.5687  -31.0621 O   0  0  0  0  0  0  0  0  0  0  0  0
   -4.0055   -4.1276  -30.1252 C   0  0  0  0  0  0  0  0  0  0  0  0
   -3.4524   -5.3705  -30.7744 C   0  0  0  0  0  0  0  0  0  0  0  0
   -4.0813   -6.6038  -30.6139 C   0  0  0  0  0  0  0  0  0  0  0  0
   -3.5569   -7.7322  -31.2460 C   0  0  0  0  0  0  0  0  0  0  0  0
   -2.3487   -7.6164  -31.9750 C   0  0  0  0  0  0  0  0  0  0  0  0
   -1.7121   -6.3819  -32.0604 C   0  0  0  0  0  0  0  0  0  0  0  0
   -2.2533   -5.2463  -31.4851 C   0  0  0  0  0  0  0  0  0  0  0  0
  8  9  1  0  0  0
  9  7  1  0  0  0
  9 12  1  0  0  0
  7  1  1  0  0  0
  1  2  2  0  0  0
  1  6  1  0  0  0
  2  3  1  0  0  0
  3  4  2  0  0  0
  4  5  1  0  0  0
  4 17  1  0  0  0
  5  6  2  0  0  0
 17 18  1  0  0  0
 18 19  1  0  0  0
 19 20  2  0  0  0
 19 24  1  0  0  0
 20 21  1  0  0  0
 21 22  2  0  0  0
 22 23  1  0  0  0
 23 24  2  0  0  0
 12 13  2  0  0  0
 12 14  1  0  0  0
 14 15  1  0  0  0
  8 10  1  0  0  0
  8 11  1  0  0  0
 14 16  1  0  0  0
M  END
> <minimizedAffinity>
-6.37121

$$$$
3MSS_MS7_A_516


 24 25  0  0  0  0  0  0  0  0999 V2000
   -8.2654   -2.7598  -31.4459 C   0  0  0  0  0  0  0  0  0  0  0  0
   -7.0649   -2.0281  -31.4908 C   0  0  0  0  0  0  0  0  0  0  0  0
   -5.8601   -2.5431  -30.9707 C   0  0  0  0  0  0  0  0  0  0  0  0
   -5.8577   -3.8264  -30.3812 C   0  0  0  0  0  0  0  0  0  0  0  0
   -7.0493   -4.5615  -30.3221 C   0  0  0  0  0  0  0  0  0  0  0  0
   -8.2510   -4.0340  -30.8500 C   0  0  0  0  0  0  0  0  0  0  0  0
   -9.5741   -2.1753  -32.0313 C   0  0  0  0  0  0  0  0  0  0  0  0
  -10.2285    0.2031  -32.2006 N   0  0  0  0  0  0  0  0  0  0  0  0
   -9.3279   -0.8136  -32.7624 C   0  0  0  0  0  0  0  0  0  0  0  0
  -10.0644    0.2856  -31.1973 H   0  0  0  0  0  0  0  0  0  0  0  0
  -11.1968   -0.0721  -32.3653 H   0  0  0  0  0  0  0  0  0  0  0  0
   -9.5489   -0.9581  -34.2513 C   0  0  0  0  0  0  0  0  0  0  0  0
   -9.0955   -1.9859  -34.7388 O   0  0  0  0  0  0  0  0  0  0  0  0
  -10.2027    0.0099  -34.9894 N   0  0  0  0  0  0  0  0  0  0  0  0
  -10.4144   -0.1161  -36.4444 C   0  0  0  0  0  0  0  0  0  0  0  0
  -10.5393    0.8120  -34.5283 H   0  0  0  0  0  0  0  0  0  0  0  0
   -4.7001   -4.3819  -29.8171 O   0  0  0  0  0  0  0  0  0  0  0  0
   -3.3918   -4.3304  -30.4273 C   0  0  0  0  0  0  0  0  0  0  0  0
   -3.1154   -5.7164  -30.9517 C   0  0  0  0  0  0  0  0  0  0  0  0
   -2.0293   -5.9626  -31.7896 C   0  0  0  0  0  0  0  0  0  0  0  0
   -1.7875   -7.2611  -32.2407 C   0  0  0  0  0  0  0  0  0  0  0  0
   -2.6981   -8.2907  -31.9015 C   0  0  0  0  0  0  0  0  0  0  0  0
   -3.8086   -7.9962  -31.1162 C   0  0  0  0  0  0  0  0  0  0  0  0
   -4.0266   -6.7246  -30.6174 C   0  0  0  0  0  0  0  0  0  0  0  0
  8  9  1  0  0  0
  9  7  1  0  0  0
  9 12  1  0  0  0
  7  1  1  0  0  0
  1  2  2  0  0  0
  1  6  1  0  0  0
  2  3  1  0  0  0
  3  4  2  0  0  0
  4  5  1  0  0  0
  4 17  1  0  0  0
  5  6  2  0  0  0
 17 18  1  0  0  0
 18 19  1  0  0  0
 19 20  2  0  0  0
 19 24  1  0  0  0
 20 21  1  0  0  0
 21 22  2  0  0  0
 22 23  1  0  0  0
 23 24  2  0  0  0
 12 13  2  0  0  0
 12 14  1  0  0  0
 14 15  1  0  0  0
  8 10  1  0  0  0
  8 11  1  0  0  0
 14 16  1  0  0  0
M  END
> <minimizedAffinity>
-6.24074

$$$$
3MSS_MS7_A_516


 24 25  0  0  0  0  0  0  0  0999 V2000
   -9.0237   -3.2984  -31.1340 C   0  0  0  0  0  0  0  0  0  0  0  0
   -8.0601   -2.3136  -31.4174 C   0  0  0  0  0  0  0  0  0  0  0  0
   -6.6867   -2.5272  -31.1819 C   0  0  0  0  0  0  0  0  0  0  0  0
   -6.2650   -3.7610  -30.6394 C   0  0  0  0  0  0  0  0  0  0  0  0
   -7.2163   -4.7468  -30.3442 C   0  0  0  0  0  0  0  0  0  0  0  0
   -8.5913   -4.5204  -30.5877 C   0  0  0  0  0  0  0  0  0  0  0  0
  -10.5256   -3.0425  -31.4092 C   0  0  0  0  0  0  0  0  0  0  0  0
  -10.3074   -4.6601  -33.2665 N   0  0  0  0  0  0  0  0  0  0  0  0
  -10.9112   -3.3741  -32.8893 C   0  0  0  0  0  0  0  0  0  0  0  0
  -10.6290   -5.3871  -32.6274 H   0  0  0  0  0  0  0  0  0  0  0  0
   -9.2914   -4.5869  -33.2146 H   0  0  0  0  0  0  0  0  0  0  0  0
  -10.4518   -2.2753  -33.8210 C   0  0  0  0  0  0  0  0  0  0  0  0
  -10.8873   -1.1623  -33.5540 O   0  0  0  0  0  0  0  0  0  0  0  0
   -9.6156   -2.5283  -34.8916 N   0  0  0  0  0  0  0  0  0  0  0  0
   -9.1698   -1.4653  -35.8130 C   0  0  0  0  0  0  0  0  0  0  0  0
   -9.3063   -3.4503  -35.0450 H   0  0  0  0  0  0  0  0  0  0  0  0
   -4.9178   -4.0237  -30.3518 O   0  0  0  0  0  0  0  0  0  0  0  0
   -3.8625   -3.0402  -30.4274 C   0  0  0  0  0  0  0  0  0  0  0  0
   -2.5660   -3.8088  -30.3978 C   0  0  0  0  0  0  0  0  0  0  0  0
   -1.3921   -3.2171  -29.9351 C   0  0  0  0  0  0  0  0  0  0  0  0
   -0.2125   -3.9621  -29.8996 C   0  0  0  0  0  0  0  0  0  0  0  0
   -0.2143   -5.2828  -30.4097 C   0  0  0  0  0  0  0  0  0  0  0  0
   -1.3903   -5.8201  -30.9246 C   0  0  0  0  0  0  0  0  0  0  0  0
   -2.5774   -5.1101  -30.9124 C   0  0  0  0  0  0  0  0  0  0  0  0
  8  9  1  0  0  0
  9  7  1  0  0  0
  9 12  1  0  0  0
  7  1  1  0  0  0
  1  2  2  0  0  0
  1  6  1  0  0  0
  2  3  1  0  0  0
  3  4  2  0  0  0
  4  5  1  0  0  0
  4 17  1  0  0  0
  5  6  2  0  0  0
 17 18  1  0  0  0
 18 19  1  0  0  0
 19 20  2  0  0  0
 19 24  1  0  0  0
 20 21  1  0  0  0
 21 22  2  0  0  0
 22 23  1  0  0  0
 23 24  2  0  0  0
 12 13  2  0  0  0
 12 14  1  0  0  0
 14 15  1  0  0  0
  8 10  1  0  0  0
  8 11  1  0  0  0
 14 16  1  0  0  0
M  END
> <minimizedAffinity>
-6.24053

$$$$
3MSS_MS7_A_516


 24 25  0  0  0  0  0  0  0  0999 V2000
   -8.4286   -3.0405  -31.5852 C   0  0  0  0  0  0  0  0  0  0  0  0
   -7.3197   -2.1751  -31.5922 C   0  0  0  0  0  0  0  0  0  0  0  0
   -6.0882   -2.5394  -31.0109 C   0  0  0  0  0  0  0  0  0  0  0  0
   -5.9644   -3.8054  -30.3974 C   0  0  0  0  0  0  0  0  0  0  0  0
   -7.0647   -4.6730  -30.3758 C   0  0  0  0  0  0  0  0  0  0  0  0
   -8.2941   -4.2959  -30.9650 C   0  0  0  0  0  0  0  0  0  0  0  0
   -9.7683   -2.6201  -32.2376 C   0  0  0  0  0  0  0  0  0  0  0  0
  -12.2219   -2.9066  -32.1309 N   0  0  0  0  0  0  0  0  0  0  0  0
  -10.9932   -2.9643  -31.3262 C   0  0  0  0  0  0  0  0  0  0  0  0
  -12.1469   -3.5570  -32.9131 H   0  0  0  0  0  0  0  0  0  0  0  0
  -12.3508   -1.9597  -32.4873 H   0  0  0  0  0  0  0  0  0  0  0  0
  -11.0756   -2.0087  -30.1572 C   0  0  0  0  0  0  0  0  0  0  0  0
  -11.1761   -0.8282  -30.4671 O   0  0  0  0  0  0  0  0  0  0  0  0
  -11.0277   -2.4503  -28.8488 N   0  0  0  0  0  0  0  0  0  0  0  0
  -11.0967   -1.5255  -27.7009 C   0  0  0  0  0  0  0  0  0  0  0  0
  -10.9445   -3.4160  -28.6763 H   0  0  0  0  0  0  0  0  0  0  0  0
   -4.7770   -4.2148  -29.7734 O   0  0  0  0  0  0  0  0  0  0  0  0
   -3.4718   -4.1576  -30.3897 C   0  0  0  0  0  0  0  0  0  0  0  0
   -3.1950   -5.5404  -30.9220 C   0  0  0  0  0  0  0  0  0  0  0  0
   -3.9670   -6.6301  -30.5230 C   0  0  0  0  0  0  0  0  0  0  0  0
   -3.6996   -7.8941  -31.0508 C   0  0  0  0  0  0  0  0  0  0  0  0
   -2.5964   -8.0591  -31.9226 C   0  0  0  0  0  0  0  0  0  0  0  0
   -1.8067   -6.9606  -32.2488 C   0  0  0  0  0  0  0  0  0  0  0  0
   -2.0971   -5.6936  -31.7760 C   0  0  0  0  0  0  0  0  0  0  0  0
  8  9  1  0  0  0
  9  7  1  0  0  0
  9 12  1  0  0  0
  7  1  1  0  0  0
  1  2  2  0  0  0
  1  6  1  0  0  0
  2  3  1  0  0  0
  3  4  2  0  0  0
  4  5  1  0  0  0
  4 17  1  0  0  0
  5  6  2  0  0  0
 17 18  1  0  0  0
 18 19  1  0  0  0
 19 20  2  0  0  0
 19 24  1  0  0  0
 20 21  1  0  0  0
 21 22  2  0  0  0
 22 23  1  0  0  0
 23 24  2  0  0  0
 12 13  2  0  0  0
 12 14  1  0  0  0
 14 15  1  0  0  0
  8 10  1  0  0  0
  8 11  1  0  0  0
 14 16  1  0  0  0
M  END
> <minimizedAffinity>
-6.05523

$$$$
