5XO7_36J_A_301


 26 27  0  0  0  0  0  0  0  0999 V2000
   -7.6289   -3.4203   -5.0832 C   0  0  0  0  0  0  0  0  0  0  0  0
   -7.4797   -1.7918   -5.3057 C   0  0  0  0  0  0  0  0  0  0  0  0
   -8.8536   -1.1820   -5.7946 C   0  0  0  0  0  0  0  0  0  0  0  0
   -9.0394    0.3375   -5.6579 C   0  0  0  0  0  0  0  0  0  0  0  0
   -7.7496    1.1346   -5.9465 C   0  0  0  0  0  0  0  0  0  0  0  0
   -9.4699    0.6530   -4.1957 O   0  0  0  0  0  0  0  0  0  0  0  0
   -9.8796    1.8177   -3.7116 C   0  0  0  0  0  0  0  0  0  0  0  0
   -9.9870    2.7987   -4.4211 O   0  0  0  0  0  0  0  0  0  0  0  0
   -9.7508    1.9269   -2.2656 C   0  0  0  0  0  0  0  0  0  0  0  0
   -9.3603    3.1743   -1.7771 C   0  0  0  0  0  0  0  0  0  0  0  0
   -9.2418    4.1927   -2.6704 O   0  0  0  0  0  0  0  0  0  0  0  0
   -9.1574    3.4563   -0.3711 C   0  0  0  0  0  0  0  0  0  0  0  0
   -9.3610    2.4006    0.5172 C   0  0  0  0  0  0  0  0  0  0  0  0
   -9.1585    2.6023    1.8816 O   0  0  0  0  0  0  0  0  0  0  0  0
   -9.7878    1.1591    0.0229 C   0  0  0  0  0  0  0  0  0  0  0  0
   -9.9569    0.8684   -1.3322 C   0  0  0  0  0  0  0  0  0  0  0  0
  -10.3910   -0.4575   -1.6978 C   0  0  0  0  0  0  0  0  0  0  0  0
  -10.3695   -1.6164   -0.9390 C   0  0  0  0  0  0  0  0  0  0  0  0
  -10.8744   -2.8935   -1.3493 C   0  0  0  0  0  0  0  0  0  0  0  0
   -9.5819   -3.6667   -1.6430 C   0  0  0  0  0  0  0  0  0  0  0  0
   -9.3957   -3.3836   -3.1933 C   0  0  0  0  0  0  0  0  0  0  0  0
   -7.9067   -3.8061   -3.7128 C   0  0  0  0  0  0  0  0  0  0  0  0
   -7.8930   -5.2984   -3.7964 O   0  0  0  0  0  0  0  0  0  0  0  0
   -8.9817    5.0441   -2.3783 H   0  0  0  0  0  0  0  0  0  0  0  0
   -8.8733    3.4383    2.1943 H   0  0  0  0  0  0  0  0  0  0  0  0
   -8.5648   -5.5929   -4.4311 H   0  0  0  0  0  0  0  0  0  0  0  0
 14 13  1  0  0  0
 13 12  2  0  0  0
 13 15  1  0  0  0
 12 10  1  0  0  0
 15 16  2  0  0  0
 10 11  1  0  0  0
 10  9  2  0  0  0
 16  9  1  0  0  0
 16 17  1  0  0  0
  9  7  1  0  0  0
 17 18  2  0  0  0
 18 19  1  0  0  0
  7  8  2  0  0  0
  7  6  1  0  0  0
 19 20  1  0  0  0
  6  4  1  0  0  0
 20 21  1  0  0  0
  5  4  1  0  0  0
  4  3  1  0  0  0
 21 22  1  0  0  0
  3  2  1  0  0  0
 22 23  1  0  0  0
 22  1  1  0  0  0
  2  1  1  0  0  0
 11 24  1  0  0  0
 14 25  1  0  0  0
 23 26  1  0  0  0
M  END
> <minimizedAffinity>
-12.66716

$$$$
