1SQT_UI3_A_1001


 27 29  0  0  0  0  0  0  0  0999 V2000
   23.2096   15.4905   32.4974 C   0  0  0  0  0  0  0  0  0  0  0  0
   21.8686   15.6126   32.0438 C   0  0  0  0  0  0  0  0  0  0  0  0
   21.0351   16.6117   32.5629 C   0  0  0  0  0  0  0  0  0  0  0  0
   21.5447   17.5439   33.5399 C   0  0  0  0  0  0  0  0  0  0  0  0
   22.8980   17.4336   33.9793 C   0  0  0  0  0  0  0  0  0  0  0  0
   23.7054   16.4039   33.4868 C   0  0  0  0  0  0  0  0  0  0  0  0
   19.6910   16.6473   32.1295 C   0  0  0  0  0  0  0  0  0  0  0  0
   18.8384   17.5923   32.6717 C   0  0  0  0  0  0  0  0  0  0  0  0
   19.3165   18.5049   33.6390 C   0  0  0  0  0  0  0  0  0  0  0  0
   20.6605   18.4910   34.0811 C   0  0  0  0  0  0  0  0  0  0  0  0
   18.4108   19.4945   34.1971 C   0  0  0  0  0  0  0  0  0  0  0  0
   17.1005   19.5138   33.8198 N   0  0  0  0  0  0  0  0  0  0  0  0
   18.8068   20.3815   35.0705 N   0  0  0  0  0  0  0  0  0  0  0  0
   16.7675   18.8599   33.1635 H   0  0  0  0  0  0  0  0  0  0  0  0
   19.7459   20.3966   35.3656 H   0  0  0  0  0  0  0  0  0  0  0  0
   18.1661   21.0349   35.4337 H   0  0  0  0  0  0  0  0  0  0  0  0
   23.5726   18.4423   34.8441 C   0  0  0  0  0  0  0  0  0  0  0  0
   23.7983   18.3242   36.1566 C   0  0  0  0  0  0  0  0  0  0  0  0
   24.0840   19.6598   36.7078 N   0  0  0  0  0  0  0  0  0  0  0  0
   24.7463   20.2271   35.5377 N   0  0  0  0  0  0  0  0  0  0  0  0
   24.1183   19.7237   34.4409 C   0  0  0  0  0  0  0  0  0  0  0  0
   24.6678   19.7912   38.3725 S   0  0  0  0  0  0  0  0  0  0  0  0
   23.8546   20.8333   38.9723 O   0  0  0  0  0  0  0  0  0  0  0  0
   26.0719   20.0630   38.1863 O   0  0  0  0  0  0  0  0  0  0  0  0
   24.5272   18.2252   39.2133 C   0  0  0  0  0  0  0  0  0  0  0  0
   25.0207   16.3757   34.0470 O   0  0  0  0  0  0  0  0  0  0  0  0
   25.7805   15.1716   34.0862 C   0  0  0  0  0  0  0  0  0  0  0  0
  1  2  1  0  0  0
  1  6  2  0  0  0
  2  3  2  0  0  0
  3  4  1  0  0  0
  3  7  1  0  0  0
  4  5  2  0  0  0
  4 10  1  0  0  0
  5  6  1  0  0  0
  5 17  1  0  0  0
  6 26  1  0  0  0
  7  8  2  0  0  0
  8  9  1  0  0  0
  9 10  2  0  0  0
  9 11  1  0  0  0
 11 12  2  0  0  0
 11 13  1  0  0  0
 26 27  1  0  0  0
 17 18  2  0  0  0
 17 21  1  0  0  0
 18 19  1  0  0  0
 19 20  1  0  0  0
 19 22  1  0  0  0
 20 21  2  0  0  0
 22 23  2  0  0  0
 22 24  2  0  0  0
 22 25  1  0  0  0
 12 14  1  0  0  0
 13 15  1  0  0  0
 13 16  1  0  0  0
M  END
> <minimizedAffinity>
-8.65625

$$$$
1SQT_UI3_A_1001


 27 29  0  0  0  0  0  0  0  0999 V2000
   25.2223   13.3218   31.6737 C   0  0  0  0  0  0  0  0  0  0  0  0
   26.2010   14.0729   30.9686 C   0  0  0  0  0  0  0  0  0  0  0  0
   26.0256   15.4477   30.7653 C   0  0  0  0  0  0  0  0  0  0  0  0
   24.8630   16.1157   31.2995 C   0  0  0  0  0  0  0  0  0  0  0  0
   23.8910   15.3644   32.0258 C   0  0  0  0  0  0  0  0  0  0  0  0
   24.0559   13.9849   32.1822 C   0  0  0  0  0  0  0  0  0  0  0  0
   26.9934   16.1349   29.9992 C   0  0  0  0  0  0  0  0  0  0  0  0
   26.8092   17.4816   29.7416 C   0  0  0  0  0  0  0  0  0  0  0  0
   25.6703   18.1494   30.2455 C   0  0  0  0  0  0  0  0  0  0  0  0
   24.6932   17.4815   31.0210 C   0  0  0  0  0  0  0  0  0  0  0  0
   25.4916   19.5649   29.9703 C   0  0  0  0  0  0  0  0  0  0  0  0
   24.2681   20.0422   29.6031 N   0  0  0  0  0  0  0  0  0  0  0  0
   26.4747   20.4194   30.0696 N   0  0  0  0  0  0  0  0  0  0  0  0
   23.5047   19.4265   29.5184 H   0  0  0  0  0  0  0  0  0  0  0  0
   27.3715   20.1097   30.3325 H   0  0  0  0  0  0  0  0  0  0  0  0
   26.3188   21.3731   29.8817 H   0  0  0  0  0  0  0  0  0  0  0  0
   22.7529   15.9791   32.7654 C   0  0  0  0  0  0  0  0  0  0  0  0
   21.4964   16.0872   32.3214 C   0  0  0  0  0  0  0  0  0  0  0  0
   20.7969   17.1013   33.1286 N   0  0  0  0  0  0  0  0  0  0  0  0
   21.4865   16.8681   34.3934 N   0  0  0  0  0  0  0  0  0  0  0  0
   22.7774   16.5617   34.0930 C   0  0  0  0  0  0  0  0  0  0  0  0
   19.0476   17.2863   32.9412 S   0  0  0  0  0  0  0  0  0  0  0  0
   18.4696   16.3945   33.9299 O   0  0  0  0  0  0  0  0  0  0  0  0
   18.8503   16.9601   31.5502 O   0  0  0  0  0  0  0  0  0  0  0  0
   18.5673   18.9881   33.1705 C   0  0  0  0  0  0  0  0  0  0  0  0
   22.9860   13.3457   32.8832 O   0  0  0  0  0  0  0  0  0  0  0  0
   23.2336   12.2785   33.7934 C   0  0  0  0  0  0  0  0  0  0  0  0
  1  2  1  0  0  0
  1  6  2  0  0  0
  2  3  2  0  0  0
  3  4  1  0  0  0
  3  7  1  0  0  0
  4  5  2  0  0  0
  4 10  1  0  0  0
  5  6  1  0  0  0
  5 17  1  0  0  0
  6 26  1  0  0  0
  7  8  2  0  0  0
  8  9  1  0  0  0
  9 10  2  0  0  0
  9 11  1  0  0  0
 11 12  2  0  0  0
 11 13  1  0  0  0
 26 27  1  0  0  0
 17 18  2  0  0  0
 17 21  1  0  0  0
 18 19  1  0  0  0
 19 20  1  0  0  0
 19 22  1  0  0  0
 20 21  2  0  0  0
 22 23  2  0  0  0
 22 24  2  0  0  0
 22 25  1  0  0  0
 12 14  1  0  0  0
 13 15  1  0  0  0
 13 16  1  0  0  0
M  END
> <minimizedAffinity>
-7.82562

$$$$
1SQT_UI3_A_1001


 27 29  0  0  0  0  0  0  0  0999 V2000
   22.9365   14.7005   33.6044 C   0  0  0  0  0  0  0  0  0  0  0  0
   21.5308   14.7842   33.4143 C   0  0  0  0  0  0  0  0  0  0  0  0
   20.8744   16.0166   33.5276 C   0  0  0  0  0  0  0  0  0  0  0  0
   21.6285   17.2151   33.8073 C   0  0  0  0  0  0  0  0  0  0  0  0
   23.0431   17.1333   33.9770 C   0  0  0  0  0  0  0  0  0  0  0  0
   23.6794   15.8903   33.9063 C   0  0  0  0  0  0  0  0  0  0  0  0
   19.4679   16.0347   33.3976 C   0  0  0  0  0  0  0  0  0  0  0  0
   18.7967   17.2335   33.5606 C   0  0  0  0  0  0  0  0  0  0  0  0
   19.5172   18.4148   33.8476 C   0  0  0  0  0  0  0  0  0  0  0  0
   20.9264   18.4197   33.9744 C   0  0  0  0  0  0  0  0  0  0  0  0
   18.7996   19.6674   34.0125 C   0  0  0  0  0  0  0  0  0  0  0  0
   18.7873   20.2956   35.2228 N   0  0  0  0  0  0  0  0  0  0  0  0
   18.1576   20.2332   33.0255 N   0  0  0  0  0  0  0  0  0  0  0  0
   19.2606   19.8976   35.9889 H   0  0  0  0  0  0  0  0  0  0  0  0
   18.1455   19.8074   32.1378 H   0  0  0  0  0  0  0  0  0  0  0  0
   17.6860   21.0853   33.1692 H   0  0  0  0  0  0  0  0  0  0  0  0
   23.9334   18.3226   34.0923 C   0  0  0  0  0  0  0  0  0  0  0  0
   24.8669   18.6916   33.2092 C   0  0  0  0  0  0  0  0  0  0  0  0
   25.7917   19.6313   33.8658 N   0  0  0  0  0  0  0  0  0  0  0  0
   24.8339   20.2672   34.7647 N   0  0  0  0  0  0  0  0  0  0  0  0
   23.9575   19.3044   35.1591 C   0  0  0  0  0  0  0  0  0  0  0  0
   26.9856   20.4862   32.8794 S   0  0  0  0  0  0  0  0  0  0  0  0
   28.1300   20.6694   33.7534 O   0  0  0  0  0  0  0  0  0  0  0  0
   26.2613   21.6645   32.4707 O   0  0  0  0  0  0  0  0  0  0  0  0
   27.3717   19.5525   31.4103 C   0  0  0  0  0  0  0  0  0  0  0  0
   25.0881   15.9421   34.1462 O   0  0  0  0  0  0  0  0  0  0  0  0
   25.8929   14.7693   34.0724 C   0  0  0  0  0  0  0  0  0  0  0  0
  1  2  1  0  0  0
  1  6  2  0  0  0
  2  3  2  0  0  0
  3  4  1  0  0  0
  3  7  1  0  0  0
  4  5  2  0  0  0
  4 10  1  0  0  0
  5  6  1  0  0  0
  5 17  1  0  0  0
  6 26  1  0  0  0
  7  8  2  0  0  0
  8  9  1  0  0  0
  9 10  2  0  0  0
  9 11  1  0  0  0
 11 12  2  0  0  0
 11 13  1  0  0  0
 26 27  1  0  0  0
 17 18  2  0  0  0
 17 21  1  0  0  0
 18 19  1  0  0  0
 19 20  1  0  0  0
 19 22  1  0  0  0
 20 21  2  0  0  0
 22 23  2  0  0  0
 22 24  2  0  0  0
 22 25  1  0  0  0
 12 14  1  0  0  0
 13 15  1  0  0  0
 13 16  1  0  0  0
M  END
> <minimizedAffinity>
-7.44702

$$$$
1SQT_UI3_A_1001


 27 29  0  0  0  0  0  0  0  0999 V2000
   26.0003   18.8358   32.1017 C   0  0  0  0  0  0  0  0  0  0  0  0
   26.7899   19.0835   33.2569 C   0  0  0  0  0  0  0  0  0  0  0  0
   26.2643   18.8534   34.5348 C   0  0  0  0  0  0  0  0  0  0  0  0
   24.9265   18.3324   34.6841 C   0  0  0  0  0  0  0  0  0  0  0  0
   24.1419   18.0640   33.5227 C   0  0  0  0  0  0  0  0  0  0  0  0
   24.6622   18.3410   32.2549 C   0  0  0  0  0  0  0  0  0  0  0  0
   27.0654   19.1805   35.6515 C   0  0  0  0  0  0  0  0  0  0  0  0
   26.5432   19.0115   36.9214 C   0  0  0  0  0  0  0  0  0  0  0  0
   25.2306   18.5149   37.0867 C   0  0  0  0  0  0  0  0  0  0  0  0
   24.4146   18.1743   35.9821 C   0  0  0  0  0  0  0  0  0  0  0  0
   24.6964   18.3389   38.4265 C   0  0  0  0  0  0  0  0  0  0  0  0
   24.7278   17.1119   39.0208 N   0  0  0  0  0  0  0  0  0  0  0  0
   24.1827   19.3312   39.1033 N   0  0  0  0  0  0  0  0  0  0  0  0
   25.1078   16.3416   38.5398 H   0  0  0  0  0  0  0  0  0  0  0  0
   24.1439   20.2307   38.7052 H   0  0  0  0  0  0  0  0  0  0  0  0
   23.8345   19.1794   40.0116 H   0  0  0  0  0  0  0  0  0  0  0  0
   22.8263   17.3652   33.5556 C   0  0  0  0  0  0  0  0  0  0  0  0
   21.6539   17.8829   33.1748 C   0  0  0  0  0  0  0  0  0  0  0  0
   20.5699   17.0648   33.7450 N   0  0  0  0  0  0  0  0  0  0  0  0
   21.2494   15.7737   33.7141 N   0  0  0  0  0  0  0  0  0  0  0  0
   22.5613   16.0070   33.9886 C   0  0  0  0  0  0  0  0  0  0  0  0
   18.9084   17.3545   33.2115 S   0  0  0  0  0  0  0  0  0  0  0  0
   18.0980   16.4483   34.0046 O   0  0  0  0  0  0  0  0  0  0  0  0
   18.9926   17.1082   31.7929 O   0  0  0  0  0  0  0  0  0  0  0  0
   18.4652   19.0668   33.4374 C   0  0  0  0  0  0  0  0  0  0  0  0
   23.7552   18.0758   31.1818 O   0  0  0  0  0  0  0  0  0  0  0  0
   24.1745   17.3687   30.0187 C   0  0  0  0  0  0  0  0  0  0  0  0
  1  2  1  0  0  0
  1  6  2  0  0  0
  2  3  2  0  0  0
  3  4  1  0  0  0
  3  7  1  0  0  0
  4  5  2  0  0  0
  4 10  1  0  0  0
  5  6  1  0  0  0
  5 17  1  0  0  0
  6 26  1  0  0  0
  7  8  2  0  0  0
  8  9  1  0  0  0
  9 10  2  0  0  0
  9 11  1  0  0  0
 11 12  2  0  0  0
 11 13  1  0  0  0
 26 27  1  0  0  0
 17 18  2  0  0  0
 17 21  1  0  0  0
 18 19  1  0  0  0
 19 20  1  0  0  0
 19 22  1  0  0  0
 20 21  2  0  0  0
 22 23  2  0  0  0
 22 24  2  0  0  0
 22 25  1  0  0  0
 12 14  1  0  0  0
 13 15  1  0  0  0
 13 16  1  0  0  0
M  END
> <minimizedAffinity>
-6.88009

$$$$
1SQT_UI3_A_1001


 27 29  0  0  0  0  0  0  0  0999 V2000
   24.2028   14.6834   32.7626 C   0  0  0  0  0  0  0  0  0  0  0  0
   22.9549   14.9078   32.1211 C   0  0  0  0  0  0  0  0  0  0  0  0
   22.0647   15.8661   32.6225 C   0  0  0  0  0  0  0  0  0  0  0  0
   22.4247   16.6543   33.7769 C   0  0  0  0  0  0  0  0  0  0  0  0
   23.6872   16.4429   34.4078 C   0  0  0  0  0  0  0  0  0  0  0  0
   24.5468   15.4519   33.9244 C   0  0  0  0  0  0  0  0  0  0  0  0
   20.8091   16.0023   31.9895 C   0  0  0  0  0  0  0  0  0  0  0  0
   19.8955   16.9050   32.5038 C   0  0  0  0  0  0  0  0  0  0  0  0
   20.2255   17.6760   33.6412 C   0  0  0  0  0  0  0  0  0  0  0  0
   21.4799   17.5603   34.2854 C   0  0  0  0  0  0  0  0  0  0  0  0
   19.2576   18.6228   34.1682 C   0  0  0  0  0  0  0  0  0  0  0  0
   17.9586   18.5756   33.7558 N   0  0  0  0  0  0  0  0  0  0  0  0
   19.5858   19.5330   35.0459 N   0  0  0  0  0  0  0  0  0  0  0  0
   17.6760   17.9026   33.0952 H   0  0  0  0  0  0  0  0  0  0  0  0
   20.5148   19.5958   35.3659 H   0  0  0  0  0  0  0  0  0  0  0  0
   18.9043   20.1560   35.3874 H   0  0  0  0  0  0  0  0  0  0  0  0
   24.2293   17.3146   35.4879 C   0  0  0  0  0  0  0  0  0  0  0  0
   25.2698   18.1466   35.3758 C   0  0  0  0  0  0  0  0  0  0  0  0
   25.7464   18.4900   36.7264 N   0  0  0  0  0  0  0  0  0  0  0  0
   24.4608   18.4439   37.4154 N   0  0  0  0  0  0  0  0  0  0  0  0
   23.7396   17.4403   36.8469 C   0  0  0  0  0  0  0  0  0  0  0  0
   26.9540   19.7699   36.9076 S   0  0  0  0  0  0  0  0  0  0  0  0
   26.2463   20.8632   37.5486 O   0  0  0  0  0  0  0  0  0  0  0  0
   27.4005   19.9671   35.5505 O   0  0  0  0  0  0  0  0  0  0  0  0
   28.3478   19.1892   37.8561 C   0  0  0  0  0  0  0  0  0  0  0  0
   25.7536   15.3087   34.6779 O   0  0  0  0  0  0  0  0  0  0  0  0
   26.9886   14.9966   34.0411 C   0  0  0  0  0  0  0  0  0  0  0  0
  1  2  1  0  0  0
  1  6  2  0  0  0
  2  3  2  0  0  0
  3  4  1  0  0  0
  3  7  1  0  0  0
  4  5  2  0  0  0
  4 10  1  0  0  0
  5  6  1  0  0  0
  5 17  1  0  0  0
  6 26  1  0  0  0
  7  8  2  0  0  0
  8  9  1  0  0  0
  9 10  2  0  0  0
  9 11  1  0  0  0
 11 12  2  0  0  0
 11 13  1  0  0  0
 26 27  1  0  0  0
 17 18  2  0  0  0
 17 21  1  0  0  0
 18 19  1  0  0  0
 19 20  1  0  0  0
 19 22  1  0  0  0
 20 21  2  0  0  0
 22 23  2  0  0  0
 22 24  2  0  0  0
 22 25  1  0  0  0
 12 14  1  0  0  0
 13 15  1  0  0  0
 13 16  1  0  0  0
M  END
> <minimizedAffinity>
-6.71504

$$$$
1SQT_UI3_A_1001


 27 29  0  0  0  0  0  0  0  0999 V2000
   21.0753   16.2474   33.6603 C   0  0  0  0  0  0  0  0  0  0  0  0
   21.7640   15.0458   33.3424 C   0  0  0  0  0  0  0  0  0  0  0  0
   23.1401   14.9360   33.5797 C   0  0  0  0  0  0  0  0  0  0  0  0
   23.8610   16.0335   34.1791 C   0  0  0  0  0  0  0  0  0  0  0  0
   23.1643   17.2321   34.5175 C   0  0  0  0  0  0  0  0  0  0  0  0
   21.8000   17.3452   34.2335 C   0  0  0  0  0  0  0  0  0  0  0  0
   23.7900   13.7462   33.1826 C   0  0  0  0  0  0  0  0  0  0  0  0
   25.1582   13.6408   33.3589 C   0  0  0  0  0  0  0  0  0  0  0  0
   25.8825   14.7103   33.9321 C   0  0  0  0  0  0  0  0  0  0  0  0
   25.2498   15.9072   34.3434 C   0  0  0  0  0  0  0  0  0  0  0  0
   27.3184   14.5843   34.1147 C   0  0  0  0  0  0  0  0  0  0  0  0
   27.9407   15.2483   35.1304 N   0  0  0  0  0  0  0  0  0  0  0  0
   28.0534   13.8386   33.3335 N   0  0  0  0  0  0  0  0  0  0  0  0
   27.4177   15.8192   35.7385 H   0  0  0  0  0  0  0  0  0  0  0  0
   27.6374   13.3450   32.5901 H   0  0  0  0  0  0  0  0  0  0  0  0
   29.0233   13.7702   33.4880 H   0  0  0  0  0  0  0  0  0  0  0  0
   23.7693   18.3500   35.2952 C   0  0  0  0  0  0  0  0  0  0  0  0
   23.9779   18.3635   36.6157 C   0  0  0  0  0  0  0  0  0  0  0  0
   24.1828   19.7570   37.0464 N   0  0  0  0  0  0  0  0  0  0  0  0
   24.8344   20.2514   35.8378 N   0  0  0  0  0  0  0  0  0  0  0  0
   24.2532   19.6176   34.7837 C   0  0  0  0  0  0  0  0  0  0  0  0
   24.7297   20.0699   38.6993 S   0  0  0  0  0  0  0  0  0  0  0  0
   24.4707   18.8359   39.4184 O   0  0  0  0  0  0  0  0  0  0  0  0
   23.9570   21.2314   39.0651 O   0  0  0  0  0  0  0  0  0  0  0  0
   26.4500   20.5385   38.7141 C   0  0  0  0  0  0  0  0  0  0  0  0
   21.2367   18.6144   34.5746 O   0  0  0  0  0  0  0  0  0  0  0  0
   19.8872   18.9340   34.2504 C   0  0  0  0  0  0  0  0  0  0  0  0
  1  2  1  0  0  0
  1  6  2  0  0  0
  2  3  2  0  0  0
  3  4  1  0  0  0
  3  7  1  0  0  0
  4  5  2  0  0  0
  4 10  1  0  0  0
  5  6  1  0  0  0
  5 17  1  0  0  0
  6 26  1  0  0  0
  7  8  2  0  0  0
  8  9  1  0  0  0
  9 10  2  0  0  0
  9 11  1  0  0  0
 11 12  2  0  0  0
 11 13  1  0  0  0
 26 27  1  0  0  0
 17 18  2  0  0  0
 17 21  1  0  0  0
 18 19  1  0  0  0
 19 20  1  0  0  0
 19 22  1  0  0  0
 20 21  2  0  0  0
 22 23  2  0  0  0
 22 24  2  0  0  0
 22 25  1  0  0  0
 12 14  1  0  0  0
 13 15  1  0  0  0
 13 16  1  0  0  0
M  END
> <minimizedAffinity>
-6.60486

$$$$
1SQT_UI3_A_1001


 27 29  0  0  0  0  0  0  0  0999 V2000
   24.7624   19.2582   34.6430 C   0  0  0  0  0  0  0  0  0  0  0  0
   23.3859   19.2919   34.9937 C   0  0  0  0  0  0  0  0  0  0  0  0
   22.4481   18.5685   34.2457 C   0  0  0  0  0  0  0  0  0  0  0  0
   22.8803   17.7583   33.1321 C   0  0  0  0  0  0  0  0  0  0  0  0
   24.2658   17.7084   32.7937 C   0  0  0  0  0  0  0  0  0  0  0  0
   25.1852   18.4710   33.5204 C   0  0  0  0  0  0  0  0  0  0  0  0
   21.0843   18.6902   34.5935 C   0  0  0  0  0  0  0  0  0  0  0  0
   20.1385   18.0266   33.8325 C   0  0  0  0  0  0  0  0  0  0  0  0
   20.5420   17.2392   32.7306 C   0  0  0  0  0  0  0  0  0  0  0  0
   21.9029   17.0981   32.3701 C   0  0  0  0  0  0  0  0  0  0  0  0
   19.5380   16.5448   31.9426 C   0  0  0  0  0  0  0  0  0  0  0  0
   18.4005   17.1917   31.5587 N   0  0  0  0  0  0  0  0  0  0  0  0
   19.6866   15.3010   31.5719 N   0  0  0  0  0  0  0  0  0  0  0  0
   18.2555   18.1296   31.8204 H   0  0  0  0  0  0  0  0  0  0  0  0
   20.4956   14.8034   31.8312 H   0  0  0  0  0  0  0  0  0  0  0  0
   18.9897   14.8613   31.0332 H   0  0  0  0  0  0  0  0  0  0  0  0
   24.8383   16.7746   31.7835 C   0  0  0  0  0  0  0  0  0  0  0  0
   25.1095   15.4799   31.9776 C   0  0  0  0  0  0  0  0  0  0  0  0
   26.0316   15.0279   30.9217 N   0  0  0  0  0  0  0  0  0  0  0  0
   25.5488   15.8880   29.8461 N   0  0  0  0  0  0  0  0  0  0  0  0
   25.1984   17.0747   30.4114 C   0  0  0  0  0  0  0  0  0  0  0  0
   26.3744   13.2994   30.7678 S   0  0  0  0  0  0  0  0  0  0  0  0
   26.5717   13.0828   29.3461 O   0  0  0  0  0  0  0  0  0  0  0  0
   25.2151   12.6992   31.3808 O   0  0  0  0  0  0  0  0  0  0  0  0
   27.7961   12.8510   31.7461 C   0  0  0  0  0  0  0  0  0  0  0  0
   26.5302   18.3707   33.0455 O   0  0  0  0  0  0  0  0  0  0  0  0
   27.6369   18.4754   33.9359 C   0  0  0  0  0  0  0  0  0  0  0  0
  1  2  1  0  0  0
  1  6  2  0  0  0
  2  3  2  0  0  0
  3  4  1  0  0  0
  3  7  1  0  0  0
  4  5  2  0  0  0
  4 10  1  0  0  0
  5  6  1  0  0  0
  5 17  1  0  0  0
  6 26  1  0  0  0
  7  8  2  0  0  0
  8  9  1  0  0  0
  9 10  2  0  0  0
  9 11  1  0  0  0
 11 12  2  0  0  0
 11 13  1  0  0  0
 26 27  1  0  0  0
 17 18  2  0  0  0
 17 21  1  0  0  0
 18 19  1  0  0  0
 19 20  1  0  0  0
 19 22  1  0  0  0
 20 21  2  0  0  0
 22 23  2  0  0  0
 22 24  2  0  0  0
 22 25  1  0  0  0
 12 14  1  0  0  0
 13 15  1  0  0  0
 13 16  1  0  0  0
M  END
> <minimizedAffinity>
-6.58407

$$$$
1SQT_UI3_A_1001


 27 29  0  0  0  0  0  0  0  0999 V2000
   21.9462   15.0588   32.1253 C   0  0  0  0  0  0  0  0  0  0  0  0
   20.6485   15.5445   31.8105 C   0  0  0  0  0  0  0  0  0  0  0  0
   20.1810   16.7342   32.3834 C   0  0  0  0  0  0  0  0  0  0  0  0
   21.0288   17.4909   33.2734 C   0  0  0  0  0  0  0  0  0  0  0  0
   22.3399   17.0131   33.5724 C   0  0  0  0  0  0  0  0  0  0  0  0
   22.7770   15.8011   33.0296 C   0  0  0  0  0  0  0  0  0  0  0  0
   18.8589   17.1376   32.0916 C   0  0  0  0  0  0  0  0  0  0  0  0
   18.3609   18.2807   32.6911 C   0  0  0  0  0  0  0  0  0  0  0  0
   19.1721   19.0271   33.5753 C   0  0  0  0  0  0  0  0  0  0  0  0
   20.5009   18.6447   33.8751 C   0  0  0  0  0  0  0  0  0  0  0  0
   18.6372   20.2277   34.1948 C   0  0  0  0  0  0  0  0  0  0  0  0
   18.0376   21.1842   33.4299 N   0  0  0  0  0  0  0  0  0  0  0  0
   18.7016   20.4297   35.4838 N   0  0  0  0  0  0  0  0  0  0  0  0
   17.9714   21.0648   32.4549 H   0  0  0  0  0  0  0  0  0  0  0  0
   19.1275   19.7601   36.0664 H   0  0  0  0  0  0  0  0  0  0  0  0
   18.3242   21.2517   35.8727 H   0  0  0  0  0  0  0  0  0  0  0  0
   23.3540   17.7979   34.3313 C   0  0  0  0  0  0  0  0  0  0  0  0
   24.5605   18.1604   33.8835 C   0  0  0  0  0  0  0  0  0  0  0  0
   25.3990   18.5320   35.0361 N   0  0  0  0  0  0  0  0  0  0  0  0
   24.3468   19.0769   35.8879 N   0  0  0  0  0  0  0  0  0  0  0  0
   23.2333   18.3244   35.6770 C   0  0  0  0  0  0  0  0  0  0  0  0
   26.9683   19.2936   34.7420 S   0  0  0  0  0  0  0  0  0  0  0  0
   26.6752   20.4415   33.9034 O   0  0  0  0  0  0  0  0  0  0  0  0
   27.7293   18.2164   34.1585 O   0  0  0  0  0  0  0  0  0  0  0  0
   27.7508   19.7357   36.2820 C   0  0  0  0  0  0  0  0  0  0  0  0
   24.0872   15.4128   33.4502 O   0  0  0  0  0  0  0  0  0  0  0  0
   24.4013   14.0507   33.7233 C   0  0  0  0  0  0  0  0  0  0  0  0
  1  2  1  0  0  0
  1  6  2  0  0  0
  2  3  2  0  0  0
  3  4  1  0  0  0
  3  7  1  0  0  0
  4  5  2  0  0  0
  4 10  1  0  0  0
  5  6  1  0  0  0
  5 17  1  0  0  0
  6 26  1  0  0  0
  7  8  2  0  0  0
  8  9  1  0  0  0
  9 10  2  0  0  0
  9 11  1  0  0  0
 11 12  2  0  0  0
 11 13  1  0  0  0
 26 27  1  0  0  0
 17 18  2  0  0  0
 17 21  1  0  0  0
 18 19  1  0  0  0
 19 20  1  0  0  0
 19 22  1  0  0  0
 20 21  2  0  0  0
 22 23  2  0  0  0
 22 24  2  0  0  0
 22 25  1  0  0  0
 12 14  1  0  0  0
 13 15  1  0  0  0
 13 16  1  0  0  0
M  END
> <minimizedAffinity>
-6.34751

$$$$
1SQT_UI3_A_1001


 27 29  0  0  0  0  0  0  0  0999 V2000
   26.5963   17.1262   31.6415 C   0  0  0  0  0  0  0  0  0  0  0  0
   25.5254   16.4743   30.9726 C   0  0  0  0  0  0  0  0  0  0  0  0
   24.2615   16.3958   31.5713 C   0  0  0  0  0  0  0  0  0  0  0  0
   24.0316   17.0054   32.8592 C   0  0  0  0  0  0  0  0  0  0  0  0
   25.1022   17.6783   33.5207 C   0  0  0  0  0  0  0  0  0  0  0  0
   26.3703   17.7099   32.9326 C   0  0  0  0  0  0  0  0  0  0  0  0
   23.2497   15.6778   30.8956 C   0  0  0  0  0  0  0  0  0  0  0  0
   22.0107   15.5428   31.4964 C   0  0  0  0  0  0  0  0  0  0  0  0
   21.7714   16.1219   32.7630 C   0  0  0  0  0  0  0  0  0  0  0  0
   22.7684   16.8511   33.4530 C   0  0  0  0  0  0  0  0  0  0  0  0
   20.4642   15.9754   33.3803 C   0  0  0  0  0  0  0  0  0  0  0  0
   19.8143   17.0672   33.8756 N   0  0  0  0  0  0  0  0  0  0  0  0
   19.8692   14.8164   33.4760 N   0  0  0  0  0  0  0  0  0  0  0  0
   20.2332   17.9564   33.8204 H   0  0  0  0  0  0  0  0  0  0  0  0
   20.3093   14.0070   33.1290 H   0  0  0  0  0  0  0  0  0  0  0  0
   18.9806   14.7523   33.8950 H   0  0  0  0  0  0  0  0  0  0  0  0
   24.9315   18.4874   34.7603 C   0  0  0  0  0  0  0  0  0  0  0  0
   25.1538   18.0649   36.0091 C   0  0  0  0  0  0  0  0  0  0  0  0
   24.4811   18.9830   36.9440 N   0  0  0  0  0  0  0  0  0  0  0  0
   24.6304   20.2105   36.1691 N   0  0  0  0  0  0  0  0  0  0  0  0
   24.5089   19.8710   34.8573 C   0  0  0  0  0  0  0  0  0  0  0  0
   24.8027   18.8266   38.6765 S   0  0  0  0  0  0  0  0  0  0  0  0
   24.2846   17.5193   39.0361 O   0  0  0  0  0  0  0  0  0  0  0  0
   24.1341   19.9832   39.2199 O   0  0  0  0  0  0  0  0  0  0  0  0
   26.5453   19.0030   39.0108 C   0  0  0  0  0  0  0  0  0  0  0  0
   27.3631   18.3690   33.7228 O   0  0  0  0  0  0  0  0  0  0  0  0
   28.7409   18.0249   33.6142 C   0  0  0  0  0  0  0  0  0  0  0  0
  1  2  1  0  0  0
  1  6  2  0  0  0
  2  3  2  0  0  0
  3  4  1  0  0  0
  3  7  1  0  0  0
  4  5  2  0  0  0
  4 10  1  0  0  0
  5  6  1  0  0  0
  5 17  1  0  0  0
  6 26  1  0  0  0
  7  8  2  0  0  0
  8  9  1  0  0  0
  9 10  2  0  0  0
  9 11  1  0  0  0
 11 12  2  0  0  0
 11 13  1  0  0  0
 26 27  1  0  0  0
 17 18  2  0  0  0
 17 21  1  0  0  0
 18 19  1  0  0  0
 19 20  1  0  0  0
 19 22  1  0  0  0
 20 21  2  0  0  0
 22 23  2  0  0  0
 22 24  2  0  0  0
 22 25  1  0  0  0
 12 14  1  0  0  0
 13 15  1  0  0  0
 13 16  1  0  0  0
M  END
> <minimizedAffinity>
-6.17727

$$$$
1SQT_UI3_A_1001


 27 29  0  0  0  0  0  0  0  0999 V2000
   20.9221   16.7909   32.6981 C   0  0  0  0  0  0  0  0  0  0  0  0
   21.6299   15.9764   31.7736 C   0  0  0  0  0  0  0  0  0  0  0  0
   23.0231   16.0755   31.6667 C   0  0  0  0  0  0  0  0  0  0  0  0
   23.7515   16.9844   32.5192 C   0  0  0  0  0  0  0  0  0  0  0  0
   23.0418   17.7866   33.4622 C   0  0  0  0  0  0  0  0  0  0  0  0
   21.6472   17.7109   33.5268 C   0  0  0  0  0  0  0  0  0  0  0  0
   23.6714   15.2938   30.6847 C   0  0  0  0  0  0  0  0  0  0  0  0
   25.0402   15.4185   30.5273 C   0  0  0  0  0  0  0  0  0  0  0  0
   25.7681   16.3129   31.3441 C   0  0  0  0  0  0  0  0  0  0  0  0
   25.1393   17.0992   32.3382 C   0  0  0  0  0  0  0  0  0  0  0  0
   27.2058   16.4308   31.1702 C   0  0  0  0  0  0  0  0  0  0  0  0
   27.9851   16.8811   32.1947 N   0  0  0  0  0  0  0  0  0  0  0  0
   27.7970   16.1091   30.0506 N   0  0  0  0  0  0  0  0  0  0  0  0
   27.5731   17.1325   33.0528 H   0  0  0  0  0  0  0  0  0  0  0  0
   27.2653   15.7804   29.2900 H   0  0  0  0  0  0  0  0  0  0  0  0
   28.7741   16.1954   29.9673 H   0  0  0  0  0  0  0  0  0  0  0  0
   23.7044   18.6212   34.5038 C   0  0  0  0  0  0  0  0  0  0  0  0
   23.9154   18.2663   35.7754 C   0  0  0  0  0  0  0  0  0  0  0  0
   24.1919   19.4794   36.5636 N   0  0  0  0  0  0  0  0  0  0  0  0
   24.8662   20.2502   35.5240 N   0  0  0  0  0  0  0  0  0  0  0  0
   24.2517   19.9547   34.3468 C   0  0  0  0  0  0  0  0  0  0  0  0
   24.7565   19.3058   38.2311 S   0  0  0  0  0  0  0  0  0  0  0  0
   24.0739   20.3539   38.9676 O   0  0  0  0  0  0  0  0  0  0  0  0
   26.1872   19.4145   38.0851 O   0  0  0  0  0  0  0  0  0  0  0  0
   24.3988   17.6719   38.8489 C   0  0  0  0  0  0  0  0  0  0  0  0
   21.0582   18.6037   34.4757 O   0  0  0  0  0  0  0  0  0  0  0  0
   19.6598   18.8732   34.4662 C   0  0  0  0  0  0  0  0  0  0  0  0
  1  2  1  0  0  0
  1  6  2  0  0  0
  2  3  2  0  0  0
  3  4  1  0  0  0
  3  7  1  0  0  0
  4  5  2  0  0  0
  4 10  1  0  0  0
  5  6  1  0  0  0
  5 17  1  0  0  0
  6 26  1  0  0  0
  7  8  2  0  0  0
  8  9  1  0  0  0
  9 10  2  0  0  0
  9 11  1  0  0  0
 11 12  2  0  0  0
 11 13  1  0  0  0
 26 27  1  0  0  0
 17 18  2  0  0  0
 17 21  1  0  0  0
 18 19  1  0  0  0
 19 20  1  0  0  0
 19 22  1  0  0  0
 20 21  2  0  0  0
 22 23  2  0  0  0
 22 24  2  0  0  0
 22 25  1  0  0  0
 12 14  1  0  0  0
 13 15  1  0  0  0
 13 16  1  0  0  0
M  END
> <minimizedAffinity>
-6.14005

$$$$
