1FV0_9AR_A_401


 28 31  0  0  0  0  0  0  0  0999 V2000
   15.4717   22.8705   40.3972 C   0  0  0  0  0  0  0  0  0  0  0  0
   14.0878   22.9278   40.1286 C   0  0  0  0  0  0  0  0  0  0  0  0
   13.1405   23.0179   41.1413 C   0  0  0  0  0  0  0  0  0  0  0  0
   13.5166   23.0578   42.5055 C   0  0  0  0  0  0  0  0  0  0  0  0
   14.9406   23.0053   42.9023 C   0  0  0  0  0  0  0  0  0  0  0  0
   15.9493   22.9127   41.7886 C   0  0  0  0  0  0  0  0  0  0  0  0
   15.3986   23.0356   44.2864 C   0  0  0  0  0  0  0  0  0  0  0  0
   16.8524   22.9591   44.5596 C   0  0  0  0  0  0  0  0  0  0  0  0
   17.7602   22.8742   43.4795 C   0  0  0  0  0  0  0  0  0  0  0  0
   17.3524   22.8645   42.1277 C   0  0  0  0  0  0  0  0  0  0  0  0
   14.5271   23.1255   45.4305 C   0  0  0  0  0  0  0  0  0  0  0  0
   15.0158   23.1406   46.7388 C   0  0  0  0  0  0  0  0  0  0  0  0
   16.3881   23.0626   46.9894 C   0  0  0  0  0  0  0  0  0  0  0  0
   17.3504   22.9684   45.9112 C   0  0  0  0  0  0  0  0  0  0  0  0
   11.2808   23.1525   42.3010 C   0  0  0  0  0  0  0  0  0  0  0  0
   11.7965   23.0714   40.9601 O   0  0  0  0  0  0  0  0  0  0  0  0
   12.3694   23.1420   43.2467 O   0  0  0  0  0  0  0  0  0  0  0  0
   16.8101   23.0774   48.3435 O   0  0  0  0  0  0  0  0  0  0  0  0
   16.1765   23.1388   49.0311 H   0  0  0  0  0  0  0  0  0  0  0  0
   16.3363   22.9140   39.1301 C   0  0  0  0  0  0  0  0  0  0  0  0
   16.2232   22.1704   38.1565 O   0  0  0  0  0  0  0  0  0  0  0  0
   16.8635   23.9326   38.6969 O   0  0  0  0  0  0  0  0  0  0  0  0
   17.0474   24.6470   39.2746 H   0  0  0  0  0  0  0  0  0  0  0  0
   19.1703   22.5483   40.4602 O   0  0  0  0  0  0  0  0  0  0  0  0
   18.5457   24.4027   41.1659 O   0  0  0  0  0  0  0  0  0  0  0  0
   18.6640   23.1751   41.1598 N   0  0  0  0  0  0  0  0  0  0  0  0
   19.9834   21.8716   46.0544 C   0  0  0  0  0  0  0  0  0  0  0  0
   18.6180   22.4606   46.0980 O   0  0  0  0  0  0  0  0  0  0  0  0
  1  2  2  0  0  0
  1  6  1  0  0  0
  1 20  1  0  0  0
  2  3  1  0  0  0
  3  4  2  0  0  0
  3 16  1  0  0  0
  4  5  1  0  0  0
  4 17  1  0  0  0
  5  6  2  0  0  0
  5  7  1  0  0  0
  6 10  1  0  0  0
  7  8  2  0  0  0
  7 11  1  0  0  0
  8  9  1  0  0  0
  8 14  1  0  0  0
  9 10  2  0  0  0
 10 26  1  0  0  0
 11 12  2  0  0  0
 12 13  1  0  0  0
 13 14  2  0  0  0
 13 18  1  0  0  0
 14 28  1  0  0  0
 15 16  1  0  0  0
 15 17  1  0  0  0
 20 21  2  0  0  0
 20 22  1  0  0  0
 27 28  1  0  0  0
 24 26  2  0  0  0
 25 26  1  0  0  0
 22 23  1  0  0  0
 18 19  1  0  0  0
M  CHG 1  25  -1
M  CHG 1  26   1
M  END
> <minimizedAffinity>
-8.86841

$$$$
1FV0_9AR_A_401


 28 31  0  0  0  0  0  0  0  0999 V2000
   13.9139   23.1334   40.8690 C   0  0  0  0  0  0  0  0  0  0  0  0
   14.4115   23.1590   39.5490 C   0  0  0  0  0  0  0  0  0  0  0  0
   15.7719   23.1102   39.2697 C   0  0  0  0  0  0  0  0  0  0  0  0
   16.7372   23.0311   40.3022 C   0  0  0  0  0  0  0  0  0  0  0  0
   16.3279   22.9967   41.7233 C   0  0  0  0  0  0  0  0  0  0  0  0
   14.8493   23.0457   42.0018 C   0  0  0  0  0  0  0  0  0  0  0  0
   17.2670   22.9222   42.8363 C   0  0  0  0  0  0  0  0  0  0  0  0
   16.7363   22.9117   44.2192 C   0  0  0  0  0  0  0  0  0  0  0  0
   15.3394   22.9584   44.4292 C   0  0  0  0  0  0  0  0  0  0  0  0
   14.4018   23.0090   43.3746 C   0  0  0  0  0  0  0  0  0  0  0  0
   18.6996   22.8676   42.6905 C   0  0  0  0  0  0  0  0  0  0  0  0
   19.5578   22.8075   43.7907 C   0  0  0  0  0  0  0  0  0  0  0  0
   19.0506   22.8035   45.0925 C   0  0  0  0  0  0  0  0  0  0  0  0
   17.6266   22.8563   45.3504 C   0  0  0  0  0  0  0  0  0  0  0  0
   17.7365   23.0674   38.2898 C   0  0  0  0  0  0  0  0  0  0  0  0
   16.3229   23.1362   38.0297 O   0  0  0  0  0  0  0  0  0  0  0  0
   17.9711   23.0032   39.7112 O   0  0  0  0  0  0  0  0  0  0  0  0
   19.9828   22.7468   46.1602 O   0  0  0  0  0  0  0  0  0  0  0  0
   20.9015   22.7130   45.9787 H   0  0  0  0  0  0  0  0  0  0  0  0
   12.3828   23.0567   40.9370 C   0  0  0  0  0  0  0  0  0  0  0  0
   11.7074   22.0365   40.8080 O   0  0  0  0  0  0  0  0  0  0  0  0
   11.6889   23.8197   41.5998 O   0  0  0  0  0  0  0  0  0  0  0  0
   12.0101   24.6714   41.8222 H   0  0  0  0  0  0  0  0  0  0  0  0
   12.2439   21.8249   43.7304 O   0  0  0  0  0  0  0  0  0  0  0  0
   13.0030   23.2752   45.0139 O   0  0  0  0  0  0  0  0  0  0  0  0
   12.8963   22.6363   43.9644 N   0  0  0  0  0  0  0  0  0  0  0  0
   16.3876   23.5739   47.8214 C   0  0  0  0  0  0  0  0  0  0  0  0
   17.1116   23.2880   46.5537 O   0  0  0  0  0  0  0  0  0  0  0  0
  1  2  2  0  0  0
  1  6  1  0  0  0
  1 20  1  0  0  0
  2  3  1  0  0  0
  3  4  2  0  0  0
  3 16  1  0  0  0
  4  5  1  0  0  0
  4 17  1  0  0  0
  5  6  2  0  0  0
  5  7  1  0  0  0
  6 10  1  0  0  0
  7  8  2  0  0  0
  7 11  1  0  0  0
  8  9  1  0  0  0
  8 14  1  0  0  0
  9 10  2  0  0  0
 10 26  1  0  0  0
 11 12  2  0  0  0
 12 13  1  0  0  0
 13 14  2  0  0  0
 13 18  1  0  0  0
 14 28  1  0  0  0
 15 16  1  0  0  0
 15 17  1  0  0  0
 20 21  2  0  0  0
 20 22  1  0  0  0
 27 28  1  0  0  0
 24 26  2  0  0  0
 25 26  1  0  0  0
 22 23  1  0  0  0
 18 19  1  0  0  0
M  CHG 1  25  -1
M  CHG 1  26   1
M  END
> <minimizedAffinity>
-7.67740

$$$$
1FV0_9AR_A_401


 28 31  0  0  0  0  0  0  0  0999 V2000
   14.3425   22.9757   44.2599 C   0  0  0  0  0  0  0  0  0  0  0  0
   15.2385   23.0859   45.3442 C   0  0  0  0  0  0  0  0  0  0  0  0
   16.6170   23.0573   45.1711 C   0  0  0  0  0  0  0  0  0  0  0  0
   17.1992   22.9157   43.8885 C   0  0  0  0  0  0  0  0  0  0  0  0
   16.3544   22.7932   42.6804 C   0  0  0  0  0  0  0  0  0  0  0  0
   14.8643   22.8315   42.8914 C   0  0  0  0  0  0  0  0  0  0  0  0
   16.8857   22.6383   41.3314 C   0  0  0  0  0  0  0  0  0  0  0  0
   15.9376   22.5076   40.2009 C   0  0  0  0  0  0  0  0  0  0  0  0
   14.5469   22.5505   40.4500 C   0  0  0  0  0  0  0  0  0  0  0  0
   13.9991   22.7209   41.7402 C   0  0  0  0  0  0  0  0  0  0  0  0
   18.2897   22.5916   41.0097 C   0  0  0  0  0  0  0  0  0  0  0  0
   18.7480   22.4310   39.7002 C   0  0  0  0  0  0  0  0  0  0  0  0
   17.8481   22.3027   38.6393 C   0  0  0  0  0  0  0  0  0  0  0  0
   16.4161   22.3355   38.8531 C   0  0  0  0  0  0  0  0  0  0  0  0
   18.7929   23.0662   45.4656 C   0  0  0  0  0  0  0  0  0  0  0  0
   17.5376   23.1520   46.1637 O   0  0  0  0  0  0  0  0  0  0  0  0
   18.5580   22.9190   44.0504 O   0  0  0  0  0  0  0  0  0  0  0  0
   18.3869   22.1370   37.3376 O   0  0  0  0  0  0  0  0  0  0  0  0
   19.3155   22.1176   37.2139 H   0  0  0  0  0  0  0  0  0  0  0  0
   12.8753   23.1708   44.6652 C   0  0  0  0  0  0  0  0  0  0  0  0
   12.0045   22.3017   44.6539 O   0  0  0  0  0  0  0  0  0  0  0  0
   12.4982   23.9927   45.4929 O   0  0  0  0  0  0  0  0  0  0  0  0
   13.0171   24.7530   45.6682 H   0  0  0  0  0  0  0  0  0  0  0  0
   11.9431   24.0865   41.4348 O   0  0  0  0  0  0  0  0  0  0  0  0
   11.9954   22.0116   41.2964 O   0  0  0  0  0  0  0  0  0  0  0  0
   12.3984   23.1362   41.6029 N   0  0  0  0  0  0  0  0  0  0  0  0
   14.7514   21.0555   36.9175 C   0  0  0  0  0  0  0  0  0  0  0  0
   15.5247   21.7909   37.9540 O   0  0  0  0  0  0  0  0  0  0  0  0
  1  2  2  0  0  0
  1  6  1  0  0  0
  1 20  1  0  0  0
  2  3  1  0  0  0
  3  4  2  0  0  0
  3 16  1  0  0  0
  4  5  1  0  0  0
  4 17  1  0  0  0
  5  6  2  0  0  0
  5  7  1  0  0  0
  6 10  1  0  0  0
  7  8  2  0  0  0
  7 11  1  0  0  0
  8  9  1  0  0  0
  8 14  1  0  0  0
  9 10  2  0  0  0
 10 26  1  0  0  0
 11 12  2  0  0  0
 12 13  1  0  0  0
 13 14  2  0  0  0
 13 18  1  0  0  0
 14 28  1  0  0  0
 15 16  1  0  0  0
 15 17  1  0  0  0
 20 21  2  0  0  0
 20 22  1  0  0  0
 27 28  1  0  0  0
 24 26  2  0  0  0
 25 26  1  0  0  0
 22 23  1  0  0  0
 18 19  1  0  0  0
M  CHG 1  25  -1
M  CHG 1  26   1
M  END
> <minimizedAffinity>
-7.06913

$$$$
1FV0_9AR_A_401


 28 31  0  0  0  0  0  0  0  0999 V2000
   17.2301   23.1686   45.8919 C   0  0  0  0  0  0  0  0  0  0  0  0
   18.5988   23.1874   46.2338 C   0  0  0  0  0  0  0  0  0  0  0  0
   19.6022   23.1326   45.2740 C   0  0  0  0  0  0  0  0  0  0  0  0
   19.3021   23.0550   43.8928 C   0  0  0  0  0  0  0  0  0  0  0  0
   17.9004   23.0303   43.4206 C   0  0  0  0  0  0  0  0  0  0  0  0
   16.8303   23.0954   44.4775 C   0  0  0  0  0  0  0  0  0  0  0  0
   17.5190   22.9450   42.0158 C   0  0  0  0  0  0  0  0  0  0  0  0
   16.0799   22.9100   41.6671 C   0  0  0  0  0  0  0  0  0  0  0  0
   15.1126   22.9747   42.6957 C   0  0  0  0  0  0  0  0  0  0  0  0
   15.4466   23.0796   44.0636 C   0  0  0  0  0  0  0  0  0  0  0  0
   18.4539   22.8806   40.9209 C   0  0  0  0  0  0  0  0  0  0  0  0
   18.0371   22.7892   39.5911 C   0  0  0  0  0  0  0  0  0  0  0  0
   16.6780   22.7510   39.2697 C   0  0  0  0  0  0  0  0  0  0  0  0
   15.6559   22.8089   40.2941 C   0  0  0  0  0  0  0  0  0  0  0  0
   21.5256   23.0648   44.2170 C   0  0  0  0  0  0  0  0  0  0  0  0
   20.9356   23.1409   45.5271 O   0  0  0  0  0  0  0  0  0  0  0  0
   20.4900   23.0119   43.2149 O   0  0  0  0  0  0  0  0  0  0  0  0
   16.3301   22.6518   37.8981 O   0  0  0  0  0  0  0  0  0  0  0  0
   17.0018   22.6152   37.2459 H   0  0  0  0  0  0  0  0  0  0  0  0
   16.3027   23.3775   47.0966 C   0  0  0  0  0  0  0  0  0  0  0  0
   15.3794   22.6360   47.4305 O   0  0  0  0  0  0  0  0  0  0  0  0
   16.6364   23.9576   48.1237 O   0  0  0  0  0  0  0  0  0  0  0  0
   17.3349   24.5818   48.1034 H   0  0  0  0  0  0  0  0  0  0  0  0
   13.8773   24.4704   45.4007 O   0  0  0  0  0  0  0  0  0  0  0  0
   13.3376   22.7129   44.4276 O   0  0  0  0  0  0  0  0  0  0  0  0
   14.1033   23.5453   44.9192 N   0  0  0  0  0  0  0  0  0  0  0  0
   13.0347   21.7007   40.0547 C   0  0  0  0  0  0  0  0  0  0  0  0
   14.3753   22.3451   40.0836 O   0  0  0  0  0  0  0  0  0  0  0  0
  1  2  2  0  0  0
  1  6  1  0  0  0
  1 20  1  0  0  0
  2  3  1  0  0  0
  3  4  2  0  0  0
  3 16  1  0  0  0
  4  5  1  0  0  0
  4 17  1  0  0  0
  5  6  2  0  0  0
  5  7  1  0  0  0
  6 10  1  0  0  0
  7  8  2  0  0  0
  7 11  1  0  0  0
  8  9  1  0  0  0
  8 14  1  0  0  0
  9 10  2  0  0  0
 10 26  1  0  0  0
 11 12  2  0  0  0
 12 13  1  0  0  0
 13 14  2  0  0  0
 13 18  1  0  0  0
 14 28  1  0  0  0
 15 16  1  0  0  0
 15 17  1  0  0  0
 20 21  2  0  0  0
 20 22  1  0  0  0
 27 28  1  0  0  0
 24 26  2  0  0  0
 25 26  1  0  0  0
 22 23  1  0  0  0
 18 19  1  0  0  0
M  CHG 1  25  -1
M  CHG 1  26   1
M  END
> <minimizedAffinity>
-7.00928

$$$$
1FV0_9AR_A_401


 28 31  0  0  0  0  0  0  0  0999 V2000
   17.8172   22.9861   45.1417 C   0  0  0  0  0  0  0  0  0  0  0  0
   17.4129   22.9287   46.4922 C   0  0  0  0  0  0  0  0  0  0  0  0
   16.0741   22.8978   46.8633 C   0  0  0  0  0  0  0  0  0  0  0  0
   15.0378   22.9219   45.8991 C   0  0  0  0  0  0  0  0  0  0  0  0
   15.3469   22.9803   44.4537 C   0  0  0  0  0  0  0  0  0  0  0  0
   16.8036   23.0081   44.0749 C   0  0  0  0  0  0  0  0  0  0  0  0
   14.3314   23.0141   43.4078 C   0  0  0  0  0  0  0  0  0  0  0  0
   14.7648   23.0902   41.9934 C   0  0  0  0  0  0  0  0  0  0  0  0
   16.1448   23.1129   41.6885 C   0  0  0  0  0  0  0  0  0  0  0  0
   17.1540   23.0597   42.6746 C   0  0  0  0  0  0  0  0  0  0  0  0
   12.9112   22.9892   43.6509 C   0  0  0  0  0  0  0  0  0  0  0  0
   11.9777   23.0342   42.6130 C   0  0  0  0  0  0  0  0  0  0  0  0
   12.3936   23.1115   41.2814 C   0  0  0  0  0  0  0  0  0  0  0  0
   13.7975   23.1430   40.9274 C   0  0  0  0  0  0  0  0  0  0  0  0
   14.1814   22.8385   47.9749 C   0  0  0  0  0  0  0  0  0  0  0  0
   15.6110   22.8482   48.1380 O   0  0  0  0  0  0  0  0  0  0  0  0
   13.8474   22.8853   46.5729 O   0  0  0  0  0  0  0  0  0  0  0  0
   11.3887   23.1596   40.2815 O   0  0  0  0  0  0  0  0  0  0  0  0
   10.4841   23.1384   40.5249 H   0  0  0  0  0  0  0  0  0  0  0  0
   19.3366   22.8716   44.9597 C   0  0  0  0  0  0  0  0  0  0  0  0
   19.9613   21.8294   44.7666 O   0  0  0  0  0  0  0  0  0  0  0  0
   20.0369   23.7586   44.4845 O   0  0  0  0  0  0  0  0  0  0  0  0
   19.7518   24.6504   44.5203 H   0  0  0  0  0  0  0  0  0  0  0  0
   18.9136   21.8053   41.4437 O   0  0  0  0  0  0  0  0  0  0  0  0
   18.9742   23.8543   41.7969 O   0  0  0  0  0  0  0  0  0  0  0  0
   18.6021   22.6891   41.9541 N   0  0  0  0  0  0  0  0  0  0  0  0
   14.9299   24.0629   38.4722 C   0  0  0  0  0  0  0  0  0  0  0  0
   14.2423   23.6473   39.7243 O   0  0  0  0  0  0  0  0  0  0  0  0
  1  2  2  0  0  0
  1  6  1  0  0  0
  1 20  1  0  0  0
  2  3  1  0  0  0
  3  4  2  0  0  0
  3 16  1  0  0  0
  4  5  1  0  0  0
  4 17  1  0  0  0
  5  6  2  0  0  0
  5  7  1  0  0  0
  6 10  1  0  0  0
  7  8  2  0  0  0
  7 11  1  0  0  0
  8  9  1  0  0  0
  8 14  1  0  0  0
  9 10  2  0  0  0
 10 26  1  0  0  0
 11 12  2  0  0  0
 12 13  1  0  0  0
 13 14  2  0  0  0
 13 18  1  0  0  0
 14 28  1  0  0  0
 15 16  1  0  0  0
 15 17  1  0  0  0
 20 21  2  0  0  0
 20 22  1  0  0  0
 27 28  1  0  0  0
 24 26  2  0  0  0
 25 26  1  0  0  0
 22 23  1  0  0  0
 18 19  1  0  0  0
M  CHG 1  25  -1
M  CHG 1  26   1
M  END
> <minimizedAffinity>
-6.87400

$$$$
1FV0_9AR_A_401


 28 31  0  0  0  0  0  0  0  0999 V2000
   14.7851   23.2229   41.6356 C   0  0  0  0  0  0  0  0  0  0  0  0
   13.6749   22.3999   41.9198 C   0  0  0  0  0  0  0  0  0  0  0  0
   13.1563   21.5089   40.9880 C   0  0  0  0  0  0  0  0  0  0  0  0
   13.7188   21.3786   39.6954 C   0  0  0  0  0  0  0  0  0  0  0  0
   14.8863   22.1914   39.2900 C   0  0  0  0  0  0  0  0  0  0  0  0
   15.4342   23.1461   40.3170 C   0  0  0  0  0  0  0  0  0  0  0  0
   15.5116   22.1136   37.9750 C   0  0  0  0  0  0  0  0  0  0  0  0
   16.6668   22.9926   37.6802 C   0  0  0  0  0  0  0  0  0  0  0  0
   17.1453   23.8717   38.6782 C   0  0  0  0  0  0  0  0  0  0  0  0
   16.5775   23.9569   39.9682 C   0  0  0  0  0  0  0  0  0  0  0  0
   15.0762   21.2373   36.9171 C   0  0  0  0  0  0  0  0  0  0  0  0
   15.7035   21.2080   35.6696 C   0  0  0  0  0  0  0  0  0  0  0  0
   16.7892   22.0438   35.3965 C   0  0  0  0  0  0  0  0  0  0  0  0
   17.3058   22.9628   36.3894 C   0  0  0  0  0  0  0  0  0  0  0  0
   11.9669   19.9921   39.9363 C   0  0  0  0  0  0  0  0  0  0  0  0
   12.0909   20.6921   41.1873 O   0  0  0  0  0  0  0  0  0  0  0  0
   12.9904   20.4358   39.0224 O   0  0  0  0  0  0  0  0  0  0  0  0
   17.3717   21.9628   34.1057 O   0  0  0  0  0  0  0  0  0  0  0  0
   17.0273   21.3636   33.4730 H   0  0  0  0  0  0  0  0  0  0  0  0
   15.2713   24.0239   42.8509 C   0  0  0  0  0  0  0  0  0  0  0  0
   14.5674   24.7191   43.5823 O   0  0  0  0  0  0  0  0  0  0  0  0
   16.2331   23.7038   43.5404 O   0  0  0  0  0  0  0  0  0  0  0  0
   16.9088   23.1639   43.1801 H   0  0  0  0  0  0  0  0  0  0  0  0
   18.4922   24.4059   41.4905 O   0  0  0  0  0  0  0  0  0  0  0  0
   17.3699   25.8899   40.5602 O   0  0  0  0  0  0  0  0  0  0  0  0
   17.6266   24.7570   40.9744 N   0  0  0  0  0  0  0  0  0  0  0  0
   18.7536   25.2398   35.4541 C   0  0  0  0  0  0  0  0  0  0  0  0
   18.0463   24.0743   36.0494 O   0  0  0  0  0  0  0  0  0  0  0  0
  1  2  2  0  0  0
  1  6  1  0  0  0
  1 20  1  0  0  0
  2  3  1  0  0  0
  3  4  2  0  0  0
  3 16  1  0  0  0
  4  5  1  0  0  0
  4 17  1  0  0  0
  5  6  2  0  0  0
  5  7  1  0  0  0
  6 10  1  0  0  0
  7  8  2  0  0  0
  7 11  1  0  0  0
  8  9  1  0  0  0
  8 14  1  0  0  0
  9 10  2  0  0  0
 10 26  1  0  0  0
 11 12  2  0  0  0
 12 13  1  0  0  0
 13 14  2  0  0  0
 13 18  1  0  0  0
 14 28  1  0  0  0
 15 16  1  0  0  0
 15 17  1  0  0  0
 20 21  2  0  0  0
 20 22  1  0  0  0
 27 28  1  0  0  0
 24 26  2  0  0  0
 25 26  1  0  0  0
 22 23  1  0  0  0
 18 19  1  0  0  0
M  CHG 1  25  -1
M  CHG 1  26   1
M  END
> <minimizedAffinity>
-6.62267

$$$$
1FV0_9AR_A_401


 28 31  0  0  0  0  0  0  0  0999 V2000
   15.9357   23.8074   40.9525 C   0  0  0  0  0  0  0  0  0  0  0  0
   15.2289   24.0636   42.1463 C   0  0  0  0  0  0  0  0  0  0  0  0
   14.0259   23.4346   42.4437 C   0  0  0  0  0  0  0  0  0  0  0  0
   13.4423   22.4967   41.5584 C   0  0  0  0  0  0  0  0  0  0  0  0
   14.0979   22.1511   40.2782 C   0  0  0  0  0  0  0  0  0  0  0  0
   15.4022   22.8408   39.9794 C   0  0  0  0  0  0  0  0  0  0  0  0
   13.5509   21.2001   39.3176 C   0  0  0  0  0  0  0  0  0  0  0  0
   14.2919   20.9492   38.0598 C   0  0  0  0  0  0  0  0  0  0  0  0
   15.5132   21.6210   37.8254 C   0  0  0  0  0  0  0  0  0  0  0  0
   16.0819   22.5309   38.7432 C   0  0  0  0  0  0  0  0  0  0  0  0
   12.3156   20.4802   39.4978 C   0  0  0  0  0  0  0  0  0  0  0  0
   11.8289   19.5866   38.5412 C   0  0  0  0  0  0  0  0  0  0  0  0
   12.5302   19.3588   37.3545 C   0  0  0  0  0  0  0  0  0  0  0  0
   13.7817   20.0313   37.0738 C   0  0  0  0  0  0  0  0  0  0  0  0
   12.1590   22.7622   43.3839 C   0  0  0  0  0  0  0  0  0  0  0  0
   13.2891   23.6341   43.5658 O   0  0  0  0  0  0  0  0  0  0  0  0
   12.2752   22.0644   42.1272 O   0  0  0  0  0  0  0  0  0  0  0  0
   11.9716   18.4421   36.4273 O   0  0  0  0  0  0  0  0  0  0  0  0
   11.1611   18.0141   36.6220 H   0  0  0  0  0  0  0  0  0  0  0  0
   17.3015   24.5048   40.8966 C   0  0  0  0  0  0  0  0  0  0  0  0
   17.4906   25.6986   40.6669 O   0  0  0  0  0  0  0  0  0  0  0  0
   18.2811   24.1421   41.5383 O   0  0  0  0  0  0  0  0  0  0  0  0
   18.3502   23.2528   41.8252 H   0  0  0  0  0  0  0  0  0  0  0  0
   18.5238   22.1610   38.4511 O   0  0  0  0  0  0  0  0  0  0  0  0
   17.4522   23.6711   37.5033 O   0  0  0  0  0  0  0  0  0  0  0  0
   17.6703   22.7917   38.3401 N   0  0  0  0  0  0  0  0  0  0  0  0
   14.5489   20.3739   34.3442 C   0  0  0  0  0  0  0  0  0  0  0  0
   14.2652   20.1820   35.7920 O   0  0  0  0  0  0  0  0  0  0  0  0
  1  2  2  0  0  0
  1  6  1  0  0  0
  1 20  1  0  0  0
  2  3  1  0  0  0
  3  4  2  0  0  0
  3 16  1  0  0  0
  4  5  1  0  0  0
  4 17  1  0  0  0
  5  6  2  0  0  0
  5  7  1  0  0  0
  6 10  1  0  0  0
  7  8  2  0  0  0
  7 11  1  0  0  0
  8  9  1  0  0  0
  8 14  1  0  0  0
  9 10  2  0  0  0
 10 26  1  0  0  0
 11 12  2  0  0  0
 12 13  1  0  0  0
 13 14  2  0  0  0
 13 18  1  0  0  0
 14 28  1  0  0  0
 15 16  1  0  0  0
 15 17  1  0  0  0
 20 21  2  0  0  0
 20 22  1  0  0  0
 27 28  1  0  0  0
 24 26  2  0  0  0
 25 26  1  0  0  0
 22 23  1  0  0  0
 18 19  1  0  0  0
M  CHG 1  25  -1
M  CHG 1  26   1
M  END
> <minimizedAffinity>
-6.44679

$$$$
1FV0_9AR_A_401


 28 31  0  0  0  0  0  0  0  0999 V2000
   16.1389   21.7057   36.7174 C   0  0  0  0  0  0  0  0  0  0  0  0
   15.5168   20.7493   35.8874 C   0  0  0  0  0  0  0  0  0  0  0  0
   14.3778   20.0571   36.2805 C   0  0  0  0  0  0  0  0  0  0  0  0
   13.7769   20.2769   37.5433 C   0  0  0  0  0  0  0  0  0  0  0  0
   14.3443   21.2582   38.4937 C   0  0  0  0  0  0  0  0  0  0  0  0
   15.5751   21.9996   38.0447 C   0  0  0  0  0  0  0  0  0  0  0  0
   13.7818   21.5302   39.8112 C   0  0  0  0  0  0  0  0  0  0  0  0
   14.4505   22.5244   40.6821 C   0  0  0  0  0  0  0  0  0  0  0  0
   15.6036   23.1953   40.2149 C   0  0  0  0  0  0  0  0  0  0  0  0
   16.1617   22.9721   38.9372 C   0  0  0  0  0  0  0  0  0  0  0  0
   12.6085   20.8854   40.3444 C   0  0  0  0  0  0  0  0  0  0  0  0
   12.1151   21.1740   41.6187 C   0  0  0  0  0  0  0  0  0  0  0  0
   12.7541   22.1089   42.4370 C   0  0  0  0  0  0  0  0  0  0  0  0
   13.9409   22.8132   41.9981 C   0  0  0  0  0  0  0  0  0  0  0  0
   12.6400   18.7193   36.3896 C   0  0  0  0  0  0  0  0  0  0  0  0
   13.7297   19.1220   35.5406 O   0  0  0  0  0  0  0  0  0  0  0  0
   12.6894   19.4510   37.6312 O   0  0  0  0  0  0  0  0  0  0  0  0
   12.1991   22.3459   43.7207 O   0  0  0  0  0  0  0  0  0  0  0  0
   11.4307   21.8831   43.9916 H   0  0  0  0  0  0  0  0  0  0  0  0
   17.2950   22.4436   36.0291 C   0  0  0  0  0  0  0  0  0  0  0  0
   18.3807   21.9524   35.7229 O   0  0  0  0  0  0  0  0  0  0  0  0
   17.1433   23.3897   35.2644 O   0  0  0  0  0  0  0  0  0  0  0  0
   16.3706   23.9169   35.3189 H   0  0  0  0  0  0  0  0  0  0  0  0
   17.1298   25.0118   37.8945 O   0  0  0  0  0  0  0  0  0  0  0  0
   17.8576   24.1349   39.6348 O   0  0  0  0  0  0  0  0  0  0  0  0
   17.2193   24.2002   38.5815 N   0  0  0  0  0  0  0  0  0  0  0  0
   15.8939   23.7744   43.8469 C   0  0  0  0  0  0  0  0  0  0  0  0
   14.8289   23.3834   42.8846 O   0  0  0  0  0  0  0  0  0  0  0  0
  1  2  2  0  0  0
  1  6  1  0  0  0
  1 20  1  0  0  0
  2  3  1  0  0  0
  3  4  2  0  0  0
  3 16  1  0  0  0
  4  5  1  0  0  0
  4 17  1  0  0  0
  5  6  2  0  0  0
  5  7  1  0  0  0
  6 10  1  0  0  0
  7  8  2  0  0  0
  7 11  1  0  0  0
  8  9  1  0  0  0
  8 14  1  0  0  0
  9 10  2  0  0  0
 10 26  1  0  0  0
 11 12  2  0  0  0
 12 13  1  0  0  0
 13 14  2  0  0  0
 13 18  1  0  0  0
 14 28  1  0  0  0
 15 16  1  0  0  0
 15 17  1  0  0  0
 20 21  2  0  0  0
 20 22  1  0  0  0
 27 28  1  0  0  0
 24 26  2  0  0  0
 25 26  1  0  0  0
 22 23  1  0  0  0
 18 19  1  0  0  0
M  CHG 1  25  -1
M  CHG 1  26   1
M  END
> <minimizedAffinity>
-6.24625

$$$$
1FV0_9AR_A_401


 28 31  0  0  0  0  0  0  0  0999 V2000
   13.1419   22.7778   43.2491 C   0  0  0  0  0  0  0  0  0  0  0  0
   12.7120   22.8028   44.5927 C   0  0  0  0  0  0  0  0  0  0  0  0
   13.6049   22.8900   45.6540 C   0  0  0  0  0  0  0  0  0  0  0  0
   15.0028   22.9593   45.4416 C   0  0  0  0  0  0  0  0  0  0  0  0
   15.5647   22.9421   44.0733 C   0  0  0  0  0  0  0  0  0  0  0  0
   14.5787   22.8520   42.9392 C   0  0  0  0  0  0  0  0  0  0  0  0
   16.9920   23.0039   43.7817 C   0  0  0  0  0  0  0  0  0  0  0  0
   17.4350   22.9612   42.3689 C   0  0  0  0  0  0  0  0  0  0  0  0
   16.4705   22.8773   41.3391 C   0  0  0  0  0  0  0  0  0  0  0  0
   15.0806   22.8377   41.5850 C   0  0  0  0  0  0  0  0  0  0  0  0
   18.0244   23.0945   44.7831 C   0  0  0  0  0  0  0  0  0  0  0  0
   19.3804   23.1404   44.4519 C   0  0  0  0  0  0  0  0  0  0  0  0
   19.7914   23.0942   43.1174 C   0  0  0  0  0  0  0  0  0  0  0  0
   18.8354   23.0022   42.0335 C   0  0  0  0  0  0  0  0  0  0  0  0
   14.5360   23.0055   47.6392 C   0  0  0  0  0  0  0  0  0  0  0  0
   13.2666   22.9134   46.9681 O   0  0  0  0  0  0  0  0  0  0  0  0
   15.6028   23.0322   46.6692 O   0  0  0  0  0  0  0  0  0  0  0  0
   21.1852   23.1394   42.8577 O   0  0  0  0  0  0  0  0  0  0  0  0
   21.7925   23.1989   43.5687 H   0  0  0  0  0  0  0  0  0  0  0  0
   11.9842   22.8185   42.2427 C   0  0  0  0  0  0  0  0  0  0  0  0
   11.5520   23.8259   41.6841 O   0  0  0  0  0  0  0  0  0  0  0  0
   11.6915   21.8885   41.4994 O   0  0  0  0  0  0  0  0  0  0  0  0
   11.9277   21.0118   41.7307 H   0  0  0  0  0  0  0  0  0  0  0  0
   14.2403   24.0443   39.5793 O   0  0  0  0  0  0  0  0  0  0  0  0
   14.1246   21.9829   39.8327 O   0  0  0  0  0  0  0  0  0  0  0  0
   14.2676   23.1592   40.1747 N   0  0  0  0  0  0  0  0  0  0  0  0
   19.3709   21.8375   39.4815 C   0  0  0  0  0  0  0  0  0  0  0  0
   19.1786   22.5233   40.7876 O   0  0  0  0  0  0  0  0  0  0  0  0
  1  2  2  0  0  0
  1  6  1  0  0  0
  1 20  1  0  0  0
  2  3  1  0  0  0
  3  4  2  0  0  0
  3 16  1  0  0  0
  4  5  1  0  0  0
  4 17  1  0  0  0
  5  6  2  0  0  0
  5  7  1  0  0  0
  6 10  1  0  0  0
  7  8  2  0  0  0
  7 11  1  0  0  0
  8  9  1  0  0  0
  8 14  1  0  0  0
  9 10  2  0  0  0
 10 26  1  0  0  0
 11 12  2  0  0  0
 12 13  1  0  0  0
 13 14  2  0  0  0
 13 18  1  0  0  0
 14 28  1  0  0  0
 15 16  1  0  0  0
 15 17  1  0  0  0
 20 21  2  0  0  0
 20 22  1  0  0  0
 27 28  1  0  0  0
 24 26  2  0  0  0
 25 26  1  0  0  0
 22 23  1  0  0  0
 18 19  1  0  0  0
M  CHG 1  25  -1
M  CHG 1  26   1
M  END
> <minimizedAffinity>
-6.06945

$$$$
