3TTP_017_A_201


 42 45  0  0  0  0  0  0  0  0999 V2000
  -10.3200   16.8758   28.0545 C   0  0  0  0  0  0  0  0  0  0  0  0
  -11.1208   18.0530   27.9703 O   0  0  0  0  0  0  0  0  0  0  0  0
  -11.5624   18.2051   28.8204 H   0  0  0  0  0  0  0  0  0  0  0  0
  -11.2040   15.6461   28.3100 C   0  0  0  0  0  0  0  0  0  0  0  0
  -11.8263   15.2709   27.0306 N   0  0  0  0  0  0  0  0  0  0  0  0
  -10.9054   14.2196   26.1880 S   0  0  0  0  0  0  0  0  0  0  0  0
  -11.7165   13.5057   25.2471 O   0  0  0  0  0  0  0  0  0  0  0  0
  -10.3324   13.2607   27.0882 O   0  0  0  0  0  0  0  0  0  0  0  0
   -6.5002   16.5771   23.4122 N   0  0  0  0  0  0  0  0  0  0  0  0
   -7.5680   16.0467   24.0511 C   0  0  0  0  0  0  0  0  0  0  0  0
   -7.3427   15.0696   24.9996 C   0  0  0  0  0  0  0  0  0  0  0  0
   -8.4054   14.4988   25.6712 C   0  0  0  0  0  0  0  0  0  0  0  0
   -9.7096   14.9062   25.3968 C   0  0  0  0  0  0  0  0  0  0  0  0
   -9.9482   15.8953   24.4463 C   0  0  0  0  0  0  0  0  0  0  0  0
   -8.8697   16.4768   23.7713 C   0  0  0  0  0  0  0  0  0  0  0  0
   -5.5925   16.2602   23.6240 H   0  0  0  0  0  0  0  0  0  0  0  0
   -6.6308   17.2801   22.7355 H   0  0  0  0  0  0  0  0  0  0  0  0
  -13.2213   14.8297   27.2420 C   0  0  0  0  0  0  0  0  0  0  0  0
  -13.3438   13.8240   28.3952 C   0  0  0  0  0  0  0  0  0  0  0  0
  -14.3073   14.2718   29.4928 C   0  0  0  0  0  0  0  0  0  0  0  0
  -13.7855   12.4666   27.8654 C   0  0  0  0  0  0  0  0  0  0  0  0
   -9.2022   17.0568   29.0886 C   0  0  0  0  0  0  0  0  0  0  0  0
   -9.7354   16.5428   30.3441 N   0  0  0  0  0  0  0  0  0  0  0  0
   -9.4851   15.3399   30.8720 C   0  0  0  0  0  0  0  0  0  0  0  0
   -8.7680   14.4706   30.4015 O   0  0  0  0  0  0  0  0  0  0  0  0
  -10.3357   17.1365   30.8505 H   0  0  0  0  0  0  0  0  0  0  0  0
  -10.1391   15.0700   32.1342 O   0  0  0  0  0  0  0  0  0  0  0  0
   -9.3246   15.0195   33.2879 C   0  0  0  0  0  0  0  0  0  0  0  0
   -9.3105   16.4533   33.7527 C   0  0  0  0  0  0  0  0  0  0  0  0
  -10.4636   16.5820   34.6024 O   0  0  0  0  0  0  0  0  0  0  0  0
  -11.0551   15.3087   34.8763 C   0  0  0  0  0  0  0  0  0  0  0  0
  -12.2843   15.0984   34.1557 O   0  0  0  0  0  0  0  0  0  0  0  0
  -12.3596   13.7770   33.5905 C   0  0  0  0  0  0  0  0  0  0  0  0
  -10.9850   13.1349   33.8744 C   0  0  0  0  0  0  0  0  0  0  0  0
  -10.0902   14.2703   34.3626 C   0  0  0  0  0  0  0  0  0  0  0  0
   -7.9719   16.1990   28.7981 C   0  0  0  0  0  0  0  0  0  0  0  0
   -5.5780   16.9685   28.7079 C   0  0  0  0  0  0  0  0  0  0  0  0
   -4.5708   17.7816   28.1858 C   0  0  0  0  0  0  0  0  0  0  0  0
   -4.8736   18.7148   27.2024 C   0  0  0  0  0  0  0  0  0  0  0  0
   -6.1789   18.8300   26.7321 C   0  0  0  0  0  0  0  0  0  0  0  0
   -7.1836   18.0111   27.2390 C   0  0  0  0  0  0  0  0  0  0  0  0
   -6.8859   17.0827   28.2358 C   0  0  0  0  0  0  0  0  0  0  0  0
  9 10  1  0  0  0
 10 11  2  0  0  0
 10 15  1  0  0  0
 11 12  1  0  0  0
 12 13  2  0  0  0
 13 14  1  0  0  0
 13  6  1  0  0  0
 14 15  2  0  0  0
  6  7  2  0  0  0
  6  8  2  0  0  0
  6  5  1  0  0  0
  5 18  1  0  0  0
  5  4  1  0  0  0
 18 19  1  0  0  0
 19 20  1  0  0  0
 19 21  1  0  0  0
  4  1  1  0  0  0
  1  2  1  0  0  0
  1 22  1  0  0  0
 22 23  1  0  0  0
 22 36  1  0  0  0
 23 24  1  0  0  0
 24 25  2  0  0  0
 24 27  1  0  0  0
 27 28  1  0  0  0
 28 29  1  0  0  0
 28 35  1  0  0  0
 29 30  1  0  0  0
 30 31  1  0  0  0
 31 32  1  0  0  0
 31 35  1  0  0  0
 32 33  1  0  0  0
 33 34  1  0  0  0
 34 35  1  0  0  0
 36 42  1  0  0  0
 37 38  2  0  0  0
 37 42  1  0  0  0
 38 39  1  0  0  0
 39 40  2  0  0  0
 40 41  1  0  0  0
 41 42  2  0  0  0
  9 16  1  0  0  0
  9 17  1  0  0  0
  2  3  1  0  0  0
 23 26  1  0  0  0
M  END
> <minimizedAffinity>
-10.78053

$$$$
3TTP_017_A_201


 42 45  0  0  0  0  0  0  0  0999 V2000
   -9.3763   17.3354   26.2790 C   0  0  0  0  0  0  0  0  0  0  0  0
  -10.0623   18.5776   26.4227 O   0  0  0  0  0  0  0  0  0  0  0  0
  -10.0231   19.0673   25.5863 H   0  0  0  0  0  0  0  0  0  0  0  0
   -7.8880   17.5783   25.9880 C   0  0  0  0  0  0  0  0  0  0  0  0
   -7.2291   17.8905   27.2660 N   0  0  0  0  0  0  0  0  0  0  0  0
   -6.8065   16.5415   28.0814 S   0  0  0  0  0  0  0  0  0  0  0  0
   -5.7452   16.8373   28.9974 O   0  0  0  0  0  0  0  0  0  0  0  0
   -6.3243   15.5570   27.1560 O   0  0  0  0  0  0  0  0  0  0  0  0
  -11.0660   14.0313   30.9492 N   0  0  0  0  0  0  0  0  0  0  0  0
  -10.0683   14.6615   30.2880 C   0  0  0  0  0  0  0  0  0  0  0  0
   -9.3581   13.9484   29.3435 C   0  0  0  0  0  0  0  0  0  0  0  0
   -8.3288   14.5529   28.6497 C   0  0  0  0  0  0  0  0  0  0  0  0
   -8.0022   15.8848   28.8976 C   0  0  0  0  0  0  0  0  0  0  0  0
   -8.7159   16.6156   29.8439 C   0  0  0  0  0  0  0  0  0  0  0  0
   -9.7625   16.0031   30.5413 C   0  0  0  0  0  0  0  0  0  0  0  0
  -11.2649   13.0867   30.7558 H   0  0  0  0  0  0  0  0  0  0  0  0
  -11.5933   14.5173   31.6237 H   0  0  0  0  0  0  0  0  0  0  0  0
   -6.1252   18.8518   27.0592 C   0  0  0  0  0  0  0  0  0  0  0  0
   -5.2622   18.4918   25.8419 C   0  0  0  0  0  0  0  0  0  0  0  0
   -5.1696   19.6136   24.8091 C   0  0  0  0  0  0  0  0  0  0  0  0
   -3.8584   18.1054   26.2875 C   0  0  0  0  0  0  0  0  0  0  0  0
  -10.0722   16.4527   25.2358 C   0  0  0  0  0  0  0  0  0  0  0  0
   -9.3202   16.6303   23.9999 N   0  0  0  0  0  0  0  0  0  0  0  0
   -8.3697   15.8139   23.5323 C   0  0  0  0  0  0  0  0  0  0  0  0
   -7.9724   14.7826   24.0517 O   0  0  0  0  0  0  0  0  0  0  0  0
   -9.5316   17.4253   23.4589 H   0  0  0  0  0  0  0  0  0  0  0  0
   -7.7728   16.2146   22.2767 O   0  0  0  0  0  0  0  0  0  0  0  0
   -8.2256   15.5634   21.1071 C   0  0  0  0  0  0  0  0  0  0  0  0
   -9.4984   16.3025   20.7820 C   0  0  0  0  0  0  0  0  0  0  0  0
   -9.0867   17.4174   19.9722 O   0  0  0  0  0  0  0  0  0  0  0  0
   -7.7129   17.3054   19.5894 C   0  0  0  0  0  0  0  0  0  0  0  0
   -6.8574   18.2118   20.3112 O   0  0  0  0  0  0  0  0  0  0  0  0
   -5.6429   17.5752   20.7483 C   0  0  0  0  0  0  0  0  0  0  0  0
   -5.8080   16.0864   20.3762 C   0  0  0  0  0  0  0  0  0  0  0  0
   -7.2722   15.9179   19.9812 C   0  0  0  0  0  0  0  0  0  0  0  0
   -9.9735   14.9611   25.5507 C   0  0  0  0  0  0  0  0  0  0  0  0
  -11.8937   13.3373   25.6340 C   0  0  0  0  0  0  0  0  0  0  0  0
  -13.1101   12.9037   26.1638 C   0  0  0  0  0  0  0  0  0  0  0  0
  -13.7276   13.6352   27.1703 C   0  0  0  0  0  0  0  0  0  0  0  0
  -13.1271   14.7936   27.6559 C   0  0  0  0  0  0  0  0  0  0  0  0
  -11.9069   15.2217   27.1412 C   0  0  0  0  0  0  0  0  0  0  0  0
  -11.2909   14.4973   26.1214 C   0  0  0  0  0  0  0  0  0  0  0  0
  9 10  1  0  0  0
 10 11  2  0  0  0
 10 15  1  0  0  0
 11 12  1  0  0  0
 12 13  2  0  0  0
 13 14  1  0  0  0
 13  6  1  0  0  0
 14 15  2  0  0  0
  6  7  2  0  0  0
  6  8  2  0  0  0
  6  5  1  0  0  0
  5 18  1  0  0  0
  5  4  1  0  0  0
 18 19  1  0  0  0
 19 20  1  0  0  0
 19 21  1  0  0  0
  4  1  1  0  0  0
  1  2  1  0  0  0
  1 22  1  0  0  0
 22 23  1  0  0  0
 22 36  1  0  0  0
 23 24  1  0  0  0
 24 25  2  0  0  0
 24 27  1  0  0  0
 27 28  1  0  0  0
 28 29  1  0  0  0
 28 35  1  0  0  0
 29 30  1  0  0  0
 30 31  1  0  0  0
 31 32  1  0  0  0
 31 35  1  0  0  0
 32 33  1  0  0  0
 33 34  1  0  0  0
 34 35  1  0  0  0
 36 42  1  0  0  0
 37 38  2  0  0  0
 37 42  1  0  0  0
 38 39  1  0  0  0
 39 40  2  0  0  0
 40 41  1  0  0  0
 41 42  2  0  0  0
  9 16  1  0  0  0
  9 17  1  0  0  0
  2  3  1  0  0  0
 23 26  1  0  0  0
M  END
> <minimizedAffinity>
-10.45754

$$$$
3TTP_017_A_201


 42 45  0  0  0  0  0  0  0  0999 V2000
   -9.1527   16.9006   28.4989 C   0  0  0  0  0  0  0  0  0  0  0  0
   -9.5326   17.9370   27.5957 O   0  0  0  0  0  0  0  0  0  0  0  0
   -9.5614   17.5844   26.6925 H   0  0  0  0  0  0  0  0  0  0  0  0
   -7.7330   16.4088   28.1800 C   0  0  0  0  0  0  0  0  0  0  0  0
   -7.3466   16.9759   26.8785 N   0  0  0  0  0  0  0  0  0  0  0  0
   -6.1842   18.1115   27.0276 S   0  0  0  0  0  0  0  0  0  0  0  0
   -5.3979   17.8544   28.1975 O   0  0  0  0  0  0  0  0  0  0  0  0
   -6.7946   19.4002   27.1851 O   0  0  0  0  0  0  0  0  0  0  0  0
   -2.5587   18.3160   22.6136 N   0  0  0  0  0  0  0  0  0  0  0  0
   -3.4430   18.2915   23.6369 C   0  0  0  0  0  0  0  0  0  0  0  0
   -3.0562   17.6960   24.8204 C   0  0  0  0  0  0  0  0  0  0  0  0
   -3.9305   17.6456   25.8879 C   0  0  0  0  0  0  0  0  0  0  0  0
   -5.2061   18.1958   25.7772 C   0  0  0  0  0  0  0  0  0  0  0  0
   -5.6048   18.8044   24.5900 C   0  0  0  0  0  0  0  0  0  0  0  0
   -4.7153   18.8601   23.5117 C   0  0  0  0  0  0  0  0  0  0  0  0
   -1.6684   17.9101   22.7226 H   0  0  0  0  0  0  0  0  0  0  0  0
   -2.8054   18.7398   21.7599 H   0  0  0  0  0  0  0  0  0  0  0  0
   -7.0301   15.8987   25.9168 C   0  0  0  0  0  0  0  0  0  0  0  0
   -8.1735   15.6540   24.9222 C   0  0  0  0  0  0  0  0  0  0  0  0
   -8.9605   16.9172   24.5778 C   0  0  0  0  0  0  0  0  0  0  0  0
   -7.6326   15.0368   23.6396 C   0  0  0  0  0  0  0  0  0  0  0  0
  -10.2036   15.7840   28.5111 C   0  0  0  0  0  0  0  0  0  0  0  0
  -10.5267   15.5578   29.9143 N   0  0  0  0  0  0  0  0  0  0  0  0
   -9.9073   14.7048   30.7373 C   0  0  0  0  0  0  0  0  0  0  0  0
   -8.9672   13.9759   30.4611 O   0  0  0  0  0  0  0  0  0  0  0  0
  -11.2700   16.0818   30.2914 H   0  0  0  0  0  0  0  0  0  0  0  0
  -10.4202   14.6673   32.0897 O   0  0  0  0  0  0  0  0  0  0  0  0
   -9.4836   14.7862   33.1412 C   0  0  0  0  0  0  0  0  0  0  0  0
   -9.4345   16.2735   33.3813 C   0  0  0  0  0  0  0  0  0  0  0  0
  -10.4889   16.5348   34.3238 O   0  0  0  0  0  0  0  0  0  0  0  0
  -11.0326   15.3204   34.8489 C   0  0  0  0  0  0  0  0  0  0  0  0
  -12.3310   15.0110   34.3079 O   0  0  0  0  0  0  0  0  0  0  0  0
  -12.4531   13.6201   33.9590 C   0  0  0  0  0  0  0  0  0  0  0  0
  -11.0487   13.0204   34.1829 C   0  0  0  0  0  0  0  0  0  0  0  0
  -10.1184   14.2113   34.3938 C   0  0  0  0  0  0  0  0  0  0  0  0
  -11.5231   16.1954   27.8604 C   0  0  0  0  0  0  0  0  0  0  0  0
  -11.6353   14.3025   26.2065 C   0  0  0  0  0  0  0  0  0  0  0  0
  -12.2505   13.1610   25.6901 C   0  0  0  0  0  0  0  0  0  0  0  0
  -13.4269   12.6901   26.2593 C   0  0  0  0  0  0  0  0  0  0  0  0
  -13.9842   13.3515   27.3503 C   0  0  0  0  0  0  0  0  0  0  0  0
  -13.3664   14.4814   27.8781 C   0  0  0  0  0  0  0  0  0  0  0  0
  -12.1928   14.9647   27.3007 C   0  0  0  0  0  0  0  0  0  0  0  0
  9 10  1  0  0  0
 10 11  2  0  0  0
 10 15  1  0  0  0
 11 12  1  0  0  0
 12 13  2  0  0  0
 13 14  1  0  0  0
 13  6  1  0  0  0
 14 15  2  0  0  0
  6  7  2  0  0  0
  6  8  2  0  0  0
  6  5  1  0  0  0
  5 18  1  0  0  0
  5  4  1  0  0  0
 18 19  1  0  0  0
 19 20  1  0  0  0
 19 21  1  0  0  0
  4  1  1  0  0  0
  1  2  1  0  0  0
  1 22  1  0  0  0
 22 23  1  0  0  0
 22 36  1  0  0  0
 23 24  1  0  0  0
 24 25  2  0  0  0
 24 27  1  0  0  0
 27 28  1  0  0  0
 28 29  1  0  0  0
 28 35  1  0  0  0
 29 30  1  0  0  0
 30 31  1  0  0  0
 31 32  1  0  0  0
 31 35  1  0  0  0
 32 33  1  0  0  0
 33 34  1  0  0  0
 34 35  1  0  0  0
 36 42  1  0  0  0
 37 38  2  0  0  0
 37 42  1  0  0  0
 38 39  1  0  0  0
 39 40  2  0  0  0
 40 41  1  0  0  0
 41 42  2  0  0  0
  9 16  1  0  0  0
  9 17  1  0  0  0
  2  3  1  0  0  0
 23 26  1  0  0  0
M  END
> <minimizedAffinity>
-10.31818

$$$$
3TTP_017_A_201


 42 45  0  0  0  0  0  0  0  0999 V2000
   -9.6256   17.3238   27.4353 C   0  0  0  0  0  0  0  0  0  0  0  0
  -10.7413   18.2043   27.5549 O   0  0  0  0  0  0  0  0  0  0  0  0
  -11.3410   18.0701   26.8044 H   0  0  0  0  0  0  0  0  0  0  0  0
   -8.8186   17.6537   26.1709 C   0  0  0  0  0  0  0  0  0  0  0  0
   -7.4424   17.1787   26.3839 N   0  0  0  0  0  0  0  0  0  0  0  0
   -6.9861   16.0985   25.2488 S   0  0  0  0  0  0  0  0  0  0  0  0
   -7.4033   14.7824   25.6318 O   0  0  0  0  0  0  0  0  0  0  0  0
   -5.5552   16.0915   25.1458 O   0  0  0  0  0  0  0  0  0  0  0  0
   -9.2109   17.1060   20.0812 N   0  0  0  0  0  0  0  0  0  0  0  0
   -8.6522   16.8918   21.2943 C   0  0  0  0  0  0  0  0  0  0  0  0
   -9.2456   15.9703   22.1332 C   0  0  0  0  0  0  0  0  0  0  0  0
   -8.7097   15.7255   23.3820 C   0  0  0  0  0  0  0  0  0  0  0  0
   -7.5678   16.4053   23.8014 C   0  0  0  0  0  0  0  0  0  0  0  0
   -6.9574   17.3326   22.9610 C   0  0  0  0  0  0  0  0  0  0  0  0
   -7.4982   17.5746   21.6938 C   0  0  0  0  0  0  0  0  0  0  0  0
  -10.0231   16.6149   19.8197 H   0  0  0  0  0  0  0  0  0  0  0  0
   -8.8053   17.7529   19.4598 H   0  0  0  0  0  0  0  0  0  0  0  0
   -6.5188   18.3213   26.5479 C   0  0  0  0  0  0  0  0  0  0  0  0
   -5.7247   18.2424   27.8592 C   0  0  0  0  0  0  0  0  0  0  0  0
   -6.0213   16.9853   28.6749 C   0  0  0  0  0  0  0  0  0  0  0  0
   -4.2305   18.3129   27.5749 C   0  0  0  0  0  0  0  0  0  0  0  0
  -10.0821   15.8618   27.5112 C   0  0  0  0  0  0  0  0  0  0  0  0
  -10.7237   15.7129   28.8114 N   0  0  0  0  0  0  0  0  0  0  0  0
  -10.0999   15.6001   29.9890 C   0  0  0  0  0  0  0  0  0  0  0  0
   -8.8938   15.6074   30.1802 O   0  0  0  0  0  0  0  0  0  0  0  0
  -11.7079   15.6935   28.8240 H   0  0  0  0  0  0  0  0  0  0  0  0
  -10.9680   15.4636   31.1384 O   0  0  0  0  0  0  0  0  0  0  0  0
  -10.5273   14.6250   32.1871 C   0  0  0  0  0  0  0  0  0  0  0  0
  -10.3329   15.5890   33.3295 C   0  0  0  0  0  0  0  0  0  0  0  0
  -11.6178   15.6734   33.9699 O   0  0  0  0  0  0  0  0  0  0  0  0
  -12.5199   14.6859   33.4626 C   0  0  0  0  0  0  0  0  0  0  0  0
  -13.5231   15.2422   32.5917 O   0  0  0  0  0  0  0  0  0  0  0  0
  -13.7236   14.4372   31.4156 C   0  0  0  0  0  0  0  0  0  0  0  0
  -12.6482   13.3327   31.4913 C   0  0  0  0  0  0  0  0  0  0  0  0
  -11.6976   13.7556   32.6075 C   0  0  0  0  0  0  0  0  0  0  0  0
  -11.1661   15.5184   26.4910 C   0  0  0  0  0  0  0  0  0  0  0  0
  -13.3466   14.6190   27.3672 C   0  0  0  0  0  0  0  0  0  0  0  0
  -14.1299   13.5787   27.8697 C   0  0  0  0  0  0  0  0  0  0  0  0
  -13.5737   12.3193   28.0543 C   0  0  0  0  0  0  0  0  0  0  0  0
  -12.2391   12.0944   27.7280 C   0  0  0  0  0  0  0  0  0  0  0  0
  -11.4582   13.1247   27.2126 C   0  0  0  0  0  0  0  0  0  0  0  0
  -12.0095   14.3936   27.0388 C   0  0  0  0  0  0  0  0  0  0  0  0
  9 10  1  0  0  0
 10 11  2  0  0  0
 10 15  1  0  0  0
 11 12  1  0  0  0
 12 13  2  0  0  0
 13 14  1  0  0  0
 13  6  1  0  0  0
 14 15  2  0  0  0
  6  7  2  0  0  0
  6  8  2  0  0  0
  6  5  1  0  0  0
  5 18  1  0  0  0
  5  4  1  0  0  0
 18 19  1  0  0  0
 19 20  1  0  0  0
 19 21  1  0  0  0
  4  1  1  0  0  0
  1  2  1  0  0  0
  1 22  1  0  0  0
 22 23  1  0  0  0
 22 36  1  0  0  0
 23 24  1  0  0  0
 24 25  2  0  0  0
 24 27  1  0  0  0
 27 28  1  0  0  0
 28 29  1  0  0  0
 28 35  1  0  0  0
 29 30  1  0  0  0
 30 31  1  0  0  0
 31 32  1  0  0  0
 31 35  1  0  0  0
 32 33  1  0  0  0
 33 34  1  0  0  0
 34 35  1  0  0  0
 36 42  1  0  0  0
 37 38  2  0  0  0
 37 42  1  0  0  0
 38 39  1  0  0  0
 39 40  2  0  0  0
 40 41  1  0  0  0
 41 42  2  0  0  0
  9 16  1  0  0  0
  9 17  1  0  0  0
  2  3  1  0  0  0
 23 26  1  0  0  0
M  END
> <minimizedAffinity>
-10.18903

$$$$
3TTP_017_A_201


 42 45  0  0  0  0  0  0  0  0999 V2000
   -8.1563   14.7043   26.9027 C   0  0  0  0  0  0  0  0  0  0  0  0
   -7.7695   13.3522   26.6647 O   0  0  0  0  0  0  0  0  0  0  0  0
   -8.4435   12.7549   27.0251 H   0  0  0  0  0  0  0  0  0  0  0  0
   -8.2206   14.9832   28.4116 C   0  0  0  0  0  0  0  0  0  0  0  0
   -8.1615   16.4415   28.5983 N   0  0  0  0  0  0  0  0  0  0  0  0
   -9.4283   16.9987   29.4631 S   0  0  0  0  0  0  0  0  0  0  0  0
  -10.4629   17.4477   28.5794 O   0  0  0  0  0  0  0  0  0  0  0  0
   -9.0094   18.1210   30.2526 O   0  0  0  0  0  0  0  0  0  0  0  0
  -11.5685   13.1920   33.1506 N   0  0  0  0  0  0  0  0  0  0  0  0
  -11.0867   14.0774   32.2486 C   0  0  0  0  0  0  0  0  0  0  0  0
  -10.0275   14.8796   32.6220 C   0  0  0  0  0  0  0  0  0  0  0  0
   -9.5091   15.7998   31.7327 C   0  0  0  0  0  0  0  0  0  0  0  0
  -10.0505   15.9229   30.4546 C   0  0  0  0  0  0  0  0  0  0  0  0
  -11.1153   15.1146   30.0650 C   0  0  0  0  0  0  0  0  0  0  0  0
  -11.6350   14.1785   30.9653 C   0  0  0  0  0  0  0  0  0  0  0  0
  -11.1682   13.1369   34.0484 H   0  0  0  0  0  0  0  0  0  0  0  0
  -12.3193   12.6027   32.9094 H   0  0  0  0  0  0  0  0  0  0  0  0
   -6.8388   16.8443   29.1212 C   0  0  0  0  0  0  0  0  0  0  0  0
   -5.9936   17.5703   28.0654 C   0  0  0  0  0  0  0  0  0  0  0  0
   -5.0143   16.6533   27.3348 C   0  0  0  0  0  0  0  0  0  0  0  0
   -6.8962   18.2517   27.0458 C   0  0  0  0  0  0  0  0  0  0  0  0
   -9.4570   15.0318   26.1594 C   0  0  0  0  0  0  0  0  0  0  0  0
   -9.0515   15.6369   24.8968 N   0  0  0  0  0  0  0  0  0  0  0  0
   -9.2709   16.9022   24.5237 C   0  0  0  0  0  0  0  0  0  0  0  0
   -9.8399   17.7666   25.1721 O   0  0  0  0  0  0  0  0  0  0  0  0
   -8.5714   15.0603   24.2593 H   0  0  0  0  0  0  0  0  0  0  0  0
   -8.7654   17.2580   23.2156 O   0  0  0  0  0  0  0  0  0  0  0  0
   -8.5026   16.2024   22.3135 C   0  0  0  0  0  0  0  0  0  0  0  0
   -9.4656   16.4755   21.1865 C   0  0  0  0  0  0  0  0  0  0  0  0
   -8.7651   17.3703   20.3051 O   0  0  0  0  0  0  0  0  0  0  0  0
   -7.3884   17.4944   20.6733 C   0  0  0  0  0  0  0  0  0  0  0  0
   -7.0917   18.7542   21.3051 O   0  0  0  0  0  0  0  0  0  0  0  0
   -6.2431   18.5942   22.4565 C   0  0  0  0  0  0  0  0  0  0  0  0
   -6.0959   17.0692   22.6437 C   0  0  0  0  0  0  0  0  0  0  0  0
   -7.1280   16.4362   21.7151 C   0  0  0  0  0  0  0  0  0  0  0  0
  -10.2528   13.7882   25.7671 C   0  0  0  0  0  0  0  0  0  0  0  0
  -12.2696   14.9908   26.6713 C   0  0  0  0  0  0  0  0  0  0  0  0
  -13.4863   15.0005   27.3552 C   0  0  0  0  0  0  0  0  0  0  0  0
  -13.9912   13.8212   27.8880 C   0  0  0  0  0  0  0  0  0  0  0  0
  -13.2879   12.6301   27.7298 C   0  0  0  0  0  0  0  0  0  0  0  0
  -12.0817   12.6128   27.0357 C   0  0  0  0  0  0  0  0  0  0  0  0
  -11.5653   13.7971   26.5113 C   0  0  0  0  0  0  0  0  0  0  0  0
  9 10  1  0  0  0
 10 11  2  0  0  0
 10 15  1  0  0  0
 11 12  1  0  0  0
 12 13  2  0  0  0
 13 14  1  0  0  0
 13  6  1  0  0  0
 14 15  2  0  0  0
  6  7  2  0  0  0
  6  8  2  0  0  0
  6  5  1  0  0  0
  5 18  1  0  0  0
  5  4  1  0  0  0
 18 19  1  0  0  0
 19 20  1  0  0  0
 19 21  1  0  0  0
  4  1  1  0  0  0
  1  2  1  0  0  0
  1 22  1  0  0  0
 22 23  1  0  0  0
 22 36  1  0  0  0
 23 24  1  0  0  0
 24 25  2  0  0  0
 24 27  1  0  0  0
 27 28  1  0  0  0
 28 29  1  0  0  0
 28 35  1  0  0  0
 29 30  1  0  0  0
 30 31  1  0  0  0
 31 32  1  0  0  0
 31 35  1  0  0  0
 32 33  1  0  0  0
 33 34  1  0  0  0
 34 35  1  0  0  0
 36 42  1  0  0  0
 37 38  2  0  0  0
 37 42  1  0  0  0
 38 39  1  0  0  0
 39 40  2  0  0  0
 40 41  1  0  0  0
 41 42  2  0  0  0
  9 16  1  0  0  0
  9 17  1  0  0  0
  2  3  1  0  0  0
 23 26  1  0  0  0
M  END
> <minimizedAffinity>
-10.05326

$$$$
3TTP_017_A_201


 42 45  0  0  0  0  0  0  0  0999 V2000
   -9.0309   16.6546   28.3267 C   0  0  0  0  0  0  0  0  0  0  0  0
   -9.2376   17.6950   29.2800 O   0  0  0  0  0  0  0  0  0  0  0  0
  -10.0555   18.1711   29.0668 H   0  0  0  0  0  0  0  0  0  0  0  0
   -8.8342   17.2477   26.9236 C   0  0  0  0  0  0  0  0  0  0  0  0
   -7.3984   17.1813   26.6088 N   0  0  0  0  0  0  0  0  0  0  0  0
   -7.1324   16.7659   25.0532 S   0  0  0  0  0  0  0  0  0  0  0  0
   -8.1800   17.2836   24.2239 O   0  0  0  0  0  0  0  0  0  0  0  0
   -7.1449   15.3364   24.9330 O   0  0  0  0  0  0  0  0  0  0  0  0
   -2.0597   18.4784   23.0521 N   0  0  0  0  0  0  0  0  0  0  0  0
   -3.2771   18.1079   23.5108 C   0  0  0  0  0  0  0  0  0  0  0  0
   -3.3634   16.9731   24.2917 C   0  0  0  0  0  0  0  0  0  0  0  0
   -4.5879   16.5577   24.7761 C   0  0  0  0  0  0  0  0  0  0  0  0
   -5.7417   17.2814   24.4809 C   0  0  0  0  0  0  0  0  0  0  0  0
   -5.6656   18.4311   23.6992 C   0  0  0  0  0  0  0  0  0  0  0  0
   -4.4232   18.8538   23.2146 C   0  0  0  0  0  0  0  0  0  0  0  0
   -1.2659   17.9393   23.2722 H   0  0  0  0  0  0  0  0  0  0  0  0
   -1.9676   19.2870   22.4982 H   0  0  0  0  0  0  0  0  0  0  0  0
   -6.7157   18.4206   27.0368 C   0  0  0  0  0  0  0  0  0  0  0  0
   -5.5964   18.1464   28.0508 C   0  0  0  0  0  0  0  0  0  0  0  0
   -5.3849   16.6606   28.3360 C   0  0  0  0  0  0  0  0  0  0  0  0
   -4.2867   18.7538   27.5665 C   0  0  0  0  0  0  0  0  0  0  0  0
  -10.1592   15.6190   28.4054 C   0  0  0  0  0  0  0  0  0  0  0  0
  -10.4786   15.4865   29.8214 N   0  0  0  0  0  0  0  0  0  0  0  0
   -9.8542   14.6933   30.6985 C   0  0  0  0  0  0  0  0  0  0  0  0
   -8.9116   13.9512   30.4700 O   0  0  0  0  0  0  0  0  0  0  0  0
  -11.2234   16.0317   30.1640 H   0  0  0  0  0  0  0  0  0  0  0  0
  -10.3643   14.7447   32.0515 O   0  0  0  0  0  0  0  0  0  0  0  0
   -9.4192   14.8539   33.0965 C   0  0  0  0  0  0  0  0  0  0  0  0
   -9.3683   16.3388   33.3502 C   0  0  0  0  0  0  0  0  0  0  0  0
  -10.4150   16.5910   34.3037 O   0  0  0  0  0  0  0  0  0  0  0  0
  -10.9543   15.3716   34.8217 C   0  0  0  0  0  0  0  0  0  0  0  0
  -12.2571   15.0672   34.2883 O   0  0  0  0  0  0  0  0  0  0  0  0
  -12.3819   13.6796   33.9273 C   0  0  0  0  0  0  0  0  0  0  0  0
  -10.9756   13.0780   34.1340 C   0  0  0  0  0  0  0  0  0  0  0  0
  -10.0437   14.2671   34.3486 C   0  0  0  0  0  0  0  0  0  0  0  0
  -11.4544   16.0924   27.7480 C   0  0  0  0  0  0  0  0  0  0  0  0
  -11.7472   14.1209   26.2124 C   0  0  0  0  0  0  0  0  0  0  0  0
  -12.4585   13.0018   25.7765 C   0  0  0  0  0  0  0  0  0  0  0  0
  -13.6536   12.6564   26.3946 C   0  0  0  0  0  0  0  0  0  0  0  0
  -14.1341   13.4208   27.4543 C   0  0  0  0  0  0  0  0  0  0  0  0
  -13.4208   14.5287   27.9022 C   0  0  0  0  0  0  0  0  0  0  0  0
  -12.2278   14.8862   27.2753 C   0  0  0  0  0  0  0  0  0  0  0  0
  9 10  1  0  0  0
 10 11  2  0  0  0
 10 15  1  0  0  0
 11 12  1  0  0  0
 12 13  2  0  0  0
 13 14  1  0  0  0
 13  6  1  0  0  0
 14 15  2  0  0  0
  6  7  2  0  0  0
  6  8  2  0  0  0
  6  5  1  0  0  0
  5 18  1  0  0  0
  5  4  1  0  0  0
 18 19  1  0  0  0
 19 20  1  0  0  0
 19 21  1  0  0  0
  4  1  1  0  0  0
  1  2  1  0  0  0
  1 22  1  0  0  0
 22 23  1  0  0  0
 22 36  1  0  0  0
 23 24  1  0  0  0
 24 25  2  0  0  0
 24 27  1  0  0  0
 27 28  1  0  0  0
 28 29  1  0  0  0
 28 35  1  0  0  0
 29 30  1  0  0  0
 30 31  1  0  0  0
 31 32  1  0  0  0
 31 35  1  0  0  0
 32 33  1  0  0  0
 33 34  1  0  0  0
 34 35  1  0  0  0
 36 42  1  0  0  0
 37 38  2  0  0  0
 37 42  1  0  0  0
 38 39  1  0  0  0
 39 40  2  0  0  0
 40 41  1  0  0  0
 41 42  2  0  0  0
  9 16  1  0  0  0
  9 17  1  0  0  0
  2  3  1  0  0  0
 23 26  1  0  0  0
M  END
> <minimizedAffinity>
-10.04501

$$$$
3TTP_017_A_201


 42 45  0  0  0  0  0  0  0  0999 V2000
   -9.8507   17.0224   28.3854 C   0  0  0  0  0  0  0  0  0  0  0  0
  -10.5240   18.1092   29.0176 O   0  0  0  0  0  0  0  0  0  0  0  0
  -11.3441   18.3045   28.5379 H   0  0  0  0  0  0  0  0  0  0  0  0
   -9.4364   17.4091   26.9579 C   0  0  0  0  0  0  0  0  0  0  0  0
   -8.0172   17.0571   26.7948 N   0  0  0  0  0  0  0  0  0  0  0  0
   -7.7769   16.0594   25.5259 S   0  0  0  0  0  0  0  0  0  0  0  0
   -9.0300   15.5269   25.0796 O   0  0  0  0  0  0  0  0  0  0  0  0
   -6.9540   14.9578   25.9352 O   0  0  0  0  0  0  0  0  0  0  0  0
   -5.3550   18.6185   21.0254 N   0  0  0  0  0  0  0  0  0  0  0  0
   -5.8906   18.0006   22.1029 C   0  0  0  0  0  0  0  0  0  0  0  0
   -7.2657   17.9338   22.2012 C   0  0  0  0  0  0  0  0  0  0  0  0
   -7.8527   17.3160   23.2876 C   0  0  0  0  0  0  0  0  0  0  0  0
   -7.0615   16.7563   24.2889 C   0  0  0  0  0  0  0  0  0  0  0  0
   -5.6733   16.8125   24.1971 C   0  0  0  0  0  0  0  0  0  0  0  0
   -5.0804   17.4333   23.0925 C   0  0  0  0  0  0  0  0  0  0  0  0
   -5.9431   19.0112   20.3403 H   0  0  0  0  0  0  0  0  0  0  0  0
   -4.3772   18.6755   20.9261 H   0  0  0  0  0  0  0  0  0  0  0  0
   -7.1788   18.2746   26.7834 C   0  0  0  0  0  0  0  0  0  0  0  0
   -6.0941   18.2428   27.8691 C   0  0  0  0  0  0  0  0  0  0  0  0
   -6.0826   16.9478   28.6793 C   0  0  0  0  0  0  0  0  0  0  0  0
   -4.7205   18.4557   27.2474 C   0  0  0  0  0  0  0  0  0  0  0  0
  -10.6996   15.7474   28.4567 C   0  0  0  0  0  0  0  0  0  0  0  0
  -10.8944   15.4786   29.8761 N   0  0  0  0  0  0  0  0  0  0  0  0
  -10.1021   14.7309   30.6518 C   0  0  0  0  0  0  0  0  0  0  0  0
   -9.0826   14.1515   30.3112 O   0  0  0  0  0  0  0  0  0  0  0  0
  -11.6824   15.8855   30.3034 H   0  0  0  0  0  0  0  0  0  0  0  0
  -10.5158   14.6199   32.0338 O   0  0  0  0  0  0  0  0  0  0  0  0
   -9.5141   14.7496   33.0223 C   0  0  0  0  0  0  0  0  0  0  0  0
   -9.4313   16.2411   33.2236 C   0  0  0  0  0  0  0  0  0  0  0  0
  -10.4216   16.5388   34.2231 O   0  0  0  0  0  0  0  0  0  0  0  0
  -10.9469   15.3445   34.8095 C   0  0  0  0  0  0  0  0  0  0  0  0
  -12.2804   15.0413   34.3573 O   0  0  0  0  0  0  0  0  0  0  0  0
  -12.4416   13.6446   34.0497 C   0  0  0  0  0  0  0  0  0  0  0  0
  -11.0336   13.0303   34.2003 C   0  0  0  0  0  0  0  0  0  0  0  0
  -10.0770   14.2125   34.3250 C   0  0  0  0  0  0  0  0  0  0  0  0
  -12.1063   15.9312   27.8900 C   0  0  0  0  0  0  0  0  0  0  0  0
  -13.7422   14.0213   27.9756 C   0  0  0  0  0  0  0  0  0  0  0  0
  -14.2125   12.7890   27.5190 C   0  0  0  0  0  0  0  0  0  0  0  0
  -13.5447   12.1283   26.4958 C   0  0  0  0  0  0  0  0  0  0  0  0
  -12.4138   12.7014   25.9205 C   0  0  0  0  0  0  0  0  0  0  0  0
  -11.9498   13.9370   26.3621 C   0  0  0  0  0  0  0  0  0  0  0  0
  -12.6098   14.5965   27.3983 C   0  0  0  0  0  0  0  0  0  0  0  0
  9 10  1  0  0  0
 10 11  2  0  0  0
 10 15  1  0  0  0
 11 12  1  0  0  0
 12 13  2  0  0  0
 13 14  1  0  0  0
 13  6  1  0  0  0
 14 15  2  0  0  0
  6  7  2  0  0  0
  6  8  2  0  0  0
  6  5  1  0  0  0
  5 18  1  0  0  0
  5  4  1  0  0  0
 18 19  1  0  0  0
 19 20  1  0  0  0
 19 21  1  0  0  0
  4  1  1  0  0  0
  1  2  1  0  0  0
  1 22  1  0  0  0
 22 23  1  0  0  0
 22 36  1  0  0  0
 23 24  1  0  0  0
 24 25  2  0  0  0
 24 27  1  0  0  0
 27 28  1  0  0  0
 28 29  1  0  0  0
 28 35  1  0  0  0
 29 30  1  0  0  0
 30 31  1  0  0  0
 31 32  1  0  0  0
 31 35  1  0  0  0
 32 33  1  0  0  0
 33 34  1  0  0  0
 34 35  1  0  0  0
 36 42  1  0  0  0
 37 38  2  0  0  0
 37 42  1  0  0  0
 38 39  1  0  0  0
 39 40  2  0  0  0
 40 41  1  0  0  0
 41 42  2  0  0  0
  9 16  1  0  0  0
  9 17  1  0  0  0
  2  3  1  0  0  0
 23 26  1  0  0  0
M  END
> <minimizedAffinity>
-9.92046

$$$$
3TTP_017_A_201


 42 45  0  0  0  0  0  0  0  0999 V2000
   -8.6927   15.7185   26.1164 C   0  0  0  0  0  0  0  0  0  0  0  0
   -8.2485   14.4244   26.5191 O   0  0  0  0  0  0  0  0  0  0  0  0
   -8.8927   14.0378   27.1326 H   0  0  0  0  0  0  0  0  0  0  0  0
   -8.7581   16.6610   27.3272 C   0  0  0  0  0  0  0  0  0  0  0  0
   -7.5386   16.4499   28.1228 N   0  0  0  0  0  0  0  0  0  0  0  0
   -6.4158   17.5992   27.8369 S   0  0  0  0  0  0  0  0  0  0  0  0
   -5.4883   17.6574   28.9274 O   0  0  0  0  0  0  0  0  0  0  0  0
   -7.0577   18.8785   27.7394 O   0  0  0  0  0  0  0  0  0  0  0  0
   -3.5470   16.9148   22.9409 N   0  0  0  0  0  0  0  0  0  0  0  0
   -4.2043   17.0454   24.1159 C   0  0  0  0  0  0  0  0  0  0  0  0
   -5.2570   17.9357   24.1801 C   0  0  0  0  0  0  0  0  0  0  0  0
   -5.9513   18.1026   25.3618 C   0  0  0  0  0  0  0  0  0  0  0  0
   -5.5946   17.3732   26.4945 C   0  0  0  0  0  0  0  0  0  0  0  0
   -4.5382   16.4678   26.4396 C   0  0  0  0  0  0  0  0  0  0  0  0
   -3.8400   16.2957   25.2396 C   0  0  0  0  0  0  0  0  0  0  0  0
   -3.8194   17.4520   22.1621 H   0  0  0  0  0  0  0  0  0  0  0  0
   -2.7962   16.2826   22.8645 H   0  0  0  0  0  0  0  0  0  0  0  0
   -7.8759   16.2655   29.5503 C   0  0  0  0  0  0  0  0  0  0  0  0
   -9.2390   15.5860   29.7417 C   0  0  0  0  0  0  0  0  0  0  0  0
   -9.1527   14.0632   29.8256 C   0  0  0  0  0  0  0  0  0  0  0  0
   -9.9212   16.1180   30.9947 C   0  0  0  0  0  0  0  0  0  0  0  0
  -10.0120   15.6186   25.3411 C   0  0  0  0  0  0  0  0  0  0  0  0
   -9.6960   15.9951   23.9689 N   0  0  0  0  0  0  0  0  0  0  0  0
   -8.5591   15.7223   23.3195 C   0  0  0  0  0  0  0  0  0  0  0  0
   -7.5969   15.1106   23.7569 O   0  0  0  0  0  0  0  0  0  0  0  0
  -10.3834   16.4969   23.4741 H   0  0  0  0  0  0  0  0  0  0  0  0
   -8.4925   16.2078   21.9582 O   0  0  0  0  0  0  0  0  0  0  0  0
   -8.3134   15.2482   20.9362 C   0  0  0  0  0  0  0  0  0  0  0  0
   -9.5787   15.3780   20.1275 C   0  0  0  0  0  0  0  0  0  0  0  0
   -9.3048   16.4143   19.1687 O   0  0  0  0  0  0  0  0  0  0  0  0
   -7.9206   16.7754   19.1714 C   0  0  0  0  0  0  0  0  0  0  0  0
   -7.6774   18.0467   19.8032 O   0  0  0  0  0  0  0  0  0  0  0  0
   -6.5326   18.0063   20.6745 C   0  0  0  0  0  0  0  0  0  0  0  0
   -6.0876   16.5285   20.6923 C   0  0  0  0  0  0  0  0  0  0  0  0
   -7.2132   15.7487   20.0190 C   0  0  0  0  0  0  0  0  0  0  0  0
  -10.5465   14.1904   25.2487 C   0  0  0  0  0  0  0  0  0  0  0  0
  -12.1652   15.1247   26.9334 C   0  0  0  0  0  0  0  0  0  0  0  0
  -13.3382   15.0381   27.6849 C   0  0  0  0  0  0  0  0  0  0  0  0
  -14.1498   13.9161   27.5759 C   0  0  0  0  0  0  0  0  0  0  0  0
  -13.7972   12.8850   26.7095 C   0  0  0  0  0  0  0  0  0  0  0  0
  -12.6363   12.9735   25.9469 C   0  0  0  0  0  0  0  0  0  0  0  0
  -11.8123   14.0921   26.0640 C   0  0  0  0  0  0  0  0  0  0  0  0
  9 10  1  0  0  0
 10 11  2  0  0  0
 10 15  1  0  0  0
 11 12  1  0  0  0
 12 13  2  0  0  0
 13 14  1  0  0  0
 13  6  1  0  0  0
 14 15  2  0  0  0
  6  7  2  0  0  0
  6  8  2  0  0  0
  6  5  1  0  0  0
  5 18  1  0  0  0
  5  4  1  0  0  0
 18 19  1  0  0  0
 19 20  1  0  0  0
 19 21  1  0  0  0
  4  1  1  0  0  0
  1  2  1  0  0  0
  1 22  1  0  0  0
 22 23  1  0  0  0
 22 36  1  0  0  0
 23 24  1  0  0  0
 24 25  2  0  0  0
 24 27  1  0  0  0
 27 28  1  0  0  0
 28 29  1  0  0  0
 28 35  1  0  0  0
 29 30  1  0  0  0
 30 31  1  0  0  0
 31 32  1  0  0  0
 31 35  1  0  0  0
 32 33  1  0  0  0
 33 34  1  0  0  0
 34 35  1  0  0  0
 36 42  1  0  0  0
 37 38  2  0  0  0
 37 42  1  0  0  0
 38 39  1  0  0  0
 39 40  2  0  0  0
 40 41  1  0  0  0
 41 42  2  0  0  0
  9 16  1  0  0  0
  9 17  1  0  0  0
  2  3  1  0  0  0
 23 26  1  0  0  0
M  END
> <minimizedAffinity>
-9.81475

$$$$
3TTP_017_A_201


 42 45  0  0  0  0  0  0  0  0999 V2000
   -8.4961   16.5099   24.0965 C   0  0  0  0  0  0  0  0  0  0  0  0
   -9.8126   16.1733   23.6632 O   0  0  0  0  0  0  0  0  0  0  0  0
   -9.9918   15.2420   23.8669 H   0  0  0  0  0  0  0  0  0  0  0  0
   -7.4536   15.6887   23.3234 C   0  0  0  0  0  0  0  0  0  0  0  0
   -6.7827   16.5957   22.3789 N   0  0  0  0  0  0  0  0  0  0  0  0
   -7.4522   16.5338   20.8920 S   0  0  0  0  0  0  0  0  0  0  0  0
   -8.0682   17.7896   20.5815 O   0  0  0  0  0  0  0  0  0  0  0  0
   -8.4746   15.5277   20.8714 O   0  0  0  0  0  0  0  0  0  0  0  0
   -3.8547   15.2953   16.6267 N   0  0  0  0  0  0  0  0  0  0  0  0
   -4.6743   15.5861   17.6626 C   0  0  0  0  0  0  0  0  0  0  0  0
   -6.0309   15.6634   17.4205 C   0  0  0  0  0  0  0  0  0  0  0  0
   -6.9017   15.9625   18.4495 C   0  0  0  0  0  0  0  0  0  0  0  0
   -6.4168   16.1864   19.7367 C   0  0  0  0  0  0  0  0  0  0  0  0
   -5.0507   16.1050   19.9937 C   0  0  0  0  0  0  0  0  0  0  0  0
   -4.1707   15.7957   18.9511 C   0  0  0  0  0  0  0  0  0  0  0  0
   -4.2295   15.1514   15.7278 H   0  0  0  0  0  0  0  0  0  0  0  0
   -2.8832   15.2276   16.7715 H   0  0  0  0  0  0  0  0  0  0  0  0
   -6.6820   17.9561   22.9488 C   0  0  0  0  0  0  0  0  0  0  0  0
   -5.2709   18.5429   22.8050 C   0  0  0  0  0  0  0  0  0  0  0  0
   -5.1021   19.8960   23.4936 C   0  0  0  0  0  0  0  0  0  0  0  0
   -4.2373   17.5695   23.3552 C   0  0  0  0  0  0  0  0  0  0  0  0
   -8.3793   16.3770   25.6197 C   0  0  0  0  0  0  0  0  0  0  0  0
   -9.3852   15.3975   26.0114 N   0  0  0  0  0  0  0  0  0  0  0  0
  -10.2287   15.5048   27.0436 C   0  0  0  0  0  0  0  0  0  0  0  0
  -10.3069   16.4366   27.8291 O   0  0  0  0  0  0  0  0  0  0  0  0
   -9.4497   14.5810   25.4652 H   0  0  0  0  0  0  0  0  0  0  0  0
  -11.1352   14.3910   27.2202 O   0  0  0  0  0  0  0  0  0  0  0  0
  -12.3834   14.4610   26.5613 C   0  0  0  0  0  0  0  0  0  0  0  0
  -12.2117   13.5003   25.4125 C   0  0  0  0  0  0  0  0  0  0  0  0
  -12.5894   12.2165   25.9393 O   0  0  0  0  0  0  0  0  0  0  0  0
  -13.1848   12.3383   27.2343 C   0  0  0  0  0  0  0  0  0  0  0  0
  -12.3084   11.9088   28.2935 O   0  0  0  0  0  0  0  0  0  0  0  0
  -12.3303   12.8135   29.4126 C   0  0  0  0  0  0  0  0  0  0  0  0
  -13.2104   13.9980   28.9601 C   0  0  0  0  0  0  0  0  0  0  0  0
  -13.4184   13.8105   27.4601 C   0  0  0  0  0  0  0  0  0  0  0  0
   -7.0467   15.7801   26.0690 C   0  0  0  0  0  0  0  0  0  0  0  0
   -6.6259   18.2031   26.6011 C   0  0  0  0  0  0  0  0  0  0  0  0
   -5.7853   19.2406   27.0076 C   0  0  0  0  0  0  0  0  0  0  0  0
   -4.4539   18.9780   27.3041 C   0  0  0  0  0  0  0  0  0  0  0  0
   -3.9632   17.6789   27.2055 C   0  0  0  0  0  0  0  0  0  0  0  0
   -4.8012   16.6386   26.8151 C   0  0  0  0  0  0  0  0  0  0  0  0
   -6.1348   16.9008   26.5036 C   0  0  0  0  0  0  0  0  0  0  0  0
  9 10  1  0  0  0
 10 11  2  0  0  0
 10 15  1  0  0  0
 11 12  1  0  0  0
 12 13  2  0  0  0
 13 14  1  0  0  0
 13  6  1  0  0  0
 14 15  2  0  0  0
  6  7  2  0  0  0
  6  8  2  0  0  0
  6  5  1  0  0  0
  5 18  1  0  0  0
  5  4  1  0  0  0
 18 19  1  0  0  0
 19 20  1  0  0  0
 19 21  1  0  0  0
  4  1  1  0  0  0
  1  2  1  0  0  0
  1 22  1  0  0  0
 22 23  1  0  0  0
 22 36  1  0  0  0
 23 24  1  0  0  0
 24 25  2  0  0  0
 24 27  1  0  0  0
 27 28  1  0  0  0
 28 29  1  0  0  0
 28 35  1  0  0  0
 29 30  1  0  0  0
 30 31  1  0  0  0
 31 32  1  0  0  0
 31 35  1  0  0  0
 32 33  1  0  0  0
 33 34  1  0  0  0
 34 35  1  0  0  0
 36 42  1  0  0  0
 37 38  2  0  0  0
 37 42  1  0  0  0
 38 39  1  0  0  0
 39 40  2  0  0  0
 40 41  1  0  0  0
 41 42  2  0  0  0
  9 16  1  0  0  0
  9 17  1  0  0  0
  2  3  1  0  0  0
 23 26  1  0  0  0
M  END
> <minimizedAffinity>
-9.57985

$$$$
3TTP_017_A_201


 42 45  0  0  0  0  0  0  0  0999 V2000
   -9.1231   17.1099   25.8273 C   0  0  0  0  0  0  0  0  0  0  0  0
   -9.8982   18.2642   25.5097 O   0  0  0  0  0  0  0  0  0  0  0  0
   -9.7165   18.5343   24.5959 H   0  0  0  0  0  0  0  0  0  0  0  0
   -7.6243   17.4390   25.7623 C   0  0  0  0  0  0  0  0  0  0  0  0
   -7.1957   17.8346   27.1131 N   0  0  0  0  0  0  0  0  0  0  0  0
   -6.9218   16.5417   28.0704 S   0  0  0  0  0  0  0  0  0  0  0  0
   -5.7805   16.7834   28.9023 O   0  0  0  0  0  0  0  0  0  0  0  0
   -6.6342   15.3972   27.2545 O   0  0  0  0  0  0  0  0  0  0  0  0
  -11.4034   15.3403   31.4082 N   0  0  0  0  0  0  0  0  0  0  0  0
  -10.3284   15.5863   30.6249 C   0  0  0  0  0  0  0  0  0  0  0  0
  -10.1428   16.8707   30.1549 C   0  0  0  0  0  0  0  0  0  0  0  0
   -9.0609   17.1630   29.3484 C   0  0  0  0  0  0  0  0  0  0  0  0
   -8.1507   16.1648   29.0059 C   0  0  0  0  0  0  0  0  0  0  0  0
   -8.3247   14.8669   29.4793 C   0  0  0  0  0  0  0  0  0  0  0  0
   -9.4181   14.5742   30.3014 C   0  0  0  0  0  0  0  0  0  0  0  0
  -12.0319   16.0668   31.6239 H   0  0  0  0  0  0  0  0  0  0  0  0
  -11.5572   14.4348   31.7627 H   0  0  0  0  0  0  0  0  0  0  0  0
   -6.0716   18.7920   27.0411 C   0  0  0  0  0  0  0  0  0  0  0  0
   -5.1503   18.5169   25.8445 C   0  0  0  0  0  0  0  0  0  0  0  0
   -5.0328   19.6984   24.8833 C   0  0  0  0  0  0  0  0  0  0  0  0
   -3.7605   18.1264   26.3289 C   0  0  0  0  0  0  0  0  0  0  0  0
   -9.5329   15.9254   24.9438 C   0  0  0  0  0  0  0  0  0  0  0  0
  -10.5642   15.2130   25.6877 N   0  0  0  0  0  0  0  0  0  0  0  0
  -10.3740   14.1493   26.4756 C   0  0  0  0  0  0  0  0  0  0  0  0
   -9.3111   13.5962   26.7120 O   0  0  0  0  0  0  0  0  0  0  0  0
  -11.4868   15.5460   25.6023 H   0  0  0  0  0  0  0  0  0  0  0  0
  -11.5663   13.6246   27.1052 O   0  0  0  0  0  0  0  0  0  0  0  0
  -12.8110   14.0126   26.5600 C   0  0  0  0  0  0  0  0  0  0  0  0
  -13.0540   12.9689   25.4999 C   0  0  0  0  0  0  0  0  0  0  0  0
  -13.7169   11.8904   26.1823 O   0  0  0  0  0  0  0  0  0  0  0  0
  -14.0985   12.2679   27.5083 C   0  0  0  0  0  0  0  0  0  0  0  0
  -13.2633   11.6727   28.5196 O   0  0  0  0  0  0  0  0  0  0  0  0
  -12.8972   12.6172   29.5419 C   0  0  0  0  0  0  0  0  0  0  0  0
  -13.4509   13.9743   29.0583 C   0  0  0  0  0  0  0  0  0  0  0  0
  -13.8764   13.7556   27.6094 C   0  0  0  0  0  0  0  0  0  0  0  0
  -10.2062   16.3538   23.6411 C   0  0  0  0  0  0  0  0  0  0  0  0
   -9.7508   16.1397   21.1758 C   0  0  0  0  0  0  0  0  0  0  0  0
   -8.9084   15.8272   20.1076 C   0  0  0  0  0  0  0  0  0  0  0  0
   -7.6179   15.3751   20.3521 C   0  0  0  0  0  0  0  0  0  0  0  0
   -7.1637   15.2446   21.6617 C   0  0  0  0  0  0  0  0  0  0  0  0
   -7.9949   15.5692   22.7297 C   0  0  0  0  0  0  0  0  0  0  0  0
   -9.2954   16.0104   22.4882 C   0  0  0  0  0  0  0  0  0  0  0  0
  9 10  1  0  0  0
 10 11  2  0  0  0
 10 15  1  0  0  0
 11 12  1  0  0  0
 12 13  2  0  0  0
 13 14  1  0  0  0
 13  6  1  0  0  0
 14 15  2  0  0  0
  6  7  2  0  0  0
  6  8  2  0  0  0
  6  5  1  0  0  0
  5 18  1  0  0  0
  5  4  1  0  0  0
 18 19  1  0  0  0
 19 20  1  0  0  0
 19 21  1  0  0  0
  4  1  1  0  0  0
  1  2  1  0  0  0
  1 22  1  0  0  0
 22 23  1  0  0  0
 22 36  1  0  0  0
 23 24  1  0  0  0
 24 25  2  0  0  0
 24 27  1  0  0  0
 27 28  1  0  0  0
 28 29  1  0  0  0
 28 35  1  0  0  0
 29 30  1  0  0  0
 30 31  1  0  0  0
 31 32  1  0  0  0
 31 35  1  0  0  0
 32 33  1  0  0  0
 33 34  1  0  0  0
 34 35  1  0  0  0
 36 42  1  0  0  0
 37 38  2  0  0  0
 37 42  1  0  0  0
 38 39  1  0  0  0
 39 40  2  0  0  0
 40 41  1  0  0  0
 41 42  2  0  0  0
  9 16  1  0  0  0
  9 17  1  0  0  0
  2  3  1  0  0  0
 23 26  1  0  0  0
M  END
> <minimizedAffinity>
-9.55169

$$$$
