3SU3_SU3_A_1


 56 61  0  0  0  0  0  0  0  0999 V2000
  -15.0378   -9.7387   13.5740 N   0  0  0  0  0  0  0  0  0  0  0  0
  -13.6458   -9.7587   14.0842 C   0  0  0  0  0  0  0  0  0  0  0  0
  -12.9097  -10.6323   13.0875 C   0  0  0  0  0  0  0  0  0  0  0  0
  -13.9898  -11.6410   12.6531 C   0  0  0  0  0  0  0  0  0  0  0  0
  -15.9964   -8.9838   14.1052 C   0  0  0  0  0  0  0  0  0  0  0  0
  -15.7105   -8.1985   15.0178 O   0  0  0  0  0  0  0  0  0  0  0  0
  -17.3894   -8.9642   13.4901 C   0  0  0  0  0  0  0  0  0  0  0  0
  -18.3198   -9.2120   14.5789 N   0  0  0  0  0  0  0  0  0  0  0  0
  -18.8977  -10.3865   14.7298 C   0  0  0  0  0  0  0  0  0  0  0  0
  -19.7052  -10.4581   15.8102 O   0  0  0  0  0  0  0  0  0  0  0  0
  -18.7621  -11.3359   13.9592 O   0  0  0  0  0  0  0  0  0  0  0  0
  -13.4738  -13.6290   13.8601 C   0  0  0  0  0  0  0  0  0  0  0  0
  -12.5606  -13.8698   13.0662 O   0  0  0  0  0  0  0  0  0  0  0  0
  -13.6808  -14.3960   14.8839 N   0  0  0  0  0  0  0  0  0  0  0  0
  -13.0031  -15.6440   15.2500 C   0  0  0  0  0  0  0  0  0  0  0  0
  -13.6174  -16.0539   16.5548 C   0  0  0  0  0  0  0  0  0  0  0  0
  -14.5870  -15.1227   16.9195 C   0  0  0  0  0  0  0  0  0  0  0  0
  -14.7100  -14.0426   15.8698 C   0  0  0  0  0  0  0  0  0  0  0  0
  -13.3440  -17.1401   17.3728 C   0  0  0  0  0  0  0  0  0  0  0  0
  -14.0482  -17.2810   18.5517 C   0  0  0  0  0  0  0  0  0  0  0  0
  -15.0231  -16.3508   18.9066 C   0  0  0  0  0  0  0  0  0  0  0  0
  -15.3161  -15.2445   18.0973 C   0  0  0  0  0  0  0  0  0  0  0  0
  -16.3544  -14.1815   18.5261 C   0  0  0  0  0  0  0  0  0  0  0  0
  -17.7696  -14.6108   18.7883 C   0  0  0  0  0  0  0  0  0  0  0  0
  -18.5932  -13.3218   18.8708 C   0  0  0  0  0  0  0  0  0  0  0  0
  -18.9351  -12.7808   17.4764 C   0  0  0  0  0  0  0  0  0  0  0  0
  -20.3166  -12.1387   17.4235 C   0  0  0  0  0  0  0  0  0  0  0  0
  -20.4910  -11.6369   16.0209 C   0  0  0  0  0  0  0  0  0  0  0  0
  -21.4210  -13.1813   17.6537 C   0  0  0  0  0  0  0  0  0  0  0  0
  -20.4343  -10.9913   18.4478 C   0  0  0  0  0  0  0  0  0  0  0  0
  -15.2193  -10.7554   12.5004 C   0  0  0  0  0  0  0  0  0  0  0  0
  -14.2552  -12.5393   13.7427 O   0  0  0  0  0  0  0  0  0  0  0  0
  -18.5221   -8.4888   15.2155 H   0  0  0  0  0  0  0  0  0  0  0  0
  -13.1477   -8.3031   14.0752 C   0  0  0  0  0  0  0  0  0  0  0  0
  -13.0573   -7.6417   13.0346 O   0  0  0  0  0  0  0  0  0  0  0  0
  -12.7323   -7.8452   15.2496 N   0  0  0  0  0  0  0  0  0  0  0  0
  -12.5989   -8.4872   15.9839 H   0  0  0  0  0  0  0  0  0  0  0  0
  -12.4652   -6.4381   15.5007 C   0  0  0  0  0  0  0  0  0  0  0  0
  -13.7691   -5.5801   15.5077 C   0  0  0  0  0  0  0  0  0  0  0  0
  -13.0624   -5.8861   16.8053 C   0  0  0  0  0  0  0  0  0  0  0  0
  -11.1181   -5.8602   15.0974 C   0  0  0  0  0  0  0  0  0  0  0  0
  -10.4731   -6.4930   14.1563 N   0  0  0  0  0  0  0  0  0  0  0  0
  -10.7072   -4.8673   15.6934 O   0  0  0  0  0  0  0  0  0  0  0  0
  -10.8239   -7.3146   13.7426 H   0  0  0  0  0  0  0  0  0  0  0  0
   -9.0843   -5.8528   13.7199 S   0  0  0  0  0  0  0  0  0  0  0  0
   -9.2750   -4.7025   12.8079 O   0  0  0  0  0  0  0  0  0  0  0  0
   -8.2092   -5.5430   14.8525 O   0  0  0  0  0  0  0  0  0  0  0  0
   -8.2992   -7.1418   12.7580 C   0  0  0  0  0  0  0  0  0  0  0  0
   -6.8796   -6.8171   12.2786 C   0  0  0  0  0  0  0  0  0  0  0  0
   -7.1104   -7.7668   13.4517 C   0  0  0  0  0  0  0  0  0  0  0  0
  -13.7238   -4.1355   15.0237 C   0  0  0  0  0  0  0  0  0  0  0  0
  -15.0278   -3.7381   14.3370 C   0  0  0  0  0  0  0  0  0  0  0  0
  -17.7167   -7.6454   12.7402 C   0  0  0  0  0  0  0  0  0  0  0  0
  -18.2659   -6.6190   13.7533 C   0  0  0  0  0  0  0  0  0  0  0  0
  -16.5105   -7.0311   12.0411 C   0  0  0  0  0  0  0  0  0  0  0  0
  -18.8196   -7.9272   11.7064 C   0  0  0  0  0  0  0  0  0  0  0  0
 34 36  1  0  0  0
  1  5  1  0  0  0
  1  2  1  0  0  0
 35 34  2  0  0  0
  2 34  1  0  0  0
  3  2  1  0  0  0
  4  3  1  0  0  0
  4 32  1  0  0  0
  5  6  2  0  0  0
  7  5  1  0  0  0
  7  8  1  0  0  0
  8  9  1  0  0  0
  9 10  1  0  0  0
 10 28  1  0  0  0
 53  7  1  0  0  0
 53 55  1  0  0  0
 11  9  2  0  0  0
 12 14  1  0  0  0
 13 12  2  0  0  0
 14 15  1  0  0  0
 14 18  1  0  0  0
 51 39  1  0  0  0
 52 51  1  0  0  0
 54 53  1  0  0  0
 36 38  1  0  0  0
 38 39  1  0  0  0
 38 40  1  0  0  0
 41 38  1  0  0  0
 41 43  2  0  0  0
 39 40  1  0  0  0
 15 16  1  0  0  0
 16 17  2  0  0  0
 16 19  1  0  0  0
 17 22  1  0  0  0
 18 17  1  0  0  0
 19 20  2  0  0  0
 20 21  1  0  0  0
 22 21  2  0  0  0
 22 23  1  0  0  0
 23 24  1  0  0  0
 42 41  1  0  0  0
 45 42  1  0  0  0
 45 47  2  0  0  0
 48 45  1  0  0  0
 48 50  1  0  0  0
 46 45  2  0  0  0
 49 48  1  0  0  0
 49 50  1  0  0  0
 24 25  1  0  0  0
 26 25  1  0  0  0
 27 26  1  0  0  0
 27 29  1  0  0  0
 27 30  1  0  0  0
 28 27  1  0  0  0
 56 53  1  0  0  0
 31  1  1  0  0  0
 31  4  1  0  0  0
 32 12  1  0  0  0
  8 33  1  0  0  0
 36 37  1  0  0  0
 42 44  1  0  0  0
M  END
> <minimizedAffinity>
-11.92669

$$$$
