5DX4_E0C_A_201


 29 32  0  0  0  0  0  0  0  0999 V2000
   -9.7712    7.6264    3.4231 N   0  0  0  0  0  0  0  0  0  0  0  0
  -10.4256    8.0751    2.3404 C   0  0  0  0  0  0  0  0  0  0  0  0
  -11.5234    7.6701    1.9289 O   0  0  0  0  0  0  0  0  0  0  0  0
   -9.7123    9.0445    1.7566 C   0  0  0  0  0  0  0  0  0  0  0  0
   -9.8921    9.8062    0.6762 C   0  0  0  0  0  0  0  0  0  0  0  0
   -8.9189   10.7538    0.3331 C   0  0  0  0  0  0  0  0  0  0  0  0
   -7.7704   10.8947    1.1218 C   0  0  0  0  0  0  0  0  0  0  0  0
   -7.6232   10.0700    2.2419 C   0  0  0  0  0  0  0  0  0  0  0  0
   -8.6127    9.1898    2.4987 C   0  0  0  0  0  0  0  0  0  0  0  0
   -8.6310    8.3278    3.5234 C   0  0  0  0  0  0  0  0  0  0  0  0
   -7.6049    8.3213    4.3877 C   0  0  0  0  0  0  0  0  0  0  0  0
   -6.5307    9.2123    4.2015 C   0  0  0  0  0  0  0  0  0  0  0  0
   -6.5217   10.1005    3.1138 C   0  0  0  0  0  0  0  0  0  0  0  0
   -9.6764    5.2443    3.8103 C   0  0  0  0  0  0  0  0  0  0  0  0
  -10.2326    6.5281    4.3439 C   0  0  0  0  0  0  0  0  0  0  0  0
   -5.5162   10.9901    2.8936 N   0  0  0  0  0  0  0  0  0  0  0  0
   -5.5644   11.9022    3.2608 H   0  0  0  0  0  0  0  0  0  0  0  0
   -4.1769   10.4984    1.9739 S   0  0  0  0  0  0  0  0  0  0  0  0
   -4.2785   11.1453    0.5905 O   0  0  0  0  0  0  0  0  0  0  0  0
   -4.1155    8.9772    1.8891 O   0  0  0  0  0  0  0  0  0  0  0  0
   -2.6700   11.0935    2.7093 C   0  0  0  0  0  0  0  0  0  0  0  0
   -1.7455   11.7561    1.8950 C   0  0  0  0  0  0  0  0  0  0  0  0
   -0.5490   12.2304    2.4152 C   0  0  0  0  0  0  0  0  0  0  0  0
    0.6657   13.1469    1.2783 Br  0  0  0  0  0  0  0  0  0  0  0  0
   -0.2684   12.0415    3.7597 C   0  0  0  0  0  0  0  0  0  0  0  0
   -1.1786   11.3687    4.5849 C   0  0  0  0  0  0  0  0  0  0  0  0
   -2.3890   10.8826    4.0691 C   0  0  0  0  0  0  0  0  0  0  0  0
   -3.3625   10.2136    4.7981 O   0  0  0  0  0  0  0  0  0  0  0  0
   -2.9472    9.3676    5.8933 C   0  0  0  0  0  0  0  0  0  0  0  0
 25 26  1  0  0  0
 25 23  2  0  0  0
 26 27  2  0  0  0
 29 28  1  0  0  0
 24 23  1  0  0  0
 23 22  1  0  0  0
 27 28  1  0  0  0
 27 21  1  0  0  0
 22 21  2  0  0  0
  6  5  1  0  0  0
  6  7  2  0  0  0
 21 18  1  0  0  0
  5  4  2  0  0  0
  7  8  1  0  0  0
  4  9  1  0  0  0
  4  2  1  0  0  0
 20 18  2  0  0  0
 18 16  1  0  0  0
 18 19  2  0  0  0
  8  9  1  0  0  0
  8 13  2  0  0  0
  3  2  2  0  0  0
  9 10  2  0  0  0
  2  1  1  0  0  0
 16 13  1  0  0  0
 13 12  1  0  0  0
 10  1  1  0  0  0
 10 11  1  0  0  0
  1 15  1  0  0  0
 14 15  1  0  0  0
 12 11  2  0  0  0
 16 17  1  0  0  0
M  END
> <minimizedAffinity>
-7.36413

$$$$
5DX4_E0C_A_201


 29 32  0  0  0  0  0  0  0  0999 V2000
   -5.7048    9.2540    2.2948 N   0  0  0  0  0  0  0  0  0  0  0  0
   -6.6949    9.0144    3.1691 C   0  0  0  0  0  0  0  0  0  0  0  0
   -6.5590    8.7339    4.3697 O   0  0  0  0  0  0  0  0  0  0  0  0
   -7.8752    9.1266    2.5497 C   0  0  0  0  0  0  0  0  0  0  0  0
   -9.1438    8.9884    2.9388 C   0  0  0  0  0  0  0  0  0  0  0  0
  -10.1733    9.1797    2.0080 C   0  0  0  0  0  0  0  0  0  0  0  0
   -9.8661    9.5128    0.6831 C   0  0  0  0  0  0  0  0  0  0  0  0
   -8.5213    9.6413    0.3205 C   0  0  0  0  0  0  0  0  0  0  0  0
   -7.5975    9.4442    1.2836 C   0  0  0  0  0  0  0  0  0  0  0  0
   -6.2722    9.5249    1.1088 C   0  0  0  0  0  0  0  0  0  0  0  0
   -5.7929    9.8358   -0.1051 C   0  0  0  0  0  0  0  0  0  0  0  0
   -6.6857   10.0661   -1.1693 C   0  0  0  0  0  0  0  0  0  0  0  0
   -8.0722    9.9642   -0.9712 C   0  0  0  0  0  0  0  0  0  0  0  0
   -3.8231   10.5958    2.9964 C   0  0  0  0  0  0  0  0  0  0  0  0
   -4.2300    9.2117    2.5948 C   0  0  0  0  0  0  0  0  0  0  0  0
   -8.9792   10.1882   -1.9602 N   0  0  0  0  0  0  0  0  0  0  0  0
   -9.3757    9.4360   -2.4565 H   0  0  0  0  0  0  0  0  0  0  0  0
   -9.4145   11.7883   -2.3229 S   0  0  0  0  0  0  0  0  0  0  0  0
   -8.3111   12.4038   -3.1868 O   0  0  0  0  0  0  0  0  0  0  0  0
   -9.6466   12.5829   -1.0424 O   0  0  0  0  0  0  0  0  0  0  0  0
  -10.9044   11.8183   -3.2950 C   0  0  0  0  0  0  0  0  0  0  0  0
  -12.0305   12.4627   -2.7719 C   0  0  0  0  0  0  0  0  0  0  0  0
  -13.2216   12.5058   -3.4835 C   0  0  0  0  0  0  0  0  0  0  0  0
  -14.7181   13.4137   -2.7458 Br  0  0  0  0  0  0  0  0  0  0  0  0
  -13.2938   11.8992   -4.7281 C   0  0  0  0  0  0  0  0  0  0  0  0
  -12.1784   11.2393   -5.2596 C   0  0  0  0  0  0  0  0  0  0  0  0
  -10.9709   11.1870   -4.5477 C   0  0  0  0  0  0  0  0  0  0  0  0
   -9.8064   10.5706   -4.9845 O   0  0  0  0  0  0  0  0  0  0  0  0
   -9.2317   10.9899   -6.2422 C   0  0  0  0  0  0  0  0  0  0  0  0
 25 26  1  0  0  0
 25 23  2  0  0  0
 26 27  2  0  0  0
 29 28  1  0  0  0
 24 23  1  0  0  0
 23 22  1  0  0  0
 27 28  1  0  0  0
 27 21  1  0  0  0
 22 21  2  0  0  0
  6  5  1  0  0  0
  6  7  2  0  0  0
 21 18  1  0  0  0
  5  4  2  0  0  0
  7  8  1  0  0  0
  4  9  1  0  0  0
  4  2  1  0  0  0
 20 18  2  0  0  0
 18 16  1  0  0  0
 18 19  2  0  0  0
  8  9  1  0  0  0
  8 13  2  0  0  0
  3  2  2  0  0  0
  9 10  2  0  0  0
  2  1  1  0  0  0
 16 13  1  0  0  0
 13 12  1  0  0  0
 10  1  1  0  0  0
 10 11  1  0  0  0
  1 15  1  0  0  0
 14 15  1  0  0  0
 12 11  2  0  0  0
 16 17  1  0  0  0
M  END
> <minimizedAffinity>
-7.34128

$$$$
5DX4_E0C_A_201


 29 32  0  0  0  0  0  0  0  0999 V2000
   -8.8014    7.0597    3.1766 N   0  0  0  0  0  0  0  0  0  0  0  0
   -9.7314    7.3974    2.2693 C   0  0  0  0  0  0  0  0  0  0  0  0
  -10.7234    6.7234    1.9527 O   0  0  0  0  0  0  0  0  0  0  0  0
   -9.4323    8.5913    1.7455 C   0  0  0  0  0  0  0  0  0  0  0  0
  -10.0025    9.3690    0.8236 C   0  0  0  0  0  0  0  0  0  0  0  0
   -9.4108   10.5964    0.4978 C   0  0  0  0  0  0  0  0  0  0  0  0
   -8.2317   10.9969    1.1382 C   0  0  0  0  0  0  0  0  0  0  0  0
   -7.6676   10.1457    2.0941 C   0  0  0  0  0  0  0  0  0  0  0  0
   -8.3085    8.9860    2.3475 C   0  0  0  0  0  0  0  0  0  0  0  0
   -7.9065    8.0591    3.2264 C   0  0  0  0  0  0  0  0  0  0  0  0
   -6.7883    8.2751    3.9354 C   0  0  0  0  0  0  0  0  0  0  0  0
   -6.0583    9.4635    3.7415 C   0  0  0  0  0  0  0  0  0  0  0  0
   -6.4874   10.4189    2.8060 C   0  0  0  0  0  0  0  0  0  0  0  0
   -9.6658    5.9860    5.1598 C   0  0  0  0  0  0  0  0  0  0  0  0
   -8.7685    5.7854    3.9778 C   0  0  0  0  0  0  0  0  0  0  0  0
   -5.8277   11.5885    2.5876 N   0  0  0  0  0  0  0  0  0  0  0  0
   -6.1624   12.4317    2.9700 H   0  0  0  0  0  0  0  0  0  0  0  0
   -4.4170   11.5673    1.6438 S   0  0  0  0  0  0  0  0  0  0  0  0
   -3.4264   10.5890    2.2797 O   0  0  0  0  0  0  0  0  0  0  0  0
   -3.8339   12.9709    1.5216 O   0  0  0  0  0  0  0  0  0  0  0  0
   -4.7733   10.9499    0.0135 C   0  0  0  0  0  0  0  0  0  0  0  0
   -4.2890    9.6868   -0.3430 C   0  0  0  0  0  0  0  0  0  0  0  0
   -4.5283    9.1624   -1.6059 C   0  0  0  0  0  0  0  0  0  0  0  0
   -3.8736    7.4326   -2.0384 Br  0  0  0  0  0  0  0  0  0  0  0  0
   -5.2554    9.9037   -2.5247 C   0  0  0  0  0  0  0  0  0  0  0  0
   -5.7359   11.1752   -2.1866 C   0  0  0  0  0  0  0  0  0  0  0  0
   -5.4972   11.7160   -0.9145 C   0  0  0  0  0  0  0  0  0  0  0  0
   -5.9349   12.9574   -0.4738 O   0  0  0  0  0  0  0  0  0  0  0  0
   -6.9374   13.6523   -1.2483 C   0  0  0  0  0  0  0  0  0  0  0  0
 25 26  1  0  0  0
 25 23  2  0  0  0
 26 27  2  0  0  0
 29 28  1  0  0  0
 24 23  1  0  0  0
 23 22  1  0  0  0
 27 28  1  0  0  0
 27 21  1  0  0  0
 22 21  2  0  0  0
  6  5  1  0  0  0
  6  7  2  0  0  0
 21 18  1  0  0  0
  5  4  2  0  0  0
  7  8  1  0  0  0
  4  9  1  0  0  0
  4  2  1  0  0  0
 20 18  2  0  0  0
 18 16  1  0  0  0
 18 19  2  0  0  0
  8  9  1  0  0  0
  8 13  2  0  0  0
  3  2  2  0  0  0
  9 10  2  0  0  0
  2  1  1  0  0  0
 16 13  1  0  0  0
 13 12  1  0  0  0
 10  1  1  0  0  0
 10 11  1  0  0  0
  1 15  1  0  0  0
 14 15  1  0  0  0
 12 11  2  0  0  0
 16 17  1  0  0  0
M  END
> <minimizedAffinity>
-7.33358

$$$$
5DX4_E0C_A_201


 29 32  0  0  0  0  0  0  0  0999 V2000
   -9.3123    5.9145    5.1566 N   0  0  0  0  0  0  0  0  0  0  0  0
  -10.3694    5.7705    4.3418 C   0  0  0  0  0  0  0  0  0  0  0  0
  -11.2017    4.8515    4.3786 O   0  0  0  0  0  0  0  0  0  0  0  0
  -10.4010    6.7821    3.4672 C   0  0  0  0  0  0  0  0  0  0  0  0
  -11.2126    7.1141    2.4618 C   0  0  0  0  0  0  0  0  0  0  0  0
  -10.9513    8.2746    1.7217 C   0  0  0  0  0  0  0  0  0  0  0  0
   -9.8466    9.0740    2.0400 C   0  0  0  0  0  0  0  0  0  0  0  0
   -9.0210    8.6826    3.0990 C   0  0  0  0  0  0  0  0  0  0  0  0
   -9.3518    7.5536    3.7591 C   0  0  0  0  0  0  0  0  0  0  0  0
   -8.6723    7.0363    4.7907 C   0  0  0  0  0  0  0  0  0  0  0  0
   -7.5780    7.6729    5.2347 C   0  0  0  0  0  0  0  0  0  0  0  0
   -7.1625    8.8642    4.6097 C   0  0  0  0  0  0  0  0  0  0  0  0
   -7.8796    9.3854    3.5206 C   0  0  0  0  0  0  0  0  0  0  0  0
   -9.5594    5.4852    7.5204 C   0  0  0  0  0  0  0  0  0  0  0  0
   -8.9166    4.9776    6.2668 C   0  0  0  0  0  0  0  0  0  0  0  0
   -7.5300   10.5381    2.8882 N   0  0  0  0  0  0  0  0  0  0  0  0
   -8.1496   11.3026    2.8608 H   0  0  0  0  0  0  0  0  0  0  0  0
   -6.0058   10.6339    2.1473 S   0  0  0  0  0  0  0  0  0  0  0  0
   -5.0688    9.6434    2.8428 O   0  0  0  0  0  0  0  0  0  0  0  0
   -5.4717   12.0609    2.2047 O   0  0  0  0  0  0  0  0  0  0  0  0
   -6.1134   10.1295    0.4444 C   0  0  0  0  0  0  0  0  0  0  0  0
   -5.1429    9.2549   -0.0558 C   0  0  0  0  0  0  0  0  0  0  0  0
   -5.1733    8.8389   -1.3799 C   0  0  0  0  0  0  0  0  0  0  0  0
   -3.8499    7.6307   -2.0099 Br  0  0  0  0  0  0  0  0  0  0  0  0
   -6.1789    9.2996   -2.2157 C   0  0  0  0  0  0  0  0  0  0  0  0
   -7.1504   10.1855   -1.7326 C   0  0  0  0  0  0  0  0  0  0  0  0
   -7.1273   10.6148   -0.3974 C   0  0  0  0  0  0  0  0  0  0  0  0
   -8.0437   11.4797    0.1848 O   0  0  0  0  0  0  0  0  0  0  0  0
   -9.3238   11.6667   -0.4588 C   0  0  0  0  0  0  0  0  0  0  0  0
 25 26  1  0  0  0
 25 23  2  0  0  0
 26 27  2  0  0  0
 29 28  1  0  0  0
 24 23  1  0  0  0
 23 22  1  0  0  0
 27 28  1  0  0  0
 27 21  1  0  0  0
 22 21  2  0  0  0
  6  5  1  0  0  0
  6  7  2  0  0  0
 21 18  1  0  0  0
  5  4  2  0  0  0
  7  8  1  0  0  0
  4  9  1  0  0  0
  4  2  1  0  0  0
 20 18  2  0  0  0
 18 16  1  0  0  0
 18 19  2  0  0  0
  8  9  1  0  0  0
  8 13  2  0  0  0
  3  2  2  0  0  0
  9 10  2  0  0  0
  2  1  1  0  0  0
 16 13  1  0  0  0
 13 12  1  0  0  0
 10  1  1  0  0  0
 10 11  1  0  0  0
  1 15  1  0  0  0
 14 15  1  0  0  0
 12 11  2  0  0  0
 16 17  1  0  0  0
M  END
> <minimizedAffinity>
-7.26351

$$$$
5DX4_E0C_A_201


 29 32  0  0  0  0  0  0  0  0999 V2000
   -9.9818    7.2890    3.5912 N   0  0  0  0  0  0  0  0  0  0  0  0
  -10.6191    7.6912    2.4803 C   0  0  0  0  0  0  0  0  0  0  0  0
  -11.7035    7.2584    2.0615 O   0  0  0  0  0  0  0  0  0  0  0  0
   -9.9053    8.6482    1.8768 C   0  0  0  0  0  0  0  0  0  0  0  0
  -10.0718    9.3690    0.7667 C   0  0  0  0  0  0  0  0  0  0  0  0
   -9.1028   10.3159    0.4098 C   0  0  0  0  0  0  0  0  0  0  0  0
   -7.9725   10.4986    1.2158 C   0  0  0  0  0  0  0  0  0  0  0  0
   -7.8386    9.7158    2.3672 C   0  0  0  0  0  0  0  0  0  0  0  0
   -8.8229    8.8331    2.6352 C   0  0  0  0  0  0  0  0  0  0  0  0
   -8.8521    8.0075    3.6893 C   0  0  0  0  0  0  0  0  0  0  0  0
   -7.8439    8.0442    4.5736 C   0  0  0  0  0  0  0  0  0  0  0  0
   -6.7765    8.9413    4.3775 C   0  0  0  0  0  0  0  0  0  0  0  0
   -6.7557    9.7906    3.2594 C   0  0  0  0  0  0  0  0  0  0  0  0
  -10.0787    4.9003    3.9343 C   0  0  0  0  0  0  0  0  0  0  0  0
  -10.4491    6.2183    4.5409 C   0  0  0  0  0  0  0  0  0  0  0  0
   -5.7562   10.6842    3.0279 N   0  0  0  0  0  0  0  0  0  0  0  0
   -5.9580   11.6387    2.8951 H   0  0  0  0  0  0  0  0  0  0  0  0
   -4.1551   10.1233    2.9721 S   0  0  0  0  0  0  0  0  0  0  0  0
   -4.0800    8.9801    1.9572 O   0  0  0  0  0  0  0  0  0  0  0  0
   -3.6925    9.6871    4.3580 O   0  0  0  0  0  0  0  0  0  0  0  0
   -3.0713   11.4053    2.3824 C   0  0  0  0  0  0  0  0  0  0  0  0
   -1.8624   11.6189    3.0532 C   0  0  0  0  0  0  0  0  0  0  0  0
   -0.9854   12.6133    2.6419 C   0  0  0  0  0  0  0  0  0  0  0  0
    0.6567   12.8515    3.5665 Br  0  0  0  0  0  0  0  0  0  0  0  0
   -1.3158   13.4051    1.5528 C   0  0  0  0  0  0  0  0  0  0  0  0
   -2.5283   13.2115    0.8789 C   0  0  0  0  0  0  0  0  0  0  0  0
   -3.4232   12.2118    1.2879 C   0  0  0  0  0  0  0  0  0  0  0  0
   -4.6422   11.9292    0.6870 O   0  0  0  0  0  0  0  0  0  0  0  0
   -4.6437   11.3800   -0.6495 C   0  0  0  0  0  0  0  0  0  0  0  0
 25 26  1  0  0  0
 25 23  2  0  0  0
 26 27  2  0  0  0
 29 28  1  0  0  0
 24 23  1  0  0  0
 23 22  1  0  0  0
 27 28  1  0  0  0
 27 21  1  0  0  0
 22 21  2  0  0  0
  6  5  1  0  0  0
  6  7  2  0  0  0
 21 18  1  0  0  0
  5  4  2  0  0  0
  7  8  1  0  0  0
  4  9  1  0  0  0
  4  2  1  0  0  0
 20 18  2  0  0  0
 18 16  1  0  0  0
 18 19  2  0  0  0
  8  9  1  0  0  0
  8 13  2  0  0  0
  3  2  2  0  0  0
  9 10  2  0  0  0
  2  1  1  0  0  0
 16 13  1  0  0  0
 13 12  1  0  0  0
 10  1  1  0  0  0
 10 11  1  0  0  0
  1 15  1  0  0  0
 14 15  1  0  0  0
 12 11  2  0  0  0
 16 17  1  0  0  0
M  END
> <minimizedAffinity>
-7.15832

$$$$
5DX4_E0C_A_201


 29 32  0  0  0  0  0  0  0  0999 V2000
   -7.8136   13.2114   -1.4554 N   0  0  0  0  0  0  0  0  0  0  0  0
   -6.9036   13.7747   -0.6451 C   0  0  0  0  0  0  0  0  0  0  0  0
   -6.3551   14.8744   -0.8134 O   0  0  0  0  0  0  0  0  0  0  0  0
   -6.6689   12.9661    0.3944 C   0  0  0  0  0  0  0  0  0  0  0  0
   -5.8718   13.0351    1.4619 C   0  0  0  0  0  0  0  0  0  0  0  0
   -5.8669   11.9818    2.3857 C   0  0  0  0  0  0  0  0  0  0  0  0
   -6.6939   10.8700    2.1840 C   0  0  0  0  0  0  0  0  0  0  0  0
   -7.5084   10.8399    1.0473 C   0  0  0  0  0  0  0  0  0  0  0  0
   -7.4517   11.9001    0.2151 C   0  0  0  0  0  0  0  0  0  0  0  0
   -8.1590   12.0324   -0.9143 C   0  0  0  0  0  0  0  0  0  0  0  0
   -9.0088   11.0567   -1.2689 C   0  0  0  0  0  0  0  0  0  0  0  0
   -9.1385    9.9151   -0.4549 C   0  0  0  0  0  0  0  0  0  0  0  0
   -8.3791    9.7869    0.7193 C   0  0  0  0  0  0  0  0  0  0  0  0
   -9.7073   14.3269   -2.4568 C   0  0  0  0  0  0  0  0  0  0  0  0
   -8.3362   13.7959   -2.7407 C   0  0  0  0  0  0  0  0  0  0  0  0
   -8.4739    8.7121    1.5479 N   0  0  0  0  0  0  0  0  0  0  0  0
   -7.7585    8.0364    1.5764 H   0  0  0  0  0  0  0  0  0  0  0  0
   -9.8484    8.5574    2.5318 S   0  0  0  0  0  0  0  0  0  0  0  0
  -11.0275    8.1387    1.6502 O   0  0  0  0  0  0  0  0  0  0  0  0
  -10.1251    9.8607    3.2733 O   0  0  0  0  0  0  0  0  0  0  0  0
   -9.6122    7.2579    3.7240 C   0  0  0  0  0  0  0  0  0  0  0  0
  -10.6824    6.3996    3.9975 C   0  0  0  0  0  0  0  0  0  0  0  0
  -10.5556    5.3765    4.9272 C   0  0  0  0  0  0  0  0  0  0  0  0
  -12.0269    4.2188    5.2485 Br  0  0  0  0  0  0  0  0  0  0  0  0
   -9.3517    5.2068    5.5934 C   0  0  0  0  0  0  0  0  0  0  0  0
   -8.2751    6.0661    5.3395 C   0  0  0  0  0  0  0  0  0  0  0  0
   -8.3932    7.1051    4.4045 C   0  0  0  0  0  0  0  0  0  0  0  0
   -7.3896    8.0040    4.0707 O   0  0  0  0  0  0  0  0  0  0  0  0
   -6.9665    8.9674    5.0609 C   0  0  0  0  0  0  0  0  0  0  0  0
 25 26  1  0  0  0
 25 23  2  0  0  0
 26 27  2  0  0  0
 29 28  1  0  0  0
 24 23  1  0  0  0
 23 22  1  0  0  0
 27 28  1  0  0  0
 27 21  1  0  0  0
 22 21  2  0  0  0
  6  5  1  0  0  0
  6  7  2  0  0  0
 21 18  1  0  0  0
  5  4  2  0  0  0
  7  8  1  0  0  0
  4  9  1  0  0  0
  4  2  1  0  0  0
 20 18  2  0  0  0
 18 16  1  0  0  0
 18 19  2  0  0  0
  8  9  1  0  0  0
  8 13  2  0  0  0
  3  2  2  0  0  0
  9 10  2  0  0  0
  2  1  1  0  0  0
 16 13  1  0  0  0
 13 12  1  0  0  0
 10  1  1  0  0  0
 10 11  1  0  0  0
  1 15  1  0  0  0
 14 15  1  0  0  0
 12 11  2  0  0  0
 16 17  1  0  0  0
M  END
> <minimizedAffinity>
-7.09769

$$$$
5DX4_E0C_A_201


 29 32  0  0  0  0  0  0  0  0999 V2000
   -9.0690    8.1490    3.1296 N   0  0  0  0  0  0  0  0  0  0  0  0
   -7.9638    8.1903    3.8903 C   0  0  0  0  0  0  0  0  0  0  0  0
   -7.8660    7.7919    5.0609 O   0  0  0  0  0  0  0  0  0  0  0  0
   -6.9596    8.7308    3.1912 C   0  0  0  0  0  0  0  0  0  0  0  0
   -5.6825    9.0050    3.4626 C   0  0  0  0  0  0  0  0  0  0  0  0
   -4.8803    9.5920    2.4754 C   0  0  0  0  0  0  0  0  0  0  0  0
   -5.4208    9.8854    1.2174 C   0  0  0  0  0  0  0  0  0  0  0  0
   -6.7662    9.5849    0.9810 C   0  0  0  0  0  0  0  0  0  0  0  0
   -7.4610    9.0161    1.9878 C   0  0  0  0  0  0  0  0  0  0  0  0
   -8.7530    8.6679    1.9325 C   0  0  0  0  0  0  0  0  0  0  0  0
   -9.4361    8.8771    0.7969 C   0  0  0  0  0  0  0  0  0  0  0  0
   -8.7883    9.4597   -0.3092 C   0  0  0  0  0  0  0  0  0  0  0  0
   -7.4363    9.8309   -0.2293 C   0  0  0  0  0  0  0  0  0  0  0  0
  -10.4580    6.1741    3.1915 C   0  0  0  0  0  0  0  0  0  0  0  0
  -10.4160    7.6266    3.5533 C   0  0  0  0  0  0  0  0  0  0  0  0
   -6.7588   10.3856   -1.2705 N   0  0  0  0  0  0  0  0  0  0  0  0
   -5.9679    9.9380   -1.6493 H   0  0  0  0  0  0  0  0  0  0  0  0
   -7.3019   11.8636   -1.9044 S   0  0  0  0  0  0  0  0  0  0  0  0
   -6.1712   12.4767   -2.7340 O   0  0  0  0  0  0  0  0  0  0  0  0
   -7.7552   12.7923   -0.7833 O   0  0  0  0  0  0  0  0  0  0  0  0
   -8.6662   11.5958   -3.0148 C   0  0  0  0  0  0  0  0  0  0  0  0
   -9.7573   12.4693   -2.9553 C   0  0  0  0  0  0  0  0  0  0  0  0
  -10.8527   12.2991   -3.7909 C   0  0  0  0  0  0  0  0  0  0  0  0
  -12.3011   13.5240   -3.6934 Br  0  0  0  0  0  0  0  0  0  0  0  0
  -10.8636   11.2471   -4.6939 C   0  0  0  0  0  0  0  0  0  0  0  0
   -9.7840   10.3569   -4.7565 C   0  0  0  0  0  0  0  0  0  0  0  0
   -8.6736   10.5177   -3.9147 C   0  0  0  0  0  0  0  0  0  0  0  0
   -7.5503    9.7022   -3.9012 O   0  0  0  0  0  0  0  0  0  0  0  0
   -6.8636    9.4500   -5.1473 C   0  0  0  0  0  0  0  0  0  0  0  0
 25 26  1  0  0  0
 25 23  2  0  0  0
 26 27  2  0  0  0
 29 28  1  0  0  0
 24 23  1  0  0  0
 23 22  1  0  0  0
 27 28  1  0  0  0
 27 21  1  0  0  0
 22 21  2  0  0  0
  6  5  1  0  0  0
  6  7  2  0  0  0
 21 18  1  0  0  0
  5  4  2  0  0  0
  7  8  1  0  0  0
  4  9  1  0  0  0
  4  2  1  0  0  0
 20 18  2  0  0  0
 18 16  1  0  0  0
 18 19  2  0  0  0
  8  9  1  0  0  0
  8 13  2  0  0  0
  3  2  2  0  0  0
  9 10  2  0  0  0
  2  1  1  0  0  0
 16 13  1  0  0  0
 13 12  1  0  0  0
 10  1  1  0  0  0
 10 11  1  0  0  0
  1 15  1  0  0  0
 14 15  1  0  0  0
 12 11  2  0  0  0
 16 17  1  0  0  0
M  END
> <minimizedAffinity>
-7.00602

$$$$
5DX4_E0C_A_201


 29 32  0  0  0  0  0  0  0  0999 V2000
   -8.2295   12.6580   -1.1279 N   0  0  0  0  0  0  0  0  0  0  0  0
   -7.2023   13.3181   -0.5701 C   0  0  0  0  0  0  0  0  0  0  0  0
   -6.7703   14.4276   -0.9178 O   0  0  0  0  0  0  0  0  0  0  0  0
   -6.7013   12.5958    0.4382 C   0  0  0  0  0  0  0  0  0  0  0  0
   -5.6989   12.7761    1.2999 C   0  0  0  0  0  0  0  0  0  0  0  0
   -5.4319   11.7913    2.2600 C   0  0  0  0  0  0  0  0  0  0  0  0
   -6.2142   10.6310    2.3088 C   0  0  0  0  0  0  0  0  0  0  0  0
   -7.2507   10.4838    1.3812 C   0  0  0  0  0  0  0  0  0  0  0  0
   -7.4384   11.4848    0.4966 C   0  0  0  0  0  0  0  0  0  0  0  0
   -8.3787   11.5050   -0.4568 C   0  0  0  0  0  0  0  0  0  0  0  0
   -9.2243   10.4685   -0.5598 C   0  0  0  0  0  0  0  0  0  0  0  0
   -9.1068    9.3818    0.3278 C   0  0  0  0  0  0  0  0  0  0  0  0
   -8.1063    9.3713    1.3132 C   0  0  0  0  0  0  0  0  0  0  0  0
   -8.3993   12.5882   -3.5361 C   0  0  0  0  0  0  0  0  0  0  0  0
   -9.0506   13.1264   -2.2997 C   0  0  0  0  0  0  0  0  0  0  0  0
   -7.9557    8.3537    2.2035 N   0  0  0  0  0  0  0  0  0  0  0  0
   -7.4409    7.5497    1.9635 H   0  0  0  0  0  0  0  0  0  0  0  0
   -8.6718    8.4959    3.7360 S   0  0  0  0  0  0  0  0  0  0  0  0
   -9.8115    9.5133    3.6428 O   0  0  0  0  0  0  0  0  0  0  0  0
   -7.6325    8.8971    4.7770 O   0  0  0  0  0  0  0  0  0  0  0  0
   -9.4035    6.9487    4.2223 C   0  0  0  0  0  0  0  0  0  0  0  0
   -8.9757    6.3525    5.4133 C   0  0  0  0  0  0  0  0  0  0  0  0
   -9.5053    5.1400    5.8335 C   0  0  0  0  0  0  0  0  0  0  0  0
   -8.9134    4.3793    7.4702 Br  0  0  0  0  0  0  0  0  0  0  0  0
  -10.4693    4.5129    5.0592 C   0  0  0  0  0  0  0  0  0  0  0  0
  -10.8986    5.0913    3.8579 C   0  0  0  0  0  0  0  0  0  0  0  0
  -10.3679    6.3145    3.4223 C   0  0  0  0  0  0  0  0  0  0  0  0
  -10.7286    6.9779    2.2576 O   0  0  0  0  0  0  0  0  0  0  0  0
  -12.1033    7.3922    2.0949 C   0  0  0  0  0  0  0  0  0  0  0  0
 25 26  1  0  0  0
 25 23  2  0  0  0
 26 27  2  0  0  0
 29 28  1  0  0  0
 24 23  1  0  0  0
 23 22  1  0  0  0
 27 28  1  0  0  0
 27 21  1  0  0  0
 22 21  2  0  0  0
  6  5  1  0  0  0
  6  7  2  0  0  0
 21 18  1  0  0  0
  5  4  2  0  0  0
  7  8  1  0  0  0
  4  9  1  0  0  0
  4  2  1  0  0  0
 20 18  2  0  0  0
 18 16  1  0  0  0
 18 19  2  0  0  0
  8  9  1  0  0  0
  8 13  2  0  0  0
  3  2  2  0  0  0
  9 10  2  0  0  0
  2  1  1  0  0  0
 16 13  1  0  0  0
 13 12  1  0  0  0
 10  1  1  0  0  0
 10 11  1  0  0  0
  1 15  1  0  0  0
 14 15  1  0  0  0
 12 11  2  0  0  0
 16 17  1  0  0  0
M  END
> <minimizedAffinity>
-6.96191

$$$$
5DX4_E0C_A_201


 29 32  0  0  0  0  0  0  0  0999 V2000
   -9.1414    7.6258    2.4309 N   0  0  0  0  0  0  0  0  0  0  0  0
   -8.1909    7.3684    3.3432 C   0  0  0  0  0  0  0  0  0  0  0  0
   -8.1247    6.3634    4.0672 O   0  0  0  0  0  0  0  0  0  0  0  0
   -7.3038    8.3694    3.3595 C   0  0  0  0  0  0  0  0  0  0  0  0
   -6.1972    8.6169    4.0623 C   0  0  0  0  0  0  0  0  0  0  0  0
   -5.4813    9.7975    3.8248 C   0  0  0  0  0  0  0  0  0  0  0  0
   -5.9291   10.7049    2.8569 C   0  0  0  0  0  0  0  0  0  0  0  0
   -7.0976   10.4050    2.1490 C   0  0  0  0  0  0  0  0  0  0  0  0
   -7.7187    9.2435    2.4403 C   0  0  0  0  0  0  0  0  0  0  0  0
   -8.8443    8.8050    1.8623 C   0  0  0  0  0  0  0  0  0  0  0  0
   -9.4188    9.5505    0.9062 C   0  0  0  0  0  0  0  0  0  0  0  0
   -8.8346   10.7758    0.5321 C   0  0  0  0  0  0  0  0  0  0  0  0
   -7.6612   11.2265    1.1581 C   0  0  0  0  0  0  0  0  0  0  0  0
  -11.2659    6.8525    3.2804 C   0  0  0  0  0  0  0  0  0  0  0  0
  -10.3273    6.7526    2.1179 C   0  0  0  0  0  0  0  0  0  0  0  0
   -7.0485   12.3953    0.8273 N   0  0  0  0  0  0  0  0  0  0  0  0
   -6.8220   13.0564    1.5208 H   0  0  0  0  0  0  0  0  0  0  0  0
   -6.6815   12.6928   -0.8031 S   0  0  0  0  0  0  0  0  0  0  0  0
   -5.5073   13.6728   -0.8617 O   0  0  0  0  0  0  0  0  0  0  0  0
   -7.9064   13.2254   -1.5386 O   0  0  0  0  0  0  0  0  0  0  0  0
   -6.1407   11.1957   -1.5981 C   0  0  0  0  0  0  0  0  0  0  0  0
   -6.8748   10.7152   -2.6877 C   0  0  0  0  0  0  0  0  0  0  0  0
   -6.5034    9.5458   -3.3371 C   0  0  0  0  0  0  0  0  0  0  0  0
   -7.5144    8.9440   -4.8283 Br  0  0  0  0  0  0  0  0  0  0  0  0
   -5.3909    8.8457   -2.8962 C   0  0  0  0  0  0  0  0  0  0  0  0
   -4.6533    9.3075   -1.7986 C   0  0  0  0  0  0  0  0  0  0  0  0
   -5.0215   10.4861   -1.1332 C   0  0  0  0  0  0  0  0  0  0  0  0
   -4.3572   11.0362   -0.0455 O   0  0  0  0  0  0  0  0  0  0  0  0
   -3.1526   10.3931    0.4268 C   0  0  0  0  0  0  0  0  0  0  0  0
 25 26  1  0  0  0
 25 23  2  0  0  0
 26 27  2  0  0  0
 29 28  1  0  0  0
 24 23  1  0  0  0
 23 22  1  0  0  0
 27 28  1  0  0  0
 27 21  1  0  0  0
 22 21  2  0  0  0
  6  5  1  0  0  0
  6  7  2  0  0  0
 21 18  1  0  0  0
  5  4  2  0  0  0
  7  8  1  0  0  0
  4  9  1  0  0  0
  4  2  1  0  0  0
 20 18  2  0  0  0
 18 16  1  0  0  0
 18 19  2  0  0  0
  8  9  1  0  0  0
  8 13  2  0  0  0
  3  2  2  0  0  0
  9 10  2  0  0  0
  2  1  1  0  0  0
 16 13  1  0  0  0
 13 12  1  0  0  0
 10  1  1  0  0  0
 10 11  1  0  0  0
  1 15  1  0  0  0
 14 15  1  0  0  0
 12 11  2  0  0  0
 16 17  1  0  0  0
M  END
> <minimizedAffinity>
-6.93134

$$$$
5DX4_E0C_A_201


 29 32  0  0  0  0  0  0  0  0999 V2000
   -8.6527    7.0990    3.1296 N   0  0  0  0  0  0  0  0  0  0  0  0
   -9.6417    7.4316    2.2851 C   0  0  0  0  0  0  0  0  0  0  0  0
  -10.6564    6.7595    2.0457 O   0  0  0  0  0  0  0  0  0  0  0  0
   -9.3741    8.6179    1.7281 C   0  0  0  0  0  0  0  0  0  0  0  0
  -10.0031    9.3883    0.8389 C   0  0  0  0  0  0  0  0  0  0  0  0
   -9.4296   10.6087    0.4587 C   0  0  0  0  0  0  0  0  0  0  0  0
   -8.2071   11.0099    1.0112 C   0  0  0  0  0  0  0  0  0  0  0  0
   -7.5822   10.1664    1.9356 C   0  0  0  0  0  0  0  0  0  0  0  0
   -8.2095    9.0132    2.2462 C   0  0  0  0  0  0  0  0  0  0  0  0
   -7.7519    8.0940    3.1059 C   0  0  0  0  0  0  0  0  0  0  0  0
   -6.5862    8.3119    3.7332 C   0  0  0  0  0  0  0  0  0  0  0  0
   -5.8659    9.4940    3.4755 C   0  0  0  0  0  0  0  0  0  0  0  0
   -6.3542   10.4411    2.5609 C   0  0  0  0  0  0  0  0  0  0  0  0
   -9.4003    6.0446    5.1699 C   0  0  0  0  0  0  0  0  0  0  0  0
   -8.5704    5.8337    3.9414 C   0  0  0  0  0  0  0  0  0  0  0  0
   -5.7058   11.6046    2.2838 N   0  0  0  0  0  0  0  0  0  0  0  0
   -5.9598   12.4404    2.7378 H   0  0  0  0  0  0  0  0  0  0  0  0
   -4.4509   11.5887    1.1410 S   0  0  0  0  0  0  0  0  0  0  0  0
   -3.3565   10.6422    1.6401 O   0  0  0  0  0  0  0  0  0  0  0  0
   -3.9220   12.9996    0.9075 O   0  0  0  0  0  0  0  0  0  0  0  0
   -5.0323   10.9304   -0.4064 C   0  0  0  0  0  0  0  0  0  0  0  0
   -5.6738   11.7938   -1.3008 C   0  0  0  0  0  0  0  0  0  0  0  0
   -6.1568   11.3298   -2.5167 C   0  0  0  0  0  0  0  0  0  0  0  0
   -6.9987   12.5428   -3.7116 Br  0  0  0  0  0  0  0  0  0  0  0  0
   -6.0019    9.9918   -2.8454 C   0  0  0  0  0  0  0  0  0  0  0  0
   -5.3730    9.1125   -1.9547 C   0  0  0  0  0  0  0  0  0  0  0  0
   -4.8840    9.5700   -0.7222 C   0  0  0  0  0  0  0  0  0  0  0  0
   -4.2382    8.7890    0.2264 O   0  0  0  0  0  0  0  0  0  0  0  0
   -3.4181    7.6886   -0.2259 C   0  0  0  0  0  0  0  0  0  0  0  0
 25 26  1  0  0  0
 25 23  2  0  0  0
 26 27  2  0  0  0
 29 28  1  0  0  0
 24 23  1  0  0  0
 23 22  1  0  0  0
 27 28  1  0  0  0
 27 21  1  0  0  0
 22 21  2  0  0  0
  6  5  1  0  0  0
  6  7  2  0  0  0
 21 18  1  0  0  0
  5  4  2  0  0  0
  7  8  1  0  0  0
  4  9  1  0  0  0
  4  2  1  0  0  0
 20 18  2  0  0  0
 18 16  1  0  0  0
 18 19  2  0  0  0
  8  9  1  0  0  0
  8 13  2  0  0  0
  3  2  2  0  0  0
  9 10  2  0  0  0
  2  1  1  0  0  0
 16 13  1  0  0  0
 13 12  1  0  0  0
 10  1  1  0  0  0
 10 11  1  0  0  0
  1 15  1  0  0  0
 14 15  1  0  0  0
 12 11  2  0  0  0
 16 17  1  0  0  0
M  END
> <minimizedAffinity>
-6.83703

$$$$
