1SWG_BTN_A_600


 19 20  0  0  0  0  0  0  0  0999 V2000
   11.2314   19.8412   18.3098 C   0  0  0  0  0  0  0  0  0  0  0  0
   11.4509   20.1249   20.1199 S   0  0  0  0  0  0  0  0  0  0  0  0
   12.2350   21.7309   19.7439 C   0  0  0  0  0  0  0  0  0  0  0  0
   11.4257   22.3506   18.6296 C   0  0  0  0  0  0  0  0  0  0  0  0
   10.2520   23.0967   19.0622 N   0  0  0  0  0  0  0  0  0  0  0  0
    9.1119   22.5497   18.6337 C   0  0  0  0  0  0  0  0  0  0  0  0
    7.9411   22.9551   18.8225 O   0  0  0  0  0  0  0  0  0  0  0  0
    9.4184   21.4656   17.8819 N   0  0  0  0  0  0  0  0  0  0  0  0
   10.8247   21.1953   17.7821 C   0  0  0  0  0  0  0  0  0  0  0  0
   10.2946   23.9137   19.6099 H   0  0  0  0  0  0  0  0  0  0  0  0
    8.7351   20.9104   17.4415 H   0  0  0  0  0  0  0  0  0  0  0  0
   10.3778   18.6209   17.9684 C   0  0  0  0  0  0  0  0  0  0  0  0
   11.1603   17.2945   17.9027 C   0  0  0  0  0  0  0  0  0  0  0  0
   10.4758   16.1332   17.2011 C   0  0  0  0  0  0  0  0  0  0  0  0
   11.1248   14.8124   17.6597 C   0  0  0  0  0  0  0  0  0  0  0  0
   10.2454   13.6356   17.4480 C   0  0  0  0  0  0  0  0  0  0  0  0
    9.1291   13.8599   16.9086 O   0  0  0  0  0  0  0  0  0  0  0  0
   10.5883   12.4701   17.8074 O   0  0  0  0  0  0  0  0  0  0  0  0
   11.4244   12.3299   18.2065 H   0  0  0  0  0  0  0  0  0  0  0  0
 16 17  2  0  0  0
 16 18  1  0  0  0
 16 15  1  0  0  0
 15 14  1  0  0  0
 14 13  1  0  0  0
 13 12  1  0  0  0
 12  1  1  0  0  0
  1  2  1  0  0  0
  1  9  1  0  0  0
  2  3  1  0  0  0
  3  4  1  0  0  0
  4  5  1  0  0  0
  4  9  1  0  0  0
  5  6  1  0  0  0
  6  7  2  0  0  0
  6  8  1  0  0  0
  8  9  1  0  0  0
 18 19  1  0  0  0
  5 10  1  0  0  0
  8 11  1  0  0  0
M  END
> <minimizedAffinity>
-7.32795

$$$$
1SWG_BTN_A_600


 19 20  0  0  0  0  0  0  0  0999 V2000
   11.3793   20.0160   18.3528 C   0  0  0  0  0  0  0  0  0  0  0  0
   11.4066   20.1740   20.1910 S   0  0  0  0  0  0  0  0  0  0  0  0
   12.1247   21.8433   20.0081 C   0  0  0  0  0  0  0  0  0  0  0  0
   11.3900   22.5009   18.8642 C   0  0  0  0  0  0  0  0  0  0  0  0
   10.1374   23.1488   19.2281 N   0  0  0  0  0  0  0  0  0  0  0  0
    9.0788   22.5756   18.6506 C   0  0  0  0  0  0  0  0  0  0  0  0
    7.8729   22.9027   18.7491 O   0  0  0  0  0  0  0  0  0  0  0  0
    9.5209   21.5690   17.8597 N   0  0  0  0  0  0  0  0  0  0  0  0
   10.9440   21.3823   17.8825 C   0  0  0  0  0  0  0  0  0  0  0  0
   10.0778   23.9235   19.8328 H   0  0  0  0  0  0  0  0  0  0  0  0
    8.9177   21.0128   17.3156 H   0  0  0  0  0  0  0  0  0  0  0  0
   10.6376   18.7810   17.8436 C   0  0  0  0  0  0  0  0  0  0  0  0
   11.5534   17.6697   17.2937 C   0  0  0  0  0  0  0  0  0  0  0  0
   11.6016   16.3727   18.0841 C   0  0  0  0  0  0  0  0  0  0  0  0
   12.8483   16.3793   18.9906 C   0  0  0  0  0  0  0  0  0  0  0  0
   13.9217   15.4800   18.4987 C   0  0  0  0  0  0  0  0  0  0  0  0
   14.9954   15.4761   19.1577 O   0  0  0  0  0  0  0  0  0  0  0  0
   13.7756   14.7681   17.4608 O   0  0  0  0  0  0  0  0  0  0  0  0
   12.9667   14.7891   16.9883 H   0  0  0  0  0  0  0  0  0  0  0  0
 16 17  2  0  0  0
 16 18  1  0  0  0
 16 15  1  0  0  0
 15 14  1  0  0  0
 14 13  1  0  0  0
 13 12  1  0  0  0
 12  1  1  0  0  0
  1  2  1  0  0  0
  1  9  1  0  0  0
  2  3  1  0  0  0
  3  4  1  0  0  0
  4  5  1  0  0  0
  4  9  1  0  0  0
  5  6  1  0  0  0
  6  7  2  0  0  0
  6  8  1  0  0  0
  8  9  1  0  0  0
 18 19  1  0  0  0
  5 10  1  0  0  0
  8 11  1  0  0  0
M  END
> <minimizedAffinity>
-7.20493

$$$$
1SWG_BTN_A_600


 19 20  0  0  0  0  0  0  0  0999 V2000
   11.5015   18.9690   19.1257 C   0  0  0  0  0  0  0  0  0  0  0  0
   12.7860   17.7125   18.7061 S   0  0  0  0  0  0  0  0  0  0  0  0
   11.4611   16.5875   18.1452 C   0  0  0  0  0  0  0  0  0  0  0  0
   10.4728   17.4382   17.3835 C   0  0  0  0  0  0  0  0  0  0  0  0
   10.7979   17.6526   15.9800 N   0  0  0  0  0  0  0  0  0  0  0  0
   11.0424   18.9354   15.7021 C   0  0  0  0  0  0  0  0  0  0  0  0
   11.3341   19.4445   14.5946 O   0  0  0  0  0  0  0  0  0  0  0  0
   10.8705   19.6549   16.8366 N   0  0  0  0  0  0  0  0  0  0  0  0
   10.5179   18.8699   17.9854 C   0  0  0  0  0  0  0  0  0  0  0  0
   10.8333   16.9316   15.3105 H   0  0  0  0  0  0  0  0  0  0  0  0
   10.9783   20.6329   16.8704 H   0  0  0  0  0  0  0  0  0  0  0  0
   12.0669   20.3366   19.5057 C   0  0  0  0  0  0  0  0  0  0  0  0
   11.2334   21.1020   20.5524 C   0  0  0  0  0  0  0  0  0  0  0  0
   10.9165   22.5553   20.2414 C   0  0  0  0  0  0  0  0  0  0  0  0
   10.5227   22.6801   18.7564 C   0  0  0  0  0  0  0  0  0  0  0  0
    9.0736   22.4574   18.5250 C   0  0  0  0  0  0  0  0  0  0  0  0
    8.2851   23.0057   19.3404 O   0  0  0  0  0  0  0  0  0  0  0  0
    8.6505   21.7388   17.5711 O   0  0  0  0  0  0  0  0  0  0  0  0
    9.2580   21.3421   16.9782 H   0  0  0  0  0  0  0  0  0  0  0  0
 16 17  2  0  0  0
 16 18  1  0  0  0
 16 15  1  0  0  0
 15 14  1  0  0  0
 14 13  1  0  0  0
 13 12  1  0  0  0
 12  1  1  0  0  0
  1  2  1  0  0  0
  1  9  1  0  0  0
  2  3  1  0  0  0
  3  4  1  0  0  0
  4  5  1  0  0  0
  4  9  1  0  0  0
  5  6  1  0  0  0
  6  7  2  0  0  0
  6  8  1  0  0  0
  8  9  1  0  0  0
 18 19  1  0  0  0
  5 10  1  0  0  0
  8 11  1  0  0  0
M  END
> <minimizedAffinity>
-7.19625

$$$$
1SWG_BTN_A_600


 19 20  0  0  0  0  0  0  0  0999 V2000
   11.2557   17.7844   18.2221 C   0  0  0  0  0  0  0  0  0  0  0  0
   12.9390   17.0580   18.0130 S   0  0  0  0  0  0  0  0  0  0  0  0
   12.2071   15.3915   18.1627 C   0  0  0  0  0  0  0  0  0  0  0  0
   10.9209   15.4176   17.3719 C   0  0  0  0  0  0  0  0  0  0  0  0
   11.0686   15.1554   15.9468 N   0  0  0  0  0  0  0  0  0  0  0  0
   10.7265   16.2051   15.1958 C   0  0  0  0  0  0  0  0  0  0  0  0
   10.7285   16.2947   13.9457 O   0  0  0  0  0  0  0  0  0  0  0  0
   10.3048   17.1950   16.0182 N   0  0  0  0  0  0  0  0  0  0  0  0
   10.3681   16.8690   17.4147 C   0  0  0  0  0  0  0  0  0  0  0  0
   11.3855   14.2993   15.5781 H   0  0  0  0  0  0  0  0  0  0  0  0
    9.9823   18.0641   15.6866 H   0  0  0  0  0  0  0  0  0  0  0  0
   11.1914   19.2912   17.9778 C   0  0  0  0  0  0  0  0  0  0  0  0
   11.6197   20.1507   19.1836 C   0  0  0  0  0  0  0  0  0  0  0  0
   10.5050   20.7797   20.0028 C   0  0  0  0  0  0  0  0  0  0  0  0
    9.1663   20.5926   19.2621 C   0  0  0  0  0  0  0  0  0  0  0  0
    8.6915   21.8380   18.6088 C   0  0  0  0  0  0  0  0  0  0  0  0
    8.5777   21.8046   17.3546 O   0  0  0  0  0  0  0  0  0  0  0  0
    8.4328   22.8857   19.2727 O   0  0  0  0  0  0  0  0  0  0  0  0
    8.5255   22.8844   20.2051 H   0  0  0  0  0  0  0  0  0  0  0  0
 16 17  2  0  0  0
 16 18  1  0  0  0
 16 15  1  0  0  0
 15 14  1  0  0  0
 14 13  1  0  0  0
 13 12  1  0  0  0
 12  1  1  0  0  0
  1  2  1  0  0  0
  1  9  1  0  0  0
  2  3  1  0  0  0
  3  4  1  0  0  0
  4  5  1  0  0  0
  4  9  1  0  0  0
  5  6  1  0  0  0
  6  7  2  0  0  0
  6  8  1  0  0  0
  8  9  1  0  0  0
 18 19  1  0  0  0
  5 10  1  0  0  0
  8 11  1  0  0  0
M  END
> <minimizedAffinity>
-6.69088

$$$$
1SWG_BTN_A_600


 19 20  0  0  0  0  0  0  0  0999 V2000
   11.5946   18.1925   17.0434 C   0  0  0  0  0  0  0  0  0  0  0  0
   11.3029   18.4038   15.2337 S   0  0  0  0  0  0  0  0  0  0  0  0
   12.3530   16.9422   14.9230 C   0  0  0  0  0  0  0  0  0  0  0  0
   11.9906   15.9243   15.9780 C   0  0  0  0  0  0  0  0  0  0  0  0
   10.8417   15.0880   15.6581 N   0  0  0  0  0  0  0  0  0  0  0  0
    9.8211   15.2788   16.4975 C   0  0  0  0  0  0  0  0  0  0  0  0
    8.7053   14.7079   16.5002 O   0  0  0  0  0  0  0  0  0  0  0  0
   10.2011   16.1875   17.4270 N   0  0  0  0  0  0  0  0  0  0  0  0
   11.5302   16.6981   17.2441 C   0  0  0  0  0  0  0  0  0  0  0  0
   10.8202   14.4526   14.9064 H   0  0  0  0  0  0  0  0  0  0  0  0
    9.6158   16.4735   18.1651 H   0  0  0  0  0  0  0  0  0  0  0  0
   10.7374   19.1006   17.9239 C   0  0  0  0  0  0  0  0  0  0  0  0
   11.4689   19.6672   19.1568 C   0  0  0  0  0  0  0  0  0  0  0  0
   10.6777   20.6146   20.0431 C   0  0  0  0  0  0  0  0  0  0  0  0
    9.3149   20.9039   19.3838 C   0  0  0  0  0  0  0  0  0  0  0  0
    9.0881   22.3509   19.1429 C   0  0  0  0  0  0  0  0  0  0  0  0
   10.0004   23.1321   19.5234 O   0  0  0  0  0  0  0  0  0  0  0  0
    8.0265   22.7813   18.6017 O   0  0  0  0  0  0  0  0  0  0  0  0
    7.3630   22.1792   18.3275 H   0  0  0  0  0  0  0  0  0  0  0  0
 16 17  2  0  0  0
 16 18  1  0  0  0
 16 15  1  0  0  0
 15 14  1  0  0  0
 14 13  1  0  0  0
 13 12  1  0  0  0
 12  1  1  0  0  0
  1  2  1  0  0  0
  1  9  1  0  0  0
  2  3  1  0  0  0
  3  4  1  0  0  0
  4  5  1  0  0  0
  4  9  1  0  0  0
  5  6  1  0  0  0
  6  7  2  0  0  0
  6  8  1  0  0  0
  8  9  1  0  0  0
 18 19  1  0  0  0
  5 10  1  0  0  0
  8 11  1  0  0  0
M  END
> <minimizedAffinity>
-6.37847

$$$$
1SWG_BTN_A_600


 19 20  0  0  0  0  0  0  0  0999 V2000
   10.4549   19.6414   18.1008 C   0  0  0  0  0  0  0  0  0  0  0  0
   10.9438   20.9422   16.8868 S   0  0  0  0  0  0  0  0  0  0  0  0
    9.2443   21.6072   16.9585 C   0  0  0  0  0  0  0  0  0  0  0  0
    8.8307   21.5657   18.4103 C   0  0  0  0  0  0  0  0  0  0  0  0
    9.2461   22.7153   19.2023 N   0  0  0  0  0  0  0  0  0  0  0  0
   10.1062   22.3861   20.1690 C   0  0  0  0  0  0  0  0  0  0  0  0
   10.6350   23.1371   21.0219 O   0  0  0  0  0  0  0  0  0  0  0  0
   10.2968   21.0459   20.1283 N   0  0  0  0  0  0  0  0  0  0  0  0
    9.5761   20.3790   19.0812 C   0  0  0  0  0  0  0  0  0  0  0  0
    8.9279   23.6332   19.0425 H   0  0  0  0  0  0  0  0  0  0  0  0
   10.8798   20.5697   20.7628 H   0  0  0  0  0  0  0  0  0  0  0  0
   11.6226   18.8081   18.6268 C   0  0  0  0  0  0  0  0  0  0  0  0
   11.5105   17.2988   18.3345 C   0  0  0  0  0  0  0  0  0  0  0  0
   10.3966   16.8671   17.3952 C   0  0  0  0  0  0  0  0  0  0  0  0
   10.8662   15.6442   16.5829 C   0  0  0  0  0  0  0  0  0  0  0  0
   10.3731   14.3599   17.1401 C   0  0  0  0  0  0  0  0  0  0  0  0
    9.1882   14.0424   16.8529 O   0  0  0  0  0  0  0  0  0  0  0  0
   11.0964   13.6298   17.8812 O   0  0  0  0  0  0  0  0  0  0  0  0
   11.9748   13.8886   18.0798 H   0  0  0  0  0  0  0  0  0  0  0  0
 16 17  2  0  0  0
 16 18  1  0  0  0
 16 15  1  0  0  0
 15 14  1  0  0  0
 14 13  1  0  0  0
 13 12  1  0  0  0
 12  1  1  0  0  0
  1  2  1  0  0  0
  1  9  1  0  0  0
  2  3  1  0  0  0
  3  4  1  0  0  0
  4  5  1  0  0  0
  4  9  1  0  0  0
  5  6  1  0  0  0
  6  7  2  0  0  0
  6  8  1  0  0  0
  8  9  1  0  0  0
 18 19  1  0  0  0
  5 10  1  0  0  0
  8 11  1  0  0  0
M  END
> <minimizedAffinity>
-6.25063

$$$$
1SWG_BTN_A_600


 19 20  0  0  0  0  0  0  0  0999 V2000
   11.7772   17.2548   17.3068 C   0  0  0  0  0  0  0  0  0  0  0  0
   10.8862   15.6389   17.3063 S   0  0  0  0  0  0  0  0  0  0  0  0
   11.8452   15.1432   15.8332 C   0  0  0  0  0  0  0  0  0  0  0  0
   13.2615   15.6115   16.0685 C   0  0  0  0  0  0  0  0  0  0  0  0
   14.0927   14.6967   16.8391 N   0  0  0  0  0  0  0  0  0  0  0  0
   14.4762   15.2159   18.0079 C   0  0  0  0  0  0  0  0  0  0  0  0
   15.2014   14.6921   18.8857 O   0  0  0  0  0  0  0  0  0  0  0  0
   13.9875   16.4761   18.0925 N   0  0  0  0  0  0  0  0  0  0  0  0
   13.1982   16.8799   16.9635 C   0  0  0  0  0  0  0  0  0  0  0  0
   14.3438   13.7956   16.5322 H   0  0  0  0  0  0  0  0  0  0  0  0
   14.1589   17.0651   18.8626 H   0  0  0  0  0  0  0  0  0  0  0  0
   11.5105   18.1142   18.5416 C   0  0  0  0  0  0  0  0  0  0  0  0
   11.1585   19.5825   18.2316 C   0  0  0  0  0  0  0  0  0  0  0  0
   10.5862   20.4026   19.3759 C   0  0  0  0  0  0  0  0  0  0  0  0
    9.2196   20.9762   18.9524 C   0  0  0  0  0  0  0  0  0  0  0  0
    9.1433   22.4508   19.1029 C   0  0  0  0  0  0  0  0  0  0  0  0
    8.0552   22.9925   18.7714 O   0  0  0  0  0  0  0  0  0  0  0  0
   10.1248   23.1327   19.5235 O   0  0  0  0  0  0  0  0  0  0  0  0
   10.9234   22.7055   19.7638 H   0  0  0  0  0  0  0  0  0  0  0  0
 16 17  2  0  0  0
 16 18  1  0  0  0
 16 15  1  0  0  0
 15 14  1  0  0  0
 14 13  1  0  0  0
 13 12  1  0  0  0
 12  1  1  0  0  0
  1  2  1  0  0  0
  1  9  1  0  0  0
  2  3  1  0  0  0
  3  4  1  0  0  0
  4  5  1  0  0  0
  4  9  1  0  0  0
  5  6  1  0  0  0
  6  7  2  0  0  0
  6  8  1  0  0  0
  8  9  1  0  0  0
 18 19  1  0  0  0
  5 10  1  0  0  0
  8 11  1  0  0  0
M  END
> <minimizedAffinity>
-6.14105

$$$$
1SWG_BTN_A_600


 19 20  0  0  0  0  0  0  0  0999 V2000
   12.6808   16.3945   17.5070 C   0  0  0  0  0  0  0  0  0  0  0  0
   12.1131   14.6557   17.7502 S   0  0  0  0  0  0  0  0  0  0  0  0
   13.1291   14.1540   16.3180 C   0  0  0  0  0  0  0  0  0  0  0  0
   14.4336   14.9056   16.4358 C   0  0  0  0  0  0  0  0  0  0  0  0
   15.4337   14.2741   17.2859 N   0  0  0  0  0  0  0  0  0  0  0  0
   15.7271   15.0082   18.3619 C   0  0  0  0  0  0  0  0  0  0  0  0
   16.5502   14.7518   19.2716 O   0  0  0  0  0  0  0  0  0  0  0  0
   15.0089   16.1548   18.3012 N   0  0  0  0  0  0  0  0  0  0  0  0
   14.1424   16.2486   17.1607 C   0  0  0  0  0  0  0  0  0  0  0  0
   15.8474   13.4027   17.0889 H   0  0  0  0  0  0  0  0  0  0  0  0
   15.0756   16.8635   18.9813 H   0  0  0  0  0  0  0  0  0  0  0  0
   12.2720   17.3472   18.6293 C   0  0  0  0  0  0  0  0  0  0  0  0
   11.2490   18.4219   18.2115 C   0  0  0  0  0  0  0  0  0  0  0  0
   11.3917   19.7882   18.8612 C   0  0  0  0  0  0  0  0  0  0  0  0
   10.6958   20.8427   17.9783 C   0  0  0  0  0  0  0  0  0  0  0  0
    9.3162   21.1514   18.4305 C   0  0  0  0  0  0  0  0  0  0  0  0
    8.9960   20.7370   19.5763 O   0  0  0  0  0  0  0  0  0  0  0  0
    8.4963   21.7807   17.6976 O   0  0  0  0  0  0  0  0  0  0  0  0
    8.7594   22.0784   16.8490 H   0  0  0  0  0  0  0  0  0  0  0  0
 16 17  2  0  0  0
 16 18  1  0  0  0
 16 15  1  0  0  0
 15 14  1  0  0  0
 14 13  1  0  0  0
 13 12  1  0  0  0
 12  1  1  0  0  0
  1  2  1  0  0  0
  1  9  1  0  0  0
  2  3  1  0  0  0
  3  4  1  0  0  0
  4  5  1  0  0  0
  4  9  1  0  0  0
  5  6  1  0  0  0
  6  7  2  0  0  0
  6  8  1  0  0  0
  8  9  1  0  0  0
 18 19  1  0  0  0
  5 10  1  0  0  0
  8 11  1  0  0  0
M  END
> <minimizedAffinity>
-5.77878

$$$$
1SWG_BTN_A_600


 19 20  0  0  0  0  0  0  0  0999 V2000
   10.5543   19.2787   17.7109 C   0  0  0  0  0  0  0  0  0  0  0  0
   10.9547   20.8375   16.8082 S   0  0  0  0  0  0  0  0  0  0  0  0
    9.6234   21.6803   17.7316 C   0  0  0  0  0  0  0  0  0  0  0  0
    9.7135   21.1870   19.1561 C   0  0  0  0  0  0  0  0  0  0  0  0
   10.6632   21.9029   19.9969 N   0  0  0  0  0  0  0  0  0  0  0  0
   11.6677   21.1259   20.4093 C   0  0  0  0  0  0  0  0  0  0  0  0
   12.6307   21.4353   21.1494 O   0  0  0  0  0  0  0  0  0  0  0  0
   11.4599   19.8757   19.9318 N   0  0  0  0  0  0  0  0  0  0  0  0
   10.2827   19.7417   19.1214 C   0  0  0  0  0  0  0  0  0  0  0  0
   10.5744   22.8541   20.2347 H   0  0  0  0  0  0  0  0  0  0  0  0
   12.0646   19.1230   20.1241 H   0  0  0  0  0  0  0  0  0  0  0  0
   11.5545   18.1477   17.4772 C   0  0  0  0  0  0  0  0  0  0  0  0
   11.1243   16.7867   18.0592 C   0  0  0  0  0  0  0  0  0  0  0  0
   11.8752   15.5635   17.5596 C   0  0  0  0  0  0  0  0  0  0  0  0
   13.3392   15.9514   17.2733 C   0  0  0  0  0  0  0  0  0  0  0  0
   14.3002   15.2835   18.1863 C   0  0  0  0  0  0  0  0  0  0  0  0
   14.1741   15.5353   19.4143 O   0  0  0  0  0  0  0  0  0  0  0  0
   15.2114   14.5164   17.7546 O   0  0  0  0  0  0  0  0  0  0  0  0
   15.2837   14.3452   16.8362 H   0  0  0  0  0  0  0  0  0  0  0  0
 16 17  2  0  0  0
 16 18  1  0  0  0
 16 15  1  0  0  0
 15 14  1  0  0  0
 14 13  1  0  0  0
 13 12  1  0  0  0
 12  1  1  0  0  0
  1  2  1  0  0  0
  1  9  1  0  0  0
  2  3  1  0  0  0
  3  4  1  0  0  0
  4  5  1  0  0  0
  4  9  1  0  0  0
  5  6  1  0  0  0
  6  7  2  0  0  0
  6  8  1  0  0  0
  8  9  1  0  0  0
 18 19  1  0  0  0
  5 10  1  0  0  0
  8 11  1  0  0  0
M  END
> <minimizedAffinity>
-5.72364

$$$$
1SWG_BTN_A_600


 19 20  0  0  0  0  0  0  0  0999 V2000
   11.7259   17.7705   16.1786 C   0  0  0  0  0  0  0  0  0  0  0  0
   11.4323   17.5699   14.3680 S   0  0  0  0  0  0  0  0  0  0  0  0
   12.1336   15.8867   14.4699 C   0  0  0  0  0  0  0  0  0  0  0  0
   11.5928   15.2751   15.7403 C   0  0  0  0  0  0  0  0  0  0  0  0
   10.2819   14.6527   15.6147 N   0  0  0  0  0  0  0  0  0  0  0  0
    9.3519   15.2670   16.3498 C   0  0  0  0  0  0  0  0  0  0  0  0
    8.1400   14.9700   16.4689 O   0  0  0  0  0  0  0  0  0  0  0  0
    9.9461   16.2792   17.0255 N   0  0  0  0  0  0  0  0  0  0  0  0
   11.3478   16.4273   16.7534 C   0  0  0  0  0  0  0  0  0  0  0  0
   10.1016   13.8664   15.0504 H   0  0  0  0  0  0  0  0  0  0  0  0
    9.4584   16.8635   17.6499 H   0  0  0  0  0  0  0  0  0  0  0  0
   11.1109   19.0360   16.7741 C   0  0  0  0  0  0  0  0  0  0  0  0
   10.9848   19.0208   18.3103 C   0  0  0  0  0  0  0  0  0  0  0  0
   10.2358   20.1810   18.9445 C   0  0  0  0  0  0  0  0  0  0  0  0
   11.1088   21.4490   18.8664 C   0  0  0  0  0  0  0  0  0  0  0  0
   11.3682   22.0514   20.1979 C   0  0  0  0  0  0  0  0  0  0  0  0
   10.7448   23.1135   20.4637 O   0  0  0  0  0  0  0  0  0  0  0  0
   12.1869   21.5379   21.0172 O   0  0  0  0  0  0  0  0  0  0  0  0
   12.6380   20.7471   20.7953 H   0  0  0  0  0  0  0  0  0  0  0  0
 16 17  2  0  0  0
 16 18  1  0  0  0
 16 15  1  0  0  0
 15 14  1  0  0  0
 14 13  1  0  0  0
 13 12  1  0  0  0
 12  1  1  0  0  0
  1  2  1  0  0  0
  1  9  1  0  0  0
  2  3  1  0  0  0
  3  4  1  0  0  0
  4  5  1  0  0  0
  4  9  1  0  0  0
  5  6  1  0  0  0
  6  7  2  0  0  0
  6  8  1  0  0  0
  8  9  1  0  0  0
 18 19  1  0  0  0
  5 10  1  0  0  0
  8 11  1  0  0  0
M  END
> <minimizedAffinity>
-5.66785

$$$$
