2BR1_PFP_A_1277


 31 34  0  0  0  0  0  0  0  0999 V2000
   15.6679   -3.1220   11.2316 C   0  0  0  0  0  0  0  0  0  0  0  0
   16.5686   -2.6053   10.3962 C   0  0  0  0  0  0  0  0  0  0  0  0
   17.9062   -2.8897   10.1359 C   0  0  0  0  0  0  0  0  0  0  0  0
   18.5415   -2.2312    9.1566 N   0  0  0  0  0  0  0  0  0  0  0  0
   17.8904   -1.3338    8.4148 C   0  0  0  0  0  0  0  0  0  0  0  0
   16.5826   -1.0688    8.6421 N   0  0  0  0  0  0  0  0  0  0  0  0
   15.9206   -1.6963    9.6204 C   0  0  0  0  0  0  0  0  0  0  0  0
   14.6946   -1.6262    9.9971 O   0  0  0  0  0  0  0  0  0  0  0  0
   14.4914   -2.4120   10.9977 C   0  0  0  0  0  0  0  0  0  0  0  0
   16.3058   -5.8951   14.5196 C   0  0  0  0  0  0  0  0  0  0  0  0
   16.4826   -4.5041   14.7331 C   0  0  0  0  0  0  0  0  0  0  0  0
   16.2921   -3.5824   13.6418 C   0  0  0  0  0  0  0  0  0  0  0  0
   15.9207   -6.3631   13.2555 C   0  0  0  0  0  0  0  0  0  0  0  0
   15.7388   -5.4577   12.1801 C   0  0  0  0  0  0  0  0  0  0  0  0
   15.9471   -4.0708   12.3645 C   0  0  0  0  0  0  0  0  0  0  0  0
   16.5903   -6.0944   16.8101 C   0  0  0  0  0  0  0  0  0  0  0  0
   16.4383   -6.8035   15.5920 O   0  0  0  0  0  0  0  0  0  0  0  0
   13.2837   -2.5699   11.6319 C   0  0  0  0  0  0  0  0  0  0  0  0
   12.8102   -1.5448   12.4618 C   0  0  0  0  0  0  0  0  0  0  0  0
   11.6144   -1.6918   13.1360 C   0  0  0  0  0  0  0  0  0  0  0  0
   10.8937   -2.8594   13.0183 C   0  0  0  0  0  0  0  0  0  0  0  0
   11.3744   -3.9031   12.2102 C   0  0  0  0  0  0  0  0  0  0  0  0
   12.5837   -3.7572   11.5353 C   0  0  0  0  0  0  0  0  0  0  0  0
    9.7200   -2.9977   13.6843 O   0  0  0  0  0  0  0  0  0  0  0  0
    8.7223   -1.9204   13.6381 C   0  0  0  0  0  0  0  0  0  0  0  0
   18.5622   -3.7864   10.8565 N   0  0  0  0  0  0  0  0  0  0  0  0
   18.3454   -4.7430   10.7713 H   0  0  0  0  0  0  0  0  0  0  0  0
   19.6289   -3.3426   11.7959 C   0  0  0  0  0  0  0  0  0  0  0  0
   21.0647   -4.0036   11.7394 C   0  0  0  0  0  0  0  0  0  0  0  0
   22.2671   -3.2134   12.1129 O   0  0  0  0  0  0  0  0  0  0  0  0
   22.3962   -2.4980   11.4707 H   0  0  0  0  0  0  0  0  0  0  0  0
 16 17  1  0  0  0
 17 10  1  0  0  0
 10 11  2  0  0  0
 10 13  1  0  0  0
 11 12  1  0  0  0
 12 15  2  0  0  0
 13 14  2  0  0  0
 14 15  1  0  0  0
 15  1  1  0  0  0
  1  2  1  0  0  0
  1  9  2  0  0  0
  2  3  2  0  0  0
  2  7  1  0  0  0
  3 26  1  0  0  0
  3  4  1  0  0  0
 26 28  1  0  0  0
 28 29  1  0  0  0
 29 30  1  0  0  0
  4  5  2  0  0  0
  5  6  1  0  0  0
  6  7  2  0  0  0
  7  8  1  0  0  0
  8  9  1  0  0  0
  9 18  1  0  0  0
 18 19  2  0  0  0
 18 23  1  0  0  0
 19 20  1  0  0  0
 20 21  2  0  0  0
 21 24  1  0  0  0
 21 22  1  0  0  0
 24 25  1  0  0  0
 22 23  2  0  0  0
 26 27  1  0  0  0
 30 31  1  0  0  0
M  END
> <minimizedAffinity>
-8.47241

$$$$
2BR1_PFP_A_1277


 31 34  0  0  0  0  0  0  0  0999 V2000
   14.7811   -3.2225   11.7937 C   0  0  0  0  0  0  0  0  0  0  0  0
   14.3860   -2.1470   11.1130 C   0  0  0  0  0  0  0  0  0  0  0  0
   14.9011   -1.4690   10.0118 C   0  0  0  0  0  0  0  0  0  0  0  0
   14.2182   -0.4387    9.4936 N   0  0  0  0  0  0  0  0  0  0  0  0
   13.0387   -0.0852   10.0068 C   0  0  0  0  0  0  0  0  0  0  0  0
   12.5162   -0.7546   11.0608 N   0  0  0  0  0  0  0  0  0  0  0  0
   13.1766   -1.7785   11.6127 C   0  0  0  0  0  0  0  0  0  0  0  0
   12.8714   -2.5615   12.5841 O   0  0  0  0  0  0  0  0  0  0  0  0
   13.8178   -3.4128   12.7830 C   0  0  0  0  0  0  0  0  0  0  0  0
   18.5804   -5.3250   11.5626 C   0  0  0  0  0  0  0  0  0  0  0  0
   18.4595   -4.1886   12.4027 C   0  0  0  0  0  0  0  0  0  0  0  0
   17.2085   -3.4762   12.4677 C   0  0  0  0  0  0  0  0  0  0  0  0
   17.4750   -5.7645   10.8209 C   0  0  0  0  0  0  0  0  0  0  0  0
   16.2458   -5.0609   10.8797 C   0  0  0  0  0  0  0  0  0  0  0  0
   16.1173   -3.9036   11.6830 C   0  0  0  0  0  0  0  0  0  0  0  0
   20.8900   -5.1787   11.4561 C   0  0  0  0  0  0  0  0  0  0  0  0
   19.7837   -6.0622   11.5294 O   0  0  0  0  0  0  0  0  0  0  0  0
   13.7976   -4.3890   13.7486 C   0  0  0  0  0  0  0  0  0  0  0  0
   13.1143   -5.5857   13.4941 C   0  0  0  0  0  0  0  0  0  0  0  0
   13.0517   -6.5701   14.4600 C   0  0  0  0  0  0  0  0  0  0  0  0
   13.6372   -6.3695   15.6903 C   0  0  0  0  0  0  0  0  0  0  0  0
   14.3008   -5.1619   15.9637 C   0  0  0  0  0  0  0  0  0  0  0  0
   14.3583   -4.1664   14.9916 C   0  0  0  0  0  0  0  0  0  0  0  0
   13.5712   -7.3405   16.6352 O   0  0  0  0  0  0  0  0  0  0  0  0
   14.3534   -8.5732   16.4722 C   0  0  0  0  0  0  0  0  0  0  0  0
   16.0652   -1.8162    9.4845 N   0  0  0  0  0  0  0  0  0  0  0  0
   16.1434   -2.6483    8.9644 H   0  0  0  0  0  0  0  0  0  0  0  0
   17.2554   -0.9432    9.6813 C   0  0  0  0  0  0  0  0  0  0  0  0
   18.7128   -1.5366    9.5212 C   0  0  0  0  0  0  0  0  0  0  0  0
   19.5914   -1.0741    8.4148 O   0  0  0  0  0  0  0  0  0  0  0  0
   19.2134   -1.3497    7.5651 H   0  0  0  0  0  0  0  0  0  0  0  0
 16 17  1  0  0  0
 17 10  1  0  0  0
 10 11  2  0  0  0
 10 13  1  0  0  0
 11 12  1  0  0  0
 12 15  2  0  0  0
 13 14  2  0  0  0
 14 15  1  0  0  0
 15  1  1  0  0  0
  1  2  1  0  0  0
  1  9  2  0  0  0
  2  3  2  0  0  0
  2  7  1  0  0  0
  3 26  1  0  0  0
  3  4  1  0  0  0
 26 28  1  0  0  0
 28 29  1  0  0  0
 29 30  1  0  0  0
  4  5  2  0  0  0
  5  6  1  0  0  0
  6  7  2  0  0  0
  7  8  1  0  0  0
  8  9  1  0  0  0
  9 18  1  0  0  0
 18 19  2  0  0  0
 18 23  1  0  0  0
 19 20  1  0  0  0
 20 21  2  0  0  0
 21 24  1  0  0  0
 21 22  1  0  0  0
 24 25  1  0  0  0
 22 23  2  0  0  0
 26 27  1  0  0  0
 30 31  1  0  0  0
M  END
> <minimizedAffinity>
-7.98008

$$$$
2BR1_PFP_A_1277


 31 34  0  0  0  0  0  0  0  0999 V2000
   18.5729   -2.9910    9.6843 C   0  0  0  0  0  0  0  0  0  0  0  0
   19.7841   -2.9212    9.1325 C   0  0  0  0  0  0  0  0  0  0  0  0
   20.9353   -3.6946    9.2504 C   0  0  0  0  0  0  0  0  0  0  0  0
   22.0005   -3.4117    8.4876 N   0  0  0  0  0  0  0  0  0  0  0  0
   21.9485   -2.4181    7.5989 C   0  0  0  0  0  0  0  0  0  0  0  0
   20.8249   -1.6767    7.4575 N   0  0  0  0  0  0  0  0  0  0  0  0
   19.7480   -1.9214    8.2120 C   0  0  0  0  0  0  0  0  0  0  0  0
   18.5856   -1.3753    8.2358 O   0  0  0  0  0  0  0  0  0  0  0  0
   17.8520   -1.9306    9.1378 C   0  0  0  0  0  0  0  0  0  0  0  0
   17.2533   -5.4769   12.9990 C   0  0  0  0  0  0  0  0  0  0  0  0
   17.7788   -4.1853   13.2588 C   0  0  0  0  0  0  0  0  0  0  0  0
   18.2362   -3.3653   12.1656 C   0  0  0  0  0  0  0  0  0  0  0  0
   17.1570   -5.9377   11.6785 C   0  0  0  0  0  0  0  0  0  0  0  0
   17.6121   -5.1341   10.6031 C   0  0  0  0  0  0  0  0  0  0  0  0
   18.1737   -3.8586   10.8459 C   0  0  0  0  0  0  0  0  0  0  0  0
   16.2468   -7.4907   13.5452 C   0  0  0  0  0  0  0  0  0  0  0  0
   16.7540   -6.2691   14.0552 O   0  0  0  0  0  0  0  0  0  0  0  0
   16.5540   -1.5768    9.4131 C   0  0  0  0  0  0  0  0  0  0  0  0
   16.2019   -0.2204    9.4107 C   0  0  0  0  0  0  0  0  0  0  0  0
   14.9114    0.1639    9.7156 C   0  0  0  0  0  0  0  0  0  0  0  0
   13.9694   -0.7830   10.0513 C   0  0  0  0  0  0  0  0  0  0  0  0
   14.3206   -2.1427   10.0829 C   0  0  0  0  0  0  0  0  0  0  0  0
   15.6240   -2.5297    9.7818 C   0  0  0  0  0  0  0  0  0  0  0  0
   12.7033   -0.3984   10.3507 O   0  0  0  0  0  0  0  0  0  0  0  0
   12.2216   -0.4846   11.7358 C   0  0  0  0  0  0  0  0  0  0  0  0
   20.9974   -4.6914   10.1200 N   0  0  0  0  0  0  0  0  0  0  0  0
   20.1978   -5.2346   10.3067 H   0  0  0  0  0  0  0  0  0  0  0  0
   22.2809   -4.9875   10.8145 C   0  0  0  0  0  0  0  0  0  0  0  0
   22.5441   -4.4315   12.2717 C   0  0  0  0  0  0  0  0  0  0  0  0
   23.1024   -3.0670   12.4621 O   0  0  0  0  0  0  0  0  0  0  0  0
   24.0074   -3.0366   12.1145 H   0  0  0  0  0  0  0  0  0  0  0  0
 16 17  1  0  0  0
 17 10  1  0  0  0
 10 11  2  0  0  0
 10 13  1  0  0  0
 11 12  1  0  0  0
 12 15  2  0  0  0
 13 14  2  0  0  0
 14 15  1  0  0  0
 15  1  1  0  0  0
  1  2  1  0  0  0
  1  9  2  0  0  0
  2  3  2  0  0  0
  2  7  1  0  0  0
  3 26  1  0  0  0
  3  4  1  0  0  0
 26 28  1  0  0  0
 28 29  1  0  0  0
 29 30  1  0  0  0
  4  5  2  0  0  0
  5  6  1  0  0  0
  6  7  2  0  0  0
  7  8  1  0  0  0
  8  9  1  0  0  0
  9 18  1  0  0  0
 18 19  2  0  0  0
 18 23  1  0  0  0
 19 20  1  0  0  0
 20 21  2  0  0  0
 21 24  1  0  0  0
 21 22  1  0  0  0
 24 25  1  0  0  0
 22 23  2  0  0  0
 26 27  1  0  0  0
 30 31  1  0  0  0
M  END
> <minimizedAffinity>
-7.97239

$$$$
2BR1_PFP_A_1277


 31 34  0  0  0  0  0  0  0  0999 V2000
   17.2571   -2.9251   10.6050 C   0  0  0  0  0  0  0  0  0  0  0  0
   16.3463   -2.0571   10.1654 C   0  0  0  0  0  0  0  0  0  0  0  0
   14.9732   -1.9318   10.3567 C   0  0  0  0  0  0  0  0  0  0  0  0
   14.3280   -0.8805    9.8325 N   0  0  0  0  0  0  0  0  0  0  0  0
   14.9994    0.0561    9.1605 C   0  0  0  0  0  0  0  0  0  0  0  0
   16.3387   -0.0423    8.9913 N   0  0  0  0  0  0  0  0  0  0  0  0
   17.0132   -1.0850    9.4882 C   0  0  0  0  0  0  0  0  0  0  0  0
   18.2651   -1.3721    9.4731 O   0  0  0  0  0  0  0  0  0  0  0  0
   18.4713   -2.4930   10.0741 C   0  0  0  0  0  0  0  0  0  0  0  0
   16.6221   -6.7205   12.6299 C   0  0  0  0  0  0  0  0  0  0  0  0
   16.5502   -6.6618   11.2145 C   0  0  0  0  0  0  0  0  0  0  0  0
   16.7400   -5.4028   10.5396 C   0  0  0  0  0  0  0  0  0  0  0  0
   16.9037   -5.5589   13.3624 C   0  0  0  0  0  0  0  0  0  0  0  0
   17.0847   -4.3189   12.6997 C   0  0  0  0  0  0  0  0  0  0  0  0
   16.9796   -4.2339   11.2916 C   0  0  0  0  0  0  0  0  0  0  0  0
   15.5264   -7.8445   14.3337 C   0  0  0  0  0  0  0  0  0  0  0  0
   16.4899   -7.9559   13.2998 O   0  0  0  0  0  0  0  0  0  0  0  0
   19.7040   -3.0774   10.2318 C   0  0  0  0  0  0  0  0  0  0  0  0
   20.3290   -3.0230   11.4849 C   0  0  0  0  0  0  0  0  0  0  0  0
   21.5822   -3.5746   11.6618 C   0  0  0  0  0  0  0  0  0  0  0  0
   22.2371   -4.1570   10.5995 C   0  0  0  0  0  0  0  0  0  0  0  0
   21.6297   -4.1916    9.3334 C   0  0  0  0  0  0  0  0  0  0  0  0
   20.3684   -3.6294    9.1536 C   0  0  0  0  0  0  0  0  0  0  0  0
   23.4687   -4.6963   10.7801 O   0  0  0  0  0  0  0  0  0  0  0  0
   23.6415   -5.8345   11.6926 C   0  0  0  0  0  0  0  0  0  0  0  0
   14.2955   -2.8477   11.0315 N   0  0  0  0  0  0  0  0  0  0  0  0
   14.1235   -3.7302   10.6305 H   0  0  0  0  0  0  0  0  0  0  0  0
   13.7945   -2.5379   12.3992 C   0  0  0  0  0  0  0  0  0  0  0  0
   12.3905   -1.8355   12.5924 C   0  0  0  0  0  0  0  0  0  0  0  0
   12.1650   -0.4599   12.0760 O   0  0  0  0  0  0  0  0  0  0  0  0
   12.7237    0.1645   12.5647 H   0  0  0  0  0  0  0  0  0  0  0  0
 16 17  1  0  0  0
 17 10  1  0  0  0
 10 11  2  0  0  0
 10 13  1  0  0  0
 11 12  1  0  0  0
 12 15  2  0  0  0
 13 14  2  0  0  0
 14 15  1  0  0  0
 15  1  1  0  0  0
  1  2  1  0  0  0
  1  9  2  0  0  0
  2  3  2  0  0  0
  2  7  1  0  0  0
  3 26  1  0  0  0
  3  4  1  0  0  0
 26 28  1  0  0  0
 28 29  1  0  0  0
 29 30  1  0  0  0
  4  5  2  0  0  0
  5  6  1  0  0  0
  6  7  2  0  0  0
  7  8  1  0  0  0
  8  9  1  0  0  0
  9 18  1  0  0  0
 18 19  2  0  0  0
 18 23  1  0  0  0
 19 20  1  0  0  0
 20 21  2  0  0  0
 21 24  1  0  0  0
 21 22  1  0  0  0
 24 25  1  0  0  0
 22 23  2  0  0  0
 26 27  1  0  0  0
 30 31  1  0  0  0
M  END
> <minimizedAffinity>
-7.81197

$$$$
2BR1_PFP_A_1277


 31 34  0  0  0  0  0  0  0  0999 V2000
   16.3786   -2.8056   10.5577 C   0  0  0  0  0  0  0  0  0  0  0  0
   15.1845   -2.2144   10.5316 C   0  0  0  0  0  0  0  0  0  0  0  0
   13.9932   -2.4332   11.2177 C   0  0  0  0  0  0  0  0  0  0  0  0
   12.9601   -1.6010   11.0265 N   0  0  0  0  0  0  0  0  0  0  0  0
   13.0811   -0.5523   10.2109 C   0  0  0  0  0  0  0  0  0  0  0  0
   14.2435   -0.3152    9.5593 N   0  0  0  0  0  0  0  0  0  0  0  0
   15.2906   -1.1328    9.7149 C   0  0  0  0  0  0  0  0  0  0  0  0
   16.4784   -1.0941    9.2275 O   0  0  0  0  0  0  0  0  0  0  0  0
   17.1637   -2.1016    9.6462 C   0  0  0  0  0  0  0  0  0  0  0  0
   17.1644   -6.6208   12.4903 C   0  0  0  0  0  0  0  0  0  0  0  0
   17.3950   -5.4155   13.2015 C   0  0  0  0  0  0  0  0  0  0  0  0
   17.1553   -4.1481   12.5590 C   0  0  0  0  0  0  0  0  0  0  0  0
   16.6794   -6.5729   11.1759 C   0  0  0  0  0  0  0  0  0  0  0  0
   16.4490   -5.3265   10.5411 C   0  0  0  0  0  0  0  0  0  0  0  0
   16.7088   -4.1139   11.2217 C   0  0  0  0  0  0  0  0  0  0  0  0
   18.6650   -7.9657   13.6333 C   0  0  0  0  0  0  0  0  0  0  0  0
   17.3453   -7.8688   13.1248 O   0  0  0  0  0  0  0  0  0  0  0  0
   18.4719   -2.3484    9.3092 C   0  0  0  0  0  0  0  0  0  0  0  0
   19.1036   -1.5171    8.3745 C   0  0  0  0  0  0  0  0  0  0  0  0
   20.4080   -1.7627    7.9946 C   0  0  0  0  0  0  0  0  0  0  0  0
   21.0866   -2.8438    8.5118 C   0  0  0  0  0  0  0  0  0  0  0  0
   20.4520   -3.6982    9.4285 C   0  0  0  0  0  0  0  0  0  0  0  0
   19.1342   -3.4542    9.8067 C   0  0  0  0  0  0  0  0  0  0  0  0
   22.3678   -3.0799    8.1335 O   0  0  0  0  0  0  0  0  0  0  0  0
   23.2881   -3.7599    9.0546 C   0  0  0  0  0  0  0  0  0  0  0  0
   13.8625   -3.4634   12.0393 N   0  0  0  0  0  0  0  0  0  0  0  0
   13.9383   -4.3826   11.6951 H   0  0  0  0  0  0  0  0  0  0  0  0
   13.6003   -3.2264   13.4859 C   0  0  0  0  0  0  0  0  0  0  0  0
   12.1158   -3.0811   14.0123 C   0  0  0  0  0  0  0  0  0  0  0  0
   11.3278   -1.8598   13.7003 O   0  0  0  0  0  0  0  0  0  0  0  0
   11.7286   -1.0948   14.1419 H   0  0  0  0  0  0  0  0  0  0  0  0
 16 17  1  0  0  0
 17 10  1  0  0  0
 10 11  2  0  0  0
 10 13  1  0  0  0
 11 12  1  0  0  0
 12 15  2  0  0  0
 13 14  2  0  0  0
 14 15  1  0  0  0
 15  1  1  0  0  0
  1  2  1  0  0  0
  1  9  2  0  0  0
  2  3  2  0  0  0
  2  7  1  0  0  0
  3 26  1  0  0  0
  3  4  1  0  0  0
 26 28  1  0  0  0
 28 29  1  0  0  0
 29 30  1  0  0  0
  4  5  2  0  0  0
  5  6  1  0  0  0
  6  7  2  0  0  0
  7  8  1  0  0  0
  8  9  1  0  0  0
  9 18  1  0  0  0
 18 19  2  0  0  0
 18 23  1  0  0  0
 19 20  1  0  0  0
 20 21  2  0  0  0
 21 24  1  0  0  0
 21 22  1  0  0  0
 24 25  1  0  0  0
 22 23  2  0  0  0
 26 27  1  0  0  0
 30 31  1  0  0  0
M  END
> <minimizedAffinity>
-7.54452

$$$$
2BR1_PFP_A_1277


 31 34  0  0  0  0  0  0  0  0999 V2000
   14.6273   -4.7060   13.1205 C   0  0  0  0  0  0  0  0  0  0  0  0
   13.4476   -4.1052   12.9664 C   0  0  0  0  0  0  0  0  0  0  0  0
   12.8951   -3.3274   11.9529 C   0  0  0  0  0  0  0  0  0  0  0  0
   11.6224   -2.9196   12.0545 N   0  0  0  0  0  0  0  0  0  0  0  0
   10.8798   -3.2822   13.1018 C   0  0  0  0  0  0  0  0  0  0  0  0
   11.3993   -4.0603   14.0799 N   0  0  0  0  0  0  0  0  0  0  0  0
   12.6698   -4.4738   14.0187 C   0  0  0  0  0  0  0  0  0  0  0  0
   13.3578   -5.2236   14.8025 O   0  0  0  0  0  0  0  0  0  0  0  0
   14.5580   -5.3542   14.3525 C   0  0  0  0  0  0  0  0  0  0  0  0
   18.2443   -4.2162   10.7571 C   0  0  0  0  0  0  0  0  0  0  0  0
   17.8979   -3.2323   11.7183 C   0  0  0  0  0  0  0  0  0  0  0  0
   16.6898   -3.3796   12.4900 C   0  0  0  0  0  0  0  0  0  0  0  0
   17.4239   -5.3393   10.5822 C   0  0  0  0  0  0  0  0  0  0  0  0
   16.2324   -5.4820   11.3368 C   0  0  0  0  0  0  0  0  0  0  0  0
   15.8513   -4.4926   12.2731 C   0  0  0  0  0  0  0  0  0  0  0  0
   20.4262   -3.4394   10.8113 C   0  0  0  0  0  0  0  0  0  0  0  0
   19.4507   -4.1105   10.0318 O   0  0  0  0  0  0  0  0  0  0  0  0
   15.5413   -6.0964   14.9592 C   0  0  0  0  0  0  0  0  0  0  0  0
   15.5743   -7.4822   14.7538 C   0  0  0  0  0  0  0  0  0  0  0  0
   16.5329   -8.2554   15.3776 C   0  0  0  0  0  0  0  0  0  0  0  0
   17.4454   -7.6718   16.2282 C   0  0  0  0  0  0  0  0  0  0  0  0
   17.4025   -6.2872   16.4614 C   0  0  0  0  0  0  0  0  0  0  0  0
   16.4315   -5.5084   15.8371 C   0  0  0  0  0  0  0  0  0  0  0  0
   18.3841   -8.4375   16.8387 O   0  0  0  0  0  0  0  0  0  0  0  0
   18.6340   -9.8048   16.3633 C   0  0  0  0  0  0  0  0  0  0  0  0
   13.6167   -2.9695   10.9018 N   0  0  0  0  0  0  0  0  0  0  0  0
   14.0393   -3.6554   10.3359 H   0  0  0  0  0  0  0  0  0  0  0  0
   13.7867   -1.5258   10.5789 C   0  0  0  0  0  0  0  0  0  0  0  0
   15.0368   -1.0396    9.7408 C   0  0  0  0  0  0  0  0  0  0  0  0
   15.0595    0.3270    9.1562 O   0  0  0  0  0  0  0  0  0  0  0  0
   14.3735    0.3984    8.4742 H   0  0  0  0  0  0  0  0  0  0  0  0
 16 17  1  0  0  0
 17 10  1  0  0  0
 10 11  2  0  0  0
 10 13  1  0  0  0
 11 12  1  0  0  0
 12 15  2  0  0  0
 13 14  2  0  0  0
 14 15  1  0  0  0
 15  1  1  0  0  0
  1  2  1  0  0  0
  1  9  2  0  0  0
  2  3  2  0  0  0
  2  7  1  0  0  0
  3 26  1  0  0  0
  3  4  1  0  0  0
 26 28  1  0  0  0
 28 29  1  0  0  0
 29 30  1  0  0  0
  4  5  2  0  0  0
  5  6  1  0  0  0
  6  7  2  0  0  0
  7  8  1  0  0  0
  8  9  1  0  0  0
  9 18  1  0  0  0
 18 19  2  0  0  0
 18 23  1  0  0  0
 19 20  1  0  0  0
 20 21  2  0  0  0
 21 24  1  0  0  0
 21 22  1  0  0  0
 24 25  1  0  0  0
 22 23  2  0  0  0
 26 27  1  0  0  0
 30 31  1  0  0  0
M  END
> <minimizedAffinity>
-7.48167

$$$$
2BR1_PFP_A_1277


 31 34  0  0  0  0  0  0  0  0999 V2000
   16.0083   -3.2641   11.7794 C   0  0  0  0  0  0  0  0  0  0  0  0
   14.8566   -2.7030   11.4118 C   0  0  0  0  0  0  0  0  0  0  0  0
   13.5546   -2.7845   11.8974 C   0  0  0  0  0  0  0  0  0  0  0  0
   12.5983   -2.0209   11.3507 N   0  0  0  0  0  0  0  0  0  0  0  0
   12.8962   -1.1654   10.3714 C   0  0  0  0  0  0  0  0  0  0  0  0
   14.1642   -1.0591    9.9099 N   0  0  0  0  0  0  0  0  0  0  0  0
   15.1411   -1.8158   10.4218 C   0  0  0  0  0  0  0  0  0  0  0  0
   16.3983   -1.8687   10.1639 O   0  0  0  0  0  0  0  0  0  0  0  0
   16.9663   -2.7594   10.9016 C   0  0  0  0  0  0  0  0  0  0  0  0
   16.6561   -6.5183   14.5898 C   0  0  0  0  0  0  0  0  0  0  0  0
   16.3397   -6.8130   13.2389 C   0  0  0  0  0  0  0  0  0  0  0  0
   16.1043   -5.7384   12.3080 C   0  0  0  0  0  0  0  0  0  0  0  0
   16.7643   -5.1839   15.0055 C   0  0  0  0  0  0  0  0  0  0  0  0
   16.5271   -4.1263   14.0919 C   0  0  0  0  0  0  0  0  0  0  0  0
   16.1738   -4.4009   12.7499 C   0  0  0  0  0  0  0  0  0  0  0  0
   17.9560   -7.1522   16.3997 C   0  0  0  0  0  0  0  0  0  0  0  0
   16.9400   -7.5601   15.4991 O   0  0  0  0  0  0  0  0  0  0  0  0
   18.3061   -3.0587   10.8698 C   0  0  0  0  0  0  0  0  0  0  0  0
   18.8310   -3.7182    9.7503 C   0  0  0  0  0  0  0  0  0  0  0  0
   20.1681   -4.0591    9.7070 C   0  0  0  0  0  0  0  0  0  0  0  0
   20.9880   -3.7775   10.7771 C   0  0  0  0  0  0  0  0  0  0  0  0
   20.4644   -3.1412   11.9148 C   0  0  0  0  0  0  0  0  0  0  0  0
   19.1142   -2.8033   11.9609 C   0  0  0  0  0  0  0  0  0  0  0  0
   22.3008   -4.1159   10.7285 O   0  0  0  0  0  0  0  0  0  0  0  0
   22.9365   -4.7464   11.8931 C   0  0  0  0  0  0  0  0  0  0  0  0
   13.2465   -3.6207   12.8769 N   0  0  0  0  0  0  0  0  0  0  0  0
   13.7132   -3.5619   13.7417 H   0  0  0  0  0  0  0  0  0  0  0  0
   12.1916   -4.6502   12.6654 C   0  0  0  0  0  0  0  0  0  0  0  0
   12.2252   -6.0038   13.4830 C   0  0  0  0  0  0  0  0  0  0  0  0
   11.8032   -6.0274   14.9082 O   0  0  0  0  0  0  0  0  0  0  0  0
   12.4260   -5.5059   15.4384 H   0  0  0  0  0  0  0  0  0  0  0  0
 16 17  1  0  0  0
 17 10  1  0  0  0
 10 11  2  0  0  0
 10 13  1  0  0  0
 11 12  1  0  0  0
 12 15  2  0  0  0
 13 14  2  0  0  0
 14 15  1  0  0  0
 15  1  1  0  0  0
  1  2  1  0  0  0
  1  9  2  0  0  0
  2  3  2  0  0  0
  2  7  1  0  0  0
  3 26  1  0  0  0
  3  4  1  0  0  0
 26 28  1  0  0  0
 28 29  1  0  0  0
 29 30  1  0  0  0
  4  5  2  0  0  0
  5  6  1  0  0  0
  6  7  2  0  0  0
  7  8  1  0  0  0
  8  9  1  0  0  0
  9 18  1  0  0  0
 18 19  2  0  0  0
 18 23  1  0  0  0
 19 20  1  0  0  0
 20 21  2  0  0  0
 21 24  1  0  0  0
 21 22  1  0  0  0
 24 25  1  0  0  0
 22 23  2  0  0  0
 26 27  1  0  0  0
 30 31  1  0  0  0
M  END
> <minimizedAffinity>
-7.46872

$$$$
2BR1_PFP_A_1277


 31 34  0  0  0  0  0  0  0  0999 V2000
   17.5672   -5.6746   12.3687 C   0  0  0  0  0  0  0  0  0  0  0  0
   18.3596   -6.7056   12.6609 C   0  0  0  0  0  0  0  0  0  0  0  0
   18.1981   -7.8444   13.4449 C   0  0  0  0  0  0  0  0  0  0  0  0
   19.1738   -8.7626   13.4823 N   0  0  0  0  0  0  0  0  0  0  0  0
   20.2772   -8.6042   12.7495 C   0  0  0  0  0  0  0  0  0  0  0  0
   20.4329   -7.5135   11.9633 N   0  0  0  0  0  0  0  0  0  0  0  0
   19.4863   -6.5698   11.9124 C   0  0  0  0  0  0  0  0  0  0  0  0
   19.4064   -5.4826   11.2331 O   0  0  0  0  0  0  0  0  0  0  0  0
   18.3069   -4.8684   11.5051 C   0  0  0  0  0  0  0  0  0  0  0  0
   13.7683   -4.5939   14.1876 C   0  0  0  0  0  0  0  0  0  0  0  0
   14.9595   -3.9615   14.6269 C   0  0  0  0  0  0  0  0  0  0  0  0
   16.2236   -4.3304   14.0415 C   0  0  0  0  0  0  0  0  0  0  0  0
   13.8241   -5.5546   13.1683 C   0  0  0  0  0  0  0  0  0  0  0  0
   15.0678   -5.9222   12.5960 C   0  0  0  0  0  0  0  0  0  0  0  0
   16.2703   -5.3295   13.0473 C   0  0  0  0  0  0  0  0  0  0  0  0
   11.9911   -3.1248   13.9641 C   0  0  0  0  0  0  0  0  0  0  0  0
   12.5183   -4.2050   14.7157 O   0  0  0  0  0  0  0  0  0  0  0  0
   17.9204   -3.6766   10.9429 C   0  0  0  0  0  0  0  0  0  0  0  0
   16.8212   -3.6574   10.0739 C   0  0  0  0  0  0  0  0  0  0  0  0
   16.4319   -2.4782    9.4705 C   0  0  0  0  0  0  0  0  0  0  0  0
   17.1397   -1.3190    9.6979 C   0  0  0  0  0  0  0  0  0  0  0  0
   18.2594   -1.3347   10.5461 C   0  0  0  0  0  0  0  0  0  0  0  0
   18.6559   -2.5254   11.1495 C   0  0  0  0  0  0  0  0  0  0  0  0
   16.7523   -0.1640    9.1011 O   0  0  0  0  0  0  0  0  0  0  0  0
   15.3380    0.2323    9.1251 C   0  0  0  0  0  0  0  0  0  0  0  0
   17.1032   -8.0207   14.1685 N   0  0  0  0  0  0  0  0  0  0  0  0
   16.2201   -8.0324   13.7335 H   0  0  0  0  0  0  0  0  0  0  0  0
   17.2126   -8.2014   15.6425 C   0  0  0  0  0  0  0  0  0  0  0  0
   18.1508   -7.2537   16.4931 C   0  0  0  0  0  0  0  0  0  0  0  0
   17.9334   -5.7832   16.4854 O   0  0  0  0  0  0  0  0  0  0  0  0
   18.1162   -5.4339   15.5991 H   0  0  0  0  0  0  0  0  0  0  0  0
 16 17  1  0  0  0
 17 10  1  0  0  0
 10 11  2  0  0  0
 10 13  1  0  0  0
 11 12  1  0  0  0
 12 15  2  0  0  0
 13 14  2  0  0  0
 14 15  1  0  0  0
 15  1  1  0  0  0
  1  2  1  0  0  0
  1  9  2  0  0  0
  2  3  2  0  0  0
  2  7  1  0  0  0
  3 26  1  0  0  0
  3  4  1  0  0  0
 26 28  1  0  0  0
 28 29  1  0  0  0
 29 30  1  0  0  0
  4  5  2  0  0  0
  5  6  1  0  0  0
  6  7  2  0  0  0
  7  8  1  0  0  0
  8  9  1  0  0  0
  9 18  1  0  0  0
 18 19  2  0  0  0
 18 23  1  0  0  0
 19 20  1  0  0  0
 20 21  2  0  0  0
 21 24  1  0  0  0
 21 22  1  0  0  0
 24 25  1  0  0  0
 22 23  2  0  0  0
 26 27  1  0  0  0
 30 31  1  0  0  0
M  END
> <minimizedAffinity>
-7.38895

$$$$
2BR1_PFP_A_1277


 31 34  0  0  0  0  0  0  0  0999 V2000
   17.0297   -5.3285   12.4570 C   0  0  0  0  0  0  0  0  0  0  0  0
   17.9349   -6.3019   12.5532 C   0  0  0  0  0  0  0  0  0  0  0  0
   19.1890   -6.5021   11.9833 C   0  0  0  0  0  0  0  0  0  0  0  0
   19.9136   -7.5706   12.3433 N   0  0  0  0  0  0  0  0  0  0  0  0
   19.4526   -8.4187   13.2642 C   0  0  0  0  0  0  0  0  0  0  0  0
   18.2460   -8.2188   13.8441 N   0  0  0  0  0  0  0  0  0  0  0  0
   17.4895   -7.1712   13.4987 C   0  0  0  0  0  0  0  0  0  0  0  0
   16.3443   -6.7736   13.9235 O   0  0  0  0  0  0  0  0  0  0  0  0
   15.9840   -5.7067   13.2974 C   0  0  0  0  0  0  0  0  0  0  0  0
   16.9275   -2.0091    9.6499 C   0  0  0  0  0  0  0  0  0  0  0  0
   16.1797   -3.1823    9.3738 C   0  0  0  0  0  0  0  0  0  0  0  0
   16.2259   -4.2930   10.2908 C   0  0  0  0  0  0  0  0  0  0  0  0
   17.6859   -1.9264   10.8260 C   0  0  0  0  0  0  0  0  0  0  0  0
   17.7365   -3.0208   11.7255 C   0  0  0  0  0  0  0  0  0  0  0  0
   17.0273   -4.2129   11.4485 C   0  0  0  0  0  0  0  0  0  0  0  0
   15.6681   -0.1586    9.0529 C   0  0  0  0  0  0  0  0  0  0  0  0
   16.8500   -0.8947    8.7869 O   0  0  0  0  0  0  0  0  0  0  0  0
   14.8094   -5.0312   13.5208 C   0  0  0  0  0  0  0  0  0  0  0  0
   13.6064   -5.5861   13.0643 C   0  0  0  0  0  0  0  0  0  0  0  0
   12.4155   -4.9121   13.2477 C   0  0  0  0  0  0  0  0  0  0  0  0
   12.4073   -3.6766   13.8561 C   0  0  0  0  0  0  0  0  0  0  0  0
   13.6119   -3.1005   14.2923 C   0  0  0  0  0  0  0  0  0  0  0  0
   14.8137   -3.7775   14.1013 C   0  0  0  0  0  0  0  0  0  0  0  0
   11.2337   -3.0194   14.0324 O   0  0  0  0  0  0  0  0  0  0  0  0
   10.9758   -1.7742   13.2969 C   0  0  0  0  0  0  0  0  0  0  0  0
   19.6644   -5.6623   11.0765 N   0  0  0  0  0  0  0  0  0  0  0  0
   19.1094   -5.4001   10.3069 H   0  0  0  0  0  0  0  0  0  0  0  0
   21.0417   -5.1161   11.2252 C   0  0  0  0  0  0  0  0  0  0  0  0
   21.2918   -3.5562   11.1492 C   0  0  0  0  0  0  0  0  0  0  0  0
   21.0302   -2.8174    9.8860 O   0  0  0  0  0  0  0  0  0  0  0  0
   21.6542   -3.1118    9.2042 H   0  0  0  0  0  0  0  0  0  0  0  0
 16 17  1  0  0  0
 17 10  1  0  0  0
 10 11  2  0  0  0
 10 13  1  0  0  0
 11 12  1  0  0  0
 12 15  2  0  0  0
 13 14  2  0  0  0
 14 15  1  0  0  0
 15  1  1  0  0  0
  1  2  1  0  0  0
  1  9  2  0  0  0
  2  3  2  0  0  0
  2  7  1  0  0  0
  3 26  1  0  0  0
  3  4  1  0  0  0
 26 28  1  0  0  0
 28 29  1  0  0  0
 29 30  1  0  0  0
  4  5  2  0  0  0
  5  6  1  0  0  0
  6  7  2  0  0  0
  7  8  1  0  0  0
  8  9  1  0  0  0
  9 18  1  0  0  0
 18 19  2  0  0  0
 18 23  1  0  0  0
 19 20  1  0  0  0
 20 21  2  0  0  0
 21 24  1  0  0  0
 21 22  1  0  0  0
 24 25  1  0  0  0
 22 23  2  0  0  0
 26 27  1  0  0  0
 30 31  1  0  0  0
M  END
> <minimizedAffinity>
-7.29227

$$$$
2BR1_PFP_A_1277


 31 34  0  0  0  0  0  0  0  0999 V2000
   16.9278   -3.1067   10.8536 C   0  0  0  0  0  0  0  0  0  0  0  0
   16.4689   -1.9994   10.2710 C   0  0  0  0  0  0  0  0  0  0  0  0
   17.0719   -0.9900    9.5258 C   0  0  0  0  0  0  0  0  0  0  0  0
   16.3139   -0.0212    8.9936 N   0  0  0  0  0  0  0  0  0  0  0  0
   14.9890   -0.0401    9.1480 C   0  0  0  0  0  0  0  0  0  0  0  0
   14.3899   -1.0315    9.8484 N   0  0  0  0  0  0  0  0  0  0  0  0
   15.1162   -2.0067   10.4056 C   0  0  0  0  0  0  0  0  0  0  0  0
   14.7706   -3.0435   11.0806 O   0  0  0  0  0  0  0  0  0  0  0  0
   15.8137   -3.7139   11.4307 C   0  0  0  0  0  0  0  0  0  0  0  0
   21.1489   -3.9895   11.4107 C   0  0  0  0  0  0  0  0  0  0  0  0
   20.4148   -4.6820   10.4140 C   0  0  0  0  0  0  0  0  0  0  0  0
   19.0110   -4.4077   10.2387 C   0  0  0  0  0  0  0  0  0  0  0  0
   20.5113   -3.0234   12.2014 C   0  0  0  0  0  0  0  0  0  0  0  0
   19.1291   -2.7572   12.0335 C   0  0  0  0  0  0  0  0  0  0  0  0
   18.3723   -3.4645   11.0702 C   0  0  0  0  0  0  0  0  0  0  0  0
   23.2605   -3.2467   10.8136 C   0  0  0  0  0  0  0  0  0  0  0  0
   22.5353   -4.2109   11.5579 O   0  0  0  0  0  0  0  0  0  0  0  0
   15.7839   -4.8768   12.1604 C   0  0  0  0  0  0  0  0  0  0  0  0
   15.6334   -4.8050   13.5518 C   0  0  0  0  0  0  0  0  0  0  0  0
   15.6324   -5.9575   14.3119 C   0  0  0  0  0  0  0  0  0  0  0  0
   15.8077   -7.1832   13.7089 C   0  0  0  0  0  0  0  0  0  0  0  0
   15.9867   -7.2625   12.3179 C   0  0  0  0  0  0  0  0  0  0  0  0
   15.9942   -6.0994   11.5521 C   0  0  0  0  0  0  0  0  0  0  0  0
   15.8066   -8.3117   14.4618 O   0  0  0  0  0  0  0  0  0  0  0  0
   15.1054   -8.3283   15.7526 C   0  0  0  0  0  0  0  0  0  0  0  0
   18.3847   -0.9646    9.3543 N   0  0  0  0  0  0  0  0  0  0  0  0
   18.9651   -0.5644   10.0415 H   0  0  0  0  0  0  0  0  0  0  0  0
   18.9799   -1.5437    8.1183 C   0  0  0  0  0  0  0  0  0  0  0  0
   20.5506   -1.6539    7.9674 C   0  0  0  0  0  0  0  0  0  0  0  0
   21.4023   -0.4438    8.1091 O   0  0  0  0  0  0  0  0  0  0  0  0
   21.2155    0.1701    7.3817 H   0  0  0  0  0  0  0  0  0  0  0  0
 16 17  1  0  0  0
 17 10  1  0  0  0
 10 11  2  0  0  0
 10 13  1  0  0  0
 11 12  1  0  0  0
 12 15  2  0  0  0
 13 14  2  0  0  0
 14 15  1  0  0  0
 15  1  1  0  0  0
  1  2  1  0  0  0
  1  9  2  0  0  0
  2  3  2  0  0  0
  2  7  1  0  0  0
  3 26  1  0  0  0
  3  4  1  0  0  0
 26 28  1  0  0  0
 28 29  1  0  0  0
 29 30  1  0  0  0
  4  5  2  0  0  0
  5  6  1  0  0  0
  6  7  2  0  0  0
  7  8  1  0  0  0
  8  9  1  0  0  0
  9 18  1  0  0  0
 18 19  2  0  0  0
 18 23  1  0  0  0
 19 20  1  0  0  0
 20 21  2  0  0  0
 21 24  1  0  0  0
 21 22  1  0  0  0
 24 25  1  0  0  0
 22 23  2  0  0  0
 26 27  1  0  0  0
 30 31  1  0  0  0
M  END
> <minimizedAffinity>
-7.27595

$$$$
