3S77_EVI_B_1


 11 11  0  0  0  0  0  0  0  0999 V2000
   16.5025    1.5177   15.9490 S   0  0  0  0  0  0  0  0  0  0  0  0
   15.7140    2.6846   16.2726 O   0  0  0  0  0  0  0  0  0  0  0  0
   17.8274    1.7165   16.4421 O   0  0  0  0  0  0  0  0  0  0  0  0
   16.0563    0.1067   16.4696 N   0  0  0  0  0  0  0  0  0  0  0  0
   16.7207   -0.5988   16.1515 H   0  0  0  0  0  0  0  0  0  0  0  0
   15.1285   -0.1119   16.1065 H   0  0  0  0  0  0  0  0  0  0  0  0
   16.3036    2.7350   13.1570 S   0  0  0  0  0  0  0  0  0  0  0  0
   16.5768    1.4391   14.2657 C   0  0  0  0  0  0  0  0  0  0  0  0
   16.8652    0.3148   13.6627 N   0  0  0  0  0  0  0  0  0  0  0  0
   16.8140    0.4209   12.2719 C   0  0  0  0  0  0  0  0  0  0  0  0
   16.5303    1.7157   11.7873 C   0  0  0  0  0  0  0  0  0  0  0  0
  8  1  1  0  0  0
  3  1  2  0  0  0
  1  2  2  0  0  0
  1  4  1  0  0  0
 11  7  1  0  0  0
  8  7  1  0  0  0
  9  8  2  0  0  0
 10  9  1  0  0  0
 10 11  2  0  0  0
  4  5  1  0  0  0
  4  6  1  0  0  0
M  END
> <minimizedAffinity>
-5.07633

$$$$
3S77_EVI_B_1


 11 11  0  0  0  0  0  0  0  0999 V2000
   16.3997    0.8727   15.5997 S   0  0  0  0  0  0  0  0  0  0  0  0
   15.4861    0.0509   16.3600 O   0  0  0  0  0  0  0  0  0  0  0  0
   17.6392    0.9418   16.3047 O   0  0  0  0  0  0  0  0  0  0  0  0
   16.7637    0.4752   14.1264 N   0  0  0  0  0  0  0  0  0  0  0  0
   17.4155    1.1587   13.7410 H   0  0  0  0  0  0  0  0  0  0  0  0
   15.9158    0.4569   13.5598 H   0  0  0  0  0  0  0  0  0  0  0  0
   16.1206    3.6850   14.4467 S   0  0  0  0  0  0  0  0  0  0  0  0
   15.7335    2.4219   15.5592 C   0  0  0  0  0  0  0  0  0  0  0  0
   14.8235    2.7793   16.4280 N   0  0  0  0  0  0  0  0  0  0  0  0
   14.4387    4.1136   16.2869 C   0  0  0  0  0  0  0  0  0  0  0  0
   15.0459    4.7937   15.2096 C   0  0  0  0  0  0  0  0  0  0  0  0
  8  1  1  0  0  0
  3  1  2  0  0  0
  1  2  2  0  0  0
  1  4  1  0  0  0
 11  7  1  0  0  0
  8  7  1  0  0  0
  9  8  2  0  0  0
 10  9  1  0  0  0
 10 11  2  0  0  0
  4  5  1  0  0  0
  4  6  1  0  0  0
M  END
> <minimizedAffinity>
-5.06650

$$$$
3S77_EVI_B_1


 11 11  0  0  0  0  0  0  0  0999 V2000
   15.2234    1.0970   16.8508 S   0  0  0  0  0  0  0  0  0  0  0  0
   13.7828    1.1886   16.7843 O   0  0  0  0  0  0  0  0  0  0  0  0
   15.6146    1.1168   18.2237 O   0  0  0  0  0  0  0  0  0  0  0  0
   15.9564   -0.1341   16.2118 N   0  0  0  0  0  0  0  0  0  0  0  0
   16.9627   -0.0392   16.3486 H   0  0  0  0  0  0  0  0  0  0  0  0
   15.7510   -0.1714   15.2134 H   0  0  0  0  0  0  0  0  0  0  0  0
   14.9162    3.8495   15.5681 S   0  0  0  0  0  0  0  0  0  0  0  0
   15.8286    2.4885   16.1141 C   0  0  0  0  0  0  0  0  0  0  0  0
   17.1115    2.6251   15.8993 N   0  0  0  0  0  0  0  0  0  0  0  0
   17.4214    3.8047   15.2205 C   0  0  0  0  0  0  0  0  0  0  0  0
   16.3173    4.6436   14.9576 C   0  0  0  0  0  0  0  0  0  0  0  0
  8  1  1  0  0  0
  3  1  2  0  0  0
  1  2  2  0  0  0
  1  4  1  0  0  0
 11  7  1  0  0  0
  8  7  1  0  0  0
  9  8  2  0  0  0
 10  9  1  0  0  0
 10 11  2  0  0  0
  4  5  1  0  0  0
  4  6  1  0  0  0
M  END
> <minimizedAffinity>
-5.00369

$$$$
3S77_EVI_B_1


 11 11  0  0  0  0  0  0  0  0999 V2000
   16.7238    1.7734   12.6425 S   0  0  0  0  0  0  0  0  0  0  0  0
   17.2083    0.4229   12.8141 O   0  0  0  0  0  0  0  0  0  0  0  0
   17.8339    2.6160   12.3327 O   0  0  0  0  0  0  0  0  0  0  0  0
   15.6348    2.0784   11.5552 N   0  0  0  0  0  0  0  0  0  0  0  0
   15.4094    3.0731   11.5695 H   0  0  0  0  0  0  0  0  0  0  0  0
   14.7941    1.5363   11.7546 H   0  0  0  0  0  0  0  0  0  0  0  0
   16.3078    1.4496   15.6489 S   0  0  0  0  0  0  0  0  0  0  0  0
   16.1019    2.2547   14.1348 C   0  0  0  0  0  0  0  0  0  0  0  0
   15.3783    3.3395   14.2372 N   0  0  0  0  0  0  0  0  0  0  0  0
   14.8931    3.5433   15.5300 C   0  0  0  0  0  0  0  0  0  0  0  0
   15.3226    2.5920   16.4799 C   0  0  0  0  0  0  0  0  0  0  0  0
  8  1  1  0  0  0
  3  1  2  0  0  0
  1  2  2  0  0  0
  1  4  1  0  0  0
 11  7  1  0  0  0
  8  7  1  0  0  0
  9  8  2  0  0  0
 10  9  1  0  0  0
 10 11  2  0  0  0
  4  5  1  0  0  0
  4  6  1  0  0  0
M  END
> <minimizedAffinity>
-4.68911

$$$$
3S77_EVI_B_1


 11 11  0  0  0  0  0  0  0  0999 V2000
   16.4537    1.2673   15.4916 S   0  0  0  0  0  0  0  0  0  0  0  0
   15.2475    1.0603   16.2600 O   0  0  0  0  0  0  0  0  0  0  0  0
   17.5709    1.2039   16.3783 O   0  0  0  0  0  0  0  0  0  0  0  0
   16.7939    0.3045   14.3007 N   0  0  0  0  0  0  0  0  0  0  0  0
   17.6732    0.5923   13.8713 H   0  0  0  0  0  0  0  0  0  0  0  0
   16.0474    0.3450   13.6068 H   0  0  0  0  0  0  0  0  0  0  0  0
   15.1770    4.0287   15.2453 S   0  0  0  0  0  0  0  0  0  0  0  0
   16.3662    2.8333   14.8712 C   0  0  0  0  0  0  0  0  0  0  0  0
   17.2549    3.2609   14.0120 N   0  0  0  0  0  0  0  0  0  0  0  0
   16.9858    4.5525   13.5564 C   0  0  0  0  0  0  0  0  0  0  0  0
   15.8618    5.1667   14.1488 C   0  0  0  0  0  0  0  0  0  0  0  0
  8  1  1  0  0  0
  3  1  2  0  0  0
  1  2  2  0  0  0
  1  4  1  0  0  0
 11  7  1  0  0  0
  8  7  1  0  0  0
  9  8  2  0  0  0
 10  9  1  0  0  0
 10 11  2  0  0  0
  4  5  1  0  0  0
  4  6  1  0  0  0
M  END
> <minimizedAffinity>
-4.62225

$$$$
3S77_EVI_B_1


 11 11  0  0  0  0  0  0  0  0999 V2000
   16.8215    1.7676   12.5237 S   0  0  0  0  0  0  0  0  0  0  0  0
   17.9080    2.7046   12.3510 O   0  0  0  0  0  0  0  0  0  0  0  0
   15.7092    2.2177   11.7502 O   0  0  0  0  0  0  0  0  0  0  0  0
   17.0263    0.2588   12.1462 N   0  0  0  0  0  0  0  0  0  0  0  0
   16.1657   -0.2573   12.3293 H   0  0  0  0  0  0  0  0  0  0  0  0
   17.7831   -0.1324   12.7071 H   0  0  0  0  0  0  0  0  0  0  0  0
   15.5868    3.1314   14.9592 S   0  0  0  0  0  0  0  0  0  0  0  0
   16.3863    1.8305   14.1521 C   0  0  0  0  0  0  0  0  0  0  0  0
   16.6479    0.8287   14.9514 N   0  0  0  0  0  0  0  0  0  0  0  0
   16.2795    1.0840   16.2733 C   0  0  0  0  0  0  0  0  0  0  0  0
   15.6450    2.3274   16.4812 C   0  0  0  0  0  0  0  0  0  0  0  0
  8  1  1  0  0  0
  3  1  2  0  0  0
  1  2  2  0  0  0
  1  4  1  0  0  0
 11  7  1  0  0  0
  8  7  1  0  0  0
  9  8  2  0  0  0
 10  9  1  0  0  0
 10 11  2  0  0  0
  4  5  1  0  0  0
  4  6  1  0  0  0
M  END
> <minimizedAffinity>
-4.56582

$$$$
3S77_EVI_B_1


 11 11  0  0  0  0  0  0  0  0999 V2000
   14.9696    1.2597   17.0214 S   0  0  0  0  0  0  0  0  0  0  0  0
   15.6165    1.5288   18.2853 O   0  0  0  0  0  0  0  0  0  0  0  0
   15.5900    0.1180   16.4302 O   0  0  0  0  0  0  0  0  0  0  0  0
   13.4263    0.9814   16.9795 N   0  0  0  0  0  0  0  0  0  0  0  0
   13.1373    0.8124   16.0160 H   0  0  0  0  0  0  0  0  0  0  0  0
   12.9249    1.7896   17.3481 H   0  0  0  0  0  0  0  0  0  0  0  0
   16.4131    2.6789   14.7370 S   0  0  0  0  0  0  0  0  0  0  0  0
   15.2737    2.5917   16.0322 C   0  0  0  0  0  0  0  0  0  0  0  0
   14.6192    3.7114   16.2015 N   0  0  0  0  0  0  0  0  0  0  0  0
   15.0495    4.7223   15.3406 C   0  0  0  0  0  0  0  0  0  0  0  0
   16.0468    4.3320   14.4214 C   0  0  0  0  0  0  0  0  0  0  0  0
  8  1  1  0  0  0
  3  1  2  0  0  0
  1  2  2  0  0  0
  1  4  1  0  0  0
 11  7  1  0  0  0
  8  7  1  0  0  0
  9  8  2  0  0  0
 10  9  1  0  0  0
 10 11  2  0  0  0
  4  5  1  0  0  0
  4  6  1  0  0  0
M  END
> <minimizedAffinity>
-4.56436

$$$$
3S77_EVI_B_1


 11 11  0  0  0  0  0  0  0  0999 V2000
   18.3872    4.5009   14.4575 S   0  0  0  0  0  0  0  0  0  0  0  0
   17.9970    5.8912   14.4015 O   0  0  0  0  0  0  0  0  0  0  0  0
   18.5052    4.0105   13.1220 O   0  0  0  0  0  0  0  0  0  0  0  0
   19.7157    4.0931   15.1852 N   0  0  0  0  0  0  0  0  0  0  0  0
   19.8367    3.0817   15.1305 H   0  0  0  0  0  0  0  0  0  0  0  0
   19.6686    4.3774   16.1636 H   0  0  0  0  0  0  0  0  0  0  0  0
   15.4466    4.0947   15.1676 S   0  0  0  0  0  0  0  0  0  0  0  0
   17.1217    3.6759   15.2080 C   0  0  0  0  0  0  0  0  0  0  0  0
   17.3530    2.5982   15.9121 N   0  0  0  0  0  0  0  0  0  0  0  0
   16.2006    2.0904   16.5141 C   0  0  0  0  0  0  0  0  0  0  0  0
   15.0135    2.7863   16.2005 C   0  0  0  0  0  0  0  0  0  0  0  0
  8  1  1  0  0  0
  3  1  2  0  0  0
  1  2  2  0  0  0
  1  4  1  0  0  0
 11  7  1  0  0  0
  8  7  1  0  0  0
  9  8  2  0  0  0
 10  9  1  0  0  0
 10 11  2  0  0  0
  4  5  1  0  0  0
  4  6  1  0  0  0
M  END
> <minimizedAffinity>
-4.55890

$$$$
3S77_EVI_B_1


 11 11  0  0  0  0  0  0  0  0999 V2000
   16.5226    2.3358   14.3304 S   0  0  0  0  0  0  0  0  0  0  0  0
   17.5722    3.2184   14.7860 O   0  0  0  0  0  0  0  0  0  0  0  0
   15.6258    3.0854   13.5107 O   0  0  0  0  0  0  0  0  0  0  0  0
   16.8873    1.0512   13.5069 N   0  0  0  0  0  0  0  0  0  0  0  0
   16.0335    0.5468   13.2681 H   0  0  0  0  0  0  0  0  0  0  0  0
   17.4926    0.4497   14.0656 H   0  0  0  0  0  0  0  0  0  0  0  0
   14.5555    2.7706   16.6233 S   0  0  0  0  0  0  0  0  0  0  0  0
   15.6824    1.8375   15.7055 C   0  0  0  0  0  0  0  0  0  0  0  0
   15.8482    0.6332   16.1884 N   0  0  0  0  0  0  0  0  0  0  0  0
   15.1275    0.4207   17.3647 C   0  0  0  0  0  0  0  0  0  0  0  0
   14.3185    1.5049   17.7671 C   0  0  0  0  0  0  0  0  0  0  0  0
  8  1  1  0  0  0
  3  1  2  0  0  0
  1  2  2  0  0  0
  1  4  1  0  0  0
 11  7  1  0  0  0
  8  7  1  0  0  0
  9  8  2  0  0  0
 10  9  1  0  0  0
 10 11  2  0  0  0
  4  5  1  0  0  0
  4  6  1  0  0  0
M  END
> <minimizedAffinity>
-4.53643

$$$$
3S77_EVI_B_1


 11 11  0  0  0  0  0  0  0  0999 V2000
   16.6220    2.1566   15.5123 S   0  0  0  0  0  0  0  0  0  0  0  0
   17.5680    1.5833   16.4422 O   0  0  0  0  0  0  0  0  0  0  0  0
   16.5725    1.3290   14.3501 O   0  0  0  0  0  0  0  0  0  0  0  0
   15.1314    2.3728   15.9510 N   0  0  0  0  0  0  0  0  0  0  0  0
   14.6060    2.7833   15.1791 H   0  0  0  0  0  0  0  0  0  0  0  0
   15.1010    3.0001   16.7546 H   0  0  0  0  0  0  0  0  0  0  0  0
   16.3407    5.0302   14.5228 S   0  0  0  0  0  0  0  0  0  0  0  0
   17.2423    3.6583   15.0595 C   0  0  0  0  0  0  0  0  0  0  0  0
   18.5302    3.8848   15.0907 N   0  0  0  0  0  0  0  0  0  0  0  0
   18.8654    5.1546   14.6181 C   0  0  0  0  0  0  0  0  0  0  0  0
   17.7647    5.9639   14.2642 C   0  0  0  0  0  0  0  0  0  0  0  0
  8  1  1  0  0  0
  3  1  2  0  0  0
  1  2  2  0  0  0
  1  4  1  0  0  0
 11  7  1  0  0  0
  8  7  1  0  0  0
  9  8  2  0  0  0
 10  9  1  0  0  0
 10 11  2  0  0  0
  4  5  1  0  0  0
  4  6  1  0  0  0
M  END
> <minimizedAffinity>
-4.48347

$$$$
