3HKT_2SD_A_300


 35 36  0  0  0  0  0  0  0  0999 V2000
   16.8345    5.3213   11.8421 C   0  0  0  0  0  0  0  0  0  0  0  0
   16.6462    6.1006   13.1586 C   0  0  0  0  0  0  0  0  0  0  0  0
   17.5231    7.2475   13.2777 O   0  0  0  0  0  0  0  0  0  0  0  0
   16.6076    5.2319   14.4384 C   0  0  0  0  0  0  0  0  0  0  0  0
   15.6794    5.9148   15.3270 O   0  0  0  0  0  0  0  0  0  0  0  0
   16.0948    3.7546   14.2253 C   0  0  0  0  0  0  0  0  0  0  0  0
   16.5595    3.0435   13.0578 O   0  0  0  0  0  0  0  0  0  0  0  0
   16.9220    3.7608   11.8687 C   0  0  0  0  0  0  0  0  0  0  0  0
   18.4419    6.9456   13.3520 H   0  0  0  0  0  0  0  0  0  0  0  0
   14.8053    5.9599   14.9088 H   0  0  0  0  0  0  0  0  0  0  0  0
   16.3871    2.6606   15.6565 S   0  0  0  0  0  0  0  0  0  0  0  0
   16.7481    1.2866   15.1384 O   0  0  0  0  0  0  0  0  0  0  0  0
   17.4756    3.2201   16.5455 O   0  0  0  0  0  0  0  0  0  0  0  0
   14.9582    2.5922   16.5062 N   0  0  0  0  0  0  0  0  0  0  0  0
   14.2240    2.2149   15.9069 H   0  0  0  0  0  0  0  0  0  0  0  0
   14.6991    3.5302   16.8118 H   0  0  0  0  0  0  0  0  0  0  0  0
   18.3721    3.3823   11.6618 C   0  0  0  0  0  0  0  0  0  0  0  0
   18.5217    2.8783   10.3789 O   0  0  0  0  0  0  0  0  0  0  0  0
   17.9545    2.0991   10.2695 H   0  0  0  0  0  0  0  0  0  0  0  0
   17.9185    5.7168   10.9153 O   0  0  0  0  0  0  0  0  0  0  0  0
   17.4721    6.0835    7.9890 O   0  0  0  0  0  0  0  0  0  0  0  0
   18.5579    6.6380    8.7304 C   0  0  0  0  0  0  0  0  0  0  0  0
   19.7907    5.6784    8.7761 C   0  0  0  0  0  0  0  0  0  0  0  0
   20.4820    5.6366    7.5000 O   0  0  0  0  0  0  0  0  0  0  0  0
   20.7583    5.9480    9.9953 C   0  0  0  0  0  0  0  0  0  0  0  0
   21.9809    6.5981    9.6315 O   0  0  0  0  0  0  0  0  0  0  0  0
   20.0473    6.6606   11.2243 C   0  0  0  0  0  0  0  0  0  0  0  0
   19.0566    7.6756   10.8087 O   0  0  0  0  0  0  0  0  0  0  0  0
   18.0296    6.9327   10.1228 C   0  0  0  0  0  0  0  0  0  0  0  0
   17.7669    5.8790    7.0878 H   0  0  0  0  0  0  0  0  0  0  0  0
   20.8507    6.5120    7.3032 H   0  0  0  0  0  0  0  0  0  0  0  0
   21.7888    7.4952    9.3164 H   0  0  0  0  0  0  0  0  0  0  0  0
   20.9307    7.1774   12.3365 C   0  0  0  0  0  0  0  0  0  0  0  0
   20.4507    6.6460   13.5792 O   0  0  0  0  0  0  0  0  0  0  0  0
   19.5327    6.9268   13.7179 H   0  0  0  0  0  0  0  0  0  0  0  0
 21 22  1  0  0  0
 22 23  1  0  0  0
 22 29  1  0  0  0
 23 24  1  0  0  0
 23 25  1  0  0  0
 25 26  1  0  0  0
 25 27  1  0  0  0
 27 33  1  0  0  0
 27 28  1  0  0  0
 33 34  1  0  0  0
 28 29  1  0  0  0
 29 20  1  0  0  0
 20  1  1  0  0  0
  1  2  1  0  0  0
  1  8  1  0  0  0
  2  3  1  0  0  0
  2  4  1  0  0  0
  4  5  1  0  0  0
  4  6  1  0  0  0
  6 11  1  0  0  0
  6  7  1  0  0  0
 11 12  2  0  0  0
 11 13  2  0  0  0
 11 14  1  0  0  0
  7  8  1  0  0  0
  8 17  1  0  0  0
 17 18  1  0  0  0
 21 30  1  0  0  0
 24 31  1  0  0  0
 26 32  1  0  0  0
 34 35  1  0  0  0
  3  9  1  0  0  0
  5 10  1  0  0  0
 14 15  1  0  0  0
 14 16  1  0  0  0
 18 19  1  0  0  0
M  END
> <minimizedAffinity>
-7.28990

$$$$
3HKT_2SD_A_300


 35 36  0  0  0  0  0  0  0  0999 V2000
   16.8540    8.0893   11.5510 C   0  0  0  0  0  0  0  0  0  0  0  0
   15.4939    8.5666   12.0970 C   0  0  0  0  0  0  0  0  0  0  0  0
   14.9037    7.6494   13.0503 O   0  0  0  0  0  0  0  0  0  0  0  0
   14.4900    9.0572   11.0268 C   0  0  0  0  0  0  0  0  0  0  0  0
   13.7453   10.1270   11.6739 O   0  0  0  0  0  0  0  0  0  0  0  0
   15.1465    9.6341    9.7126 C   0  0  0  0  0  0  0  0  0  0  0  0
   16.2799    8.9290    9.1620 O   0  0  0  0  0  0  0  0  0  0  0  0
   17.1477    8.1711   10.0178 C   0  0  0  0  0  0  0  0  0  0  0  0
   14.6616    6.8256   12.5991 H   0  0  0  0  0  0  0  0  0  0  0  0
   14.3554   10.8357   11.9315 H   0  0  0  0  0  0  0  0  0  0  0  0
   13.9637    9.8754    8.3439 S   0  0  0  0  0  0  0  0  0  0  0  0
   12.5640    9.7043    8.8898 O   0  0  0  0  0  0  0  0  0  0  0  0
   14.1477   11.2364    7.7100 O   0  0  0  0  0  0  0  0  0  0  0  0
   14.2855    8.6921    7.2193 N   0  0  0  0  0  0  0  0  0  0  0  0
   14.1615    7.7742    7.6465 H   0  0  0  0  0  0  0  0  0  0  0  0
   15.2465    8.7873    6.8911 H   0  0  0  0  0  0  0  0  0  0  0  0
   17.0491    6.7683    9.4598 C   0  0  0  0  0  0  0  0  0  0  0  0
   15.7668    6.2902    9.6819 O   0  0  0  0  0  0  0  0  0  0  0  0
   15.5846    6.2841   10.6347 H   0  0  0  0  0  0  0  0  0  0  0  0
   17.3583    6.7513   11.9330 O   0  0  0  0  0  0  0  0  0  0  0  0
   19.9690    7.5932   13.1043 O   0  0  0  0  0  0  0  0  0  0  0  0
   19.4775    6.2541   13.0702 C   0  0  0  0  0  0  0  0  0  0  0  0
   19.9069    5.5021   11.7692 C   0  0  0  0  0  0  0  0  0  0  0  0
   21.3147    5.1478   11.7976 O   0  0  0  0  0  0  0  0  0  0  0  0
   18.9697    4.2842   11.4029 C   0  0  0  0  0  0  0  0  0  0  0  0
   19.5531    3.0042   11.6692 O   0  0  0  0  0  0  0  0  0  0  0  0
   17.5044    4.4079   12.0039 C   0  0  0  0  0  0  0  0  0  0  0  0
   17.4846    4.9937   13.3607 O   0  0  0  0  0  0  0  0  0  0  0  0
   17.9666    6.3412   13.1902 C   0  0  0  0  0  0  0  0  0  0  0  0
   20.9362    7.5846   13.0301 H   0  0  0  0  0  0  0  0  0  0  0  0
   21.4751    4.5180   12.5177 H   0  0  0  0  0  0  0  0  0  0  0  0
   19.6711    2.8953   12.6258 H   0  0  0  0  0  0  0  0  0  0  0  0
   16.6105    3.1923   11.9165 C   0  0  0  0  0  0  0  0  0  0  0  0
   15.4426    3.5431   11.1615 O   0  0  0  0  0  0  0  0  0  0  0  0
   14.9796    4.2727   11.6024 H   0  0  0  0  0  0  0  0  0  0  0  0
 21 22  1  0  0  0
 22 23  1  0  0  0
 22 29  1  0  0  0
 23 24  1  0  0  0
 23 25  1  0  0  0
 25 26  1  0  0  0
 25 27  1  0  0  0
 27 33  1  0  0  0
 27 28  1  0  0  0
 33 34  1  0  0  0
 28 29  1  0  0  0
 29 20  1  0  0  0
 20  1  1  0  0  0
  1  2  1  0  0  0
  1  8  1  0  0  0
  2  3  1  0  0  0
  2  4  1  0  0  0
  4  5  1  0  0  0
  4  6  1  0  0  0
  6 11  1  0  0  0
  6  7  1  0  0  0
 11 12  2  0  0  0
 11 13  2  0  0  0
 11 14  1  0  0  0
  7  8  1  0  0  0
  8 17  1  0  0  0
 17 18  1  0  0  0
 21 30  1  0  0  0
 24 31  1  0  0  0
 26 32  1  0  0  0
 34 35  1  0  0  0
  3  9  1  0  0  0
  5 10  1  0  0  0
 14 15  1  0  0  0
 14 16  1  0  0  0
 18 19  1  0  0  0
M  END
> <minimizedAffinity>
-7.02519

$$$$
3HKT_2SD_A_300


 35 36  0  0  0  0  0  0  0  0999 V2000
   16.9119    7.8332   11.3760 C   0  0  0  0  0  0  0  0  0  0  0  0
   15.6812    8.5283   11.9910 C   0  0  0  0  0  0  0  0  0  0  0  0
   15.0792    7.7779   13.0740 O   0  0  0  0  0  0  0  0  0  0  0  0
   14.6450    9.0569   10.9709 C   0  0  0  0  0  0  0  0  0  0  0  0
   14.1049   10.2647   11.5769 O   0  0  0  0  0  0  0  0  0  0  0  0
   15.2352    9.4327    9.5562 C   0  0  0  0  0  0  0  0  0  0  0  0
   16.2134    8.5421    8.9778 O   0  0  0  0  0  0  0  0  0  0  0  0
   17.0612    7.7496    9.8222 C   0  0  0  0  0  0  0  0  0  0  0  0
   14.6944    6.9587   12.7250 H   0  0  0  0  0  0  0  0  0  0  0  0
   14.8200   10.9059   11.7127 H   0  0  0  0  0  0  0  0  0  0  0  0
   13.9622    9.7140    8.2790 S   0  0  0  0  0  0  0  0  0  0  0  0
   12.6031    9.6348    8.9371 O   0  0  0  0  0  0  0  0  0  0  0  0
   14.1706   11.0493    7.5993 O   0  0  0  0  0  0  0  0  0  0  0  0
   14.1269    8.4919    7.1620 N   0  0  0  0  0  0  0  0  0  0  0  0
   13.9864    7.5914    7.6200 H   0  0  0  0  0  0  0  0  0  0  0  0
   15.0625    8.5251    6.7572 H   0  0  0  0  0  0  0  0  0  0  0  0
   16.7363    6.3309    9.4092 C   0  0  0  0  0  0  0  0  0  0  0  0
   17.8276    5.8023    8.7368 O   0  0  0  0  0  0  0  0  0  0  0  0
   18.0177    6.3426    7.9540 H   0  0  0  0  0  0  0  0  0  0  0  0
   17.2828    6.4765   11.8367 O   0  0  0  0  0  0  0  0  0  0  0  0
   19.8982    5.4553   10.8302 O   0  0  0  0  0  0  0  0  0  0  0  0
   19.1721    4.9104   11.9311 C   0  0  0  0  0  0  0  0  0  0  0  0
   18.1694    3.7986   11.4828 C   0  0  0  0  0  0  0  0  0  0  0  0
   18.8578    2.5698   11.1302 O   0  0  0  0  0  0  0  0  0  0  0  0
   16.9799    3.5720   12.4973 C   0  0  0  0  0  0  0  0  0  0  0  0
   17.0990    2.3732   13.2709 O   0  0  0  0  0  0  0  0  0  0  0  0
   16.6699    4.8385   13.4049 C   0  0  0  0  0  0  0  0  0  0  0  0
   17.8893    5.5623   13.8216 O   0  0  0  0  0  0  0  0  0  0  0  0
   18.4554    6.0709   12.5977 C   0  0  0  0  0  0  0  0  0  0  0  0
   20.3740    4.7443   10.3730 H   0  0  0  0  0  0  0  0  0  0  0  0
   19.2994    2.2098   11.9153 H   0  0  0  0  0  0  0  0  0  0  0  0
   17.8652    2.4443   13.8615 H   0  0  0  0  0  0  0  0  0  0  0  0
   15.7195    4.6489   14.5647 C   0  0  0  0  0  0  0  0  0  0  0  0
   14.5285    5.4034   14.3015 O   0  0  0  0  0  0  0  0  0  0  0  0
   14.7556    6.3409   14.1998 H   0  0  0  0  0  0  0  0  0  0  0  0
 21 22  1  0  0  0
 22 23  1  0  0  0
 22 29  1  0  0  0
 23 24  1  0  0  0
 23 25  1  0  0  0
 25 26  1  0  0  0
 25 27  1  0  0  0
 27 33  1  0  0  0
 27 28  1  0  0  0
 33 34  1  0  0  0
 28 29  1  0  0  0
 29 20  1  0  0  0
 20  1  1  0  0  0
  1  2  1  0  0  0
  1  8  1  0  0  0
  2  3  1  0  0  0
  2  4  1  0  0  0
  4  5  1  0  0  0
  4  6  1  0  0  0
  6 11  1  0  0  0
  6  7  1  0  0  0
 11 12  2  0  0  0
 11 13  2  0  0  0
 11 14  1  0  0  0
  7  8  1  0  0  0
  8 17  1  0  0  0
 17 18  1  0  0  0
 21 30  1  0  0  0
 24 31  1  0  0  0
 26 32  1  0  0  0
 34 35  1  0  0  0
  3  9  1  0  0  0
  5 10  1  0  0  0
 14 15  1  0  0  0
 14 16  1  0  0  0
 18 19  1  0  0  0
M  END
> <minimizedAffinity>
-6.95970

$$$$
3HKT_2SD_A_300


 35 36  0  0  0  0  0  0  0  0999 V2000
   17.0234    5.1198   13.7143 C   0  0  0  0  0  0  0  0  0  0  0  0
   16.8806    3.5872   13.6324 C   0  0  0  0  0  0  0  0  0  0  0  0
   16.4015    3.1229   12.3466 O   0  0  0  0  0  0  0  0  0  0  0  0
   16.1476    2.9293   14.8256 C   0  0  0  0  0  0  0  0  0  0  0  0
   16.7922    1.6356   14.9942 O   0  0  0  0  0  0  0  0  0  0  0  0
   16.2533    3.7178   16.1887 C   0  0  0  0  0  0  0  0  0  0  0  0
   16.1156    5.1544   16.1467 O   0  0  0  0  0  0  0  0  0  0  0  0
   16.4871    5.8841   14.9680 C   0  0  0  0  0  0  0  0  0  0  0  0
   15.4865    3.4177   12.2168 H   0  0  0  0  0  0  0  0  0  0  0  0
   17.7330    1.7663   15.1911 H   0  0  0  0  0  0  0  0  0  0  0  0
   15.1069    3.1186   17.4762 S   0  0  0  0  0  0  0  0  0  0  0  0
   15.5840    1.7618   17.9431 O   0  0  0  0  0  0  0  0  0  0  0  0
   15.0274    4.1018   18.6230 O   0  0  0  0  0  0  0  0  0  0  0  0
   13.6117    2.9814   16.7592 N   0  0  0  0  0  0  0  0  0  0  0  0
   13.6650    2.3185   15.9858 H   0  0  0  0  0  0  0  0  0  0  0  0
   13.3190    3.8926   16.4064 H   0  0  0  0  0  0  0  0  0  0  0  0
   15.2020    6.5738   14.5656 C   0  0  0  0  0  0  0  0  0  0  0  0
   14.3288    5.6251   14.0559 O   0  0  0  0  0  0  0  0  0  0  0  0
   14.7322    5.1950   13.2857 H   0  0  0  0  0  0  0  0  0  0  0  0
   16.5697    5.9511   12.5770 O   0  0  0  0  0  0  0  0  0  0  0  0
   15.0382    8.3187   11.6045 O   0  0  0  0  0  0  0  0  0  0  0  0
   16.2388    7.8189   11.0172 C   0  0  0  0  0  0  0  0  0  0  0  0
   15.9540    6.7455    9.9176 C   0  0  0  0  0  0  0  0  0  0  0  0
   15.4304    7.3493    8.7054 O   0  0  0  0  0  0  0  0  0  0  0  0
   17.1714    5.7752    9.6494 C   0  0  0  0  0  0  0  0  0  0  0  0
   17.8634    6.0393    8.4241 O   0  0  0  0  0  0  0  0  0  0  0  0
   18.1670    5.6505   10.8810 C   0  0  0  0  0  0  0  0  0  0  0  0
   18.3648    6.9294   11.5950 O   0  0  0  0  0  0  0  0  0  0  0  0
   17.0733    7.2482   12.1498 C   0  0  0  0  0  0  0  0  0  0  0  0
   14.4720    8.6948   10.9126 H   0  0  0  0  0  0  0  0  0  0  0  0
   16.1012    7.9340    8.3196 H   0  0  0  0  0  0  0  0  0  0  0  0
   18.2961    6.9059    8.4775 H   0  0  0  0  0  0  0  0  0  0  0  0
   19.4817    4.9431   10.6455 C   0  0  0  0  0  0  0  0  0  0  0  0
   19.2319    3.7788    9.8461 O   0  0  0  0  0  0  0  0  0  0  0  0
   18.6118    3.1949   10.3102 H   0  0  0  0  0  0  0  0  0  0  0  0
 21 22  1  0  0  0
 22 23  1  0  0  0
 22 29  1  0  0  0
 23 24  1  0  0  0
 23 25  1  0  0  0
 25 26  1  0  0  0
 25 27  1  0  0  0
 27 33  1  0  0  0
 27 28  1  0  0  0
 33 34  1  0  0  0
 28 29  1  0  0  0
 29 20  1  0  0  0
 20  1  1  0  0  0
  1  2  1  0  0  0
  1  8  1  0  0  0
  2  3  1  0  0  0
  2  4  1  0  0  0
  4  5  1  0  0  0
  4  6  1  0  0  0
  6 11  1  0  0  0
  6  7  1  0  0  0
 11 12  2  0  0  0
 11 13  2  0  0  0
 11 14  1  0  0  0
  7  8  1  0  0  0
  8 17  1  0  0  0
 17 18  1  0  0  0
 21 30  1  0  0  0
 24 31  1  0  0  0
 26 32  1  0  0  0
 34 35  1  0  0  0
  3  9  1  0  0  0
  5 10  1  0  0  0
 14 15  1  0  0  0
 14 16  1  0  0  0
 18 19  1  0  0  0
M  END
> <minimizedAffinity>
-6.91408

$$$$
3HKT_2SD_A_300


 35 36  0  0  0  0  0  0  0  0999 V2000
   18.9947    4.8474   10.7729 C   0  0  0  0  0  0  0  0  0  0  0  0
   17.4895    4.6034   10.5478 C   0  0  0  0  0  0  0  0  0  0  0  0
   16.9843    5.2109    9.3337 O   0  0  0  0  0  0  0  0  0  0  0  0
   16.5883    4.8671   11.7776 C   0  0  0  0  0  0  0  0  0  0  0  0
   15.5156    3.8894   11.6729 O   0  0  0  0  0  0  0  0  0  0  0  0
   17.2970    4.6785   13.1752 C   0  0  0  0  0  0  0  0  0  0  0  0
   18.6397    5.1886   13.3223 O   0  0  0  0  0  0  0  0  0  0  0  0
   19.5090    5.2806   12.1841 C   0  0  0  0  0  0  0  0  0  0  0  0
   17.0217    6.1767    9.4157 H   0  0  0  0  0  0  0  0  0  0  0  0
   15.8898    2.9948   11.6993 H   0  0  0  0  0  0  0  0  0  0  0  0
   16.3327    5.3265   14.5826 S   0  0  0  0  0  0  0  0  0  0  0  0
   16.7947    6.7383   14.8652 O   0  0  0  0  0  0  0  0  0  0  0  0
   14.8505    5.2788   14.2842 O   0  0  0  0  0  0  0  0  0  0  0  0
   16.6678    4.3457   15.8842 N   0  0  0  0  0  0  0  0  0  0  0  0
   17.6672    4.3777   16.0856 H   0  0  0  0  0  0  0  0  0  0  0  0
   16.3953    3.3872   15.6667 H   0  0  0  0  0  0  0  0  0  0  0  0
   19.8384    6.7557   12.1156 C   0  0  0  0  0  0  0  0  0  0  0  0
   21.1923    6.9212   12.3644 O   0  0  0  0  0  0  0  0  0  0  0  0
   21.4043    6.5723   13.2443 H   0  0  0  0  0  0  0  0  0  0  0  0
   19.7312    5.7340    9.8445 O   0  0  0  0  0  0  0  0  0  0  0  0
   22.6958    5.4650    9.6561 O   0  0  0  0  0  0  0  0  0  0  0  0
   21.8654    6.1033    8.6870 C   0  0  0  0  0  0  0  0  0  0  0  0
   21.6731    7.6250    8.9869 C   0  0  0  0  0  0  0  0  0  0  0  0
   22.8731    8.3844    8.6843 O   0  0  0  0  0  0  0  0  0  0  0  0
   20.3716    8.2394    8.3356 C   0  0  0  0  0  0  0  0  0  0  0  0
   20.6296    9.0662    7.1956 O   0  0  0  0  0  0  0  0  0  0  0  0
   19.2379    7.1645    8.0477 C   0  0  0  0  0  0  0  0  0  0  0  0
   19.7757    5.8693    7.5811 O   0  0  0  0  0  0  0  0  0  0  0  0
   20.5402    5.3627    8.6929 C   0  0  0  0  0  0  0  0  0  0  0  0
   23.5578    5.9088    9.6859 H   0  0  0  0  0  0  0  0  0  0  0  0
   23.0552    8.3357    7.7328 H   0  0  0  0  0  0  0  0  0  0  0  0
   20.9854    8.5223    6.4756 H   0  0  0  0  0  0  0  0  0  0  0  0
   18.0577    7.6032    7.2117 C   0  0  0  0  0  0  0  0  0  0  0  0
   17.3535    6.4328    6.7740 O   0  0  0  0  0  0  0  0  0  0  0  0
   17.9493    5.8736    6.2513 H   0  0  0  0  0  0  0  0  0  0  0  0
 21 22  1  0  0  0
 22 23  1  0  0  0
 22 29  1  0  0  0
 23 24  1  0  0  0
 23 25  1  0  0  0
 25 26  1  0  0  0
 25 27  1  0  0  0
 27 33  1  0  0  0
 27 28  1  0  0  0
 33 34  1  0  0  0
 28 29  1  0  0  0
 29 20  1  0  0  0
 20  1  1  0  0  0
  1  2  1  0  0  0
  1  8  1  0  0  0
  2  3  1  0  0  0
  2  4  1  0  0  0
  4  5  1  0  0  0
  4  6  1  0  0  0
  6 11  1  0  0  0
  6  7  1  0  0  0
 11 12  2  0  0  0
 11 13  2  0  0  0
 11 14  1  0  0  0
  7  8  1  0  0  0
  8 17  1  0  0  0
 17 18  1  0  0  0
 21 30  1  0  0  0
 24 31  1  0  0  0
 26 32  1  0  0  0
 34 35  1  0  0  0
  3  9  1  0  0  0
  5 10  1  0  0  0
 14 15  1  0  0  0
 14 16  1  0  0  0
 18 19  1  0  0  0
M  END
> <minimizedAffinity>
-6.55467

$$$$
3HKT_2SD_A_300


 35 36  0  0  0  0  0  0  0  0999 V2000
   16.9469    6.4657   11.7877 C   0  0  0  0  0  0  0  0  0  0  0  0
   17.3441    5.4917   12.9144 C   0  0  0  0  0  0  0  0  0  0  0  0
   18.4481    5.9676   13.7225 O   0  0  0  0  0  0  0  0  0  0  0  0
   17.5021    4.0143   12.4827 C   0  0  0  0  0  0  0  0  0  0  0  0
   17.0626    3.2387   13.6329 O   0  0  0  0  0  0  0  0  0  0  0  0
   16.6334    3.5884   11.2358 C   0  0  0  0  0  0  0  0  0  0  0  0
   16.5527    4.5093   10.1266 O   0  0  0  0  0  0  0  0  0  0  0  0
   16.6886    5.9213   10.3453 C   0  0  0  0  0  0  0  0  0  0  0  0
   19.2549    5.9933   13.1847 H   0  0  0  0  0  0  0  0  0  0  0  0
   16.1360    3.4482   13.8292 H   0  0  0  0  0  0  0  0  0  0  0  0
   17.0937    1.9661   10.5379 S   0  0  0  0  0  0  0  0  0  0  0  0
   16.1709    1.6689    9.3775 O   0  0  0  0  0  0  0  0  0  0  0  0
   18.5438    1.9597   10.1072 O   0  0  0  0  0  0  0  0  0  0  0  0
   16.8696    0.8445   11.7463 N   0  0  0  0  0  0  0  0  0  0  0  0
   15.8919    0.8486   12.0369 H   0  0  0  0  0  0  0  0  0  0  0  0
   17.4620    1.0797   12.5426 H   0  0  0  0  0  0  0  0  0  0  0  0
   17.8857    6.2916    9.4976 C   0  0  0  0  0  0  0  0  0  0  0  0
   17.5342    6.1851    8.1607 O   0  0  0  0  0  0  0  0  0  0  0  0
   17.2591    5.2747    7.9702 H   0  0  0  0  0  0  0  0  0  0  0  0
   17.7593    7.6821   11.5624 O   0  0  0  0  0  0  0  0  0  0  0  0
   16.2484   10.2140   11.1114 O   0  0  0  0  0  0  0  0  0  0  0  0
   17.6296   10.1324   11.4603 C   0  0  0  0  0  0  0  0  0  0  0  0
   18.5512   10.0489   10.2008 C   0  0  0  0  0  0  0  0  0  0  0  0
   18.6407   11.3278    9.5193 O   0  0  0  0  0  0  0  0  0  0  0  0
   19.9631    9.4024   10.4909 C   0  0  0  0  0  0  0  0  0  0  0  0
   21.0370   10.3485   10.5259 O   0  0  0  0  0  0  0  0  0  0  0  0
   19.9735    8.4421   11.7564 C   0  0  0  0  0  0  0  0  0  0  0  0
   19.1286    8.9372   12.8635 O   0  0  0  0  0  0  0  0  0  0  0  0
   17.7840    8.9088   12.3455 C   0  0  0  0  0  0  0  0  0  0  0  0
   16.1036   10.9863   10.5427 H   0  0  0  0  0  0  0  0  0  0  0  0
   19.0674   11.9755   10.1019 H   0  0  0  0  0  0  0  0  0  0  0  0
   20.9204   10.9421   11.2842 H   0  0  0  0  0  0  0  0  0  0  0  0
   21.3171    7.9673   12.2599 C   0  0  0  0  0  0  0  0  0  0  0  0
   21.2029    6.5827   12.6163 O   0  0  0  0  0  0  0  0  0  0  0  0
   20.5280    6.4808   13.3055 H   0  0  0  0  0  0  0  0  0  0  0  0
 21 22  1  0  0  0
 22 23  1  0  0  0
 22 29  1  0  0  0
 23 24  1  0  0  0
 23 25  1  0  0  0
 25 26  1  0  0  0
 25 27  1  0  0  0
 27 33  1  0  0  0
 27 28  1  0  0  0
 33 34  1  0  0  0
 28 29  1  0  0  0
 29 20  1  0  0  0
 20  1  1  0  0  0
  1  2  1  0  0  0
  1  8  1  0  0  0
  2  3  1  0  0  0
  2  4  1  0  0  0
  4  5  1  0  0  0
  4  6  1  0  0  0
  6 11  1  0  0  0
  6  7  1  0  0  0
 11 12  2  0  0  0
 11 13  2  0  0  0
 11 14  1  0  0  0
  7  8  1  0  0  0
  8 17  1  0  0  0
 17 18  1  0  0  0
 21 30  1  0  0  0
 24 31  1  0  0  0
 26 32  1  0  0  0
 34 35  1  0  0  0
  3  9  1  0  0  0
  5 10  1  0  0  0
 14 15  1  0  0  0
 14 16  1  0  0  0
 18 19  1  0  0  0
M  END
> <minimizedAffinity>
-6.37835

$$$$
3HKT_2SD_A_300


 35 36  0  0  0  0  0  0  0  0999 V2000
   17.4196    4.4485   13.4464 C   0  0  0  0  0  0  0  0  0  0  0  0
   16.9819    3.0148   13.8055 C   0  0  0  0  0  0  0  0  0  0  0  0
   16.5624    2.2377   12.6573 O   0  0  0  0  0  0  0  0  0  0  0  0
   16.0063    2.9040   15.0013 C   0  0  0  0  0  0  0  0  0  0  0  0
   16.3560    1.6520   15.6555 O   0  0  0  0  0  0  0  0  0  0  0  0
   16.1189    4.0667   16.0626 C   0  0  0  0  0  0  0  0  0  0  0  0
   16.2777    5.4143   15.5690 O   0  0  0  0  0  0  0  0  0  0  0  0
   16.9142    5.6531   14.3050 C   0  0  0  0  0  0  0  0  0  0  0  0
   15.7449    2.6129   12.2942 H   0  0  0  0  0  0  0  0  0  0  0  0
   17.2767    1.6915   15.9582 H   0  0  0  0  0  0  0  0  0  0  0  0
   14.7423    4.1057   17.2602 S   0  0  0  0  0  0  0  0  0  0  0  0
   15.3085    3.8716   18.6426 O   0  0  0  0  0  0  0  0  0  0  0  0
   14.0006    5.4217   17.1817 O   0  0  0  0  0  0  0  0  0  0  0  0
   13.7140    2.8644   16.8476 N   0  0  0  0  0  0  0  0  0  0  0  0
   14.2139    1.9769   16.9004 H   0  0  0  0  0  0  0  0  0  0  0  0
   13.3735    3.0068   15.8967 H   0  0  0  0  0  0  0  0  0  0  0  0
   15.8452    6.3653   13.5056 C   0  0  0  0  0  0  0  0  0  0  0  0
   14.6314    6.2235   14.1604 O   0  0  0  0  0  0  0  0  0  0  0  0
   14.4157    5.2812   14.2411 H   0  0  0  0  0  0  0  0  0  0  0  0
   17.2685    4.9241   12.0531 O   0  0  0  0  0  0  0  0  0  0  0  0
   20.0311    3.8503   11.7189 O   0  0  0  0  0  0  0  0  0  0  0  0
   19.3851    4.7504   10.8198 C   0  0  0  0  0  0  0  0  0  0  0  0
   19.6372    6.2451   11.2004 C   0  0  0  0  0  0  0  0  0  0  0  0
   20.9926    6.6559   10.8809 O   0  0  0  0  0  0  0  0  0  0  0  0
   18.5420    7.2352   10.6385 C   0  0  0  0  0  0  0  0  0  0  0  0
   18.9878    8.0224    9.5288 O   0  0  0  0  0  0  0  0  0  0  0  0
   17.1438    6.5379   10.3507 C   0  0  0  0  0  0  0  0  0  0  0  0
   17.2819    5.1737    9.7990 O   0  0  0  0  0  0  0  0  0  0  0  0
   17.9060    4.4098   10.8498 C   0  0  0  0  0  0  0  0  0  0  0  0
   20.9836    4.0334   11.7311 H   0  0  0  0  0  0  0  0  0  0  0  0
   21.1253    6.6141    9.9209 H   0  0  0  0  0  0  0  0  0  0  0  0
   19.1549    7.4439    8.7684 H   0  0  0  0  0  0  0  0  0  0  0  0
   16.1101    7.3366    9.5906 C   0  0  0  0  0  0  0  0  0  0  0  0
   16.3556    7.1741    8.1869 O   0  0  0  0  0  0  0  0  0  0  0  0
   17.2486    7.4890    7.9762 H   0  0  0  0  0  0  0  0  0  0  0  0
 21 22  1  0  0  0
 22 23  1  0  0  0
 22 29  1  0  0  0
 23 24  1  0  0  0
 23 25  1  0  0  0
 25 26  1  0  0  0
 25 27  1  0  0  0
 27 33  1  0  0  0
 27 28  1  0  0  0
 33 34  1  0  0  0
 28 29  1  0  0  0
 29 20  1  0  0  0
 20  1  1  0  0  0
  1  2  1  0  0  0
  1  8  1  0  0  0
  2  3  1  0  0  0
  2  4  1  0  0  0
  4  5  1  0  0  0
  4  6  1  0  0  0
  6 11  1  0  0  0
  6  7  1  0  0  0
 11 12  2  0  0  0
 11 13  2  0  0  0
 11 14  1  0  0  0
  7  8  1  0  0  0
  8 17  1  0  0  0
 17 18  1  0  0  0
 21 30  1  0  0  0
 24 31  1  0  0  0
 26 32  1  0  0  0
 34 35  1  0  0  0
  3  9  1  0  0  0
  5 10  1  0  0  0
 14 15  1  0  0  0
 14 16  1  0  0  0
 18 19  1  0  0  0
M  END
> <minimizedAffinity>
-6.32802

$$$$
3HKT_2SD_A_300


 35 36  0  0  0  0  0  0  0  0999 V2000
   16.8768    5.4101   13.6135 C   0  0  0  0  0  0  0  0  0  0  0  0
   16.7795    3.8818   13.4383 C   0  0  0  0  0  0  0  0  0  0  0  0
   16.2933    3.4830   12.1333 O   0  0  0  0  0  0  0  0  0  0  0  0
   16.0871    3.1285   14.5989 C   0  0  0  0  0  0  0  0  0  0  0  0
   16.7737    1.8478   14.6770 O   0  0  0  0  0  0  0  0  0  0  0  0
   16.1915    3.8341   16.0069 C   0  0  0  0  0  0  0  0  0  0  0  0
   16.0092    5.2655   16.0566 O   0  0  0  0  0  0  0  0  0  0  0  0
   16.3384    6.0781   14.9203 C   0  0  0  0  0  0  0  0  0  0  0  0
   15.3677    3.7563   12.0358 H   0  0  0  0  0  0  0  0  0  0  0  0
   17.7132    1.9957   14.8676 H   0  0  0  0  0  0  0  0  0  0  0  0
   15.0857    3.1205   17.2713 S   0  0  0  0  0  0  0  0  0  0  0  0
   13.7232    2.9140   16.6490 O   0  0  0  0  0  0  0  0  0  0  0  0
   15.6510    1.8240   17.8078 O   0  0  0  0  0  0  0  0  0  0  0  0
   14.9868    4.2340   18.5037 N   0  0  0  0  0  0  0  0  0  0  0  0
   14.6056    5.1083   18.1422 H   0  0  0  0  0  0  0  0  0  0  0  0
   15.9174    4.4012   18.8863 H   0  0  0  0  0  0  0  0  0  0  0  0
   15.0263    6.7504   14.5808 C   0  0  0  0  0  0  0  0  0  0  0  0
   14.1745    5.8083   14.0248 O   0  0  0  0  0  0  0  0  0  0  0  0
   14.5783    5.4404   13.2233 H   0  0  0  0  0  0  0  0  0  0  0  0
   16.3789    6.2955   12.5371 O   0  0  0  0  0  0  0  0  0  0  0  0
   19.1399    5.9350   11.4679 O   0  0  0  0  0  0  0  0  0  0  0  0
   18.2406    6.9753   11.0870 C   0  0  0  0  0  0  0  0  0  0  0  0
   18.3824    8.2386   11.9961 C   0  0  0  0  0  0  0  0  0  0  0  0
   19.5998    8.9734   11.7025 O   0  0  0  0  0  0  0  0  0  0  0  0
   17.0956    9.1547   12.0126 C   0  0  0  0  0  0  0  0  0  0  0  0
   17.2370   10.3654   11.2615 O   0  0  0  0  0  0  0  0  0  0  0  0
   15.7591    8.3784   11.6454 C   0  0  0  0  0  0  0  0  0  0  0  0
   15.9518    7.3673   10.5846 O   0  0  0  0  0  0  0  0  0  0  0  0
   16.8415    6.3905   11.1603 C   0  0  0  0  0  0  0  0  0  0  0  0
   20.0508    6.2668   11.4349 H   0  0  0  0  0  0  0  0  0  0  0  0
   19.5591    9.3177   10.7965 H   0  0  0  0  0  0  0  0  0  0  0  0
   17.3287   10.1527   10.3196 H   0  0  0  0  0  0  0  0  0  0  0  0
   14.5183    9.2053   11.3981 C   0  0  0  0  0  0  0  0  0  0  0  0
   14.5722    9.7117   10.0572 O   0  0  0  0  0  0  0  0  0  0  0  0
   15.3683   10.2551    9.9486 H   0  0  0  0  0  0  0  0  0  0  0  0
 21 22  1  0  0  0
 22 23  1  0  0  0
 22 29  1  0  0  0
 23 24  1  0  0  0
 23 25  1  0  0  0
 25 26  1  0  0  0
 25 27  1  0  0  0
 27 33  1  0  0  0
 27 28  1  0  0  0
 33 34  1  0  0  0
 28 29  1  0  0  0
 29 20  1  0  0  0
 20  1  1  0  0  0
  1  2  1  0  0  0
  1  8  1  0  0  0
  2  3  1  0  0  0
  2  4  1  0  0  0
  4  5  1  0  0  0
  4  6  1  0  0  0
  6 11  1  0  0  0
  6  7  1  0  0  0
 11 12  2  0  0  0
 11 13  2  0  0  0
 11 14  1  0  0  0
  7  8  1  0  0  0
  8 17  1  0  0  0
 17 18  1  0  0  0
 21 30  1  0  0  0
 24 31  1  0  0  0
 26 32  1  0  0  0
 34 35  1  0  0  0
  3  9  1  0  0  0
  5 10  1  0  0  0
 14 15  1  0  0  0
 14 16  1  0  0  0
 18 19  1  0  0  0
M  END
> <minimizedAffinity>
-6.32519

$$$$
3HKT_2SD_A_300


 35 36  0  0  0  0  0  0  0  0999 V2000
   19.6147    6.3603   11.7687 C   0  0  0  0  0  0  0  0  0  0  0  0
   19.8627    5.5297   10.4941 C   0  0  0  0  0  0  0  0  0  0  0  0
   20.0130    6.3384    9.3017 O   0  0  0  0  0  0  0  0  0  0  0  0
   18.9085    4.3282   10.2949 C   0  0  0  0  0  0  0  0  0  0  0  0
   19.7188    3.3100    9.6436 O   0  0  0  0  0  0  0  0  0  0  0  0
   18.3199    3.7174   11.6259 C   0  0  0  0  0  0  0  0  0  0  0  0
   17.8869    4.6355   12.6528 O   0  0  0  0  0  0  0  0  0  0  0  0
   18.4939    5.9307   12.7701 C   0  0  0  0  0  0  0  0  0  0  0  0
   19.1704    6.7735    9.0978 H   0  0  0  0  0  0  0  0  0  0  0  0
   20.4637    3.0731   10.2180 H   0  0  0  0  0  0  0  0  0  0  0  0
   16.9451    2.5483   11.3541 S   0  0  0  0  0  0  0  0  0  0  0  0
   17.1783    1.8379   10.0398 O   0  0  0  0  0  0  0  0  0  0  0  0
   16.8399    1.5683   12.5016 O   0  0  0  0  0  0  0  0  0  0  0  0
   15.5536    3.4569   11.2720 N   0  0  0  0  0  0  0  0  0  0  0  0
   15.6243    4.1178   10.4983 H   0  0  0  0  0  0  0  0  0  0  0  0
   15.4294    3.9683   12.1457 H   0  0  0  0  0  0  0  0  0  0  0  0
   17.3298    6.8792   12.5849 C   0  0  0  0  0  0  0  0  0  0  0  0
   16.5633    6.4394   11.5167 O   0  0  0  0  0  0  0  0  0  0  0  0
   17.1081    6.4190   10.7144 H   0  0  0  0  0  0  0  0  0  0  0  0
   19.4401    7.8256   11.6555 O   0  0  0  0  0  0  0  0  0  0  0  0
   21.3125    9.6388   13.1057 O   0  0  0  0  0  0  0  0  0  0  0  0
   20.4831   10.0206   12.0092 C   0  0  0  0  0  0  0  0  0  0  0  0
   19.0797   10.5227   12.4790 C   0  0  0  0  0  0  0  0  0  0  0  0
   19.1584   11.8428   13.0785 O   0  0  0  0  0  0  0  0  0  0  0  0
   17.9631   10.4139   11.3669 C   0  0  0  0  0  0  0  0  0  0  0  0
   17.6006   11.6709   10.7853 O   0  0  0  0  0  0  0  0  0  0  0  0
   18.2717    9.3137   10.2632 C   0  0  0  0  0  0  0  0  0  0  0  0
   19.7037    9.2422    9.9041 O   0  0  0  0  0  0  0  0  0  0  0  0
   20.3665    8.8052   11.1070 C   0  0  0  0  0  0  0  0  0  0  0  0
   21.4144   10.3899   13.7109 H   0  0  0  0  0  0  0  0  0  0  0  0
   19.4454   12.4847   12.4103 H   0  0  0  0  0  0  0  0  0  0  0  0
   18.3542   12.0270   10.2891 H   0  0  0  0  0  0  0  0  0  0  0  0
   17.3945    9.2959    9.0325 C   0  0  0  0  0  0  0  0  0  0  0  0
   16.0287    9.4313    9.4487 O   0  0  0  0  0  0  0  0  0  0  0  0
   15.7968    8.6983   10.0402 H   0  0  0  0  0  0  0  0  0  0  0  0
 21 22  1  0  0  0
 22 23  1  0  0  0
 22 29  1  0  0  0
 23 24  1  0  0  0
 23 25  1  0  0  0
 25 26  1  0  0  0
 25 27  1  0  0  0
 27 33  1  0  0  0
 27 28  1  0  0  0
 33 34  1  0  0  0
 28 29  1  0  0  0
 29 20  1  0  0  0
 20  1  1  0  0  0
  1  2  1  0  0  0
  1  8  1  0  0  0
  2  3  1  0  0  0
  2  4  1  0  0  0
  4  5  1  0  0  0
  4  6  1  0  0  0
  6 11  1  0  0  0
  6  7  1  0  0  0
 11 12  2  0  0  0
 11 13  2  0  0  0
 11 14  1  0  0  0
  7  8  1  0  0  0
  8 17  1  0  0  0
 17 18  1  0  0  0
 21 30  1  0  0  0
 24 31  1  0  0  0
 26 32  1  0  0  0
 34 35  1  0  0  0
  3  9  1  0  0  0
  5 10  1  0  0  0
 14 15  1  0  0  0
 14 16  1  0  0  0
 18 19  1  0  0  0
M  END
> <minimizedAffinity>
-6.11489

$$$$
3HKT_2SD_A_300


 35 36  0  0  0  0  0  0  0  0999 V2000
   19.1286    6.4999   10.7866 C   0  0  0  0  0  0  0  0  0  0  0  0
   19.4968    5.3021    9.8890 C   0  0  0  0  0  0  0  0  0  0  0  0
   19.4974    5.6219    8.4761 O   0  0  0  0  0  0  0  0  0  0  0  0
   18.7531    3.9842   10.2115 C   0  0  0  0  0  0  0  0  0  0  0  0
   19.7140    2.9308    9.9203 O   0  0  0  0  0  0  0  0  0  0  0  0
   18.2890    3.8316   11.7122 C   0  0  0  0  0  0  0  0  0  0  0  0
   17.7210    4.9895   12.3613 O   0  0  0  0  0  0  0  0  0  0  0  0
   18.1059    6.3107   11.9536 C   0  0  0  0  0  0  0  0  0  0  0  0
   18.5921    5.8183    8.1886 H   0  0  0  0  0  0  0  0  0  0  0  0
   20.4941    3.0393   10.4864 H   0  0  0  0  0  0  0  0  0  0  0  0
   17.1244    2.4532   11.9857 S   0  0  0  0  0  0  0  0  0  0  0  0
   15.8582    2.7402   11.2106 O   0  0  0  0  0  0  0  0  0  0  0  0
   17.7430    1.1377   11.5673 O   0  0  0  0  0  0  0  0  0  0  0  0
   16.7988    2.4186   13.6170 N   0  0  0  0  0  0  0  0  0  0  0  0
   16.3817    3.3055   13.8994 H   0  0  0  0  0  0  0  0  0  0  0  0
   17.6657    2.2708   14.1337 H   0  0  0  0  0  0  0  0  0  0  0  0
   16.7985    6.9360   11.5192 C   0  0  0  0  0  0  0  0  0  0  0  0
   16.2651    6.1799   10.4867 O   0  0  0  0  0  0  0  0  0  0  0  0
   16.8890    6.1607    9.7442 H   0  0  0  0  0  0  0  0  0  0  0  0
   18.7119    7.7739   10.1591 O   0  0  0  0  0  0  0  0  0  0  0  0
   19.8028   10.3403   11.2173 O   0  0  0  0  0  0  0  0  0  0  0  0
   19.2051   10.1690    9.9329 C   0  0  0  0  0  0  0  0  0  0  0  0
   17.6611   10.4084    9.9652 C   0  0  0  0  0  0  0  0  0  0  0  0
   17.3424   11.8189   10.0955 O   0  0  0  0  0  0  0  0  0  0  0  0
   16.8863    9.7059    8.7812 C   0  0  0  0  0  0  0  0  0  0  0  0
   16.4437   10.6091    7.7624 O   0  0  0  0  0  0  0  0  0  0  0  0
   17.6536    8.4538    8.1752 C   0  0  0  0  0  0  0  0  0  0  0  0
   19.1168    8.6511    8.1073 O   0  0  0  0  0  0  0  0  0  0  0  0
   19.5409    8.7592    9.4805 C   0  0  0  0  0  0  0  0  0  0  0  0
   19.6123   11.2328   11.5461 H   0  0  0  0  0  0  0  0  0  0  0  0
   17.6552   12.2949    9.3104 H   0  0  0  0  0  0  0  0  0  0  0  0
   17.2134   10.9891    7.3106 H   0  0  0  0  0  0  0  0  0  0  0  0
   17.1182    7.8628    6.8914 C   0  0  0  0  0  0  0  0  0  0  0  0
   17.2479    6.4362    6.9616 O   0  0  0  0  0  0  0  0  0  0  0  0
   18.1819    6.2018    7.0784 H   0  0  0  0  0  0  0  0  0  0  0  0
 21 22  1  0  0  0
 22 23  1  0  0  0
 22 29  1  0  0  0
 23 24  1  0  0  0
 23 25  1  0  0  0
 25 26  1  0  0  0
 25 27  1  0  0  0
 27 33  1  0  0  0
 27 28  1  0  0  0
 33 34  1  0  0  0
 28 29  1  0  0  0
 29 20  1  0  0  0
 20  1  1  0  0  0
  1  2  1  0  0  0
  1  8  1  0  0  0
  2  3  1  0  0  0
  2  4  1  0  0  0
  4  5  1  0  0  0
  4  6  1  0  0  0
  6 11  1  0  0  0
  6  7  1  0  0  0
 11 12  2  0  0  0
 11 13  2  0  0  0
 11 14  1  0  0  0
  7  8  1  0  0  0
  8 17  1  0  0  0
 17 18  1  0  0  0
 21 30  1  0  0  0
 24 31  1  0  0  0
 26 32  1  0  0  0
 34 35  1  0  0  0
  3  9  1  0  0  0
  5 10  1  0  0  0
 14 15  1  0  0  0
 14 16  1  0  0  0
 18 19  1  0  0  0
M  END
> <minimizedAffinity>
-6.01378

$$$$
