2V3D_NBV_A_1503


 19 19  0  0  0  0  0  0  0  0999 V2000
   34.4945   32.4792    0.5288 C   0  0  0  0  0  0  0  0  0  0  0  0
   35.7691   32.7585    1.3327 C   0  0  0  0  0  0  0  0  0  0  0  0
   35.5130   33.6150    2.4870 O   0  0  0  0  0  0  0  0  0  0  0  0
   36.4631   31.4511    1.7583 C   0  0  0  0  0  0  0  0  0  0  0  0
   37.7534   31.7126    2.3194 O   0  0  0  0  0  0  0  0  0  0  0  0
   36.6830   30.5043    0.5636 C   0  0  0  0  0  0  0  0  0  0  0  0
   36.9097   29.2028    1.1100 O   0  0  0  0  0  0  0  0  0  0  0  0
   34.9137   31.7838   -0.6932 N   0  0  0  0  0  0  0  0  0  0  0  0
   35.4846   30.4497   -0.3777 C   0  0  0  0  0  0  0  0  0  0  0  0
   34.9108   33.1625    3.0981 H   0  0  0  0  0  0  0  0  0  0  0  0
   38.3204   32.1239    1.6484 H   0  0  0  0  0  0  0  0  0  0  0  0
   36.1343   28.9285    1.6243 H   0  0  0  0  0  0  0  0  0  0  0  0
   34.2060   34.9236    0.9637 O   0  0  0  0  0  0  0  0  0  0  0  0
   33.7040   33.7872    0.2020 C   0  0  0  0  0  0  0  0  0  0  0  0
   33.6945   35.7160    0.7370 H   0  0  0  0  0  0  0  0  0  0  0  0
   33.8466   31.8129   -1.7139 C   0  0  0  0  0  0  0  0  0  0  0  0
   34.3913   32.1688   -3.1070 C   0  0  0  0  0  0  0  0  0  0  0  0
   34.0028   31.0529   -4.1176 C   0  0  0  0  0  0  0  0  0  0  0  0
   34.8561   29.7735   -3.9436 C   0  0  0  0  0  0  0  0  0  0  0  0
 13 14  1  0  0  0
 14  1  1  0  0  0
  1  2  1  0  0  0
  1  8  1  0  0  0
  2  3  1  0  0  0
  2  4  1  0  0  0
  4  5  1  0  0  0
  4  6  1  0  0  0
  6  7  1  0  0  0
  6  9  1  0  0  0
  8  9  1  0  0  0
  8 16  1  0  0  0
 16 17  1  0  0  0
 17 18  1  0  0  0
 18 19  1  0  0  0
 13 15  1  0  0  0
  3 10  1  0  0  0
  5 11  1  0  0  0
  7 12  1  0  0  0
M  END
> <minimizedAffinity>
-7.45111

$$$$
2V3D_NBV_A_1503


 19 19  0  0  0  0  0  0  0  0999 V2000
   35.4272   31.7113   -2.2191 C   0  0  0  0  0  0  0  0  0  0  0  0
   34.8320   31.1799   -0.9105 C   0  0  0  0  0  0  0  0  0  0  0  0
   35.6433   30.1124   -0.3327 O   0  0  0  0  0  0  0  0  0  0  0  0
   34.6069   32.3146    0.1063 C   0  0  0  0  0  0  0  0  0  0  0  0
   33.8605   31.8521    1.2363 O   0  0  0  0  0  0  0  0  0  0  0  0
   33.8085   33.4811   -0.5049 C   0  0  0  0  0  0  0  0  0  0  0  0
   34.0330   34.6151    0.3364 O   0  0  0  0  0  0  0  0  0  0  0  0
   34.4324   32.6258   -2.7910 N   0  0  0  0  0  0  0  0  0  0  0  0
   34.2461   33.8185   -1.9261 C   0  0  0  0  0  0  0  0  0  0  0  0
   36.5184   30.4607   -0.1010 H   0  0  0  0  0  0  0  0  0  0  0  0
   32.9825   31.5593    0.9460 H   0  0  0  0  0  0  0  0  0  0  0  0
   34.9805   34.8224    0.3536 H   0  0  0  0  0  0  0  0  0  0  0  0
   34.9285   29.3991   -3.0267 O   0  0  0  0  0  0  0  0  0  0  0  0
   35.7877   30.5611   -3.2139 C   0  0  0  0  0  0  0  0  0  0  0  0
   35.1790   28.7067   -3.6582 H   0  0  0  0  0  0  0  0  0  0  0  0
   34.7113   32.8901   -4.2170 C   0  0  0  0  0  0  0  0  0  0  0  0
   33.4203   33.0492   -5.0368 C   0  0  0  0  0  0  0  0  0  0  0  0
   32.6385   31.7053   -5.0412 C   0  0  0  0  0  0  0  0  0  0  0  0
   32.6185   31.0366   -6.4369 C   0  0  0  0  0  0  0  0  0  0  0  0
 13 14  1  0  0  0
 14  1  1  0  0  0
  1  2  1  0  0  0
  1  8  1  0  0  0
  2  3  1  0  0  0
  2  4  1  0  0  0
  4  5  1  0  0  0
  4  6  1  0  0  0
  6  7  1  0  0  0
  6  9  1  0  0  0
  8  9  1  0  0  0
  8 16  1  0  0  0
 16 17  1  0  0  0
 17 18  1  0  0  0
 18 19  1  0  0  0
 13 15  1  0  0  0
  3 10  1  0  0  0
  5 11  1  0  0  0
  7 12  1  0  0  0
M  END
> <minimizedAffinity>
-6.81192

$$$$
2V3D_NBV_A_1503


 19 19  0  0  0  0  0  0  0  0999 V2000
   34.6751   32.5743   -1.4047 C   0  0  0  0  0  0  0  0  0  0  0  0
   34.8881   33.4044   -0.1341 C   0  0  0  0  0  0  0  0  0  0  0  0
   33.7231   34.2235    0.1875 O   0  0  0  0  0  0  0  0  0  0  0  0
   35.2840   32.5146    1.0589 C   0  0  0  0  0  0  0  0  0  0  0  0
   35.6864   33.3071    2.1805 O   0  0  0  0  0  0  0  0  0  0  0  0
   36.4709   31.5943    0.7179 C   0  0  0  0  0  0  0  0  0  0  0  0
   36.4679   30.5461    1.6902 O   0  0  0  0  0  0  0  0  0  0  0  0
   35.9676   31.9574   -1.7238 N   0  0  0  0  0  0  0  0  0  0  0  0
   36.3663   30.9840   -0.6756 C   0  0  0  0  0  0  0  0  0  0  0  0
   32.9647   33.6481    0.3737 H   0  0  0  0  0  0  0  0  0  0  0  0
   36.4725   33.8246    1.9454 H   0  0  0  0  0  0  0  0  0  0  0  0
   35.6314   30.0579    1.6366 H   0  0  0  0  0  0  0  0  0  0  0  0
   34.6229   34.8131   -2.5149 O   0  0  0  0  0  0  0  0  0  0  0  0
   34.1435   33.4392   -2.5930 C   0  0  0  0  0  0  0  0  0  0  0  0
   34.2750   35.3200   -3.2652 H   0  0  0  0  0  0  0  0  0  0  0  0
   35.9921   31.4648   -3.1159 C   0  0  0  0  0  0  0  0  0  0  0  0
   35.1553   30.1867   -3.2898 C   0  0  0  0  0  0  0  0  0  0  0  0
   34.2988   30.2982   -4.5827 C   0  0  0  0  0  0  0  0  0  0  0  0
   34.5992   29.1634   -5.5913 C   0  0  0  0  0  0  0  0  0  0  0  0
 13 14  1  0  0  0
 14  1  1  0  0  0
  1  2  1  0  0  0
  1  8  1  0  0  0
  2  3  1  0  0  0
  2  4  1  0  0  0
  4  5  1  0  0  0
  4  6  1  0  0  0
  6  7  1  0  0  0
  6  9  1  0  0  0
  8  9  1  0  0  0
  8 16  1  0  0  0
 16 17  1  0  0  0
 17 18  1  0  0  0
 18 19  1  0  0  0
 13 15  1  0  0  0
  3 10  1  0  0  0
  5 11  1  0  0  0
  7 12  1  0  0  0
M  END
> <minimizedAffinity>
-6.64035

$$$$
2V3D_NBV_A_1503


 19 19  0  0  0  0  0  0  0  0999 V2000
   35.8910   31.7187    0.0719 C   0  0  0  0  0  0  0  0  0  0  0  0
   35.2789   32.4933    1.2442 C   0  0  0  0  0  0  0  0  0  0  0  0
   36.2336   32.6874    2.3315 O   0  0  0  0  0  0  0  0  0  0  0  0
   34.6875   33.8381    0.7818 C   0  0  0  0  0  0  0  0  0  0  0  0
   33.9348   34.4567    1.8300 O   0  0  0  0  0  0  0  0  0  0  0  0
   33.7269   33.6620   -0.4091 C   0  0  0  0  0  0  0  0  0  0  0  0
   33.5916   34.9482   -1.0186 O   0  0  0  0  0  0  0  0  0  0  0  0
   34.7921   31.4226   -0.8541 N   0  0  0  0  0  0  0  0  0  0  0  0
   34.2433   32.6695   -1.4453 C   0  0  0  0  0  0  0  0  0  0  0  0
   36.9753   33.2283    2.0179 H   0  0  0  0  0  0  0  0  0  0  0  0
   33.1849   33.8892    2.0679 H   0  0  0  0  0  0  0  0  0  0  0  0
   34.4600   35.2545   -1.3234 H   0  0  0  0  0  0  0  0  0  0  0  0
   37.9000   30.7054    1.1603 O   0  0  0  0  0  0  0  0  0  0  0  0
   36.6142   30.4144    0.5393 C   0  0  0  0  0  0  0  0  0  0  0  0
   38.3202   29.8763    1.4376 H   0  0  0  0  0  0  0  0  0  0  0  0
   35.1717   30.3600   -1.8070 C   0  0  0  0  0  0  0  0  0  0  0  0
   34.6914   30.6679   -3.2348 C   0  0  0  0  0  0  0  0  0  0  0  0
   35.4171   29.7302   -4.2407 C   0  0  0  0  0  0  0  0  0  0  0  0
   34.5302   29.3656   -5.4555 C   0  0  0  0  0  0  0  0  0  0  0  0
 13 14  1  0  0  0
 14  1  1  0  0  0
  1  2  1  0  0  0
  1  8  1  0  0  0
  2  3  1  0  0  0
  2  4  1  0  0  0
  4  5  1  0  0  0
  4  6  1  0  0  0
  6  7  1  0  0  0
  6  9  1  0  0  0
  8  9  1  0  0  0
  8 16  1  0  0  0
 16 17  1  0  0  0
 17 18  1  0  0  0
 18 19  1  0  0  0
 13 15  1  0  0  0
  3 10  1  0  0  0
  5 11  1  0  0  0
  7 12  1  0  0  0
M  END
> <minimizedAffinity>
-6.53951

$$$$
2V3D_NBV_A_1503


 19 19  0  0  0  0  0  0  0  0999 V2000
   33.9480   33.0481   -0.9501 C   0  0  0  0  0  0  0  0  0  0  0  0
   34.6801   32.0479   -0.0487 C   0  0  0  0  0  0  0  0  0  0  0  0
   34.0294   31.9016    1.2500 O   0  0  0  0  0  0  0  0  0  0  0  0
   34.8440   30.6822   -0.7414 C   0  0  0  0  0  0  0  0  0  0  0  0
   35.7073   29.8240    0.0112 O   0  0  0  0  0  0  0  0  0  0  0  0
   35.4692   30.8217   -2.1419 C   0  0  0  0  0  0  0  0  0  0  0  0
   35.1759   29.6107   -2.8429 O   0  0  0  0  0  0  0  0  0  0  0  0
   34.7980   33.2500   -2.1289 N   0  0  0  0  0  0  0  0  0  0  0  0
   34.9073   32.0023   -2.9267 C   0  0  0  0  0  0  0  0  0  0  0  0
   33.1379   31.5399    1.1260 H   0  0  0  0  0  0  0  0  0  0  0  0
   36.5918   30.2190    0.0620 H   0  0  0  0  0  0  0  0  0  0  0  0
   34.2145   29.4995   -2.9081 H   0  0  0  0  0  0  0  0  0  0  0  0
   34.5017   34.5697    0.9539 O   0  0  0  0  0  0  0  0  0  0  0  0
   33.6529   34.3969   -0.2179 C   0  0  0  0  0  0  0  0  0  0  0  0
   34.2926   35.4142    1.3829 H   0  0  0  0  0  0  0  0  0  0  0  0
   34.4013   34.4654   -2.8682 C   0  0  0  0  0  0  0  0  0  0  0  0
   35.3561   34.7676   -4.0349 C   0  0  0  0  0  0  0  0  0  0  0  0
   36.8108   34.8859   -3.4986 C   0  0  0  0  0  0  0  0  0  0  0  0
   37.5658   36.0969   -4.0975 C   0  0  0  0  0  0  0  0  0  0  0  0
 13 14  1  0  0  0
 14  1  1  0  0  0
  1  2  1  0  0  0
  1  8  1  0  0  0
  2  3  1  0  0  0
  2  4  1  0  0  0
  4  5  1  0  0  0
  4  6  1  0  0  0
  6  7  1  0  0  0
  6  9  1  0  0  0
  8  9  1  0  0  0
  8 16  1  0  0  0
 16 17  1  0  0  0
 17 18  1  0  0  0
 18 19  1  0  0  0
 13 15  1  0  0  0
  3 10  1  0  0  0
  5 11  1  0  0  0
  7 12  1  0  0  0
M  END
> <minimizedAffinity>
-6.49242

$$$$
2V3D_NBV_A_1503


 19 19  0  0  0  0  0  0  0  0999 V2000
   35.4184   31.8026   -2.1665 C   0  0  0  0  0  0  0  0  0  0  0  0
   34.8009   31.2402   -0.8814 C   0  0  0  0  0  0  0  0  0  0  0  0
   35.5921   30.1463   -0.3258 O   0  0  0  0  0  0  0  0  0  0  0  0
   34.5768   32.3471    0.1657 C   0  0  0  0  0  0  0  0  0  0  0  0
   33.8110   31.8607    1.2726 O   0  0  0  0  0  0  0  0  0  0  0  0
   33.7999   33.5409   -0.4201 C   0  0  0  0  0  0  0  0  0  0  0  0
   34.0275   34.6467    0.4570 O   0  0  0  0  0  0  0  0  0  0  0  0
   34.4417   32.7456   -2.7229 N   0  0  0  0  0  0  0  0  0  0  0  0
   34.2590   33.9145   -1.8254 C   0  0  0  0  0  0  0  0  0  0  0  0
   36.4684   30.4768   -0.0734 H   0  0  0  0  0  0  0  0  0  0  0  0
   32.9332   31.5874    0.9633 H   0  0  0  0  0  0  0  0  0  0  0  0
   34.9771   34.8417    0.4917 H   0  0  0  0  0  0  0  0  0  0  0  0
   34.9788   29.4783   -2.9739 O   0  0  0  0  0  0  0  0  0  0  0  0
   35.7774   30.6779   -3.1905 C   0  0  0  0  0  0  0  0  0  0  0  0
   35.2267   28.8030   -3.6245 H   0  0  0  0  0  0  0  0  0  0  0  0
   34.7413   33.0484   -4.1370 C   0  0  0  0  0  0  0  0  0  0  0  0
   34.7199   34.5596   -4.4198 C   0  0  0  0  0  0  0  0  0  0  0  0
   36.1185   35.0135   -4.9254 C   0  0  0  0  0  0  0  0  0  0  0  0
   37.2078   34.9033   -3.8315 C   0  0  0  0  0  0  0  0  0  0  0  0
 13 14  1  0  0  0
 14  1  1  0  0  0
  1  2  1  0  0  0
  1  8  1  0  0  0
  2  3  1  0  0  0
  2  4  1  0  0  0
  4  5  1  0  0  0
  4  6  1  0  0  0
  6  7  1  0  0  0
  6  9  1  0  0  0
  8  9  1  0  0  0
  8 16  1  0  0  0
 16 17  1  0  0  0
 17 18  1  0  0  0
 18 19  1  0  0  0
 13 15  1  0  0  0
  3 10  1  0  0  0
  5 11  1  0  0  0
  7 12  1  0  0  0
M  END
> <minimizedAffinity>
-6.41382

$$$$
2V3D_NBV_A_1503


 19 19  0  0  0  0  0  0  0  0999 V2000
   34.5334   32.8812   -2.8276 C   0  0  0  0  0  0  0  0  0  0  0  0
   33.9365   32.3703   -4.1435 C   0  0  0  0  0  0  0  0  0  0  0  0
   33.9342   33.3982   -5.1803 O   0  0  0  0  0  0  0  0  0  0  0  0
   34.6544   31.0973   -4.6296 C   0  0  0  0  0  0  0  0  0  0  0  0
   33.9631   30.5072   -5.7350 O   0  0  0  0  0  0  0  0  0  0  0  0
   34.7257   30.0239   -3.5275 C   0  0  0  0  0  0  0  0  0  0  0  0
   35.7529   29.1080   -3.9149 O   0  0  0  0  0  0  0  0  0  0  0  0
   34.3002   31.8335   -1.8271 N   0  0  0  0  0  0  0  0  0  0  0  0
   35.0624   30.6026   -2.1575 C   0  0  0  0  0  0  0  0  0  0  0  0
   34.8475   33.6513   -5.3867 H   0  0  0  0  0  0  0  0  0  0  0  0
   33.0751   30.2367   -5.4539 H   0  0  0  0  0  0  0  0  0  0  0  0
   36.5972   29.5803   -3.9860 H   0  0  0  0  0  0  0  0  0  0  0  0
   34.2658   35.3205   -3.3024 O   0  0  0  0  0  0  0  0  0  0  0  0
   33.9097   34.2446   -2.3863 C   0  0  0  0  0  0  0  0  0  0  0  0
   33.8634   36.1495   -2.9995 H   0  0  0  0  0  0  0  0  0  0  0  0
   34.4704   32.3593   -0.4575 C   0  0  0  0  0  0  0  0  0  0  0  0
   35.9489   32.4067   -0.0380 C   0  0  0  0  0  0  0  0  0  0  0  0
   36.0468   32.5030    1.5108 C   0  0  0  0  0  0  0  0  0  0  0  0
   36.8371   31.3243    2.1284 C   0  0  0  0  0  0  0  0  0  0  0  0
 13 14  1  0  0  0
 14  1  1  0  0  0
  1  2  1  0  0  0
  1  8  1  0  0  0
  2  3  1  0  0  0
  2  4  1  0  0  0
  4  5  1  0  0  0
  4  6  1  0  0  0
  6  7  1  0  0  0
  6  9  1  0  0  0
  8  9  1  0  0  0
  8 16  1  0  0  0
 16 17  1  0  0  0
 17 18  1  0  0  0
 18 19  1  0  0  0
 13 15  1  0  0  0
  3 10  1  0  0  0
  5 11  1  0  0  0
  7 12  1  0  0  0
M  END
> <minimizedAffinity>
-6.13227

$$$$
2V3D_NBV_A_1503


 19 19  0  0  0  0  0  0  0  0999 V2000
   34.5282   32.4428   -1.0024 C   0  0  0  0  0  0  0  0  0  0  0  0
   34.9548   33.2914    0.2005 C   0  0  0  0  0  0  0  0  0  0  0  0
   33.8844   34.1733    0.6567 O   0  0  0  0  0  0  0  0  0  0  0  0
   35.4746   32.4118    1.3529 C   0  0  0  0  0  0  0  0  0  0  0  0
   36.0658   33.2102    2.3830 O   0  0  0  0  0  0  0  0  0  0  0  0
   36.5594   31.4274    0.8776 C   0  0  0  0  0  0  0  0  0  0  0  0
   36.6465   30.4039    1.8719 O   0  0  0  0  0  0  0  0  0  0  0  0
   35.7341   31.7568   -1.4799 N   0  0  0  0  0  0  0  0  0  0  0  0
   36.2326   30.7902   -0.4687 C   0  0  0  0  0  0  0  0  0  0  0  0
   33.1348   33.6398    0.9640 H   0  0  0  0  0  0  0  0  0  0  0  0
   36.8332   33.6833    2.0251 H   0  0  0  0  0  0  0  0  0  0  0  0
   35.7899   29.9555    1.9503 H   0  0  0  0  0  0  0  0  0  0  0  0
   34.3894   34.6671   -2.1341 O   0  0  0  0  0  0  0  0  0  0  0  0
   33.8738   33.3042   -2.1304 C   0  0  0  0  0  0  0  0  0  0  0  0
   33.9632   35.1721   -2.8442 H   0  0  0  0  0  0  0  0  0  0  0  0
   35.5405   31.2309   -2.8463 C   0  0  0  0  0  0  0  0  0  0  0  0
   36.7343   31.5502   -3.7612 C   0  0  0  0  0  0  0  0  0  0  0  0
   36.4892   32.9063   -4.4812 C   0  0  0  0  0  0  0  0  0  0  0  0
   37.4320   34.0243   -3.9748 C   0  0  0  0  0  0  0  0  0  0  0  0
 13 14  1  0  0  0
 14  1  1  0  0  0
  1  2  1  0  0  0
  1  8  1  0  0  0
  2  3  1  0  0  0
  2  4  1  0  0  0
  4  5  1  0  0  0
  4  6  1  0  0  0
  6  7  1  0  0  0
  6  9  1  0  0  0
  8  9  1  0  0  0
  8 16  1  0  0  0
 16 17  1  0  0  0
 17 18  1  0  0  0
 18 19  1  0  0  0
 13 15  1  0  0  0
  3 10  1  0  0  0
  5 11  1  0  0  0
  7 12  1  0  0  0
M  END
> <minimizedAffinity>
-6.11332

$$$$
2V3D_NBV_A_1503


 19 19  0  0  0  0  0  0  0  0999 V2000
   34.8972   33.1852   -1.3852 C   0  0  0  0  0  0  0  0  0  0  0  0
   34.3817   33.8244   -2.6793 C   0  0  0  0  0  0  0  0  0  0  0  0
   33.8500   35.1654   -2.4547 O   0  0  0  0  0  0  0  0  0  0  0  0
   35.4676   33.8366   -3.7715 C   0  0  0  0  0  0  0  0  0  0  0  0
   34.9234   34.2357   -5.0335 O   0  0  0  0  0  0  0  0  0  0  0  0
   36.0883   32.4423   -3.9776 C   0  0  0  0  0  0  0  0  0  0  0  0
   37.3312   32.6442   -4.6546 O   0  0  0  0  0  0  0  0  0  0  0  0
   35.2168   31.7895   -1.7056 N   0  0  0  0  0  0  0  0  0  0  0  0
   36.3468   31.7089   -2.6659 C   0  0  0  0  0  0  0  0  0  0  0  0
   34.5600   35.7462   -2.1395 H   0  0  0  0  0  0  0  0  0  0  0  0
   34.2527   33.5936   -5.3140 H   0  0  0  0  0  0  0  0  0  0  0  0
   37.9106   33.1981   -4.1084 H   0  0  0  0  0  0  0  0  0  0  0  0
   34.0696   34.4729    0.5907 O   0  0  0  0  0  0  0  0  0  0  0  0
   33.8567   33.2830   -0.2231 C   0  0  0  0  0  0  0  0  0  0  0  0
   33.4087   34.5020    1.3001 H   0  0  0  0  0  0  0  0  0  0  0  0
   35.3436   30.9780   -0.4782 C   0  0  0  0  0  0  0  0  0  0  0  0
   36.8100   30.8101   -0.0473 C   0  0  0  0  0  0  0  0  0  0  0  0
   36.9041   30.8533    1.5041 C   0  0  0  0  0  0  0  0  0  0  0  0
   36.4930   32.2281    2.0839 C   0  0  0  0  0  0  0  0  0  0  0  0
 13 14  1  0  0  0
 14  1  1  0  0  0
  1  2  1  0  0  0
  1  8  1  0  0  0
  2  3  1  0  0  0
  2  4  1  0  0  0
  4  5  1  0  0  0
  4  6  1  0  0  0
  6  7  1  0  0  0
  6  9  1  0  0  0
  8  9  1  0  0  0
  8 16  1  0  0  0
 16 17  1  0  0  0
 17 18  1  0  0  0
 18 19  1  0  0  0
 13 15  1  0  0  0
  3 10  1  0  0  0
  5 11  1  0  0  0
  7 12  1  0  0  0
M  END
> <minimizedAffinity>
-5.97324

$$$$
2V3D_NBV_A_1503


 19 19  0  0  0  0  0  0  0  0999 V2000
   35.2996   31.6919   -2.6859 C   0  0  0  0  0  0  0  0  0  0  0  0
   34.8108   31.1526   -1.3371 C   0  0  0  0  0  0  0  0  0  0  0  0
   35.7143   30.1450   -0.7893 O   0  0  0  0  0  0  0  0  0  0  0  0
   34.5768   32.2919   -0.3275 C   0  0  0  0  0  0  0  0  0  0  0  0
   33.9232   31.8092    0.8505 O   0  0  0  0  0  0  0  0  0  0  0  0
   33.6784   33.3984   -0.9109 C   0  0  0  0  0  0  0  0  0  0  0  0
   33.8828   34.5596   -0.1022 O   0  0  0  0  0  0  0  0  0  0  0  0
   34.2225   32.5362   -3.2148 N   0  0  0  0  0  0  0  0  0  0  0  0
   34.0152   33.7328   -2.3601 C   0  0  0  0  0  0  0  0  0  0  0  0
   36.5791   30.5476   -0.6135 H   0  0  0  0  0  0  0  0  0  0  0  0
   33.0491   31.4607    0.6155 H   0  0  0  0  0  0  0  0  0  0  0  0
   34.8159   34.8214   -0.1424 H   0  0  0  0  0  0  0  0  0  0  0  0
   35.0189   29.2917   -3.3242 O   0  0  0  0  0  0  0  0  0  0  0  0
   35.6707   30.5452   -3.6809 C   0  0  0  0  0  0  0  0  0  0  0  0
   35.2704   28.6040   -3.9605 H   0  0  0  0  0  0  0  0  0  0  0  0
   34.4051   32.7884   -4.6585 C   0  0  0  0  0  0  0  0  0  0  0  0
   35.1566   34.1034   -4.9231 C   0  0  0  0  0  0  0  0  0  0  0  0
   34.4047   34.9219   -6.0104 C   0  0  0  0  0  0  0  0  0  0  0  0
   35.3315   35.3550   -7.1718 C   0  0  0  0  0  0  0  0  0  0  0  0
 13 14  1  0  0  0
 14  1  1  0  0  0
  1  2  1  0  0  0
  1  8  1  0  0  0
  2  3  1  0  0  0
  2  4  1  0  0  0
  4  5  1  0  0  0
  4  6  1  0  0  0
  6  7  1  0  0  0
  6  9  1  0  0  0
  8  9  1  0  0  0
  8 16  1  0  0  0
 16 17  1  0  0  0
 17 18  1  0  0  0
 18 19  1  0  0  0
 13 15  1  0  0  0
  3 10  1  0  0  0
  5 11  1  0  0  0
  7 12  1  0  0  0
M  END
> <minimizedAffinity>
-5.79162

$$$$
