6D9X_FZM_A_502


 14 16  0  0  0  0  0  0  0  0999 V2000
  -11.3145   24.2813    0.2815 N   0  0  0  0  0  0  0  0  0  0  0  0
  -11.3247   24.9420   -0.8967 C   0  0  0  0  0  0  0  0  0  0  0  0
   -9.4533   25.4190    0.2482 N   0  0  0  0  0  0  0  0  0  0  0  0
  -10.1731   24.5940    0.9655 C   0  0  0  0  0  0  0  0  0  0  0  0
  -10.1260   25.6725   -0.9465 C   0  0  0  0  0  0  0  0  0  0  0  0
   -8.3081   25.7501    0.9007 C   0  0  0  0  0  0  0  0  0  0  0  0
   -9.4914   24.3297    2.2018 C   0  0  0  0  0  0  0  0  0  0  0  0
   -8.2871   25.0860    2.1418 C   0  0  0  0  0  0  0  0  0  0  0  0
  -13.7692   25.9427   -3.6134 C   0  0  0  0  0  0  0  0  0  0  0  0
  -13.9830   23.5773   -3.2301 C   0  0  0  0  0  0  0  0  0  0  0  0
  -14.3691   24.7265   -3.9046 C   0  0  0  0  0  0  0  0  0  0  0  0
  -12.7831   25.9988   -2.6454 C   0  0  0  0  0  0  0  0  0  0  0  0
  -12.9978   23.6350   -2.2551 C   0  0  0  0  0  0  0  0  0  0  0  0
  -12.3873   24.8478   -1.9713 C   0  0  0  0  0  0  0  0  0  0  0  0
  8  6  1  0  0  0
  8  7  1  0  0  0
  6  3  1  0  0  0
  7  4  1  0  0  0
  3  4  1  0  0  0
  3  5  1  0  0  0
  4  1  2  0  0  0
  5  2  2  0  0  0
  1  2  1  0  0  0
  2 14  1  0  0  0
 13 14  2  0  0  0
 13 10  1  0  0  0
 14 12  1  0  0  0
 10 11  2  0  0  0
 12  9  2  0  0  0
 11  9  1  0  0  0
M  END
> <minimizedAffinity>
-6.85920

$$$$
6D9X_FZM_A_502


 14 16  0  0  0  0  0  0  0  0999 V2000
  -12.6320   23.7020   -1.9303 N   0  0  0  0  0  0  0  0  0  0  0  0
  -11.9583   24.7957   -1.5121 C   0  0  0  0  0  0  0  0  0  0  0  0
  -13.4230   25.3502   -3.1207 N   0  0  0  0  0  0  0  0  0  0  0  0
  -13.5093   24.0605   -2.9153 C   0  0  0  0  0  0  0  0  0  0  0  0
  -12.4622   25.8747   -2.2570 C   0  0  0  0  0  0  0  0  0  0  0  0
  -14.2851   25.7406   -4.0961 C   0  0  0  0  0  0  0  0  0  0  0  0
  -14.4934   23.5086   -3.8041 C   0  0  0  0  0  0  0  0  0  0  0  0
  -14.9843   24.6104   -4.5599 C   0  0  0  0  0  0  0  0  0  0  0  0
  -10.2350   24.2146    1.8120 C   0  0  0  0  0  0  0  0  0  0  0  0
   -8.8435   25.6497    0.4734 C   0  0  0  0  0  0  0  0  0  0  0  0
   -9.0765   24.9609    1.6549 C   0  0  0  0  0  0  0  0  0  0  0  0
  -11.1546   24.1633    0.7804 C   0  0  0  0  0  0  0  0  0  0  0  0
   -9.7689   25.6027   -0.5590 C   0  0  0  0  0  0  0  0  0  0  0  0
  -10.9221   24.8464   -0.4091 C   0  0  0  0  0  0  0  0  0  0  0  0
  8  6  1  0  0  0
  8  7  1  0  0  0
  6  3  1  0  0  0
  7  4  1  0  0  0
  3  4  1  0  0  0
  3  5  1  0  0  0
  4  1  2  0  0  0
  5  2  2  0  0  0
  1  2  1  0  0  0
  2 14  1  0  0  0
 13 14  2  0  0  0
 13 10  1  0  0  0
 14 12  1  0  0  0
 10 11  2  0  0  0
 12  9  2  0  0  0
 11  9  1  0  0  0
M  END
> <minimizedAffinity>
-6.60262

$$$$
6D9X_FZM_A_502


 14 16  0  0  0  0  0  0  0  0999 V2000
  -12.0480   26.2928   -1.8780 N   0  0  0  0  0  0  0  0  0  0  0  0
  -11.3140   25.4854   -1.0816 C   0  0  0  0  0  0  0  0  0  0  0  0
  -12.7769   24.2763   -2.2809 N   0  0  0  0  0  0  0  0  0  0  0  0
  -12.9377   25.5379   -2.5901 C   0  0  0  0  0  0  0  0  0  0  0  0
  -11.7574   24.1769   -1.3349 C   0  0  0  0  0  0  0  0  0  0  0  0
  -13.6478   23.4966   -2.9739 C   0  0  0  0  0  0  0  0  0  0  0  0
  -13.9899   25.6527   -3.5610 C   0  0  0  0  0  0  0  0  0  0  0  0
  -14.4369   24.3220   -3.7970 C   0  0  0  0  0  0  0  0  0  0  0  0
   -9.2050   27.5922    1.2575 C   0  0  0  0  0  0  0  0  0  0  0  0
   -8.0796   25.4968    0.8965 C   0  0  0  0  0  0  0  0  0  0  0  0
   -8.1274   26.7502    1.4892 C   0  0  0  0  0  0  0  0  0  0  0  0
  -10.2308   27.1705    0.4314 C   0  0  0  0  0  0  0  0  0  0  0  0
   -9.1061   25.0763    0.0633 C   0  0  0  0  0  0  0  0  0  0  0  0
  -10.1911   25.9115   -0.1594 C   0  0  0  0  0  0  0  0  0  0  0  0
  8  6  1  0  0  0
  8  7  1  0  0  0
  6  3  1  0  0  0
  7  4  1  0  0  0
  3  4  1  0  0  0
  3  5  1  0  0  0
  4  1  2  0  0  0
  5  2  2  0  0  0
  1  2  1  0  0  0
  2 14  1  0  0  0
 13 14  2  0  0  0
 13 10  1  0  0  0
 14 12  1  0  0  0
 10 11  2  0  0  0
 12  9  2  0  0  0
 11  9  1  0  0  0
M  END
> <minimizedAffinity>
-6.18020

$$$$
6D9X_FZM_A_502


 14 16  0  0  0  0  0  0  0  0999 V2000
  -14.5372   24.9635    4.7577 N   0  0  0  0  0  0  0  0  0  0  0  0
  -14.5153   26.3082    4.6305 C   0  0  0  0  0  0  0  0  0  0  0  0
  -12.5253   25.5611    5.3533 N   0  0  0  0  0  0  0  0  0  0  0  0
  -13.3209   24.5321    5.2082 C   0  0  0  0  0  0  0  0  0  0  0  0
  -13.2216   26.7152    4.9961 C   0  0  0  0  0  0  0  0  0  0  0  0
  -11.3043   25.1658    5.8002 C   0  0  0  0  0  0  0  0  0  0  0  0
  -12.6149   23.3372    5.5785 C   0  0  0  0  0  0  0  0  0  0  0  0
  -11.3123   23.7671    5.9584 C   0  0  0  0  0  0  0  0  0  0  0  0
  -17.7886   27.3677    3.0429 C   0  0  0  0  0  0  0  0  0  0  0  0
  -16.5916   29.3445    3.7119 C   0  0  0  0  0  0  0  0  0  0  0  0
  -17.7030   28.7492    3.1330 C   0  0  0  0  0  0  0  0  0  0  0  0
  -16.7567   26.5900    3.5358 C   0  0  0  0  0  0  0  0  0  0  0  0
  -15.5540   28.5642    4.2010 C   0  0  0  0  0  0  0  0  0  0  0  0
  -15.6433   27.1820    4.1238 C   0  0  0  0  0  0  0  0  0  0  0  0
  8  6  1  0  0  0
  8  7  1  0  0  0
  6  3  1  0  0  0
  7  4  1  0  0  0
  3  4  1  0  0  0
  3  5  1  0  0  0
  4  1  2  0  0  0
  5  2  2  0  0  0
  1  2  1  0  0  0
  2 14  1  0  0  0
 13 14  2  0  0  0
 13 10  1  0  0  0
 14 12  1  0  0  0
 10 11  2  0  0  0
 12  9  2  0  0  0
 11  9  1  0  0  0
M  END
> <minimizedAffinity>
-6.14592

$$$$
6D9X_FZM_A_502


 14 16  0  0  0  0  0  0  0  0999 V2000
  -12.0250   29.3800    3.3527 N   0  0  0  0  0  0  0  0  0  0  0  0
  -12.9587   29.3072    4.3263 C   0  0  0  0  0  0  0  0  0  0  0  0
  -10.9543   29.8087    5.2045 N   0  0  0  0  0  0  0  0  0  0  0  0
  -10.8125   29.6756    3.9102 C   0  0  0  0  0  0  0  0  0  0  0  0
  -12.2931   29.5943    5.5294 C   0  0  0  0  0  0  0  0  0  0  0  0
   -9.7644   30.1044    5.7907 C   0  0  0  0  0  0  0  0  0  0  0  0
   -9.4349   29.8896    3.5645 C   0  0  0  0  0  0  0  0  0  0  0  0
   -8.7725   30.1658    4.7938 C   0  0  0  0  0  0  0  0  0  0  0  0
  -16.3093   27.5377    4.3375 C   0  0  0  0  0  0  0  0  0  0  0  0
  -16.6015   29.7158    3.3584 C   0  0  0  0  0  0  0  0  0  0  0  0
  -17.1267   28.4938    3.7530 C   0  0  0  0  0  0  0  0  0  0  0  0
  -14.9671   27.8142    4.5236 C   0  0  0  0  0  0  0  0  0  0  0  0
  -15.2539   29.9905    3.5400 C   0  0  0  0  0  0  0  0  0  0  0  0
  -14.4371   29.0409    4.1363 C   0  0  0  0  0  0  0  0  0  0  0  0
  8  6  1  0  0  0
  8  7  1  0  0  0
  6  3  1  0  0  0
  7  4  1  0  0  0
  3  4  1  0  0  0
  3  5  1  0  0  0
  4  1  2  0  0  0
  5  2  2  0  0  0
  1  2  1  0  0  0
  2 14  1  0  0  0
 13 14  2  0  0  0
 13 10  1  0  0  0
 14 12  1  0  0  0
 10 11  2  0  0  0
 12  9  2  0  0  0
 11  9  1  0  0  0
M  END
> <minimizedAffinity>
-5.92759

$$$$
6D9X_FZM_A_502


 14 16  0  0  0  0  0  0  0  0999 V2000
   -8.9756   24.8593    2.9882 N   0  0  0  0  0  0  0  0  0  0  0  0
   -7.8576   25.6083    2.8702 C   0  0  0  0  0  0  0  0  0  0  0  0
   -8.9443   25.5153    0.9078 N   0  0  0  0  0  0  0  0  0  0  0  0
   -9.6149   24.8078    1.7811 C   0  0  0  0  0  0  0  0  0  0  0  0
   -7.8237   26.0543    1.5387 C   0  0  0  0  0  0  0  0  0  0  0  0
   -9.5549   25.4857   -0.3059 C   0  0  0  0  0  0  0  0  0  0  0  0
  -10.7697   24.2431    1.1402 C   0  0  0  0  0  0  0  0  0  0  0  0
  -10.7140   24.6928   -0.2092 C   0  0  0  0  0  0  0  0  0  0  0  0
   -5.5501   27.6000    5.1210 C   0  0  0  0  0  0  0  0  0  0  0  0
   -5.4738   25.2937    5.8014 C   0  0  0  0  0  0  0  0  0  0  0  0
   -5.0583   26.6082    5.9567 C   0  0  0  0  0  0  0  0  0  0  0  0
   -6.4583   27.2664    4.1328 C   0  0  0  0  0  0  0  0  0  0  0  0
   -6.3804   24.9585    4.8063 C   0  0  0  0  0  0  0  0  0  0  0  0
   -6.8836   25.9508    3.9778 C   0  0  0  0  0  0  0  0  0  0  0  0
  8  6  1  0  0  0
  8  7  1  0  0  0
  6  3  1  0  0  0
  7  4  1  0  0  0
  3  4  1  0  0  0
  3  5  1  0  0  0
  4  1  2  0  0  0
  5  2  2  0  0  0
  1  2  1  0  0  0
  2 14  1  0  0  0
 13 14  2  0  0  0
 13 10  1  0  0  0
 14 12  1  0  0  0
 10 11  2  0  0  0
 12  9  2  0  0  0
 11  9  1  0  0  0
M  END
> <minimizedAffinity>
-5.62326

$$$$
6D9X_FZM_A_502


 14 16  0  0  0  0  0  0  0  0999 V2000
   -7.4229   24.5921    3.8606 N   0  0  0  0  0  0  0  0  0  0  0  0
   -8.0445   25.4609    3.0337 C   0  0  0  0  0  0  0  0  0  0  0  0
   -6.5472   26.5382    4.3135 N   0  0  0  0  0  0  0  0  0  0  0  0
   -6.5247   25.2701    4.6365 C   0  0  0  0  0  0  0  0  0  0  0  0
   -7.4853   26.7219    3.2984 C   0  0  0  0  0  0  0  0  0  0  0  0
   -5.6627   27.2423    5.0677 C   0  0  0  0  0  0  0  0  0  0  0  0
   -5.5646   25.0700    5.6859 C   0  0  0  0  0  0  0  0  0  0  0  0
   -5.0172   26.3569    5.9514 C   0  0  0  0  0  0  0  0  0  0  0  0
  -11.0728   23.9126    1.3635 C   0  0  0  0  0  0  0  0  0  0  0  0
   -9.9246   25.2748   -0.2533 C   0  0  0  0  0  0  0  0  0  0  0  0
  -10.9688   24.4236    0.0782 C   0  0  0  0  0  0  0  0  0  0  0  0
  -10.1269   24.2598    2.3107 C   0  0  0  0  0  0  0  0  0  0  0  0
   -8.9727   25.6183    0.6957 C   0  0  0  0  0  0  0  0  0  0  0  0
   -9.0820   25.1189    1.9852 C   0  0  0  0  0  0  0  0  0  0  0  0
  8  6  1  0  0  0
  8  7  1  0  0  0
  6  3  1  0  0  0
  7  4  1  0  0  0
  3  4  1  0  0  0
  3  5  1  0  0  0
  4  1  2  0  0  0
  5  2  2  0  0  0
  1  2  1  0  0  0
  2 14  1  0  0  0
 13 14  2  0  0  0
 13 10  1  0  0  0
 14 12  1  0  0  0
 10 11  2  0  0  0
 12  9  2  0  0  0
 11  9  1  0  0  0
M  END
> <minimizedAffinity>
-5.54598

$$$$
6D9X_FZM_A_502


 14 16  0  0  0  0  0  0  0  0999 V2000
  -10.7462   30.1178    3.4533 N   0  0  0  0  0  0  0  0  0  0  0  0
  -11.4146   28.9502    3.5751 C   0  0  0  0  0  0  0  0  0  0  0  0
   -9.4061   28.6040    2.6335 N   0  0  0  0  0  0  0  0  0  0  0  0
   -9.5325   29.8853    2.8692 C   0  0  0  0  0  0  0  0  0  0  0  0
  -10.5630   27.9564    3.0651 C   0  0  0  0  0  0  0  0  0  0  0  0
   -8.2069   28.3380    2.0522 C   0  0  0  0  0  0  0  0  0  0  0  0
   -8.3474   30.5635    2.4235 C   0  0  0  0  0  0  0  0  0  0  0  0
   -7.5014   29.5464    1.8982 C   0  0  0  0  0  0  0  0  0  0  0  0
  -14.3063   27.3580    5.4353 C   0  0  0  0  0  0  0  0  0  0  0  0
  -15.0059   29.5210    4.6478 C   0  0  0  0  0  0  0  0  0  0  0  0
  -15.2801   28.3390    5.3205 C   0  0  0  0  0  0  0  0  0  0  0  0
  -13.0603   27.5693    4.8738 C   0  0  0  0  0  0  0  0  0  0  0  0
  -13.7577   29.7302    4.0797 C   0  0  0  0  0  0  0  0  0  0  0  0
  -12.7780   28.7560    4.2045 C   0  0  0  0  0  0  0  0  0  0  0  0
  8  6  1  0  0  0
  8  7  1  0  0  0
  6  3  1  0  0  0
  7  4  1  0  0  0
  3  4  1  0  0  0
  3  5  1  0  0  0
  4  1  2  0  0  0
  5  2  2  0  0  0
  1  2  1  0  0  0
  2 14  1  0  0  0
 13 14  2  0  0  0
 13 10  1  0  0  0
 14 12  1  0  0  0
 10 11  2  0  0  0
 12  9  2  0  0  0
 11  9  1  0  0  0
M  END
> <minimizedAffinity>
-5.43204

$$$$
6D9X_FZM_A_502


 14 16  0  0  0  0  0  0  0  0999 V2000
  -12.1069   27.8993    5.1005 N   0  0  0  0  0  0  0  0  0  0  0  0
  -13.2275   27.2170    4.7784 C   0  0  0  0  0  0  0  0  0  0  0  0
  -11.5784   25.7944    5.3235 N   0  0  0  0  0  0  0  0  0  0  0  0
  -11.1146   27.0146    5.4183 C   0  0  0  0  0  0  0  0  0  0  0  0
  -12.9143   25.8560    4.9288 C   0  0  0  0  0  0  0  0  0  0  0  0
  -10.6148   24.8881    5.6346 C   0  0  0  0  0  0  0  0  0  0  0  0
   -9.7364   26.9629    5.8198 C   0  0  0  0  0  0  0  0  0  0  0  0
   -9.4310   25.5792    5.9549 C   0  0  0  0  0  0  0  0  0  0  0  0
  -16.8970   27.4977    3.8765 C   0  0  0  0  0  0  0  0  0  0  0  0
  -15.9266   29.6982    3.8128 C   0  0  0  0  0  0  0  0  0  0  0  0
  -17.0234   28.8622    3.6616 C   0  0  0  0  0  0  0  0  0  0  0  0
  -15.6685   26.9791    4.2432 C   0  0  0  0  0  0  0  0  0  0  0  0
  -14.6931   29.1769    4.1751 C   0  0  0  0  0  0  0  0  0  0  0  0
  -14.5674   27.8144    4.4032 C   0  0  0  0  0  0  0  0  0  0  0  0
  8  6  1  0  0  0
  8  7  1  0  0  0
  6  3  1  0  0  0
  7  4  1  0  0  0
  3  4  1  0  0  0
  3  5  1  0  0  0
  4  1  2  0  0  0
  5  2  2  0  0  0
  1  2  1  0  0  0
  2 14  1  0  0  0
 13 14  2  0  0  0
 13 10  1  0  0  0
 14 12  1  0  0  0
 10 11  2  0  0  0
 12  9  2  0  0  0
 11  9  1  0  0  0
M  END
> <minimizedAffinity>
-5.41590

$$$$
6D9X_FZM_A_502


 14 16  0  0  0  0  0  0  0  0999 V2000
  -10.9845   29.1042    3.0121 N   0  0  0  0  0  0  0  0  0  0  0  0
  -10.3646   27.9307    3.2643 C   0  0  0  0  0  0  0  0  0  0  0  0
  -12.3358   28.0167    4.3354 N   0  0  0  0  0  0  0  0  0  0  0  0
  -12.1758   29.1392    3.6815 C   0  0  0  0  0  0  0  0  0  0  0  0
  -11.2249   27.2061    4.1056 C   0  0  0  0  0  0  0  0  0  0  0  0
  -13.5139   28.0186    5.0128 C   0  0  0  0  0  0  0  0  0  0  0  0
  -13.3130   29.9848    3.9155 C   0  0  0  0  0  0  0  0  0  0  0  0
  -14.1678   29.2430    4.7787 C   0  0  0  0  0  0  0  0  0  0  0  0
   -7.7678   25.7978    1.5135 C   0  0  0  0  0  0  0  0  0  0  0  0
   -6.6902   27.7829    2.3418 C   0  0  0  0  0  0  0  0  0  0  0  0
   -6.6259   26.5688    1.6737 C   0  0  0  0  0  0  0  0  0  0  0  0
   -8.9701   26.2509    2.0252 C   0  0  0  0  0  0  0  0  0  0  0  0
   -7.8953   28.2343    2.8600 C   0  0  0  0  0  0  0  0  0  0  0  0
   -9.0411   27.4712    2.6897 C   0  0  0  0  0  0  0  0  0  0  0  0
  8  6  1  0  0  0
  8  7  1  0  0  0
  6  3  1  0  0  0
  7  4  1  0  0  0
  3  4  1  0  0  0
  3  5  1  0  0  0
  4  1  2  0  0  0
  5  2  2  0  0  0
  1  2  1  0  0  0
  2 14  1  0  0  0
 13 14  2  0  0  0
 13 10  1  0  0  0
 14 12  1  0  0  0
 10 11  2  0  0  0
 12  9  2  0  0  0
 11  9  1  0  0  0
M  END
> <minimizedAffinity>
-5.26245

$$$$
