3V2P_STE_A_1


 21 20  0  0  0  0  0  0  0  0999 V2000
    5.0652    0.0743    6.3064 C   0  0  0  0  0  0  0  0  0  0  0  0
    4.5603    0.8754    5.1259 C   0  0  0  0  0  0  0  0  0  0  0  0
    5.4028    0.7331    3.8793 C   0  0  0  0  0  0  0  0  0  0  0  0
    6.7531    0.0975    4.1317 C   0  0  0  0  0  0  0  0  0  0  0  0
    7.4853   -0.0609    2.8071 C   0  0  0  0  0  0  0  0  0  0  0  0
    8.4806    1.0695    2.6303 C   0  0  0  0  0  0  0  0  0  0  0  0
    9.8431    0.5408    2.2315 C   0  0  0  0  0  0  0  0  0  0  0  0
    9.7392   -0.4986    1.1229 C   0  0  0  0  0  0  0  0  0  0  0  0
    9.7446    0.1838   -0.2433 C   0  0  0  0  0  0  0  0  0  0  0  0
   11.0016    1.0315   -0.5804 C   0  0  0  0  0  0  0  0  0  0  0  0
   11.8385    0.8181   -1.8302 C   0  0  0  0  0  0  0  0  0  0  0  0
    4.1388    0.1879    7.5218 C   0  0  0  0  0  0  0  0  0  0  0  0
    3.5185   -1.1712    7.8686 C   0  0  0  0  0  0  0  0  0  0  0  0
    2.0645   -1.0195    8.2819 C   0  0  0  0  0  0  0  0  0  0  0  0
    1.5535    0.4128    8.2261 C   0  0  0  0  0  0  0  0  0  0  0  0
    1.3266    1.0067    9.6038 C   0  0  0  0  0  0  0  0  0  0  0  0
    1.2193   -0.0484   10.6873 C   0  0  0  0  0  0  0  0  0  0  0  0
   -0.2005   -0.4397   11.0504 C   0  0  0  0  0  0  0  0  0  0  0  0
   -0.5208   -0.4380   12.2461 O   0  0  0  0  0  0  0  0  0  0  0  0
   -1.0120   -0.7528   10.1664 O   0  0  0  0  0  0  0  0  0  0  0  0
   -0.7500   -0.7478    9.2668 H   0  0  0  0  0  0  0  0  0  0  0  0
 18 19  2  0  0  0
 18 20  1  0  0  0
 18 17  1  0  0  0
 17 16  1  0  0  0
 16 15  1  0  0  0
 15 14  1  0  0  0
 14 13  1  0  0  0
 13 12  1  0  0  0
 12  1  1  0  0  0
  1  2  1  0  0  0
  2  3  1  0  0  0
  3  4  1  0  0  0
  4  5  1  0  0  0
  5  6  1  0  0  0
  6  7  1  0  0  0
  7  8  1  0  0  0
  8  9  1  0  0  0
  9 10  1  0  0  0
 10 11  1  0  0  0
 20 21  1  0  0  0
M  END
> <minimizedAffinity>
-7.10286

$$$$
3V2P_STE_A_1


 21 20  0  0  0  0  0  0  0  0999 V2000
    8.5604    0.6930    3.2104 C   0  0  0  0  0  0  0  0  0  0  0  0
    7.1887    0.2567    2.7436 C   0  0  0  0  0  0  0  0  0  0  0  0
    6.2409   -0.1002    3.8654 C   0  0  0  0  0  0  0  0  0  0  0  0
    6.8263    0.1185    5.2439 C   0  0  0  0  0  0  0  0  0  0  0  0
    5.6941    0.3148    6.2414 C   0  0  0  0  0  0  0  0  0  0  0  0
    4.5881   -0.6864    5.9690 C   0  0  0  0  0  0  0  0  0  0  0  0
    3.5712   -0.6965    7.0918 C   0  0  0  0  0  0  0  0  0  0  0  0
    3.8744    0.3730    8.1332 C   0  0  0  0  0  0  0  0  0  0  0  0
    3.8501   -0.2326    9.5350 C   0  0  0  0  0  0  0  0  0  0  0  0
    2.4664   -0.2735   10.2393 C   0  0  0  0  0  0  0  0  0  0  0  0
    1.3233    0.6615    9.8829 C   0  0  0  0  0  0  0  0  0  0  0  0
    9.5686    0.7633    2.0585 C   0  0  0  0  0  0  0  0  0  0  0  0
    9.4015   -0.4292    1.1087 C   0  0  0  0  0  0  0  0  0  0  0  0
   10.1790   -0.2161   -0.1790 C   0  0  0  0  0  0  0  0  0  0  0  0
   10.9621    1.0880   -0.2182 C   0  0  0  0  0  0  0  0  0  0  0  0
   11.7149    1.2790   -1.5218 C   0  0  0  0  0  0  0  0  0  0  0  0
   12.1762   -0.0308   -2.1304 C   0  0  0  0  0  0  0  0  0  0  0  0
   13.5843   -0.4449   -1.7471 C   0  0  0  0  0  0  0  0  0  0  0  0
   13.9166   -1.6240   -1.9246 O   0  0  0  0  0  0  0  0  0  0  0  0
   14.3745    0.3822   -1.2681 O   0  0  0  0  0  0  0  0  0  0  0  0
   14.1036    1.2702   -1.1415 H   0  0  0  0  0  0  0  0  0  0  0  0
 18 19  2  0  0  0
 18 20  1  0  0  0
 18 17  1  0  0  0
 17 16  1  0  0  0
 16 15  1  0  0  0
 15 14  1  0  0  0
 14 13  1  0  0  0
 13 12  1  0  0  0
 12  1  1  0  0  0
  1  2  1  0  0  0
  2  3  1  0  0  0
  3  4  1  0  0  0
  4  5  1  0  0  0
  5  6  1  0  0  0
  6  7  1  0  0  0
  7  8  1  0  0  0
  8  9  1  0  0  0
  9 10  1  0  0  0
 10 11  1  0  0  0
 20 21  1  0  0  0
M  END
> <minimizedAffinity>
-6.63417

$$$$
3V2P_STE_A_1


 21 20  0  0  0  0  0  0  0  0999 V2000
    7.3630   -0.0607    2.8419 C   0  0  0  0  0  0  0  0  0  0  0  0
    6.3662   -0.1948    3.9727 C   0  0  0  0  0  0  0  0  0  0  0  0
    6.7362    0.5817    5.2153 C   0  0  0  0  0  0  0  0  0  0  0  0
    5.5390    1.0514    6.0133 C   0  0  0  0  0  0  0  0  0  0  0  0
    4.4056    0.0494    5.8492 C   0  0  0  0  0  0  0  0  0  0  0  0
    3.4238    0.1896    6.9965 C   0  0  0  0  0  0  0  0  0  0  0  0
    3.9255   -0.5232    8.2355 C   0  0  0  0  0  0  0  0  0  0  0  0
    3.0586   -1.7274    8.5799 C   0  0  0  0  0  0  0  0  0  0  0  0
    2.5674   -1.6295   10.0225 C   0  0  0  0  0  0  0  0  0  0  0  0
    1.1833   -0.9563   10.2304 C   0  0  0  0  0  0  0  0  0  0  0  0
    1.0137    0.5255   10.5196 C   0  0  0  0  0  0  0  0  0  0  0  0
    8.5358    0.8545    3.2097 C   0  0  0  0  0  0  0  0  0  0  0  0
    9.6058    0.8446    2.1109 C   0  0  0  0  0  0  0  0  0  0  0  0
    9.3141   -0.2256    1.0728 C   0  0  0  0  0  0  0  0  0  0  0  0
    9.9435    0.0451   -0.2859 C   0  0  0  0  0  0  0  0  0  0  0  0
   11.3489    0.6068   -0.1777 C   0  0  0  0  0  0  0  0  0  0  0  0
   11.9266    1.0057   -1.5214 C   0  0  0  0  0  0  0  0  0  0  0  0
   13.3966    0.6770   -1.7005 C   0  0  0  0  0  0  0  0  0  0  0  0
   14.1969    1.0913   -0.8519 O   0  0  0  0  0  0  0  0  0  0  0  0
   13.7778    0.0113   -2.6749 O   0  0  0  0  0  0  0  0  0  0  0  0
   13.1562   -0.2932   -3.3064 H   0  0  0  0  0  0  0  0  0  0  0  0
 18 19  2  0  0  0
 18 20  1  0  0  0
 18 17  1  0  0  0
 17 16  1  0  0  0
 16 15  1  0  0  0
 15 14  1  0  0  0
 14 13  1  0  0  0
 13 12  1  0  0  0
 12  1  1  0  0  0
  1  2  1  0  0  0
  2  3  1  0  0  0
  3  4  1  0  0  0
  4  5  1  0  0  0
  5  6  1  0  0  0
  6  7  1  0  0  0
  7  8  1  0  0  0
  8  9  1  0  0  0
  9 10  1  0  0  0
 10 11  1  0  0  0
 20 21  1  0  0  0
M  END
> <minimizedAffinity>
-6.59034

$$$$
3V2P_STE_A_1


 21 20  0  0  0  0  0  0  0  0999 V2000
    7.3718    0.7269    3.1357 C   0  0  0  0  0  0  0  0  0  0  0  0
    6.4227   -0.3651    3.5792 C   0  0  0  0  0  0  0  0  0  0  0  0
    5.0359    0.1268    3.9242 C   0  0  0  0  0  0  0  0  0  0  0  0
    4.9962    1.0105    5.1523 C   0  0  0  0  0  0  0  0  0  0  0  0
    5.6597    0.2827    6.3124 C   0  0  0  0  0  0  0  0  0  0  0  0
    4.6008   -0.2869    7.2366 C   0  0  0  0  0  0  0  0  0  0  0  0
    3.2692    0.4069    7.0353 C   0  0  0  0  0  0  0  0  0  0  0  0
    2.1138   -0.5857    7.0336 C   0  0  0  0  0  0  0  0  0  0  0  0
    2.1886   -1.4856    8.2652 C   0  0  0  0  0  0  0  0  0  0  0  0
    1.0280   -1.3446    9.2877 C   0  0  0  0  0  0  0  0  0  0  0  0
    1.2186   -0.7993   10.6927 C   0  0  0  0  0  0  0  0  0  0  0  0
    8.7784    0.1903    2.8496 C   0  0  0  0  0  0  0  0  0  0  0  0
    9.7380    1.3303    2.4868 C   0  0  0  0  0  0  0  0  0  0  0  0
    9.5010    1.8137    1.0662 C   0  0  0  0  0  0  0  0  0  0  0  0
    9.5496    0.7078    0.0220 C   0  0  0  0  0  0  0  0  0  0  0  0
   10.9663    0.3588   -0.3944 C   0  0  0  0  0  0  0  0  0  0  0  0
   11.3486    0.9575   -1.7339 C   0  0  0  0  0  0  0  0  0  0  0  0
   12.6206    1.7839   -1.7172 C   0  0  0  0  0  0  0  0  0  0  0  0
   12.5507    2.9731   -2.0536 O   0  0  0  0  0  0  0  0  0  0  0  0
   13.6977    1.2732   -1.3753 O   0  0  0  0  0  0  0  0  0  0  0  0
   13.7297    0.3710   -1.1241 H   0  0  0  0  0  0  0  0  0  0  0  0
 18 19  2  0  0  0
 18 20  1  0  0  0
 18 17  1  0  0  0
 17 16  1  0  0  0
 16 15  1  0  0  0
 15 14  1  0  0  0
 14 13  1  0  0  0
 13 12  1  0  0  0
 12  1  1  0  0  0
  1  2  1  0  0  0
  2  3  1  0  0  0
  3  4  1  0  0  0
  4  5  1  0  0  0
  5  6  1  0  0  0
  6  7  1  0  0  0
  7  8  1  0  0  0
  8  9  1  0  0  0
  9 10  1  0  0  0
 10 11  1  0  0  0
 20 21  1  0  0  0
M  END
> <minimizedAffinity>
-6.58827

$$$$
3V2P_STE_A_1


 21 20  0  0  0  0  0  0  0  0999 V2000
    5.6424    0.5303    5.7017 C   0  0  0  0  0  0  0  0  0  0  0  0
    6.0199    0.6370    4.2401 C   0  0  0  0  0  0  0  0  0  0  0  0
    7.4928    0.4357    3.9681 C   0  0  0  0  0  0  0  0  0  0  0  0
    7.7860   -0.0699    2.5719 C   0  0  0  0  0  0  0  0  0  0  0  0
    9.2202    0.2822    2.2047 C   0  0  0  0  0  0  0  0  0  0  0  0
    9.2774    0.7848    0.7751 C   0  0  0  0  0  0  0  0  0  0  0  0
   10.2711   -0.0120   -0.0451 C   0  0  0  0  0  0  0  0  0  0  0  0
   10.8914    0.8326   -1.1506 C   0  0  0  0  0  0  0  0  0  0  0  0
   12.4038    0.9241   -0.9600 C   0  0  0  0  0  0  0  0  0  0  0  0
   13.2750    0.3527   -2.1119 C   0  0  0  0  0  0  0  0  0  0  0  0
   13.6385   -1.1177   -2.2295 C   0  0  0  0  0  0  0  0  0  0  0  0
    4.1242    0.5430    5.9098 C   0  0  0  0  0  0  0  0  0  0  0  0
    3.7542   -0.0146    7.2897 C   0  0  0  0  0  0  0  0  0  0  0  0
    3.2806    1.0911    8.2176 C   0  0  0  0  0  0  0  0  0  0  0  0
    1.9065    0.8426    8.8225 C   0  0  0  0  0  0  0  0  0  0  0  0
    1.5708   -0.6336    8.9241 C   0  0  0  0  0  0  0  0  0  0  0  0
    1.3993   -1.0993   10.3567 C   0  0  0  0  0  0  0  0  0  0  0  0
    0.1172   -0.6370   11.0226 C   0  0  0  0  0  0  0  0  0  0  0  0
   -0.9381   -0.7174   10.3805 O   0  0  0  0  0  0  0  0  0  0  0  0
    0.1351   -0.1906   12.1795 O   0  0  0  0  0  0  0  0  0  0  0  0
    0.9444   -0.1378   12.6488 H   0  0  0  0  0  0  0  0  0  0  0  0
 18 19  2  0  0  0
 18 20  1  0  0  0
 18 17  1  0  0  0
 17 16  1  0  0  0
 16 15  1  0  0  0
 15 14  1  0  0  0
 14 13  1  0  0  0
 13 12  1  0  0  0
 12  1  1  0  0  0
  1  2  1  0  0  0
  2  3  1  0  0  0
  3  4  1  0  0  0
  4  5  1  0  0  0
  5  6  1  0  0  0
  6  7  1  0  0  0
  7  8  1  0  0  0
  8  9  1  0  0  0
  9 10  1  0  0  0
 10 11  1  0  0  0
 20 21  1  0  0  0
M  END
> <minimizedAffinity>
-6.53745

$$$$
3V2P_STE_A_1


 21 20  0  0  0  0  0  0  0  0999 V2000
    6.1446   -0.1623    3.4939 C   0  0  0  0  0  0  0  0  0  0  0  0
    6.3932   -0.5099    4.9456 C   0  0  0  0  0  0  0  0  0  0  0  0
    5.1395   -0.5739    5.7871 C   0  0  0  0  0  0  0  0  0  0  0  0
    5.2368    0.2117    7.0772 C   0  0  0  0  0  0  0  0  0  0  0  0
    3.9087    0.1257    7.8150 C   0  0  0  0  0  0  0  0  0  0  0  0
    4.1068   -0.5573    9.1544 C   0  0  0  0  0  0  0  0  0  0  0  0
    3.1390   -1.7097    9.3287 C   0  0  0  0  0  0  0  0  0  0  0  0
    1.9356   -1.5766    8.4043 C   0  0  0  0  0  0  0  0  0  0  0  0
    0.6798   -1.2613    9.2139 C   0  0  0  0  0  0  0  0  0  0  0  0
    0.6120    0.1545    9.8490 C   0  0  0  0  0  0  0  0  0  0  0  0
    0.7768    0.4074   11.3378 C   0  0  0  0  0  0  0  0  0  0  0  0
    7.3882   -0.3802    2.6253 C   0  0  0  0  0  0  0  0  0  0  0  0
    8.5008    0.6059    3.0019 C   0  0  0  0  0  0  0  0  0  0  0  0
    8.4466    1.8502    2.1320 C   0  0  0  0  0  0  0  0  0  0  0  0
    9.5295    1.9041    1.0642 C   0  0  0  0  0  0  0  0  0  0  0  0
   10.4577    0.7047    1.1118 C   0  0  0  0  0  0  0  0  0  0  0  0
   10.4337   -0.1071   -0.1684 C   0  0  0  0  0  0  0  0  0  0  0  0
   11.4630    0.3106   -1.2014 C   0  0  0  0  0  0  0  0  0  0  0  0
   12.3659    1.0810   -0.8500 O   0  0  0  0  0  0  0  0  0  0  0  0
   11.3936   -0.1126   -2.3650 O   0  0  0  0  0  0  0  0  0  0  0  0
   10.7022   -0.6952   -2.6112 H   0  0  0  0  0  0  0  0  0  0  0  0
 18 19  2  0  0  0
 18 20  1  0  0  0
 18 17  1  0  0  0
 17 16  1  0  0  0
 16 15  1  0  0  0
 15 14  1  0  0  0
 14 13  1  0  0  0
 13 12  1  0  0  0
 12  1  1  0  0  0
  1  2  1  0  0  0
  2  3  1  0  0  0
  3  4  1  0  0  0
  4  5  1  0  0  0
  5  6  1  0  0  0
  6  7  1  0  0  0
  7  8  1  0  0  0
  8  9  1  0  0  0
  9 10  1  0  0  0
 10 11  1  0  0  0
 20 21  1  0  0  0
M  END
> <minimizedAffinity>
-6.26765

$$$$
3V2P_STE_A_1


 21 20  0  0  0  0  0  0  0  0999 V2000
    7.5129    0.3467    3.9795 C   0  0  0  0  0  0  0  0  0  0  0  0
    8.0472    0.6715    2.6014 C   0  0  0  0  0  0  0  0  0  0  0  0
    8.4739   -0.5399    1.8049 C   0  0  0  0  0  0  0  0  0  0  0  0
    9.1644   -0.1947    0.5030 C   0  0  0  0  0  0  0  0  0  0  0  0
    9.8120    1.1765    0.6300 C   0  0  0  0  0  0  0  0  0  0  0  0
   11.0575    1.2398   -0.2328 C   0  0  0  0  0  0  0  0  0  0  0  0
   10.8346    0.5554   -1.5658 C   0  0  0  0  0  0  0  0  0  0  0  0
   11.8503    1.0091   -2.6064 C   0  0  0  0  0  0  0  0  0  0  0  0
   13.1411    1.4573   -1.9243 C   0  0  0  0  0  0  0  0  0  0  0  0
   14.2170    0.3587   -1.7055 C   0  0  0  0  0  0  0  0  0  0  0  0
   13.9870   -1.1075   -2.0297 C   0  0  0  0  0  0  0  0  0  0  0  0
    6.1389   -0.3294    3.9231 C   0  0  0  0  0  0  0  0  0  0  0  0
    5.0131    0.7004    4.0785 C   0  0  0  0  0  0  0  0  0  0  0  0
    4.5257    0.7653    5.5160 C   0  0  0  0  0  0  0  0  0  0  0  0
    3.8444   -0.5085    5.9946 C   0  0  0  0  0  0  0  0  0  0  0  0
    3.5291   -0.4807    7.4785 C   0  0  0  0  0  0  0  0  0  0  0  0
    2.0919   -0.8575    7.7802 C   0  0  0  0  0  0  0  0  0  0  0  0
    1.3207    0.1776    8.5769 C   0  0  0  0  0  0  0  0  0  0  0  0
    0.1554   -0.0834    8.9030 O   0  0  0  0  0  0  0  0  0  0  0  0
    1.8509    1.2547    8.8879 O   0  0  0  0  0  0  0  0  0  0  0  0
    2.7343    1.4333    8.6315 H   0  0  0  0  0  0  0  0  0  0  0  0
 18 19  2  0  0  0
 18 20  1  0  0  0
 18 17  1  0  0  0
 17 16  1  0  0  0
 16 15  1  0  0  0
 15 14  1  0  0  0
 14 13  1  0  0  0
 13 12  1  0  0  0
 12  1  1  0  0  0
  1  2  1  0  0  0
  2  3  1  0  0  0
  3  4  1  0  0  0
  4  5  1  0  0  0
  5  6  1  0  0  0
  6  7  1  0  0  0
  7  8  1  0  0  0
  8  9  1  0  0  0
  9 10  1  0  0  0
 10 11  1  0  0  0
 20 21  1  0  0  0
M  END
> <minimizedAffinity>
-6.05753

$$$$
3V2P_STE_A_1


 21 20  0  0  0  0  0  0  0  0999 V2000
    9.3733    1.7792    1.6631 C   0  0  0  0  0  0  0  0  0  0  0  0
    7.9993    1.7940    2.2972 C   0  0  0  0  0  0  0  0  0  0  0  0
    7.7964    0.7314    3.3525 C   0  0  0  0  0  0  0  0  0  0  0  0
    6.4559    0.0347    3.2587 C   0  0  0  0  0  0  0  0  0  0  0  0
    6.1411   -0.6232    4.5943 C   0  0  0  0  0  0  0  0  0  0  0  0
    5.5984    0.4103    5.5624 C   0  0  0  0  0  0  0  0  0  0  0  0
    4.9994   -0.2497    6.7874 C   0  0  0  0  0  0  0  0  0  0  0  0
    4.1295    0.7190    7.5780 C   0  0  0  0  0  0  0  0  0  0  0  0
    3.7043    0.0876    8.9019 C   0  0  0  0  0  0  0  0  0  0  0  0
    3.1028   -1.3418    8.8169 C   0  0  0  0  0  0  0  0  0  0  0  0
    1.7082   -1.6275    8.2865 C   0  0  0  0  0  0  0  0  0  0  0  0
   10.1304    0.4787    1.9527 C   0  0  0  0  0  0  0  0  0  0  0  0
    9.9521   -0.5271    0.8087 C   0  0  0  0  0  0  0  0  0  0  0  0
   10.2321    0.1198   -0.5372 C   0  0  0  0  0  0  0  0  0  0  0  0
   11.6443   -0.1155   -1.0529 C   0  0  0  0  0  0  0  0  0  0  0  0
   12.5058    1.1319   -0.9878 C   0  0  0  0  0  0  0  0  0  0  0  0
   12.1030    2.1773   -2.0093 C   0  0  0  0  0  0  0  0  0  0  0  0
   11.9599    1.6547   -3.4261 C   0  0  0  0  0  0  0  0  0  0  0  0
   10.9770    2.0151   -4.0867 O   0  0  0  0  0  0  0  0  0  0  0  0
   12.8092    0.8862   -3.9017 O   0  0  0  0  0  0  0  0  0  0  0  0
   13.5462    0.6252   -3.3853 H   0  0  0  0  0  0  0  0  0  0  0  0
 18 19  2  0  0  0
 18 20  1  0  0  0
 18 17  1  0  0  0
 17 16  1  0  0  0
 16 15  1  0  0  0
 15 14  1  0  0  0
 14 13  1  0  0  0
 13 12  1  0  0  0
 12  1  1  0  0  0
  1  2  1  0  0  0
  2  3  1  0  0  0
  3  4  1  0  0  0
  4  5  1  0  0  0
  5  6  1  0  0  0
  6  7  1  0  0  0
  7  8  1  0  0  0
  8  9  1  0  0  0
  9 10  1  0  0  0
 10 11  1  0  0  0
 20 21  1  0  0  0
M  END
> <minimizedAffinity>
-5.93274

$$$$
3V2P_STE_A_1


 21 20  0  0  0  0  0  0  0  0999 V2000
    9.7551    1.2902   -0.0860 C   0  0  0  0  0  0  0  0  0  0  0  0
    8.8822    1.6591    1.0938 C   0  0  0  0  0  0  0  0  0  0  0  0
    9.5351    1.4322    2.4378 C   0  0  0  0  0  0  0  0  0  0  0  0
    8.8595    0.3593    3.2645 C   0  0  0  0  0  0  0  0  0  0  0  0
    7.5830   -0.0812    2.5630 C   0  0  0  0  0  0  0  0  0  0  0  0
    6.3752    0.3526    3.3710 C   0  0  0  0  0  0  0  0  0  0  0  0
    6.4699   -0.1372    4.8015 C   0  0  0  0  0  0  0  0  0  0  0  0
    6.2062    0.9848    5.7974 C   0  0  0  0  0  0  0  0  0  0  0  0
    5.0743    0.5947    6.7453 C   0  0  0  0  0  0  0  0  0  0  0  0
    3.9627   -0.3111    6.1483 C   0  0  0  0  0  0  0  0  0  0  0  0
    2.7008   -0.6882    6.9054 C   0  0  0  0  0  0  0  0  0  0  0  0
   11.1144    0.7339    0.3511 C   0  0  0  0  0  0  0  0  0  0  0  0
   11.8009   -0.0082   -0.8022 C   0  0  0  0  0  0  0  0  0  0  0  0
   11.1695    0.3508   -2.1366 C   0  0  0  0  0  0  0  0  0  0  0  0
   12.1581    0.8836   -3.1634 C   0  0  0  0  0  0  0  0  0  0  0  0
   12.0766    2.3899   -3.3266 C   0  0  0  0  0  0  0  0  0  0  0  0
   13.0176    3.1325   -2.3984 C   0  0  0  0  0  0  0  0  0  0  0  0
   13.0690    4.6326   -2.6178 C   0  0  0  0  0  0  0  0  0  0  0  0
   14.1745    5.1612   -2.7932 O   0  0  0  0  0  0  0  0  0  0  0  0
   12.0263    5.3040   -2.6188 O   0  0  0  0  0  0  0  0  0  0  0  0
   11.1991    4.8850   -2.4843 H   0  0  0  0  0  0  0  0  0  0  0  0
 18 19  2  0  0  0
 18 20  1  0  0  0
 18 17  1  0  0  0
 17 16  1  0  0  0
 16 15  1  0  0  0
 15 14  1  0  0  0
 14 13  1  0  0  0
 13 12  1  0  0  0
 12  1  1  0  0  0
  1  2  1  0  0  0
  2  3  1  0  0  0
  3  4  1  0  0  0
  4  5  1  0  0  0
  5  6  1  0  0  0
  6  7  1  0  0  0
  7  8  1  0  0  0
  8  9  1  0  0  0
  9 10  1  0  0  0
 10 11  1  0  0  0
 20 21  1  0  0  0
M  END
> <minimizedAffinity>
-5.75445

$$$$
3V2P_STE_A_1


 21 20  0  0  0  0  0  0  0  0999 V2000
    8.6582    1.9509    1.7216 C   0  0  0  0  0  0  0  0  0  0  0  0
    9.1256    1.5891    0.3284 C   0  0  0  0  0  0  0  0  0  0  0  0
    9.3469    0.1090    0.1179 C   0  0  0  0  0  0  0  0  0  0  0  0
   10.7334   -0.2292   -0.3861 C   0  0  0  0  0  0  0  0  0  0  0  0
   11.5620    1.0451   -0.4599 C   0  0  0  0  0  0  0  0  0  0  0  0
   12.9584    0.7235   -0.9565 C   0  0  0  0  0  0  0  0  0  0  0  0
   12.9176   -0.2796   -2.0910 C   0  0  0  0  0  0  0  0  0  0  0  0
   13.4590    0.3144   -3.3849 C   0  0  0  0  0  0  0  0  0  0  0  0
   12.7159    1.6044   -3.7255 C   0  0  0  0  0  0  0  0  0  0  0  0
   11.2055    1.4578   -4.0560 C   0  0  0  0  0  0  0  0  0  0  0  0
   10.5534    2.0974   -5.2700 C   0  0  0  0  0  0  0  0  0  0  0  0
    9.2364    1.0140    2.7876 C   0  0  0  0  0  0  0  0  0  0  0  0
    8.1180    0.3516    3.6016 C   0  0  0  0  0  0  0  0  0  0  0  0
    6.7972    0.3936    2.8520 C   0  0  0  0  0  0  0  0  0  0  0  0
    5.5877    0.0638    3.7144 C   0  0  0  0  0  0  0  0  0  0  0  0
    5.0087    1.2865    4.4015 C   0  0  0  0  0  0  0  0  0  0  0  0
    5.4253    1.3952    5.8552 C   0  0  0  0  0  0  0  0  0  0  0  0
    5.6220    0.0653    6.5577 C   0  0  0  0  0  0  0  0  0  0  0  0
    6.7788   -0.3060    6.7953 O   0  0  0  0  0  0  0  0  0  0  0  0
    4.6443   -0.6258    6.8809 O   0  0  0  0  0  0  0  0  0  0  0  0
    3.7765   -0.3271    6.6921 H   0  0  0  0  0  0  0  0  0  0  0  0
 18 19  2  0  0  0
 18 20  1  0  0  0
 18 17  1  0  0  0
 17 16  1  0  0  0
 16 15  1  0  0  0
 15 14  1  0  0  0
 14 13  1  0  0  0
 13 12  1  0  0  0
 12  1  1  0  0  0
  1  2  1  0  0  0
  2  3  1  0  0  0
  3  4  1  0  0  0
  4  5  1  0  0  0
  5  6  1  0  0  0
  6  7  1  0  0  0
  7  8  1  0  0  0
  8  9  1  0  0  0
  9 10  1  0  0  0
 10 11  1  0  0  0
 20 21  1  0  0  0
M  END
> <minimizedAffinity>
-5.67158

$$$$
