5JS3_6MG_E_411


 35 35  0  0  0  0  0  0  0  0999 V2000
   11.2692   39.0798   -3.8338 N   0  0  0  0  0  0  0  0  0  0  0  0
   11.4011   40.0913   -3.8301 H   0  0  0  0  0  0  0  0  0  0  0  0
   11.2336   38.6368   -5.4262 P   0  0  0  0  0  0  0  0  0  0  0  0
    9.8933   37.9578   -5.6999 O   0  0  0  0  0  0  0  0  0  0  0  0
   12.3991   37.7861   -5.8088 O   0  0  0  0  0  0  0  0  0  0  0  0
   12.3344   37.5525   -6.7481 H   0  0  0  0  0  0  0  0  0  0  0  0
   11.2950   40.2228   -6.3133 C   0  0  0  0  0  0  0  0  0  0  0  0
   11.8392   39.9897   -7.6335 N   0  0  0  0  0  0  0  0  0  0  0  0
   12.1312   41.1040   -8.4639 C   0  0  0  0  0  0  0  0  0  0  0  0
   11.7999   42.2719   -8.1695 O   0  0  0  0  0  0  0  0  0  0  0  0
   12.0045   39.0727   -7.9512 H   0  0  0  0  0  0  0  0  0  0  0  0
   12.6042   40.7220   -9.7514 O   0  0  0  0  0  0  0  0  0  0  0  0
   13.5336   39.6375   -9.6422 C   0  0  0  0  0  0  0  0  0  0  0  0
   13.5953   38.5910  -10.7553 C   0  0  0  0  0  0  0  0  0  0  0  0
   13.2460   37.2666  -10.5029 C   0  0  0  0  0  0  0  0  0  0  0  0
   13.2800   36.3252  -11.5388 C   0  0  0  0  0  0  0  0  0  0  0  0
   13.6889   36.6776  -12.8307 C   0  0  0  0  0  0  0  0  0  0  0  0
   14.0079   38.0168  -13.0897 C   0  0  0  0  0  0  0  0  0  0  0  0
   13.9651   38.9601  -12.0683 C   0  0  0  0  0  0  0  0  0  0  0  0
   10.1836   38.8175   -2.8938 C   0  0  0  0  0  0  0  0  0  0  0  0
    8.9313   39.6204   -3.2114 C   0  0  0  0  0  0  0  0  0  0  0  0
    7.8101   39.1118   -3.2061 O   0  0  0  0  0  0  0  0  0  0  0  0
    9.1474   40.9545   -3.4568 N   0  0  0  0  0  0  0  0  0  0  0  0
   10.0651   41.3067   -3.4011 H   0  0  0  0  0  0  0  0  0  0  0  0
    8.0583   41.8682   -3.7979 C   0  0  0  0  0  0  0  0  0  0  0  0
    8.3363   43.2644   -1.7295 C   0  0  0  0  0  0  0  0  0  0  0  0
    7.3690   42.5182   -2.5930 C   0  0  0  0  0  0  0  0  0  0  0  0
    6.1740   43.4264   -3.0830 C   0  0  0  0  0  0  0  0  0  0  0  0
    6.6011   44.3704   -4.1908 C   0  0  0  0  0  0  0  0  0  0  0  0
    5.6889   44.3207   -1.9658 C   0  0  0  0  0  0  0  0  0  0  0  0
    4.9939   42.5284   -3.6305 C   0  0  0  0  0  0  0  0  0  0  0  0
   10.6745   39.1514   -1.4916 C   0  0  0  0  0  0  0  0  0  0  0  0
   10.4079   38.0371   -0.4597 C   0  0  0  0  0  0  0  0  0  0  0  0
    9.5260   38.5253    0.6915 C   0  0  0  0  0  0  0  0  0  0  0  0
    9.7685   36.8192   -1.1504 C   0  0  0  0  0  0  0  0  0  0  0  0
 16 15  2  0  0  0
 16 17  1  0  0  0
 15 14  1  0  0  0
 17 18  2  0  0  0
 14 13  1  0  0  0
 14 19  2  0  0  0
 18 19  1  0  0  0
 13 12  1  0  0  0
 12  9  1  0  0  0
  9 10  2  0  0  0
  9  8  1  0  0  0
  8  7  1  0  0  0
  7  3  1  0  0  0
  4  3  2  0  0  0
  5  3  1  0  0  0
  3  1  1  0  0  0
 31 28  1  0  0  0
 25 23  1  0  0  0
 25 27  1  0  0  0
  1 20  1  0  0  0
 29 28  1  0  0  0
 23 21  1  0  0  0
 22 21  2  0  0  0
 21 20  1  0  0  0
 28 27  1  0  0  0
 28 30  1  0  0  0
 20 32  1  0  0  0
 27 26  1  0  0  0
 32 33  1  0  0  0
 34 33  1  0  0  0
 33 35  1  0  0  0
  1  2  1  0  0  0
 23 24  1  0  0  0
  5  6  1  0  0  0
  8 11  1  0  0  0
M  END
> <minimizedAffinity>
-8.90889

$$$$
5JS3_6MG_E_411


 35 35  0  0  0  0  0  0  0  0999 V2000
   13.8032   40.9143   -8.8028 N   0  0  0  0  0  0  0  0  0  0  0  0
   14.1421   40.0216   -9.1616 H   0  0  0  0  0  0  0  0  0  0  0  0
   12.5648   40.5437   -7.7721 P   0  0  0  0  0  0  0  0  0  0  0  0
   11.2486   40.8649   -8.4769 O   0  0  0  0  0  0  0  0  0  0  0  0
   12.6945   41.2305   -6.4530 O   0  0  0  0  0  0  0  0  0  0  0  0
   11.9481   40.9831   -5.8849 H   0  0  0  0  0  0  0  0  0  0  0  0
   12.7082   38.7436   -7.5602 C   0  0  0  0  0  0  0  0  0  0  0  0
   12.5454   38.4320   -6.1567 N   0  0  0  0  0  0  0  0  0  0  0  0
   11.2453   38.1474   -5.6614 C   0  0  0  0  0  0  0  0  0  0  0  0
   10.2122   38.3010   -6.3466 O   0  0  0  0  0  0  0  0  0  0  0  0
   13.3239   38.4175   -5.5544 H   0  0  0  0  0  0  0  0  0  0  0  0
   11.2298   37.9172   -4.2564 O   0  0  0  0  0  0  0  0  0  0  0  0
   10.0323   38.4464   -3.6752 C   0  0  0  0  0  0  0  0  0  0  0  0
    9.7112   38.1367   -2.2127 C   0  0  0  0  0  0  0  0  0  0  0  0
    9.1830   36.9003   -1.8496 C   0  0  0  0  0  0  0  0  0  0  0  0
    8.9205   36.6205   -0.5030 C   0  0  0  0  0  0  0  0  0  0  0  0
    9.1503   37.5728    0.4974 C   0  0  0  0  0  0  0  0  0  0  0  0
    9.7124   38.8032    0.1337 C   0  0  0  0  0  0  0  0  0  0  0  0
    9.9868   39.0839   -1.2008 C   0  0  0  0  0  0  0  0  0  0  0  0
   13.6574   41.7811   -9.9683 C   0  0  0  0  0  0  0  0  0  0  0  0
   14.2274   41.1573  -11.2332 C   0  0  0  0  0  0  0  0  0  0  0  0
   14.4461   41.8200  -12.2473 O   0  0  0  0  0  0  0  0  0  0  0  0
   14.5174   39.8181  -11.1365 N   0  0  0  0  0  0  0  0  0  0  0  0
   14.3598   39.3569  -10.2811 H   0  0  0  0  0  0  0  0  0  0  0  0
   15.0527   39.0557  -12.2634 C   0  0  0  0  0  0  0  0  0  0  0  0
   14.2957   38.0518  -14.4369 C   0  0  0  0  0  0  0  0  0  0  0  0
   14.0315   38.1557  -12.9680 C   0  0  0  0  0  0  0  0  0  0  0  0
   13.9833   36.7436  -12.2632 C   0  0  0  0  0  0  0  0  0  0  0  0
   13.2078   36.7902  -10.9606 C   0  0  0  0  0  0  0  0  0  0  0  0
   15.3727   36.2890  -11.8809 C   0  0  0  0  0  0  0  0  0  0  0  0
   13.2908   35.6838  -13.2098 C   0  0  0  0  0  0  0  0  0  0  0  0
   14.3616   43.0988   -9.6748 C   0  0  0  0  0  0  0  0  0  0  0  0
   15.6615   42.9393   -8.8610 C   0  0  0  0  0  0  0  0  0  0  0  0
   16.9058   43.1307   -9.7308 C   0  0  0  0  0  0  0  0  0  0  0  0
   15.6708   43.9275   -7.6808 C   0  0  0  0  0  0  0  0  0  0  0  0
 16 15  2  0  0  0
 16 17  1  0  0  0
 15 14  1  0  0  0
 17 18  2  0  0  0
 14 13  1  0  0  0
 14 19  2  0  0  0
 18 19  1  0  0  0
 13 12  1  0  0  0
 12  9  1  0  0  0
  9 10  2  0  0  0
  9  8  1  0  0  0
  8  7  1  0  0  0
  7  3  1  0  0  0
  4  3  2  0  0  0
  5  3  1  0  0  0
  3  1  1  0  0  0
 31 28  1  0  0  0
 25 23  1  0  0  0
 25 27  1  0  0  0
  1 20  1  0  0  0
 29 28  1  0  0  0
 23 21  1  0  0  0
 22 21  2  0  0  0
 21 20  1  0  0  0
 28 27  1  0  0  0
 28 30  1  0  0  0
 20 32  1  0  0  0
 27 26  1  0  0  0
 32 33  1  0  0  0
 34 33  1  0  0  0
 33 35  1  0  0  0
  1  2  1  0  0  0
 23 24  1  0  0  0
  5  6  1  0  0  0
  8 11  1  0  0  0
M  END
> <minimizedAffinity>
-8.61331

$$$$
5JS3_6MG_E_411


 35 35  0  0  0  0  0  0  0  0999 V2000
   13.7615   41.7340   -8.4975 N   0  0  0  0  0  0  0  0  0  0  0  0
   13.5606   40.7530   -8.6913 H   0  0  0  0  0  0  0  0  0  0  0  0
   12.9125   42.1048   -7.1281 P   0  0  0  0  0  0  0  0  0  0  0  0
   12.3957   43.5355   -7.2630 O   0  0  0  0  0  0  0  0  0  0  0  0
   13.7132   41.8963   -5.8855 O   0  0  0  0  0  0  0  0  0  0  0  0
   13.1751   42.1261   -5.1118 H   0  0  0  0  0  0  0  0  0  0  0  0
   11.5068   40.9525   -7.1707 C   0  0  0  0  0  0  0  0  0  0  0  0
   11.5139   40.1742   -5.9510 N   0  0  0  0  0  0  0  0  0  0  0  0
   11.3401   38.7671   -6.0315 C   0  0  0  0  0  0  0  0  0  0  0  0
   11.0296   38.1839   -7.0916 O   0  0  0  0  0  0  0  0  0  0  0  0
   11.6373   40.6135   -5.0786 H   0  0  0  0  0  0  0  0  0  0  0  0
   11.3105   38.1421   -4.7525 O   0  0  0  0  0  0  0  0  0  0  0  0
    9.9859   38.1766   -4.2087 C   0  0  0  0  0  0  0  0  0  0  0  0
    9.7980   38.1018   -2.6930 C   0  0  0  0  0  0  0  0  0  0  0  0
    9.4507   36.9003   -2.0804 C   0  0  0  0  0  0  0  0  0  0  0  0
    9.3100   36.8404   -0.6886 C   0  0  0  0  0  0  0  0  0  0  0  0
    9.4824   37.9768    0.1109 C   0  0  0  0  0  0  0  0  0  0  0  0
    9.8639   39.1762   -0.5042 C   0  0  0  0  0  0  0  0  0  0  0  0
   10.0171   39.2405   -1.8853 C   0  0  0  0  0  0  0  0  0  0  0  0
   13.5962   42.4319   -9.7689 C   0  0  0  0  0  0  0  0  0  0  0  0
   13.5430   41.4794  -10.9537 C   0  0  0  0  0  0  0  0  0  0  0  0
   13.1596   41.8411  -12.0663 O   0  0  0  0  0  0  0  0  0  0  0  0
   13.9964   40.2090  -10.6941 N   0  0  0  0  0  0  0  0  0  0  0  0
   14.3317   39.9976   -9.7929 H   0  0  0  0  0  0  0  0  0  0  0  0
   13.9969   39.1608  -11.7133 C   0  0  0  0  0  0  0  0  0  0  0  0
   13.1320   37.2610  -10.3177 C   0  0  0  0  0  0  0  0  0  0  0  0
   14.2557   37.7485  -11.1767 C   0  0  0  0  0  0  0  0  0  0  0  0
   14.5680   36.7677  -12.3740 C   0  0  0  0  0  0  0  0  0  0  0  0
   16.0347   36.7978  -12.7592 C   0  0  0  0  0  0  0  0  0  0  0  0
   13.8229   37.1894  -13.6191 C   0  0  0  0  0  0  0  0  0  0  0  0
   14.1947   35.2840  -11.9766 C   0  0  0  0  0  0  0  0  0  0  0  0
   14.7560   43.4045   -9.9345 C   0  0  0  0  0  0  0  0  0  0  0  0
   16.0635   42.9291   -9.2697 C   0  0  0  0  0  0  0  0  0  0  0  0
   17.1550   42.6386  -10.3019 C   0  0  0  0  0  0  0  0  0  0  0  0
   16.5491   43.9756   -8.2507 C   0  0  0  0  0  0  0  0  0  0  0  0
 16 15  2  0  0  0
 16 17  1  0  0  0
 15 14  1  0  0  0
 17 18  2  0  0  0
 14 13  1  0  0  0
 14 19  2  0  0  0
 18 19  1  0  0  0
 13 12  1  0  0  0
 12  9  1  0  0  0
  9 10  2  0  0  0
  9  8  1  0  0  0
  8  7  1  0  0  0
  7  3  1  0  0  0
  4  3  2  0  0  0
  5  3  1  0  0  0
  3  1  1  0  0  0
 31 28  1  0  0  0
 25 23  1  0  0  0
 25 27  1  0  0  0
  1 20  1  0  0  0
 29 28  1  0  0  0
 23 21  1  0  0  0
 22 21  2  0  0  0
 21 20  1  0  0  0
 28 27  1  0  0  0
 28 30  1  0  0  0
 20 32  1  0  0  0
 27 26  1  0  0  0
 32 33  1  0  0  0
 34 33  1  0  0  0
 33 35  1  0  0  0
  1  2  1  0  0  0
 23 24  1  0  0  0
  5  6  1  0  0  0
  8 11  1  0  0  0
M  END
> <minimizedAffinity>
-8.59999

$$$$
5JS3_6MG_E_411


 35 35  0  0  0  0  0  0  0  0999 V2000
   11.1381   39.0157   -3.6715 N   0  0  0  0  0  0  0  0  0  0  0  0
   11.4191   39.9946   -3.6139 H   0  0  0  0  0  0  0  0  0  0  0  0
   11.1281   38.6447   -5.2826 P   0  0  0  0  0  0  0  0  0  0  0  0
    9.8499   37.8643   -5.5818 O   0  0  0  0  0  0  0  0  0  0  0  0
   12.3601   37.9176   -5.7091 O   0  0  0  0  0  0  0  0  0  0  0  0
   12.3083   37.7224   -6.6579 H   0  0  0  0  0  0  0  0  0  0  0  0
   11.0437   40.2689   -6.0954 C   0  0  0  0  0  0  0  0  0  0  0  0
   12.3863   40.7964   -6.2078 N   0  0  0  0  0  0  0  0  0  0  0  0
   12.6680   41.7510   -7.2206 C   0  0  0  0  0  0  0  0  0  0  0  0
   11.8504   42.0462   -8.1177 O   0  0  0  0  0  0  0  0  0  0  0  0
   13.0937   40.4980   -5.5916 H   0  0  0  0  0  0  0  0  0  0  0  0
   14.0387   42.1356   -7.2487 O   0  0  0  0  0  0  0  0  0  0  0  0
   14.2431   43.1930   -8.1931 C   0  0  0  0  0  0  0  0  0  0  0  0
   15.6564   43.4770   -8.7028 C   0  0  0  0  0  0  0  0  0  0  0  0
   16.4219   44.4948   -8.1392 C   0  0  0  0  0  0  0  0  0  0  0  0
   17.7250   44.7247   -8.5969 C   0  0  0  0  0  0  0  0  0  0  0  0
   18.2754   43.9687   -9.6389 C   0  0  0  0  0  0  0  0  0  0  0  0
   17.5158   42.9243  -10.1816 C   0  0  0  0  0  0  0  0  0  0  0  0
   16.2248   42.6823   -9.7239 C   0  0  0  0  0  0  0  0  0  0  0  0
    9.9734   38.8852   -2.8013 C   0  0  0  0  0  0  0  0  0  0  0  0
    8.8191   39.7758   -3.2353 C   0  0  0  0  0  0  0  0  0  0  0  0
    7.7193   39.3164   -3.5435 O   0  0  0  0  0  0  0  0  0  0  0  0
    9.0883   41.1226   -3.2110 N   0  0  0  0  0  0  0  0  0  0  0  0
    9.9756   41.4260   -2.9112 H   0  0  0  0  0  0  0  0  0  0  0  0
    8.0990   42.1200   -3.6162 C   0  0  0  0  0  0  0  0  0  0  0  0
    7.6580   43.3070   -1.4479 C   0  0  0  0  0  0  0  0  0  0  0  0
    7.0671   42.4704   -2.5383 C   0  0  0  0  0  0  0  0  0  0  0  0
    5.8059   43.1496   -3.2025 C   0  0  0  0  0  0  0  0  0  0  0  0
    4.6853   42.1537   -3.4326 C   0  0  0  0  0  0  0  0  0  0  0  0
    6.1471   43.6856   -4.5735 C   0  0  0  0  0  0  0  0  0  0  0  0
    5.2545   44.3040   -2.2740 C   0  0  0  0  0  0  0  0  0  0  0  0
   10.3962   39.2360   -1.3812 C   0  0  0  0  0  0  0  0  0  0  0  0
   10.2555   38.0669   -0.3857 C   0  0  0  0  0  0  0  0  0  0  0  0
    9.5384   38.4934    0.8969 C   0  0  0  0  0  0  0  0  0  0  0  0
    9.5172   36.8918   -1.0516 C   0  0  0  0  0  0  0  0  0  0  0  0
 16 15  2  0  0  0
 16 17  1  0  0  0
 15 14  1  0  0  0
 17 18  2  0  0  0
 14 13  1  0  0  0
 14 19  2  0  0  0
 18 19  1  0  0  0
 13 12  1  0  0  0
 12  9  1  0  0  0
  9 10  2  0  0  0
  9  8  1  0  0  0
  8  7  1  0  0  0
  7  3  1  0  0  0
  4  3  2  0  0  0
  5  3  1  0  0  0
  3  1  1  0  0  0
 31 28  1  0  0  0
 25 23  1  0  0  0
 25 27  1  0  0  0
  1 20  1  0  0  0
 29 28  1  0  0  0
 23 21  1  0  0  0
 22 21  2  0  0  0
 21 20  1  0  0  0
 28 27  1  0  0  0
 28 30  1  0  0  0
 20 32  1  0  0  0
 27 26  1  0  0  0
 32 33  1  0  0  0
 34 33  1  0  0  0
 33 35  1  0  0  0
  1  2  1  0  0  0
 23 24  1  0  0  0
  5  6  1  0  0  0
  8 11  1  0  0  0
M  END
> <minimizedAffinity>
-8.33115

$$$$
5JS3_6MG_E_411


 35 35  0  0  0  0  0  0  0  0999 V2000
   14.9564   39.0149   -9.4555 N   0  0  0  0  0  0  0  0  0  0  0  0
   15.4970   38.2986   -9.9402 H   0  0  0  0  0  0  0  0  0  0  0  0
   13.6434   38.2354   -8.8215 P   0  0  0  0  0  0  0  0  0  0  0  0
   14.1481   37.1548   -7.8676 O   0  0  0  0  0  0  0  0  0  0  0  0
   12.7358   37.6947   -9.8762 O   0  0  0  0  0  0  0  0  0  0  0  0
   11.9834   37.2480   -9.4574 H   0  0  0  0  0  0  0  0  0  0  0  0
   12.7964   39.5305   -7.8670 C   0  0  0  0  0  0  0  0  0  0  0  0
   12.6464   39.0718   -6.5030 N   0  0  0  0  0  0  0  0  0  0  0  0
   11.4541   38.3959   -6.1315 C   0  0  0  0  0  0  0  0  0  0  0  0
   10.4622   38.3105   -6.8859 O   0  0  0  0  0  0  0  0  0  0  0  0
   13.3601   39.2260   -5.8426 H   0  0  0  0  0  0  0  0  0  0  0  0
   11.4220   38.0561   -4.7491 O   0  0  0  0  0  0  0  0  0  0  0  0
   10.2600   38.6127   -4.1233 C   0  0  0  0  0  0  0  0  0  0  0  0
    9.9741   38.2899   -2.6563 C   0  0  0  0  0  0  0  0  0  0  0  0
   10.1752   39.2496   -1.6673 C   0  0  0  0  0  0  0  0  0  0  0  0
    9.8821   38.9489   -0.3316 C   0  0  0  0  0  0  0  0  0  0  0  0
    9.4141   37.6842    0.0449 C   0  0  0  0  0  0  0  0  0  0  0  0
    9.1813   36.7317   -0.9555 C   0  0  0  0  0  0  0  0  0  0  0  0
    9.4591   37.0271   -2.2860 C   0  0  0  0  0  0  0  0  0  0  0  0
   14.8636   40.1381  -10.3832 C   0  0  0  0  0  0  0  0  0  0  0  0
   15.0349   39.7116  -11.8333 C   0  0  0  0  0  0  0  0  0  0  0  0
   14.5356   40.3443  -12.7639 O   0  0  0  0  0  0  0  0  0  0  0  0
   15.8220   38.6013  -12.0195 N   0  0  0  0  0  0  0  0  0  0  0  0
   16.2283   38.1680  -11.2344 H   0  0  0  0  0  0  0  0  0  0  0  0
   16.0756   38.0424  -13.3465 C   0  0  0  0  0  0  0  0  0  0  0  0
   14.9532   36.0567  -12.2967 C   0  0  0  0  0  0  0  0  0  0  0  0
   15.6163   36.5912  -13.5266 C   0  0  0  0  0  0  0  0  0  0  0  0
   14.6982   36.4731  -14.8057 C   0  0  0  0  0  0  0  0  0  0  0  0
   14.3384   37.8347  -15.3689 C   0  0  0  0  0  0  0  0  0  0  0  0
   13.3773   35.8268  -14.4581 C   0  0  0  0  0  0  0  0  0  0  0  0
   15.4392   35.6539  -15.9365 C   0  0  0  0  0  0  0  0  0  0  0  0
   15.9331   41.1557  -10.0101 C   0  0  0  0  0  0  0  0  0  0  0  0
   15.3967   42.5941   -9.8656 C   0  0  0  0  0  0  0  0  0  0  0  0
   13.9278   42.6144   -9.4373 C   0  0  0  0  0  0  0  0  0  0  0  0
   16.2614   43.3826   -8.8656 C   0  0  0  0  0  0  0  0  0  0  0  0
 16 15  2  0  0  0
 16 17  1  0  0  0
 15 14  1  0  0  0
 17 18  2  0  0  0
 14 13  1  0  0  0
 14 19  2  0  0  0
 18 19  1  0  0  0
 13 12  1  0  0  0
 12  9  1  0  0  0
  9 10  2  0  0  0
  9  8  1  0  0  0
  8  7  1  0  0  0
  7  3  1  0  0  0
  4  3  2  0  0  0
  5  3  1  0  0  0
  3  1  1  0  0  0
 31 28  1  0  0  0
 25 23  1  0  0  0
 25 27  1  0  0  0
  1 20  1  0  0  0
 29 28  1  0  0  0
 23 21  1  0  0  0
 22 21  2  0  0  0
 21 20  1  0  0  0
 28 27  1  0  0  0
 28 30  1  0  0  0
 20 32  1  0  0  0
 27 26  1  0  0  0
 32 33  1  0  0  0
 34 33  1  0  0  0
 33 35  1  0  0  0
  1  2  1  0  0  0
 23 24  1  0  0  0
  5  6  1  0  0  0
  8 11  1  0  0  0
M  END
> <minimizedAffinity>
-8.18197

$$$$
5JS3_6MG_E_411


 35 35  0  0  0  0  0  0  0  0999 V2000
   10.2985   39.6037   -4.0272 N   0  0  0  0  0  0  0  0  0  0  0  0
   10.6826   40.5459   -4.0992 H   0  0  0  0  0  0  0  0  0  0  0  0
   10.8974   38.7735   -5.3255 P   0  0  0  0  0  0  0  0  0  0  0  0
    9.7197   38.1667   -6.0850 O   0  0  0  0  0  0  0  0  0  0  0  0
   11.9155   37.7551   -4.9321 O   0  0  0  0  0  0  0  0  0  0  0  0
   12.2363   37.2959   -5.7241 H   0  0  0  0  0  0  0  0  0  0  0  0
   11.6653   40.0688   -6.3446 C   0  0  0  0  0  0  0  0  0  0  0  0
   12.6818   39.4583   -7.1738 N   0  0  0  0  0  0  0  0  0  0  0  0
   12.7933   39.8578   -8.5319 C   0  0  0  0  0  0  0  0  0  0  0  0
   11.9582   40.6015   -9.0886 O   0  0  0  0  0  0  0  0  0  0  0  0
   13.2868   38.7764   -6.8021 H   0  0  0  0  0  0  0  0  0  0  0  0
   13.7949   39.1331   -9.2384 O   0  0  0  0  0  0  0  0  0  0  0  0
   13.7206   39.4137  -10.6411 C   0  0  0  0  0  0  0  0  0  0  0  0
   13.6821   38.2520  -11.6346 C   0  0  0  0  0  0  0  0  0  0  0  0
   14.0645   38.4406  -12.9605 C   0  0  0  0  0  0  0  0  0  0  0  0
   14.0513   37.3610  -13.8520 C   0  0  0  0  0  0  0  0  0  0  0  0
   13.6308   36.0878  -13.4487 C   0  0  0  0  0  0  0  0  0  0  0  0
   13.2784   35.8933  -12.1070 C   0  0  0  0  0  0  0  0  0  0  0  0
   13.3004   36.9585  -11.2126 C   0  0  0  0  0  0  0  0  0  0  0  0
    8.8736   39.7751   -3.7606 C   0  0  0  0  0  0  0  0  0  0  0  0
    8.4249   41.2220   -3.8990 C   0  0  0  0  0  0  0  0  0  0  0  0
    8.8897   41.9709   -4.7584 O   0  0  0  0  0  0  0  0  0  0  0  0
    7.4365   41.6061   -3.0257 N   0  0  0  0  0  0  0  0  0  0  0  0
    7.0767   40.9440   -2.3921 H   0  0  0  0  0  0  0  0  0  0  0  0
    6.9019   42.9667   -3.0071 C   0  0  0  0  0  0  0  0  0  0  0  0
    8.6322   44.4501   -1.9532 C   0  0  0  0  0  0  0  0  0  0  0  0
    7.2999   43.7924   -1.7786 C   0  0  0  0  0  0  0  0  0  0  0  0
    6.1579   44.8268   -1.4336 C   0  0  0  0  0  0  0  0  0  0  0  0
    5.9468   44.9548    0.0629 C   0  0  0  0  0  0  0  0  0  0  0  0
    4.8297   44.3599   -1.9824 C   0  0  0  0  0  0  0  0  0  0  0  0
    6.5247   46.2555   -2.0020 C   0  0  0  0  0  0  0  0  0  0  0  0
    8.5874   39.2738   -2.3515 C   0  0  0  0  0  0  0  0  0  0  0  0
    9.7284   38.4285   -1.7506 C   0  0  0  0  0  0  0  0  0  0  0  0
    9.9540   38.7451   -0.2707 C   0  0  0  0  0  0  0  0  0  0  0  0
    9.4338   36.9300   -1.9431 C   0  0  0  0  0  0  0  0  0  0  0  0
 16 15  2  0  0  0
 16 17  1  0  0  0
 15 14  1  0  0  0
 17 18  2  0  0  0
 14 13  1  0  0  0
 14 19  2  0  0  0
 18 19  1  0  0  0
 13 12  1  0  0  0
 12  9  1  0  0  0
  9 10  2  0  0  0
  9  8  1  0  0  0
  8  7  1  0  0  0
  7  3  1  0  0  0
  4  3  2  0  0  0
  5  3  1  0  0  0
  3  1  1  0  0  0
 31 28  1  0  0  0
 25 23  1  0  0  0
 25 27  1  0  0  0
  1 20  1  0  0  0
 29 28  1  0  0  0
 23 21  1  0  0  0
 22 21  2  0  0  0
 21 20  1  0  0  0
 28 27  1  0  0  0
 28 30  1  0  0  0
 20 32  1  0  0  0
 27 26  1  0  0  0
 32 33  1  0  0  0
 34 33  1  0  0  0
 33 35  1  0  0  0
  1  2  1  0  0  0
 23 24  1  0  0  0
  5  6  1  0  0  0
  8 11  1  0  0  0
M  END
> <minimizedAffinity>
-7.73049

$$$$
5JS3_6MG_E_411


 35 35  0  0  0  0  0  0  0  0999 V2000
   13.3538   42.0479   -8.6630 N   0  0  0  0  0  0  0  0  0  0  0  0
   14.0451   41.2984   -8.6905 H   0  0  0  0  0  0  0  0  0  0  0  0
   12.3503   41.6880   -7.3993 P   0  0  0  0  0  0  0  0  0  0  0  0
   11.3046   42.7960   -7.2934 O   0  0  0  0  0  0  0  0  0  0  0  0
   13.0936   41.4734   -6.1226 O   0  0  0  0  0  0  0  0  0  0  0  0
   12.4651   41.2659   -5.4135 H   0  0  0  0  0  0  0  0  0  0  0  0
   11.5402   40.1463   -7.9216 C   0  0  0  0  0  0  0  0  0  0  0  0
   11.0457   39.4658   -6.7445 N   0  0  0  0  0  0  0  0  0  0  0  0
   11.7905   38.3794   -6.2139 C   0  0  0  0  0  0  0  0  0  0  0  0
   12.7748   37.8835   -6.8018 O   0  0  0  0  0  0  0  0  0  0  0  0
   10.2057   39.7515   -6.3178 H   0  0  0  0  0  0  0  0  0  0  0  0
   11.1554   37.7713   -5.0940 O   0  0  0  0  0  0  0  0  0  0  0  0
   10.5551   38.7668   -4.2570 C   0  0  0  0  0  0  0  0  0  0  0  0
   10.1411   38.3952   -2.8328 C   0  0  0  0  0  0  0  0  0  0  0  0
    9.5210   37.1762   -2.5703 C   0  0  0  0  0  0  0  0  0  0  0  0
    9.1732   36.8373   -1.2570 C   0  0  0  0  0  0  0  0  0  0  0  0
    9.4086   37.7144   -0.1913 C   0  0  0  0  0  0  0  0  0  0  0  0
   10.0622   38.9254   -0.4532 C   0  0  0  0  0  0  0  0  0  0  0  0
   10.4213   39.2638   -1.7538 C   0  0  0  0  0  0  0  0  0  0  0  0
   12.8973   42.2177  -10.0391 C   0  0  0  0  0  0  0  0  0  0  0  0
   13.7573   41.4563  -11.0364 C   0  0  0  0  0  0  0  0  0  0  0  0
   14.2785   42.0086  -12.0053 O   0  0  0  0  0  0  0  0  0  0  0  0
   13.9400   40.1265  -10.7444 N   0  0  0  0  0  0  0  0  0  0  0  0
   13.5313   39.7573   -9.9284 H   0  0  0  0  0  0  0  0  0  0  0  0
   14.7219   39.2420  -11.6068 C   0  0  0  0  0  0  0  0  0  0  0  0
   14.2688   38.9761  -14.0622 C   0  0  0  0  0  0  0  0  0  0  0  0
   13.9076   38.5177  -12.6846 C   0  0  0  0  0  0  0  0  0  0  0  0
   14.0565   36.9554  -12.5112 C   0  0  0  0  0  0  0  0  0  0  0  0
   13.2927   36.4471  -11.3034 C   0  0  0  0  0  0  0  0  0  0  0  0
   15.4977   36.5807  -12.2548 C   0  0  0  0  0  0  0  0  0  0  0  0
   13.5056   36.2086  -13.7909 C   0  0  0  0  0  0  0  0  0  0  0  0
   12.9120   43.7045  -10.3674 C   0  0  0  0  0  0  0  0  0  0  0  0
   11.6908   44.1709  -11.1851 C   0  0  0  0  0  0  0  0  0  0  0  0
   10.4199   44.2194  -10.3344 C   0  0  0  0  0  0  0  0  0  0  0  0
   11.9711   45.5469  -11.8154 C   0  0  0  0  0  0  0  0  0  0  0  0
 16 15  2  0  0  0
 16 17  1  0  0  0
 15 14  1  0  0  0
 17 18  2  0  0  0
 14 13  1  0  0  0
 14 19  2  0  0  0
 18 19  1  0  0  0
 13 12  1  0  0  0
 12  9  1  0  0  0
  9 10  2  0  0  0
  9  8  1  0  0  0
  8  7  1  0  0  0
  7  3  1  0  0  0
  4  3  2  0  0  0
  5  3  1  0  0  0
  3  1  1  0  0  0
 31 28  1  0  0  0
 25 23  1  0  0  0
 25 27  1  0  0  0
  1 20  1  0  0  0
 29 28  1  0  0  0
 23 21  1  0  0  0
 22 21  2  0  0  0
 21 20  1  0  0  0
 28 27  1  0  0  0
 28 30  1  0  0  0
 20 32  1  0  0  0
 27 26  1  0  0  0
 32 33  1  0  0  0
 34 33  1  0  0  0
 33 35  1  0  0  0
  1  2  1  0  0  0
 23 24  1  0  0  0
  5  6  1  0  0  0
  8 11  1  0  0  0
M  END
> <minimizedAffinity>
-7.71528

$$$$
5JS3_6MG_E_411


 35 35  0  0  0  0  0  0  0  0999 V2000
    9.0827   41.1871   -4.6286 N   0  0  0  0  0  0  0  0  0  0  0  0
    9.0099   40.8387   -5.5846 H   0  0  0  0  0  0  0  0  0  0  0  0
    9.1555   39.8453   -3.6654 P   0  0  0  0  0  0  0  0  0  0  0  0
    7.7317   39.3353   -3.4537 O   0  0  0  0  0  0  0  0  0  0  0  0
    9.8724   40.1021   -2.3813 O   0  0  0  0  0  0  0  0  0  0  0  0
    9.8893   39.2892   -1.8524 H   0  0  0  0  0  0  0  0  0  0  0  0
   10.0793   38.6455   -4.6718 C   0  0  0  0  0  0  0  0  0  0  0  0
   11.2445   39.3058   -5.2191 N   0  0  0  0  0  0  0  0  0  0  0  0
   11.5587   39.1216   -6.5916 C   0  0  0  0  0  0  0  0  0  0  0  0
   10.9647   38.2954   -7.3161 O   0  0  0  0  0  0  0  0  0  0  0  0
   11.8110   39.8742   -4.6486 H   0  0  0  0  0  0  0  0  0  0  0  0
   12.7607   39.7820   -6.9746 O   0  0  0  0  0  0  0  0  0  0  0  0
   12.5707   41.2017   -6.9852 C   0  0  0  0  0  0  0  0  0  0  0  0
   13.6508   42.0957   -7.5953 C   0  0  0  0  0  0  0  0  0  0  0  0
   14.2495   43.1005   -6.8392 C   0  0  0  0  0  0  0  0  0  0  0  0
   15.2572   43.8927   -7.4024 C   0  0  0  0  0  0  0  0  0  0  0  0
   15.6637   43.7192   -8.7309 C   0  0  0  0  0  0  0  0  0  0  0  0
   15.0835   42.6866   -9.4788 C   0  0  0  0  0  0  0  0  0  0  0  0
   14.0900   41.8877   -8.9222 C   0  0  0  0  0  0  0  0  0  0  0  0
    8.0600   42.2212   -4.5039 C   0  0  0  0  0  0  0  0  0  0  0  0
    8.0258   43.1546   -5.7046 C   0  0  0  0  0  0  0  0  0  0  0  0
    7.0077   43.7666   -6.0278 O   0  0  0  0  0  0  0  0  0  0  0  0
    9.2233   43.2920   -6.3634 N   0  0  0  0  0  0  0  0  0  0  0  0
   10.0113   42.8080   -6.0256 H   0  0  0  0  0  0  0  0  0  0  0  0
    9.3650   44.1339   -7.5502 C   0  0  0  0  0  0  0  0  0  0  0  0
   10.4510   43.0739   -9.5507 C   0  0  0  0  0  0  0  0  0  0  0  0
   10.6642   43.9186   -8.3345 C   0  0  0  0  0  0  0  0  0  0  0  0
   11.3224   45.3124   -8.6769 C   0  0  0  0  0  0  0  0  0  0  0  0
   10.2979   46.3108   -9.1810 C   0  0  0  0  0  0  0  0  0  0  0  0
   12.3227   45.1698   -9.8005 C   0  0  0  0  0  0  0  0  0  0  0  0
   12.0113   45.9219   -7.3913 C   0  0  0  0  0  0  0  0  0  0  0  0
    8.3360   43.0157   -3.2346 C   0  0  0  0  0  0  0  0  0  0  0  0
    7.2407   42.8668   -2.1596 C   0  0  0  0  0  0  0  0  0  0  0  0
    7.1892   44.0785   -1.2266 C   0  0  0  0  0  0  0  0  0  0  0  0
    5.8722   42.6411   -2.8271 C   0  0  0  0  0  0  0  0  0  0  0  0
 16 15  2  0  0  0
 16 17  1  0  0  0
 15 14  1  0  0  0
 17 18  2  0  0  0
 14 13  1  0  0  0
 14 19  2  0  0  0
 18 19  1  0  0  0
 13 12  1  0  0  0
 12  9  1  0  0  0
  9 10  2  0  0  0
  9  8  1  0  0  0
  8  7  1  0  0  0
  7  3  1  0  0  0
  4  3  2  0  0  0
  5  3  1  0  0  0
  3  1  1  0  0  0
 31 28  1  0  0  0
 25 23  1  0  0  0
 25 27  1  0  0  0
  1 20  1  0  0  0
 29 28  1  0  0  0
 23 21  1  0  0  0
 22 21  2  0  0  0
 21 20  1  0  0  0
 28 27  1  0  0  0
 28 30  1  0  0  0
 20 32  1  0  0  0
 27 26  1  0  0  0
 32 33  1  0  0  0
 34 33  1  0  0  0
 33 35  1  0  0  0
  1  2  1  0  0  0
 23 24  1  0  0  0
  5  6  1  0  0  0
  8 11  1  0  0  0
M  END
> <minimizedAffinity>
-7.66240

$$$$
5JS3_6MG_E_411


 35 35  0  0  0  0  0  0  0  0999 V2000
    8.9988   40.9804   -4.2395 N   0  0  0  0  0  0  0  0  0  0  0  0
    9.2902   40.7849   -5.1972 H   0  0  0  0  0  0  0  0  0  0  0  0
    9.2381   39.5757   -3.4010 P   0  0  0  0  0  0  0  0  0  0  0  0
    7.9374   38.7762   -3.4335 O   0  0  0  0  0  0  0  0  0  0  0  0
    9.7320   39.8161   -2.0129 O   0  0  0  0  0  0  0  0  0  0  0  0
    9.8570   38.9661   -1.5625 H   0  0  0  0  0  0  0  0  0  0  0  0
   10.5021   38.7053   -4.3759 C   0  0  0  0  0  0  0  0  0  0  0  0
   10.6653   39.3954   -5.6370 N   0  0  0  0  0  0  0  0  0  0  0  0
   11.3569   38.7450   -6.6930 C   0  0  0  0  0  0  0  0  0  0  0  0
   11.9646   37.6646   -6.5386 O   0  0  0  0  0  0  0  0  0  0  0  0
   10.3023   40.3021   -5.7611 H   0  0  0  0  0  0  0  0  0  0  0  0
   11.4911   39.5641   -7.8499 O   0  0  0  0  0  0  0  0  0  0  0  0
   12.8551   39.5953   -8.2862 C   0  0  0  0  0  0  0  0  0  0  0  0
   13.2234   38.9719   -9.6329 C   0  0  0  0  0  0  0  0  0  0  0  0
   13.0522   37.6074   -9.8528 C   0  0  0  0  0  0  0  0  0  0  0  0
   13.3670   37.0555  -11.1005 C   0  0  0  0  0  0  0  0  0  0  0  0
   13.8835   37.8432  -12.1364 C   0  0  0  0  0  0  0  0  0  0  0  0
   14.0238   39.2206  -11.9236 C   0  0  0  0  0  0  0  0  0  0  0  0
   13.7018   39.7780  -10.6905 C   0  0  0  0  0  0  0  0  0  0  0  0
    7.7069   41.6515   -4.3467 C   0  0  0  0  0  0  0  0  0  0  0  0
    7.7730   42.9097   -5.1991 C   0  0  0  0  0  0  0  0  0  0  0  0
    8.8263   43.5202   -5.3825 O   0  0  0  0  0  0  0  0  0  0  0  0
    6.5831   43.2782   -5.7781 N   0  0  0  0  0  0  0  0  0  0  0  0
    5.7864   42.7199   -5.6266 H   0  0  0  0  0  0  0  0  0  0  0  0
    6.4619   44.4728   -6.6121 C   0  0  0  0  0  0  0  0  0  0  0  0
    4.0356   44.1919   -6.0298 C   0  0  0  0  0  0  0  0  0  0  0  0
    5.0621   45.0970   -6.6338 C   0  0  0  0  0  0  0  0  0  0  0  0
    5.0959   46.5160   -5.9421 C   0  0  0  0  0  0  0  0  0  0  0  0
    5.3743   46.4115   -4.4548 C   0  0  0  0  0  0  0  0  0  0  0  0
    3.7494   47.1939   -6.0462 C   0  0  0  0  0  0  0  0  0  0  0  0
    6.2236   47.4137   -6.5912 C   0  0  0  0  0  0  0  0  0  0  0  0
    7.2306   41.9984   -2.9427 C   0  0  0  0  0  0  0  0  0  0  0  0
    7.6222   43.4189   -2.4884 C   0  0  0  0  0  0  0  0  0  0  0  0
    6.4903   44.1041   -1.7199 C   0  0  0  0  0  0  0  0  0  0  0  0
    8.9009   43.3665   -1.6330 C   0  0  0  0  0  0  0  0  0  0  0  0
 16 15  2  0  0  0
 16 17  1  0  0  0
 15 14  1  0  0  0
 17 18  2  0  0  0
 14 13  1  0  0  0
 14 19  2  0  0  0
 18 19  1  0  0  0
 13 12  1  0  0  0
 12  9  1  0  0  0
  9 10  2  0  0  0
  9  8  1  0  0  0
  8  7  1  0  0  0
  7  3  1  0  0  0
  4  3  2  0  0  0
  5  3  1  0  0  0
  3  1  1  0  0  0
 31 28  1  0  0  0
 25 23  1  0  0  0
 25 27  1  0  0  0
  1 20  1  0  0  0
 29 28  1  0  0  0
 23 21  1  0  0  0
 22 21  2  0  0  0
 21 20  1  0  0  0
 28 27  1  0  0  0
 28 30  1  0  0  0
 20 32  1  0  0  0
 27 26  1  0  0  0
 32 33  1  0  0  0
 34 33  1  0  0  0
 33 35  1  0  0  0
  1  2  1  0  0  0
 23 24  1  0  0  0
  5  6  1  0  0  0
  8 11  1  0  0  0
M  END
> <minimizedAffinity>
-7.50762

$$$$
5JS3_6MG_E_411


 35 35  0  0  0  0  0  0  0  0999 V2000
   11.2450   39.8398   -5.0938 N   0  0  0  0  0  0  0  0  0  0  0  0
   10.8612   40.7365   -4.7951 H   0  0  0  0  0  0  0  0  0  0  0  0
   11.7759   40.0712   -6.6423 P   0  0  0  0  0  0  0  0  0  0  0  0
   12.8195   41.1860   -6.6246 O   0  0  0  0  0  0  0  0  0  0  0  0
   10.6588   40.3429   -7.5947 O   0  0  0  0  0  0  0  0  0  0  0  0
   11.0182   40.4713   -8.4864 H   0  0  0  0  0  0  0  0  0  0  0  0
   12.5862   38.4972   -7.0567 C   0  0  0  0  0  0  0  0  0  0  0  0
   12.3212   38.1964   -8.4469 N   0  0  0  0  0  0  0  0  0  0  0  0
   13.3453   37.5998   -9.2292 C   0  0  0  0  0  0  0  0  0  0  0  0
   14.5161   37.4601   -8.8171 O   0  0  0  0  0  0  0  0  0  0  0  0
   11.4443   38.4020   -8.8444 H   0  0  0  0  0  0  0  0  0  0  0  0
   12.9630   37.4157  -10.5884 O   0  0  0  0  0  0  0  0  0  0  0  0
   13.9696   37.9330  -11.4664 C   0  0  0  0  0  0  0  0  0  0  0  0
   13.9897   37.4835  -12.9277 C   0  0  0  0  0  0  0  0  0  0  0  0
   13.6591   36.1749  -13.2712 C   0  0  0  0  0  0  0  0  0  0  0  0
   13.6541   35.7852  -14.6160 C   0  0  0  0  0  0  0  0  0  0  0  0
   14.0054   36.6789  -15.6350 C   0  0  0  0  0  0  0  0  0  0  0  0
   14.3054   38.0030  -15.2899 C   0  0  0  0  0  0  0  0  0  0  0  0
   14.3009   38.4005  -13.9570 C   0  0  0  0  0  0  0  0  0  0  0  0
   10.2524   38.8379   -4.7172 C   0  0  0  0  0  0  0  0  0  0  0  0
    8.9379   39.4594   -4.2701 C   0  0  0  0  0  0  0  0  0  0  0  0
    7.9832   38.7748   -3.9019 O   0  0  0  0  0  0  0  0  0  0  0  0
    8.9200   40.8329   -4.2674 N   0  0  0  0  0  0  0  0  0  0  0  0
    9.7335   41.3206   -4.5312 H   0  0  0  0  0  0  0  0  0  0  0  0
    7.7314   41.5937   -3.8852 C   0  0  0  0  0  0  0  0  0  0  0  0
    6.8523   43.6008   -5.1114 C   0  0  0  0  0  0  0  0  0  0  0  0
    7.8433   43.1064   -4.1057 C   0  0  0  0  0  0  0  0  0  0  0  0
    7.7266   43.8608   -2.7236 C   0  0  0  0  0  0  0  0  0  0  0  0
    8.1271   42.9727   -1.5611 C   0  0  0  0  0  0  0  0  0  0  0  0
    6.2935   44.2522   -2.4474 C   0  0  0  0  0  0  0  0  0  0  0  0
    8.6637   45.1338   -2.7150 C   0  0  0  0  0  0  0  0  0  0  0  0
   10.8337   37.9869   -3.5963 C   0  0  0  0  0  0  0  0  0  0  0  0
   10.2629   38.3220   -2.2037 C   0  0  0  0  0  0  0  0  0  0  0  0
    9.8326   37.0642   -1.4462 C   0  0  0  0  0  0  0  0  0  0  0  0
   11.2967   39.1173   -1.3862 C   0  0  0  0  0  0  0  0  0  0  0  0
 16 15  2  0  0  0
 16 17  1  0  0  0
 15 14  1  0  0  0
 17 18  2  0  0  0
 14 13  1  0  0  0
 14 19  2  0  0  0
 18 19  1  0  0  0
 13 12  1  0  0  0
 12  9  1  0  0  0
  9 10  2  0  0  0
  9  8  1  0  0  0
  8  7  1  0  0  0
  7  3  1  0  0  0
  4  3  2  0  0  0
  5  3  1  0  0  0
  3  1  1  0  0  0
 31 28  1  0  0  0
 25 23  1  0  0  0
 25 27  1  0  0  0
  1 20  1  0  0  0
 29 28  1  0  0  0
 23 21  1  0  0  0
 22 21  2  0  0  0
 21 20  1  0  0  0
 28 27  1  0  0  0
 28 30  1  0  0  0
 20 32  1  0  0  0
 27 26  1  0  0  0
 32 33  1  0  0  0
 34 33  1  0  0  0
 33 35  1  0  0  0
  1  2  1  0  0  0
 23 24  1  0  0  0
  5  6  1  0  0  0
  8 11  1  0  0  0
M  END
> <minimizedAffinity>
-7.47186

$$$$
