5OV8_AXN_A_801


 34 37  0  0  0  0  0  0  0  0999 V2000
   19.3138   -2.3856   16.8511 C   0  0  0  0  0  0  0  0  0  0  0  0
   15.9342    0.5075   13.3066 C   0  0  0  0  0  0  0  0  0  0  0  0
   20.2700   -1.4462   14.4037 C   0  0  0  0  0  0  0  0  0  0  0  0
   18.5883   -0.0252   12.6641 C   0  0  0  0  0  0  0  0  0  0  0  0
   20.7435   -0.9810   13.1856 C   0  0  0  0  0  0  0  0  0  0  0  0
   19.9063   -0.2803   12.3244 C   0  0  0  0  0  0  0  0  0  0  0  0
   17.1730   -1.3916   16.2506 C   0  0  0  0  0  0  0  0  0  0  0  0
   16.3441   -0.6824   15.3875 C   0  0  0  0  0  0  0  0  0  0  0  0
   18.9333   -1.1914   14.7477 C   0  0  0  0  0  0  0  0  0  0  0  0
   18.1002   -0.4825   13.8830 C   0  0  0  0  0  0  0  0  0  0  0  0
   18.4503   -1.6295   15.9178 N   0  0  0  0  0  0  0  0  0  0  0  0
   16.8206   -0.2457   14.2131 N   0  0  0  0  0  0  0  0  0  0  0  0
   16.7525   -1.8051   17.3310 O   0  0  0  0  0  0  0  0  0  0  0  0
   15.1731   -0.4558   15.6826 O   0  0  0  0  0  0  0  0  0  0  0  0
   21.1008    1.4237    9.3135 C   0  0  0  0  0  0  0  0  0  0  0  0
   21.3885   -0.0483    9.0853 C   0  0  0  0  0  0  0  0  0  0  0  0
   21.0295    1.4640   10.8350 C   0  0  0  0  0  0  0  0  0  0  0  0
   20.2787   -0.6456    9.9270 C   0  0  0  0  0  0  0  0  0  0  0  0
   20.3469    0.1849   11.1614 N   0  0  0  0  0  0  0  0  0  0  0  0
   21.9959   -1.1789   12.7493 N   0  0  0  0  0  0  0  0  0  0  0  0
   22.1776   -1.2846   11.7875 H   0  0  0  0  0  0  0  0  0  0  0  0
   24.4941   -1.5449   13.0566 O   0  0  0  0  0  0  0  0  0  0  0  0
   23.0591   -2.3118   14.9207 O   0  0  0  0  0  0  0  0  0  0  0  0
   23.2237   -1.2428   13.8396 S   0  0  0  0  0  0  0  0  0  0  0  0
   23.5134    1.6970   16.5531 C   0  0  0  0  0  0  0  0  0  0  0  0
   23.3951    2.7363   14.3809 C   0  0  0  0  0  0  0  0  0  0  0  0
   23.4261    0.4422   15.9607 C   0  0  0  0  0  0  0  0  0  0  0  0
   23.3100    1.4819   13.7888 C   0  0  0  0  0  0  0  0  0  0  0  0
   23.4892    2.8428   15.7641 C   0  0  0  0  0  0  0  0  0  0  0  0
   23.3264    0.3408   14.5755 C   0  0  0  0  0  0  0  0  0  0  0  0
   23.5609    4.1007   16.3526 C   0  0  0  0  0  0  0  0  0  0  0  0
   22.5399    6.2780   15.8003 C   0  0  0  0  0  0  0  0  0  0  0  0
   21.4880    4.8260   17.5233 C   0  0  0  0  0  0  0  0  0  0  0  0
   22.2403    4.8375   16.1927 C   0  0  0  0  0  0  0  0  0  0  0  0
 15 16  1  0  0  0
 15 17  1  0  0  0
 16 18  1  0  0  0
 17 19  1  0  0  0
 18 19  1  0  0  0
 19  6  1  0  0  0
  6  4  2  0  0  0
  6  5  1  0  0  0
  4 10  1  0  0  0
  2 12  1  0  0  0
 20  5  1  0  0  0
 20 24  1  0  0  0
  5  3  2  0  0  0
 22 24  2  0  0  0
 10 12  1  0  0  0
 10  9  2  0  0  0
 12  8  1  0  0  0
 27 25  2  0  0  0
 27 30  1  0  0  0
 24 30  1  0  0  0
 24 23  2  0  0  0
 25 29  1  0  0  0
  3  9  1  0  0  0
  9 11  1  0  0  0
 30 28  2  0  0  0
  8 14  2  0  0  0
  8  7  1  0  0  0
 11  7  1  0  0  0
 11  1  1  0  0  0
 29 31  1  0  0  0
 29 26  2  0  0  0
  7 13  2  0  0  0
 28 26  1  0  0  0
 32 34  1  0  0  0
 31 34  1  0  0  0
 34 33  1  0  0  0
 20 21  1  0  0  0
M  END
> <minimizedAffinity>
-8.00705

$$$$
5OV8_AXN_A_801


 34 37  0  0  0  0  0  0  0  0999 V2000
   19.0189   -2.3705   17.1046 C   0  0  0  0  0  0  0  0  0  0  0  0
   16.0546    0.3997   13.1179 C   0  0  0  0  0  0  0  0  0  0  0  0
   20.2272   -1.5569   14.7247 C   0  0  0  0  0  0  0  0  0  0  0  0
   18.7495   -0.1959   12.7656 C   0  0  0  0  0  0  0  0  0  0  0  0
   20.8261   -1.1542   13.5399 C   0  0  0  0  0  0  0  0  0  0  0  0
   20.0899   -0.4833   12.5697 C   0  0  0  0  0  0  0  0  0  0  0  0
   16.9649   -1.3778   16.2516 C   0  0  0  0  0  0  0  0  0  0  0  0
   16.2373   -0.6985   15.2799 C   0  0  0  0  0  0  0  0  0  0  0  0
   18.8677   -1.2695   14.9229 C   0  0  0  0  0  0  0  0  0  0  0  0
   18.1360   -0.5904   13.9493 C   0  0  0  0  0  0  0  0  0  0  0  0
   18.2645   -1.6472   16.0578 N   0  0  0  0  0  0  0  0  0  0  0  0
   16.8345   -0.3223   14.1402 N   0  0  0  0  0  0  0  0  0  0  0  0
   16.4331   -1.7359   17.3023 O   0  0  0  0  0  0  0  0  0  0  0  0
   15.0471   -0.4436   15.4473 O   0  0  0  0  0  0  0  0  0  0  0  0
   21.7986    0.2014    9.4063 C   0  0  0  0  0  0  0  0  0  0  0  0
   20.8667    1.3783    9.6247 C   0  0  0  0  0  0  0  0  0  0  0  0
   21.1177   -0.8595   10.2622 C   0  0  0  0  0  0  0  0  0  0  0  0
   20.8190    1.3721   11.1395 C   0  0  0  0  0  0  0  0  0  0  0  0
   20.6507   -0.0776   11.4366 N   0  0  0  0  0  0  0  0  0  0  0  0
   22.1117   -1.3880   13.2390 N   0  0  0  0  0  0  0  0  0  0  0  0
   22.3519   -2.0841   12.5855 H   0  0  0  0  0  0  0  0  0  0  0  0
   22.9454    0.9654   13.7245 O   0  0  0  0  0  0  0  0  0  0  0  0
   24.6977   -0.7614   13.4605 O   0  0  0  0  0  0  0  0  0  0  0  0
   23.2815   -0.4985   13.9742 S   0  0  0  0  0  0  0  0  0  0  0  0
   23.0284   -0.0900   17.9565 C   0  0  0  0  0  0  0  0  0  0  0  0
   23.1189   -2.4522   17.4830 C   0  0  0  0  0  0  0  0  0  0  0  0
   23.1074    0.1885   16.5966 C   0  0  0  0  0  0  0  0  0  0  0  0
   23.1957   -2.1736   16.1237 C   0  0  0  0  0  0  0  0  0  0  0  0
   23.0429   -1.4090   18.3992 C   0  0  0  0  0  0  0  0  0  0  0  0
   23.1890   -0.8594   15.6833 C   0  0  0  0  0  0  0  0  0  0  0  0
   22.9793   -1.6927   19.7590 C   0  0  0  0  0  0  0  0  0  0  0  0
   20.7080   -0.9762   20.4039 C   0  0  0  0  0  0  0  0  0  0  0  0
   21.6793   -3.0365   21.4015 C   0  0  0  0  0  0  0  0  0  0  0  0
   21.5909   -2.1870   20.1337 C   0  0  0  0  0  0  0  0  0  0  0  0
 15 16  1  0  0  0
 15 17  1  0  0  0
 16 18  1  0  0  0
 17 19  1  0  0  0
 18 19  1  0  0  0
 19  6  1  0  0  0
  6  4  2  0  0  0
  6  5  1  0  0  0
  4 10  1  0  0  0
  2 12  1  0  0  0
 20  5  1  0  0  0
 20 24  1  0  0  0
  5  3  2  0  0  0
 22 24  2  0  0  0
 10 12  1  0  0  0
 10  9  2  0  0  0
 12  8  1  0  0  0
 27 25  2  0  0  0
 27 30  1  0  0  0
 24 30  1  0  0  0
 24 23  2  0  0  0
 25 29  1  0  0  0
  3  9  1  0  0  0
  9 11  1  0  0  0
 30 28  2  0  0  0
  8 14  2  0  0  0
  8  7  1  0  0  0
 11  7  1  0  0  0
 11  1  1  0  0  0
 29 31  1  0  0  0
 29 26  2  0  0  0
  7 13  2  0  0  0
 28 26  1  0  0  0
 32 34  1  0  0  0
 31 34  1  0  0  0
 34 33  1  0  0  0
 20 21  1  0  0  0
M  END
> <minimizedAffinity>
-7.33898

$$$$
5OV8_AXN_A_801


 34 37  0  0  0  0  0  0  0  0999 V2000
   24.3643    1.6781   14.7908 C   0  0  0  0  0  0  0  0  0  0  0  0
   23.0543    3.3768   20.0590 C   0  0  0  0  0  0  0  0  0  0  0  0
   23.1054   -0.0498   16.5840 C   0  0  0  0  0  0  0  0  0  0  0  0
   22.4707    0.8020   19.1812 C   0  0  0  0  0  0  0  0  0  0  0  0
   22.4819   -0.9088   17.4773 C   0  0  0  0  0  0  0  0  0  0  0  0
   22.1722   -0.4846   18.7647 C   0  0  0  0  0  0  0  0  0  0  0  0
   24.3118    3.3486   16.5624 C   0  0  0  0  0  0  0  0  0  0  0  0
   23.9909    3.7684   17.8492 C   0  0  0  0  0  0  0  0  0  0  0  0
   23.4118    1.2533   17.0061 C   0  0  0  0  0  0  0  0  0  0  0  0
   23.0927    1.6754   18.2962 C   0  0  0  0  0  0  0  0  0  0  0  0
   24.0140    2.1031   16.1638 N   0  0  0  0  0  0  0  0  0  0  0  0
   23.3925    2.9208   18.6980 N   0  0  0  0  0  0  0  0  0  0  0  0
   24.8659    4.1106   15.7702 O   0  0  0  0  0  0  0  0  0  0  0  0
   24.2561    4.9078   18.2249 O   0  0  0  0  0  0  0  0  0  0  0  0
   20.8624   -2.9773   21.1028 C   0  0  0  0  0  0  0  0  0  0  0  0
   19.9904   -1.7502   21.2906 C   0  0  0  0  0  0  0  0  0  0  0  0
   22.1172   -2.3436   20.5149 C   0  0  0  0  0  0  0  0  0  0  0  0
   20.1040   -1.1569   19.9007 C   0  0  0  0  0  0  0  0  0  0  0  0
   21.5622   -1.2886   19.6276 N   0  0  0  0  0  0  0  0  0  0  0  0
   22.1568   -2.1769   17.1868 N   0  0  0  0  0  0  0  0  0  0  0  0
   22.2579   -2.8847   17.8635 H   0  0  0  0  0  0  0  0  0  0  0  0
   21.6275   -4.0508   15.5504 O   0  0  0  0  0  0  0  0  0  0  0  0
   22.3942   -1.9267   14.5391 O   0  0  0  0  0  0  0  0  0  0  0  0
   21.5877   -2.5349   15.6874 S   0  0  0  0  0  0  0  0  0  0  0  0
   18.1604   -0.8878   14.4107 C   0  0  0  0  0  0  0  0  0  0  0  0
   17.7835   -1.6744   16.6583 C   0  0  0  0  0  0  0  0  0  0  0  0
   19.4736   -1.3405   14.4694 C   0  0  0  0  0  0  0  0  0  0  0  0
   19.0956   -2.1288   16.7159 C   0  0  0  0  0  0  0  0  0  0  0  0
   17.3191   -1.0471   15.5074 C   0  0  0  0  0  0  0  0  0  0  0  0
   19.9357   -1.9631   15.6260 C   0  0  0  0  0  0  0  0  0  0  0  0
   16.0093   -0.5826   15.4595 C   0  0  0  0  0  0  0  0  0  0  0  0
   15.8132    1.3765   13.9723 C   0  0  0  0  0  0  0  0  0  0  0  0
   14.2032   -0.5054   13.7491 C   0  0  0  0  0  0  0  0  0  0  0  0
   15.6558   -0.1361   14.0495 C   0  0  0  0  0  0  0  0  0  0  0  0
 15 16  1  0  0  0
 15 17  1  0  0  0
 16 18  1  0  0  0
 17 19  1  0  0  0
 18 19  1  0  0  0
 19  6  1  0  0  0
  6  4  2  0  0  0
  6  5  1  0  0  0
  4 10  1  0  0  0
  2 12  1  0  0  0
 20  5  1  0  0  0
 20 24  1  0  0  0
  5  3  2  0  0  0
 22 24  2  0  0  0
 10 12  1  0  0  0
 10  9  2  0  0  0
 12  8  1  0  0  0
 27 25  2  0  0  0
 27 30  1  0  0  0
 24 30  1  0  0  0
 24 23  2  0  0  0
 25 29  1  0  0  0
  3  9  1  0  0  0
  9 11  1  0  0  0
 30 28  2  0  0  0
  8 14  2  0  0  0
  8  7  1  0  0  0
 11  7  1  0  0  0
 11  1  1  0  0  0
 29 31  1  0  0  0
 29 26  2  0  0  0
  7 13  2  0  0  0
 28 26  1  0  0  0
 32 34  1  0  0  0
 31 34  1  0  0  0
 34 33  1  0  0  0
 20 21  1  0  0  0
M  END
> <minimizedAffinity>
-7.31966

$$$$
5OV8_AXN_A_801


 34 37  0  0  0  0  0  0  0  0999 V2000
   19.6267   -1.2379    9.8830 C   0  0  0  0  0  0  0  0  0  0  0  0
   23.5403    0.7730    6.2782 C   0  0  0  0  0  0  0  0  0  0  0  0
   22.3457   -1.3737   10.4953 C   0  0  0  0  0  0  0  0  0  0  0  0
   24.2641   -0.3820    8.7037 C   0  0  0  0  0  0  0  0  0  0  0  0
   23.6979   -1.4430   10.7975 C   0  0  0  0  0  0  0  0  0  0  0  0
   24.6460   -0.9540    9.9056 C   0  0  0  0  0  0  0  0  0  0  0  0
   20.2815   -0.1711    7.7938 C   0  0  0  0  0  0  0  0  0  0  0  0
   21.2355    0.3239    6.9107 C   0  0  0  0  0  0  0  0  0  0  0  0
   21.9575   -0.7975    9.2758 C   0  0  0  0  0  0  0  0  0  0  0  0
   22.9123   -0.3025    8.3883 C   0  0  0  0  0  0  0  0  0  0  0  0
   20.6584   -0.7181    8.9590 N   0  0  0  0  0  0  0  0  0  0  0  0
   22.5373    0.2428    7.2202 N   0  0  0  0  0  0  0  0  0  0  0  0
   19.0818   -0.1103    7.5252 O   0  0  0  0  0  0  0  0  0  0  0  0
   20.9024    0.8297    5.8417 O   0  0  0  0  0  0  0  0  0  0  0  0
   28.1731   -1.5396   10.6883 C   0  0  0  0  0  0  0  0  0  0  0  0
   28.0932   -0.0912   10.2442 C   0  0  0  0  0  0  0  0  0  0  0  0
   26.9221   -2.1059   10.0280 C   0  0  0  0  0  0  0  0  0  0  0  0
   26.6681    0.2121   10.6613 C   0  0  0  0  0  0  0  0  0  0  0  0
   25.9432   -0.9988   10.1852 N   0  0  0  0  0  0  0  0  0  0  0  0
   24.1818   -1.9846   11.9246 N   0  0  0  0  0  0  0  0  0  0  0  0
   24.5502   -2.8976   11.9206 H   0  0  0  0  0  0  0  0  0  0  0  0
   24.0142    0.3553   12.9075 O   0  0  0  0  0  0  0  0  0  0  0  0
   25.4028   -1.2477   14.1820 O   0  0  0  0  0  0  0  0  0  0  0  0
   24.1524   -1.1058   13.3128 S   0  0  0  0  0  0  0  0  0  0  0  0
   20.3579   -1.5694   14.5277 C   0  0  0  0  0  0  0  0  0  0  0  0
   21.7442   -2.8980   15.9856 C   0  0  0  0  0  0  0  0  0  0  0  0
   21.4853   -1.1584   13.8255 C   0  0  0  0  0  0  0  0  0  0  0  0
   22.8707   -2.4887   15.2822 C   0  0  0  0  0  0  0  0  0  0  0  0
   20.4887   -2.4315   15.6120 C   0  0  0  0  0  0  0  0  0  0  0  0
   22.7410   -1.6238   14.2069 C   0  0  0  0  0  0  0  0  0  0  0  0
   19.3660   -2.8338   16.3271 C   0  0  0  0  0  0  0  0  0  0  0  0
   19.1537   -1.7951   18.5552 C   0  0  0  0  0  0  0  0  0  0  0  0
   17.2489   -1.6889   16.9602 C   0  0  0  0  0  0  0  0  0  0  0  0
   18.7719   -1.6584   17.0875 C   0  0  0  0  0  0  0  0  0  0  0  0
 15 16  1  0  0  0
 15 17  1  0  0  0
 16 18  1  0  0  0
 17 19  1  0  0  0
 18 19  1  0  0  0
 19  6  1  0  0  0
  6  4  2  0  0  0
  6  5  1  0  0  0
  4 10  1  0  0  0
  2 12  1  0  0  0
 20  5  1  0  0  0
 20 24  1  0  0  0
  5  3  2  0  0  0
 22 24  2  0  0  0
 10 12  1  0  0  0
 10  9  2  0  0  0
 12  8  1  0  0  0
 27 25  2  0  0  0
 27 30  1  0  0  0
 24 30  1  0  0  0
 24 23  2  0  0  0
 25 29  1  0  0  0
  3  9  1  0  0  0
  9 11  1  0  0  0
 30 28  2  0  0  0
  8 14  2  0  0  0
  8  7  1  0  0  0
 11  7  1  0  0  0
 11  1  1  0  0  0
 29 31  1  0  0  0
 29 26  2  0  0  0
  7 13  2  0  0  0
 28 26  1  0  0  0
 32 34  1  0  0  0
 31 34  1  0  0  0
 34 33  1  0  0  0
 20 21  1  0  0  0
M  END
> <minimizedAffinity>
-7.15652

$$$$
5OV8_AXN_A_801


 34 37  0  0  0  0  0  0  0  0999 V2000
   23.7490    0.6284   18.6029 C   0  0  0  0  0  0  0  0  0  0  0  0
   24.2993    4.0512   14.0934 C   0  0  0  0  0  0  0  0  0  0  0  0
   23.1393   -0.2741   16.0339 C   0  0  0  0  0  0  0  0  0  0  0  0
   23.4111    1.4288   13.8203 C   0  0  0  0  0  0  0  0  0  0  0  0
   22.8340   -0.7209   14.7565 C   0  0  0  0  0  0  0  0  0  0  0  0
   22.9663    0.1268   13.6623 C   0  0  0  0  0  0  0  0  0  0  0  0
   24.3136    2.7652   17.5797 C   0  0  0  0  0  0  0  0  0  0  0  0
   24.4517    3.6045   16.4790 C   0  0  0  0  0  0  0  0  0  0  0  0
   23.5868    1.0463   16.1959 C   0  0  0  0  0  0  0  0  0  0  0  0
   23.7239    1.8899   15.0941 C   0  0  0  0  0  0  0  0  0  0  0  0
   23.8883    1.5034   17.4184 N   0  0  0  0  0  0  0  0  0  0  0  0
   24.1469    3.1540   15.2537 N   0  0  0  0  0  0  0  0  0  0  0  0
   24.5837    3.1619   18.7131 O   0  0  0  0  0  0  0  0  0  0  0  0
   24.8430    4.7613   16.6138 O   0  0  0  0  0  0  0  0  0  0  0  0
   21.7672   -1.0287   10.4030 C   0  0  0  0  0  0  0  0  0  0  0  0
   23.1933   -0.5677   10.1683 C   0  0  0  0  0  0  0  0  0  0  0  0
   21.4215   -0.2442   11.6627 C   0  0  0  0  0  0  0  0  0  0  0  0
   23.7631   -0.8294   11.5480 C   0  0  0  0  0  0  0  0  0  0  0  0
   22.6927   -0.2886   12.4312 N   0  0  0  0  0  0  0  0  0  0  0  0
   22.3853   -1.9555   14.4873 N   0  0  0  0  0  0  0  0  0  0  0  0
   22.5919   -2.3837   13.6252 H   0  0  0  0  0  0  0  0  0  0  0  0
   22.1299   -2.4676   16.9655 O   0  0  0  0  0  0  0  0  0  0  0  0
   21.4099   -4.2598   15.4189 O   0  0  0  0  0  0  0  0  0  0  0  0
   21.4864   -2.7448   15.6138 S   0  0  0  0  0  0  0  0  0  0  0  0
   17.8011   -1.5462   16.6489 C   0  0  0  0  0  0  0  0  0  0  0  0
   18.1404   -0.9128   14.3475 C   0  0  0  0  0  0  0  0  0  0  0  0
   19.0763   -2.0988   16.6878 C   0  0  0  0  0  0  0  0  0  0  0  0
   19.4158   -1.4634   14.3873 C   0  0  0  0  0  0  0  0  0  0  0  0
   17.3309   -0.9616   15.4770 C   0  0  0  0  0  0  0  0  0  0  0  0
   19.8811   -2.0525   15.5525 C   0  0  0  0  0  0  0  0  0  0  0  0
   16.0507   -0.4209   15.4281 C   0  0  0  0  0  0  0  0  0  0  0  0
   15.7934    1.4417   13.8304 C   0  0  0  0  0  0  0  0  0  0  0  0
   14.2349   -0.4933   13.7277 C   0  0  0  0  0  0  0  0  0  0  0  0
   15.6782   -0.0676   13.9967 C   0  0  0  0  0  0  0  0  0  0  0  0
 15 16  1  0  0  0
 15 17  1  0  0  0
 16 18  1  0  0  0
 17 19  1  0  0  0
 18 19  1  0  0  0
 19  6  1  0  0  0
  6  4  2  0  0  0
  6  5  1  0  0  0
  4 10  1  0  0  0
  2 12  1  0  0  0
 20  5  1  0  0  0
 20 24  1  0  0  0
  5  3  2  0  0  0
 22 24  2  0  0  0
 10 12  1  0  0  0
 10  9  2  0  0  0
 12  8  1  0  0  0
 27 25  2  0  0  0
 27 30  1  0  0  0
 24 30  1  0  0  0
 24 23  2  0  0  0
 25 29  1  0  0  0
  3  9  1  0  0  0
  9 11  1  0  0  0
 30 28  2  0  0  0
  8 14  2  0  0  0
  8  7  1  0  0  0
 11  7  1  0  0  0
 11  1  1  0  0  0
 29 31  1  0  0  0
 29 26  2  0  0  0
  7 13  2  0  0  0
 28 26  1  0  0  0
 32 34  1  0  0  0
 31 34  1  0  0  0
 34 33  1  0  0  0
 20 21  1  0  0  0
M  END
> <minimizedAffinity>
-6.93043

$$$$
5OV8_AXN_A_801


 34 37  0  0  0  0  0  0  0  0999 V2000
   18.9589   -1.2092   11.0977 C   0  0  0  0  0  0  0  0  0  0  0  0
   23.9223   -0.5653    8.3949 C   0  0  0  0  0  0  0  0  0  0  0  0
   21.3187   -0.7629   12.5183 C   0  0  0  0  0  0  0  0  0  0  0  0
   23.7600   -0.4526   11.1701 C   0  0  0  0  0  0  0  0  0  0  0  0
   22.4930   -0.5435   13.2236 C   0  0  0  0  0  0  0  0  0  0  0  0
   23.7016   -0.3939   12.5525 C   0  0  0  0  0  0  0  0  0  0  0  0
   20.3083   -1.1015    9.0730 C   0  0  0  0  0  0  0  0  0  0  0  0
   21.5199   -0.9421    8.4084 C   0  0  0  0  0  0  0  0  0  0  0  0
   21.3772   -0.8261   11.1174 C   0  0  0  0  0  0  0  0  0  0  0  0
   22.5909   -0.6687   10.4493 C   0  0  0  0  0  0  0  0  0  0  0  0
   20.2582   -1.0371   10.4118 N   0  0  0  0  0  0  0  0  0  0  0  0
   22.6436   -0.7356    9.1095 N   0  0  0  0  0  0  0  0  0  0  0  0
   19.2666   -1.2970    8.4472 O   0  0  0  0  0  0  0  0  0  0  0  0
   21.5779   -0.9963    7.1823 O   0  0  0  0  0  0  0  0  0  0  0  0
   26.7519   -0.1882   14.5648 C   0  0  0  0  0  0  0  0  0  0  0  0
   26.8757    0.9143   13.5301 C   0  0  0  0  0  0  0  0  0  0  0  0
   25.7671   -1.1190   13.8679 C   0  0  0  0  0  0  0  0  0  0  0  0
   25.4049    1.2030   13.3062 C   0  0  0  0  0  0  0  0  0  0  0  0
   24.8325   -0.1686   13.2108 N   0  0  0  0  0  0  0  0  0  0  0  0
   22.5567   -0.4792   14.5615 N   0  0  0  0  0  0  0  0  0  0  0  0
   22.7932    0.3651   15.0091 H   0  0  0  0  0  0  0  0  0  0  0  0
   23.0466   -1.7179   16.7283 O   0  0  0  0  0  0  0  0  0  0  0  0
   22.6008   -3.1419   14.7546 O   0  0  0  0  0  0  0  0  0  0  0  0
   22.2350   -1.8271   15.4447 S   0  0  0  0  0  0  0  0  0  0  0  0
   18.2570   -1.4808   15.0637 C   0  0  0  0  0  0  0  0  0  0  0  0
   18.7103   -2.0413   17.3644 C   0  0  0  0  0  0  0  0  0  0  0  0
   19.6194   -1.5019   14.7872 C   0  0  0  0  0  0  0  0  0  0  0  0
   20.0718   -2.0644   17.0873 C   0  0  0  0  0  0  0  0  0  0  0  0
   17.8040   -1.7418   16.3531 C   0  0  0  0  0  0  0  0  0  0  0  0
   20.5234   -1.7968   15.8044 C   0  0  0  0  0  0  0  0  0  0  0  0
   16.4435   -1.7072   16.6385 C   0  0  0  0  0  0  0  0  0  0  0  0
   15.6887    0.3107   15.4359 C   0  0  0  0  0  0  0  0  0  0  0  0
   14.2117   -1.6873   15.5374 C   0  0  0  0  0  0  0  0  0  0  0  0
   15.6607   -1.2118   15.4326 C   0  0  0  0  0  0  0  0  0  0  0  0
 15 16  1  0  0  0
 15 17  1  0  0  0
 16 18  1  0  0  0
 17 19  1  0  0  0
 18 19  1  0  0  0
 19  6  1  0  0  0
  6  4  2  0  0  0
  6  5  1  0  0  0
  4 10  1  0  0  0
  2 12  1  0  0  0
 20  5  1  0  0  0
 20 24  1  0  0  0
  5  3  2  0  0  0
 22 24  2  0  0  0
 10 12  1  0  0  0
 10  9  2  0  0  0
 12  8  1  0  0  0
 27 25  2  0  0  0
 27 30  1  0  0  0
 24 30  1  0  0  0
 24 23  2  0  0  0
 25 29  1  0  0  0
  3  9  1  0  0  0
  9 11  1  0  0  0
 30 28  2  0  0  0
  8 14  2  0  0  0
  8  7  1  0  0  0
 11  7  1  0  0  0
 11  1  1  0  0  0
 29 31  1  0  0  0
 29 26  2  0  0  0
  7 13  2  0  0  0
 28 26  1  0  0  0
 32 34  1  0  0  0
 31 34  1  0  0  0
 34 33  1  0  0  0
 20 21  1  0  0  0
M  END
> <minimizedAffinity>
-6.82370

$$$$
5OV8_AXN_A_801


 34 37  0  0  0  0  0  0  0  0999 V2000
   27.6652   -2.5097   10.6267 C   0  0  0  0  0  0  0  0  0  0  0  0
   23.6470   -5.5231    7.9569 C   0  0  0  0  0  0  0  0  0  0  0  0
   25.1455   -1.4183   10.1305 C   0  0  0  0  0  0  0  0  0  0  0  0
   23.1759   -2.9163    8.8075 C   0  0  0  0  0  0  0  0  0  0  0  0
   23.8933   -0.8759    9.8809 C   0  0  0  0  0  0  0  0  0  0  0  0
   22.9209   -1.6197    9.2218 C   0  0  0  0  0  0  0  0  0  0  0  0
   26.8635   -4.5321    9.5318 C   0  0  0  0  0  0  0  0  0  0  0  0
   25.8825   -5.2730    8.8807 C   0  0  0  0  0  0  0  0  0  0  0  0
   25.4065   -2.7310    9.7079 C   0  0  0  0  0  0  0  0  0  0  0  0
   24.4253   -3.4747    9.0533 C   0  0  0  0  0  0  0  0  0  0  0  0
   26.6073   -3.2791    9.9359 N   0  0  0  0  0  0  0  0  0  0  0  0
   24.6805   -4.7281    8.6455 N   0  0  0  0  0  0  0  0  0  0  0  0
   27.9748   -5.0132    9.7524 O   0  0  0  0  0  0  0  0  0  0  0  0
   26.1044   -6.4227    8.5084 O   0  0  0  0  0  0  0  0  0  0  0  0
   19.8082    0.1416    8.4441 C   0  0  0  0  0  0  0  0  0  0  0  0
   19.4205   -1.3177    8.5910 C   0  0  0  0  0  0  0  0  0  0  0  0
   21.2907    0.0076    8.1187 C   0  0  0  0  0  0  0  0  0  0  0  0
   20.4954   -1.7574    9.5646 C   0  0  0  0  0  0  0  0  0  0  0  0
   21.7125   -1.1216    8.9879 N   0  0  0  0  0  0  0  0  0  0  0  0
   23.5399    0.3706   10.2265 N   0  0  0  0  0  0  0  0  0  0  0  0
   23.4067    1.0602    9.5365 H   0  0  0  0  0  0  0  0  0  0  0  0
   23.5571    2.2321   11.9596 O   0  0  0  0  0  0  0  0  0  0  0  0
   24.2892    0.0095   12.7637 O   0  0  0  0  0  0  0  0  0  0  0  0
   23.3318    0.7332   11.8156 S   0  0  0  0  0  0  0  0  0  0  0  0
   20.1049   -1.1557   13.2677 C   0  0  0  0  0  0  0  0  0  0  0  0
   19.3254    0.8194   12.1257 C   0  0  0  0  0  0  0  0  0  0  0  0
   21.4169   -0.8286   12.9439 C   0  0  0  0  0  0  0  0  0  0  0  0
   20.6370    1.1472   11.8040 C   0  0  0  0  0  0  0  0  0  0  0  0
   19.0599   -0.3367   12.8514 C   0  0  0  0  0  0  0  0  0  0  0  0
   21.6773    0.3272   12.2123 C   0  0  0  0  0  0  0  0  0  0  0  0
   17.7448   -0.6672   13.1595 C   0  0  0  0  0  0  0  0  0  0  0  0
   17.4317   -1.1993   15.5484 C   0  0  0  0  0  0  0  0  0  0  0  0
   15.9206    0.4370   14.4427 C   0  0  0  0  0  0  0  0  0  0  0  0
   17.3547   -0.0879   14.5103 C   0  0  0  0  0  0  0  0  0  0  0  0
 15 16  1  0  0  0
 15 17  1  0  0  0
 16 18  1  0  0  0
 17 19  1  0  0  0
 18 19  1  0  0  0
 19  6  1  0  0  0
  6  4  2  0  0  0
  6  5  1  0  0  0
  4 10  1  0  0  0
  2 12  1  0  0  0
 20  5  1  0  0  0
 20 24  1  0  0  0
  5  3  2  0  0  0
 22 24  2  0  0  0
 10 12  1  0  0  0
 10  9  2  0  0  0
 12  8  1  0  0  0
 27 25  2  0  0  0
 27 30  1  0  0  0
 24 30  1  0  0  0
 24 23  2  0  0  0
 25 29  1  0  0  0
  3  9  1  0  0  0
  9 11  1  0  0  0
 30 28  2  0  0  0
  8 14  2  0  0  0
  8  7  1  0  0  0
 11  7  1  0  0  0
 11  1  1  0  0  0
 29 31  1  0  0  0
 29 26  2  0  0  0
  7 13  2  0  0  0
 28 26  1  0  0  0
 32 34  1  0  0  0
 31 34  1  0  0  0
 34 33  1  0  0  0
 20 21  1  0  0  0
M  END
> <minimizedAffinity>
-6.73797

$$$$
5OV8_AXN_A_801


 34 37  0  0  0  0  0  0  0  0999 V2000
   24.2437    1.7952   16.5053 C   0  0  0  0  0  0  0  0  0  0  0  0
   21.4850    6.0511   13.9301 C   0  0  0  0  0  0  0  0  0  0  0  0
   23.7534    1.7332   13.7591 C   0  0  0  0  0  0  0  0  0  0  0  0
   22.3864    3.8383   12.5047 C   0  0  0  0  0  0  0  0  0  0  0  0
   23.5068    1.7022   12.3942 C   0  0  0  0  0  0  0  0  0  0  0  0
   22.8258    2.7454   11.7765 C   0  0  0  0  0  0  0  0  0  0  0  0
   23.1017    3.9463   16.5309 C   0  0  0  0  0  0  0  0  0  0  0  0
   22.4288    4.9901   15.9042 C   0  0  0  0  0  0  0  0  0  0  0  0
   23.3054    2.8386   14.4988 C   0  0  0  0  0  0  0  0  0  0  0  0
   22.6289    3.8850   13.8729 C   0  0  0  0  0  0  0  0  0  0  0  0
   23.5300    2.8938   15.8182 N   0  0  0  0  0  0  0  0  0  0  0  0
   22.1969    4.9381   14.5849 N   0  0  0  0  0  0  0  0  0  0  0  0
   23.3197    3.9735   17.7420 O   0  0  0  0  0  0  0  0  0  0  0  0
   22.0342    5.9607   16.5459 O   0  0  0  0  0  0  0  0  0  0  0  0
   21.8671    2.4030    8.2609 C   0  0  0  0  0  0  0  0  0  0  0  0
   22.6895    3.6758    8.3331 C   0  0  0  0  0  0  0  0  0  0  0  0
   21.4014    2.2865    9.7070 C   0  0  0  0  0  0  0  0  0  0  0  0
   23.5737    3.3267    9.5133 C   0  0  0  0  0  0  0  0  0  0  0  0
   22.5943    2.7391   10.4691 N   0  0  0  0  0  0  0  0  0  0  0  0
   23.8758    0.6915   11.5940 N   0  0  0  0  0  0  0  0  0  0  0  0
   24.3522    0.8714   10.7515 H   0  0  0  0  0  0  0  0  0  0  0  0
   24.3048   -1.1341   13.3123 O   0  0  0  0  0  0  0  0  0  0  0  0
   23.8947   -1.9115   10.9994 O   0  0  0  0  0  0  0  0  0  0  0  0
   23.5229   -0.8511   12.0369 S   0  0  0  0  0  0  0  0  0  0  0  0
   19.5429   -0.7621   11.5458 C   0  0  0  0  0  0  0  0  0  0  0  0
   19.9673   -1.1701   13.8838 C   0  0  0  0  0  0  0  0  0  0  0  0
   20.9110   -0.7173   11.3023 C   0  0  0  0  0  0  0  0  0  0  0  0
   21.3347   -1.1273   13.6398 C   0  0  0  0  0  0  0  0  0  0  0  0
   19.0720   -0.9797   12.8369 C   0  0  0  0  0  0  0  0  0  0  0  0
   21.8036   -0.9029   12.3549 C   0  0  0  0  0  0  0  0  0  0  0  0
   17.7048   -1.0104   13.0885 C   0  0  0  0  0  0  0  0  0  0  0  0
   16.6713   -0.5561   15.2825 C   0  0  0  0  0  0  0  0  0  0  0  0
   16.3153    1.0304   13.4011 C   0  0  0  0  0  0  0  0  0  0  0  0
   17.3202    0.0895   14.0656 C   0  0  0  0  0  0  0  0  0  0  0  0
 15 16  1  0  0  0
 15 17  1  0  0  0
 16 18  1  0  0  0
 17 19  1  0  0  0
 18 19  1  0  0  0
 19  6  1  0  0  0
  6  4  2  0  0  0
  6  5  1  0  0  0
  4 10  1  0  0  0
  2 12  1  0  0  0
 20  5  1  0  0  0
 20 24  1  0  0  0
  5  3  2  0  0  0
 22 24  2  0  0  0
 10 12  1  0  0  0
 10  9  2  0  0  0
 12  8  1  0  0  0
 27 25  2  0  0  0
 27 30  1  0  0  0
 24 30  1  0  0  0
 24 23  2  0  0  0
 25 29  1  0  0  0
  3  9  1  0  0  0
  9 11  1  0  0  0
 30 28  2  0  0  0
  8 14  2  0  0  0
  8  7  1  0  0  0
 11  7  1  0  0  0
 11  1  1  0  0  0
 29 31  1  0  0  0
 29 26  2  0  0  0
  7 13  2  0  0  0
 28 26  1  0  0  0
 32 34  1  0  0  0
 31 34  1  0  0  0
 34 33  1  0  0  0
 20 21  1  0  0  0
M  END
> <minimizedAffinity>
-6.55421

$$$$
5OV8_AXN_A_801


 34 37  0  0  0  0  0  0  0  0999 V2000
   22.9066    3.5336   14.3276 C   0  0  0  0  0  0  0  0  0  0  0  0
   23.1422    4.4271    8.7151 C   0  0  0  0  0  0  0  0  0  0  0  0
   21.9986    1.6038   12.5283 C   0  0  0  0  0  0  0  0  0  0  0  0
   22.1169    2.0623    9.7625 C   0  0  0  0  0  0  0  0  0  0  0  0
   21.5451    0.6462   11.6329 C   0  0  0  0  0  0  0  0  0  0  0  0
   21.6018    0.8782   10.2630 C   0  0  0  0  0  0  0  0  0  0  0  0
   23.4565    4.8993   12.3875 C   0  0  0  0  0  0  0  0  0  0  0  0
   23.5179    5.1204   11.0154 C   0  0  0  0  0  0  0  0  0  0  0  0
   22.5176    2.8057   12.0224 C   0  0  0  0  0  0  0  0  0  0  0  0
   22.5782    3.0302   10.6475 C   0  0  0  0  0  0  0  0  0  0  0  0
   22.9622    3.7475   12.8649 N   0  0  0  0  0  0  0  0  0  0  0  0
   23.0701    4.1836   10.1677 N   0  0  0  0  0  0  0  0  0  0  0  0
   23.8581    5.7494   13.1819 O   0  0  0  0  0  0  0  0  0  0  0  0
   23.9712    6.1703   10.5661 O   0  0  0  0  0  0  0  0  0  0  0  0
   20.0244   -1.4973    7.9686 C   0  0  0  0  0  0  0  0  0  0  0  0
   21.4909   -1.4746    7.5809 C   0  0  0  0  0  0  0  0  0  0  0  0
   19.8958   -0.1470    8.6628 C   0  0  0  0  0  0  0  0  0  0  0  0
   22.0919   -1.1197    8.9261 C   0  0  0  0  0  0  0  0  0  0  0  0
   21.1859   -0.0331    9.3916 N   0  0  0  0  0  0  0  0  0  0  0  0
   21.0178   -0.5294   12.0042 N   0  0  0  0  0  0  0  0  0  0  0  0
   21.5592   -1.3510   11.9715 H   0  0  0  0  0  0  0  0  0  0  0  0
   18.7356   -1.5871   11.6267 O   0  0  0  0  0  0  0  0  0  0  0  0
   18.7149    0.7528   12.4307 O   0  0  0  0  0  0  0  0  0  0  0  0
   19.4566   -0.5820   12.5144 S   0  0  0  0  0  0  0  0  0  0  0  0
   18.3183   -1.6157   16.2192 C   0  0  0  0  0  0  0  0  0  0  0  0
   20.6894   -2.0220   16.0587 C   0  0  0  0  0  0  0  0  0  0  0  0
   18.3039   -1.1638   14.9044 C   0  0  0  0  0  0  0  0  0  0  0  0
   20.6743   -1.5723   14.7439 C   0  0  0  0  0  0  0  0  0  0  0  0
   19.5117   -2.0361   16.7980 C   0  0  0  0  0  0  0  0  0  0  0  0
   19.4867   -1.1463   14.1699 C   0  0  0  0  0  0  0  0  0  0  0  0
   19.5346   -2.4747   18.1174 C   0  0  0  0  0  0  0  0  0  0  0  0
   21.5994   -1.9780   19.3735 C   0  0  0  0  0  0  0  0  0  0  0  0
   19.4007   -1.2540   20.2820 C   0  0  0  0  0  0  0  0  0  0  0  0
   20.2198   -1.4485   19.0061 C   0  0  0  0  0  0  0  0  0  0  0  0
 15 16  1  0  0  0
 15 17  1  0  0  0
 16 18  1  0  0  0
 17 19  1  0  0  0
 18 19  1  0  0  0
 19  6  1  0  0  0
  6  4  2  0  0  0
  6  5  1  0  0  0
  4 10  1  0  0  0
  2 12  1  0  0  0
 20  5  1  0  0  0
 20 24  1  0  0  0
  5  3  2  0  0  0
 22 24  2  0  0  0
 10 12  1  0  0  0
 10  9  2  0  0  0
 12  8  1  0  0  0
 27 25  2  0  0  0
 27 30  1  0  0  0
 24 30  1  0  0  0
 24 23  2  0  0  0
 25 29  1  0  0  0
  3  9  1  0  0  0
  9 11  1  0  0  0
 30 28  2  0  0  0
  8 14  2  0  0  0
  8  7  1  0  0  0
 11  7  1  0  0  0
 11  1  1  0  0  0
 29 31  1  0  0  0
 29 26  2  0  0  0
  7 13  2  0  0  0
 28 26  1  0  0  0
 32 34  1  0  0  0
 31 34  1  0  0  0
 34 33  1  0  0  0
 20 21  1  0  0  0
M  END
> <minimizedAffinity>
-6.52915

$$$$
5OV8_AXN_A_801


 34 37  0  0  0  0  0  0  0  0999 V2000
   23.9019    2.8438   15.6097 C   0  0  0  0  0  0  0  0  0  0  0  0
   22.5212    4.2678   10.2786 C   0  0  0  0  0  0  0  0  0  0  0  0
   22.9868    0.9241   13.8031 C   0  0  0  0  0  0  0  0  0  0  0  0
   22.3047    1.6439   11.1782 C   0  0  0  0  0  0  0  0  0  0  0  0
   22.5293   -0.0290   12.9049 C   0  0  0  0  0  0  0  0  0  0  0  0
   22.1887    0.3319   11.6059 C   0  0  0  0  0  0  0  0  0  0  0  0
   23.6493    4.4690   13.8134 C   0  0  0  0  0  0  0  0  0  0  0  0
   23.3149    4.8207   12.5097 C   0  0  0  0  0  0  0  0  0  0  0  0
   23.1015    2.2548   13.3719 C   0  0  0  0  0  0  0  0  0  0  0  0
   22.7648    2.6098   12.0661 C   0  0  0  0  0  0  0  0  0  0  0  0
   23.5405    3.1952   14.2189 N   0  0  0  0  0  0  0  0  0  0  0  0
   22.8705    3.8847   11.6591 N   0  0  0  0  0  0  0  0  0  0  0  0
   24.0544    5.3149   14.6105 O   0  0  0  0  0  0  0  0  0  0  0  0
   23.4131    5.9836   12.1258 O   0  0  0  0  0  0  0  0  0  0  0  0
   20.5915   -2.0792    9.3628 C   0  0  0  0  0  0  0  0  0  0  0  0
   21.9757   -1.8474    8.7869 C   0  0  0  0  0  0  0  0  0  0  0  0
   20.4054   -0.8010   10.1711 C   0  0  0  0  0  0  0  0  0  0  0  0
   22.7151   -1.5024   10.0640 C   0  0  0  0  0  0  0  0  0  0  0  0
   21.7632   -0.5697   10.7290 N   0  0  0  0  0  0  0  0  0  0  0  0
   22.3672   -1.3241   13.2121 N   0  0  0  0  0  0  0  0  0  0  0  0
   22.5066   -2.0195   12.5293 H   0  0  0  0  0  0  0  0  0  0  0  0
   22.6788   -0.7976   15.6810 O   0  0  0  0  0  0  0  0  0  0  0  0
   22.2708   -3.1758   15.1334 O   0  0  0  0  0  0  0  0  0  0  0  0
   21.9330   -1.7364   14.7424 S   0  0  0  0  0  0  0  0  0  0  0  0
   18.1900   -1.5437   16.1714 C   0  0  0  0  0  0  0  0  0  0  0  0
   18.1248   -0.7775   13.8863 C   0  0  0  0  0  0  0  0  0  0  0  0
   19.5600   -1.7553   16.0643 C   0  0  0  0  0  0  0  0  0  0  0  0
   19.4945   -0.9871   13.7803 C   0  0  0  0  0  0  0  0  0  0  0  0
   17.4722   -1.0635   15.0805 C   0  0  0  0  0  0  0  0  0  0  0  0
   20.2081   -1.4728   14.8647 C   0  0  0  0  0  0  0  0  0  0  0  0
   16.0994   -0.8644   15.1774 C   0  0  0  0  0  0  0  0  0  0  0  0
   15.6753    1.3549   14.1859 C   0  0  0  0  0  0  0  0  0  0  0  0
   14.1157   -0.5234   13.7137 C   0  0  0  0  0  0  0  0  0  0  0  0
   15.5789   -0.1451   13.9427 C   0  0  0  0  0  0  0  0  0  0  0  0
 15 16  1  0  0  0
 15 17  1  0  0  0
 16 18  1  0  0  0
 17 19  1  0  0  0
 18 19  1  0  0  0
 19  6  1  0  0  0
  6  4  2  0  0  0
  6  5  1  0  0  0
  4 10  1  0  0  0
  2 12  1  0  0  0
 20  5  1  0  0  0
 20 24  1  0  0  0
  5  3  2  0  0  0
 22 24  2  0  0  0
 10 12  1  0  0  0
 10  9  2  0  0  0
 12  8  1  0  0  0
 27 25  2  0  0  0
 27 30  1  0  0  0
 24 30  1  0  0  0
 24 23  2  0  0  0
 25 29  1  0  0  0
  3  9  1  0  0  0
  9 11  1  0  0  0
 30 28  2  0  0  0
  8 14  2  0  0  0
  8  7  1  0  0  0
 11  7  1  0  0  0
 11  1  1  0  0  0
 29 31  1  0  0  0
 29 26  2  0  0  0
  7 13  2  0  0  0
 28 26  1  0  0  0
 32 34  1  0  0  0
 31 34  1  0  0  0
 34 33  1  0  0  0
 20 21  1  0  0  0
M  END
> <minimizedAffinity>
-6.46039

$$$$
