1QY2_IPZ_A_300


 11 11  0  0  0  0  0  0  0  0999 V2000
   49.4402   24.3917   40.1109 C   0  0  0  0  0  0  0  0  0  0  0  0
   49.9366   25.1402   39.1186 N   0  0  0  0  0  0  0  0  0  0  0  0
   51.2238   25.1449   38.8073 C   0  0  0  0  0  0  0  0  0  0  0  0
   52.1041   24.3539   39.5400 C   0  0  0  0  0  0  0  0  0  0  0  0
   51.6364   23.6074   40.5293 N   0  0  0  0  0  0  0  0  0  0  0  0
   50.3304   23.5992   40.8323 C   0  0  0  0  0  0  0  0  0  0  0  0
   47.1183   23.5531   39.5355 C   0  0  0  0  0  0  0  0  0  0  0  0
   47.9536   24.4112   40.4900 C   0  0  0  0  0  0  0  0  0  0  0  0
   47.4393   25.8499   40.4851 C   0  0  0  0  0  0  0  0  0  0  0  0
   49.8101   22.8269   41.8253 O   0  0  0  0  0  0  0  0  0  0  0  0
   50.6987   21.8615   42.4010 C   0  0  0  0  0  0  0  0  0  0  0  0
  7  8  1  0  0  0
  8  9  1  0  0  0
  8  1  1  0  0  0
  1  2  2  0  0  0
  1  6  1  0  0  0
  2  3  1  0  0  0
  3  4  2  0  0  0
  4  5  1  0  0  0
  5  6  2  0  0  0
  6 10  1  0  0  0
 10 11  1  0  0  0
M  END
> <minimizedAffinity>
-5.65208

$$$$
1QY2_IPZ_A_300


 11 11  0  0  0  0  0  0  0  0999 V2000
   50.3650   23.5478   41.0308 C   0  0  0  0  0  0  0  0  0  0  0  0
   49.0483   23.4285   41.2394 N   0  0  0  0  0  0  0  0  0  0  0  0
   48.1509   24.0537   40.4926 C   0  0  0  0  0  0  0  0  0  0  0  0
   48.5822   24.8767   39.4562 C   0  0  0  0  0  0  0  0  0  0  0  0
   49.8808   25.0131   39.2331 N   0  0  0  0  0  0  0  0  0  0  0  0
   50.7838   24.3688   39.9861 C   0  0  0  0  0  0  0  0  0  0  0  0
   51.8062   21.4859   41.3421 C   0  0  0  0  0  0  0  0  0  0  0  0
   51.4038   22.8472   41.9164 C   0  0  0  0  0  0  0  0  0  0  0  0
   50.8450   22.6744   43.3279 C   0  0  0  0  0  0  0  0  0  0  0  0
   52.1245   24.4653   39.7712 O   0  0  0  0  0  0  0  0  0  0  0  0
   52.6103   23.8759   38.5589 C   0  0  0  0  0  0  0  0  0  0  0  0
  7  8  1  0  0  0
  8  9  1  0  0  0
  8  1  1  0  0  0
  1  2  2  0  0  0
  1  6  1  0  0  0
  2  3  1  0  0  0
  3  4  2  0  0  0
  4  5  1  0  0  0
  5  6  2  0  0  0
  6 10  1  0  0  0
 10 11  1  0  0  0
M  END
> <minimizedAffinity>
-5.62372

$$$$
1QY2_IPZ_A_300


 11 11  0  0  0  0  0  0  0  0999 V2000
   50.0482   23.8622   40.6831 C   0  0  0  0  0  0  0  0  0  0  0  0
   49.7949   23.0576   41.7223 N   0  0  0  0  0  0  0  0  0  0  0  0
   50.5837   22.0440   42.0451 C   0  0  0  0  0  0  0  0  0  0  0  0
   51.7153   21.7901   41.2754 C   0  0  0  0  0  0  0  0  0  0  0  0
   51.9844   22.5709   40.2397 N   0  0  0  0  0  0  0  0  0  0  0  0
   51.1874   23.6020   39.9247 C   0  0  0  0  0  0  0  0  0  0  0  0
   48.6848   25.8304   41.5156 C   0  0  0  0  0  0  0  0  0  0  0  0
   49.1166   25.0170   40.2921 C   0  0  0  0  0  0  0  0  0  0  0  0
   47.8877   24.4661   39.5707 C   0  0  0  0  0  0  0  0  0  0  0  0
   51.4451   24.4399   38.8833 O   0  0  0  0  0  0  0  0  0  0  0  0
   52.4073   23.9770   37.9279 C   0  0  0  0  0  0  0  0  0  0  0  0
  7  8  1  0  0  0
  8  9  1  0  0  0
  8  1  1  0  0  0
  1  2  2  0  0  0
  1  6  1  0  0  0
  2  3  1  0  0  0
  3  4  2  0  0  0
  4  5  1  0  0  0
  5  6  2  0  0  0
  6 10  1  0  0  0
 10 11  1  0  0  0
M  END
> <minimizedAffinity>
-5.54880

$$$$
1QY2_IPZ_A_300


 11 11  0  0  0  0  0  0  0  0999 V2000
   50.6290   23.4460   40.7040 C   0  0  0  0  0  0  0  0  0  0  0  0
   51.7043   23.9811   40.1132 N   0  0  0  0  0  0  0  0  0  0  0  0
   51.6122   24.9340   39.1982 C   0  0  0  0  0  0  0  0  0  0  0  0
   50.3546   25.3963   38.8212 C   0  0  0  0  0  0  0  0  0  0  0  0
   49.2755   24.8791   39.3895 N   0  0  0  0  0  0  0  0  0  0  0  0
   49.3764   23.9220   40.3230 C   0  0  0  0  0  0  0  0  0  0  0  0
   50.8653   22.8757   43.1625 C   0  0  0  0  0  0  0  0  0  0  0  0
   50.7364   22.3205   41.7412 C   0  0  0  0  0  0  0  0  0  0  0  0
   51.9366   21.4328   41.4161 C   0  0  0  0  0  0  0  0  0  0  0  0
   48.2919   23.3845   40.9461 O   0  0  0  0  0  0  0  0  0  0  0  0
   47.3180   22.7703   40.0933 C   0  0  0  0  0  0  0  0  0  0  0  0
  7  8  1  0  0  0
  8  9  1  0  0  0
  8  1  1  0  0  0
  1  2  2  0  0  0
  1  6  1  0  0  0
  2  3  1  0  0  0
  3  4  2  0  0  0
  4  5  1  0  0  0
  5  6  2  0  0  0
  6 10  1  0  0  0
 10 11  1  0  0  0
M  END
> <minimizedAffinity>
-5.37747

$$$$
1QY2_IPZ_A_300


 11 11  0  0  0  0  0  0  0  0999 V2000
   51.1141   23.1245   40.0771 C   0  0  0  0  0  0  0  0  0  0  0  0
   52.0908   22.3784   40.6071 N   0  0  0  0  0  0  0  0  0  0  0  0
   51.9189   21.6583   41.7052 C   0  0  0  0  0  0  0  0  0  0  0  0
   50.6837   21.6792   42.3464 C   0  0  0  0  0  0  0  0  0  0  0  0
   49.7029   22.4133   41.8424 N   0  0  0  0  0  0  0  0  0  0  0  0
   49.8805   23.1316   40.7243 C   0  0  0  0  0  0  0  0  0  0  0  0
   52.5908   23.5712   38.0658 C   0  0  0  0  0  0  0  0  0  0  0  0
   51.3245   23.9822   38.8224 C   0  0  0  0  0  0  0  0  0  0  0  0
   51.4050   25.4568   39.2138 C   0  0  0  0  0  0  0  0  0  0  0  0
   48.8894   23.8778   40.1638 O   0  0  0  0  0  0  0  0  0  0  0  0
   47.6035   23.2515   40.0784 C   0  0  0  0  0  0  0  0  0  0  0  0
  7  8  1  0  0  0
  8  9  1  0  0  0
  8  1  1  0  0  0
  1  2  2  0  0  0
  1  6  1  0  0  0
  2  3  1  0  0  0
  3  4  2  0  0  0
  4  5  1  0  0  0
  5  6  2  0  0  0
  6 10  1  0  0  0
 10 11  1  0  0  0
M  END
> <minimizedAffinity>
-4.85772

$$$$
1QY2_IPZ_A_300


 11 11  0  0  0  0  0  0  0  0999 V2000
   50.8738   23.8143   39.5322 C   0  0  0  0  0  0  0  0  0  0  0  0
   50.2201   24.9426   39.2305 N   0  0  0  0  0  0  0  0  0  0  0  0
   49.0462   25.2478   39.7622 C   0  0  0  0  0  0  0  0  0  0  0  0
   48.4558   24.3643   40.6612 C   0  0  0  0  0  0  0  0  0  0  0  0
   49.0824   23.2393   40.9723 N   0  0  0  0  0  0  0  0  0  0  0  0
   50.2758   22.9416   40.4385 C   0  0  0  0  0  0  0  0  0  0  0  0
   53.3946   24.0394   39.6749 C   0  0  0  0  0  0  0  0  0  0  0  0
   52.2191   23.4480   38.8917 C   0  0  0  0  0  0  0  0  0  0  0  0
   52.2531   23.9417   37.4462 C   0  0  0  0  0  0  0  0  0  0  0  0
   50.9602   21.8076   40.7529 O   0  0  0  0  0  0  0  0  0  0  0  0
   51.4048   21.6984   42.1106 C   0  0  0  0  0  0  0  0  0  0  0  0
  7  8  1  0  0  0
  8  9  1  0  0  0
  8  1  1  0  0  0
  1  2  2  0  0  0
  1  6  1  0  0  0
  2  3  1  0  0  0
  3  4  2  0  0  0
  4  5  1  0  0  0
  5  6  2  0  0  0
  6 10  1  0  0  0
 10 11  1  0  0  0
M  END
> <minimizedAffinity>
-4.77031

$$$$
1QY2_IPZ_A_300


 11 11  0  0  0  0  0  0  0  0999 V2000
   48.8074   24.6312   41.2411 C   0  0  0  0  0  0  0  0  0  0  0  0
   48.8992   25.3685   42.3544 N   0  0  0  0  0  0  0  0  0  0  0  0
   47.9492   26.2118   42.7287 C   0  0  0  0  0  0  0  0  0  0  0  0
   46.8132   26.3526   41.9368 C   0  0  0  0  0  0  0  0  0  0  0  0
   46.7018   25.6359   40.8282 N   0  0  0  0  0  0  0  0  0  0  0  0
   47.6625   24.7760   40.4606 C   0  0  0  0  0  0  0  0  0  0  0  0
   50.6322   23.0394   41.9905 C   0  0  0  0  0  0  0  0  0  0  0  0
   49.9229   23.6777   40.7929 C   0  0  0  0  0  0  0  0  0  0  0  0
   50.9317   24.4343   39.9304 C   0  0  0  0  0  0  0  0  0  0  0  0
   47.5718   24.0054   39.3421 O   0  0  0  0  0  0  0  0  0  0  0  0
   46.7310   22.8496   39.4423 C   0  0  0  0  0  0  0  0  0  0  0  0
  7  8  1  0  0  0
  8  9  1  0  0  0
  8  1  1  0  0  0
  1  2  2  0  0  0
  1  6  1  0  0  0
  2  3  1  0  0  0
  3  4  2  0  0  0
  4  5  1  0  0  0
  5  6  2  0  0  0
  6 10  1  0  0  0
 10 11  1  0  0  0
M  END
> <minimizedAffinity>
-4.67992

$$$$
1QY2_IPZ_A_300


 11 11  0  0  0  0  0  0  0  0999 V2000
   51.3381   23.5017   39.9600 C   0  0  0  0  0  0  0  0  0  0  0  0
   52.2793   22.9375   39.1938 N   0  0  0  0  0  0  0  0  0  0  0  0
   52.6704   23.4653   38.0439 C   0  0  0  0  0  0  0  0  0  0  0  0
   52.0796   24.6450   37.6005 C   0  0  0  0  0  0  0  0  0  0  0  0
   51.1429   25.2198   38.3403 N   0  0  0  0  0  0  0  0  0  0  0  0
   50.7593   24.6858   39.5087 C   0  0  0  0  0  0  0  0  0  0  0  0
   51.8432   21.8047   41.7739 C   0  0  0  0  0  0  0  0  0  0  0  0
   50.8645   22.8723   41.2767 C   0  0  0  0  0  0  0  0  0  0  0  0
   49.4771   22.2614   41.0862 C   0  0  0  0  0  0  0  0  0  0  0  0
   49.8183   25.2608   40.3069 O   0  0  0  0  0  0  0  0  0  0  0  0
   48.5377   25.4871   39.7053 C   0  0  0  0  0  0  0  0  0  0  0  0
  7  8  1  0  0  0
  8  9  1  0  0  0
  8  1  1  0  0  0
  1  2  2  0  0  0
  1  6  1  0  0  0
  2  3  1  0  0  0
  3  4  2  0  0  0
  4  5  1  0  0  0
  5  6  2  0  0  0
  6 10  1  0  0  0
 10 11  1  0  0  0
M  END
> <minimizedAffinity>
-4.63104

$$$$
1QY2_IPZ_A_300


 11 11  0  0  0  0  0  0  0  0999 V2000
   49.4257   24.5357   41.1518 C   0  0  0  0  0  0  0  0  0  0  0  0
   48.9216   24.9183   42.3311 N   0  0  0  0  0  0  0  0  0  0  0  0
   48.0385   25.8989   42.4422 C   0  0  0  0  0  0  0  0  0  0  0  0
   47.6201   26.5710   41.2973 C   0  0  0  0  0  0  0  0  0  0  0  0
   48.1081   26.2123   40.1192 N   0  0  0  0  0  0  0  0  0  0  0  0
   48.9939   25.2115   40.0127 C   0  0  0  0  0  0  0  0  0  0  0  0
   49.8754   22.1560   40.4033 C   0  0  0  0  0  0  0  0  0  0  0  0
   50.4719   23.4202   41.0286 C   0  0  0  0  0  0  0  0  0  0  0  0
   51.0482   23.0996   42.4068 C   0  0  0  0  0  0  0  0  0  0  0  0
   49.4982   24.7993   38.8173 O   0  0  0  0  0  0  0  0  0  0  0  0
   50.5371   25.6133   38.2596 C   0  0  0  0  0  0  0  0  0  0  0  0
  7  8  1  0  0  0
  8  9  1  0  0  0
  8  1  1  0  0  0
  1  2  2  0  0  0
  1  6  1  0  0  0
  2  3  1  0  0  0
  3  4  2  0  0  0
  4  5  1  0  0  0
  5  6  2  0  0  0
  6 10  1  0  0  0
 10 11  1  0  0  0
M  END
> <minimizedAffinity>
-4.48474

$$$$
1QY2_IPZ_A_300


 11 11  0  0  0  0  0  0  0  0999 V2000
   49.2333   24.5579   40.8345 C   0  0  0  0  0  0  0  0  0  0  0  0
   50.3966   25.1200   40.4850 N   0  0  0  0  0  0  0  0  0  0  0  0
   51.4036   24.4188   39.9870 C   0  0  0  0  0  0  0  0  0  0  0  0
   51.2618   23.0434   39.8270 C   0  0  0  0  0  0  0  0  0  0  0  0
   50.1207   22.4642   40.1695 N   0  0  0  0  0  0  0  0  0  0  0  0
   49.1013   23.1817   40.6631 C   0  0  0  0  0  0  0  0  0  0  0  0
   47.5527   26.4179   40.4581 C   0  0  0  0  0  0  0  0  0  0  0  0
   48.0790   25.3673   41.4401 C   0  0  0  0  0  0  0  0  0  0  0  0
   48.5441   26.0433   42.7289 C   0  0  0  0  0  0  0  0  0  0  0  0
   47.9063   22.6253   41.0028 O   0  0  0  0  0  0  0  0  0  0  0  0
   46.9865   22.4069   39.9262 C   0  0  0  0  0  0  0  0  0  0  0  0
  7  8  1  0  0  0
  8  9  1  0  0  0
  8  1  1  0  0  0
  1  2  2  0  0  0
  1  6  1  0  0  0
  2  3  1  0  0  0
  3  4  2  0  0  0
  4  5  1  0  0  0
  5  6  2  0  0  0
  6 10  1  0  0  0
 10 11  1  0  0  0
M  END
> <minimizedAffinity>
-4.40659

$$$$
