3FQE_P5C_A_1


 31 33  0  0  0  0  0  0  0  0999 V2000
    3.4849    2.6269   13.5748 C   0  0  0  0  0  0  0  0  0  0  0  0
    5.0235    1.8968   15.1739 C   0  0  0  0  0  0  0  0  0  0  0  0
    2.9557    1.3784   13.5352 N   0  0  0  0  0  0  0  0  0  0  0  0
    4.4872    0.6058   15.1505 C   0  0  0  0  0  0  0  0  0  0  0  0
    3.4219    0.3506   14.3010 C   0  0  0  0  0  0  0  0  0  0  0  0
    4.5240    2.8787   14.3975 N   0  0  0  0  0  0  0  0  0  0  0  0
    5.0710   -0.4664   16.0364 C   0  0  0  0  0  0  0  0  0  0  0  0
    4.3542   -1.2872   16.5996 O   0  0  0  0  0  0  0  0  0  0  0  0
    6.3893   -0.4954   16.1941 N   0  0  0  0  0  0  0  0  0  0  0  0
    6.9545    0.1687   15.7370 H   0  0  0  0  0  0  0  0  0  0  0  0
    6.8015   -1.1809   16.7680 H   0  0  0  0  0  0  0  0  0  0  0  0
    2.8736   -0.9004   14.2525 N   0  0  0  0  0  0  0  0  0  0  0  0
    3.5082   -1.6525   14.2208 H   0  0  0  0  0  0  0  0  0  0  0  0
    1.5467   -1.2292   14.2429 C   0  0  0  0  0  0  0  0  0  0  0  0
    0.5685   -0.4627   13.5970 C   0  0  0  0  0  0  0  0  0  0  0  0
   -1.1584   -1.9967   14.2936 C   0  0  0  0  0  0  0  0  0  0  0  0
   -0.1916   -2.7693   14.9338 C   0  0  0  0  0  0  0  0  0  0  0  0
   -0.7800   -0.8314   13.6193 C   0  0  0  0  0  0  0  0  0  0  0  0
    1.1501   -2.3859   14.9123 C   0  0  0  0  0  0  0  0  0  0  0  0
   -0.5955   -4.0369   15.6478 C   0  0  0  0  0  0  0  0  0  0  0  0
    2.9841    3.6197   12.7988 N   0  0  0  0  0  0  0  0  0  0  0  0
    3.5758    4.3641   12.5437 H   0  0  0  0  0  0  0  0  0  0  0  0
    1.6048    3.6291   12.3272 C   0  0  0  0  0  0  0  0  0  0  0  0
    0.6550    4.3581   13.3043 C   0  0  0  0  0  0  0  0  0  0  0  0
    1.0711    5.7402   13.5094 N   0  0  0  0  0  0  0  0  0  0  0  0
   -0.7792    4.3549   12.7744 C   0  0  0  0  0  0  0  0  0  0  0  0
   -0.8712    4.9173   11.3473 C   0  0  0  0  0  0  0  0  0  0  0  0
    0.1087    4.2619   10.3735 C   0  0  0  0  0  0  0  0  0  0  0  0
    1.5427    4.2308   10.9139 C   0  0  0  0  0  0  0  0  0  0  0  0
    1.0310    6.2426   12.6226 H   0  0  0  0  0  0  0  0  0  0  0  0
    2.0260    5.7582   13.8675 H   0  0  0  0  0  0  0  0  0  0  0  0
  1  3  2  0  0  0
  1  6  1  0  0  0
  1 21  1  0  0  0
  2  4  1  0  0  0
  2  6  2  0  0  0
  3  5  1  0  0  0
  4  5  2  0  0  0
  4  7  1  0  0  0
  5 12  1  0  0  0
  7  8  2  0  0  0
  7  9  1  0  0  0
 14 15  2  0  0  0
 14 19  1  0  0  0
 14 12  1  0  0  0
 15 18  1  0  0  0
 16 17  1  0  0  0
 16 18  2  0  0  0
 17 19  2  0  0  0
 17 20  1  0  0  0
 21 23  1  0  0  0
 23 24  1  0  0  0
 23 29  1  0  0  0
 24 25  1  0  0  0
 24 26  1  0  0  0
 26 27  1  0  0  0
 27 28  1  0  0  0
 28 29  1  0  0  0
  9 10  1  0  0  0
  9 11  1  0  0  0
 12 13  1  0  0  0
 21 22  1  0  0  0
 25 30  1  0  0  0
 25 31  1  0  0  0
M  END
> <minimizedAffinity>
-10.17290

$$$$
3FQE_P5C_A_1


 31 33  0  0  0  0  0  0  0  0999 V2000
   -0.8677    0.4419   12.9099 C   0  0  0  0  0  0  0  0  0  0  0  0
   -1.8014   -1.3686   14.0535 C   0  0  0  0  0  0  0  0  0  0  0  0
    0.3698   -0.0176   13.2226 N   0  0  0  0  0  0  0  0  0  0  0  0
   -0.5339   -1.8600   14.3802 C   0  0  0  0  0  0  0  0  0  0  0  0
    0.5778   -1.1543   13.9470 C   0  0  0  0  0  0  0  0  0  0  0  0
   -1.9524   -0.2399   13.3326 N   0  0  0  0  0  0  0  0  0  0  0  0
   -0.4048   -3.1285   15.1862 C   0  0  0  0  0  0  0  0  0  0  0  0
    0.4549   -3.2475   16.0531 O   0  0  0  0  0  0  0  0  0  0  0  0
   -1.2494   -4.1202   14.9276 N   0  0  0  0  0  0  0  0  0  0  0  0
   -1.9353   -4.0132   14.2294 H   0  0  0  0  0  0  0  0  0  0  0  0
   -1.1898   -4.9623   15.4340 H   0  0  0  0  0  0  0  0  0  0  0  0
    1.8319   -1.6061   14.2489 N   0  0  0  0  0  0  0  0  0  0  0  0
    2.0045   -2.5594   14.0742 H   0  0  0  0  0  0  0  0  0  0  0  0
    2.8745   -0.8884   14.7653 C   0  0  0  0  0  0  0  0  0  0  0  0
    3.6180   -1.3027   15.8778 C   0  0  0  0  0  0  0  0  0  0  0  0
    4.9974    0.6725   15.7487 C   0  0  0  0  0  0  0  0  0  0  0  0
    4.2677    1.0899   14.6374 C   0  0  0  0  0  0  0  0  0  0  0  0
    4.6722   -0.5330   16.3786 C   0  0  0  0  0  0  0  0  0  0  0  0
    3.2115    0.3174   14.1523 C   0  0  0  0  0  0  0  0  0  0  0  0
    4.6280    2.3826   13.9452 C   0  0  0  0  0  0  0  0  0  0  0  0
   -1.0258    1.5747   12.1816 N   0  0  0  0  0  0  0  0  0  0  0  0
   -1.8797    1.7204   11.7139 H   0  0  0  0  0  0  0  0  0  0  0  0
    0.0180    2.5855   12.0636 C   0  0  0  0  0  0  0  0  0  0  0  0
   -0.0039    3.2947   10.6908 C   0  0  0  0  0  0  0  0  0  0  0  0
   -1.2882    3.9427   10.4539 N   0  0  0  0  0  0  0  0  0  0  0  0
    1.0978    4.3516   10.6058 C   0  0  0  0  0  0  0  0  0  0  0  0
    1.0371    5.3474   11.7746 C   0  0  0  0  0  0  0  0  0  0  0  0
    0.9865    4.6708   13.1449 C   0  0  0  0  0  0  0  0  0  0  0  0
   -0.0932    3.5858   13.2256 C   0  0  0  0  0  0  0  0  0  0  0  0
   -1.4436    4.6590   11.1632 H   0  0  0  0  0  0  0  0  0  0  0  0
   -2.0336    3.2481   10.5032 H   0  0  0  0  0  0  0  0  0  0  0  0
  1  3  2  0  0  0
  1  6  1  0  0  0
  1 21  1  0  0  0
  2  4  1  0  0  0
  2  6  2  0  0  0
  3  5  1  0  0  0
  4  5  2  0  0  0
  4  7  1  0  0  0
  5 12  1  0  0  0
  7  8  2  0  0  0
  7  9  1  0  0  0
 14 15  2  0  0  0
 14 19  1  0  0  0
 14 12  1  0  0  0
 15 18  1  0  0  0
 16 17  1  0  0  0
 16 18  2  0  0  0
 17 19  2  0  0  0
 17 20  1  0  0  0
 21 23  1  0  0  0
 23 24  1  0  0  0
 23 29  1  0  0  0
 24 25  1  0  0  0
 24 26  1  0  0  0
 26 27  1  0  0  0
 27 28  1  0  0  0
 28 29  1  0  0  0
  9 10  1  0  0  0
  9 11  1  0  0  0
 12 13  1  0  0  0
 21 22  1  0  0  0
 25 30  1  0  0  0
 25 31  1  0  0  0
M  END
> <minimizedAffinity>
-8.90568

$$$$
3FQE_P5C_A_1


 31 33  0  0  0  0  0  0  0  0999 V2000
   -1.1360    0.3402   13.0153 C   0  0  0  0  0  0  0  0  0  0  0  0
   -0.9778    2.6431   12.6564 C   0  0  0  0  0  0  0  0  0  0  0  0
    0.2122    0.2841   13.1548 N   0  0  0  0  0  0  0  0  0  0  0  0
    0.4122    2.6052   12.8029 C   0  0  0  0  0  0  0  0  0  0  0  0
    1.0142    1.3830   13.0587 C   0  0  0  0  0  0  0  0  0  0  0  0
   -1.7257    1.5270   12.7627 N   0  0  0  0  0  0  0  0  0  0  0  0
    1.2155    3.8759   12.6803 C   0  0  0  0  0  0  0  0  0  0  0  0
    2.0022    4.0452   11.7544 O   0  0  0  0  0  0  0  0  0  0  0  0
    1.0499    4.8103   13.6094 N   0  0  0  0  0  0  0  0  0  0  0  0
    0.4156    4.6633   14.3479 H   0  0  0  0  0  0  0  0  0  0  0  0
    1.5614    5.6501   13.5597 H   0  0  0  0  0  0  0  0  0  0  0  0
    2.3709    1.3095   13.2070 N   0  0  0  0  0  0  0  0  0  0  0  0
    2.9081    1.7999   12.5436 H   0  0  0  0  0  0  0  0  0  0  0  0
    3.0689    0.6343   14.1692 C   0  0  0  0  0  0  0  0  0  0  0  0
    2.6951   -0.6276   14.6485 C   0  0  0  0  0  0  0  0  0  0  0  0
    4.5766   -0.6618   16.1583 C   0  0  0  0  0  0  0  0  0  0  0  0
    4.9601    0.5907   15.6832 C   0  0  0  0  0  0  0  0  0  0  0  0
    3.4338   -1.2796   15.6404 C   0  0  0  0  0  0  0  0  0  0  0  0
    4.2094    1.2357   14.6994 C   0  0  0  0  0  0  0  0  0  0  0  0
    6.2032    1.2519   16.2285 C   0  0  0  0  0  0  0  0  0  0  0  0
   -1.8941   -0.7787   13.1250 N   0  0  0  0  0  0  0  0  0  0  0  0
   -2.4101   -1.0785   12.3420 H   0  0  0  0  0  0  0  0  0  0  0  0
   -1.9756   -1.5555   14.3559 C   0  0  0  0  0  0  0  0  0  0  0  0
   -3.3653   -2.2027   14.5510 C   0  0  0  0  0  0  0  0  0  0  0  0
   -3.6956   -3.0847   13.4381 N   0  0  0  0  0  0  0  0  0  0  0  0
   -3.4115   -3.0144   15.8459 C   0  0  0  0  0  0  0  0  0  0  0  0
   -2.2747   -4.0454   15.9247 C   0  0  0  0  0  0  0  0  0  0  0  0
   -0.8928   -3.4446   15.6654 C   0  0  0  0  0  0  0  0  0  0  0  0
   -0.8488   -2.6009   14.3864 C   0  0  0  0  0  0  0  0  0  0  0  0
   -3.0159   -3.8438   13.3925 H   0  0  0  0  0  0  0  0  0  0  0  0
   -3.6731   -2.5554   12.5665 H   0  0  0  0  0  0  0  0  0  0  0  0
  1  3  2  0  0  0
  1  6  1  0  0  0
  1 21  1  0  0  0
  2  4  1  0  0  0
  2  6  2  0  0  0
  3  5  1  0  0  0
  4  5  2  0  0  0
  4  7  1  0  0  0
  5 12  1  0  0  0
  7  8  2  0  0  0
  7  9  1  0  0  0
 14 15  2  0  0  0
 14 19  1  0  0  0
 14 12  1  0  0  0
 15 18  1  0  0  0
 16 17  1  0  0  0
 16 18  2  0  0  0
 17 19  2  0  0  0
 17 20  1  0  0  0
 21 23  1  0  0  0
 23 24  1  0  0  0
 23 29  1  0  0  0
 24 25  1  0  0  0
 24 26  1  0  0  0
 26 27  1  0  0  0
 27 28  1  0  0  0
 28 29  1  0  0  0
  9 10  1  0  0  0
  9 11  1  0  0  0
 12 13  1  0  0  0
 21 22  1  0  0  0
 25 30  1  0  0  0
 25 31  1  0  0  0
M  END
> <minimizedAffinity>
-8.73614

$$$$
3FQE_P5C_A_1


 31 33  0  0  0  0  0  0  0  0999 V2000
   -0.9204    0.3979   13.1175 C   0  0  0  0  0  0  0  0  0  0  0  0
   -1.7665   -1.5424   14.1059 C   0  0  0  0  0  0  0  0  0  0  0  0
    0.3215    0.0554   13.5426 N   0  0  0  0  0  0  0  0  0  0  0  0
   -0.4929   -1.9141   14.5471 C   0  0  0  0  0  0  0  0  0  0  0  0
    0.5755   -1.0819   14.2513 C   0  0  0  0  0  0  0  0  0  0  0  0
   -1.9635   -0.4074   13.4063 N   0  0  0  0  0  0  0  0  0  0  0  0
   -0.3112   -3.1937   15.3250 C   0  0  0  0  0  0  0  0  0  0  0  0
    0.6635   -3.9161   15.1438 O   0  0  0  0  0  0  0  0  0  0  0  0
   -1.2423   -3.5206   16.2138 N   0  0  0  0  0  0  0  0  0  0  0  0
   -2.0201   -2.9329   16.3506 H   0  0  0  0  0  0  0  0  0  0  0  0
   -1.1546   -4.3507   16.7358 H   0  0  0  0  0  0  0  0  0  0  0  0
    1.8340   -1.4145   14.6677 N   0  0  0  0  0  0  0  0  0  0  0  0
    1.9805   -2.3608   14.8964 H   0  0  0  0  0  0  0  0  0  0  0  0
    2.9132   -0.5865   14.8036 C   0  0  0  0  0  0  0  0  0  0  0  0
    3.1923    0.4652   13.9216 C   0  0  0  0  0  0  0  0  0  0  0  0
    5.1683    1.0525   15.1752 C   0  0  0  0  0  0  0  0  0  0  0  0
    4.8954    0.0127   16.0617 C   0  0  0  0  0  0  0  0  0  0  0  0
    4.3129    1.2836   14.0933 C   0  0  0  0  0  0  0  0  0  0  0  0
    3.7788   -0.8032   15.8747 C   0  0  0  0  0  0  0  0  0  0  0  0
    5.8080   -0.2278   17.2403 C   0  0  0  0  0  0  0  0  0  0  0  0
   -1.1242    1.5365   12.4099 N   0  0  0  0  0  0  0  0  0  0  0  0
   -2.0105    1.6925   12.0106 H   0  0  0  0  0  0  0  0  0  0  0  0
   -0.0836    2.5390   12.2168 C   0  0  0  0  0  0  0  0  0  0  0  0
   -0.1008    3.1363   10.7916 C   0  0  0  0  0  0  0  0  0  0  0  0
   -1.3862    3.7579   10.4973 N   0  0  0  0  0  0  0  0  0  0  0  0
    0.9973    4.1876   10.6281 C   0  0  0  0  0  0  0  0  0  0  0  0
    0.9267    5.2733   11.7134 C   0  0  0  0  0  0  0  0  0  0  0  0
    0.8712    4.7080   13.1330 C   0  0  0  0  0  0  0  0  0  0  0  0
   -0.2048    3.6284   13.2947 C   0  0  0  0  0  0  0  0  0  0  0  0
   -1.5481    4.5279   11.1463 H   0  0  0  0  0  0  0  0  0  0  0  0
   -2.1293    3.0664   10.5981 H   0  0  0  0  0  0  0  0  0  0  0  0
  1  3  2  0  0  0
  1  6  1  0  0  0
  1 21  1  0  0  0
  2  4  1  0  0  0
  2  6  2  0  0  0
  3  5  1  0  0  0
  4  5  2  0  0  0
  4  7  1  0  0  0
  5 12  1  0  0  0
  7  8  2  0  0  0
  7  9  1  0  0  0
 14 15  2  0  0  0
 14 19  1  0  0  0
 14 12  1  0  0  0
 15 18  1  0  0  0
 16 17  1  0  0  0
 16 18  2  0  0  0
 17 19  2  0  0  0
 17 20  1  0  0  0
 21 23  1  0  0  0
 23 24  1  0  0  0
 23 29  1  0  0  0
 24 25  1  0  0  0
 24 26  1  0  0  0
 26 27  1  0  0  0
 27 28  1  0  0  0
 28 29  1  0  0  0
  9 10  1  0  0  0
  9 11  1  0  0  0
 12 13  1  0  0  0
 21 22  1  0  0  0
 25 30  1  0  0  0
 25 31  1  0  0  0
M  END
> <minimizedAffinity>
-8.68034

$$$$
3FQE_P5C_A_1


 31 33  0  0  0  0  0  0  0  0999 V2000
    0.6244    4.1823   13.1819 C   0  0  0  0  0  0  0  0  0  0  0  0
   -1.0676    2.5922   12.9251 C   0  0  0  0  0  0  0  0  0  0  0  0
    1.5449    3.1863   13.1519 N   0  0  0  0  0  0  0  0  0  0  0  0
   -0.1327    1.5533   12.8864 C   0  0  0  0  0  0  0  0  0  0  0  0
    1.2112    1.8720   13.0052 C   0  0  0  0  0  0  0  0  0  0  0  0
   -0.6847    3.8762   13.0702 N   0  0  0  0  0  0  0  0  0  0  0  0
   -0.5992    0.1286   12.7195 C   0  0  0  0  0  0  0  0  0  0  0  0
    0.0219   -0.6674   12.0228 O   0  0  0  0  0  0  0  0  0  0  0  0
   -1.7091   -0.2417   13.3478 N   0  0  0  0  0  0  0  0  0  0  0  0
   -2.1992    0.4060   13.9042 H   0  0  0  0  0  0  0  0  0  0  0  0
   -2.0418   -1.1638   13.2572 H   0  0  0  0  0  0  0  0  0  0  0  0
    2.1520    0.8812   12.9720 N   0  0  0  0  0  0  0  0  0  0  0  0
    2.3522    0.5011   12.0861 H   0  0  0  0  0  0  0  0  0  0  0  0
    2.8474    0.3563   14.0254 C   0  0  0  0  0  0  0  0  0  0  0  0
    2.4978   -0.8440   14.6570 C   0  0  0  0  0  0  0  0  0  0  0  0
    4.3470   -0.6281   16.1914 C   0  0  0  0  0  0  0  0  0  0  0  0
    4.7064    0.5638   15.5655 C   0  0  0  0  0  0  0  0  0  0  0  0
    3.2327   -1.3409   15.7377 C   0  0  0  0  0  0  0  0  0  0  0  0
    3.9596    1.0544   14.4935 C   0  0  0  0  0  0  0  0  0  0  0  0
    5.9192    1.3262   16.0426 C   0  0  0  0  0  0  0  0  0  0  0  0
    1.0039    5.4763   13.3238 N   0  0  0  0  0  0  0  0  0  0  0  0
    1.4025    5.7610   14.1778 H   0  0  0  0  0  0  0  0  0  0  0  0
    0.8452    6.4630   12.2624 C   0  0  0  0  0  0  0  0  0  0  0  0
    1.4248    5.9750   10.9155 C   0  0  0  0  0  0  0  0  0  0  0  0
    0.7824    4.7398   10.4831 N   0  0  0  0  0  0  0  0  0  0  0  0
    1.2341    7.0305    9.8258 C   0  0  0  0  0  0  0  0  0  0  0  0
   -0.2313    7.4755    9.7000 C   0  0  0  0  0  0  0  0  0  0  0  0
   -0.8528    7.8975   11.0317 C   0  0  0  0  0  0  0  0  0  0  0  0
   -0.6350    6.8589   12.1378 C   0  0  0  0  0  0  0  0  0  0  0  0
   -0.2131    4.9074   10.3371 H   0  0  0  0  0  0  0  0  0  0  0  0
    0.9052    4.0239   11.1992 H   0  0  0  0  0  0  0  0  0  0  0  0
  1  3  2  0  0  0
  1  6  1  0  0  0
  1 21  1  0  0  0
  2  4  1  0  0  0
  2  6  2  0  0  0
  3  5  1  0  0  0
  4  5  2  0  0  0
  4  7  1  0  0  0
  5 12  1  0  0  0
  7  8  2  0  0  0
  7  9  1  0  0  0
 14 15  2  0  0  0
 14 19  1  0  0  0
 14 12  1  0  0  0
 15 18  1  0  0  0
 16 17  1  0  0  0
 16 18  2  0  0  0
 17 19  2  0  0  0
 17 20  1  0  0  0
 21 23  1  0  0  0
 23 24  1  0  0  0
 23 29  1  0  0  0
 24 25  1  0  0  0
 24 26  1  0  0  0
 26 27  1  0  0  0
 27 28  1  0  0  0
 28 29  1  0  0  0
  9 10  1  0  0  0
  9 11  1  0  0  0
 12 13  1  0  0  0
 21 22  1  0  0  0
 25 30  1  0  0  0
 25 31  1  0  0  0
M  END
> <minimizedAffinity>
-8.61175

$$$$
3FQE_P5C_A_1


 31 33  0  0  0  0  0  0  0  0999 V2000
    1.5457   -1.7380   14.6741 C   0  0  0  0  0  0  0  0  0  0  0  0
   -0.4582   -2.7790   15.2723 C   0  0  0  0  0  0  0  0  0  0  0  0
    0.8573   -0.9322   13.8272 N   0  0  0  0  0  0  0  0  0  0  0  0
   -1.1847   -1.9535   14.4089 C   0  0  0  0  0  0  0  0  0  0  0  0
   -0.4953   -1.0058   13.6685 C   0  0  0  0  0  0  0  0  0  0  0  0
    0.8791   -2.6640   15.3938 N   0  0  0  0  0  0  0  0  0  0  0  0
   -2.6812   -2.1098   14.3022 C   0  0  0  0  0  0  0  0  0  0  0  0
   -3.4438   -1.2601   14.7506 O   0  0  0  0  0  0  0  0  0  0  0  0
   -3.1535   -3.2005   13.7095 N   0  0  0  0  0  0  0  0  0  0  0  0
   -2.5317   -3.8756   13.3535 H   0  0  0  0  0  0  0  0  0  0  0  0
   -4.1253   -3.3338   13.6263 H   0  0  0  0  0  0  0  0  0  0  0  0
   -1.1741   -0.1826   12.8144 N   0  0  0  0  0  0  0  0  0  0  0  0
   -1.6802   -0.6245   12.0948 H   0  0  0  0  0  0  0  0  0  0  0  0
   -1.2321    1.1829   12.8428 C   0  0  0  0  0  0  0  0  0  0  0  0
   -2.3280    1.9168   12.3713 C   0  0  0  0  0  0  0  0  0  0  0  0
   -1.2417    3.9935   12.9437 C   0  0  0  0  0  0  0  0  0  0  0  0
   -0.1494    3.2720   13.4211 C   0  0  0  0  0  0  0  0  0  0  0  0
   -2.3423    3.3142   12.4118 C   0  0  0  0  0  0  0  0  0  0  0  0
   -0.1430    1.8775   13.3669 C   0  0  0  0  0  0  0  0  0  0  0  0
    1.0327    4.0027   14.0117 C   0  0  0  0  0  0  0  0  0  0  0  0
    2.8907   -1.6244   14.8034 N   0  0  0  0  0  0  0  0  0  0  0  0
    3.4564   -2.3875   14.5449 H   0  0  0  0  0  0  0  0  0  0  0  0
    3.5326   -0.4175   15.3099 C   0  0  0  0  0  0  0  0  0  0  0  0
    4.5106   -0.7146   16.4689 C   0  0  0  0  0  0  0  0  0  0  0  0
    5.5564   -1.6402   16.0505 N   0  0  0  0  0  0  0  0  0  0  0  0
    5.1698    0.5712   16.9689 C   0  0  0  0  0  0  0  0  0  0  0  0
    5.8393    1.3593   15.8321 C   0  0  0  0  0  0  0  0  0  0  0  0
    4.9142    1.6070   14.6401 C   0  0  0  0  0  0  0  0  0  0  0  0
    4.2233    0.3273   14.1559 C   0  0  0  0  0  0  0  0  0  0  0  0
    6.1024   -1.2191   15.2989 H   0  0  0  0  0  0  0  0  0  0  0  0
    5.1312   -2.5058   15.7180 H   0  0  0  0  0  0  0  0  0  0  0  0
  1  3  2  0  0  0
  1  6  1  0  0  0
  1 21  1  0  0  0
  2  4  1  0  0  0
  2  6  2  0  0  0
  3  5  1  0  0  0
  4  5  2  0  0  0
  4  7  1  0  0  0
  5 12  1  0  0  0
  7  8  2  0  0  0
  7  9  1  0  0  0
 14 15  2  0  0  0
 14 19  1  0  0  0
 14 12  1  0  0  0
 15 18  1  0  0  0
 16 17  1  0  0  0
 16 18  2  0  0  0
 17 19  2  0  0  0
 17 20  1  0  0  0
 21 23  1  0  0  0
 23 24  1  0  0  0
 23 29  1  0  0  0
 24 25  1  0  0  0
 24 26  1  0  0  0
 26 27  1  0  0  0
 27 28  1  0  0  0
 28 29  1  0  0  0
  9 10  1  0  0  0
  9 11  1  0  0  0
 12 13  1  0  0  0
 21 22  1  0  0  0
 25 30  1  0  0  0
 25 31  1  0  0  0
M  END
> <minimizedAffinity>
-8.42557

$$$$
3FQE_P5C_A_1


 31 33  0  0  0  0  0  0  0  0999 V2000
    0.3733    2.7659   13.3634 C   0  0  0  0  0  0  0  0  0  0  0  0
    2.5591    2.4323   14.1172 C   0  0  0  0  0  0  0  0  0  0  0  0
    0.2275    1.4232   13.2368 N   0  0  0  0  0  0  0  0  0  0  0  0
    2.4250    1.0457   13.9984 C   0  0  0  0  0  0  0  0  0  0  0  0
    1.2185    0.5374   13.5427 C   0  0  0  0  0  0  0  0  0  0  0  0
    1.5470    3.2650   13.8032 N   0  0  0  0  0  0  0  0  0  0  0  0
    3.5792    0.1453   14.3625 C   0  0  0  0  0  0  0  0  0  0  0  0
    3.4529   -0.7469   15.1947 O   0  0  0  0  0  0  0  0  0  0  0  0
    4.7435    0.3485   13.7569 N   0  0  0  0  0  0  0  0  0  0  0  0
    4.8329    1.0678   13.0906 H   0  0  0  0  0  0  0  0  0  0  0  0
    5.5173   -0.2201   13.9742 H   0  0  0  0  0  0  0  0  0  0  0  0
    1.0531   -0.8132   13.4141 N   0  0  0  0  0  0  0  0  0  0  0  0
    1.6297   -1.2610   12.7537 H   0  0  0  0  0  0  0  0  0  0  0  0
    0.1804   -1.6147   14.0958 C   0  0  0  0  0  0  0  0  0  0  0  0
    0.5890   -2.6632   14.9298 C   0  0  0  0  0  0  0  0  0  0  0  0
   -1.7041   -3.2067   15.4462 C   0  0  0  0  0  0  0  0  0  0  0  0
   -2.1203   -2.1618   14.6237 C   0  0  0  0  0  0  0  0  0  0  0  0
   -0.3385   -3.4645   15.6024 C   0  0  0  0  0  0  0  0  0  0  0  0
   -1.1851   -1.3747   13.9503 C   0  0  0  0  0  0  0  0  0  0  0  0
   -3.5936   -1.8708   14.4672 C   0  0  0  0  0  0  0  0  0  0  0  0
   -0.6427    3.6085   13.0526 N   0  0  0  0  0  0  0  0  0  0  0  0
   -1.4820    3.5453   13.5634 H   0  0  0  0  0  0  0  0  0  0  0  0
   -0.5420    4.6041   11.9926 C   0  0  0  0  0  0  0  0  0  0  0  0
   -0.3964    6.0393   12.5468 C   0  0  0  0  0  0  0  0  0  0  0  0
    0.7852    6.1593   13.3922 N   0  0  0  0  0  0  0  0  0  0  0  0
   -0.2861    7.0544   11.4086 C   0  0  0  0  0  0  0  0  0  0  0  0
    0.8350    6.6973   10.4201 C   0  0  0  0  0  0  0  0  0  0  0  0
    0.7564    5.2584    9.9089 C   0  0  0  0  0  0  0  0  0  0  0  0
    0.6107    4.2381   11.0435 C   0  0  0  0  0  0  0  0  0  0  0  0
    1.6201    5.9662   12.8390 H   0  0  0  0  0  0  0  0  0  0  0  0
    0.7236    5.4902   14.1596 H   0  0  0  0  0  0  0  0  0  0  0  0
  1  3  2  0  0  0
  1  6  1  0  0  0
  1 21  1  0  0  0
  2  4  1  0  0  0
  2  6  2  0  0  0
  3  5  1  0  0  0
  4  5  2  0  0  0
  4  7  1  0  0  0
  5 12  1  0  0  0
  7  8  2  0  0  0
  7  9  1  0  0  0
 14 15  2  0  0  0
 14 19  1  0  0  0
 14 12  1  0  0  0
 15 18  1  0  0  0
 16 17  1  0  0  0
 16 18  2  0  0  0
 17 19  2  0  0  0
 17 20  1  0  0  0
 21 23  1  0  0  0
 23 24  1  0  0  0
 23 29  1  0  0  0
 24 25  1  0  0  0
 24 26  1  0  0  0
 26 27  1  0  0  0
 27 28  1  0  0  0
 28 29  1  0  0  0
  9 10  1  0  0  0
  9 11  1  0  0  0
 12 13  1  0  0  0
 21 22  1  0  0  0
 25 30  1  0  0  0
 25 31  1  0  0  0
M  END
> <minimizedAffinity>
-8.25788

$$$$
3FQE_P5C_A_1


 31 33  0  0  0  0  0  0  0  0999 V2000
    2.3298    2.5114   13.2496 C   0  0  0  0  0  0  0  0  0  0  0  0
    3.3570    0.8548   14.5371 C   0  0  0  0  0  0  0  0  0  0  0  0
    1.3778    1.6167   12.8843 N   0  0  0  0  0  0  0  0  0  0  0  0
    2.3813   -0.0792   14.1758 C   0  0  0  0  0  0  0  0  0  0  0  0
    1.3665    0.3252   13.3225 C   0  0  0  0  0  0  0  0  0  0  0  0
    3.3212    2.1210   14.0771 N   0  0  0  0  0  0  0  0  0  0  0  0
    2.4530   -1.4867   14.7136 C   0  0  0  0  0  0  0  0  0  0  0  0
    2.2834   -2.4571   13.9827 O   0  0  0  0  0  0  0  0  0  0  0  0
    2.7023   -1.6476   16.0081 N   0  0  0  0  0  0  0  0  0  0  0  0
    2.8367   -0.8612   16.5850 H   0  0  0  0  0  0  0  0  0  0  0  0
    2.7528   -2.5532   16.3908 H   0  0  0  0  0  0  0  0  0  0  0  0
    0.3966   -0.5622   12.9485 N   0  0  0  0  0  0  0  0  0  0  0  0
    0.6943   -1.3299   12.4087 H   0  0  0  0  0  0  0  0  0  0  0  0
   -0.9386   -0.5080   13.2365 C   0  0  0  0  0  0  0  0  0  0  0  0
   -1.6029   -1.4814   13.9934 C   0  0  0  0  0  0  0  0  0  0  0  0
   -3.6935   -0.2995   13.7627 C   0  0  0  0  0  0  0  0  0  0  0  0
   -3.0401    0.6774   13.0140 C   0  0  0  0  0  0  0  0  0  0  0  0
   -2.9729   -1.3911   14.2575 C   0  0  0  0  0  0  0  0  0  0  0  0
   -1.6740    0.5715   12.7493 C   0  0  0  0  0  0  0  0  0  0  0  0
   -3.8126    1.8657   12.4935 C   0  0  0  0  0  0  0  0  0  0  0  0
    2.2969    3.7878   12.7930 N   0  0  0  0  0  0  0  0  0  0  0  0
    3.0154    4.4046   13.0622 H   0  0  0  0  0  0  0  0  0  0  0  0
    1.2402    4.2833   11.9195 C   0  0  0  0  0  0  0  0  0  0  0  0
    0.1426    5.0429   12.6981 C   0  0  0  0  0  0  0  0  0  0  0  0
    0.7010    6.1796   13.4203 N   0  0  0  0  0  0  0  0  0  0  0  0
   -0.9433    5.5537   11.7506 C   0  0  0  0  0  0  0  0  0  0  0  0
   -0.3621    6.3913   10.6007 C   0  0  0  0  0  0  0  0  0  0  0  0
    0.7755    5.6915    9.8563 C   0  0  0  0  0  0  0  0  0  0  0  0
    1.8505    5.1464   10.8033 C   0  0  0  0  0  0  0  0  0  0  0  0
    1.1067    6.8385   12.7558 H   0  0  0  0  0  0  0  0  0  0  0  0
    1.4249    5.8532   14.0606 H   0  0  0  0  0  0  0  0  0  0  0  0
  1  3  2  0  0  0
  1  6  1  0  0  0
  1 21  1  0  0  0
  2  4  1  0  0  0
  2  6  2  0  0  0
  3  5  1  0  0  0
  4  5  2  0  0  0
  4  7  1  0  0  0
  5 12  1  0  0  0
  7  8  2  0  0  0
  7  9  1  0  0  0
 14 15  2  0  0  0
 14 19  1  0  0  0
 14 12  1  0  0  0
 15 18  1  0  0  0
 16 17  1  0  0  0
 16 18  2  0  0  0
 17 19  2  0  0  0
 17 20  1  0  0  0
 21 23  1  0  0  0
 23 24  1  0  0  0
 23 29  1  0  0  0
 24 25  1  0  0  0
 24 26  1  0  0  0
 26 27  1  0  0  0
 27 28  1  0  0  0
 28 29  1  0  0  0
  9 10  1  0  0  0
  9 11  1  0  0  0
 12 13  1  0  0  0
 21 22  1  0  0  0
 25 30  1  0  0  0
 25 31  1  0  0  0
M  END
> <minimizedAffinity>
-8.19308

$$$$
3FQE_P5C_A_1


 31 33  0  0  0  0  0  0  0  0999 V2000
    0.7396    6.8804   11.6246 C   0  0  0  0  0  0  0  0  0  0  0  0
   -1.5523    6.4491   11.7602 C   0  0  0  0  0  0  0  0  0  0  0  0
    0.9598    5.5610   11.3989 N   0  0  0  0  0  0  0  0  0  0  0  0
   -1.3449    5.0869   11.5231 C   0  0  0  0  0  0  0  0  0  0  0  0
   -0.0453    4.6409   11.3393 C   0  0  0  0  0  0  0  0  0  0  0  0
   -0.5233    7.3182   11.8076 N   0  0  0  0  0  0  0  0  0  0  0  0
   -2.5221    4.1451   11.4739 C   0  0  0  0  0  0  0  0  0  0  0  0
   -2.7217    3.4255   10.5008 O   0  0  0  0  0  0  0  0  0  0  0  0
   -3.3435    4.1188   12.5172 N   0  0  0  0  0  0  0  0  0  0  0  0
   -3.1731    4.7010   13.2926 H   0  0  0  0  0  0  0  0  0  0  0  0
   -4.1227    3.5171   12.5152 H   0  0  0  0  0  0  0  0  0  0  0  0
    0.1937    3.3156   11.1058 N   0  0  0  0  0  0  0  0  0  0  0  0
    0.1066    3.0159   10.1721 H   0  0  0  0  0  0  0  0  0  0  0  0
    0.5396    2.3578   12.0177 C   0  0  0  0  0  0  0  0  0  0  0  0
   -0.3163    1.3190   12.4052 C   0  0  0  0  0  0  0  0  0  0  0  0
    1.3536    0.4431   13.9102 C   0  0  0  0  0  0  0  0  0  0  0  0
    2.2146    1.4692   13.5263 C   0  0  0  0  0  0  0  0  0  0  0  0
    0.0753    0.3642   13.3485 C   0  0  0  0  0  0  0  0  0  0  0  0
    1.8089    2.4217   12.5905 C   0  0  0  0  0  0  0  0  0  0  0  0
    3.6014    1.5463   14.1185 C   0  0  0  0  0  0  0  0  0  0  0  0
    1.7706    7.7601   11.6696 N   0  0  0  0  0  0  0  0  0  0  0  0
    2.3357    7.7850   12.4753 H   0  0  0  0  0  0  0  0  0  0  0  0
    2.0757    8.6704   10.5726 C   0  0  0  0  0  0  0  0  0  0  0  0
    3.5863    8.9792   10.4685 C   0  0  0  0  0  0  0  0  0  0  0  0
    4.3601    7.7595   10.2712 N   0  0  0  0  0  0  0  0  0  0  0  0
    3.8694    9.9292    9.3044 C   0  0  0  0  0  0  0  0  0  0  0  0
    3.2904    9.4104    7.9789 C   0  0  0  0  0  0  0  0  0  0  0  0
    1.8123    9.0299    8.0712 C   0  0  0  0  0  0  0  0  0  0  0  0
    1.5159    8.1052    9.2571 C   0  0  0  0  0  0  0  0  0  0  0  0
    4.0836    7.3196    9.3934 H   0  0  0  0  0  0  0  0  0  0  0  0
    4.1846    7.1168   11.0436 H   0  0  0  0  0  0  0  0  0  0  0  0
  1  3  2  0  0  0
  1  6  1  0  0  0
  1 21  1  0  0  0
  2  4  1  0  0  0
  2  6  2  0  0  0
  3  5  1  0  0  0
  4  5  2  0  0  0
  4  7  1  0  0  0
  5 12  1  0  0  0
  7  8  2  0  0  0
  7  9  1  0  0  0
 14 15  2  0  0  0
 14 19  1  0  0  0
 14 12  1  0  0  0
 15 18  1  0  0  0
 16 17  1  0  0  0
 16 18  2  0  0  0
 17 19  2  0  0  0
 17 20  1  0  0  0
 21 23  1  0  0  0
 23 24  1  0  0  0
 23 29  1  0  0  0
 24 25  1  0  0  0
 24 26  1  0  0  0
 26 27  1  0  0  0
 27 28  1  0  0  0
 28 29  1  0  0  0
  9 10  1  0  0  0
  9 11  1  0  0  0
 12 13  1  0  0  0
 21 22  1  0  0  0
 25 30  1  0  0  0
 25 31  1  0  0  0
M  END
> <minimizedAffinity>
-8.13680

$$$$
3FQE_P5C_A_1


 31 33  0  0  0  0  0  0  0  0999 V2000
   -1.2509    0.9022   12.9482 C   0  0  0  0  0  0  0  0  0  0  0  0
   -1.4076    3.2146   12.6562 C   0  0  0  0  0  0  0  0  0  0  0  0
    0.1009    1.0014   12.8923 N   0  0  0  0  0  0  0  0  0  0  0  0
   -0.0159    3.3367   12.6019 C   0  0  0  0  0  0  0  0  0  0  0  0
    0.7511    2.1884   12.7240 C   0  0  0  0  0  0  0  0  0  0  0  0
   -2.0012    2.0167   12.8262 N   0  0  0  0  0  0  0  0  0  0  0  0
    0.6124    4.6950   12.4136 C   0  0  0  0  0  0  0  0  0  0  0  0
    1.3561    4.9269   11.4660 O   0  0  0  0  0  0  0  0  0  0  0  0
    0.3401    5.6374   13.3089 N   0  0  0  0  0  0  0  0  0  0  0  0
   -0.2582    5.4397   14.0653 H   0  0  0  0  0  0  0  0  0  0  0  0
    0.7365    6.5338   13.2161 H   0  0  0  0  0  0  0  0  0  0  0  0
    2.1145    2.2713   12.6750 N   0  0  0  0  0  0  0  0  0  0  0  0
    2.4928    2.7723   11.9167 H   0  0  0  0  0  0  0  0  0  0  0  0
    3.0141    1.7395   13.5563 C   0  0  0  0  0  0  0  0  0  0  0  0
    4.2218    2.3634   13.8940 C   0  0  0  0  0  0  0  0  0  0  0  0
    4.7961    0.5503   15.3784 C   0  0  0  0  0  0  0  0  0  0  0  0
    3.5940   -0.0751   15.0536 C   0  0  0  0  0  0  0  0  0  0  0  0
    5.1178    1.7797   14.7947 C   0  0  0  0  0  0  0  0  0  0  0  0
    2.7119    0.5130   14.1461 C   0  0  0  0  0  0  0  0  0  0  0  0
    3.2367   -1.3942   15.6957 C   0  0  0  0  0  0  0  0  0  0  0  0
   -1.8537   -0.2998   13.1229 N   0  0  0  0  0  0  0  0  0  0  0  0
   -2.5955   -0.5478   12.5250 H   0  0  0  0  0  0  0  0  0  0  0  0
   -1.4474   -1.2396   14.1607 C   0  0  0  0  0  0  0  0  0  0  0  0
   -2.6043   -2.1647   14.6009 C   0  0  0  0  0  0  0  0  0  0  0  0
   -3.1217   -2.9322   13.4746 N   0  0  0  0  0  0  0  0  0  0  0  0
   -2.1404   -3.1402   15.6830 C   0  0  0  0  0  0  0  0  0  0  0  0
   -0.8950   -3.9320   15.2543 C   0  0  0  0  0  0  0  0  0  0  0  0
    0.2420   -3.0446   14.7468 C   0  0  0  0  0  0  0  0  0  0  0  0
   -0.2238   -2.0405   13.6865 C   0  0  0  0  0  0  0  0  0  0  0  0
   -2.3841   -3.5314   13.1040 H   0  0  0  0  0  0  0  0  0  0  0  0
   -3.4395   -2.2938   12.7454 H   0  0  0  0  0  0  0  0  0  0  0  0
  1  3  2  0  0  0
  1  6  1  0  0  0
  1 21  1  0  0  0
  2  4  1  0  0  0
  2  6  2  0  0  0
  3  5  1  0  0  0
  4  5  2  0  0  0
  4  7  1  0  0  0
  5 12  1  0  0  0
  7  8  2  0  0  0
  7  9  1  0  0  0
 14 15  2  0  0  0
 14 19  1  0  0  0
 14 12  1  0  0  0
 15 18  1  0  0  0
 16 17  1  0  0  0
 16 18  2  0  0  0
 17 19  2  0  0  0
 17 20  1  0  0  0
 21 23  1  0  0  0
 23 24  1  0  0  0
 23 29  1  0  0  0
 24 25  1  0  0  0
 24 26  1  0  0  0
 26 27  1  0  0  0
 27 28  1  0  0  0
 28 29  1  0  0  0
  9 10  1  0  0  0
  9 11  1  0  0  0
 12 13  1  0  0  0
 21 22  1  0  0  0
 25 30  1  0  0  0
 25 31  1  0  0  0
M  END
> <minimizedAffinity>
-8.11631

$$$$
