3O84_HTJ_A_995


 26 29  0  0  0  0  0  0  0  0999 V2000
  -24.9909   -6.0857   11.1799 N   0  0  0  0  0  0  0  0  0  0  0  0
  -23.9963   -6.8105   10.6668 C   0  0  0  0  0  0  0  0  0  0  0  0
  -23.0917   -5.8748   10.1902 C   0  0  0  0  0  0  0  0  0  0  0  0
  -23.5607   -4.5360   10.4457 C   0  0  0  0  0  0  0  0  0  0  0  0
  -24.7511   -4.6990   11.0767 N   0  0  0  0  0  0  0  0  0  0  0  0
  -23.8058   -8.1281   10.5602 N   0  0  0  0  0  0  0  0  0  0  0  0
  -22.7062   -8.6269    9.9773 C   0  0  0  0  0  0  0  0  0  0  0  0
  -21.7425   -7.7515    9.4564 C   0  0  0  0  0  0  0  0  0  0  0  0
  -21.9336   -6.3645    9.5590 C   0  0  0  0  0  0  0  0  0  0  0  0
  -22.5773  -10.1079    9.9067 C   0  0  0  0  0  0  0  0  0  0  0  0
  -23.4933  -10.9048   10.6090 C   0  0  0  0  0  0  0  0  0  0  0  0
  -23.3990  -12.2985   10.5541 C   0  0  0  0  0  0  0  0  0  0  0  0
  -22.3960  -12.9027    9.7934 C   0  0  0  0  0  0  0  0  0  0  0  0
  -21.4734  -12.1185    9.0955 C   0  0  0  0  0  0  0  0  0  0  0  0
  -21.5706  -10.7164    9.1442 C   0  0  0  0  0  0  0  0  0  0  0  0
  -20.9026   -5.4166    9.0054 C   0  0  0  0  0  0  0  0  0  0  0  0
  -19.8576   -5.2187    9.6490 O   0  0  0  0  0  0  0  0  0  0  0  0
  -21.0982   -4.8226    7.9198 O   0  0  0  0  0  0  0  0  0  0  0  0
  -21.8873   -4.9748    7.4380 H   0  0  0  0  0  0  0  0  0  0  0  0
  -26.1893   -6.5106   11.9073 C   0  0  0  0  0  0  0  0  0  0  0  0
  -26.2907   -6.3881   15.7528 C   0  0  0  0  0  0  0  0  0  0  0  0
  -26.7022   -6.3475   14.4146 C   0  0  0  0  0  0  0  0  0  0  0  0
  -25.7719   -6.5463   13.3915 C   0  0  0  0  0  0  0  0  0  0  0  0
  -24.4414   -6.7805   13.7731 C   0  0  0  0  0  0  0  0  0  0  0  0
  -24.0705   -6.8102   15.1229 C   0  0  0  0  0  0  0  0  0  0  0  0
  -25.0017   -6.6038   16.0754 N   0  0  0  0  0  0  0  0  0  0  0  0
 22 21  2  0  0  0
 21 26  1  0  0  0
 23 22  1  0  0  0
 20 23  1  0  0  0
 23 24  2  0  0  0
 24 25  1  0  0  0
 25 26  2  0  0  0
  1 20  1  0  0  0
  2  1  1  0  0  0
  5  1  1  0  0  0
  3  2  2  0  0  0
  6  2  1  0  0  0
  9  3  1  0  0  0
  3  4  1  0  0  0
  4  5  2  0  0  0
  7  6  2  0  0  0
  8  7  1  0  0  0
 10  7  1  0  0  0
  8  9  2  0  0  0
 16  9  1  0  0  0
 17 16  2  0  0  0
 16 18  1  0  0  0
 15 10  2  0  0  0
 10 11  1  0  0  0
 12 11  2  0  0  0
 13 12  1  0  0  0
 14 13  2  0  0  0
 14 15  1  0  0  0
 18 19  1  0  0  0
M  END
> <minimizedAffinity>
-9.41215

$$$$
3O84_HTJ_A_995


 26 29  0  0  0  0  0  0  0  0999 V2000
  -21.1152   -7.5270   10.0717 N   0  0  0  0  0  0  0  0  0  0  0  0
  -21.5238   -7.0303   11.2398 C   0  0  0  0  0  0  0  0  0  0  0  0
  -20.3865   -6.4677   11.7974 C   0  0  0  0  0  0  0  0  0  0  0  0
  -19.2566   -6.6218   10.9158 C   0  0  0  0  0  0  0  0  0  0  0  0
  -19.7457   -7.2822    9.8357 N   0  0  0  0  0  0  0  0  0  0  0  0
  -22.7125   -7.0257   11.8486 N   0  0  0  0  0  0  0  0  0  0  0  0
  -22.8738   -6.4631   13.0549 C   0  0  0  0  0  0  0  0  0  0  0  0
  -21.7728   -5.8799   13.6982 C   0  0  0  0  0  0  0  0  0  0  0  0
  -20.5174   -5.8821   13.0699 C   0  0  0  0  0  0  0  0  0  0  0  0
  -24.2352   -6.5022   13.6551 C   0  0  0  0  0  0  0  0  0  0  0  0
  -24.3630   -6.6748   15.0412 C   0  0  0  0  0  0  0  0  0  0  0  0
  -25.6298   -6.7082   15.6313 C   0  0  0  0  0  0  0  0  0  0  0  0
  -26.7731   -6.5624   14.8431 C   0  0  0  0  0  0  0  0  0  0  0  0
  -26.6579   -6.3972   13.4601 C   0  0  0  0  0  0  0  0  0  0  0  0
  -25.3842   -6.3568   12.8654 C   0  0  0  0  0  0  0  0  0  0  0  0
  -19.3299   -5.2553   13.7517 C   0  0  0  0  0  0  0  0  0  0  0  0
  -18.9305   -5.7327   14.8277 O   0  0  0  0  0  0  0  0  0  0  0  0
  -18.7594   -4.2578   13.2526 O   0  0  0  0  0  0  0  0  0  0  0  0
  -19.0638   -3.9012   12.4413 H   0  0  0  0  0  0  0  0  0  0  0  0
  -21.8821   -8.1604    8.9964 C   0  0  0  0  0  0  0  0  0  0  0  0
  -21.4527  -11.9225    9.6858 C   0  0  0  0  0  0  0  0  0  0  0  0
  -21.1976  -10.6199    9.2389 C   0  0  0  0  0  0  0  0  0  0  0  0
  -22.1303   -9.6063    9.4721 C   0  0  0  0  0  0  0  0  0  0  0  0
  -23.3024   -9.9607   10.1587 C   0  0  0  0  0  0  0  0  0  0  0  0
  -23.5205  -11.2761   10.5862 C   0  0  0  0  0  0  0  0  0  0  0  0
  -22.5958  -12.2229   10.3303 N   0  0  0  0  0  0  0  0  0  0  0  0
 22 21  2  0  0  0
 21 26  1  0  0  0
 23 22  1  0  0  0
 20 23  1  0  0  0
 23 24  2  0  0  0
 24 25  1  0  0  0
 25 26  2  0  0  0
  1 20  1  0  0  0
  2  1  1  0  0  0
  5  1  1  0  0  0
  3  2  2  0  0  0
  6  2  1  0  0  0
  9  3  1  0  0  0
  3  4  1  0  0  0
  4  5  2  0  0  0
  7  6  2  0  0  0
  8  7  1  0  0  0
 10  7  1  0  0  0
  8  9  2  0  0  0
 16  9  1  0  0  0
 17 16  2  0  0  0
 16 18  1  0  0  0
 15 10  2  0  0  0
 10 11  1  0  0  0
 12 11  2  0  0  0
 13 12  1  0  0  0
 14 13  2  0  0  0
 14 15  1  0  0  0
 18 19  1  0  0  0
M  END
> <minimizedAffinity>
-8.93159

$$$$
3O84_HTJ_A_995


 26 29  0  0  0  0  0  0  0  0999 V2000
  -20.9303   -6.2419   10.2062 N   0  0  0  0  0  0  0  0  0  0  0  0
  -21.3811   -6.2885   11.4602 C   0  0  0  0  0  0  0  0  0  0  0  0
  -20.2379   -6.2680   12.2436 C   0  0  0  0  0  0  0  0  0  0  0  0
  -19.0572   -6.1892   11.4207 C   0  0  0  0  0  0  0  0  0  0  0  0
  -19.5226   -6.1646   10.1461 N   0  0  0  0  0  0  0  0  0  0  0  0
  -22.6132   -6.3577   11.9709 N   0  0  0  0  0  0  0  0  0  0  0  0
  -22.8151   -6.4097   13.2955 C   0  0  0  0  0  0  0  0  0  0  0  0
  -21.7135   -6.4052   14.1631 C   0  0  0  0  0  0  0  0  0  0  0  0
  -20.4135   -6.3366   13.6378 C   0  0  0  0  0  0  0  0  0  0  0  0
  -24.2225   -6.4816   13.7739 C   0  0  0  0  0  0  0  0  0  0  0  0
  -24.4673   -6.6627   15.1431 C   0  0  0  0  0  0  0  0  0  0  0  0
  -25.7799   -6.7269   15.6199 C   0  0  0  0  0  0  0  0  0  0  0  0
  -26.8527   -6.6035   14.7349 C   0  0  0  0  0  0  0  0  0  0  0  0
  -26.6207   -6.4302   13.3677 C   0  0  0  0  0  0  0  0  0  0  0  0
  -25.3011   -6.3588   12.8869 C   0  0  0  0  0  0  0  0  0  0  0  0
  -19.2244   -6.3281   14.5620 C   0  0  0  0  0  0  0  0  0  0  0  0
  -18.7711   -5.2382   14.9520 O   0  0  0  0  0  0  0  0  0  0  0  0
  -18.6877   -7.4010   14.9228 O   0  0  0  0  0  0  0  0  0  0  0  0
  -19.0327   -8.2203   14.6264 H   0  0  0  0  0  0  0  0  0  0  0  0
  -21.6655   -6.1464    8.9429 C   0  0  0  0  0  0  0  0  0  0  0  0
  -21.4768   -2.3143    8.6389 C   0  0  0  0  0  0  0  0  0  0  0  0
  -21.7492   -3.5914    9.1455 C   0  0  0  0  0  0  0  0  0  0  0  0
  -21.3834   -4.7249    8.4154 C   0  0  0  0  0  0  0  0  0  0  0  0
  -20.7474   -4.5139    7.1818 C   0  0  0  0  0  0  0  0  0  0  0  0
  -20.4960   -3.2199    6.7097 C   0  0  0  0  0  0  0  0  0  0  0  0
  -20.8755   -2.1559    7.4450 N   0  0  0  0  0  0  0  0  0  0  0  0
 22 21  2  0  0  0
 21 26  1  0  0  0
 23 22  1  0  0  0
 20 23  1  0  0  0
 23 24  2  0  0  0
 24 25  1  0  0  0
 25 26  2  0  0  0
  1 20  1  0  0  0
  2  1  1  0  0  0
  5  1  1  0  0  0
  3  2  2  0  0  0
  6  2  1  0  0  0
  9  3  1  0  0  0
  3  4  1  0  0  0
  4  5  2  0  0  0
  7  6  2  0  0  0
  8  7  1  0  0  0
 10  7  1  0  0  0
  8  9  2  0  0  0
 16  9  1  0  0  0
 17 16  2  0  0  0
 16 18  1  0  0  0
 15 10  2  0  0  0
 10 11  1  0  0  0
 12 11  2  0  0  0
 13 12  1  0  0  0
 14 13  2  0  0  0
 14 15  1  0  0  0
 18 19  1  0  0  0
M  END
> <minimizedAffinity>
-8.84285

$$$$
3O84_HTJ_A_995


 26 29  0  0  0  0  0  0  0  0999 V2000
  -19.8123   -5.5315   12.4139 N   0  0  0  0  0  0  0  0  0  0  0  0
  -21.0132   -6.0554   12.1666 C   0  0  0  0  0  0  0  0  0  0  0  0
  -20.8843   -6.6538   10.9231 C   0  0  0  0  0  0  0  0  0  0  0  0
  -19.5445   -6.4931   10.4164 C   0  0  0  0  0  0  0  0  0  0  0  0
  -18.8908   -5.7927   11.3777 N   0  0  0  0  0  0  0  0  0  0  0  0
  -22.1538   -6.0576   12.8615 N   0  0  0  0  0  0  0  0  0  0  0  0
  -23.2570   -6.6529   12.3855 C   0  0  0  0  0  0  0  0  0  0  0  0
  -23.2196   -7.2738   11.1288 C   0  0  0  0  0  0  0  0  0  0  0  0
  -22.0275   -7.2745   10.3874 C   0  0  0  0  0  0  0  0  0  0  0  0
  -24.4811   -6.6082   13.2307 C   0  0  0  0  0  0  0  0  0  0  0  0
  -24.3540   -6.7500   14.6204 C   0  0  0  0  0  0  0  0  0  0  0  0
  -25.4871   -6.7050   15.4379 C   0  0  0  0  0  0  0  0  0  0  0  0
  -26.7497   -6.5112   14.8740 C   0  0  0  0  0  0  0  0  0  0  0  0
  -26.8890   -6.3761   13.4900 C   0  0  0  0  0  0  0  0  0  0  0  0
  -25.7497   -6.4146   12.6665 C   0  0  0  0  0  0  0  0  0  0  0  0
  -21.9771   -7.9416    9.0382 C   0  0  0  0  0  0  0  0  0  0  0  0
  -22.2136   -9.1594    8.9579 O   0  0  0  0  0  0  0  0  0  0  0  0
  -21.6865   -7.2854    8.0113 O   0  0  0  0  0  0  0  0  0  0  0  0
  -21.5089   -6.3677    8.0764 H   0  0  0  0  0  0  0  0  0  0  0  0
  -19.3075   -4.8534   13.6102 C   0  0  0  0  0  0  0  0  0  0  0  0
  -20.0207   -1.3664   12.1453 C   0  0  0  0  0  0  0  0  0  0  0  0
  -20.1750   -2.7146   12.4925 C   0  0  0  0  0  0  0  0  0  0  0  0
  -19.1710   -3.3705   13.2091 C   0  0  0  0  0  0  0  0  0  0  0  0
  -18.0334   -2.6213   13.5487 C   0  0  0  0  0  0  0  0  0  0  0  0
  -17.9169   -1.2756   13.1797 C   0  0  0  0  0  0  0  0  0  0  0  0
  -18.9077   -0.6873   12.4804 N   0  0  0  0  0  0  0  0  0  0  0  0
 22 21  2  0  0  0
 21 26  1  0  0  0
 23 22  1  0  0  0
 20 23  1  0  0  0
 23 24  2  0  0  0
 24 25  1  0  0  0
 25 26  2  0  0  0
  1 20  1  0  0  0
  2  1  1  0  0  0
  5  1  1  0  0  0
  3  2  2  0  0  0
  6  2  1  0  0  0
  9  3  1  0  0  0
  3  4  1  0  0  0
  4  5  2  0  0  0
  7  6  2  0  0  0
  8  7  1  0  0  0
 10  7  1  0  0  0
  8  9  2  0  0  0
 16  9  1  0  0  0
 17 16  2  0  0  0
 16 18  1  0  0  0
 15 10  2  0  0  0
 10 11  1  0  0  0
 12 11  2  0  0  0
 13 12  1  0  0  0
 14 13  2  0  0  0
 14 15  1  0  0  0
 18 19  1  0  0  0
M  END
> <minimizedAffinity>
-8.67615

$$$$
3O84_HTJ_A_995


 26 29  0  0  0  0  0  0  0  0999 V2000
  -21.1050   -4.4337   10.4512 N   0  0  0  0  0  0  0  0  0  0  0  0
  -21.9258   -5.4179   10.8191 C   0  0  0  0  0  0  0  0  0  0  0  0
  -21.5800   -6.4845   10.0045 C   0  0  0  0  0  0  0  0  0  0  0  0
  -20.4958   -6.1243    9.1257 C   0  0  0  0  0  0  0  0  0  0  0  0
  -20.2115   -4.8338    9.4348 N   0  0  0  0  0  0  0  0  0  0  0  0
  -22.9017   -5.4822   11.7287 N   0  0  0  0  0  0  0  0  0  0  0  0
  -23.6120   -6.6052   11.9083 C   0  0  0  0  0  0  0  0  0  0  0  0
  -23.3368   -7.7307   11.1186 C   0  0  0  0  0  0  0  0  0  0  0  0
  -22.3160   -7.6738   10.1565 C   0  0  0  0  0  0  0  0  0  0  0  0
  -24.6777   -6.5857   12.9471 C   0  0  0  0  0  0  0  0  0  0  0  0
  -26.0082   -6.3809   12.5531 C   0  0  0  0  0  0  0  0  0  0  0  0
  -27.0292   -6.3649   13.5079 C   0  0  0  0  0  0  0  0  0  0  0  0
  -26.7286   -6.5601   14.8574 C   0  0  0  0  0  0  0  0  0  0  0  0
  -25.4056   -6.7577   15.2621 C   0  0  0  0  0  0  0  0  0  0  0  0
  -24.3778   -6.7806   14.3025 C   0  0  0  0  0  0  0  0  0  0  0  0
  -22.0111   -8.8786    9.3060 C   0  0  0  0  0  0  0  0  0  0  0  0
  -22.2004   -8.8145    8.0790 O   0  0  0  0  0  0  0  0  0  0  0  0
  -21.5872   -9.9369    9.8254 O   0  0  0  0  0  0  0  0  0  0  0  0
  -21.4460   -9.9808   10.7507 H   0  0  0  0  0  0  0  0  0  0  0  0
  -20.9319   -3.0912   11.0110 C   0  0  0  0  0  0  0  0  0  0  0  0
  -17.7534   -2.5445   13.1114 C   0  0  0  0  0  0  0  0  0  0  0  0
  -18.7301   -2.3855   12.1201 C   0  0  0  0  0  0  0  0  0  0  0  0
  -19.8363   -3.2380   12.0864 C   0  0  0  0  0  0  0  0  0  0  0  0
  -19.9076   -4.2331   13.0741 C   0  0  0  0  0  0  0  0  0  0  0  0
  -18.9080   -4.3603   14.0463 C   0  0  0  0  0  0  0  0  0  0  0  0
  -17.8540   -3.5201   14.0334 N   0  0  0  0  0  0  0  0  0  0  0  0
 22 21  2  0  0  0
 21 26  1  0  0  0
 23 22  1  0  0  0
 20 23  1  0  0  0
 23 24  2  0  0  0
 24 25  1  0  0  0
 25 26  2  0  0  0
  1 20  1  0  0  0
  2  1  1  0  0  0
  5  1  1  0  0  0
  3  2  2  0  0  0
  6  2  1  0  0  0
  9  3  1  0  0  0
  3  4  1  0  0  0
  4  5  2  0  0  0
  7  6  2  0  0  0
  8  7  1  0  0  0
 10  7  1  0  0  0
  8  9  2  0  0  0
 16  9  1  0  0  0
 17 16  2  0  0  0
 16 18  1  0  0  0
 15 10  2  0  0  0
 10 11  1  0  0  0
 12 11  2  0  0  0
 13 12  1  0  0  0
 14 13  2  0  0  0
 14 15  1  0  0  0
 18 19  1  0  0  0
M  END
> <minimizedAffinity>
-8.29344

$$$$
3O84_HTJ_A_995


 26 29  0  0  0  0  0  0  0  0999 V2000
  -22.2859   -5.0420    9.6921 N   0  0  0  0  0  0  0  0  0  0  0  0
  -22.8809   -6.1741   10.0693 C   0  0  0  0  0  0  0  0  0  0  0  0
  -24.0057   -5.7624   10.7666 C   0  0  0  0  0  0  0  0  0  0  0  0
  -24.0922   -4.3238   10.7910 C   0  0  0  0  0  0  0  0  0  0  0  0
  -23.0042   -3.8982   10.1004 N   0  0  0  0  0  0  0  0  0  0  0  0
  -22.5616   -7.4592    9.8948 N   0  0  0  0  0  0  0  0  0  0  0  0
  -23.3285   -8.4400   10.3925 C   0  0  0  0  0  0  0  0  0  0  0  0
  -24.4807   -8.1137   11.1220 C   0  0  0  0  0  0  0  0  0  0  0  0
  -24.8244   -6.7663   11.3152 C   0  0  0  0  0  0  0  0  0  0  0  0
  -22.8965   -9.8427   10.1456 C   0  0  0  0  0  0  0  0  0  0  0  0
  -23.6800  -10.8937   10.6446 C   0  0  0  0  0  0  0  0  0  0  0  0
  -23.3005  -12.2205   10.4210 C   0  0  0  0  0  0  0  0  0  0  0  0
  -22.1432  -12.5043    9.6932 C   0  0  0  0  0  0  0  0  0  0  0  0
  -21.3511  -11.4650    9.1977 C   0  0  0  0  0  0  0  0  0  0  0  0
  -21.7345  -10.1297    9.4159 C   0  0  0  0  0  0  0  0  0  0  0  0
  -26.0617   -6.4063   12.0946 C   0  0  0  0  0  0  0  0  0  0  0  0
  -25.9445   -6.0351   13.2752 O   0  0  0  0  0  0  0  0  0  0  0  0
  -27.1957   -6.4927   11.5691 O   0  0  0  0  0  0  0  0  0  0  0  0
  -27.2794   -6.7729   10.6789 H   0  0  0  0  0  0  0  0  0  0  0  0
  -21.1054   -4.8322    8.8506 C   0  0  0  0  0  0  0  0  0  0  0  0
  -18.9519   -1.9609   10.2405 C   0  0  0  0  0  0  0  0  0  0  0  0
  -19.8427   -2.6769    9.4307 C   0  0  0  0  0  0  0  0  0  0  0  0
  -20.1283   -4.0137    9.7188 C   0  0  0  0  0  0  0  0  0  0  0  0
  -19.4881   -4.5791   10.8329 C   0  0  0  0  0  0  0  0  0  0  0  0
  -18.6014   -3.8293   11.6154 C   0  0  0  0  0  0  0  0  0  0  0  0
  -18.3496   -2.5449   11.2932 N   0  0  0  0  0  0  0  0  0  0  0  0
 22 21  2  0  0  0
 21 26  1  0  0  0
 23 22  1  0  0  0
 20 23  1  0  0  0
 23 24  2  0  0  0
 24 25  1  0  0  0
 25 26  2  0  0  0
  1 20  1  0  0  0
  2  1  1  0  0  0
  5  1  1  0  0  0
  3  2  2  0  0  0
  6  2  1  0  0  0
  9  3  1  0  0  0
  3  4  1  0  0  0
  4  5  2  0  0  0
  7  6  2  0  0  0
  8  7  1  0  0  0
 10  7  1  0  0  0
  8  9  2  0  0  0
 16  9  1  0  0  0
 17 16  2  0  0  0
 16 18  1  0  0  0
 15 10  2  0  0  0
 10 11  1  0  0  0
 12 11  2  0  0  0
 13 12  1  0  0  0
 14 13  2  0  0  0
 14 15  1  0  0  0
 18 19  1  0  0  0
M  END
> <minimizedAffinity>
-8.28024

$$$$
3O84_HTJ_A_995


 26 29  0  0  0  0  0  0  0  0999 V2000
  -21.0091   -4.0126    9.1824 N   0  0  0  0  0  0  0  0  0  0  0  0
  -21.5737   -5.0585    9.7867 C   0  0  0  0  0  0  0  0  0  0  0  0
  -20.7662   -6.1338    9.4514 C   0  0  0  0  0  0  0  0  0  0  0  0
  -19.6647   -5.7064    8.6259 C   0  0  0  0  0  0  0  0  0  0  0  0
  -19.8374   -4.3681    8.4811 N   0  0  0  0  0  0  0  0  0  0  0  0
  -22.6658   -5.1764   10.5465 N   0  0  0  0  0  0  0  0  0  0  0  0
  -23.0461   -6.3646   11.0379 C   0  0  0  0  0  0  0  0  0  0  0  0
  -22.2930   -7.5091   10.7391 C   0  0  0  0  0  0  0  0  0  0  0  0
  -21.1453   -7.3982    9.9382 C   0  0  0  0  0  0  0  0  0  0  0  0
  -24.2743   -6.3998   11.8777 C   0  0  0  0  0  0  0  0  0  0  0  0
  -24.1462   -6.5737   13.2636 C   0  0  0  0  0  0  0  0  0  0  0  0
  -25.2833   -6.6035   14.0762 C   0  0  0  0  0  0  0  0  0  0  0  0
  -26.5513   -6.4530   13.5112 C   0  0  0  0  0  0  0  0  0  0  0  0
  -26.6913   -6.2866   12.1307 C   0  0  0  0  0  0  0  0  0  0  0  0
  -25.5483   -6.2497   11.3124 C   0  0  0  0  0  0  0  0  0  0  0  0
  -20.3285   -8.6213    9.6146 C   0  0  0  0  0  0  0  0  0  0  0  0
  -20.4794   -9.1731    8.5110 O   0  0  0  0  0  0  0  0  0  0  0  0
  -19.5184   -9.0878   10.4487 O   0  0  0  0  0  0  0  0  0  0  0  0
  -19.4078   -8.6687   11.2794 H   0  0  0  0  0  0  0  0  0  0  0  0
  -21.3558   -2.5905    9.2393 C   0  0  0  0  0  0  0  0  0  0  0  0
  -20.4852   -1.4196   12.8008 C   0  0  0  0  0  0  0  0  0  0  0  0
  -21.2055   -1.9261   11.7116 C   0  0  0  0  0  0  0  0  0  0  0  0
  -20.5942   -2.0356   10.4602 C   0  0  0  0  0  0  0  0  0  0  0  0
  -19.2570   -1.6195   10.3626 C   0  0  0  0  0  0  0  0  0  0  0  0
  -18.5731   -1.1158   11.4757 C   0  0  0  0  0  0  0  0  0  0  0  0
  -19.2073   -1.0201   12.6613 N   0  0  0  0  0  0  0  0  0  0  0  0
 22 21  2  0  0  0
 21 26  1  0  0  0
 23 22  1  0  0  0
 20 23  1  0  0  0
 23 24  2  0  0  0
 24 25  1  0  0  0
 25 26  2  0  0  0
  1 20  1  0  0  0
  2  1  1  0  0  0
  5  1  1  0  0  0
  3  2  2  0  0  0
  6  2  1  0  0  0
  9  3  1  0  0  0
  3  4  1  0  0  0
  4  5  2  0  0  0
  7  6  2  0  0  0
  8  7  1  0  0  0
 10  7  1  0  0  0
  8  9  2  0  0  0
 16  9  1  0  0  0
 17 16  2  0  0  0
 16 18  1  0  0  0
 15 10  2  0  0  0
 10 11  1  0  0  0
 12 11  2  0  0  0
 13 12  1  0  0  0
 14 13  2  0  0  0
 14 15  1  0  0  0
 18 19  1  0  0  0
M  END
> <minimizedAffinity>
-7.87661

$$$$
3O84_HTJ_A_995


 26 29  0  0  0  0  0  0  0  0999 V2000
  -21.0046   -5.1639   11.8842 N   0  0  0  0  0  0  0  0  0  0  0  0
  -20.6759   -4.0552   11.2204 C   0  0  0  0  0  0  0  0  0  0  0  0
  -19.9450   -3.3071   12.1298 C   0  0  0  0  0  0  0  0  0  0  0  0
  -19.8196   -4.0082   13.3829 C   0  0  0  0  0  0  0  0  0  0  0  0
  -20.4865   -5.1753   13.1967 N   0  0  0  0  0  0  0  0  0  0  0  0
  -20.9404   -3.6382    9.9794 N   0  0  0  0  0  0  0  0  0  0  0  0
  -20.5023   -2.4509    9.5366 C   0  0  0  0  0  0  0  0  0  0  0  0
  -19.7640   -1.6230   10.3944 C   0  0  0  0  0  0  0  0  0  0  0  0
  -19.4831   -2.0488   11.7022 C   0  0  0  0  0  0  0  0  0  0  0  0
  -20.8421   -2.0708    8.1383 C   0  0  0  0  0  0  0  0  0  0  0  0
  -21.2932   -0.7686    7.8777 C   0  0  0  0  0  0  0  0  0  0  0  0
  -21.6126   -0.3836    6.5723 C   0  0  0  0  0  0  0  0  0  0  0  0
  -21.4765   -1.2928    5.5214 C   0  0  0  0  0  0  0  0  0  0  0  0
  -21.0349   -2.5952    5.7705 C   0  0  0  0  0  0  0  0  0  0  0  0
  -20.7069   -2.9824    7.0820 C   0  0  0  0  0  0  0  0  0  0  0  0
  -18.6881   -1.1679   12.6295 C   0  0  0  0  0  0  0  0  0  0  0  0
  -19.2880   -0.3425   13.3397 O   0  0  0  0  0  0  0  0  0  0  0  0
  -17.4390   -1.2520   12.6765 O   0  0  0  0  0  0  0  0  0  0  0  0
  -16.9909   -1.8755   12.1395 H   0  0  0  0  0  0  0  0  0  0  0  0
  -21.6987   -6.3685   11.4226 C   0  0  0  0  0  0  0  0  0  0  0  0
  -25.3623   -5.2186   11.1594 C   0  0  0  0  0  0  0  0  0  0  0  0
  -24.0122   -5.4233   10.8476 C   0  0  0  0  0  0  0  0  0  0  0  0
  -23.1891   -6.1225   11.7337 C   0  0  0  0  0  0  0  0  0  0  0  0
  -23.7774   -6.5920   12.9187 C   0  0  0  0  0  0  0  0  0  0  0  0
  -25.1311   -6.3635   13.1941 C   0  0  0  0  0  0  0  0  0  0  0  0
  -25.8843   -5.6754   12.3130 N   0  0  0  0  0  0  0  0  0  0  0  0
 22 21  2  0  0  0
 21 26  1  0  0  0
 23 22  1  0  0  0
 20 23  1  0  0  0
 23 24  2  0  0  0
 24 25  1  0  0  0
 25 26  2  0  0  0
  1 20  1  0  0  0
  2  1  1  0  0  0
  5  1  1  0  0  0
  3  2  2  0  0  0
  6  2  1  0  0  0
  9  3  1  0  0  0
  3  4  1  0  0  0
  4  5  2  0  0  0
  7  6  2  0  0  0
  8  7  1  0  0  0
 10  7  1  0  0  0
  8  9  2  0  0  0
 16  9  1  0  0  0
 17 16  2  0  0  0
 16 18  1  0  0  0
 15 10  2  0  0  0
 10 11  1  0  0  0
 12 11  2  0  0  0
 13 12  1  0  0  0
 14 13  2  0  0  0
 14 15  1  0  0  0
 18 19  1  0  0  0
M  END
> <minimizedAffinity>
-7.86776

$$$$
3O84_HTJ_A_995


 26 29  0  0  0  0  0  0  0  0999 V2000
  -20.8116   -7.0363    9.9428 N   0  0  0  0  0  0  0  0  0  0  0  0
  -21.2635   -6.7428   11.1624 C   0  0  0  0  0  0  0  0  0  0  0  0
  -20.1289   -6.4082   11.8846 C   0  0  0  0  0  0  0  0  0  0  0  0
  -18.9535   -6.4903   11.0543 C   0  0  0  0  0  0  0  0  0  0  0  0
  -19.4134   -6.8777    9.8377 N   0  0  0  0  0  0  0  0  0  0  0  0
  -22.4895   -6.7477   11.6924 N   0  0  0  0  0  0  0  0  0  0  0  0
  -22.6932   -6.4203   12.9766 C   0  0  0  0  0  0  0  0  0  0  0  0
  -21.5992   -6.0790   13.7847 C   0  0  0  0  0  0  0  0  0  0  0  0
  -20.3054   -6.0741   13.2397 C   0  0  0  0  0  0  0  0  0  0  0  0
  -24.0935   -6.4501   13.4797 C   0  0  0  0  0  0  0  0  0  0  0  0
  -25.1489   -6.3611   12.5601 C   0  0  0  0  0  0  0  0  0  0  0  0
  -26.4736   -6.3936   13.0054 C   0  0  0  0  0  0  0  0  0  0  0  0
  -26.7510   -6.5224   14.3678 C   0  0  0  0  0  0  0  0  0  0  0  0
  -25.7074   -6.6045   15.2936 C   0  0  0  0  0  0  0  0  0  0  0  0
  -24.3741   -6.5785   14.8471 C   0  0  0  0  0  0  0  0  0  0  0  0
  -19.1248   -5.7059   14.0991 C   0  0  0  0  0  0  0  0  0  0  0  0
  -18.7873   -6.4696   15.0200 O   0  0  0  0  0  0  0  0  0  0  0  0
  -18.4986   -4.6389   13.9016 O   0  0  0  0  0  0  0  0  0  0  0  0
  -18.7565   -4.0662   13.2063 H   0  0  0  0  0  0  0  0  0  0  0  0
  -21.5458   -7.3726    8.7207 C   0  0  0  0  0  0  0  0  0  0  0  0
  -20.7471   -4.1246    6.8166 C   0  0  0  0  0  0  0  0  0  0  0  0
  -21.2210   -5.0009    7.8011 C   0  0  0  0  0  0  0  0  0  0  0  0
  -21.0392   -6.3784    7.6561 C   0  0  0  0  0  0  0  0  0  0  0  0
  -20.3748   -6.8180    6.5002 C   0  0  0  0  0  0  0  0  0  0  0  0
  -19.9189   -5.9088    5.5379 C   0  0  0  0  0  0  0  0  0  0  0  0
  -20.1254   -4.5888    5.7165 N   0  0  0  0  0  0  0  0  0  0  0  0
 22 21  2  0  0  0
 21 26  1  0  0  0
 23 22  1  0  0  0
 20 23  1  0  0  0
 23 24  2  0  0  0
 24 25  1  0  0  0
 25 26  2  0  0  0
  1 20  1  0  0  0
  2  1  1  0  0  0
  5  1  1  0  0  0
  3  2  2  0  0  0
  6  2  1  0  0  0
  9  3  1  0  0  0
  3  4  1  0  0  0
  4  5  2  0  0  0
  7  6  2  0  0  0
  8  7  1  0  0  0
 10  7  1  0  0  0
  8  9  2  0  0  0
 16  9  1  0  0  0
 17 16  2  0  0  0
 16 18  1  0  0  0
 15 10  2  0  0  0
 10 11  1  0  0  0
 12 11  2  0  0  0
 13 12  1  0  0  0
 14 13  2  0  0  0
 14 15  1  0  0  0
 18 19  1  0  0  0
M  END
> <minimizedAffinity>
-7.81644

$$$$
3O84_HTJ_A_995


 26 29  0  0  0  0  0  0  0  0999 V2000
  -21.2391   -4.2187    9.6060 N   0  0  0  0  0  0  0  0  0  0  0  0
  -21.9651   -5.2428   10.0555 C   0  0  0  0  0  0  0  0  0  0  0  0
  -21.5185   -6.3343    9.3274 C   0  0  0  0  0  0  0  0  0  0  0  0
  -20.4704   -5.9458    8.4175 C   0  0  0  0  0  0  0  0  0  0  0  0
  -20.3093   -4.6137    8.6208 N   0  0  0  0  0  0  0  0  0  0  0  0
  -22.9333   -5.3250   10.9719 N   0  0  0  0  0  0  0  0  0  0  0  0
  -23.5357   -6.4915   11.2444 C   0  0  0  0  0  0  0  0  0  0  0  0
  -23.1540   -7.6460   10.5462 C   0  0  0  0  0  0  0  0  0  0  0  0
  -22.1403   -7.5712    9.5778 C   0  0  0  0  0  0  0  0  0  0  0  0
  -24.6014   -6.4885   12.2833 C   0  0  0  0  0  0  0  0  0  0  0  0
  -25.9379   -6.3342   11.8865 C   0  0  0  0  0  0  0  0  0  0  0  0
  -26.9589   -6.3348   12.8414 C   0  0  0  0  0  0  0  0  0  0  0  0
  -26.6521   -6.4964   14.1940 C   0  0  0  0  0  0  0  0  0  0  0  0
  -25.3233   -6.6436   14.6013 C   0  0  0  0  0  0  0  0  0  0  0  0
  -24.2954   -6.6498   13.6417 C   0  0  0  0  0  0  0  0  0  0  0  0
  -21.7214   -8.8065    8.8252 C   0  0  0  0  0  0  0  0  0  0  0  0
  -21.0549   -9.6750    9.4142 O   0  0  0  0  0  0  0  0  0  0  0  0
  -22.0253   -8.9536    7.6188 O   0  0  0  0  0  0  0  0  0  0  0  0
  -22.5278   -8.2965    7.1787 H   0  0  0  0  0  0  0  0  0  0  0  0
  -21.1943   -2.8253   10.0556 C   0  0  0  0  0  0  0  0  0  0  0  0
  -19.9013   -0.5570    7.2278 C   0  0  0  0  0  0  0  0  0  0  0  0
  -19.9428   -1.3104    8.4078 C   0  0  0  0  0  0  0  0  0  0  0  0
  -21.1129   -1.9849    8.7650 C   0  0  0  0  0  0  0  0  0  0  0  0
  -22.2107   -1.8649    7.8983 C   0  0  0  0  0  0  0  0  0  0  0  0
  -22.1288   -1.0989    6.7290 C   0  0  0  0  0  0  0  0  0  0  0  0
  -20.9812   -0.4582    6.4302 N   0  0  0  0  0  0  0  0  0  0  0  0
 22 21  2  0  0  0
 21 26  1  0  0  0
 23 22  1  0  0  0
 20 23  1  0  0  0
 23 24  2  0  0  0
 24 25  1  0  0  0
 25 26  2  0  0  0
  1 20  1  0  0  0
  2  1  1  0  0  0
  5  1  1  0  0  0
  3  2  2  0  0  0
  6  2  1  0  0  0
  9  3  1  0  0  0
  3  4  1  0  0  0
  4  5  2  0  0  0
  7  6  2  0  0  0
  8  7  1  0  0  0
 10  7  1  0  0  0
  8  9  2  0  0  0
 16  9  1  0  0  0
 17 16  2  0  0  0
 16 18  1  0  0  0
 15 10  2  0  0  0
 10 11  1  0  0  0
 12 11  2  0  0  0
 13 12  1  0  0  0
 14 13  2  0  0  0
 14 15  1  0  0  0
 18 19  1  0  0  0
M  END
> <minimizedAffinity>
-7.48532

$$$$
