2VZR_GCU_A_1129


 18 18  0  0  0  0  0  0  0  0999 V2000
   18.0508    7.8304   54.4176 C   0  0  0  0  0  0  0  0  0  0  0  0
   18.7949    6.6895   53.7096 C   0  0  0  0  0  0  0  0  0  0  0  0
   19.0862    7.0740   52.2624 C   0  0  0  0  0  0  0  0  0  0  0  0
   17.7856    7.4213   51.5595 C   0  0  0  0  0  0  0  0  0  0  0  0
   17.0599    8.5612   52.2948 C   0  0  0  0  0  0  0  0  0  0  0  0
   18.9295    8.9270   54.5496 O   0  0  0  0  0  0  0  0  0  0  0  0
   20.0027    6.3696   54.3661 O   0  0  0  0  0  0  0  0  0  0  0  0
   19.7402    6.0152   51.5940 O   0  0  0  0  0  0  0  0  0  0  0  0
   18.0546    7.7411   50.2100 O   0  0  0  0  0  0  0  0  0  0  0  0
   16.8874    8.2215   53.6773 O   0  0  0  0  0  0  0  0  0  0  0  0
   19.2145    9.2206   53.6701 H   0  0  0  0  0  0  0  0  0  0  0  0
   20.5910    7.1407   54.3546 H   0  0  0  0  0  0  0  0  0  0  0  0
   19.1700    5.2305   51.5959 H   0  0  0  0  0  0  0  0  0  0  0  0
   18.6502    8.5057   50.1714 H   0  0  0  0  0  0  0  0  0  0  0  0
   15.6985    8.8529   51.6586 C   0  0  0  0  0  0  0  0  0  0  0  0
   15.5670    8.8493   50.4056 O   0  0  0  0  0  0  0  0  0  0  0  0
   14.7333    9.0666   52.4196 O   0  0  0  0  0  0  0  0  0  0  0  0
   14.8591    9.0635   53.3481 H   0  0  0  0  0  0  0  0  0  0  0  0
  1  2  1  0  0  0
  1  6  1  0  0  0
  1 10  1  0  0  0
  2  3  1  0  0  0
  2  7  1  0  0  0
  3  4  1  0  0  0
  3  8  1  0  0  0
  4  5  1  0  0  0
  4  9  1  0  0  0
  5 15  1  0  0  0
  5 10  1  0  0  0
 15 16  2  0  0  0
 15 17  1  0  0  0
  6 11  1  0  0  0
  7 12  1  0  0  0
  8 13  1  0  0  0
  9 14  1  0  0  0
 17 18  1  0  0  0
M  END
> <minimizedAffinity>
-6.14048

$$$$
2VZR_GCU_A_1129


 18 18  0  0  0  0  0  0  0  0999 V2000
   18.5429    7.5451   52.9302 C   0  0  0  0  0  0  0  0  0  0  0  0
   18.1928    7.1383   51.4919 C   0  0  0  0  0  0  0  0  0  0  0  0
   17.2603    8.1720   50.8683 C   0  0  0  0  0  0  0  0  0  0  0  0
   16.0192    8.3195   51.7310 C   0  0  0  0  0  0  0  0  0  0  0  0
   16.4014    8.7202   53.1663 C   0  0  0  0  0  0  0  0  0  0  0  0
   19.3400    8.7091   52.8870 O   0  0  0  0  0  0  0  0  0  0  0  0
   19.3487    7.0019   50.6937 O   0  0  0  0  0  0  0  0  0  0  0  0
   16.9055    7.7868   49.5563 O   0  0  0  0  0  0  0  0  0  0  0  0
   15.1412    9.2501   51.1317 O   0  0  0  0  0  0  0  0  0  0  0  0
   17.3570    7.7919   53.6966 O   0  0  0  0  0  0  0  0  0  0  0  0
   18.8450    9.4243   52.4578 H   0  0  0  0  0  0  0  0  0  0  0  0
   19.8086    7.8544   50.6423 H   0  0  0  0  0  0  0  0  0  0  0  0
   16.4459    6.9330   49.5832 H   0  0  0  0  0  0  0  0  0  0  0  0
   15.5823   10.1110   51.0602 H   0  0  0  0  0  0  0  0  0  0  0  0
   15.1699    8.7723   54.0739 C   0  0  0  0  0  0  0  0  0  0  0  0
   15.2337    9.3278   55.2030 O   0  0  0  0  0  0  0  0  0  0  0  0
   14.1096    8.2724   53.6469 O   0  0  0  0  0  0  0  0  0  0  0  0
   14.0901    7.8652   52.8032 H   0  0  0  0  0  0  0  0  0  0  0  0
  1  2  1  0  0  0
  1  6  1  0  0  0
  1 10  1  0  0  0
  2  3  1  0  0  0
  2  7  1  0  0  0
  3  4  1  0  0  0
  3  8  1  0  0  0
  4  5  1  0  0  0
  4  9  1  0  0  0
  5 15  1  0  0  0
  5 10  1  0  0  0
 15 16  2  0  0  0
 15 17  1  0  0  0
  6 11  1  0  0  0
  7 12  1  0  0  0
  8 13  1  0  0  0
  9 14  1  0  0  0
 17 18  1  0  0  0
M  END
> <minimizedAffinity>
-6.00656

$$$$
2VZR_GCU_A_1129


 18 18  0  0  0  0  0  0  0  0999 V2000
   17.0653    8.5142   54.0767 C   0  0  0  0  0  0  0  0  0  0  0  0
   16.2232    9.2858   53.0509 C   0  0  0  0  0  0  0  0  0  0  0  0
   16.0757    8.4661   51.7728 C   0  0  0  0  0  0  0  0  0  0  0  0
   17.4520    8.1235   51.2299 C   0  0  0  0  0  0  0  0  0  0  0  0
   18.2741    7.3581   52.2810 C   0  0  0  0  0  0  0  0  0  0  0  0
   16.3320    7.3864   54.5038 O   0  0  0  0  0  0  0  0  0  0  0  0
   14.9453    9.6025   53.5595 O   0  0  0  0  0  0  0  0  0  0  0  0
   15.3311    9.1841   50.8109 O   0  0  0  0  0  0  0  0  0  0  0  0
   17.3121    7.3962   50.0268 O   0  0  0  0  0  0  0  0  0  0  0  0
   18.3139    8.0996   53.5077 O   0  0  0  0  0  0  0  0  0  0  0  0
   16.1435    6.8159   53.7422 H   0  0  0  0  0  0  0  0  0  0  0  0
   14.4654    8.7839   53.7608 H   0  0  0  0  0  0  0  0  0  0  0  0
   15.7918   10.0103   50.5961 H   0  0  0  0  0  0  0  0  0  0  0  0
   16.8258    6.5750   50.2001 H   0  0  0  0  0  0  0  0  0  0  0  0
   19.6990    7.0959   51.7869 C   0  0  0  0  0  0  0  0  0  0  0  0
   20.6552    7.0322   52.6048 O   0  0  0  0  0  0  0  0  0  0  0  0
   19.8694    6.9255   50.5629 O   0  0  0  0  0  0  0  0  0  0  0  0
   19.1404    6.9784   49.9766 H   0  0  0  0  0  0  0  0  0  0  0  0
  1  2  1  0  0  0
  1  6  1  0  0  0
  1 10  1  0  0  0
  2  3  1  0  0  0
  2  7  1  0  0  0
  3  4  1  0  0  0
  3  8  1  0  0  0
  4  5  1  0  0  0
  4  9  1  0  0  0
  5 15  1  0  0  0
  5 10  1  0  0  0
 15 16  2  0  0  0
 15 17  1  0  0  0
  6 11  1  0  0  0
  7 12  1  0  0  0
  8 13  1  0  0  0
  9 14  1  0  0  0
 17 18  1  0  0  0
M  END
> <minimizedAffinity>
-5.73974

$$$$
2VZR_GCU_A_1129


 18 18  0  0  0  0  0  0  0  0999 V2000
   18.4328   10.0635   53.1438 C   0  0  0  0  0  0  0  0  0  0  0  0
   17.3828   10.1207   52.0253 C   0  0  0  0  0  0  0  0  0  0  0  0
   16.9902    8.7082   51.6038 C   0  0  0  0  0  0  0  0  0  0  0  0
   18.2311    7.9451   51.1745 C   0  0  0  0  0  0  0  0  0  0  0  0
   19.2666    7.9106   52.3117 C   0  0  0  0  0  0  0  0  0  0  0  0
   17.8246    9.5413   54.3054 O   0  0  0  0  0  0  0  0  0  0  0  0
   16.2316   10.8310   52.4280 O   0  0  0  0  0  0  0  0  0  0  0  0
   16.0498    8.7524   50.5506 O   0  0  0  0  0  0  0  0  0  0  0  0
   17.8596    6.6498   50.7499 O   0  0  0  0  0  0  0  0  0  0  0  0
   19.5446    9.2433   52.7623 O   0  0  0  0  0  0  0  0  0  0  0  0
   17.4938    8.6478   54.1235 H   0  0  0  0  0  0  0  0  0  0  0  0
   15.8190   10.3783   53.1802 H   0  0  0  0  0  0  0  0  0  0  0  0
   16.4408    9.2048   49.7868 H   0  0  0  0  0  0  0  0  0  0  0  0
   17.4350    6.1784   51.4837 H   0  0  0  0  0  0  0  0  0  0  0  0
   20.5635    7.2345   51.8601 C   0  0  0  0  0  0  0  0  0  0  0  0
   21.5078    7.0591   52.6756 O   0  0  0  0  0  0  0  0  0  0  0  0
   20.6375    6.8472   50.6765 O   0  0  0  0  0  0  0  0  0  0  0  0
   19.9201    6.9906   50.0910 H   0  0  0  0  0  0  0  0  0  0  0  0
  1  2  1  0  0  0
  1  6  1  0  0  0
  1 10  1  0  0  0
  2  3  1  0  0  0
  2  7  1  0  0  0
  3  4  1  0  0  0
  3  8  1  0  0  0
  4  5  1  0  0  0
  4  9  1  0  0  0
  5 15  1  0  0  0
  5 10  1  0  0  0
 15 16  2  0  0  0
 15 17  1  0  0  0
  6 11  1  0  0  0
  7 12  1  0  0  0
  8 13  1  0  0  0
  9 14  1  0  0  0
 17 18  1  0  0  0
M  END
> <minimizedAffinity>
-5.64911

$$$$
2VZR_GCU_A_1129


 18 18  0  0  0  0  0  0  0  0999 V2000
   19.5604    7.3356   51.9105 C   0  0  0  0  0  0  0  0  0  0  0  0
   19.7503    7.5568   53.4178 C   0  0  0  0  0  0  0  0  0  0  0  0
   18.4360    7.3110   54.1520 C   0  0  0  0  0  0  0  0  0  0  0  0
   17.3597    8.2169   53.5799 C   0  0  0  0  0  0  0  0  0  0  0  0
   17.1972    7.9780   52.0689 C   0  0  0  0  0  0  0  0  0  0  0  0
   19.3201    5.9634   51.6839 O   0  0  0  0  0  0  0  0  0  0  0  0
   20.7515    6.7134   53.9454 O   0  0  0  0  0  0  0  0  0  0  0  0
   18.5939    7.5464   55.5359 O   0  0  0  0  0  0  0  0  0  0  0  0
   16.1533    8.0134   54.2864 O   0  0  0  0  0  0  0  0  0  0  0  0
   18.4646    8.1135   51.4119 O   0  0  0  0  0  0  0  0  0  0  0  0
   18.5171    5.6935   52.1563 H   0  0  0  0  0  0  0  0  0  0  0  0
   20.4896    5.7870   53.8264 H   0  0  0  0  0  0  0  0  0  0  0  0
   18.8594    8.4684   55.6788 H   0  0  0  0  0  0  0  0  0  0  0  0
   15.8744    7.0893   54.1905 H   0  0  0  0  0  0  0  0  0  0  0  0
   16.1894    8.9551   51.4584 C   0  0  0  0  0  0  0  0  0  0  0  0
   15.7044    8.7389   50.3158 O   0  0  0  0  0  0  0  0  0  0  0  0
   15.8534    9.9461   52.1376 O   0  0  0  0  0  0  0  0  0  0  0  0
   16.2300   10.0829   52.9847 H   0  0  0  0  0  0  0  0  0  0  0  0
  1  2  1  0  0  0
  1  6  1  0  0  0
  1 10  1  0  0  0
  2  3  1  0  0  0
  2  7  1  0  0  0
  3  4  1  0  0  0
  3  8  1  0  0  0
  4  5  1  0  0  0
  4  9  1  0  0  0
  5 15  1  0  0  0
  5 10  1  0  0  0
 15 16  2  0  0  0
 15 17  1  0  0  0
  6 11  1  0  0  0
  7 12  1  0  0  0
  8 13  1  0  0  0
  9 14  1  0  0  0
 17 18  1  0  0  0
M  END
> <minimizedAffinity>
-5.40625

$$$$
2VZR_GCU_A_1129


 18 18  0  0  0  0  0  0  0  0999 V2000
   17.3656    8.0690   51.1141 C   0  0  0  0  0  0  0  0  0  0  0  0
   15.8906    8.3512   51.4326 C   0  0  0  0  0  0  0  0  0  0  0  0
   15.7687    9.0149   52.8006 C   0  0  0  0  0  0  0  0  0  0  0  0
   16.4136    8.1290   53.8521 C   0  0  0  0  0  0  0  0  0  0  0  0
   17.8871    7.8581   53.5028 C   0  0  0  0  0  0  0  0  0  0  0  0
   18.0301    9.3007   50.9315 O   0  0  0  0  0  0  0  0  0  0  0  0
   15.2950    9.1744   50.4530 O   0  0  0  0  0  0  0  0  0  0  0  0
   14.4114    9.2463   53.1162 O   0  0  0  0  0  0  0  0  0  0  0  0
   16.2665    8.7288   55.1227 O   0  0  0  0  0  0  0  0  0  0  0  0
   17.9869    7.3298   52.1735 O   0  0  0  0  0  0  0  0  0  0  0  0
   17.9673    9.8257   51.7448 H   0  0  0  0  0  0  0  0  0  0  0  0
   15.7486   10.0315   50.4316 H   0  0  0  0  0  0  0  0  0  0  0  0
   13.9363    8.4009   53.1400 H   0  0  0  0  0  0  0  0  0  0  0  0
   16.7049    9.5941   55.1245 H   0  0  0  0  0  0  0  0  0  0  0  0
   18.5224    6.8833   54.4975 C   0  0  0  0  0  0  0  0  0  0  0  0
   17.9464    6.6186   55.5863 O   0  0  0  0  0  0  0  0  0  0  0  0
   19.6049    6.3502   54.1806 O   0  0  0  0  0  0  0  0  0  0  0  0
   20.0118    6.5652   53.3644 H   0  0  0  0  0  0  0  0  0  0  0  0
  1  2  1  0  0  0
  1  6  1  0  0  0
  1 10  1  0  0  0
  2  3  1  0  0  0
  2  7  1  0  0  0
  3  4  1  0  0  0
  3  8  1  0  0  0
  4  5  1  0  0  0
  4  9  1  0  0  0
  5 15  1  0  0  0
  5 10  1  0  0  0
 15 16  2  0  0  0
 15 17  1  0  0  0
  6 11  1  0  0  0
  7 12  1  0  0  0
  8 13  1  0  0  0
  9 14  1  0  0  0
 17 18  1  0  0  0
M  END
> <minimizedAffinity>
-5.37432

$$$$
2VZR_GCU_A_1129


 18 18  0  0  0  0  0  0  0  0999 V2000
   16.7508    8.4023   55.0543 C   0  0  0  0  0  0  0  0  0  0  0  0
   15.4981    9.2818   54.9363 C   0  0  0  0  0  0  0  0  0  0  0  0
   14.7777    8.9923   53.6232 C   0  0  0  0  0  0  0  0  0  0  0  0
   15.7328    9.2119   52.4631 C   0  0  0  0  0  0  0  0  0  0  0  0
   16.9799    8.3237   52.6122 C   0  0  0  0  0  0  0  0  0  0  0  0
   16.3448    7.0587   55.2026 O   0  0  0  0  0  0  0  0  0  0  0  0
   14.6135    9.0750   56.0164 O   0  0  0  0  0  0  0  0  0  0  0  0
   13.6426    9.8228   53.4911 O   0  0  0  0  0  0  0  0  0  0  0  0
   15.0524    8.9788   51.2470 O   0  0  0  0  0  0  0  0  0  0  0  0
   17.5834    8.5372   53.8954 O   0  0  0  0  0  0  0  0  0  0  0  0
   15.8297    6.7890   54.4262 H   0  0  0  0  0  0  0  0  0  0  0  0
   14.3125    8.1529   56.0159 H   0  0  0  0  0  0  0  0  0  0  0  0
   13.9201   10.7522   53.4924 H   0  0  0  0  0  0  0  0  0  0  0  0
   14.7325    8.0634   51.2259 H   0  0  0  0  0  0  0  0  0  0  0  0
   17.9989    8.6084   51.5059 C   0  0  0  0  0  0  0  0  0  0  0  0
   18.8677    7.7477   51.2033 O   0  0  0  0  0  0  0  0  0  0  0  0
   17.9200    9.7004   50.9078 O   0  0  0  0  0  0  0  0  0  0  0  0
   17.2639   10.3227   51.1534 H   0  0  0  0  0  0  0  0  0  0  0  0
  1  2  1  0  0  0
  1  6  1  0  0  0
  1 10  1  0  0  0
  2  3  1  0  0  0
  2  7  1  0  0  0
  3  4  1  0  0  0
  3  8  1  0  0  0
  4  5  1  0  0  0
  4  9  1  0  0  0
  5 15  1  0  0  0
  5 10  1  0  0  0
 15 16  2  0  0  0
 15 17  1  0  0  0
  6 11  1  0  0  0
  7 12  1  0  0  0
  8 13  1  0  0  0
  9 14  1  0  0  0
 17 18  1  0  0  0
M  END
> <minimizedAffinity>
-5.23750

$$$$
2VZR_GCU_A_1129


 18 18  0  0  0  0  0  0  0  0999 V2000
   18.1036    7.5271   52.6193 C   0  0  0  0  0  0  0  0  0  0  0  0
   17.2086    7.7244   51.3877 C   0  0  0  0  0  0  0  0  0  0  0  0
   16.2088    8.8480   51.6424 C   0  0  0  0  0  0  0  0  0  0  0  0
   15.3962    8.5301   52.8853 C   0  0  0  0  0  0  0  0  0  0  0  0
   16.3191    8.3309   54.0999 C   0  0  0  0  0  0  0  0  0  0  0  0
   18.9294    8.6627   52.7620 O   0  0  0  0  0  0  0  0  0  0  0  0
   17.9676    8.0192   50.2348 O   0  0  0  0  0  0  0  0  0  0  0  0
   15.3585    9.0124   50.5264 O   0  0  0  0  0  0  0  0  0  0  0  0
   14.4465    9.5542   53.0975 O   0  0  0  0  0  0  0  0  0  0  0  0
   17.3152    7.3432   53.8022 O   0  0  0  0  0  0  0  0  0  0  0  0
   18.3771    9.4508   52.8837 H   0  0  0  0  0  0  0  0  0  0  0  0
   18.4505    8.8496   50.3693 H   0  0  0  0  0  0  0  0  0  0  0  0
   14.8665    8.1911   50.3710 H   0  0  0  0  0  0  0  0  0  0  0  0
   14.9053   10.3992   53.2257 H   0  0  0  0  0  0  0  0  0  0  0  0
   15.5234    7.9086   55.3375 C   0  0  0  0  0  0  0  0  0  0  0  0
   15.5206    6.7060   55.7132 O   0  0  0  0  0  0  0  0  0  0  0  0
   14.9072    8.7939   55.9643 O   0  0  0  0  0  0  0  0  0  0  0  0
   14.9261    9.6808   55.6627 H   0  0  0  0  0  0  0  0  0  0  0  0
  1  2  1  0  0  0
  1  6  1  0  0  0
  1 10  1  0  0  0
  2  3  1  0  0  0
  2  7  1  0  0  0
  3  4  1  0  0  0
  3  8  1  0  0  0
  4  5  1  0  0  0
  4  9  1  0  0  0
  5 15  1  0  0  0
  5 10  1  0  0  0
 15 16  2  0  0  0
 15 17  1  0  0  0
  6 11  1  0  0  0
  7 12  1  0  0  0
  8 13  1  0  0  0
  9 14  1  0  0  0
 17 18  1  0  0  0
M  END
> <minimizedAffinity>
-5.20718

$$$$
2VZR_GCU_A_1129


 18 18  0  0  0  0  0  0  0  0999 V2000
   15.7209    8.6601   52.3260 C   0  0  0  0  0  0  0  0  0  0  0  0
   16.1500    9.8526   53.1923 C   0  0  0  0  0  0  0  0  0  0  0  0
   17.4395   10.4581   52.6467 C   0  0  0  0  0  0  0  0  0  0  0  0
   18.5153    9.3879   52.5870 C   0  0  0  0  0  0  0  0  0  0  0  0
   18.0546    8.2042   51.7190 C   0  0  0  0  0  0  0  0  0  0  0  0
   15.3351    9.1419   51.0567 O   0  0  0  0  0  0  0  0  0  0  0  0
   15.1475   10.8447   53.2456 O   0  0  0  0  0  0  0  0  0  0  0  0
   17.8599   11.5346   53.4590 O   0  0  0  0  0  0  0  0  0  0  0  0
   19.7182    9.9600   52.1163 O   0  0  0  0  0  0  0  0  0  0  0  0
   16.7902    7.7158   52.1870 O   0  0  0  0  0  0  0  0  0  0  0  0
   16.0859    9.5933   50.6403 H   0  0  0  0  0  0  0  0  0  0  0  0
   14.9845   11.1878   52.3530 H   0  0  0  0  0  0  0  0  0  0  0  0
   18.0262   11.2145   54.3595 H   0  0  0  0  0  0  0  0  0  0  0  0
   19.5786   10.3198   51.2263 H   0  0  0  0  0  0  0  0  0  0  0  0
   19.0852    7.0725   51.7327 C   0  0  0  0  0  0  0  0  0  0  0  0
   20.0187    7.0508   50.8869 O   0  0  0  0  0  0  0  0  0  0  0  0
   18.9801    6.1991   52.6173 O   0  0  0  0  0  0  0  0  0  0  0  0
   18.2758    6.2393   53.2340 H   0  0  0  0  0  0  0  0  0  0  0  0
  1  2  1  0  0  0
  1  6  1  0  0  0
  1 10  1  0  0  0
  2  3  1  0  0  0
  2  7  1  0  0  0
  3  4  1  0  0  0
  3  8  1  0  0  0
  4  5  1  0  0  0
  4  9  1  0  0  0
  5 15  1  0  0  0
  5 10  1  0  0  0
 15 16  2  0  0  0
 15 17  1  0  0  0
  6 11  1  0  0  0
  7 12  1  0  0  0
  8 13  1  0  0  0
  9 14  1  0  0  0
 17 18  1  0  0  0
M  END
> <minimizedAffinity>
-5.18604

$$$$
2VZR_GCU_A_1129


 18 18  0  0  0  0  0  0  0  0999 V2000
   16.8710    9.0390   53.4734 C   0  0  0  0  0  0  0  0  0  0  0  0
   17.2690    9.1128   51.9926 C   0  0  0  0  0  0  0  0  0  0  0  0
   17.5917    7.7174   51.4676 C   0  0  0  0  0  0  0  0  0  0  0  0
   18.6884    7.0986   52.3165 C   0  0  0  0  0  0  0  0  0  0  0  0
   18.2645    7.0445   53.7943 C   0  0  0  0  0  0  0  0  0  0  0  0
   15.6343    8.3663   53.5740 O   0  0  0  0  0  0  0  0  0  0  0  0
   16.2473    9.6887   51.2073 O   0  0  0  0  0  0  0  0  0  0  0  0
   17.9925    7.7811   50.1146 O   0  0  0  0  0  0  0  0  0  0  0  0
   19.0107    5.8215   51.8054 O   0  0  0  0  0  0  0  0  0  0  0  0
   17.8674    8.3488   54.2386 O   0  0  0  0  0  0  0  0  0  0  0  0
   15.7241    7.4693   53.2159 H   0  0  0  0  0  0  0  0  0  0  0  0
   15.4506    9.1379   51.2588 H   0  0  0  0  0  0  0  0  0  0  0  0
   18.7880    8.3309   50.0385 H   0  0  0  0  0  0  0  0  0  0  0  0
   18.2255    5.2529   51.8375 H   0  0  0  0  0  0  0  0  0  0  0  0
   19.3988    6.5186   54.6776 C   0  0  0  0  0  0  0  0  0  0  0  0
   19.1437    5.8067   55.6852 O   0  0  0  0  0  0  0  0  0  0  0  0
   20.5697    6.7982   54.3504 O   0  0  0  0  0  0  0  0  0  0  0  0
   20.7311    7.3299   53.5959 H   0  0  0  0  0  0  0  0  0  0  0  0
  1  2  1  0  0  0
  1  6  1  0  0  0
  1 10  1  0  0  0
  2  3  1  0  0  0
  2  7  1  0  0  0
  3  4  1  0  0  0
  3  8  1  0  0  0
  4  5  1  0  0  0
  4  9  1  0  0  0
  5 15  1  0  0  0
  5 10  1  0  0  0
 15 16  2  0  0  0
 15 17  1  0  0  0
  6 11  1  0  0  0
  7 12  1  0  0  0
  8 13  1  0  0  0
  9 14  1  0  0  0
 17 18  1  0  0  0
M  END
> <minimizedAffinity>
-5.17651

$$$$
