5AUT_2AN_A_301


 23 25  0  0  0  0  0  0  0  0999 V2000
  -23.4698    2.3062  -11.2763 C   0  0  0  0  0  0  0  0  0  0  0  0
  -24.3729    2.0153  -12.3022 C   0  0  0  0  0  0  0  0  0  0  0  0
  -25.5889    2.6614  -12.4282 C   0  0  0  0  0  0  0  0  0  0  0  0
  -25.8988    3.6536  -11.5186 C   0  0  0  0  0  0  0  0  0  0  0  0
  -25.0146    3.9885  -10.5104 C   0  0  0  0  0  0  0  0  0  0  0  0
  -25.4471    4.9916   -9.6566 C   0  0  0  0  0  0  0  0  0  0  0  0
  -24.6623    5.4157   -8.6022 C   0  0  0  0  0  0  0  0  0  0  0  0
  -23.4351    4.7951   -8.4251 C   0  0  0  0  0  0  0  0  0  0  0  0
  -22.9871    3.7816   -9.2597 C   0  0  0  0  0  0  0  0  0  0  0  0
  -23.7786    3.3367  -10.3496 C   0  0  0  0  0  0  0  0  0  0  0  0
  -21.3951    3.1984   -8.7826 S   0  0  0  0  0  0  0  0  0  0  0  0
  -21.5554    1.7234   -8.4430 O   0  0  0  0  0  0  0  0  0  0  0  0
  -20.8883    4.0060   -7.5741 O   0  0  0  0  0  0  0  0  0  0  0  0
  -20.4590    3.3720   -9.9784 O   0  0  0  0  0  0  0  0  0  0  0  0
  -20.7941    2.8567  -10.7288 H   0  0  0  0  0  0  0  0  0  0  0  0
  -22.2884    1.6351  -11.1852 N   0  0  0  0  0  0  0  0  0  0  0  0
  -21.7664    1.7303  -10.3559 H   0  0  0  0  0  0  0  0  0  0  0  0
  -21.7791    0.8334  -12.1782 C   0  0  0  0  0  0  0  0  0  0  0  0
  -21.0970    1.2688  -13.3243 C   0  0  0  0  0  0  0  0  0  0  0  0
  -20.6110    0.3961  -14.2969 C   0  0  0  0  0  0  0  0  0  0  0  0
  -20.7752   -0.9711  -14.1356 C   0  0  0  0  0  0  0  0  0  0  0  0
  -21.4475   -1.4367  -13.0107 C   0  0  0  0  0  0  0  0  0  0  0  0
  -21.9408   -0.5483  -12.0446 C   0  0  0  0  0  0  0  0  0  0  0  0
  1  2  2  0  0  0
  1 16  1  0  0  0
  1 10  1  0  0  0
  2  3  1  0  0  0
  3  4  2  0  0  0
  4  5  1  0  0  0
  5  6  2  0  0  0
  5 10  1  0  0  0
  6  7  1  0  0  0
  7  8  2  0  0  0
  8  9  1  0  0  0
 16 18  1  0  0  0
 11  9  1  0  0  0
 11 12  2  0  0  0
 11 13  2  0  0  0
 11 14  1  0  0  0
  9 10  2  0  0  0
 18 19  2  0  0  0
 18 23  1  0  0  0
 19 20  1  0  0  0
 20 21  2  0  0  0
 21 22  1  0  0  0
 22 23  2  0  0  0
 16 17  1  0  0  0
 14 15  1  0  0  0
M  END
> <minimizedAffinity>
-8.70316

$$$$
5AUT_2AN_A_301


 23 25  0  0  0  0  0  0  0  0999 V2000
  -21.6461    2.3965  -10.5356 C   0  0  0  0  0  0  0  0  0  0  0  0
  -20.6574    2.5220   -9.5561 C   0  0  0  0  0  0  0  0  0  0  0  0
  -20.8126    3.3250   -8.4412 C   0  0  0  0  0  0  0  0  0  0  0  0
  -22.0076    3.9995   -8.2831 C   0  0  0  0  0  0  0  0  0  0  0  0
  -23.0187    3.8729   -9.2169 C   0  0  0  0  0  0  0  0  0  0  0  0
  -24.1630    4.6088   -8.9496 C   0  0  0  0  0  0  0  0  0  0  0  0
  -25.2452    4.5776   -9.8072 C   0  0  0  0  0  0  0  0  0  0  0  0
  -25.1397    3.7936  -10.9458 C   0  0  0  0  0  0  0  0  0  0  0  0
  -24.0004    3.0583  -11.2394 C   0  0  0  0  0  0  0  0  0  0  0  0
  -22.8815    3.0758  -10.3676 C   0  0  0  0  0  0  0  0  0  0  0  0
  -24.1707    2.1640  -12.7472 S   0  0  0  0  0  0  0  0  0  0  0  0
  -24.0916    0.6869  -12.3888 O   0  0  0  0  0  0  0  0  0  0  0  0
  -23.0501    2.5716  -13.7206 O   0  0  0  0  0  0  0  0  0  0  0  0
  -25.5423    2.4982  -13.3333 O   0  0  0  0  0  0  0  0  0  0  0  0
  -26.2345    2.2346  -12.7069 H   0  0  0  0  0  0  0  0  0  0  0  0
  -21.4438    1.6025  -11.6234 N   0  0  0  0  0  0  0  0  0  0  0  0
  -21.6844    1.9617  -12.5079 H   0  0  0  0  0  0  0  0  0  0  0  0
  -20.9249    0.3315  -11.5638 C   0  0  0  0  0  0  0  0  0  0  0  0
  -21.3012   -0.6737  -10.6602 C   0  0  0  0  0  0  0  0  0  0  0  0
  -20.7259   -1.9437  -10.6536 C   0  0  0  0  0  0  0  0  0  0  0  0
  -19.7520   -2.2606  -11.5882 C   0  0  0  0  0  0  0  0  0  0  0  0
  -19.3553   -1.2868  -12.4984 C   0  0  0  0  0  0  0  0  0  0  0  0
  -19.9341   -0.0098  -12.4883 C   0  0  0  0  0  0  0  0  0  0  0  0
  1  2  2  0  0  0
  1 16  1  0  0  0
  1 10  1  0  0  0
  2  3  1  0  0  0
  3  4  2  0  0  0
  4  5  1  0  0  0
  5  6  2  0  0  0
  5 10  1  0  0  0
  6  7  1  0  0  0
  7  8  2  0  0  0
  8  9  1  0  0  0
 16 18  1  0  0  0
 11  9  1  0  0  0
 11 12  2  0  0  0
 11 13  2  0  0  0
 11 14  1  0  0  0
  9 10  2  0  0  0
 18 19  2  0  0  0
 18 23  1  0  0  0
 19 20  1  0  0  0
 20 21  2  0  0  0
 21 22  1  0  0  0
 22 23  2  0  0  0
 16 17  1  0  0  0
 14 15  1  0  0  0
M  END
> <minimizedAffinity>
-8.19097

$$$$
5AUT_2AN_A_301


 23 25  0  0  0  0  0  0  0  0999 V2000
  -21.6931    2.4288  -10.4398 C   0  0  0  0  0  0  0  0  0  0  0  0
  -20.6324    2.4755   -9.5313 C   0  0  0  0  0  0  0  0  0  0  0  0
  -20.6470    3.2868   -8.4117 C   0  0  0  0  0  0  0  0  0  0  0  0
  -21.7720    4.0523   -8.1745 C   0  0  0  0  0  0  0  0  0  0  0  0
  -22.8520    4.0064   -9.0358 C   0  0  0  0  0  0  0  0  0  0  0  0
  -23.9142    4.8291   -8.6934 C   0  0  0  0  0  0  0  0  0  0  0  0
  -25.0521    4.8836   -9.4741 C   0  0  0  0  0  0  0  0  0  0  0  0
  -25.0870    4.0951  -10.6141 C   0  0  0  0  0  0  0  0  0  0  0  0
  -24.0316    3.2734  -10.9824 C   0  0  0  0  0  0  0  0  0  0  0  0
  -22.8572    3.2024  -10.1899 C   0  0  0  0  0  0  0  0  0  0  0  0
  -24.3749    2.3971  -12.4711 S   0  0  0  0  0  0  0  0  0  0  0  0
  -25.7751    2.8068  -12.9047 O   0  0  0  0  0  0  0  0  0  0  0  0
  -24.2820    0.8823  -12.2138 O   0  0  0  0  0  0  0  0  0  0  0  0
  -23.3450    2.8312  -13.5139 O   0  0  0  0  0  0  0  0  0  0  0  0
  -23.4185    3.7869  -13.6625 H   0  0  0  0  0  0  0  0  0  0  0  0
  -21.6290    1.6228  -11.5356 N   0  0  0  0  0  0  0  0  0  0  0  0
  -22.0753    1.9269  -12.3588 H   0  0  0  0  0  0  0  0  0  0  0  0
  -20.9805    0.4116  -11.5644 C   0  0  0  0  0  0  0  0  0  0  0  0
  -19.8895    0.0770  -12.3806 C   0  0  0  0  0  0  0  0  0  0  0  0
  -19.2825   -1.1780  -12.3609 C   0  0  0  0  0  0  0  0  0  0  0  0
  -19.7442   -2.1497  -11.4863 C   0  0  0  0  0  0  0  0  0  0  0  0
  -20.8247   -1.8511  -10.6632 C   0  0  0  0  0  0  0  0  0  0  0  0
  -21.4334   -0.5885  -10.6997 C   0  0  0  0  0  0  0  0  0  0  0  0
  1  2  2  0  0  0
  1 16  1  0  0  0
  1 10  1  0  0  0
  2  3  1  0  0  0
  3  4  2  0  0  0
  4  5  1  0  0  0
  5  6  2  0  0  0
  5 10  1  0  0  0
  6  7  1  0  0  0
  7  8  2  0  0  0
  8  9  1  0  0  0
 16 18  1  0  0  0
 11  9  1  0  0  0
 11 12  2  0  0  0
 11 13  2  0  0  0
 11 14  1  0  0  0
  9 10  2  0  0  0
 18 19  2  0  0  0
 18 23  1  0  0  0
 19 20  1  0  0  0
 20 21  2  0  0  0
 21 22  1  0  0  0
 22 23  2  0  0  0
 16 17  1  0  0  0
 14 15  1  0  0  0
M  END
> <minimizedAffinity>
-7.89880

$$$$
5AUT_2AN_A_301


 23 25  0  0  0  0  0  0  0  0999 V2000
  -22.4952    1.7562  -12.3651 C   0  0  0  0  0  0  0  0  0  0  0  0
  -23.5007    2.4218  -13.0712 C   0  0  0  0  0  0  0  0  0  0  0  0
  -23.5459    2.4493  -14.4529 C   0  0  0  0  0  0  0  0  0  0  0  0
  -22.5731    1.7619  -15.1521 C   0  0  0  0  0  0  0  0  0  0  0  0
  -21.5821    1.0666  -14.4850 C   0  0  0  0  0  0  0  0  0  0  0  0
  -20.6598    0.4280  -15.2996 C   0  0  0  0  0  0  0  0  0  0  0  0
  -19.6142   -0.2950  -14.7597 C   0  0  0  0  0  0  0  0  0  0  0  0
  -19.5171   -0.3488  -13.3776 C   0  0  0  0  0  0  0  0  0  0  0  0
  -20.4215    0.2919  -12.5432 C   0  0  0  0  0  0  0  0  0  0  0  0
  -21.5033    1.0353  -13.0809 C   0  0  0  0  0  0  0  0  0  0  0  0
  -20.0366    0.0359  -10.8436 S   0  0  0  0  0  0  0  0  0  0  0  0
  -21.2207   -0.7020  -10.2353 O   0  0  0  0  0  0  0  0  0  0  0  0
  -19.8006    1.3926  -10.1558 O   0  0  0  0  0  0  0  0  0  0  0  0
  -18.7779   -0.8288  -10.7773 O   0  0  0  0  0  0  0  0  0  0  0  0
  -18.9456   -1.6781  -11.2150 H   0  0  0  0  0  0  0  0  0  0  0  0
  -22.4849    1.7664  -11.0033 N   0  0  0  0  0  0  0  0  0  0  0  0
  -22.1281    0.9752  -10.5387 H   0  0  0  0  0  0  0  0  0  0  0  0
  -22.9413    2.8119  -10.2372 C   0  0  0  0  0  0  0  0  0  0  0  0
  -24.2773    3.2199  -10.1067 C   0  0  0  0  0  0  0  0  0  0  0  0
  -24.6688    4.2973   -9.3131 C   0  0  0  0  0  0  0  0  0  0  0  0
  -23.7161    4.9991   -8.5906 C   0  0  0  0  0  0  0  0  0  0  0  0
  -22.3819    4.6210   -8.6976 C   0  0  0  0  0  0  0  0  0  0  0  0
  -21.9995    3.5421   -9.5073 C   0  0  0  0  0  0  0  0  0  0  0  0
  1  2  2  0  0  0
  1 16  1  0  0  0
  1 10  1  0  0  0
  2  3  1  0  0  0
  3  4  2  0  0  0
  4  5  1  0  0  0
  5  6  2  0  0  0
  5 10  1  0  0  0
  6  7  1  0  0  0
  7  8  2  0  0  0
  8  9  1  0  0  0
 16 18  1  0  0  0
 11  9  1  0  0  0
 11 12  2  0  0  0
 11 13  2  0  0  0
 11 14  1  0  0  0
  9 10  2  0  0  0
 18 19  2  0  0  0
 18 23  1  0  0  0
 19 20  1  0  0  0
 20 21  2  0  0  0
 21 22  1  0  0  0
 22 23  2  0  0  0
 16 17  1  0  0  0
 14 15  1  0  0  0
M  END
> <minimizedAffinity>
-7.52534

$$$$
5AUT_2AN_A_301


 23 25  0  0  0  0  0  0  0  0999 V2000
  -22.0081    1.2211  -13.5066 C   0  0  0  0  0  0  0  0  0  0  0  0
  -22.2959    2.1902  -14.4713 C   0  0  0  0  0  0  0  0  0  0  0  0
  -21.4564    2.4492  -15.5390 C   0  0  0  0  0  0  0  0  0  0  0  0
  -20.3075    1.6928  -15.6651 C   0  0  0  0  0  0  0  0  0  0  0  0
  -20.0083    0.7045  -14.7463 C   0  0  0  0  0  0  0  0  0  0  0  0
  -18.8224    0.0245  -14.9775 C   0  0  0  0  0  0  0  0  0  0  0  0
  -18.4024   -0.9816  -14.1297 C   0  0  0  0  0  0  0  0  0  0  0  0
  -19.2038   -1.2771  -13.0375 C   0  0  0  0  0  0  0  0  0  0  0  0
  -20.3881   -0.6021  -12.7799 C   0  0  0  0  0  0  0  0  0  0  0  0
  -20.8362    0.4311  -13.6425 C   0  0  0  0  0  0  0  0  0  0  0  0
  -21.1808   -1.2048  -11.3272 S   0  0  0  0  0  0  0  0  0  0  0  0
  -20.3215   -2.3469  -10.8041 O   0  0  0  0  0  0  0  0  0  0  0  0
  -22.6041   -1.6789  -11.6724 O   0  0  0  0  0  0  0  0  0  0  0  0
  -21.2240   -0.0618  -10.3132 O   0  0  0  0  0  0  0  0  0  0  0  0
  -20.3196    0.2230  -10.1083 H   0  0  0  0  0  0  0  0  0  0  0  0
  -22.8596    1.0090  -12.4651 N   0  0  0  0  0  0  0  0  0  0  0  0
  -22.9468    0.0912  -12.1200 H   0  0  0  0  0  0  0  0  0  0  0  0
  -23.6047    1.9959  -11.8658 C   0  0  0  0  0  0  0  0  0  0  0  0
  -23.1855    2.8258  -10.8151 C   0  0  0  0  0  0  0  0  0  0  0  0
  -23.9998    3.8062  -10.2498 C   0  0  0  0  0  0  0  0  0  0  0  0
  -25.2785    4.0064  -10.7470 C   0  0  0  0  0  0  0  0  0  0  0  0
  -25.7259    3.2005  -11.7884 C   0  0  0  0  0  0  0  0  0  0  0  0
  -24.9010    2.2108  -12.3417 C   0  0  0  0  0  0  0  0  0  0  0  0
  1  2  2  0  0  0
  1 16  1  0  0  0
  1 10  1  0  0  0
  2  3  1  0  0  0
  3  4  2  0  0  0
  4  5  1  0  0  0
  5  6  2  0  0  0
  5 10  1  0  0  0
  6  7  1  0  0  0
  7  8  2  0  0  0
  8  9  1  0  0  0
 16 18  1  0  0  0
 11  9  1  0  0  0
 11 12  2  0  0  0
 11 13  2  0  0  0
 11 14  1  0  0  0
  9 10  2  0  0  0
 18 19  2  0  0  0
 18 23  1  0  0  0
 19 20  1  0  0  0
 20 21  2  0  0  0
 21 22  1  0  0  0
 22 23  2  0  0  0
 16 17  1  0  0  0
 14 15  1  0  0  0
M  END
> <minimizedAffinity>
-7.19264

$$$$
5AUT_2AN_A_301


 23 25  0  0  0  0  0  0  0  0999 V2000
  -21.6877    1.0386  -11.3024 C   0  0  0  0  0  0  0  0  0  0  0  0
  -20.7035    0.6161  -10.4049 C   0  0  0  0  0  0  0  0  0  0  0  0
  -19.6977   -0.2624  -10.7632 C   0  0  0  0  0  0  0  0  0  0  0  0
  -19.6547   -0.7083  -12.0698 C   0  0  0  0  0  0  0  0  0  0  0  0
  -20.5940   -0.2857  -12.9915 C   0  0  0  0  0  0  0  0  0  0  0  0
  -20.4486   -0.8136  -14.2653 C   0  0  0  0  0  0  0  0  0  0  0  0
  -21.3256   -0.4789  -15.2784 C   0  0  0  0  0  0  0  0  0  0  0  0
  -22.3586    0.3935  -14.9711 C   0  0  0  0  0  0  0  0  0  0  0  0
  -22.5303    0.9246  -13.7010 C   0  0  0  0  0  0  0  0  0  0  0  0
  -21.6365    0.5946  -12.6501 C   0  0  0  0  0  0  0  0  0  0  0  0
  -23.9241    1.9989  -13.6253 S   0  0  0  0  0  0  0  0  0  0  0  0
  -23.4001    3.3625  -13.1981 O   0  0  0  0  0  0  0  0  0  0  0  0
  -24.9502    1.4460  -12.6199 O   0  0  0  0  0  0  0  0  0  0  0  0
  -24.5290    2.0748  -15.0270 O   0  0  0  0  0  0  0  0  0  0  0  0
  -23.8688    2.4248  -15.6455 H   0  0  0  0  0  0  0  0  0  0  0  0
  -22.6664    1.8963  -10.9009 N   0  0  0  0  0  0  0  0  0  0  0  0
  -23.5575    1.8029  -11.3088 H   0  0  0  0  0  0  0  0  0  0  0  0
  -22.4879    2.8838   -9.9623 C   0  0  0  0  0  0  0  0  0  0  0  0
  -21.3168    3.1251   -9.2282 C   0  0  0  0  0  0  0  0  0  0  0  0
  -21.2084    4.1455   -8.2843 C   0  0  0  0  0  0  0  0  0  0  0  0
  -22.2851    4.9894   -8.0594 C   0  0  0  0  0  0  0  0  0  0  0  0
  -23.4617    4.7777   -8.7701 C   0  0  0  0  0  0  0  0  0  0  0  0
  -23.5619    3.7415   -9.7094 C   0  0  0  0  0  0  0  0  0  0  0  0
  1  2  2  0  0  0
  1 16  1  0  0  0
  1 10  1  0  0  0
  2  3  1  0  0  0
  3  4  2  0  0  0
  4  5  1  0  0  0
  5  6  2  0  0  0
  5 10  1  0  0  0
  6  7  1  0  0  0
  7  8  2  0  0  0
  8  9  1  0  0  0
 16 18  1  0  0  0
 11  9  1  0  0  0
 11 12  2  0  0  0
 11 13  2  0  0  0
 11 14  1  0  0  0
  9 10  2  0  0  0
 18 19  2  0  0  0
 18 23  1  0  0  0
 19 20  1  0  0  0
 20 21  2  0  0  0
 21 22  1  0  0  0
 22 23  2  0  0  0
 16 17  1  0  0  0
 14 15  1  0  0  0
M  END
> <minimizedAffinity>
-7.10174

$$$$
5AUT_2AN_A_301


 23 25  0  0  0  0  0  0  0  0999 V2000
  -23.1872    2.9342   -9.5560 C   0  0  0  0  0  0  0  0  0  0  0  0
  -24.0995    3.7196   -8.8465 C   0  0  0  0  0  0  0  0  0  0  0  0
  -25.2689    4.1946   -9.4111 C   0  0  0  0  0  0  0  0  0  0  0  0
  -25.5521    3.8464  -10.7174 C   0  0  0  0  0  0  0  0  0  0  0  0
  -24.6869    3.0448  -11.4380 C   0  0  0  0  0  0  0  0  0  0  0  0
  -25.0788    2.7767  -12.7406 C   0  0  0  0  0  0  0  0  0  0  0  0
  -24.3003    1.9945  -13.5710 C   0  0  0  0  0  0  0  0  0  0  0  0
  -23.1119    1.4983  -13.0572 C   0  0  0  0  0  0  0  0  0  0  0  0
  -22.6941    1.7631  -11.7610 C   0  0  0  0  0  0  0  0  0  0  0  0
  -23.4834    2.5613  -10.8936 C   0  0  0  0  0  0  0  0  0  0  0  0
  -21.1512    0.9933  -11.4019 S   0  0  0  0  0  0  0  0  0  0  0  0
  -20.7340    0.2460  -12.6604 O   0  0  0  0  0  0  0  0  0  0  0  0
  -21.3143    0.0396  -10.2046 O   0  0  0  0  0  0  0  0  0  0  0  0
  -20.1450    2.0977  -11.0787 O   0  0  0  0  0  0  0  0  0  0  0  0
  -20.0557    2.6876  -11.8435 H   0  0  0  0  0  0  0  0  0  0  0  0
  -22.0420    2.4986   -8.9616 N   0  0  0  0  0  0  0  0  0  0  0  0
  -21.7378    1.5837   -9.1607 H   0  0  0  0  0  0  0  0  0  0  0  0
  -21.2842    3.2562   -8.1012 C   0  0  0  0  0  0  0  0  0  0  0  0
  -20.4635    2.7679   -7.0734 C   0  0  0  0  0  0  0  0  0  0  0  0
  -19.7244    3.5982   -6.2318 C   0  0  0  0  0  0  0  0  0  0  0  0
  -19.7665    4.9721   -6.4137 C   0  0  0  0  0  0  0  0  0  0  0  0
  -20.5707    5.4896   -7.4235 C   0  0  0  0  0  0  0  0  0  0  0  0
  -21.3175    4.6446   -8.2568 C   0  0  0  0  0  0  0  0  0  0  0  0
  1  2  2  0  0  0
  1 16  1  0  0  0
  1 10  1  0  0  0
  2  3  1  0  0  0
  3  4  2  0  0  0
  4  5  1  0  0  0
  5  6  2  0  0  0
  5 10  1  0  0  0
  6  7  1  0  0  0
  7  8  2  0  0  0
  8  9  1  0  0  0
 16 18  1  0  0  0
 11  9  1  0  0  0
 11 12  2  0  0  0
 11 13  2  0  0  0
 11 14  1  0  0  0
  9 10  2  0  0  0
 18 19  2  0  0  0
 18 23  1  0  0  0
 19 20  1  0  0  0
 20 21  2  0  0  0
 21 22  1  0  0  0
 22 23  2  0  0  0
 16 17  1  0  0  0
 14 15  1  0  0  0
M  END
> <minimizedAffinity>
-7.08394

$$$$
5AUT_2AN_A_301


 23 25  0  0  0  0  0  0  0  0999 V2000
  -23.2946    2.3634  -11.2062 C   0  0  0  0  0  0  0  0  0  0  0  0
  -24.4916    2.9939  -10.8562 C   0  0  0  0  0  0  0  0  0  0  0  0
  -25.4855    3.2672  -11.7778 C   0  0  0  0  0  0  0  0  0  0  0  0
  -25.2910    2.8684  -13.0859 C   0  0  0  0  0  0  0  0  0  0  0  0
  -24.1323    2.2142  -13.4599 C   0  0  0  0  0  0  0  0  0  0  0  0
  -24.0533    1.8766  -14.8023 C   0  0  0  0  0  0  0  0  0  0  0  0
  -22.9447    1.2266  -15.3082 C   0  0  0  0  0  0  0  0  0  0  0  0
  -21.9139    0.9351  -14.4278 C   0  0  0  0  0  0  0  0  0  0  0  0
  -21.9663    1.2737  -13.0835 C   0  0  0  0  0  0  0  0  0  0  0  0
  -23.0989    1.9379  -12.5465 C   0  0  0  0  0  0  0  0  0  0  0  0
  -20.5129    0.7692  -12.2258 S   0  0  0  0  0  0  0  0  0  0  0  0
  -19.6396    0.0426  -13.2388 O   0  0  0  0  0  0  0  0  0  0  0  0
  -20.8971   -0.1460  -11.0493 O   0  0  0  0  0  0  0  0  0  0  0  0
  -19.8098    2.0294  -11.7218 O   0  0  0  0  0  0  0  0  0  0  0  0
  -19.5758    2.5927  -12.4760 H   0  0  0  0  0  0  0  0  0  0  0  0
  -22.3388    2.1252  -10.2658 N   0  0  0  0  0  0  0  0  0  0  0  0
  -21.8886    1.2498  -10.2769 H   0  0  0  0  0  0  0  0  0  0  0  0
  -21.9633    3.0303   -9.3025 C   0  0  0  0  0  0  0  0  0  0  0  0
  -22.5834    4.2606   -9.0370 C   0  0  0  0  0  0  0  0  0  0  0  0
  -22.1434    5.1347   -8.0440 C   0  0  0  0  0  0  0  0  0  0  0  0
  -21.0601    4.7848   -7.2527 C   0  0  0  0  0  0  0  0  0  0  0  0
  -20.4218    3.5721   -7.4895 C   0  0  0  0  0  0  0  0  0  0  0  0
  -20.8674    2.7060   -8.4982 C   0  0  0  0  0  0  0  0  0  0  0  0
  1  2  2  0  0  0
  1 16  1  0  0  0
  1 10  1  0  0  0
  2  3  1  0  0  0
  3  4  2  0  0  0
  4  5  1  0  0  0
  5  6  2  0  0  0
  5 10  1  0  0  0
  6  7  1  0  0  0
  7  8  2  0  0  0
  8  9  1  0  0  0
 16 18  1  0  0  0
 11  9  1  0  0  0
 11 12  2  0  0  0
 11 13  2  0  0  0
 11 14  1  0  0  0
  9 10  2  0  0  0
 18 19  2  0  0  0
 18 23  1  0  0  0
 19 20  1  0  0  0
 20 21  2  0  0  0
 21 22  1  0  0  0
 22 23  2  0  0  0
 16 17  1  0  0  0
 14 15  1  0  0  0
M  END
> <minimizedAffinity>
-7.07909

$$$$
5AUT_2AN_A_301


 23 25  0  0  0  0  0  0  0  0999 V2000
  -20.8511    1.3694  -11.5033 C   0  0  0  0  0  0  0  0  0  0  0  0
  -20.4049    1.7392  -10.2317 C   0  0  0  0  0  0  0  0  0  0  0  0
  -21.1807    2.4767   -9.3565 C   0  0  0  0  0  0  0  0  0  0  0  0
  -22.4565    2.8287   -9.7520 C   0  0  0  0  0  0  0  0  0  0  0  0
  -22.9410    2.4523  -10.9905 C   0  0  0  0  0  0  0  0  0  0  0  0
  -24.2305    2.8764  -11.2725 C   0  0  0  0  0  0  0  0  0  0  0  0
  -24.8308    2.5744  -12.4791 C   0  0  0  0  0  0  0  0  0  0  0  0
  -24.0935    1.8427  -13.3975 C   0  0  0  0  0  0  0  0  0  0  0  0
  -22.7979    1.4178  -13.1416 C   0  0  0  0  0  0  0  0  0  0  0  0
  -22.1678    1.7159  -11.9061 C   0  0  0  0  0  0  0  0  0  0  0  0
  -22.1288    0.5103  -14.4947 S   0  0  0  0  0  0  0  0  0  0  0  0
  -21.9722   -0.9273  -14.0199 O   0  0  0  0  0  0  0  0  0  0  0  0
  -20.7778    1.1200  -14.9100 O   0  0  0  0  0  0  0  0  0  0  0  0
  -23.1315    0.5858  -15.6460 O   0  0  0  0  0  0  0  0  0  0  0  0
  -23.9751    0.1975  -15.3660 H   0  0  0  0  0  0  0  0  0  0  0  0
  -20.0468    0.6524  -12.3361 N   0  0  0  0  0  0  0  0  0  0  0  0
  -19.8627    1.0211  -13.2302 H   0  0  0  0  0  0  0  0  0  0  0  0
  -19.4762   -0.5534  -12.0067 C   0  0  0  0  0  0  0  0  0  0  0  0
  -19.6391   -1.2419  -10.7952 C   0  0  0  0  0  0  0  0  0  0  0  0
  -19.0229   -2.4633  -10.5264 C   0  0  0  0  0  0  0  0  0  0  0  0
  -18.2266   -3.0576  -11.4934 C   0  0  0  0  0  0  0  0  0  0  0  0
  -18.0436   -2.4014  -12.7060 C   0  0  0  0  0  0  0  0  0  0  0  0
  -18.6605   -1.1683  -12.9605 C   0  0  0  0  0  0  0  0  0  0  0  0
  1  2  2  0  0  0
  1 16  1  0  0  0
  1 10  1  0  0  0
  2  3  1  0  0  0
  3  4  2  0  0  0
  4  5  1  0  0  0
  5  6  2  0  0  0
  5 10  1  0  0  0
  6  7  1  0  0  0
  7  8  2  0  0  0
  8  9  1  0  0  0
 16 18  1  0  0  0
 11  9  1  0  0  0
 11 12  2  0  0  0
 11 13  2  0  0  0
 11 14  1  0  0  0
  9 10  2  0  0  0
 18 19  2  0  0  0
 18 23  1  0  0  0
 19 20  1  0  0  0
 20 21  2  0  0  0
 21 22  1  0  0  0
 22 23  2  0  0  0
 16 17  1  0  0  0
 14 15  1  0  0  0
M  END
> <minimizedAffinity>
-7.04307

$$$$
5AUT_2AN_A_301


 23 25  0  0  0  0  0  0  0  0999 V2000
  -21.9197   -0.3680  -12.9416 C   0  0  0  0  0  0  0  0  0  0  0  0
  -22.2204   -1.1590  -11.8296 C   0  0  0  0  0  0  0  0  0  0  0  0
  -21.3767   -2.1559  -11.3758 C   0  0  0  0  0  0  0  0  0  0  0  0
  -20.1780   -2.3474  -12.0349 C   0  0  0  0  0  0  0  0  0  0  0  0
  -19.8348   -1.5617  -13.1190 C   0  0  0  0  0  0  0  0  0  0  0  0
  -18.6117   -1.8604  -13.6996 C   0  0  0  0  0  0  0  0  0  0  0  0
  -18.1533   -1.1555  -14.7953 C   0  0  0  0  0  0  0  0  0  0  0  0
  -18.9646   -0.1489  -15.2963 C   0  0  0  0  0  0  0  0  0  0  0  0
  -20.1970    0.1596  -14.7389 C   0  0  0  0  0  0  0  0  0  0  0  0
  -20.6811   -0.5517  -13.6110 C   0  0  0  0  0  0  0  0  0  0  0  0
  -20.9868    1.4829  -15.5917 S   0  0  0  0  0  0  0  0  0  0  0  0
  -21.1089    2.6297  -14.5984 O   0  0  0  0  0  0  0  0  0  0  0  0
  -22.3656    1.0230  -16.0983 O   0  0  0  0  0  0  0  0  0  0  0  0
  -20.0883    1.8837  -16.7616 O   0  0  0  0  0  0  0  0  0  0  0  0
  -19.2255    2.1700  -16.4233 H   0  0  0  0  0  0  0  0  0  0  0  0
  -22.7874    0.5949  -13.3593 N   0  0  0  0  0  0  0  0  0  0  0  0
  -23.0167    0.6258  -14.3162 H   0  0  0  0  0  0  0  0  0  0  0  0
  -23.3630    1.5262  -12.5288 C   0  0  0  0  0  0  0  0  0  0  0  0
  -22.7586    2.1253  -11.4134 C   0  0  0  0  0  0  0  0  0  0  0  0
  -23.4067    3.0620  -10.6095 C   0  0  0  0  0  0  0  0  0  0  0  0
  -24.6999    3.4543  -10.9193 C   0  0  0  0  0  0  0  0  0  0  0  0
  -25.3288    2.8795  -12.0185 C   0  0  0  0  0  0  0  0  0  0  0  0
  -24.6701    1.9307  -12.8134 C   0  0  0  0  0  0  0  0  0  0  0  0
  1  2  2  0  0  0
  1 16  1  0  0  0
  1 10  1  0  0  0
  2  3  1  0  0  0
  3  4  2  0  0  0
  4  5  1  0  0  0
  5  6  2  0  0  0
  5 10  1  0  0  0
  6  7  1  0  0  0
  7  8  2  0  0  0
  8  9  1  0  0  0
 16 18  1  0  0  0
 11  9  1  0  0  0
 11 12  2  0  0  0
 11 13  2  0  0  0
 11 14  1  0  0  0
  9 10  2  0  0  0
 18 19  2  0  0  0
 18 23  1  0  0  0
 19 20  1  0  0  0
 20 21  2  0  0  0
 21 22  1  0  0  0
 22 23  2  0  0  0
 16 17  1  0  0  0
 14 15  1  0  0  0
M  END
> <minimizedAffinity>
-6.93747

$$$$
