5FL6_Y0R_A_268


 23 25  0  0  0  0  0  0  0  0999 V2000
  -30.7026   -0.7043   -1.5691 C   0  0  0  0  0  0  0  0  0  0  0  0
  -30.0231    0.3518   -0.9752 C   0  0  0  0  0  0  0  0  0  0  0  0
  -30.8863    1.3713   -1.1636 N   0  0  0  0  0  0  0  0  0  0  0  0
  -32.0813    0.9887   -1.8136 N   0  0  0  0  0  0  0  0  0  0  0  0
  -31.9384   -0.3820   -2.0473 N   0  0  0  0  0  0  0  0  0  0  0  0
  -29.8878    6.8080    0.3960 C   0  0  0  0  0  0  0  0  0  0  0  0
  -30.7110    2.6610   -0.7818 C   0  0  0  0  0  0  0  0  0  0  0  0
  -31.7281    3.6290   -0.7318 C   0  0  0  0  0  0  0  0  0  0  0  0
  -31.4916    4.9603   -0.3563 C   0  0  0  0  0  0  0  0  0  0  0  0
  -30.1986    5.3898   -0.0260 C   0  0  0  0  0  0  0  0  0  0  0  0
  -29.1703    4.4496   -0.0687 C   0  0  0  0  0  0  0  0  0  0  0  0
  -29.4300    3.1288   -0.4380 C   0  0  0  0  0  0  0  0  0  0  0  0
  -28.7976   -4.1448   -1.7353 C   0  0  0  0  0  0  0  0  0  0  0  0
  -28.5333   -2.4384   -1.6915 S   0  0  0  0  0  0  0  0  0  0  0  0
  -30.2387   -2.1287   -1.6243 C   0  0  0  0  0  0  0  0  0  0  0  0
  -31.0009   -3.3045   -1.6665 C   0  0  0  0  0  0  0  0  0  0  0  0
  -30.1714   -4.4643   -1.7517 C   0  0  0  0  0  0  0  0  0  0  0  0
  -27.5318   -5.2211   -1.9082 S   0  0  0  0  0  0  0  0  0  0  0  0
  -26.1044   -4.4633   -1.9935 N   0  0  0  0  0  0  0  0  0  0  0  0
  -27.5931   -6.0185   -0.6889 O   0  0  0  0  0  0  0  0  0  0  0  0
  -27.6720   -6.1264   -3.0092 O   0  0  0  0  0  0  0  0  0  0  0  0
  -26.0654   -3.9067   -2.8474 H   0  0  0  0  0  0  0  0  0  0  0  0
  -25.3532   -5.1532   -2.0027 H   0  0  0  0  0  0  0  0  0  0  0  0
 19 18  1  0  0  0
 21 18  2  0  0  0
 18 13  1  0  0  0
 18 20  2  0  0  0
 13 17  2  0  0  0
 13 14  1  0  0  0
 17 16  1  0  0  0
 14 15  1  0  0  0
 16 15  2  0  0  0
 15  1  1  0  0  0
  5  1  1  0  0  0
  5  4  2  0  0  0
  1  2  2  0  0  0
  4  3  1  0  0  0
  2  3  1  0  0  0
  3  7  1  0  0  0
 12  7  2  0  0  0
 12 11  1  0  0  0
  7  8  1  0  0  0
 11 10  2  0  0  0
  8  9  2  0  0  0
 10  9  1  0  0  0
 10  6  1  0  0  0
 19 22  1  0  0  0
 19 23  1  0  0  0
M  END
> <minimizedAffinity>
-7.55373

$$$$
5FL6_Y0R_A_268


 23 25  0  0  0  0  0  0  0  0999 V2000
  -30.7013   -0.7704   -1.3317 C   0  0  0  0  0  0  0  0  0  0  0  0
  -31.9056   -0.2598   -1.7995 C   0  0  0  0  0  0  0  0  0  0  0  0
  -31.7998    1.0415   -1.4599 N   0  0  0  0  0  0  0  0  0  0  0  0
  -30.5738    1.3664   -0.8367 N   0  0  0  0  0  0  0  0  0  0  0  0
  -29.8678    0.1610   -0.7864 N   0  0  0  0  0  0  0  0  0  0  0  0
  -35.8819    4.9614   -2.4385 C   0  0  0  0  0  0  0  0  0  0  0  0
  -32.7231    2.0116   -1.6751 C   0  0  0  0  0  0  0  0  0  0  0  0
  -32.6786    3.3006   -1.1177 C   0  0  0  0  0  0  0  0  0  0  0  0
  -33.6742    4.2623   -1.3481 C   0  0  0  0  0  0  0  0  0  0  0  0
  -34.7859    3.9615   -2.1476 C   0  0  0  0  0  0  0  0  0  0  0  0
  -34.8556    2.6888   -2.7121 C   0  0  0  0  0  0  0  0  0  0  0  0
  -33.8499    1.7503   -2.4752 C   0  0  0  0  0  0  0  0  0  0  0  0
  -28.7843   -4.1893   -1.6920 C   0  0  0  0  0  0  0  0  0  0  0  0
  -28.5254   -2.4891   -1.5311 S   0  0  0  0  0  0  0  0  0  0  0  0
  -30.2326   -2.1873   -1.4730 C   0  0  0  0  0  0  0  0  0  0  0  0
  -30.9908   -3.3589   -1.6059 C   0  0  0  0  0  0  0  0  0  0  0  0
  -30.1567   -4.5093   -1.7532 C   0  0  0  0  0  0  0  0  0  0  0  0
  -27.5129   -5.2498   -1.9138 S   0  0  0  0  0  0  0  0  0  0  0  0
  -26.0925   -4.4784   -1.9949 N   0  0  0  0  0  0  0  0  0  0  0  0
  -27.5519   -6.0839   -0.7184 O   0  0  0  0  0  0  0  0  0  0  0  0
  -27.6607   -6.1228   -3.0397 O   0  0  0  0  0  0  0  0  0  0  0  0
  -26.0690   -3.8962   -2.8320 H   0  0  0  0  0  0  0  0  0  0  0  0
  -25.3362   -5.1617   -2.0347 H   0  0  0  0  0  0  0  0  0  0  0  0
 19 18  1  0  0  0
 21 18  2  0  0  0
 18 13  1  0  0  0
 18 20  2  0  0  0
 13 17  2  0  0  0
 13 14  1  0  0  0
 17 16  1  0  0  0
 14 15  1  0  0  0
 16 15  2  0  0  0
 15  1  1  0  0  0
  5  1  1  0  0  0
  5  4  2  0  0  0
  1  2  2  0  0  0
  4  3  1  0  0  0
  2  3  1  0  0  0
  3  7  1  0  0  0
 12  7  2  0  0  0
 12 11  1  0  0  0
  7  8  1  0  0  0
 11 10  2  0  0  0
  8  9  2  0  0  0
 10  9  1  0  0  0
 10  6  1  0  0  0
 19 22  1  0  0  0
 19 23  1  0  0  0
M  END
> <minimizedAffinity>
-7.29331

$$$$
5FL6_Y0R_A_268


 23 25  0  0  0  0  0  0  0  0999 V2000
  -30.4030   -0.0695   -1.1145 C   0  0  0  0  0  0  0  0  0  0  0  0
  -29.9040    1.2258   -1.1704 C   0  0  0  0  0  0  0  0  0  0  0  0
  -30.9604    1.9435   -0.7359 N   0  0  0  0  0  0  0  0  0  0  0  0
  -32.0757    1.1516   -0.3808 N   0  0  0  0  0  0  0  0  0  0  0  0
  -31.6707   -0.1646   -0.6209 N   0  0  0  0  0  0  0  0  0  0  0  0
  -31.4891    7.6324   -0.1497 C   0  0  0  0  0  0  0  0  0  0  0  0
  -31.0236    3.2921   -0.6047 C   0  0  0  0  0  0  0  0  0  0  0  0
  -29.9467    4.1141   -0.2323 C   0  0  0  0  0  0  0  0  0  0  0  0
  -30.0688    5.5041   -0.0824 C   0  0  0  0  0  0  0  0  0  0  0  0
  -31.3023    6.1384   -0.2862 C   0  0  0  0  0  0  0  0  0  0  0  0
  -32.3880    5.3457   -0.6553 C   0  0  0  0  0  0  0  0  0  0  0  0
  -32.2418    3.9657   -0.8057 C   0  0  0  0  0  0  0  0  0  0  0  0
  -28.9877   -3.7024   -1.6555 C   0  0  0  0  0  0  0  0  0  0  0  0
  -30.3396   -2.8465   -1.0048 S   0  0  0  0  0  0  0  0  0  0  0  0
  -29.6440   -1.3194   -1.4440 C   0  0  0  0  0  0  0  0  0  0  0  0
  -28.3865   -1.4552   -2.0487 C   0  0  0  0  0  0  0  0  0  0  0  0
  -27.9994   -2.8265   -2.1512 C   0  0  0  0  0  0  0  0  0  0  0  0
  -28.8591   -5.3627   -1.5245 S   0  0  0  0  0  0  0  0  0  0  0  0
  -28.3867   -5.8152   -0.0442 N   0  0  0  0  0  0  0  0  0  0  0  0
  -30.2179   -5.8306   -1.7715 O   0  0  0  0  0  0  0  0  0  0  0  0
  -28.0198   -5.9704   -2.5133 O   0  0  0  0  0  0  0  0  0  0  0  0
  -27.4361   -5.4861    0.1247 H   0  0  0  0  0  0  0  0  0  0  0  0
  -28.4116   -6.8325    0.0244 H   0  0  0  0  0  0  0  0  0  0  0  0
 19 18  1  0  0  0
 21 18  2  0  0  0
 18 13  1  0  0  0
 18 20  2  0  0  0
 13 17  2  0  0  0
 13 14  1  0  0  0
 17 16  1  0  0  0
 14 15  1  0  0  0
 16 15  2  0  0  0
 15  1  1  0  0  0
  5  1  1  0  0  0
  5  4  2  0  0  0
  1  2  2  0  0  0
  4  3  1  0  0  0
  2  3  1  0  0  0
  3  7  1  0  0  0
 12  7  2  0  0  0
 12 11  1  0  0  0
  7  8  1  0  0  0
 11 10  2  0  0  0
  8  9  2  0  0  0
 10  9  1  0  0  0
 10  6  1  0  0  0
 19 22  1  0  0  0
 19 23  1  0  0  0
M  END
> <minimizedAffinity>
-7.13241

$$$$
5FL6_Y0R_A_268


 23 25  0  0  0  0  0  0  0  0999 V2000
  -31.4863   -0.1448   -1.8207 C   0  0  0  0  0  0  0  0  0  0  0  0
  -32.7343   -0.1957   -2.4286 C   0  0  0  0  0  0  0  0  0  0  0  0
  -33.2108    1.0409   -2.1760 N   0  0  0  0  0  0  0  0  0  0  0  0
  -32.3035    1.8646   -1.4723 N   0  0  0  0  0  0  0  0  0  0  0  0
  -31.1748    1.0644   -1.2728 N   0  0  0  0  0  0  0  0  0  0  0  0
  -38.4467    2.8985   -3.6326 C   0  0  0  0  0  0  0  0  0  0  0  0
  -34.4213    1.5319   -2.5415 C   0  0  0  0  0  0  0  0  0  0  0  0
  -34.7109    2.8933   -2.7339 C   0  0  0  0  0  0  0  0  0  0  0  0
  -35.9884    3.3556   -3.0852 C   0  0  0  0  0  0  0  0  0  0  0  0
  -37.0535    2.4580   -3.2444 C   0  0  0  0  0  0  0  0  0  0  0  0
  -36.7938    1.1011   -3.0579 C   0  0  0  0  0  0  0  0  0  0  0  0
  -35.5134    0.6631   -2.7158 C   0  0  0  0  0  0  0  0  0  0  0  0
  -29.3901   -3.4738   -1.6875 C   0  0  0  0  0  0  0  0  0  0  0  0
  -31.0050   -2.8716   -1.5733 S   0  0  0  0  0  0  0  0  0  0  0  0
  -30.4643   -1.2415   -1.8172 C   0  0  0  0  0  0  0  0  0  0  0  0
  -29.0719   -1.1512   -1.9521 C   0  0  0  0  0  0  0  0  0  0  0  0
  -28.4515   -2.4345   -1.8563 C   0  0  0  0  0  0  0  0  0  0  0  0
  -29.0409   -5.0896   -1.4474 S   0  0  0  0  0  0  0  0  0  0  0  0
  -28.6632   -5.4013    0.0951 N   0  0  0  0  0  0  0  0  0  0  0  0
  -30.2869   -5.7631   -1.7943 O   0  0  0  0  0  0  0  0  0  0  0  0
  -28.0268   -5.6104   -2.3146 O   0  0  0  0  0  0  0  0  0  0  0  0
  -27.7915   -4.9286    0.3338 H   0  0  0  0  0  0  0  0  0  0  0  0
  -28.5501   -6.4071    0.2208 H   0  0  0  0  0  0  0  0  0  0  0  0
 19 18  1  0  0  0
 21 18  2  0  0  0
 18 13  1  0  0  0
 18 20  2  0  0  0
 13 17  2  0  0  0
 13 14  1  0  0  0
 17 16  1  0  0  0
 14 15  1  0  0  0
 16 15  2  0  0  0
 15  1  1  0  0  0
  5  1  1  0  0  0
  5  4  2  0  0  0
  1  2  2  0  0  0
  4  3  1  0  0  0
  2  3  1  0  0  0
  3  7  1  0  0  0
 12  7  2  0  0  0
 12 11  1  0  0  0
  7  8  1  0  0  0
 11 10  2  0  0  0
  8  9  2  0  0  0
 10  9  1  0  0  0
 10  6  1  0  0  0
 19 22  1  0  0  0
 19 23  1  0  0  0
M  END
> <minimizedAffinity>
-7.07354

$$$$
5FL6_Y0R_A_268


 23 25  0  0  0  0  0  0  0  0999 V2000
  -31.4319   -0.1766   -1.3340 C   0  0  0  0  0  0  0  0  0  0  0  0
  -31.2479    1.1758   -1.5929 C   0  0  0  0  0  0  0  0  0  0  0  0
  -32.4317    1.6914   -1.2020 N   0  0  0  0  0  0  0  0  0  0  0  0
  -33.3248    0.7279   -0.6813 N   0  0  0  0  0  0  0  0  0  0  0  0
  -32.6315   -0.4832   -0.7625 N   0  0  0  0  0  0  0  0  0  0  0  0
  -34.2517    7.1333   -1.4459 C   0  0  0  0  0  0  0  0  0  0  0  0
  -32.8025    2.9951   -1.2519 C   0  0  0  0  0  0  0  0  0  0  0  0
  -32.0564    4.0631   -0.7257 C   0  0  0  0  0  0  0  0  0  0  0  0
  -32.4962    5.3947   -0.7771 C   0  0  0  0  0  0  0  0  0  0  0  0
  -33.7333    5.7162   -1.3532 C   0  0  0  0  0  0  0  0  0  0  0  0
  -34.4946    4.6749   -1.8819 C   0  0  0  0  0  0  0  0  0  0  0  0
  -34.0339    3.3585   -1.8262 C   0  0  0  0  0  0  0  0  0  0  0  0
  -29.3209   -3.4783   -1.7029 C   0  0  0  0  0  0  0  0  0  0  0  0
  -30.9153   -2.9079   -1.3622 S   0  0  0  0  0  0  0  0  0  0  0  0
  -30.4116   -1.2568   -1.5322 C   0  0  0  0  0  0  0  0  0  0  0  0
  -29.0432   -1.1381   -1.8128 C   0  0  0  0  0  0  0  0  0  0  0  0
  -28.4110   -2.4167   -1.8902 C   0  0  0  0  0  0  0  0  0  0  0  0
  -28.9407   -5.1034   -1.6342 S   0  0  0  0  0  0  0  0  0  0  0  0
  -28.3217   -5.5167   -0.1971 N   0  0  0  0  0  0  0  0  0  0  0  0
  -30.2273   -5.7630   -1.8235 O   0  0  0  0  0  0  0  0  0  0  0  0
  -28.0793   -5.5540   -2.6861 O   0  0  0  0  0  0  0  0  0  0  0  0
  -27.4221   -5.0535   -0.0684 H   0  0  0  0  0  0  0  0  0  0  0  0
  -28.1918   -6.5278   -0.1610 H   0  0  0  0  0  0  0  0  0  0  0  0
 19 18  1  0  0  0
 21 18  2  0  0  0
 18 13  1  0  0  0
 18 20  2  0  0  0
 13 17  2  0  0  0
 13 14  1  0  0  0
 17 16  1  0  0  0
 14 15  1  0  0  0
 16 15  2  0  0  0
 15  1  1  0  0  0
  5  1  1  0  0  0
  5  4  2  0  0  0
  1  2  2  0  0  0
  4  3  1  0  0  0
  2  3  1  0  0  0
  3  7  1  0  0  0
 12  7  2  0  0  0
 12 11  1  0  0  0
  7  8  1  0  0  0
 11 10  2  0  0  0
  8  9  2  0  0  0
 10  9  1  0  0  0
 10  6  1  0  0  0
 19 22  1  0  0  0
 19 23  1  0  0  0
M  END
> <minimizedAffinity>
-6.90517

$$$$
5FL6_Y0R_A_268


 23 25  0  0  0  0  0  0  0  0999 V2000
  -32.6495   -0.1976   -1.5093 C   0  0  0  0  0  0  0  0  0  0  0  0
  -31.4380   -0.6239   -2.0386 C   0  0  0  0  0  0  0  0  0  0  0  0
  -31.2643   -1.8028   -1.4061 N   0  0  0  0  0  0  0  0  0  0  0  0
  -32.3269   -2.1419   -0.5384 N   0  0  0  0  0  0  0  0  0  0  0  0
  -33.2285   -1.0789   -0.6446 N   0  0  0  0  0  0  0  0  0  0  0  0
  -26.9818   -5.5702   -2.0796 C   0  0  0  0  0  0  0  0  0  0  0  0
  -30.2132   -2.6487   -1.5455 C   0  0  0  0  0  0  0  0  0  0  0  0
  -28.8741   -2.2487   -1.6903 C   0  0  0  0  0  0  0  0  0  0  0  0
  -27.8227   -3.1626   -1.8600 C   0  0  0  0  0  0  0  0  0  0  0  0
  -28.0759   -4.5406   -1.9101 C   0  0  0  0  0  0  0  0  0  0  0  0
  -29.3965   -4.9647   -1.7703 C   0  0  0  0  0  0  0  0  0  0  0  0
  -30.4256   -4.0381   -1.5952 C   0  0  0  0  0  0  0  0  0  0  0  0
  -34.1351    3.4174   -1.9769 C   0  0  0  0  0  0  0  0  0  0  0  0
  -32.9569    2.5313   -1.0767 S   0  0  0  0  0  0  0  0  0  0  0  0
  -33.3809    1.0560   -1.8846 C   0  0  0  0  0  0  0  0  0  0  0  0
  -34.4255    1.2271   -2.8038 C   0  0  0  0  0  0  0  0  0  0  0  0
  -34.8739    2.5829   -2.8414 C   0  0  0  0  0  0  0  0  0  0  0  0
  -34.4239    5.0361   -1.6824 S   0  0  0  0  0  0  0  0  0  0  0  0
  -33.0993    5.7965   -1.1473 N   0  0  0  0  0  0  0  0  0  0  0  0
  -34.7965    5.5598   -2.9913 O   0  0  0  0  0  0  0  0  0  0  0  0
  -35.5237    5.2895   -0.8005 O   0  0  0  0  0  0  0  0  0  0  0  0
  -32.8420    5.4276   -0.2318 H   0  0  0  0  0  0  0  0  0  0  0  0
  -33.2888    6.7958   -1.0701 H   0  0  0  0  0  0  0  0  0  0  0  0
 19 18  1  0  0  0
 21 18  2  0  0  0
 18 13  1  0  0  0
 18 20  2  0  0  0
 13 17  2  0  0  0
 13 14  1  0  0  0
 17 16  1  0  0  0
 14 15  1  0  0  0
 16 15  2  0  0  0
 15  1  1  0  0  0
  5  1  1  0  0  0
  5  4  2  0  0  0
  1  2  2  0  0  0
  4  3  1  0  0  0
  2  3  1  0  0  0
  3  7  1  0  0  0
 12  7  2  0  0  0
 12 11  1  0  0  0
  7  8  1  0  0  0
 11 10  2  0  0  0
  8  9  2  0  0  0
 10  9  1  0  0  0
 10  6  1  0  0  0
 19 22  1  0  0  0
 19 23  1  0  0  0
M  END
> <minimizedAffinity>
-6.73819

$$$$
5FL6_Y0R_A_268


 23 25  0  0  0  0  0  0  0  0999 V2000
  -31.2477    0.5757   -1.1840 C   0  0  0  0  0  0  0  0  0  0  0  0
  -30.2955    1.3800   -0.5706 C   0  0  0  0  0  0  0  0  0  0  0  0
  -30.8473    2.6040   -0.7024 N   0  0  0  0  0  0  0  0  0  0  0  0
  -32.1104    2.5905   -1.3360 N   0  0  0  0  0  0  0  0  0  0  0  0
  -32.3535    1.2437   -1.6205 N   0  0  0  0  0  0  0  0  0  0  0  0
  -28.3712    7.4675    1.0868 C   0  0  0  0  0  0  0  0  0  0  0  0
  -30.3186    3.7797   -0.2805 C   0  0  0  0  0  0  0  0  0  0  0  0
  -30.9175    5.0386   -0.4562 C   0  0  0  0  0  0  0  0  0  0  0  0
  -30.3169    6.2318   -0.0261 C   0  0  0  0  0  0  0  0  0  0  0  0
  -29.0596    6.2150    0.5939 C   0  0  0  0  0  0  0  0  0  0  0  0
  -28.4425    4.9789    0.7793 C   0  0  0  0  0  0  0  0  0  0  0  0
  -29.0617    3.8039    0.3501 C   0  0  0  0  0  0  0  0  0  0  0  0
  -30.3700   -3.2558   -1.3919 C   0  0  0  0  0  0  0  0  0  0  0  0
  -29.6524   -1.7009   -1.1663 S   0  0  0  0  0  0  0  0  0  0  0  0
  -31.1945   -0.9179   -1.2998 C   0  0  0  0  0  0  0  0  0  0  0  0
  -32.2375   -1.8222   -1.5443 C   0  0  0  0  0  0  0  0  0  0  0  0
  -31.7595   -3.1664   -1.6183 C   0  0  0  0  0  0  0  0  0  0  0  0
  -29.4418   -4.6413   -1.4874 S   0  0  0  0  0  0  0  0  0  0  0  0
  -28.8353   -5.0603   -0.0467 N   0  0  0  0  0  0  0  0  0  0  0  0
  -30.3882   -5.6557   -1.9364 O   0  0  0  0  0  0  0  0  0  0  0  0
  -28.3937   -4.5846   -2.4620 O   0  0  0  0  0  0  0  0  0  0  0  0
  -28.1740   -4.3485    0.2639 H   0  0  0  0  0  0  0  0  0  0  0  0
  -28.3565   -5.9573   -0.1272 H   0  0  0  0  0  0  0  0  0  0  0  0
 19 18  1  0  0  0
 21 18  2  0  0  0
 18 13  1  0  0  0
 18 20  2  0  0  0
 13 17  2  0  0  0
 13 14  1  0  0  0
 17 16  1  0  0  0
 14 15  1  0  0  0
 16 15  2  0  0  0
 15  1  1  0  0  0
  5  1  1  0  0  0
  5  4  2  0  0  0
  1  2  2  0  0  0
  4  3  1  0  0  0
  2  3  1  0  0  0
  3  7  1  0  0  0
 12  7  2  0  0  0
 12 11  1  0  0  0
  7  8  1  0  0  0
 11 10  2  0  0  0
  8  9  2  0  0  0
 10  9  1  0  0  0
 10  6  1  0  0  0
 19 22  1  0  0  0
 19 23  1  0  0  0
M  END
> <minimizedAffinity>
-6.71853

$$$$
5FL6_Y0R_A_268


 23 25  0  0  0  0  0  0  0  0999 V2000
  -31.9950   -0.0785   -2.1896 C   0  0  0  0  0  0  0  0  0  0  0  0
  -31.9864    1.2262   -1.7128 C   0  0  0  0  0  0  0  0  0  0  0  0
  -33.1838    1.6795   -2.1379 N   0  0  0  0  0  0  0  0  0  0  0  0
  -33.9464    0.7071   -2.8235 N   0  0  0  0  0  0  0  0  0  0  0  0
  -33.1477   -0.4401   -2.8222 N   0  0  0  0  0  0  0  0  0  0  0  0
  -35.0947    7.0233   -1.2561 C   0  0  0  0  0  0  0  0  0  0  0  0
  -33.6904    2.9239   -1.9522 C   0  0  0  0  0  0  0  0  0  0  0  0
  -34.8072    3.4453   -2.6269 C   0  0  0  0  0  0  0  0  0  0  0  0
  -35.2775    4.7513   -2.4206 C   0  0  0  0  0  0  0  0  0  0  0  0
  -34.6258    5.6116   -1.5257 C   0  0  0  0  0  0  0  0  0  0  0  0
  -33.5139    5.1197   -0.8438 C   0  0  0  0  0  0  0  0  0  0  0  0
  -33.0681    3.8147   -1.0594 C   0  0  0  0  0  0  0  0  0  0  0  0
  -29.7354   -3.2075   -1.4167 C   0  0  0  0  0  0  0  0  0  0  0  0
  -31.3793   -2.6772   -1.4177 S   0  0  0  0  0  0  0  0  0  0  0  0
  -30.9194   -1.1004   -1.9753 C   0  0  0  0  0  0  0  0  0  0  0  0
  -29.5322   -0.9675   -2.1287 C   0  0  0  0  0  0  0  0  0  0  0  0
  -28.8489   -2.1745   -1.7867 C   0  0  0  0  0  0  0  0  0  0  0  0
  -29.3073   -4.7259   -0.8678 S   0  0  0  0  0  0  0  0  0  0  0  0
  -29.6735   -4.9264    0.6958 N   0  0  0  0  0  0  0  0  0  0  0  0
  -30.1180   -5.6240   -1.6817 O   0  0  0  0  0  0  0  0  0  0  0  0
  -27.9369   -5.0731   -1.0980 O   0  0  0  0  0  0  0  0  0  0  0  0
  -29.1045   -4.2967    1.2617 H   0  0  0  0  0  0  0  0  0  0  0  0
  -29.4858   -5.8914    0.9680 H   0  0  0  0  0  0  0  0  0  0  0  0
 19 18  1  0  0  0
 21 18  2  0  0  0
 18 13  1  0  0  0
 18 20  2  0  0  0
 13 17  2  0  0  0
 13 14  1  0  0  0
 17 16  1  0  0  0
 14 15  1  0  0  0
 16 15  2  0  0  0
 15  1  1  0  0  0
  5  1  1  0  0  0
  5  4  2  0  0  0
  1  2  2  0  0  0
  4  3  1  0  0  0
  2  3  1  0  0  0
  3  7  1  0  0  0
 12  7  2  0  0  0
 12 11  1  0  0  0
  7  8  1  0  0  0
 11 10  2  0  0  0
  8  9  2  0  0  0
 10  9  1  0  0  0
 10  6  1  0  0  0
 19 22  1  0  0  0
 19 23  1  0  0  0
M  END
> <minimizedAffinity>
-6.60970

$$$$
5FL6_Y0R_A_268


 23 25  0  0  0  0  0  0  0  0999 V2000
  -32.1595    0.0897   -0.9929 C   0  0  0  0  0  0  0  0  0  0  0  0
  -30.9990   -0.4208   -1.5608 C   0  0  0  0  0  0  0  0  0  0  0  0
  -31.0480   -1.7104   -1.1676 N   0  0  0  0  0  0  0  0  0  0  0  0
  -32.2003   -2.0294   -0.4143 N   0  0  0  0  0  0  0  0  0  0  0  0
  -32.9185   -0.8328   -0.3353 N   0  0  0  0  0  0  0  0  0  0  0  0
  -26.9884   -5.6274   -2.2464 C   0  0  0  0  0  0  0  0  0  0  0  0
  -30.1341   -2.6748   -1.4404 C   0  0  0  0  0  0  0  0  0  0  0  0
  -30.4132   -4.0503   -1.5060 C   0  0  0  0  0  0  0  0  0  0  0  0
  -29.4262   -5.0139   -1.7644 C   0  0  0  0  0  0  0  0  0  0  0  0
  -28.0901   -4.6341   -1.9542 C   0  0  0  0  0  0  0  0  0  0  0  0
  -27.7854   -3.2752   -1.8930 C   0  0  0  0  0  0  0  0  0  0  0  0
  -28.7846   -2.3335   -1.6419 C   0  0  0  0  0  0  0  0  0  0  0  0
  -34.0540    3.4588   -1.7368 C   0  0  0  0  0  0  0  0  0  0  0  0
  -34.1608    1.7512   -1.9739 S   0  0  0  0  0  0  0  0  0  0  0  0
  -32.6643    1.4940   -1.1353 C   0  0  0  0  0  0  0  0  0  0  0  0
  -32.0744    2.6918   -0.7081 C   0  0  0  0  0  0  0  0  0  0  0  0
  -32.8644    3.8247   -1.0731 C   0  0  0  0  0  0  0  0  0  0  0  0
  -35.1799    4.5042   -2.3925 S   0  0  0  0  0  0  0  0  0  0  0  0
  -34.5003    5.8860   -2.8904 N   0  0  0  0  0  0  0  0  0  0  0  0
  -35.6991    3.7701   -3.5405 O   0  0  0  0  0  0  0  0  0  0  0  0
  -36.2931    4.7867   -1.5366 O   0  0  0  0  0  0  0  0  0  0  0  0
  -34.1384    6.3965   -2.0848 H   0  0  0  0  0  0  0  0  0  0  0  0
  -35.1987    6.4556   -3.3681 H   0  0  0  0  0  0  0  0  0  0  0  0
 19 18  1  0  0  0
 21 18  2  0  0  0
 18 13  1  0  0  0
 18 20  2  0  0  0
 13 17  2  0  0  0
 13 14  1  0  0  0
 17 16  1  0  0  0
 14 15  1  0  0  0
 16 15  2  0  0  0
 15  1  1  0  0  0
  5  1  1  0  0  0
  5  4  2  0  0  0
  1  2  2  0  0  0
  4  3  1  0  0  0
  2  3  1  0  0  0
  3  7  1  0  0  0
 12  7  2  0  0  0
 12 11  1  0  0  0
  7  8  1  0  0  0
 11 10  2  0  0  0
  8  9  2  0  0  0
 10  9  1  0  0  0
 10  6  1  0  0  0
 19 22  1  0  0  0
 19 23  1  0  0  0
M  END
> <minimizedAffinity>
-6.57007

$$$$
5FL6_Y0R_A_268


 23 25  0  0  0  0  0  0  0  0999 V2000
  -31.3238   -0.6527   -0.8032 C   0  0  0  0  0  0  0  0  0  0  0  0
  -31.2411    0.6054   -0.2201 C   0  0  0  0  0  0  0  0  0  0  0  0
  -32.0629    1.3264   -1.0106 N   0  0  0  0  0  0  0  0  0  0  0  0
  -32.6765    0.5668   -2.0321 N   0  0  0  0  0  0  0  0  0  0  0  0
  -32.1872   -0.7308   -1.8559 N   0  0  0  0  0  0  0  0  0  0  0  0
  -32.9905    6.9756   -0.5493 C   0  0  0  0  0  0  0  0  0  0  0  0
  -32.3427    2.6486   -0.8948 C   0  0  0  0  0  0  0  0  0  0  0  0
  -33.6005    3.2273   -1.1343 C   0  0  0  0  0  0  0  0  0  0  0  0
  -33.8341    4.6069   -1.0282 C   0  0  0  0  0  0  0  0  0  0  0  0
  -32.7938    5.4831   -0.6885 C   0  0  0  0  0  0  0  0  0  0  0  0
  -31.5349    4.9351   -0.4469 C   0  0  0  0  0  0  0  0  0  0  0  0
  -31.3271    3.5588   -0.5511 C   0  0  0  0  0  0  0  0  0  0  0  0
  -29.3861   -4.0329   -0.2433 C   0  0  0  0  0  0  0  0  0  0  0  0
  -29.8852   -2.9336   -1.4786 S   0  0  0  0  0  0  0  0  0  0  0  0
  -30.6430   -1.8954   -0.3138 C   0  0  0  0  0  0  0  0  0  0  0  0
  -30.5463   -2.3926    0.9934 C   0  0  0  0  0  0  0  0  0  0  0  0
  -29.8407   -3.6342    1.0311 C   0  0  0  0  0  0  0  0  0  0  0  0
  -28.6068   -5.4642   -0.6098 S   0  0  0  0  0  0  0  0  0  0  0  0
  -28.4523   -6.4157    0.6902 N   0  0  0  0  0  0  0  0  0  0  0  0
  -29.4934   -6.0967   -1.5795 O   0  0  0  0  0  0  0  0  0  0  0  0
  -27.3358   -5.2984   -1.2490 O   0  0  0  0  0  0  0  0  0  0  0  0
  -27.8316   -5.9700    1.3659 H   0  0  0  0  0  0  0  0  0  0  0  0
  -28.0598   -7.3142    0.4091 H   0  0  0  0  0  0  0  0  0  0  0  0
 19 18  1  0  0  0
 21 18  2  0  0  0
 18 13  1  0  0  0
 18 20  2  0  0  0
 13 17  2  0  0  0
 13 14  1  0  0  0
 17 16  1  0  0  0
 14 15  1  0  0  0
 16 15  2  0  0  0
 15  1  1  0  0  0
  5  1  1  0  0  0
  5  4  2  0  0  0
  1  2  2  0  0  0
  4  3  1  0  0  0
  2  3  1  0  0  0
  3  7  1  0  0  0
 12  7  2  0  0  0
 12 11  1  0  0  0
  7  8  1  0  0  0
 11 10  2  0  0  0
  8  9  2  0  0  0
 10  9  1  0  0  0
 10  6  1  0  0  0
 19 22  1  0  0  0
 19 23  1  0  0  0
M  END
> <minimizedAffinity>
-6.38182

$$$$
