3IVX_FG6_A_302


 32 35  0  0  0  0  0  0  0  0999 V2000
   16.2618    9.0851    2.2805 O   0  0  0  0  0  0  0  0  0  0  0  0
   16.3327   11.3307    2.1162 N   0  0  0  0  0  0  0  0  0  0  0  0
   16.1086   10.1163    1.6053 C   0  0  0  0  0  0  0  0  0  0  0  0
   16.1702   12.1270    1.5606 H   0  0  0  0  0  0  0  0  0  0  0  0
   16.5006   10.1100   -0.7488 N   0  0  0  0  0  0  0  0  0  0  0  0
   15.1946    9.9775   -4.1686 C   0  0  0  0  0  0  0  0  0  0  0  0
   16.1497   10.0542   -3.1602 C   0  0  0  0  0  0  0  0  0  0  0  0
   13.5062    9.9218   -2.4550 C   0  0  0  0  0  0  0  0  0  0  0  0
   14.4204   10.0038   -0.1489 C   0  0  0  0  0  0  0  0  0  0  0  0
   13.8535    9.9056   -3.8279 C   0  0  0  0  0  0  0  0  0  0  0  0
   15.6861   10.0768    0.3073 C   0  0  0  0  0  0  0  0  0  0  0  0
   14.4612    9.9942   -1.4980 C   0  0  0  0  0  0  0  0  0  0  0  0
   15.7639   10.0508   -1.8571 C   0  0  0  0  0  0  0  0  0  0  0  0
   11.6688    9.2530   -4.6774 C   0  0  0  0  0  0  0  0  0  0  0  0
   12.9727    9.8244   -4.8780 O   0  0  0  0  0  0  0  0  0  0  0  0
   17.9947   10.1531   -0.9328 C   0  0  0  0  0  0  0  0  0  0  0  0
   18.8010   11.3586   -0.4706 C   0  0  0  0  0  0  0  0  0  0  0  0
   18.2205   12.4220   -0.2258 O   0  0  0  0  0  0  0  0  0  0  0  0
   20.0337   11.1651   -0.4052 O   0  0  0  0  0  0  0  0  0  0  0  0
   17.2881   12.4751   -0.3018 H   0  0  0  0  0  0  0  0  0  0  0  0
   16.7931   12.9628    4.0448 O   0  0  0  0  0  0  0  0  0  0  0  0
   18.3664   11.1863    3.8556 O   0  0  0  0  0  0  0  0  0  0  0  0
   16.8886   11.5222    3.6950 S   0  0  0  0  0  0  0  0  0  0  0  0
   14.7953    7.8415    8.0071 C   0  0  0  0  0  0  0  0  0  0  0  0
   13.5233    8.2539    7.6125 C   0  0  0  0  0  0  0  0  0  0  0  0
   15.8949    8.3638    7.3456 C   0  0  0  0  0  0  0  0  0  0  0  0
   13.4074    9.1823    6.5737 C   0  0  0  0  0  0  0  0  0  0  0  0
   16.6098    9.8514    5.6032 C   0  0  0  0  0  0  0  0  0  0  0  0
   14.7110   10.6276    4.8784 O   0  0  0  0  0  0  0  0  0  0  0  0
   16.0086   10.6553    4.7483 C   0  0  0  0  0  0  0  0  0  0  0  0
   15.7185    9.2359    6.3579 C   0  0  0  0  0  0  0  0  0  0  0  0
   14.5034    9.6563    5.9719 C   0  0  0  0  0  0  0  0  0  0  0  0
 16 17  1  0  0  0
 17 19  2  0  0  0
 17 18  1  0  0  0
 13  5  1  0  0  0
 16  5  1  0  0  0
  5 11  1  0  0  0
 15 14  1  0  0  0
  3  1  2  0  0  0
 23 21  2  0  0  0
 23 22  2  0  0  0
 25 24  2  0  0  0
 26 24  1  0  0  0
 27 25  1  0  0  0
  6 10  2  0  0  0
  6  7  1  0  0  0
 31 26  2  0  0  0
 32 27  2  0  0  0
  7 13  2  0  0  0
 10  8  1  0  0  0
  8 12  2  0  0  0
 30 28  2  0  0  0
 28 31  1  0  0  0
 12  9  1  0  0  0
  9 11  2  0  0  0
  3  2  1  0  0  0
  2 23  1  0  0  0
 15 10  1  0  0  0
 29 30  1  0  0  0
 29 32  1  0  0  0
 11  3  1  0  0  0
 23 30  1  0  0  0
 32 31  1  0  0  0
 13 12  1  0  0  0
 18 20  1  0  0  0
  2  4  1  0  0  0
M  END
> <minimizedAffinity>
-10.78337

$$$$
3IVX_FG6_A_302


 32 35  0  0  0  0  0  0  0  0999 V2000
   16.9855   12.0377    1.6447 O   0  0  0  0  0  0  0  0  0  0  0  0
   17.3259    9.9271    0.9344 N   0  0  0  0  0  0  0  0  0  0  0  0
   16.9734   10.8159    1.8682 C   0  0  0  0  0  0  0  0  0  0  0  0
   17.2736    8.9653    1.1377 H   0  0  0  0  0  0  0  0  0  0  0  0
   15.3460    9.8882    3.3468 N   0  0  0  0  0  0  0  0  0  0  0  0
   14.4780    8.5203    6.6321 C   0  0  0  0  0  0  0  0  0  0  0  0
   14.2792    8.9298    5.3177 C   0  0  0  0  0  0  0  0  0  0  0  0
   16.7731    9.2100    6.4154 C   0  0  0  0  0  0  0  0  0  0  0  0
   17.3343   10.1239    4.1770 C   0  0  0  0  0  0  0  0  0  0  0  0
   15.7349    8.6515    7.2003 C   0  0  0  0  0  0  0  0  0  0  0  0
   16.5839   10.3030    3.0723 C   0  0  0  0  0  0  0  0  0  0  0  0
   16.5467    9.5960    5.1375 C   0  0  0  0  0  0  0  0  0  0  0  0
   15.3135    9.4455    4.6027 C   0  0  0  0  0  0  0  0  0  0  0  0
   14.6779    7.8634    9.2452 C   0  0  0  0  0  0  0  0  0  0  0  0
   15.8535    8.2180    8.4976 O   0  0  0  0  0  0  0  0  0  0  0  0
   14.0659    9.7827    2.5604 C   0  0  0  0  0  0  0  0  0  0  0  0
   13.8728    8.6762    1.5332 C   0  0  0  0  0  0  0  0  0  0  0  0
   14.8208    7.9350    1.2509 O   0  0  0  0  0  0  0  0  0  0  0  0
   12.7325    8.6328    1.0243 O   0  0  0  0  0  0  0  0  0  0  0  0
   15.6439    8.0409    1.6860 H   0  0  0  0  0  0  0  0  0  0  0  0
   19.0400    9.6021   -0.9500 O   0  0  0  0  0  0  0  0  0  0  0  0
   18.3711   11.8597   -0.6001 O   0  0  0  0  0  0  0  0  0  0  0  0
   17.8582   10.4247   -0.5845 S   0  0  0  0  0  0  0  0  0  0  0  0
   12.7463    9.8004   -3.7471 C   0  0  0  0  0  0  0  0  0  0  0  0
   13.5642    9.6836   -4.8701 C   0  0  0  0  0  0  0  0  0  0  0  0
   13.3430    9.9870   -2.5107 C   0  0  0  0  0  0  0  0  0  0  0  0
   14.9501    9.7679   -4.7066 C   0  0  0  0  0  0  0  0  0  0  0  0
   15.4358   10.2188   -1.3592 C   0  0  0  0  0  0  0  0  0  0  0  0
   16.8592   10.0885   -2.9994 O   0  0  0  0  0  0  0  0  0  0  0  0
   16.7060   10.2387   -1.7128 C   0  0  0  0  0  0  0  0  0  0  0  0
   14.6678   10.0483   -2.4193 C   0  0  0  0  0  0  0  0  0  0  0  0
   15.4724    9.9519   -3.4895 C   0  0  0  0  0  0  0  0  0  0  0  0
 16 17  1  0  0  0
 17 19  2  0  0  0
 17 18  1  0  0  0
 13  5  1  0  0  0
 16  5  1  0  0  0
  5 11  1  0  0  0
 15 14  1  0  0  0
  3  1  2  0  0  0
 23 21  2  0  0  0
 23 22  2  0  0  0
 25 24  2  0  0  0
 26 24  1  0  0  0
 27 25  1  0  0  0
  6 10  2  0  0  0
  6  7  1  0  0  0
 31 26  2  0  0  0
 32 27  2  0  0  0
  7 13  2  0  0  0
 10  8  1  0  0  0
  8 12  2  0  0  0
 30 28  2  0  0  0
 28 31  1  0  0  0
 12  9  1  0  0  0
  9 11  2  0  0  0
  3  2  1  0  0  0
  2 23  1  0  0  0
 15 10  1  0  0  0
 29 30  1  0  0  0
 29 32  1  0  0  0
 11  3  1  0  0  0
 23 30  1  0  0  0
 32 31  1  0  0  0
 13 12  1  0  0  0
 18 20  1  0  0  0
  2  4  1  0  0  0
M  END
> <minimizedAffinity>
-10.31646

$$$$
3IVX_FG6_A_302


 32 35  0  0  0  0  0  0  0  0999 V2000
   16.4035   11.7499    2.6890 O   0  0  0  0  0  0  0  0  0  0  0  0
   16.8696    9.5460    2.6663 N   0  0  0  0  0  0  0  0  0  0  0  0
   16.3448   10.6472    2.1204 C   0  0  0  0  0  0  0  0  0  0  0  0
   16.8318    8.6956    2.1718 H   0  0  0  0  0  0  0  0  0  0  0  0
   14.4429   10.3728    0.7052 N   0  0  0  0  0  0  0  0  0  0  0  0
   13.0344    9.9824   -2.6537 C   0  0  0  0  0  0  0  0  0  0  0  0
   13.0380   10.0950   -1.2672 C   0  0  0  0  0  0  0  0  0  0  0  0
   15.4337   10.1564   -2.5940 C   0  0  0  0  0  0  0  0  0  0  0  0
   16.3588   10.4291   -0.3070 C   0  0  0  0  0  0  0  0  0  0  0  0
   14.2378   10.0160   -3.3397 C   0  0  0  0  0  0  0  0  0  0  0  0
   15.7576   10.4927    0.8972 C   0  0  0  0  0  0  0  0  0  0  0  0
   15.4019   10.2666   -1.2449 C   0  0  0  0  0  0  0  0  0  0  0  0
   14.2130   10.2433   -0.6006 C   0  0  0  0  0  0  0  0  0  0  0  0
   15.3466    9.9360   -5.5040 C   0  0  0  0  0  0  0  0  0  0  0  0
   14.1515    9.9070   -4.7056 O   0  0  0  0  0  0  0  0  0  0  0  0
   13.2349   10.3973    1.6042 C   0  0  0  0  0  0  0  0  0  0  0  0
   12.9291    9.2271    2.5284 C   0  0  0  0  0  0  0  0  0  0  0  0
   13.0805    9.3585    3.7480 O   0  0  0  0  0  0  0  0  0  0  0  0
   12.5646    8.1848    1.9437 O   0  0  0  0  0  0  0  0  0  0  0  0
   13.3582   10.1815    4.0997 H   0  0  0  0  0  0  0  0  0  0  0  0
   18.4173   10.8226    4.2693 O   0  0  0  0  0  0  0  0  0  0  0  0
   18.5853    8.4522    4.4104 O   0  0  0  0  0  0  0  0  0  0  0  0
   17.5947    9.5884    4.1864 S   0  0  0  0  0  0  0  0  0  0  0  0
   14.2009    8.6228    9.0929 C   0  0  0  0  0  0  0  0  0  0  0  0
   13.3867    9.6503    8.6184 C   0  0  0  0  0  0  0  0  0  0  0  0
   15.3186    8.2698    8.3541 C   0  0  0  0  0  0  0  0  0  0  0  0
   13.7334   10.2884    7.4238 C   0  0  0  0  0  0  0  0  0  0  0  0
   16.5855    8.7389    6.3705 C   0  0  0  0  0  0  0  0  0  0  0  0
   15.4506   10.3778    5.4989 O   0  0  0  0  0  0  0  0  0  0  0  0
   16.4902    9.5995    5.3760 C   0  0  0  0  0  0  0  0  0  0  0  0
   15.5890    8.9080    7.2198 C   0  0  0  0  0  0  0  0  0  0  0  0
   14.8259    9.9089    6.7527 C   0  0  0  0  0  0  0  0  0  0  0  0
 16 17  1  0  0  0
 17 19  2  0  0  0
 17 18  1  0  0  0
 13  5  1  0  0  0
 16  5  1  0  0  0
  5 11  1  0  0  0
 15 14  1  0  0  0
  3  1  2  0  0  0
 23 21  2  0  0  0
 23 22  2  0  0  0
 25 24  2  0  0  0
 26 24  1  0  0  0
 27 25  1  0  0  0
  6 10  2  0  0  0
  6  7  1  0  0  0
 31 26  2  0  0  0
 32 27  2  0  0  0
  7 13  2  0  0  0
 10  8  1  0  0  0
  8 12  2  0  0  0
 30 28  2  0  0  0
 28 31  1  0  0  0
 12  9  1  0  0  0
  9 11  2  0  0  0
  3  2  1  0  0  0
  2 23  1  0  0  0
 15 10  1  0  0  0
 29 30  1  0  0  0
 29 32  1  0  0  0
 11  3  1  0  0  0
 23 30  1  0  0  0
 32 31  1  0  0  0
 13 12  1  0  0  0
 18 20  1  0  0  0
  2  4  1  0  0  0
M  END
> <minimizedAffinity>
-10.30973

$$$$
3IVX_FG6_A_302


 32 35  0  0  0  0  0  0  0  0999 V2000
   16.6674   11.7356    1.3354 O   0  0  0  0  0  0  0  0  0  0  0  0
   16.4248    9.5235    1.6851 N   0  0  0  0  0  0  0  0  0  0  0  0
   16.2996   10.6201    0.9316 C   0  0  0  0  0  0  0  0  0  0  0  0
   16.1513    8.6513    1.3195 H   0  0  0  0  0  0  0  0  0  0  0  0
   16.4788   10.3019   -1.4268 N   0  0  0  0  0  0  0  0  0  0  0  0
   14.8681    9.8086   -4.6795 C   0  0  0  0  0  0  0  0  0  0  0  0
   15.9118    9.9636   -3.7731 C   0  0  0  0  0  0  0  0  0  0  0  0
   13.3388   10.0486   -2.8372 C   0  0  0  0  0  0  0  0  0  0  0  0
   14.4581   10.3723   -0.6457 C   0  0  0  0  0  0  0  0  0  0  0  0
   13.5611    9.8449   -4.2211 C   0  0  0  0  0  0  0  0  0  0  0  0
   15.7614   10.4400   -0.3105 C   0  0  0  0  0  0  0  0  0  0  0  0
   14.3777   10.1930   -1.9810 C   0  0  0  0  0  0  0  0  0  0  0  0
   15.6443   10.1412   -2.4525 C   0  0  0  0  0  0  0  0  0  0  0  0
   11.2630    9.2770   -4.7835 C   0  0  0  0  0  0  0  0  0  0  0  0
   12.5875    9.6765   -5.1743 O   0  0  0  0  0  0  0  0  0  0  0  0
   17.9511   10.2491   -1.7396 C   0  0  0  0  0  0  0  0  0  0  0  0
   18.9861   10.3216   -0.6257 C   0  0  0  0  0  0  0  0  0  0  0  0
   19.2343    9.3113    0.0417 O   0  0  0  0  0  0  0  0  0  0  0  0
   19.4926   11.4516   -0.4599 O   0  0  0  0  0  0  0  0  0  0  0  0
   18.8044    8.5023   -0.1553 H   0  0  0  0  0  0  0  0  0  0  0  0
   16.6177    8.3857    3.9793 O   0  0  0  0  0  0  0  0  0  0  0  0
   16.4626   10.7597    4.0626 O   0  0  0  0  0  0  0  0  0  0  0  0
   17.0427    9.6082    3.2501 S   0  0  0  0  0  0  0  0  0  0  0  0
   22.9997    8.6771    3.6629 C   0  0  0  0  0  0  0  0  0  0  0  0
   23.1415   10.0060    3.2656 C   0  0  0  0  0  0  0  0  0  0  0  0
   21.7216    8.1583    3.7925 C   0  0  0  0  0  0  0  0  0  0  0  0
   21.9922   10.7584    3.0057 C   0  0  0  0  0  0  0  0  0  0  0  0
   19.3795    8.6449    3.5989 C   0  0  0  0  0  0  0  0  0  0  0  0
   19.4122   10.7188    2.9423 O   0  0  0  0  0  0  0  0  0  0  0  0
   18.6637    9.6957    3.2494 C   0  0  0  0  0  0  0  0  0  0  0  0
   20.6676    8.9283    3.5409 C   0  0  0  0  0  0  0  0  0  0  0  0
   20.7826   10.2056    3.1441 C   0  0  0  0  0  0  0  0  0  0  0  0
 16 17  1  0  0  0
 17 19  2  0  0  0
 17 18  1  0  0  0
 13  5  1  0  0  0
 16  5  1  0  0  0
  5 11  1  0  0  0
 15 14  1  0  0  0
  3  1  2  0  0  0
 23 21  2  0  0  0
 23 22  2  0  0  0
 25 24  2  0  0  0
 26 24  1  0  0  0
 27 25  1  0  0  0
  6 10  2  0  0  0
  6  7  1  0  0  0
 31 26  2  0  0  0
 32 27  2  0  0  0
  7 13  2  0  0  0
 10  8  1  0  0  0
  8 12  2  0  0  0
 30 28  2  0  0  0
 28 31  1  0  0  0
 12  9  1  0  0  0
  9 11  2  0  0  0
  3  2  1  0  0  0
  2 23  1  0  0  0
 15 10  1  0  0  0
 29 30  1  0  0  0
 29 32  1  0  0  0
 11  3  1  0  0  0
 23 30  1  0  0  0
 32 31  1  0  0  0
 13 12  1  0  0  0
 18 20  1  0  0  0
  2  4  1  0  0  0
M  END
> <minimizedAffinity>
-10.24084

$$$$
3IVX_FG6_A_302


 32 35  0  0  0  0  0  0  0  0999 V2000
   16.2556   11.5206    1.5311 O   0  0  0  0  0  0  0  0  0  0  0  0
   16.0356    9.2891    1.7468 N   0  0  0  0  0  0  0  0  0  0  0  0
   16.7243   10.4260    1.8845 C   0  0  0  0  0  0  0  0  0  0  0  0
   16.4268    8.4444    2.0673 H   0  0  0  0  0  0  0  0  0  0  0  0
   19.0926   10.7196    1.8679 N   0  0  0  0  0  0  0  0  0  0  0  0
   22.3318   10.3641    3.5410 C   0  0  0  0  0  0  0  0  0  0  0  0
   21.4379   10.7066    2.5318 C   0  0  0  0  0  0  0  0  0  0  0  0
   20.4606    9.5371    4.8079 C   0  0  0  0  0  0  0  0  0  0  0  0
   18.2789    9.7992    3.6538 C   0  0  0  0  0  0  0  0  0  0  0  0
   21.8525    9.7757    4.7003 C   0  0  0  0  0  0  0  0  0  0  0  0
   17.9622   10.3163    2.4505 C   0  0  0  0  0  0  0  0  0  0  0  0
   19.6170    9.8854    3.8078 C   0  0  0  0  0  0  0  0  0  0  0  0
   20.1092   10.4699    2.6918 C   0  0  0  0  0  0  0  0  0  0  0  0
   22.3807    9.0961    6.9761 C   0  0  0  0  0  0  0  0  0  0  0  0
   22.7947    9.4743    5.6523 O   0  0  0  0  0  0  0  0  0  0  0  0
   19.4293   11.3993    0.5669 C   0  0  0  0  0  0  0  0  0  0  0  0
   18.9466   10.8259   -0.7580 C   0  0  0  0  0  0  0  0  0  0  0  0
   17.9180   11.2737   -1.2768 O   0  0  0  0  0  0  0  0  0  0  0  0
   19.6477    9.8943   -1.2071 O   0  0  0  0  0  0  0  0  0  0  0  0
   17.4547   11.9775   -0.8670 H   0  0  0  0  0  0  0  0  0  0  0  0
   13.7206   10.3931    1.6157 O   0  0  0  0  0  0  0  0  0  0  0  0
   13.7032    8.0260    1.3639 O   0  0  0  0  0  0  0  0  0  0  0  0
   14.5092    9.2765    1.0340 S   0  0  0  0  0  0  0  0  0  0  0  0
   13.5205    9.9408   -4.8910 C   0  0  0  0  0  0  0  0  0  0  0  0
   14.9080    9.9508   -5.0274 C   0  0  0  0  0  0  0  0  0  0  0  0
   12.9816    9.7998   -3.6224 C   0  0  0  0  0  0  0  0  0  0  0  0
   15.6992    9.8274   -3.8814 C   0  0  0  0  0  0  0  0  0  0  0  0
   13.4948    9.5334   -1.2932 C   0  0  0  0  0  0  0  0  0  0  0  0
   15.6702    9.5587   -1.3145 O   0  0  0  0  0  0  0  0  0  0  0  0
   14.5991    9.4657   -0.5758 C   0  0  0  0  0  0  0  0  0  0  0  0
   13.7876    9.6761   -2.5725 C   0  0  0  0  0  0  0  0  0  0  0  0
   15.1255    9.6970   -2.6807 C   0  0  0  0  0  0  0  0  0  0  0  0
 16 17  1  0  0  0
 17 19  2  0  0  0
 17 18  1  0  0  0
 13  5  1  0  0  0
 16  5  1  0  0  0
  5 11  1  0  0  0
 15 14  1  0  0  0
  3  1  2  0  0  0
 23 21  2  0  0  0
 23 22  2  0  0  0
 25 24  2  0  0  0
 26 24  1  0  0  0
 27 25  1  0  0  0
  6 10  2  0  0  0
  6  7  1  0  0  0
 31 26  2  0  0  0
 32 27  2  0  0  0
  7 13  2  0  0  0
 10  8  1  0  0  0
  8 12  2  0  0  0
 30 28  2  0  0  0
 28 31  1  0  0  0
 12  9  1  0  0  0
  9 11  2  0  0  0
  3  2  1  0  0  0
  2 23  1  0  0  0
 15 10  1  0  0  0
 29 30  1  0  0  0
 29 32  1  0  0  0
 11  3  1  0  0  0
 23 30  1  0  0  0
 32 31  1  0  0  0
 13 12  1  0  0  0
 18 20  1  0  0  0
  2  4  1  0  0  0
M  END
> <minimizedAffinity>
-10.04832

$$$$
3IVX_FG6_A_302


 32 35  0  0  0  0  0  0  0  0999 V2000
   19.4761   11.6313   -0.6885 O   0  0  0  0  0  0  0  0  0  0  0  0
   19.4801    9.4414   -0.1605 N   0  0  0  0  0  0  0  0  0  0  0  0
   18.8709   10.5513   -0.5882 C   0  0  0  0  0  0  0  0  0  0  0  0
   18.9763    8.5963   -0.1240 H   0  0  0  0  0  0  0  0  0  0  0  0
   16.5459   10.4999   -0.0523 N   0  0  0  0  0  0  0  0  0  0  0  0
   13.0623   10.1543   -1.1305 C   0  0  0  0  0  0  0  0  0  0  0  0
   14.1218   10.3385   -0.2482 C   0  0  0  0  0  0  0  0  0  0  0  0
   14.6775    9.9577   -2.9033 C   0  0  0  0  0  0  0  0  0  0  0  0
   17.0279   10.2049   -2.1449 C   0  0  0  0  0  0  0  0  0  0  0  0
   13.3268    9.9647   -2.4774 C   0  0  0  0  0  0  0  0  0  0  0  0
   17.5533   10.4249   -0.9237 C   0  0  0  0  0  0  0  0  0  0  0  0
   15.6856   10.1429   -2.0186 C   0  0  0  0  0  0  0  0  0  0  0  0
   15.3995   10.3383   -0.7112 C   0  0  0  0  0  0  0  0  0  0  0  0
   12.4044    9.4556   -4.6705 C   0  0  0  0  0  0  0  0  0  0  0  0
   12.2294    9.7979   -3.2853 O   0  0  0  0  0  0  0  0  0  0  0  0
   16.4433   10.7589    1.4278 C   0  0  0  0  0  0  0  0  0  0  0  0
   16.7658    9.6628    2.4335 C   0  0  0  0  0  0  0  0  0  0  0  0
   17.9315    9.2694    2.5528 O   0  0  0  0  0  0  0  0  0  0  0  0
   15.7761    9.2197    3.0543 O   0  0  0  0  0  0  0  0  0  0  0  0
   18.6129    9.6623    2.0437 H   0  0  0  0  0  0  0  0  0  0  0  0
   21.4037   10.8219    0.8339 O   0  0  0  0  0  0  0  0  0  0  0  0
   22.0663    9.2649   -0.8405 O   0  0  0  0  0  0  0  0  0  0  0  0
   21.0955    9.4636    0.3173 S   0  0  0  0  0  0  0  0  0  0  0  0
   23.2540    5.0987    3.8967 C   0  0  0  0  0  0  0  0  0  0  0  0
   22.1380    5.3323    4.6990 C   0  0  0  0  0  0  0  0  0  0  0  0
   23.4115    5.8545    2.7462 C   0  0  0  0  0  0  0  0  0  0  0  0
   21.2285    6.3231    4.3172 C   0  0  0  0  0  0  0  0  0  0  0  0
   22.4573    7.5971    1.3998 C   0  0  0  0  0  0  0  0  0  0  0  0
   20.6808    8.1162    2.5433 O   0  0  0  0  0  0  0  0  0  0  0  0
   21.3909    8.3686    1.4787 C   0  0  0  0  0  0  0  0  0  0  0  0
   22.5056    6.7752    2.4318 C   0  0  0  0  0  0  0  0  0  0  0  0
   21.4316    7.0251    3.1975 C   0  0  0  0  0  0  0  0  0  0  0  0
 16 17  1  0  0  0
 17 19  2  0  0  0
 17 18  1  0  0  0
 13  5  1  0  0  0
 16  5  1  0  0  0
  5 11  1  0  0  0
 15 14  1  0  0  0
  3  1  2  0  0  0
 23 21  2  0  0  0
 23 22  2  0  0  0
 25 24  2  0  0  0
 26 24  1  0  0  0
 27 25  1  0  0  0
  6 10  2  0  0  0
  6  7  1  0  0  0
 31 26  2  0  0  0
 32 27  2  0  0  0
  7 13  2  0  0  0
 10  8  1  0  0  0
  8 12  2  0  0  0
 30 28  2  0  0  0
 28 31  1  0  0  0
 12  9  1  0  0  0
  9 11  2  0  0  0
  3  2  1  0  0  0
  2 23  1  0  0  0
 15 10  1  0  0  0
 29 30  1  0  0  0
 29 32  1  0  0  0
 11  3  1  0  0  0
 23 30  1  0  0  0
 32 31  1  0  0  0
 13 12  1  0  0  0
 18 20  1  0  0  0
  2  4  1  0  0  0
M  END
> <minimizedAffinity>
-9.86531

$$$$
3IVX_FG6_A_302


 32 35  0  0  0  0  0  0  0  0999 V2000
   16.9859   12.3456    2.1502 O   0  0  0  0  0  0  0  0  0  0  0  0
   16.9917   10.2280    1.3818 N   0  0  0  0  0  0  0  0  0  0  0  0
   16.7962   11.1336    2.3449 C   0  0  0  0  0  0  0  0  0  0  0  0
   16.8006    9.2794    1.5635 H   0  0  0  0  0  0  0  0  0  0  0  0
   17.1222    9.9684    4.4019 N   0  0  0  0  0  0  0  0  0  0  0  0
   15.7921    8.7630    7.5951 C   0  0  0  0  0  0  0  0  0  0  0  0
   16.7325    8.9702    6.5912 C   0  0  0  0  0  0  0  0  0  0  0  0
   14.1986    9.9483    6.2364 C   0  0  0  0  0  0  0  0  0  0  0  0
   15.1298   10.7606    4.0839 C   0  0  0  0  0  0  0  0  0  0  0  0
   14.5072    9.2554    7.4324 C   0  0  0  0  0  0  0  0  0  0  0  0
   16.3605   10.6520    3.5461 C   0  0  0  0  0  0  0  0  0  0  0  0
   15.1384   10.1354    5.2800 C   0  0  0  0  0  0  0  0  0  0  0  0
   16.3887    9.6554    5.4690 C   0  0  0  0  0  0  0  0  0  0  0  0
   13.2523   10.0934    9.3411 C   0  0  0  0  0  0  0  0  0  0  0  0
   13.6394    9.0177    8.4694 O   0  0  0  0  0  0  0  0  0  0  0  0
   18.5665    9.5424    4.4269 C   0  0  0  0  0  0  0  0  0  0  0  0
   19.0580    8.4066    3.5407 C   0  0  0  0  0  0  0  0  0  0  0  0
   19.3977    8.6456    2.3766 O   0  0  0  0  0  0  0  0  0  0  0  0
   19.0460    7.2814    4.0839 O   0  0  0  0  0  0  0  0  0  0  0  0
   19.3747    9.5246    2.0529 H   0  0  0  0  0  0  0  0  0  0  0  0
   18.8033    9.9169   -0.4115 O   0  0  0  0  0  0  0  0  0  0  0  0
   17.9858   12.1433   -0.2073 O   0  0  0  0  0  0  0  0  0  0  0  0
   17.5596   10.6818   -0.1380 S   0  0  0  0  0  0  0  0  0  0  0  0
   12.6277    9.8037   -3.5187 C   0  0  0  0  0  0  0  0  0  0  0  0
   13.5057    9.4557   -4.5444 C   0  0  0  0  0  0  0  0  0  0  0  0
   13.1560   10.1647   -2.2899 C   0  0  0  0  0  0  0  0  0  0  0  0
   14.8810    9.4929   -4.2964 C   0  0  0  0  0  0  0  0  0  0  0  0
   15.1826   10.4765   -1.0427 C   0  0  0  0  0  0  0  0  0  0  0  0
   16.6953    9.9958   -2.5307 O   0  0  0  0  0  0  0  0  0  0  0  0
   16.4712   10.3691   -1.3011 C   0  0  0  0  0  0  0  0  0  0  0  0
   14.4736   10.1703   -2.1134 C   0  0  0  0  0  0  0  0  0  0  0  0
   15.3362    9.8520   -3.0915 C   0  0  0  0  0  0  0  0  0  0  0  0
 16 17  1  0  0  0
 17 19  2  0  0  0
 17 18  1  0  0  0
 13  5  1  0  0  0
 16  5  1  0  0  0
  5 11  1  0  0  0
 15 14  1  0  0  0
  3  1  2  0  0  0
 23 21  2  0  0  0
 23 22  2  0  0  0
 25 24  2  0  0  0
 26 24  1  0  0  0
 27 25  1  0  0  0
  6 10  2  0  0  0
  6  7  1  0  0  0
 31 26  2  0  0  0
 32 27  2  0  0  0
  7 13  2  0  0  0
 10  8  1  0  0  0
  8 12  2  0  0  0
 30 28  2  0  0  0
 28 31  1  0  0  0
 12  9  1  0  0  0
  9 11  2  0  0  0
  3  2  1  0  0  0
  2 23  1  0  0  0
 15 10  1  0  0  0
 29 30  1  0  0  0
 29 32  1  0  0  0
 11  3  1  0  0  0
 23 30  1  0  0  0
 32 31  1  0  0  0
 13 12  1  0  0  0
 18 20  1  0  0  0
  2  4  1  0  0  0
M  END
> <minimizedAffinity>
-9.86054

$$$$
3IVX_FG6_A_302


 32 35  0  0  0  0  0  0  0  0999 V2000
   20.1191   11.0921   -0.2548 O   0  0  0  0  0  0  0  0  0  0  0  0
   19.8853    8.8738    0.0604 N   0  0  0  0  0  0  0  0  0  0  0  0
   19.3972   10.0814   -0.2387 C   0  0  0  0  0  0  0  0  0  0  0  0
   19.2895    8.0906    0.0322 H   0  0  0  0  0  0  0  0  0  0  0  0
   17.1091   10.4433    0.3350 N   0  0  0  0  0  0  0  0  0  0  0  0
   13.5843   10.5601   -0.6550 C   0  0  0  0  0  0  0  0  0  0  0  0
   14.6847   10.6499    0.1912 C   0  0  0  0  0  0  0  0  0  0  0  0
   15.0971    9.9602   -2.4275 C   0  0  0  0  0  0  0  0  0  0  0  0
   17.4783    9.8979   -1.7301 C   0  0  0  0  0  0  0  0  0  0  0  0
   13.7769   10.2165   -1.9834 C   0  0  0  0  0  0  0  0  0  0  0  0
   18.0668   10.1360   -0.5416 C   0  0  0  0  0  0  0  0  0  0  0  0
   16.1469   10.0593   -1.5783 C   0  0  0  0  0  0  0  0  0  0  0  0
   15.9329   10.4086   -0.2893 C   0  0  0  0  0  0  0  0  0  0  0  0
   12.6927    9.5371   -4.0530 C   0  0  0  0  0  0  0  0  0  0  0  0
   12.6439   10.1563   -2.7564 O   0  0  0  0  0  0  0  0  0  0  0  0
   17.0911   10.8410    1.7874 C   0  0  0  0  0  0  0  0  0  0  0  0
   18.0329   10.1829    2.7859 C   0  0  0  0  0  0  0  0  0  0  0  0
   18.1042    8.9499    2.8345 O   0  0  0  0  0  0  0  0  0  0  0  0
   18.6546   10.9819    3.5182 O   0  0  0  0  0  0  0  0  0  0  0  0
   17.5990    8.4278    2.2428 H   0  0  0  0  0  0  0  0  0  0  0  0
   22.3146    9.6098   -0.3290 O   0  0  0  0  0  0  0  0  0  0  0  0
   22.0458    7.2898    0.1313 O   0  0  0  0  0  0  0  0  0  0  0  0
   21.5027    8.6691    0.4850 S   0  0  0  0  0  0  0  0  0  0  0  0
   23.5721   10.3057    5.9221 C   0  0  0  0  0  0  0  0  0  0  0  0
   22.4001    9.7499    6.4331 C   0  0  0  0  0  0  0  0  0  0  0  0
   23.7789   10.2698    4.5526 C   0  0  0  0  0  0  0  0  0  0  0  0
   21.4778    9.1874    5.5457 C   0  0  0  0  0  0  0  0  0  0  0  0
   22.8597    9.5696    2.4492 C   0  0  0  0  0  0  0  0  0  0  0  0
   20.9693    8.6865    3.0653 O   0  0  0  0  0  0  0  0  0  0  0  0
   21.7505    8.9718    2.0605 C   0  0  0  0  0  0  0  0  0  0  0  0
   22.8682    9.7110    3.7617 C   0  0  0  0  0  0  0  0  0  0  0  0
   21.7273    9.1827    4.2321 C   0  0  0  0  0  0  0  0  0  0  0  0
 16 17  1  0  0  0
 17 19  2  0  0  0
 17 18  1  0  0  0
 13  5  1  0  0  0
 16  5  1  0  0  0
  5 11  1  0  0  0
 15 14  1  0  0  0
  3  1  2  0  0  0
 23 21  2  0  0  0
 23 22  2  0  0  0
 25 24  2  0  0  0
 26 24  1  0  0  0
 27 25  1  0  0  0
  6 10  2  0  0  0
  6  7  1  0  0  0
 31 26  2  0  0  0
 32 27  2  0  0  0
  7 13  2  0  0  0
 10  8  1  0  0  0
  8 12  2  0  0  0
 30 28  2  0  0  0
 28 31  1  0  0  0
 12  9  1  0  0  0
  9 11  2  0  0  0
  3  2  1  0  0  0
  2 23  1  0  0  0
 15 10  1  0  0  0
 29 30  1  0  0  0
 29 32  1  0  0  0
 11  3  1  0  0  0
 23 30  1  0  0  0
 32 31  1  0  0  0
 13 12  1  0  0  0
 18 20  1  0  0  0
  2  4  1  0  0  0
M  END
> <minimizedAffinity>
-9.75271

$$$$
3IVX_FG6_A_302


 32 35  0  0  0  0  0  0  0  0999 V2000
   17.8143   11.5137    2.4336 O   0  0  0  0  0  0  0  0  0  0  0  0
   18.0222    9.2713    2.3770 N   0  0  0  0  0  0  0  0  0  0  0  0
   17.5335   10.4236    1.9086 C   0  0  0  0  0  0  0  0  0  0  0  0
   17.8030    8.4297    1.9157 H   0  0  0  0  0  0  0  0  0  0  0  0
   17.1669   10.1929   -0.4383 N   0  0  0  0  0  0  0  0  0  0  0  0
   14.8499    9.9510   -3.2651 C   0  0  0  0  0  0  0  0  0  0  0  0
   16.0755    9.9941   -2.6086 C   0  0  0  0  0  0  0  0  0  0  0  0
   13.7843   10.2203   -1.1244 C   0  0  0  0  0  0  0  0  0  0  0  0
   15.3779   10.3723    0.7724 C   0  0  0  0  0  0  0  0  0  0  0  0
   13.6817   10.0597   -2.5278 C   0  0  0  0  0  0  0  0  0  0  0  0
   16.7242   10.3341    0.8123 C   0  0  0  0  0  0  0  0  0  0  0  0
   14.9934   10.2553   -0.5160 C   0  0  0  0  0  0  0  0  0  0  0  0
   16.1181   10.1344   -1.2575 C   0  0  0  0  0  0  0  0  0  0  0  0
   12.4994    9.3808   -4.5430 C   0  0  0  0  0  0  0  0  0  0  0  0
   12.5130   10.0004   -3.2458 O   0  0  0  0  0  0  0  0  0  0  0  0
   18.5263   10.0500   -1.0705 C   0  0  0  0  0  0  0  0  0  0  0  0
   19.7579   10.6557   -0.4123 C   0  0  0  0  0  0  0  0  0  0  0  0
   19.7740   11.8622   -0.1443 O   0  0  0  0  0  0  0  0  0  0  0  0
   20.6935    9.8502   -0.2201 O   0  0  0  0  0  0  0  0  0  0  0  0
   19.0225   12.3921   -0.3241 H   0  0  0  0  0  0  0  0  0  0  0  0
   18.1556    9.5012    4.9313 O   0  0  0  0  0  0  0  0  0  0  0  0
   20.0491   10.3463    3.7620 O   0  0  0  0  0  0  0  0  0  0  0  0
   19.0069    9.2346    3.7434 S   0  0  0  0  0  0  0  0  0  0  0  0
   22.8253    4.5968    4.4029 C   0  0  0  0  0  0  0  0  0  0  0  0
   21.6957    3.7807    4.3603 C   0  0  0  0  0  0  0  0  0  0  0  0
   22.6558    5.9673    4.2909 C   0  0  0  0  0  0  0  0  0  0  0  0
   20.4389    4.3759    4.2154 C   0  0  0  0  0  0  0  0  0  0  0  0
   21.0474    7.7280    4.0217 C   0  0  0  0  0  0  0  0  0  0  0  0
   19.1790    6.6147    3.9659 O   0  0  0  0  0  0  0  0  0  0  0  0
   19.7345    7.7939    3.9179 C   0  0  0  0  0  0  0  0  0  0  0  0
   21.4347    6.4720    4.1445 C   0  0  0  0  0  0  0  0  0  0  0  0
   20.3333    5.7050    4.1149 C   0  0  0  0  0  0  0  0  0  0  0  0
 16 17  1  0  0  0
 17 19  2  0  0  0
 17 18  1  0  0  0
 13  5  1  0  0  0
 16  5  1  0  0  0
  5 11  1  0  0  0
 15 14  1  0  0  0
  3  1  2  0  0  0
 23 21  2  0  0  0
 23 22  2  0  0  0
 25 24  2  0  0  0
 26 24  1  0  0  0
 27 25  1  0  0  0
  6 10  2  0  0  0
  6  7  1  0  0  0
 31 26  2  0  0  0
 32 27  2  0  0  0
  7 13  2  0  0  0
 10  8  1  0  0  0
  8 12  2  0  0  0
 30 28  2  0  0  0
 28 31  1  0  0  0
 12  9  1  0  0  0
  9 11  2  0  0  0
  3  2  1  0  0  0
  2 23  1  0  0  0
 15 10  1  0  0  0
 29 30  1  0  0  0
 29 32  1  0  0  0
 11  3  1  0  0  0
 23 30  1  0  0  0
 32 31  1  0  0  0
 13 12  1  0  0  0
 18 20  1  0  0  0
  2  4  1  0  0  0
M  END
> <minimizedAffinity>
-9.60861

$$$$
3IVX_FG6_A_302


 32 35  0  0  0  0  0  0  0  0999 V2000
   18.0043   11.7597    2.0132 O   0  0  0  0  0  0  0  0  0  0  0  0
   18.0655    9.5145    2.1869 N   0  0  0  0  0  0  0  0  0  0  0  0
   17.6103   10.6438    1.6360 C   0  0  0  0  0  0  0  0  0  0  0  0
   17.7540    8.6473    1.8404 H   0  0  0  0  0  0  0  0  0  0  0  0
   15.3817   10.4473    0.8051 N   0  0  0  0  0  0  0  0  0  0  0  0
   13.0871   10.0716   -2.0254 C   0  0  0  0  0  0  0  0  0  0  0  0
   13.4772   10.2097   -0.6973 C   0  0  0  0  0  0  0  0  0  0  0  0
   15.4157   10.1156   -2.6303 C   0  0  0  0  0  0  0  0  0  0  0  0
   16.9459   10.3800   -0.6940 C   0  0  0  0  0  0  0  0  0  0  0  0
   14.0556   10.0267   -3.0152 C   0  0  0  0  0  0  0  0  0  0  0  0
   16.7028   10.4988    0.6260 C   0  0  0  0  0  0  0  0  0  0  0  0
   15.7614   10.2524   -1.3284 C   0  0  0  0  0  0  0  0  0  0  0  0
   14.7958   10.3061   -0.3829 C   0  0  0  0  0  0  0  0  0  0  0  0
   12.2519    9.4327   -4.5363 C   0  0  0  0  0  0  0  0  0  0  0  0
   13.5919    9.8972   -4.3010 O   0  0  0  0  0  0  0  0  0  0  0  0
   14.4701   10.5544    1.9991 C   0  0  0  0  0  0  0  0  0  0  0  0
   15.0241   10.9111    3.3713 C   0  0  0  0  0  0  0  0  0  0  0  0
   15.4284   10.0123    4.1173 O   0  0  0  0  0  0  0  0  0  0  0  0
   14.9924   12.1301    3.6436 O   0  0  0  0  0  0  0  0  0  0  0  0
   15.4150    9.1214    3.8273 H   0  0  0  0  0  0  0  0  0  0  0  0
   18.4064    9.8147    4.7145 O   0  0  0  0  0  0  0  0  0  0  0  0
   20.1587   10.6999    3.3681 O   0  0  0  0  0  0  0  0  0  0  0  0
   19.1635    9.5497    3.4641 S   0  0  0  0  0  0  0  0  0  0  0  0
   20.9579    3.8605    4.4318 C   0  0  0  0  0  0  0  0  0  0  0  0
   22.2201    4.2865    4.0206 C   0  0  0  0  0  0  0  0  0  0  0  0
   19.9242    4.7826    4.4569 C   0  0  0  0  0  0  0  0  0  0  0  0
   22.3911    5.6215    3.6422 C   0  0  0  0  0  0  0  0  0  0  0  0
   19.3274    7.0700    4.0426 C   0  0  0  0  0  0  0  0  0  0  0  0
   21.2146    7.8998    3.3474 O   0  0  0  0  0  0  0  0  0  0  0  0
   19.9596    8.1423    3.6076 C   0  0  0  0  0  0  0  0  0  0  0  0
   20.1530    6.0411    4.0948 C   0  0  0  0  0  0  0  0  0  0  0  0
   21.3571    6.4683    3.6828 C   0  0  0  0  0  0  0  0  0  0  0  0
 16 17  1  0  0  0
 17 19  2  0  0  0
 17 18  1  0  0  0
 13  5  1  0  0  0
 16  5  1  0  0  0
  5 11  1  0  0  0
 15 14  1  0  0  0
  3  1  2  0  0  0
 23 21  2  0  0  0
 23 22  2  0  0  0
 25 24  2  0  0  0
 26 24  1  0  0  0
 27 25  1  0  0  0
  6 10  2  0  0  0
  6  7  1  0  0  0
 31 26  2  0  0  0
 32 27  2  0  0  0
  7 13  2  0  0  0
 10  8  1  0  0  0
  8 12  2  0  0  0
 30 28  2  0  0  0
 28 31  1  0  0  0
 12  9  1  0  0  0
  9 11  2  0  0  0
  3  2  1  0  0  0
  2 23  1  0  0  0
 15 10  1  0  0  0
 29 30  1  0  0  0
 29 32  1  0  0  0
 11  3  1  0  0  0
 23 30  1  0  0  0
 32 31  1  0  0  0
 13 12  1  0  0  0
 18 20  1  0  0  0
  2  4  1  0  0  0
M  END
> <minimizedAffinity>
-9.49178

$$$$
