5EQE_5R8_A_501


 19 20  0  0  0  0  0  0  0  0999 V2000
   17.5630   77.6081   59.0465 C   0  0  0  0  0  0  0  0  0  0  0  0
   18.5096   77.9598   58.0363 C   0  0  0  0  0  0  0  0  0  0  0  0
   18.0756   78.3990   56.7636 C   0  0  0  0  0  0  0  0  0  0  0  0
   16.6757   78.5053   56.4732 C   0  0  0  0  0  0  0  0  0  0  0  0
   15.7282   78.1586   57.4784 C   0  0  0  0  0  0  0  0  0  0  0  0
   16.1621   77.7195   58.7481 C   0  0  0  0  0  0  0  0  0  0  0  0
   16.1995   78.9733   55.1157 C   0  0  0  0  0  0  0  0  0  0  0  0
   16.3184   80.4284   54.9506 N   0  0  0  0  0  0  0  0  0  0  0  0
   17.2983   80.7005   55.0296 H   0  0  0  0  0  0  0  0  0  0  0  0
   15.7756   80.8983   55.6751 H   0  0  0  0  0  0  0  0  0  0  0  0
   18.0419   77.1319   60.4229 C   0  0  0  0  0  0  0  0  0  0  0  0
   17.3294   73.2333   60.0780 C   0  0  0  0  0  0  0  0  0  0  0  0
   19.6912   72.3688   60.0899 C   0  0  0  0  0  0  0  0  0  0  0  0
   18.4329   72.5785   60.8247 N   0  0  0  0  0  0  0  0  0  0  0  0
   17.6111   74.7027   59.6516 C   0  0  0  0  0  0  0  0  0  0  0  0
   18.0846   75.6601   60.7114 N   0  0  0  0  0  0  0  0  0  0  0  0
   17.7586   75.2991   62.1107 C   0  0  0  0  0  0  0  0  0  0  0  0
   18.7886   74.3345   62.6917 C   0  0  0  0  0  0  0  0  0  0  0  0
   18.5218   72.8723   62.2908 C   0  0  0  0  0  0  0  0  0  0  0  0
  8  7  1  0  0  0
  7  4  1  0  0  0
  4  3  2  0  0  0
  4  5  1  0  0  0
  3  2  1  0  0  0
  5  6  2  0  0  0
  2  1  2  0  0  0
  6  1  1  0  0  0
  1 11  1  0  0  0
 15 12  1  0  0  0
 15 16  1  0  0  0
 12 14  1  0  0  0
 13 14  1  0  0  0
 11 16  1  0  0  0
 16 17  1  0  0  0
 14 19  1  0  0  0
 17 18  1  0  0  0
 19 18  1  0  0  0
  8  9  1  0  0  0
  8 10  1  0  0  0
M  END
> <minimizedAffinity>
-8.24530

$$$$
5EQE_5R8_A_501


 19 20  0  0  0  0  0  0  0  0999 V2000
   17.9179   77.0065   59.1162 C   0  0  0  0  0  0  0  0  0  0  0  0
   17.9294   75.6256   58.7516 C   0  0  0  0  0  0  0  0  0  0  0  0
   17.8567   74.6181   59.7418 C   0  0  0  0  0  0  0  0  0  0  0  0
   17.7616   74.9714   61.1281 C   0  0  0  0  0  0  0  0  0  0  0  0
   17.7468   76.3471   61.4961 C   0  0  0  0  0  0  0  0  0  0  0  0
   17.8203   77.3520   60.5072 C   0  0  0  0  0  0  0  0  0  0  0  0
   17.6837   73.9029   62.1962 C   0  0  0  0  0  0  0  0  0  0  0  0
   17.3039   74.4469   63.5071 N   0  0  0  0  0  0  0  0  0  0  0  0
   16.3777   74.8696   63.4444 H   0  0  0  0  0  0  0  0  0  0  0  0
   17.9819   75.1541   63.7911 H   0  0  0  0  0  0  0  0  0  0  0  0
   17.9983   78.0921   58.0365 C   0  0  0  0  0  0  0  0  0  0  0  0
   14.2310   78.0481   56.7592 C   0  0  0  0  0  0  0  0  0  0  0  0
   13.8808   80.5111   56.3892 C   0  0  0  0  0  0  0  0  0  0  0  0
   14.1399   79.1838   55.8073 N   0  0  0  0  0  0  0  0  0  0  0  0
   15.4297   78.1195   57.7484 C   0  0  0  0  0  0  0  0  0  0  0  0
   16.7999   78.3506   57.1714 N   0  0  0  0  0  0  0  0  0  0  0  0
   16.9798   77.9832   55.7476 C   0  0  0  0  0  0  0  0  0  0  0  0
   16.5308   79.1091   54.8205 C   0  0  0  0  0  0  0  0  0  0  0  0
   15.0087   79.1135   54.5893 C   0  0  0  0  0  0  0  0  0  0  0  0
  8  7  1  0  0  0
  7  4  1  0  0  0
  4  3  2  0  0  0
  4  5  1  0  0  0
  3  2  1  0  0  0
  5  6  2  0  0  0
  2  1  2  0  0  0
  6  1  1  0  0  0
  1 11  1  0  0  0
 15 12  1  0  0  0
 15 16  1  0  0  0
 12 14  1  0  0  0
 13 14  1  0  0  0
 11 16  1  0  0  0
 16 17  1  0  0  0
 14 19  1  0  0  0
 17 18  1  0  0  0
 19 18  1  0  0  0
  8  9  1  0  0  0
  8 10  1  0  0  0
M  END
> <minimizedAffinity>
-7.09447

$$$$
5EQE_5R8_A_501


 19 20  0  0  0  0  0  0  0  0999 V2000
   18.3440   74.1495   59.4061 C   0  0  0  0  0  0  0  0  0  0  0  0
   18.9567   73.0202   60.0302 C   0  0  0  0  0  0  0  0  0  0  0  0
   18.8364   72.8140   61.4245 C   0  0  0  0  0  0  0  0  0  0  0  0
   18.0885   73.7342   62.2303 C   0  0  0  0  0  0  0  0  0  0  0  0
   17.4732   74.8599   61.6119 C   0  0  0  0  0  0  0  0  0  0  0  0
   17.5945   75.0655   60.2204 C   0  0  0  0  0  0  0  0  0  0  0  0
   17.9532   73.5245   63.7224 C   0  0  0  0  0  0  0  0  0  0  0  0
   17.4167   72.1980   64.0560 N   0  0  0  0  0  0  0  0  0  0  0  0
   18.0527   71.4779   63.7133 H   0  0  0  0  0  0  0  0  0  0  0  0
   16.5029   72.0809   63.6182 H   0  0  0  0  0  0  0  0  0  0  0  0
   18.4803   74.3661   57.8944 C   0  0  0  0  0  0  0  0  0  0  0  0
   16.0989   76.5550   55.5785 C   0  0  0  0  0  0  0  0  0  0  0  0
   15.0844   78.0614   57.3184 C   0  0  0  0  0  0  0  0  0  0  0  0
   16.0591   77.8891   56.2286 N   0  0  0  0  0  0  0  0  0  0  0  0
   16.5580   75.3912   56.5031 C   0  0  0  0  0  0  0  0  0  0  0  0
   17.8403   75.5707   57.2695 N   0  0  0  0  0  0  0  0  0  0  0  0
   18.7975   76.5583   56.7190 C   0  0  0  0  0  0  0  0  0  0  0  0
   18.4640   77.9744   57.1800 C   0  0  0  0  0  0  0  0  0  0  0  0
   17.3581   78.6277   56.3313 C   0  0  0  0  0  0  0  0  0  0  0  0
  8  7  1  0  0  0
  7  4  1  0  0  0
  4  3  2  0  0  0
  4  5  1  0  0  0
  3  2  1  0  0  0
  5  6  2  0  0  0
  2  1  2  0  0  0
  6  1  1  0  0  0
  1 11  1  0  0  0
 15 12  1  0  0  0
 15 16  1  0  0  0
 12 14  1  0  0  0
 13 14  1  0  0  0
 11 16  1  0  0  0
 16 17  1  0  0  0
 14 19  1  0  0  0
 17 18  1  0  0  0
 19 18  1  0  0  0
  8  9  1  0  0  0
  8 10  1  0  0  0
M  END
> <minimizedAffinity>
-7.04803

$$$$
5EQE_5R8_A_501


 19 20  0  0  0  0  0  0  0  0999 V2000
   17.9297   76.9812   59.1731 C   0  0  0  0  0  0  0  0  0  0  0  0
   17.9308   75.5973   58.8194 C   0  0  0  0  0  0  0  0  0  0  0  0
   17.9431   74.5977   59.8202 C   0  0  0  0  0  0  0  0  0  0  0  0
   17.9459   74.9619   61.2068 C   0  0  0  0  0  0  0  0  0  0  0  0
   17.9417   76.3405   61.5642 C   0  0  0  0  0  0  0  0  0  0  0  0
   17.9304   77.3376   60.5648 C   0  0  0  0  0  0  0  0  0  0  0  0
   17.9595   73.9019   62.2861 C   0  0  0  0  0  0  0  0  0  0  0  0
   17.2860   74.3438   63.5148 N   0  0  0  0  0  0  0  0  0  0  0  0
   16.3070   74.5460   63.3120 H   0  0  0  0  0  0  0  0  0  0  0  0
   17.7409   75.1857   63.8680 H   0  0  0  0  0  0  0  0  0  0  0  0
   17.9176   78.0582   58.0820 C   0  0  0  0  0  0  0  0  0  0  0  0
   15.6385   79.2295   55.0390 C   0  0  0  0  0  0  0  0  0  0  0  0
   15.2841   77.0158   53.8991 C   0  0  0  0  0  0  0  0  0  0  0  0
   14.7452   78.0752   54.7678 N   0  0  0  0  0  0  0  0  0  0  0  0
   16.9250   78.8851   55.8431 C   0  0  0  0  0  0  0  0  0  0  0  0
   16.7634   78.1140   57.1249 N   0  0  0  0  0  0  0  0  0  0  0  0
   15.4329   78.1933   57.7716 C   0  0  0  0  0  0  0  0  0  0  0  0
   14.4630   77.1758   57.1776 C   0  0  0  0  0  0  0  0  0  0  0  0
   13.8164   77.6682   55.8701 C   0  0  0  0  0  0  0  0  0  0  0  0
  8  7  1  0  0  0
  7  4  1  0  0  0
  4  3  2  0  0  0
  4  5  1  0  0  0
  3  2  1  0  0  0
  5  6  2  0  0  0
  2  1  2  0  0  0
  6  1  1  0  0  0
  1 11  1  0  0  0
 15 12  1  0  0  0
 15 16  1  0  0  0
 12 14  1  0  0  0
 13 14  1  0  0  0
 11 16  1  0  0  0
 16 17  1  0  0  0
 14 19  1  0  0  0
 17 18  1  0  0  0
 19 18  1  0  0  0
  8  9  1  0  0  0
  8 10  1  0  0  0
M  END
> <minimizedAffinity>
-7.03776

$$$$
5EQE_5R8_A_501


 19 20  0  0  0  0  0  0  0  0999 V2000
   18.9230   73.0525   58.9823 C   0  0  0  0  0  0  0  0  0  0  0  0
   18.0948   74.1321   59.4167 C   0  0  0  0  0  0  0  0  0  0  0  0
   17.8098   74.3143   60.7902 C   0  0  0  0  0  0  0  0  0  0  0  0
   18.3575   73.4199   61.7678 C   0  0  0  0  0  0  0  0  0  0  0  0
   19.1864   72.3439   61.3395 C   0  0  0  0  0  0  0  0  0  0  0  0
   19.4695   72.1622   59.9684 C   0  0  0  0  0  0  0  0  0  0  0  0
   18.0596   73.6043   63.2394 C   0  0  0  0  0  0  0  0  0  0  0  0
   17.4910   72.3961   63.8523 N   0  0  0  0  0  0  0  0  0  0  0  0
   18.1614   71.6307   63.7806 H   0  0  0  0  0  0  0  0  0  0  0  0
   16.6308   72.1412   63.3669 H   0  0  0  0  0  0  0  0  0  0  0  0
   19.2259   72.8616   57.4915 C   0  0  0  0  0  0  0  0  0  0  0  0
   18.4440   70.1516   54.6860 C   0  0  0  0  0  0  0  0  0  0  0  0
   17.9867   68.1535   56.1436 C   0  0  0  0  0  0  0  0  0  0  0  0
   17.4505   69.2392   55.3063 N   0  0  0  0  0  0  0  0  0  0  0  0
   19.2667   71.0041   55.6944 C   0  0  0  0  0  0  0  0  0  0  0  0
   18.5078   71.7841   56.7334 N   0  0  0  0  0  0  0  0  0  0  0  0
   17.0951   72.0952   56.4141 C   0  0  0  0  0  0  0  0  0  0  0  0
   16.1723   70.9370   56.7827 C   0  0  0  0  0  0  0  0  0  0  0  0
   16.1373   69.8414   55.7017 C   0  0  0  0  0  0  0  0  0  0  0  0
  8  7  1  0  0  0
  7  4  1  0  0  0
  4  3  2  0  0  0
  4  5  1  0  0  0
  3  2  1  0  0  0
  5  6  2  0  0  0
  2  1  2  0  0  0
  6  1  1  0  0  0
  1 11  1  0  0  0
 15 12  1  0  0  0
 15 16  1  0  0  0
 12 14  1  0  0  0
 13 14  1  0  0  0
 11 16  1  0  0  0
 16 17  1  0  0  0
 14 19  1  0  0  0
 17 18  1  0  0  0
 19 18  1  0  0  0
  8  9  1  0  0  0
  8 10  1  0  0  0
M  END
> <minimizedAffinity>
-6.95683

$$$$
5EQE_5R8_A_501


 19 20  0  0  0  0  0  0  0  0999 V2000
   16.7738   76.1216   60.1989 C   0  0  0  0  0  0  0  0  0  0  0  0
   17.9284   76.4677   60.9653 C   0  0  0  0  0  0  0  0  0  0  0  0
   18.3756   75.6293   62.0132 C   0  0  0  0  0  0  0  0  0  0  0  0
   17.6786   74.4133   62.3147 C   0  0  0  0  0  0  0  0  0  0  0  0
   16.5288   74.0626   61.5511 C   0  0  0  0  0  0  0  0  0  0  0  0
   16.0825   74.9003   60.5060 C   0  0  0  0  0  0  0  0  0  0  0  0
   18.1471   73.5088   63.4332 C   0  0  0  0  0  0  0  0  0  0  0  0
   17.3039   72.3145   63.5792 N   0  0  0  0  0  0  0  0  0  0  0  0
   17.3407   71.7652   62.7206 H   0  0  0  0  0  0  0  0  0  0  0  0
   16.3410   72.5982   63.7604 H   0  0  0  0  0  0  0  0  0  0  0  0
   16.2952   77.0366   59.0656 C   0  0  0  0  0  0  0  0  0  0  0  0
   18.0179   75.3857   55.8824 C   0  0  0  0  0  0  0  0  0  0  0  0
   16.5028   76.2648   54.0776 C   0  0  0  0  0  0  0  0  0  0  0  0
   17.7921   76.3568   54.7824 N   0  0  0  0  0  0  0  0  0  0  0  0
   17.0622   75.5437   57.0997 C   0  0  0  0  0  0  0  0  0  0  0  0
   16.9281   76.9120   57.7109 N   0  0  0  0  0  0  0  0  0  0  0  0
   18.0505   77.8482   57.4692 C   0  0  0  0  0  0  0  0  0  0  0  0
   17.9009   78.5635   56.1294 C   0  0  0  0  0  0  0  0  0  0  0  0
   18.4020   77.7149   54.9466 C   0  0  0  0  0  0  0  0  0  0  0  0
  8  7  1  0  0  0
  7  4  1  0  0  0
  4  3  2  0  0  0
  4  5  1  0  0  0
  3  2  1  0  0  0
  5  6  2  0  0  0
  2  1  2  0  0  0
  6  1  1  0  0  0
  1 11  1  0  0  0
 15 12  1  0  0  0
 15 16  1  0  0  0
 12 14  1  0  0  0
 13 14  1  0  0  0
 11 16  1  0  0  0
 16 17  1  0  0  0
 14 19  1  0  0  0
 17 18  1  0  0  0
 19 18  1  0  0  0
  8  9  1  0  0  0
  8 10  1  0  0  0
M  END
> <minimizedAffinity>
-6.85736

$$$$
5EQE_5R8_A_501


 19 20  0  0  0  0  0  0  0  0999 V2000
   16.5186   76.8971   59.5561 C   0  0  0  0  0  0  0  0  0  0  0  0
   15.9373   75.6028   59.7206 C   0  0  0  0  0  0  0  0  0  0  0  0
   16.3979   74.7293   60.7334 C   0  0  0  0  0  0  0  0  0  0  0  0
   17.4516   75.1366   61.6162 C   0  0  0  0  0  0  0  0  0  0  0  0
   18.0321   76.4275   61.4579 C   0  0  0  0  0  0  0  0  0  0  0  0
   17.5724   77.2983   60.4461 C   0  0  0  0  0  0  0  0  0  0  0  0
   17.9529   74.2112   62.7028 C   0  0  0  0  0  0  0  0  0  0  0  0
   17.1041   73.0227   62.8631 N   0  0  0  0  0  0  0  0  0  0  0  0
   17.1032   72.4861   61.9957 H   0  0  0  0  0  0  0  0  0  0  0  0
   16.1516   73.3125   63.0846 H   0  0  0  0  0  0  0  0  0  0  0  0
   16.0141   77.8371   58.4549 C   0  0  0  0  0  0  0  0  0  0  0  0
   15.4685   76.1003   54.9177 C   0  0  0  0  0  0  0  0  0  0  0  0
   15.5124   78.1329   53.4370 C   0  0  0  0  0  0  0  0  0  0  0  0
   16.2175   76.9502   53.9582 N   0  0  0  0  0  0  0  0  0  0  0  0
   15.1190   76.7909   56.2672 C   0  0  0  0  0  0  0  0  0  0  0  0
   16.2357   77.4633   57.0188 N   0  0  0  0  0  0  0  0  0  0  0  0
   17.6063   76.9927   56.7113 C   0  0  0  0  0  0  0  0  0  0  0  0
   18.1734   77.6942   55.4803 C   0  0  0  0  0  0  0  0  0  0  0  0
   17.6975   77.0547   54.1633 C   0  0  0  0  0  0  0  0  0  0  0  0
  8  7  1  0  0  0
  7  4  1  0  0  0
  4  3  2  0  0  0
  4  5  1  0  0  0
  3  2  1  0  0  0
  5  6  2  0  0  0
  2  1  2  0  0  0
  6  1  1  0  0  0
  1 11  1  0  0  0
 15 12  1  0  0  0
 15 16  1  0  0  0
 12 14  1  0  0  0
 13 14  1  0  0  0
 11 16  1  0  0  0
 16 17  1  0  0  0
 14 19  1  0  0  0
 17 18  1  0  0  0
 19 18  1  0  0  0
  8  9  1  0  0  0
  8 10  1  0  0  0
M  END
> <minimizedAffinity>
-6.76866

$$$$
5EQE_5R8_A_501


 19 20  0  0  0  0  0  0  0  0999 V2000
   16.3137   77.0200   59.1875 C   0  0  0  0  0  0  0  0  0  0  0  0
   15.8843   75.6962   59.5091 C   0  0  0  0  0  0  0  0  0  0  0  0
   16.4820   74.9837   60.5749 C   0  0  0  0  0  0  0  0  0  0  0  0
   17.5238   75.5863   61.3540 C   0  0  0  0  0  0  0  0  0  0  0  0
   17.9530   76.9072   61.0389 C   0  0  0  0  0  0  0  0  0  0  0  0
   17.3566   77.6173   59.9744 C   0  0  0  0  0  0  0  0  0  0  0  0
   18.1709   74.8341   62.4959 C   0  0  0  0  0  0  0  0  0  0  0  0
   17.1836   74.2101   63.3874 N   0  0  0  0  0  0  0  0  0  0  0  0
   16.6321   73.5316   62.8621 H   0  0  0  0  0  0  0  0  0  0  0  0
   16.5669   74.9282   63.7675 H   0  0  0  0  0  0  0  0  0  0  0  0
   15.6613   77.7848   58.0298 C   0  0  0  0  0  0  0  0  0  0  0  0
   15.1245   76.5645   54.2816 C   0  0  0  0  0  0  0  0  0  0  0  0
   15.4220   74.0869   54.5965 C   0  0  0  0  0  0  0  0  0  0  0  0
   14.5036   75.2216   54.4051 N   0  0  0  0  0  0  0  0  0  0  0  0
   15.8648   77.0616   55.5565 C   0  0  0  0  0  0  0  0  0  0  0  0
   15.1178   77.0155   56.8618 N   0  0  0  0  0  0  0  0  0  0  0  0
   13.6394   77.0042   56.7684 C   0  0  0  0  0  0  0  0  0  0  0  0
   13.1055   75.5912   56.5509 C   0  0  0  0  0  0  0  0  0  0  0  0
   13.1656   75.1568   55.0752 C   0  0  0  0  0  0  0  0  0  0  0  0
  8  7  1  0  0  0
  7  4  1  0  0  0
  4  3  2  0  0  0
  4  5  1  0  0  0
  3  2  1  0  0  0
  5  6  2  0  0  0
  2  1  2  0  0  0
  6  1  1  0  0  0
  1 11  1  0  0  0
 15 12  1  0  0  0
 15 16  1  0  0  0
 12 14  1  0  0  0
 13 14  1  0  0  0
 11 16  1  0  0  0
 16 17  1  0  0  0
 14 19  1  0  0  0
 17 18  1  0  0  0
 19 18  1  0  0  0
  8  9  1  0  0  0
  8 10  1  0  0  0
M  END
> <minimizedAffinity>
-6.69200

$$$$
5EQE_5R8_A_501


 19 20  0  0  0  0  0  0  0  0999 V2000
   18.8565   73.1303   58.7833 C   0  0  0  0  0  0  0  0  0  0  0  0
   18.2217   74.3529   59.1608 C   0  0  0  0  0  0  0  0  0  0  0  0
   18.1270   74.7255   60.5221 C   0  0  0  0  0  0  0  0  0  0  0  0
   18.6764   73.8821   61.5431 C   0  0  0  0  0  0  0  0  0  0  0  0
   19.3129   72.6636   61.1712 C   0  0  0  0  0  0  0  0  0  0  0  0
   19.4062   72.2920   59.8123 C   0  0  0  0  0  0  0  0  0  0  0  0
   18.5809   74.2696   63.0023 C   0  0  0  0  0  0  0  0  0  0  0  0
   17.1909   74.3528   63.4708 N   0  0  0  0  0  0  0  0  0  0  0  0
   16.7457   73.4397   63.3782 H   0  0  0  0  0  0  0  0  0  0  0  0
   16.6833   75.0370   62.9098 H   0  0  0  0  0  0  0  0  0  0  0  0
   18.9537   72.7336   57.3056 C   0  0  0  0  0  0  0  0  0  0  0  0
   15.6043   73.2936   55.2333 C   0  0  0  0  0  0  0  0  0  0  0  0
   16.0592   71.7799   53.2768 C   0  0  0  0  0  0  0  0  0  0  0  0
   15.3579   71.9972   54.5529 N   0  0  0  0  0  0  0  0  0  0  0  0
   17.0668   73.5092   55.7182 C   0  0  0  0  0  0  0  0  0  0  0  0
   17.6954   72.4238   56.5492 N   0  0  0  0  0  0  0  0  0  0  0  0
   16.7604   71.5189   57.2574 C   0  0  0  0  0  0  0  0  0  0  0  0
   16.2878   70.3856   56.3512 C   0  0  0  0  0  0  0  0  0  0  0  0
   15.1264   70.8076   55.4330 C   0  0  0  0  0  0  0  0  0  0  0  0
  8  7  1  0  0  0
  7  4  1  0  0  0
  4  3  2  0  0  0
  4  5  1  0  0  0
  3  2  1  0  0  0
  5  6  2  0  0  0
  2  1  2  0  0  0
  6  1  1  0  0  0
  1 11  1  0  0  0
 15 12  1  0  0  0
 15 16  1  0  0  0
 12 14  1  0  0  0
 13 14  1  0  0  0
 11 16  1  0  0  0
 16 17  1  0  0  0
 14 19  1  0  0  0
 17 18  1  0  0  0
 19 18  1  0  0  0
  8  9  1  0  0  0
  8 10  1  0  0  0
M  END
> <minimizedAffinity>
-6.55273

$$$$
5EQE_5R8_A_501


 19 20  0  0  0  0  0  0  0  0999 V2000
   18.6340   73.0502   58.9373 C   0  0  0  0  0  0  0  0  0  0  0  0
   19.4800   72.3638   59.8610 C   0  0  0  0  0  0  0  0  0  0  0  0
   19.2618   72.4703   61.2545 C   0  0  0  0  0  0  0  0  0  0  0  0
   18.1798   73.2643   61.7589 C   0  0  0  0  0  0  0  0  0  0  0  0
   17.3317   73.9480   60.8415 C   0  0  0  0  0  0  0  0  0  0  0  0
   17.5508   73.8419   59.4508 C   0  0  0  0  0  0  0  0  0  0  0  0
   17.9366   73.3862   63.2470 C   0  0  0  0  0  0  0  0  0  0  0  0
   17.4693   72.1276   63.8440 N   0  0  0  0  0  0  0  0  0  0  0  0
   18.1807   71.4074   63.7193 H   0  0  0  0  0  0  0  0  0  0  0  0
   16.6054   71.8349   63.3874 H   0  0  0  0  0  0  0  0  0  0  0  0
   18.8784   72.9302   57.4285 C   0  0  0  0  0  0  0  0  0  0  0  0
   16.3576   69.9617   56.6163 C   0  0  0  0  0  0  0  0  0  0  0  0
   15.1645   70.9499   54.6350 C   0  0  0  0  0  0  0  0  0  0  0  0
   16.1768   70.0097   55.1435 N   0  0  0  0  0  0  0  0  0  0  0  0
   16.9020   71.2738   57.2507 C   0  0  0  0  0  0  0  0  0  0  0  0
   18.1430   71.8779   56.6518 N   0  0  0  0  0  0  0  0  0  0  0  0
   19.0158   70.9556   55.8889 C   0  0  0  0  0  0  0  0  0  0  0  0
   18.5396   70.8024   54.4471 C   0  0  0  0  0  0  0  0  0  0  0  0
   17.3977   69.7794   54.3069 C   0  0  0  0  0  0  0  0  0  0  0  0
  8  7  1  0  0  0
  7  4  1  0  0  0
  4  3  2  0  0  0
  4  5  1  0  0  0
  3  2  1  0  0  0
  5  6  2  0  0  0
  2  1  2  0  0  0
  6  1  1  0  0  0
  1 11  1  0  0  0
 15 12  1  0  0  0
 15 16  1  0  0  0
 12 14  1  0  0  0
 13 14  1  0  0  0
 11 16  1  0  0  0
 16 17  1  0  0  0
 14 19  1  0  0  0
 17 18  1  0  0  0
 19 18  1  0  0  0
  8  9  1  0  0  0
  8 10  1  0  0  0
M  END
> <minimizedAffinity>
-6.53237

$$$$
