1LPZ_CMB_B_301


 36 39  0  0  0  0  0  0  0  0999 V2000
    3.8250    9.4489   25.4588 C   0  0  0  0  0  0  0  0  0  0  0  0
    4.9877    8.7830   25.0435 C   0  0  0  0  0  0  0  0  0  0  0  0
    5.2879    8.6393   23.6583 C   0  0  0  0  0  0  0  0  0  0  0  0
    4.4778    9.1659   22.6537 C   0  0  0  0  0  0  0  0  0  0  0  0
    3.2675    9.8547   23.0837 C   0  0  0  0  0  0  0  0  0  0  0  0
    2.9613    9.9700   24.4667 C   0  0  0  0  0  0  0  0  0  0  0  0
    6.3213    7.9184   23.0751 N   0  0  0  0  0  0  0  0  0  0  0  0
    6.1650    8.0479   21.7029 C   0  0  0  0  0  0  0  0  0  0  0  0
    5.0219    8.8822   21.3831 C   0  0  0  0  0  0  0  0  0  0  0  0
    2.3639   10.4722   22.0949 C   0  0  0  0  0  0  0  0  0  0  0  0
    6.9927    7.4219   20.7349 C   0  0  0  0  0  0  0  0  0  0  0  0
    6.4524    6.4582   19.9498 N   0  0  0  0  0  0  0  0  0  0  0  0
    8.1817    7.7321   20.6237 O   0  0  0  0  0  0  0  0  0  0  0  0
    5.5053    6.2103   20.0530 H   0  0  0  0  0  0  0  0  0  0  0  0
    7.2822    5.7875   18.9483 C   0  0  0  0  0  0  0  0  0  0  0  0
    7.4790    4.2810   19.1016 C   0  0  0  0  0  0  0  0  0  0  0  0
    6.6951    3.5728   20.0261 C   0  0  0  0  0  0  0  0  0  0  0  0
    6.9152    2.2123   20.2962 C   0  0  0  0  0  0  0  0  0  0  0  0
    7.9369    1.5417   19.6035 C   0  0  0  0  0  0  0  0  0  0  0  0
    8.7363    2.2245   18.6660 C   0  0  0  0  0  0  0  0  0  0  0  0
    8.4902    3.5914   18.4158 C   0  0  0  0  0  0  0  0  0  0  0  0
    5.9846    1.4013   21.5462 Cl  0  0  0  0  0  0  0  0  0  0  0  0
   10.0780    1.4192   17.8539 Cl  0  0  0  0  0  0  0  0  0  0  0  0
    7.2562    7.0605   23.8154 C   0  0  0  0  0  0  0  0  0  0  0  0
    8.4393    7.7938   24.3946 C   0  0  0  0  0  0  0  0  0  0  0  0
    9.0876    8.8884   23.7835 C   0  0  0  0  0  0  0  0  0  0  0  0
   10.2951    9.3781   24.3172 C   0  0  0  0  0  0  0  0  0  0  0  0
   10.8124    8.7727   25.4793 C   0  0  0  0  0  0  0  0  0  0  0  0
   10.1080    7.7243   26.1163 C   0  0  0  0  0  0  0  0  0  0  0  0
    8.9285    7.2407   25.5683 C   0  0  0  0  0  0  0  0  0  0  0  0
   10.5214    7.1085   27.3652 C   0  0  0  0  0  0  0  0  0  0  0  0
   11.7730    7.1721   27.8247 N   0  0  0  0  0  0  0  0  0  0  0  0
    9.5809    6.4247   28.0053 N   0  0  0  0  0  0  0  0  0  0  0  0
   12.4529    7.6860   27.3317 H   0  0  0  0  0  0  0  0  0  0  0  0
    8.6648    6.3929   27.6461 H   0  0  0  0  0  0  0  0  0  0  0  0
    9.7994    5.9493   28.8393 H   0  0  0  0  0  0  0  0  0  0  0  0
  1  2  2  0  0  0
  1  6  1  0  0  0
  2  3  1  0  0  0
  3  4  2  0  0  0
  3  7  1  0  0  0
  4  5  1  0  0  0
  4  9  1  0  0  0
  5  6  2  0  0  0
  5 10  1  0  0  0
  7  8  1  0  0  0
  7 24  1  0  0  0
  8  9  2  0  0  0
  8 11  1  0  0  0
 11 12  1  0  0  0
 11 13  2  0  0  0
 12 15  1  0  0  0
 15 16  1  0  0  0
 16 17  1  0  0  0
 16 21  2  0  0  0
 24 25  1  0  0  0
 25 26  2  0  0  0
 25 30  1  0  0  0
 26 27  1  0  0  0
 27 28  2  0  0  0
 28 29  1  0  0  0
 29 30  2  0  0  0
 29 31  1  0  0  0
 17 18  2  0  0  0
 18 19  1  0  0  0
 18 22  1  0  0  0
 19 20  2  0  0  0
 20 21  1  0  0  0
 20 23  1  0  0  0
 31 32  2  0  0  0
 31 33  1  0  0  0
 12 14  1  0  0  0
 32 34  1  0  0  0
 33 35  1  0  0  0
 33 36  1  0  0  0
M  END
> <minimizedAffinity>
-10.93494

$$$$
1LPZ_CMB_B_301


 36 39  0  0  0  0  0  0  0  0999 V2000
    3.4775    9.3526   25.7428 C   0  0  0  0  0  0  0  0  0  0  0  0
    4.6514    8.7343   25.2876 C   0  0  0  0  0  0  0  0  0  0  0  0
    4.9668    8.7060   23.8986 C   0  0  0  0  0  0  0  0  0  0  0  0
    4.1609    9.3038   22.9311 C   0  0  0  0  0  0  0  0  0  0  0  0
    2.9390    9.9435   23.4025 C   0  0  0  0  0  0  0  0  0  0  0  0
    2.6180    9.9435   24.7869 C   0  0  0  0  0  0  0  0  0  0  0  0
    6.0136    8.0451   23.2702 N   0  0  0  0  0  0  0  0  0  0  0  0
    5.8694    8.2834   21.9114 C   0  0  0  0  0  0  0  0  0  0  0  0
    4.7206    9.1292   21.6477 C   0  0  0  0  0  0  0  0  0  0  0  0
    2.0385   10.6297   22.4571 C   0  0  0  0  0  0  0  0  0  0  0  0
    6.7134    7.7461   20.9049 C   0  0  0  0  0  0  0  0  0  0  0  0
    6.2908    6.6531   20.2238 N   0  0  0  0  0  0  0  0  0  0  0  0
    7.8152    8.2486   20.6686 O   0  0  0  0  0  0  0  0  0  0  0  0
    5.4144    6.2529   20.4265 H   0  0  0  0  0  0  0  0  0  0  0  0
    7.1420    6.0699   19.1861 C   0  0  0  0  0  0  0  0  0  0  0  0
    7.5180    4.5977   19.3388 C   0  0  0  0  0  0  0  0  0  0  0  0
    8.4253    4.0198   18.4370 C   0  0  0  0  0  0  0  0  0  0  0  0
    8.7139    2.6454   18.4543 C   0  0  0  0  0  0  0  0  0  0  0  0
    8.0893    1.8350   19.4169 C   0  0  0  0  0  0  0  0  0  0  0  0
    7.1786    2.3876   20.3385 C   0  0  0  0  0  0  0  0  0  0  0  0
    6.9096    3.7723   20.2963 C   0  0  0  0  0  0  0  0  0  0  0  0
    9.7660    1.9514   17.2306 Cl  0  0  0  0  0  0  0  0  0  0  0  0
    6.3210    1.3696   21.4946 Cl  0  0  0  0  0  0  0  0  0  0  0  0
    6.9506    7.1396   23.9488 C   0  0  0  0  0  0  0  0  0  0  0  0
    8.1961    7.8145   24.4644 C   0  0  0  0  0  0  0  0  0  0  0  0
    8.8516    8.8911   23.8295 C   0  0  0  0  0  0  0  0  0  0  0  0
   10.1086    9.3224   24.2951 C   0  0  0  0  0  0  0  0  0  0  0  0
   10.6693    8.6780   25.4153 C   0  0  0  0  0  0  0  0  0  0  0  0
    9.9614    7.6494   26.0801 C   0  0  0  0  0  0  0  0  0  0  0  0
    8.7317    7.2233   25.5986 C   0  0  0  0  0  0  0  0  0  0  0  0
   10.4233    6.9975   27.2932 C   0  0  0  0  0  0  0  0  0  0  0  0
    9.6675    6.1470   27.9912 N   0  0  0  0  0  0  0  0  0  0  0  0
   11.6384    7.3422   27.7014 N   0  0  0  0  0  0  0  0  0  0  0  0
    8.7693    5.9069   27.6674 H   0  0  0  0  0  0  0  0  0  0  0  0
   12.1765    7.9715   27.1688 H   0  0  0  0  0  0  0  0  0  0  0  0
   12.0015    6.9685   28.5367 H   0  0  0  0  0  0  0  0  0  0  0  0
  1  2  2  0  0  0
  1  6  1  0  0  0
  2  3  1  0  0  0
  3  4  2  0  0  0
  3  7  1  0  0  0
  4  5  1  0  0  0
  4  9  1  0  0  0
  5  6  2  0  0  0
  5 10  1  0  0  0
  7  8  1  0  0  0
  7 24  1  0  0  0
  8  9  2  0  0  0
  8 11  1  0  0  0
 11 12  1  0  0  0
 11 13  2  0  0  0
 12 15  1  0  0  0
 15 16  1  0  0  0
 16 17  1  0  0  0
 16 21  2  0  0  0
 24 25  1  0  0  0
 25 26  2  0  0  0
 25 30  1  0  0  0
 26 27  1  0  0  0
 27 28  2  0  0  0
 28 29  1  0  0  0
 29 30  2  0  0  0
 29 31  1  0  0  0
 17 18  2  0  0  0
 18 19  1  0  0  0
 18 22  1  0  0  0
 19 20  2  0  0  0
 20 21  1  0  0  0
 20 23  1  0  0  0
 31 32  2  0  0  0
 31 33  1  0  0  0
 12 14  1  0  0  0
 32 34  1  0  0  0
 33 35  1  0  0  0
 33 36  1  0  0  0
M  END
> <minimizedAffinity>
-10.61016

$$$$
1LPZ_CMB_B_301


 36 39  0  0  0  0  0  0  0  0999 V2000
    3.3268   10.0528   25.2041 C   0  0  0  0  0  0  0  0  0  0  0  0
    4.4036    9.1619   25.0844 C   0  0  0  0  0  0  0  0  0  0  0  0
    4.5805    8.3900   23.9001 C   0  0  0  0  0  0  0  0  0  0  0  0
    3.7301    8.4925   22.8004 C   0  0  0  0  0  0  0  0  0  0  0  0
    2.6087    9.4151   22.9251 C   0  0  0  0  0  0  0  0  0  0  0  0
    2.4237   10.1612   24.1204 C   0  0  0  0  0  0  0  0  0  0  0  0
    5.5115    7.3882   23.6604 N   0  0  0  0  0  0  0  0  0  0  0  0
    5.2542    6.9101   22.3840 C   0  0  0  0  0  0  0  0  0  0  0  0
    4.1492    7.6230   21.7713 C   0  0  0  0  0  0  0  0  0  0  0  0
    1.6729    9.6147   21.8026 C   0  0  0  0  0  0  0  0  0  0  0  0
    5.9561    5.8422   21.7668 C   0  0  0  0  0  0  0  0  0  0  0  0
    7.1565    6.1041   21.1945 N   0  0  0  0  0  0  0  0  0  0  0  0
    5.4765    4.7059   21.7332 O   0  0  0  0  0  0  0  0  0  0  0  0
    7.5263    7.0162   21.2175 H   0  0  0  0  0  0  0  0  0  0  0  0
    7.9007    5.0261   20.5422 C   0  0  0  0  0  0  0  0  0  0  0  0
    7.5699    4.7363   19.0798 C   0  0  0  0  0  0  0  0  0  0  0  0
    8.2924    3.7494   18.3910 C   0  0  0  0  0  0  0  0  0  0  0  0
    8.1152    3.5250   17.0159 C   0  0  0  0  0  0  0  0  0  0  0  0
    7.1721    4.2994   16.3201 C   0  0  0  0  0  0  0  0  0  0  0  0
    6.4281    5.2933   16.9857 C   0  0  0  0  0  0  0  0  0  0  0  0
    6.6283    5.4946   18.3680 C   0  0  0  0  0  0  0  0  0  0  0  0
    9.1268    2.3594   16.1767 Cl  0  0  0  0  0  0  0  0  0  0  0  0
    5.3052    6.3318   16.1088 Cl  0  0  0  0  0  0  0  0  0  0  0  0
    6.4419    6.8611   24.6677 C   0  0  0  0  0  0  0  0  0  0  0  0
    7.7555    7.5973   24.7388 C   0  0  0  0  0  0  0  0  0  0  0  0
    8.1899    8.5637   23.8064 C   0  0  0  0  0  0  0  0  0  0  0  0
    9.5096    9.0515   23.8620 C   0  0  0  0  0  0  0  0  0  0  0  0
   10.3607    8.5772   24.8795 C   0  0  0  0  0  0  0  0  0  0  0  0
    9.8819    7.6631   25.8471 C   0  0  0  0  0  0  0  0  0  0  0  0
    8.5843    7.1778   25.7684 C   0  0  0  0  0  0  0  0  0  0  0  0
   10.6617    7.1956   26.9799 C   0  0  0  0  0  0  0  0  0  0  0  0
   11.9963    7.1663   26.9778 N   0  0  0  0  0  0  0  0  0  0  0  0
    9.9591    6.7438   28.0114 N   0  0  0  0  0  0  0  0  0  0  0  0
   12.4949    7.5075   26.2006 H   0  0  0  0  0  0  0  0  0  0  0  0
    8.9754    6.7763   27.9889 H   0  0  0  0  0  0  0  0  0  0  0  0
   10.4216    6.3762   28.7989 H   0  0  0  0  0  0  0  0  0  0  0  0
  1  2  2  0  0  0
  1  6  1  0  0  0
  2  3  1  0  0  0
  3  4  2  0  0  0
  3  7  1  0  0  0
  4  5  1  0  0  0
  4  9  1  0  0  0
  5  6  2  0  0  0
  5 10  1  0  0  0
  7  8  1  0  0  0
  7 24  1  0  0  0
  8  9  2  0  0  0
  8 11  1  0  0  0
 11 12  1  0  0  0
 11 13  2  0  0  0
 12 15  1  0  0  0
 15 16  1  0  0  0
 16 17  1  0  0  0
 16 21  2  0  0  0
 24 25  1  0  0  0
 25 26  2  0  0  0
 25 30  1  0  0  0
 26 27  1  0  0  0
 27 28  2  0  0  0
 28 29  1  0  0  0
 29 30  2  0  0  0
 29 31  1  0  0  0
 17 18  2  0  0  0
 18 19  1  0  0  0
 18 22  1  0  0  0
 19 20  2  0  0  0
 20 21  1  0  0  0
 20 23  1  0  0  0
 31 32  2  0  0  0
 31 33  1  0  0  0
 12 14  1  0  0  0
 32 34  1  0  0  0
 33 35  1  0  0  0
 33 36  1  0  0  0
M  END
> <minimizedAffinity>
-9.39081

$$$$
1LPZ_CMB_B_301


 36 39  0  0  0  0  0  0  0  0999 V2000
    3.2957    9.9410   25.3410 C   0  0  0  0  0  0  0  0  0  0  0  0
    4.2879    9.0021   25.0221 C   0  0  0  0  0  0  0  0  0  0  0  0
    3.9530    7.7878   24.3565 C   0  0  0  0  0  0  0  0  0  0  0  0
    2.6519    7.4787   23.9635 C   0  0  0  0  0  0  0  0  0  0  0  0
    1.6195    8.4517   24.2976 C   0  0  0  0  0  0  0  0  0  0  0  0
    1.9578    9.6481   24.9859 C   0  0  0  0  0  0  0  0  0  0  0  0
    4.7800    6.7095   24.0722 N   0  0  0  0  0  0  0  0  0  0  0  0
    3.9833    5.7549   23.4573 C   0  0  0  0  0  0  0  0  0  0  0  0
    2.6171    6.2234   23.3201 C   0  0  0  0  0  0  0  0  0  0  0  0
    0.2183    8.2272   23.8954 C   0  0  0  0  0  0  0  0  0  0  0  0
    4.4337    4.4741   23.0441 C   0  0  0  0  0  0  0  0  0  0  0  0
    5.1323    4.3779   21.8866 N   0  0  0  0  0  0  0  0  0  0  0  0
    4.1781    3.4682   23.7112 O   0  0  0  0  0  0  0  0  0  0  0  0
    5.3226    5.1849   21.3558 H   0  0  0  0  0  0  0  0  0  0  0  0
    5.6028    3.0701   21.4289 C   0  0  0  0  0  0  0  0  0  0  0  0
    6.5338    3.0486   20.2186 C   0  0  0  0  0  0  0  0  0  0  0  0
    6.3645    4.0000   19.2004 C   0  0  0  0  0  0  0  0  0  0  0  0
    7.1100    3.9534   18.0109 C   0  0  0  0  0  0  0  0  0  0  0  0
    8.0648    2.9356   17.8503 C   0  0  0  0  0  0  0  0  0  0  0  0
    8.2609    1.9702   18.8571 C   0  0  0  0  0  0  0  0  0  0  0  0
    7.4969    2.0439   20.0414 C   0  0  0  0  0  0  0  0  0  0  0  0
    6.7784    5.0968   16.7191 Cl  0  0  0  0  0  0  0  0  0  0  0  0
    9.3923    0.6367   18.6333 Cl  0  0  0  0  0  0  0  0  0  0  0  0
    6.1733    6.5903   24.5222 C   0  0  0  0  0  0  0  0  0  0  0  0
    7.1631    7.3428   23.6696 C   0  0  0  0  0  0  0  0  0  0  0  0
    7.0986    7.4505   22.2639 C   0  0  0  0  0  0  0  0  0  0  0  0
    8.1737    8.0160   21.5517 C   0  0  0  0  0  0  0  0  0  0  0  0
    9.2848    8.4921   22.2752 C   0  0  0  0  0  0  0  0  0  0  0  0
    9.2962    8.4398   23.6888 C   0  0  0  0  0  0  0  0  0  0  0  0
    8.2371    7.8634   24.3755 C   0  0  0  0  0  0  0  0  0  0  0  0
   10.3571    8.9906   24.5141 C   0  0  0  0  0  0  0  0  0  0  0  0
   10.6927   10.2824   24.4954 N   0  0  0  0  0  0  0  0  0  0  0  0
   11.0173    8.1126   25.2591 N   0  0  0  0  0  0  0  0  0  0  0  0
   10.1874   10.9142   23.9343 H   0  0  0  0  0  0  0  0  0  0  0  0
   10.7504    7.1649   25.2559 H   0  0  0  0  0  0  0  0  0  0  0  0
   11.7738    8.4090   25.8151 H   0  0  0  0  0  0  0  0  0  0  0  0
  1  2  2  0  0  0
  1  6  1  0  0  0
  2  3  1  0  0  0
  3  4  2  0  0  0
  3  7  1  0  0  0
  4  5  1  0  0  0
  4  9  1  0  0  0
  5  6  2  0  0  0
  5 10  1  0  0  0
  7  8  1  0  0  0
  7 24  1  0  0  0
  8  9  2  0  0  0
  8 11  1  0  0  0
 11 12  1  0  0  0
 11 13  2  0  0  0
 12 15  1  0  0  0
 15 16  1  0  0  0
 16 17  1  0  0  0
 16 21  2  0  0  0
 24 25  1  0  0  0
 25 26  2  0  0  0
 25 30  1  0  0  0
 26 27  1  0  0  0
 27 28  2  0  0  0
 28 29  1  0  0  0
 29 30  2  0  0  0
 29 31  1  0  0  0
 17 18  2  0  0  0
 18 19  1  0  0  0
 18 22  1  0  0  0
 19 20  2  0  0  0
 20 21  1  0  0  0
 20 23  1  0  0  0
 31 32  2  0  0  0
 31 33  1  0  0  0
 12 14  1  0  0  0
 32 34  1  0  0  0
 33 35  1  0  0  0
 33 36  1  0  0  0
M  END
> <minimizedAffinity>
-9.07797

$$$$
1LPZ_CMB_B_301


 36 39  0  0  0  0  0  0  0  0999 V2000
    9.6833    2.4387   17.4086 C   0  0  0  0  0  0  0  0  0  0  0  0
    9.1409    3.0710   18.5372 C   0  0  0  0  0  0  0  0  0  0  0  0
    7.8516    2.7095   19.0238 C   0  0  0  0  0  0  0  0  0  0  0  0
    7.0799    1.7069   18.4390 C   0  0  0  0  0  0  0  0  0  0  0  0
    7.6407    1.0518   17.2640 C   0  0  0  0  0  0  0  0  0  0  0  0
    8.9158    1.4371   16.7686 C   0  0  0  0  0  0  0  0  0  0  0  0
    7.1224    3.3047   20.0444 N   0  0  0  0  0  0  0  0  0  0  0  0
    5.9147    2.6259   20.1118 C   0  0  0  0  0  0  0  0  0  0  0  0
    5.8600    1.5572   19.1320 C   0  0  0  0  0  0  0  0  0  0  0  0
    6.9119   -0.0423   16.5953 C   0  0  0  0  0  0  0  0  0  0  0  0
    4.8558    2.9510   20.9989 C   0  0  0  0  0  0  0  0  0  0  0  0
    5.1568    3.2163   22.2935 N   0  0  0  0  0  0  0  0  0  0  0  0
    3.6861    2.9716   20.6070 O   0  0  0  0  0  0  0  0  0  0  0  0
    6.0922    3.1873   22.5993 H   0  0  0  0  0  0  0  0  0  0  0  0
    4.0863    3.5460   23.2352 C   0  0  0  0  0  0  0  0  0  0  0  0
    3.8325    5.0263   23.5116 C   0  0  0  0  0  0  0  0  0  0  0  0
    4.7660    5.9800   23.0761 C   0  0  0  0  0  0  0  0  0  0  0  0
    4.6462    7.3396   23.4073 C   0  0  0  0  0  0  0  0  0  0  0  0
    3.5480    7.7537   24.1791 C   0  0  0  0  0  0  0  0  0  0  0  0
    2.5921    6.8205   24.6259 C   0  0  0  0  0  0  0  0  0  0  0  0
    2.7395    5.4613   24.2762 C   0  0  0  0  0  0  0  0  0  0  0  0
    5.9025    8.4739   22.9372 Cl  0  0  0  0  0  0  0  0  0  0  0  0
    1.2573    7.3109   25.6680 Cl  0  0  0  0  0  0  0  0  0  0  0  0
    7.5303    4.5247   20.7540 C   0  0  0  0  0  0  0  0  0  0  0  0
    7.0505    5.8013   20.1115 C   0  0  0  0  0  0  0  0  0  0  0  0
    5.9481    5.8984   19.2355 C   0  0  0  0  0  0  0  0  0  0  0  0
    5.7013    7.1011   18.5461 C   0  0  0  0  0  0  0  0  0  0  0  0
    6.5556    8.1973   18.7769 C   0  0  0  0  0  0  0  0  0  0  0  0
    7.6108    8.0995   19.7139 C   0  0  0  0  0  0  0  0  0  0  0  0
    7.8524    6.9021   20.3722 C   0  0  0  0  0  0  0  0  0  0  0  0
    8.4785    9.2056   20.0795 C   0  0  0  0  0  0  0  0  0  0  0  0
    8.4373   10.3913   19.4677 N   0  0  0  0  0  0  0  0  0  0  0  0
    9.3628    8.9480   21.0352 N   0  0  0  0  0  0  0  0  0  0  0  0
    7.7718   10.5580   18.7617 H   0  0  0  0  0  0  0  0  0  0  0  0
    9.3731    8.0655   21.4715 H   0  0  0  0  0  0  0  0  0  0  0  0
   10.0084    9.6394   21.3079 H   0  0  0  0  0  0  0  0  0  0  0  0
  1  2  2  0  0  0
  1  6  1  0  0  0
  2  3  1  0  0  0
  3  4  2  0  0  0
  3  7  1  0  0  0
  4  5  1  0  0  0
  4  9  1  0  0  0
  5  6  2  0  0  0
  5 10  1  0  0  0
  7  8  1  0  0  0
  7 24  1  0  0  0
  8  9  2  0  0  0
  8 11  1  0  0  0
 11 12  1  0  0  0
 11 13  2  0  0  0
 12 15  1  0  0  0
 15 16  1  0  0  0
 16 17  1  0  0  0
 16 21  2  0  0  0
 24 25  1  0  0  0
 25 26  2  0  0  0
 25 30  1  0  0  0
 26 27  1  0  0  0
 27 28  2  0  0  0
 28 29  1  0  0  0
 29 30  2  0  0  0
 29 31  1  0  0  0
 17 18  2  0  0  0
 18 19  1  0  0  0
 18 22  1  0  0  0
 19 20  2  0  0  0
 20 21  1  0  0  0
 20 23  1  0  0  0
 31 32  2  0  0  0
 31 33  1  0  0  0
 12 14  1  0  0  0
 32 34  1  0  0  0
 33 35  1  0  0  0
 33 36  1  0  0  0
M  END
> <minimizedAffinity>
-9.02763

$$$$
1LPZ_CMB_B_301


 36 39  0  0  0  0  0  0  0  0999 V2000
    9.4427    7.7154   26.4697 C   0  0  0  0  0  0  0  0  0  0  0  0
    8.4345    7.1831   25.6524 C   0  0  0  0  0  0  0  0  0  0  0  0
    8.3981    7.4759   24.2586 C   0  0  0  0  0  0  0  0  0  0  0  0
    9.3579    8.2675   23.6302 C   0  0  0  0  0  0  0  0  0  0  0  0
   10.4038    8.8241   24.4789 C   0  0  0  0  0  0  0  0  0  0  0  0
   10.4175    8.5495   25.8732 C   0  0  0  0  0  0  0  0  0  0  0  0
    7.4191    7.1332   23.3357 N   0  0  0  0  0  0  0  0  0  0  0  0
    7.8123    7.6818   22.1239 C   0  0  0  0  0  0  0  0  0  0  0  0
    9.0783    8.3789   22.2516 C   0  0  0  0  0  0  0  0  0  0  0  0
   11.4811    9.6483   23.8995 C   0  0  0  0  0  0  0  0  0  0  0  0
    7.0623    7.6019   20.9218 C   0  0  0  0  0  0  0  0  0  0  0  0
    7.2916    6.5600   20.0859 N   0  0  0  0  0  0  0  0  0  0  0  0
    6.2354    8.4710   20.6333 O   0  0  0  0  0  0  0  0  0  0  0  0
    7.9609    5.8769   20.3198 H   0  0  0  0  0  0  0  0  0  0  0  0
    6.5408    6.4542   18.8343 C   0  0  0  0  0  0  0  0  0  0  0  0
    6.9202    5.3174   17.8878 C   0  0  0  0  0  0  0  0  0  0  0  0
    7.9333    4.4192   18.2587 C   0  0  0  0  0  0  0  0  0  0  0  0
    8.4064    3.4314   17.3796 C   0  0  0  0  0  0  0  0  0  0  0  0
    7.8315    3.3312   16.1018 C   0  0  0  0  0  0  0  0  0  0  0  0
    6.8095    4.2149   15.7034 C   0  0  0  0  0  0  0  0  0  0  0  0
    6.3549    5.1967   16.6094 C   0  0  0  0  0  0  0  0  0  0  0  0
    9.7554    2.4085   17.8489 Cl  0  0  0  0  0  0  0  0  0  0  0  0
    6.1397    4.1584   14.0735 Cl  0  0  0  0  0  0  0  0  0  0  0  0
    6.1513    6.4737   23.6762 C   0  0  0  0  0  0  0  0  0  0  0  0
    5.1059    7.4014   24.2412 C   0  0  0  0  0  0  0  0  0  0  0  0
    5.2866    8.7846   24.4561 C   0  0  0  0  0  0  0  0  0  0  0  0
    4.3144    9.5199   25.1610 C   0  0  0  0  0  0  0  0  0  0  0  0
    3.1591    8.8508   25.6109 C   0  0  0  0  0  0  0  0  0  0  0  0
    2.9654    7.4799   25.3209 C   0  0  0  0  0  0  0  0  0  0  0  0
    3.9408    6.7646   24.6409 C   0  0  0  0  0  0  0  0  0  0  0  0
    1.7652    6.7378   25.6656 C   0  0  0  0  0  0  0  0  0  0  0  0
    1.6790    5.4100   25.5589 N   0  0  0  0  0  0  0  0  0  0  0  0
    0.7278    7.4723   26.0479 N   0  0  0  0  0  0  0  0  0  0  0  0
    2.4628    4.8872   25.2733 H   0  0  0  0  0  0  0  0  0  0  0  0
    0.8166    8.4502   26.1189 H   0  0  0  0  0  0  0  0  0  0  0  0
   -0.1304    7.0391   26.2603 H   0  0  0  0  0  0  0  0  0  0  0  0
  1  2  2  0  0  0
  1  6  1  0  0  0
  2  3  1  0  0  0
  3  4  2  0  0  0
  3  7  1  0  0  0
  4  5  1  0  0  0
  4  9  1  0  0  0
  5  6  2  0  0  0
  5 10  1  0  0  0
  7  8  1  0  0  0
  7 24  1  0  0  0
  8  9  2  0  0  0
  8 11  1  0  0  0
 11 12  1  0  0  0
 11 13  2  0  0  0
 12 15  1  0  0  0
 15 16  1  0  0  0
 16 17  1  0  0  0
 16 21  2  0  0  0
 24 25  1  0  0  0
 25 26  2  0  0  0
 25 30  1  0  0  0
 26 27  1  0  0  0
 27 28  2  0  0  0
 28 29  1  0  0  0
 29 30  2  0  0  0
 29 31  1  0  0  0
 17 18  2  0  0  0
 18 19  1  0  0  0
 18 22  1  0  0  0
 19 20  2  0  0  0
 20 21  1  0  0  0
 20 23  1  0  0  0
 31 32  2  0  0  0
 31 33  1  0  0  0
 12 14  1  0  0  0
 32 34  1  0  0  0
 33 35  1  0  0  0
 33 36  1  0  0  0
M  END
> <minimizedAffinity>
-9.01491

$$$$
1LPZ_CMB_B_301


 36 39  0  0  0  0  0  0  0  0999 V2000
    3.3181    0.8692   17.7211 C   0  0  0  0  0  0  0  0  0  0  0  0
    4.1448    1.0470   18.8403 C   0  0  0  0  0  0  0  0  0  0  0  0
    3.8448    2.0415   19.8152 C   0  0  0  0  0  0  0  0  0  0  0  0
    2.7200    2.8606   19.7339 C   0  0  0  0  0  0  0  0  0  0  0  0
    1.8622    2.6794   18.5695 C   0  0  0  0  0  0  0  0  0  0  0  0
    2.1834    1.7036   17.5875 C   0  0  0  0  0  0  0  0  0  0  0  0
    4.6073    2.4272   20.9095 N   0  0  0  0  0  0  0  0  0  0  0  0
    3.9153    3.4589   21.5265 C   0  0  0  0  0  0  0  0  0  0  0  0
    2.6709    3.7405   20.8358 C   0  0  0  0  0  0  0  0  0  0  0  0
    0.6324    3.4783   18.4118 C   0  0  0  0  0  0  0  0  0  0  0  0
    4.3755    4.1702   22.6650 C   0  0  0  0  0  0  0  0  0  0  0  0
    4.9030    5.4056   22.4846 N   0  0  0  0  0  0  0  0  0  0  0  0
    4.3164    3.6686   23.7907 O   0  0  0  0  0  0  0  0  0  0  0  0
    4.9553    5.7934   21.5812 H   0  0  0  0  0  0  0  0  0  0  0  0
    5.3945    6.1609   23.6376 C   0  0  0  0  0  0  0  0  0  0  0  0
    6.6667    6.9826   23.4417 C   0  0  0  0  0  0  0  0  0  0  0  0
    7.0619    7.3446   22.1442 C   0  0  0  0  0  0  0  0  0  0  0  0
    8.2825    7.9931   21.8949 C   0  0  0  0  0  0  0  0  0  0  0  0
    9.1176    8.3039   22.9808 C   0  0  0  0  0  0  0  0  0  0  0  0
    8.7452    7.9582   24.2946 C   0  0  0  0  0  0  0  0  0  0  0  0
    7.5122    7.3076   24.5131 C   0  0  0  0  0  0  0  0  0  0  0  0
    8.7844    8.3196   20.2434 Cl  0  0  0  0  0  0  0  0  0  0  0  0
    9.8218    8.2626   25.6571 Cl  0  0  0  0  0  0  0  0  0  0  0  0
    5.9577    1.9261   21.1987 C   0  0  0  0  0  0  0  0  0  0  0  0
    7.0285    2.4834   20.2957 C   0  0  0  0  0  0  0  0  0  0  0  0
    7.3317    3.8546   20.1551 C   0  0  0  0  0  0  0  0  0  0  0  0
    8.2196    4.2790   19.1480 C   0  0  0  0  0  0  0  0  0  0  0  0
    8.8114    3.3065   18.3182 C   0  0  0  0  0  0  0  0  0  0  0  0
    8.5490    1.9318   18.5242 C   0  0  0  0  0  0  0  0  0  0  0  0
    7.6578    1.5303   19.5092 C   0  0  0  0  0  0  0  0  0  0  0  0
    9.1863    0.8616   17.7770 C   0  0  0  0  0  0  0  0  0  0  0  0
   10.4092    0.4083   18.0612 N   0  0  0  0  0  0  0  0  0  0  0  0
    8.4931    0.3902   16.7478 N   0  0  0  0  0  0  0  0  0  0  0  0
   10.9033    0.7740   18.8303 H   0  0  0  0  0  0  0  0  0  0  0  0
    7.5928    0.7408   16.5588 H   0  0  0  0  0  0  0  0  0  0  0  0
    8.8793   -0.3100   16.1736 H   0  0  0  0  0  0  0  0  0  0  0  0
  1  2  2  0  0  0
  1  6  1  0  0  0
  2  3  1  0  0  0
  3  4  2  0  0  0
  3  7  1  0  0  0
  4  5  1  0  0  0
  4  9  1  0  0  0
  5  6  2  0  0  0
  5 10  1  0  0  0
  7  8  1  0  0  0
  7 24  1  0  0  0
  8  9  2  0  0  0
  8 11  1  0  0  0
 11 12  1  0  0  0
 11 13  2  0  0  0
 12 15  1  0  0  0
 15 16  1  0  0  0
 16 17  1  0  0  0
 16 21  2  0  0  0
 24 25  1  0  0  0
 25 26  2  0  0  0
 25 30  1  0  0  0
 26 27  1  0  0  0
 27 28  2  0  0  0
 28 29  1  0  0  0
 29 30  2  0  0  0
 29 31  1  0  0  0
 17 18  2  0  0  0
 18 19  1  0  0  0
 18 22  1  0  0  0
 19 20  2  0  0  0
 20 21  1  0  0  0
 20 23  1  0  0  0
 31 32  2  0  0  0
 31 33  1  0  0  0
 12 14  1  0  0  0
 32 34  1  0  0  0
 33 35  1  0  0  0
 33 36  1  0  0  0
M  END
> <minimizedAffinity>
-8.82449

$$$$
1LPZ_CMB_B_301


 36 39  0  0  0  0  0  0  0  0999 V2000
    9.2482    7.9724   26.3163 C   0  0  0  0  0  0  0  0  0  0  0  0
    8.2473    7.4986   25.4553 C   0  0  0  0  0  0  0  0  0  0  0  0
    8.3456    7.6959   24.0478 C   0  0  0  0  0  0  0  0  0  0  0  0
    9.4329    8.3314   23.4507 C   0  0  0  0  0  0  0  0  0  0  0  0
   10.4718    8.8274   24.3445 C   0  0  0  0  0  0  0  0  0  0  0  0
   10.3530    8.6507   25.7496 C   0  0  0  0  0  0  0  0  0  0  0  0
    7.4030    7.3995   23.0724 N   0  0  0  0  0  0  0  0  0  0  0  0
    7.9433    7.8157   21.8646 C   0  0  0  0  0  0  0  0  0  0  0  0
    9.2685    8.3766   22.0500 C   0  0  0  0  0  0  0  0  0  0  0  0
   11.6758    9.4858   23.8035 C   0  0  0  0  0  0  0  0  0  0  0  0
    7.2780    7.7353   20.6137 C   0  0  0  0  0  0  0  0  0  0  0  0
    7.2339    6.5371   19.9819 N   0  0  0  0  0  0  0  0  0  0  0  0
    6.7691    8.7363   20.1025 O   0  0  0  0  0  0  0  0  0  0  0  0
    7.6518    5.7461   20.3929 H   0  0  0  0  0  0  0  0  0  0  0  0
    6.5630    6.4234   18.6863 C   0  0  0  0  0  0  0  0  0  0  0  0
    6.9582    5.2461   17.7976 C   0  0  0  0  0  0  0  0  0  0  0  0
    7.9978    4.3940   18.2023 C   0  0  0  0  0  0  0  0  0  0  0  0
    8.4839    3.3713   17.3714 C   0  0  0  0  0  0  0  0  0  0  0  0
    7.8954    3.1879   16.1091 C   0  0  0  0  0  0  0  0  0  0  0  0
    6.8468    4.0239   15.6779 C   0  0  0  0  0  0  0  0  0  0  0  0
    6.3798    5.0424   16.5357 C   0  0  0  0  0  0  0  0  0  0  0  0
    9.8636    2.4081   17.8764 Cl  0  0  0  0  0  0  0  0  0  0  0  0
    6.1579    3.8626   14.0631 Cl  0  0  0  0  0  0  0  0  0  0  0  0
    6.0465    6.9087   23.3505 C   0  0  0  0  0  0  0  0  0  0  0  0
    5.0986    7.9677   23.8531 C   0  0  0  0  0  0  0  0  0  0  0  0
    4.7188    8.1355   25.2019 C   0  0  0  0  0  0  0  0  0  0  0  0
    3.6860    9.0327   25.5355 C   0  0  0  0  0  0  0  0  0  0  0  0
    3.0742    9.7696   24.5024 C   0  0  0  0  0  0  0  0  0  0  0  0
    3.5205    9.6387   23.1664 C   0  0  0  0  0  0  0  0  0  0  0  0
    4.5272    8.7372   22.8510 C   0  0  0  0  0  0  0  0  0  0  0  0
    3.0096   10.4259   22.0578 C   0  0  0  0  0  0  0  0  0  0  0  0
    2.2675   11.5221   22.2292 N   0  0  0  0  0  0  0  0  0  0  0  0
    3.2834    9.9553   20.8472 N   0  0  0  0  0  0  0  0  0  0  0  0
    2.0783   11.8514   23.1375 H   0  0  0  0  0  0  0  0  0  0  0  0
    3.8332    9.1448   20.7469 H   0  0  0  0  0  0  0  0  0  0  0  0
    2.9368   10.4168   20.0497 H   0  0  0  0  0  0  0  0  0  0  0  0
  1  2  2  0  0  0
  1  6  1  0  0  0
  2  3  1  0  0  0
  3  4  2  0  0  0
  3  7  1  0  0  0
  4  5  1  0  0  0
  4  9  1  0  0  0
  5  6  2  0  0  0
  5 10  1  0  0  0
  7  8  1  0  0  0
  7 24  1  0  0  0
  8  9  2  0  0  0
  8 11  1  0  0  0
 11 12  1  0  0  0
 11 13  2  0  0  0
 12 15  1  0  0  0
 15 16  1  0  0  0
 16 17  1  0  0  0
 16 21  2  0  0  0
 24 25  1  0  0  0
 25 26  2  0  0  0
 25 30  1  0  0  0
 26 27  1  0  0  0
 27 28  2  0  0  0
 28 29  1  0  0  0
 29 30  2  0  0  0
 29 31  1  0  0  0
 17 18  2  0  0  0
 18 19  1  0  0  0
 18 22  1  0  0  0
 19 20  2  0  0  0
 20 21  1  0  0  0
 20 23  1  0  0  0
 31 32  2  0  0  0
 31 33  1  0  0  0
 12 14  1  0  0  0
 32 34  1  0  0  0
 33 35  1  0  0  0
 33 36  1  0  0  0
M  END
> <minimizedAffinity>
-8.79643

$$$$
1LPZ_CMB_B_301


 36 39  0  0  0  0  0  0  0  0999 V2000
    8.6006    3.2312   16.4060 C   0  0  0  0  0  0  0  0  0  0  0  0
    7.6042    3.8185   17.1997 C   0  0  0  0  0  0  0  0  0  0  0  0
    7.2043    3.2171   18.4277 C   0  0  0  0  0  0  0  0  0  0  0  0
    7.7866    2.0502   18.9195 C   0  0  0  0  0  0  0  0  0  0  0  0
    8.8194    1.4369   18.0939 C   0  0  0  0  0  0  0  0  0  0  0  0
    9.1934    2.0283   16.8570 C   0  0  0  0  0  0  0  0  0  0  0  0
    6.1669    3.5948   19.2697 N   0  0  0  0  0  0  0  0  0  0  0  0
    6.1495    2.6757   20.3083 C   0  0  0  0  0  0  0  0  0  0  0  0
    7.2042    1.6915   20.1535 C   0  0  0  0  0  0  0  0  0  0  0  0
    9.5153    0.2174   18.5455 C   0  0  0  0  0  0  0  0  0  0  0  0
    5.2057    2.6749   21.3681 C   0  0  0  0  0  0  0  0  0  0  0  0
    5.2252    3.7035   22.2506 N   0  0  0  0  0  0  0  0  0  0  0  0
    4.3994    1.7499   21.4964 O   0  0  0  0  0  0  0  0  0  0  0  0
    5.8791    4.4320   22.1459 H   0  0  0  0  0  0  0  0  0  0  0  0
    4.2707    3.7272   23.3596 C   0  0  0  0  0  0  0  0  0  0  0  0
    3.7307    5.0906   23.7855 C   0  0  0  0  0  0  0  0  0  0  0  0
    2.4859    5.1697   24.4295 C   0  0  0  0  0  0  0  0  0  0  0  0
    1.8856    6.4025   24.7337 C   0  0  0  0  0  0  0  0  0  0  0  0
    2.5645    7.5862   24.4000 C   0  0  0  0  0  0  0  0  0  0  0  0
    3.8176    7.5383   23.7583 C   0  0  0  0  0  0  0  0  0  0  0  0
    4.3952    6.2843   23.4662 C   0  0  0  0  0  0  0  0  0  0  0  0
    0.2750    6.4483   25.4337 Cl  0  0  0  0  0  0  0  0  0  0  0  0
    4.6406    9.0138   23.2546 Cl  0  0  0  0  0  0  0  0  0  0  0  0
    5.2000    4.6596   18.9701 C   0  0  0  0  0  0  0  0  0  0  0  0
    5.7260    6.0532   19.2020 C   0  0  0  0  0  0  0  0  0  0  0  0
    5.5538    7.1380   18.3157 C   0  0  0  0  0  0  0  0  0  0  0  0
    6.2441    8.3449   18.5387 C   0  0  0  0  0  0  0  0  0  0  0  0
    7.0743    8.4465   19.6724 C   0  0  0  0  0  0  0  0  0  0  0  0
    7.1751    7.3714   20.5863 C   0  0  0  0  0  0  0  0  0  0  0  0
    6.5028    6.1821   20.3434 C   0  0  0  0  0  0  0  0  0  0  0  0
    7.9328    7.4254   21.8244 C   0  0  0  0  0  0  0  0  0  0  0  0
    7.8504    6.4825   22.7656 N   0  0  0  0  0  0  0  0  0  0  0  0
    8.6821    8.5083   21.9904 N   0  0  0  0  0  0  0  0  0  0  0  0
    7.2876    5.6881   22.6187 H   0  0  0  0  0  0  0  0  0  0  0  0
    8.7265    9.1897   21.2812 H   0  0  0  0  0  0  0  0  0  0  0  0
    9.1935    8.6302   22.8228 H   0  0  0  0  0  0  0  0  0  0  0  0
  1  2  2  0  0  0
  1  6  1  0  0  0
  2  3  1  0  0  0
  3  4  2  0  0  0
  3  7  1  0  0  0
  4  5  1  0  0  0
  4  9  1  0  0  0
  5  6  2  0  0  0
  5 10  1  0  0  0
  7  8  1  0  0  0
  7 24  1  0  0  0
  8  9  2  0  0  0
  8 11  1  0  0  0
 11 12  1  0  0  0
 11 13  2  0  0  0
 12 15  1  0  0  0
 15 16  1  0  0  0
 16 17  1  0  0  0
 16 21  2  0  0  0
 24 25  1  0  0  0
 25 26  2  0  0  0
 25 30  1  0  0  0
 26 27  1  0  0  0
 27 28  2  0  0  0
 28 29  1  0  0  0
 29 30  2  0  0  0
 29 31  1  0  0  0
 17 18  2  0  0  0
 18 19  1  0  0  0
 18 22  1  0  0  0
 19 20  2  0  0  0
 20 21  1  0  0  0
 20 23  1  0  0  0
 31 32  2  0  0  0
 31 33  1  0  0  0
 12 14  1  0  0  0
 32 34  1  0  0  0
 33 35  1  0  0  0
 33 36  1  0  0  0
M  END
> <minimizedAffinity>
-8.56685

$$$$
1LPZ_CMB_B_301


 36 39  0  0  0  0  0  0  0  0999 V2000
    3.2898   10.0632   25.1203 C   0  0  0  0  0  0  0  0  0  0  0  0
    4.2929    9.0949   24.9664 C   0  0  0  0  0  0  0  0  0  0  0  0
    4.2109    8.1214   23.9294 C   0  0  0  0  0  0  0  0  0  0  0  0
    3.1670    8.0908   23.0062 C   0  0  0  0  0  0  0  0  0  0  0  0
    2.1223    9.0942   23.1674 C   0  0  0  0  0  0  0  0  0  0  0  0
    2.1976   10.0447   24.2211 C   0  0  0  0  0  0  0  0  0  0  0  0
    5.0440    7.0333   23.7068 N   0  0  0  0  0  0  0  0  0  0  0  0
    4.5282    6.3619   22.6081 C   0  0  0  0  0  0  0  0  0  0  0  0
    3.3493    7.0317   22.0919 C   0  0  0  0  0  0  0  0  0  0  0  0
    0.9934    9.1609   22.2204 C   0  0  0  0  0  0  0  0  0  0  0  0
    5.0612    5.1594   22.0752 C   0  0  0  0  0  0  0  0  0  0  0  0
    6.2664    5.2058   21.4570 N   0  0  0  0  0  0  0  0  0  0  0  0
    4.4338    4.0999   22.1539 O   0  0  0  0  0  0  0  0  0  0  0  0
    6.7549    6.0579   21.3901 H   0  0  0  0  0  0  0  0  0  0  0  0
    6.8389    3.9846   20.8892 C   0  0  0  0  0  0  0  0  0  0  0  0
    7.2199    4.0153   19.4107 C   0  0  0  0  0  0  0  0  0  0  0  0
    6.5196    4.8596   18.5346 C   0  0  0  0  0  0  0  0  0  0  0  0
    6.7442    4.8399   17.1484 C   0  0  0  0  0  0  0  0  0  0  0  0
    7.7127    3.9630   16.6323 C   0  0  0  0  0  0  0  0  0  0  0  0
    8.4352    3.1080   17.4874 C   0  0  0  0  0  0  0  0  0  0  0  0
    8.1874    3.1514   18.8760 C   0  0  0  0  0  0  0  0  0  0  0  0
    5.7600    5.8312   16.0832 Cl  0  0  0  0  0  0  0  0  0  0  0  0
    9.5903    1.9407   16.8458 Cl  0  0  0  0  0  0  0  0  0  0  0  0
    6.1344    6.6254   24.6028 C   0  0  0  0  0  0  0  0  0  0  0  0
    7.4498    7.3066   24.3231 C   0  0  0  0  0  0  0  0  0  0  0  0
    8.3573    7.7446   25.3113 C   0  0  0  0  0  0  0  0  0  0  0  0
    9.4649    8.5348   24.9485 C   0  0  0  0  0  0  0  0  0  0  0  0
    9.6547    8.8441   23.5873 C   0  0  0  0  0  0  0  0  0  0  0  0
    8.7729    8.3337   22.6060 C   0  0  0  0  0  0  0  0  0  0  0  0
    7.6757    7.5713   22.9808 C   0  0  0  0  0  0  0  0  0  0  0  0
    8.9476    8.5263   21.1769 C   0  0  0  0  0  0  0  0  0  0  0  0
    9.4820    9.6327   20.6552 N   0  0  0  0  0  0  0  0  0  0  0  0
    8.4902    7.5466   20.4069 N   0  0  0  0  0  0  0  0  0  0  0  0
    9.8143   10.3454   21.2475 H   0  0  0  0  0  0  0  0  0  0  0  0
    8.1004    6.7404   20.8158 H   0  0  0  0  0  0  0  0  0  0  0  0
    8.5408    7.6263   19.4270 H   0  0  0  0  0  0  0  0  0  0  0  0
  1  2  2  0  0  0
  1  6  1  0  0  0
  2  3  1  0  0  0
  3  4  2  0  0  0
  3  7  1  0  0  0
  4  5  1  0  0  0
  4  9  1  0  0  0
  5  6  2  0  0  0
  5 10  1  0  0  0
  7  8  1  0  0  0
  7 24  1  0  0  0
  8  9  2  0  0  0
  8 11  1  0  0  0
 11 12  1  0  0  0
 11 13  2  0  0  0
 12 15  1  0  0  0
 15 16  1  0  0  0
 16 17  1  0  0  0
 16 21  2  0  0  0
 24 25  1  0  0  0
 25 26  2  0  0  0
 25 30  1  0  0  0
 26 27  1  0  0  0
 27 28  2  0  0  0
 28 29  1  0  0  0
 29 30  2  0  0  0
 29 31  1  0  0  0
 17 18  2  0  0  0
 18 19  1  0  0  0
 18 22  1  0  0  0
 19 20  2  0  0  0
 20 21  1  0  0  0
 20 23  1  0  0  0
 31 32  2  0  0  0
 31 33  1  0  0  0
 12 14  1  0  0  0
 32 34  1  0  0  0
 33 35  1  0  0  0
 33 36  1  0  0  0
M  END
> <minimizedAffinity>
-8.56580

$$$$
