5HWV_MBN_A_501


  7  7  0  0  0  0  0  0  0  0999 V2000
   -6.9946    4.8398  -31.1464 C   0  0  0  0  0  0  0  0  0  0  0  0
   -6.5149    4.8715  -29.7505 C   0  0  0  0  0  0  0  0  0  0  0  0
   -7.0513    4.0586  -28.7909 C   0  0  0  0  0  0  0  0  0  0  0  0
   -6.6277    4.0890  -27.4650 C   0  0  0  0  0  0  0  0  0  0  0  0
   -5.6002    4.9917  -27.0973 C   0  0  0  0  0  0  0  0  0  0  0  0
   -5.0744    5.8212  -28.1478 C   0  0  0  0  0  0  0  0  0  0  0  0
   -5.5210    5.7657  -29.4624 C   0  0  0  0  0  0  0  0  0  0  0  0
  1  2  1  0  0  0
  2  3  2  0  0  0
  2  7  1  0  0  0
  3  4  1  0  0  0
  4  5  2  0  0  0
  5  6  1  0  0  0
  6  7  2  0  0  0
M  END
> <minimizedAffinity>
-6.61187

$$$$
5HWV_MBN_A_501


  7  7  0  0  0  0  0  0  0  0999 V2000
   -7.1581    4.5366  -31.0576 C   0  0  0  0  0  0  0  0  0  0  0  0
   -6.6075    4.7221  -29.7004 C   0  0  0  0  0  0  0  0  0  0  0  0
   -5.6649    5.6763  -29.4348 C   0  0  0  0  0  0  0  0  0  0  0  0
   -5.1177    5.8522  -28.1667 C   0  0  0  0  0  0  0  0  0  0  0  0
   -5.5569    5.0156  -27.1117 C   0  0  0  0  0  0  0  0  0  0  0  0
   -6.5489    4.0308  -27.4499 C   0  0  0  0  0  0  0  0  0  0  0  0
   -7.0740    3.8815  -28.7277 C   0  0  0  0  0  0  0  0  0  0  0  0
  1  2  1  0  0  0
  2  3  2  0  0  0
  2  7  1  0  0  0
  3  4  1  0  0  0
  4  5  2  0  0  0
  5  6  1  0  0  0
  6  7  2  0  0  0
M  END
> <minimizedAffinity>
-6.59038

$$$$
5HWV_MBN_A_501


  7  7  0  0  0  0  0  0  0  0999 V2000
   -5.3132    5.1844  -26.8066 C   0  0  0  0  0  0  0  0  0  0  0  0
   -5.7490    5.0915  -28.2141 C   0  0  0  0  0  0  0  0  0  0  0  0
   -5.0670    5.7218  -29.2175 C   0  0  0  0  0  0  0  0  0  0  0  0
   -5.4744    5.6643  -30.5475 C   0  0  0  0  0  0  0  0  0  0  0  0
   -6.6352    4.9216  -30.8743 C   0  0  0  0  0  0  0  0  0  0  0  0
   -7.3111    4.2805  -29.7787 C   0  0  0  0  0  0  0  0  0  0  0  0
   -6.8773    4.3590  -28.4609 C   0  0  0  0  0  0  0  0  0  0  0  0
  1  2  1  0  0  0
  2  3  2  0  0  0
  2  7  1  0  0  0
  3  4  1  0  0  0
  4  5  2  0  0  0
  5  6  1  0  0  0
  6  7  2  0  0  0
M  END
> <minimizedAffinity>
-6.51370

$$$$
5HWV_MBN_A_501


  7  7  0  0  0  0  0  0  0  0999 V2000
   -5.2987    5.1488  -26.8626 C   0  0  0  0  0  0  0  0  0  0  0  0
   -5.7861    5.0629  -28.2535 C   0  0  0  0  0  0  0  0  0  0  0  0
   -6.9072    4.3500  -28.5762 C   0  0  0  0  0  0  0  0  0  0  0  0
   -7.3703    4.2390  -29.8844 C   0  0  0  0  0  0  0  0  0  0  0  0
   -6.6568    4.8924  -30.9188 C   0  0  0  0  0  0  0  0  0  0  0  0
   -5.4863    5.6267  -30.5203 C   0  0  0  0  0  0  0  0  0  0  0  0
   -5.0510    5.7166  -29.2037 C   0  0  0  0  0  0  0  0  0  0  0  0
  1  2  1  0  0  0
  2  3  2  0  0  0
  2  7  1  0  0  0
  3  4  1  0  0  0
  4  5  2  0  0  0
  5  6  1  0  0  0
  6  7  2  0  0  0
M  END
> <minimizedAffinity>
-6.49646

$$$$
5HWV_MBN_A_501


  7  7  0  0  0  0  0  0  0  0999 V2000
   -4.9897    5.8097  -27.9397 C   0  0  0  0  0  0  0  0  0  0  0  0
   -5.8172    5.2560  -29.0297 C   0  0  0  0  0  0  0  0  0  0  0  0
   -5.7592    5.7603  -30.2992 C   0  0  0  0  0  0  0  0  0  0  0  0
   -6.5472    5.2664  -31.3352 C   0  0  0  0  0  0  0  0  0  0  0  0
   -7.4383    4.1990  -31.0658 C   0  0  0  0  0  0  0  0  0  0  0  0
   -7.4563    3.7096  -29.7136 C   0  0  0  0  0  0  0  0  0  0  0  0
   -6.6560    4.2266  -28.7022 C   0  0  0  0  0  0  0  0  0  0  0  0
  1  2  1  0  0  0
  2  3  2  0  0  0
  2  7  1  0  0  0
  3  4  1  0  0  0
  4  5  2  0  0  0
  5  6  1  0  0  0
  6  7  2  0  0  0
M  END
> <minimizedAffinity>
-6.37950

$$$$
5HWV_MBN_A_501


  7  7  0  0  0  0  0  0  0  0999 V2000
   -6.6750    3.9002  -27.5344 C   0  0  0  0  0  0  0  0  0  0  0  0
   -6.6631    4.4408  -28.9082 C   0  0  0  0  0  0  0  0  0  0  0  0
   -7.3813    3.8557  -29.9137 C   0  0  0  0  0  0  0  0  0  0  0  0
   -7.3659    4.3374  -31.2199 C   0  0  0  0  0  0  0  0  0  0  0  0
   -6.5814    5.4784  -31.5174 C   0  0  0  0  0  0  0  0  0  0  0  0
   -5.8478    6.0511  -30.4209 C   0  0  0  0  0  0  0  0  0  0  0  0
   -5.8851    5.5440  -29.1277 C   0  0  0  0  0  0  0  0  0  0  0  0
  1  2  1  0  0  0
  2  3  2  0  0  0
  2  7  1  0  0  0
  3  4  1  0  0  0
  4  5  2  0  0  0
  5  6  1  0  0  0
  6  7  2  0  0  0
M  END
> <minimizedAffinity>
-6.20858

$$$$
5HWV_MBN_A_501


  7  7  0  0  0  0  0  0  0  0999 V2000
   -4.3983    5.3361  -30.7574 C   0  0  0  0  0  0  0  0  0  0  0  0
   -5.5456    4.8453  -29.9685 C   0  0  0  0  0  0  0  0  0  0  0  0
   -5.5602    4.9209  -28.6034 C   0  0  0  0  0  0  0  0  0  0  0  0
   -6.6228    4.4440  -27.8408 C   0  0  0  0  0  0  0  0  0  0  0  0
   -7.7319    3.8634  -28.5032 C   0  0  0  0  0  0  0  0  0  0  0  0
   -7.6610    3.8109  -29.9387 C   0  0  0  0  0  0  0  0  0  0  0  0
   -6.5836    4.2962  -30.6697 C   0  0  0  0  0  0  0  0  0  0  0  0
  1  2  1  0  0  0
  2  3  2  0  0  0
  2  7  1  0  0  0
  3  4  1  0  0  0
  4  5  2  0  0  0
  5  6  1  0  0  0
  6  7  2  0  0  0
M  END
> <minimizedAffinity>
-5.83126

$$$$
5HWV_MBN_A_501


  7  7  0  0  0  0  0  0  0  0999 V2000
   -8.0917    3.9715  -28.5216 C   0  0  0  0  0  0  0  0  0  0  0  0
   -6.9167    4.4634  -29.2679 C   0  0  0  0  0  0  0  0  0  0  0  0
   -6.8172    4.3167  -30.6236 C   0  0  0  0  0  0  0  0  0  0  0  0
   -5.7079    4.7541  -31.3422 C   0  0  0  0  0  0  0  0  0  0  0  0
   -4.6453    5.3784  -30.6443 C   0  0  0  0  0  0  0  0  0  0  0  0
   -4.8052    5.5051  -29.2207 C   0  0  0  0  0  0  0  0  0  0  0  0
   -5.9267    5.0563  -28.5339 C   0  0  0  0  0  0  0  0  0  0  0  0
  1  2  1  0  0  0
  2  3  2  0  0  0
  2  7  1  0  0  0
  3  4  1  0  0  0
  4  5  2  0  0  0
  5  6  1  0  0  0
  6  7  2  0  0  0
M  END
> <minimizedAffinity>
-5.78106

$$$$
5HWV_MBN_A_501


  7  7  0  0  0  0  0  0  0  0999 V2000
   -4.3055    5.3059  -30.7220 C   0  0  0  0  0  0  0  0  0  0  0  0
   -5.5033    4.7925  -30.0281 C   0  0  0  0  0  0  0  0  0  0  0  0
   -6.5397    4.2240  -30.7151 C   0  0  0  0  0  0  0  0  0  0  0  0
   -7.6867    3.7540  -30.0811 C   0  0  0  0  0  0  0  0  0  0  0  0
   -7.7817    3.8643  -28.6723 C   0  0  0  0  0  0  0  0  0  0  0  0
   -6.6621    4.4704  -28.0034 C   0  0  0  0  0  0  0  0  0  0  0  0
   -5.5314    4.9300  -28.6677 C   0  0  0  0  0  0  0  0  0  0  0  0
  1  2  1  0  0  0
  2  3  2  0  0  0
  2  7  1  0  0  0
  3  4  1  0  0  0
  4  5  2  0  0  0
  5  6  1  0  0  0
  6  7  2  0  0  0
M  END
> <minimizedAffinity>
-5.73860

$$$$
