3ISJ_A8D_A_308


 20 21  0  0  0  0  0  0  0  0999 V2000
   14.1979    9.7606   -4.9163 C   0  0  0  0  0  0  0  0  0  0  0  0
   15.2425   10.0678   -4.0249 C   0  0  0  0  0  0  0  0  0  0  0  0
   12.6465    9.8966   -3.0635 C   0  0  0  0  0  0  0  0  0  0  0  0
   13.7780   10.4613   -0.9148 C   0  0  0  0  0  0  0  0  0  0  0  0
   15.8146   10.5890   -1.7294 N   0  0  0  0  0  0  0  0  0  0  0  0
   12.8784    9.6728   -4.4543 C   0  0  0  0  0  0  0  0  0  0  0  0
   15.0671   10.7051   -0.6016 C   0  0  0  0  0  0  0  0  0  0  0  0
   13.7066   10.1748   -2.2329 C   0  0  0  0  0  0  0  0  0  0  0  0
   14.9790   10.2705   -2.7337 C   0  0  0  0  0  0  0  0  0  0  0  0
   16.7886   10.7147   -1.7990 H   0  0  0  0  0  0  0  0  0  0  0  0
   14.9008   10.9810    1.6551 O   0  0  0  0  0  0  0  0  0  0  0  0
   16.9141   11.4195    0.6485 N   0  0  0  0  0  0  0  0  0  0  0  0
   15.5956   11.0496    0.6252 C   0  0  0  0  0  0  0  0  0  0  0  0
   17.4301   11.4683   -0.1885 H   0  0  0  0  0  0  0  0  0  0  0  0
   17.8202   10.3065    3.1241 C   0  0  0  0  0  0  0  0  0  0  0  0
   19.0388   12.3367    1.8952 O   0  0  0  0  0  0  0  0  0  0  0  0
   16.8360   12.9285    2.8251 O   0  0  0  0  0  0  0  0  0  0  0  0
   17.6813   11.8079    2.1892 S   0  0  0  0  0  0  0  0  0  0  0  0
   10.5150    9.5614   -5.2829 C   0  0  0  0  0  0  0  0  0  0  0  0
   11.9438    9.3223   -5.3913 O   0  0  0  0  0  0  0  0  0  0  0  0
 20 19  1  0  0  0
 18 15  1  0  0  0
 13 11  2  0  0  0
 18 16  2  0  0  0
 18 17  2  0  0  0
  1  6  2  0  0  0
  1  2  1  0  0  0
  2  9  2  0  0  0
  6  3  1  0  0  0
  3  8  2  0  0  0
  8  4  1  0  0  0
  4  7  2  0  0  0
 13 12  1  0  0  0
 12 18  1  0  0  0
  9  5  1  0  0  0
  5  7  1  0  0  0
 20  6  1  0  0  0
  7 13  1  0  0  0
  9  8  1  0  0  0
 12 14  1  0  0  0
  5 10  1  0  0  0
M  END
> <minimizedAffinity>
-8.20804

$$$$
3ISJ_A8D_A_308


 20 21  0  0  0  0  0  0  0  0999 V2000
   14.3409    9.8254   -4.7562 C   0  0  0  0  0  0  0  0  0  0  0  0
   15.3528   10.1206   -3.8241 C   0  0  0  0  0  0  0  0  0  0  0  0
   12.7238    9.9398   -2.9589 C   0  0  0  0  0  0  0  0  0  0  0  0
   13.7774   10.4771   -0.7641 C   0  0  0  0  0  0  0  0  0  0  0  0
   15.8421   10.6130   -1.5032 N   0  0  0  0  0  0  0  0  0  0  0  0
   13.0055    9.7330   -4.3432 C   0  0  0  0  0  0  0  0  0  0  0  0
   15.0545   10.7159   -0.4017 C   0  0  0  0  0  0  0  0  0  0  0  0
   13.7534   10.2069   -2.0874 C   0  0  0  0  0  0  0  0  0  0  0  0
   15.0430   10.3077   -2.5407 C   0  0  0  0  0  0  0  0  0  0  0  0
   16.8180   10.7388   -1.5361 H   0  0  0  0  0  0  0  0  0  0  0  0
   16.5102   11.8128    0.9673 O   0  0  0  0  0  0  0  0  0  0  0  0
   14.8731   10.5241    1.9253 N   0  0  0  0  0  0  0  0  0  0  0  0
   15.5386   11.0448    0.8475 C   0  0  0  0  0  0  0  0  0  0  0  0
   14.1120    9.9144    1.7906 H   0  0  0  0  0  0  0  0  0  0  0  0
   14.3971   10.0331    4.7039 C   0  0  0  0  0  0  0  0  0  0  0  0
   16.8132   10.5523    3.6988 O   0  0  0  0  0  0  0  0  0  0  0  0
   15.2914   12.4887    3.6533 O   0  0  0  0  0  0  0  0  0  0  0  0
   15.3893   10.9539    3.5568 S   0  0  0  0  0  0  0  0  0  0  0  0
   10.6619    9.5179   -5.2067 C   0  0  0  0  0  0  0  0  0  0  0  0
   12.1051    9.3949   -5.3175 O   0  0  0  0  0  0  0  0  0  0  0  0
 20 19  1  0  0  0
 18 15  1  0  0  0
 13 11  2  0  0  0
 18 16  2  0  0  0
 18 17  2  0  0  0
  1  6  2  0  0  0
  1  2  1  0  0  0
  2  9  2  0  0  0
  6  3  1  0  0  0
  3  8  2  0  0  0
  8  4  1  0  0  0
  4  7  2  0  0  0
 13 12  1  0  0  0
 12 18  1  0  0  0
  9  5  1  0  0  0
  5  7  1  0  0  0
 20  6  1  0  0  0
  7 13  1  0  0  0
  9  8  1  0  0  0
 12 14  1  0  0  0
  5 10  1  0  0  0
M  END
> <minimizedAffinity>
-8.02424

$$$$
3ISJ_A8D_A_308


 20 21  0  0  0  0  0  0  0  0999 V2000
   13.7029    9.7373   -4.6504 C   0  0  0  0  0  0  0  0  0  0  0  0
   15.0588   10.0148   -4.3970 C   0  0  0  0  0  0  0  0  0  0  0  0
   13.2672    9.9641   -2.2804 C   0  0  0  0  0  0  0  0  0  0  0  0
   15.3242   10.5141   -0.9834 C   0  0  0  0  0  0  0  0  0  0  0  0
   16.7000   10.5463   -2.6963 N   0  0  0  0  0  0  0  0  0  0  0  0
   12.7789    9.7104   -3.5978 C   0  0  0  0  0  0  0  0  0  0  0  0
   16.6071   10.7096   -1.3513 C   0  0  0  0  0  0  0  0  0  0  0  0
   14.6060   10.2111   -2.0866 C   0  0  0  0  0  0  0  0  0  0  0  0
   15.4700   10.2473   -3.1501 C   0  0  0  0  0  0  0  0  0  0  0  0
   17.5171   10.6310   -3.2389 H   0  0  0  0  0  0  0  0  0  0  0  0
   17.8894   12.2385   -0.2493 O   0  0  0  0  0  0  0  0  0  0  0  0
   18.4566   10.0223   -0.0899 N   0  0  0  0  0  0  0  0  0  0  0  0
   17.6799   11.0504   -0.5538 C   0  0  0  0  0  0  0  0  0  0  0  0
   18.2633    9.0949   -0.3581 H   0  0  0  0  0  0  0  0  0  0  0  0
   19.1391   10.9841    2.5173 C   0  0  0  0  0  0  0  0  0  0  0  0
   20.5245    9.0945    1.2417 O   0  0  0  0  0  0  0  0  0  0  0  0
   20.7405   11.3280    0.2258 O   0  0  0  0  0  0  0  0  0  0  0  0
   19.8062   10.3714    0.9917 S   0  0  0  0  0  0  0  0  0  0  0  0
   10.8857    9.6304   -5.2392 C   0  0  0  0  0  0  0  0  0  0  0  0
   11.4950    9.3846   -3.9435 O   0  0  0  0  0  0  0  0  0  0  0  0
 20 19  1  0  0  0
 18 15  1  0  0  0
 13 11  2  0  0  0
 18 16  2  0  0  0
 18 17  2  0  0  0
  1  6  2  0  0  0
  1  2  1  0  0  0
  2  9  2  0  0  0
  6  3  1  0  0  0
  3  8  2  0  0  0
  8  4  1  0  0  0
  4  7  2  0  0  0
 13 12  1  0  0  0
 12 18  1  0  0  0
  9  5  1  0  0  0
  5  7  1  0  0  0
 20  6  1  0  0  0
  7 13  1  0  0  0
  9  8  1  0  0  0
 12 14  1  0  0  0
  5 10  1  0  0  0
M  END
> <minimizedAffinity>
-7.90762

$$$$
3ISJ_A8D_A_308


 20 21  0  0  0  0  0  0  0  0999 V2000
   16.5858   11.6836    2.8180 C   0  0  0  0  0  0  0  0  0  0  0  0
   16.8950   11.5774    1.4495 C   0  0  0  0  0  0  0  0  0  0  0  0
   14.4014   10.7557    2.3435 C   0  0  0  0  0  0  0  0  0  0  0  0
   14.0977   10.2255   -0.0737 C   0  0  0  0  0  0  0  0  0  0  0  0
   16.0884   10.8865   -0.7278 N   0  0  0  0  0  0  0  0  0  0  0  0
   15.3343   11.2711    3.2933 C   0  0  0  0  0  0  0  0  0  0  0  0
   14.9106   10.3527   -1.1425 C   0  0  0  0  0  0  0  0  0  0  0  0
   14.7485   10.6915    1.0144 C   0  0  0  0  0  0  0  0  0  0  0  0
   15.9928   11.0882    0.5982 C   0  0  0  0  0  0  0  0  0  0  0  0
   16.8684   11.0885   -1.2936 H   0  0  0  0  0  0  0  0  0  0  0  0
   15.5783    9.9887   -3.2915 O   0  0  0  0  0  0  0  0  0  0  0  0
   13.3831    9.6034   -2.7518 N   0  0  0  0  0  0  0  0  0  0  0  0
   14.6612    9.9923   -2.4506 C   0  0  0  0  0  0  0  0  0  0  0  0
   12.6823    9.6258   -2.0607 H   0  0  0  0  0  0  0  0  0  0  0  0
   11.2687    9.3290   -4.6603 C   0  0  0  0  0  0  0  0  0  0  0  0
   13.7870    9.8972   -5.3326 O   0  0  0  0  0  0  0  0  0  0  0  0
   13.4880    7.6033   -4.4865 O   0  0  0  0  0  0  0  0  0  0  0  0
   13.0013    9.0621   -4.3871 S   0  0  0  0  0  0  0  0  0  0  0  0
   14.5834   10.4638    5.5448 C   0  0  0  0  0  0  0  0  0  0  0  0
   15.1161   11.4602    4.6315 O   0  0  0  0  0  0  0  0  0  0  0  0
 20 19  1  0  0  0
 18 15  1  0  0  0
 13 11  2  0  0  0
 18 16  2  0  0  0
 18 17  2  0  0  0
  1  6  2  0  0  0
  1  2  1  0  0  0
  2  9  2  0  0  0
  6  3  1  0  0  0
  3  8  2  0  0  0
  8  4  1  0  0  0
  4  7  2  0  0  0
 13 12  1  0  0  0
 12 18  1  0  0  0
  9  5  1  0  0  0
  5  7  1  0  0  0
 20  6  1  0  0  0
  7 13  1  0  0  0
  9  8  1  0  0  0
 12 14  1  0  0  0
  5 10  1  0  0  0
M  END
> <minimizedAffinity>
-7.36849

$$$$
3ISJ_A8D_A_308


 20 21  0  0  0  0  0  0  0  0999 V2000
   15.7923    8.8619    6.9182 C   0  0  0  0  0  0  0  0  0  0  0  0
   16.6758    8.8620    5.8231 C   0  0  0  0  0  0  0  0  0  0  0  0
   14.5104   10.5952    5.8179 C   0  0  0  0  0  0  0  0  0  0  0  0
   15.4739   11.2337    3.6088 C   0  0  0  0  0  0  0  0  0  0  0  0
   17.1701    9.8381    3.6618 N   0  0  0  0  0  0  0  0  0  0  0  0
   14.6895    9.7255    6.9359 C   0  0  0  0  0  0  0  0  0  0  0  0
   16.5518   10.7972    2.9255 C   0  0  0  0  0  0  0  0  0  0  0  0
   15.4149   10.5676    4.7825 C   0  0  0  0  0  0  0  0  0  0  0  0
   16.4685    9.6909    4.7994 C   0  0  0  0  0  0  0  0  0  0  0  0
   17.9822    9.3421    3.4092 H   0  0  0  0  0  0  0  0  0  0  0  0
   16.1882   11.6668    0.8500 O   0  0  0  0  0  0  0  0  0  0  0  0
   18.3280   11.0759    1.4250 N   0  0  0  0  0  0  0  0  0  0  0  0
   16.9870   11.1921    1.6775 C   0  0  0  0  0  0  0  0  0  0  0  0
   18.9283   10.6891    2.1026 H   0  0  0  0  0  0  0  0  0  0  0  0
   18.3804   10.5229   -1.3821 C   0  0  0  0  0  0  0  0  0  0  0  0
   18.4441   12.9911   -0.3719 O   0  0  0  0  0  0  0  0  0  0  0  0
   20.5018   11.7033    0.0460 O   0  0  0  0  0  0  0  0  0  0  0  0
   18.9722   11.6243   -0.1234 S   0  0  0  0  0  0  0  0  0  0  0  0
   13.2250   10.8135    8.6553 C   0  0  0  0  0  0  0  0  0  0  0  0
   13.9192    9.6811    8.0668 O   0  0  0  0  0  0  0  0  0  0  0  0
 20 19  1  0  0  0
 18 15  1  0  0  0
 13 11  2  0  0  0
 18 16  2  0  0  0
 18 17  2  0  0  0
  1  6  2  0  0  0
  1  2  1  0  0  0
  2  9  2  0  0  0
  6  3  1  0  0  0
  3  8  2  0  0  0
  8  4  1  0  0  0
  4  7  2  0  0  0
 13 12  1  0  0  0
 12 18  1  0  0  0
  9  5  1  0  0  0
  5  7  1  0  0  0
 20  6  1  0  0  0
  7 13  1  0  0  0
  9  8  1  0  0  0
 12 14  1  0  0  0
  5 10  1  0  0  0
M  END
> <minimizedAffinity>
-7.27884

$$$$
3ISJ_A8D_A_308


 20 21  0  0  0  0  0  0  0  0999 V2000
   15.3517   10.0887   -3.2222 C   0  0  0  0  0  0  0  0  0  0  0  0
   15.9547   10.2286   -1.9586 C   0  0  0  0  0  0  0  0  0  0  0  0
   13.1912   10.0687   -2.1314 C   0  0  0  0  0  0  0  0  0  0  0  0
   13.3732   10.3017    0.3442 C   0  0  0  0  0  0  0  0  0  0  0  0
   15.5653   10.4281    0.4241 N   0  0  0  0  0  0  0  0  0  0  0  0
   13.9576   10.0100   -3.3345 C   0  0  0  0  0  0  0  0  0  0  0  0
   14.4306   10.4392    1.1702 C   0  0  0  0  0  0  0  0  0  0  0  0
   13.8327   10.1869   -0.9208 C   0  0  0  0  0  0  0  0  0  0  0  0
   15.1989   10.2807   -0.8613 C   0  0  0  0  0  0  0  0  0  0  0  0
   16.4861   10.5125    0.7619 H   0  0  0  0  0  0  0  0  0  0  0  0
   13.8934   11.5975    3.0585 O   0  0  0  0  0  0  0  0  0  0  0  0
   14.9912    9.5967    3.2821 N   0  0  0  0  0  0  0  0  0  0  0  0
   14.4266   10.5999    2.5403 C   0  0  0  0  0  0  0  0  0  0  0  0
   15.4096    8.8254    2.8357 H   0  0  0  0  0  0  0  0  0  0  0  0
   16.4037    8.8637    5.6603 C   0  0  0  0  0  0  0  0  0  0  0  0
   15.0249   11.1341    5.4140 O   0  0  0  0  0  0  0  0  0  0  0  0
   13.6043    9.1233    5.4896 O   0  0  0  0  0  0  0  0  0  0  0  0
   14.9635    9.6962    5.0435 S   0  0  0  0  0  0  0  0  0  0  0  0
   12.1081    9.4611   -4.9353 C   0  0  0  0  0  0  0  0  0  0  0  0
   13.4738    9.8274   -4.6021 O   0  0  0  0  0  0  0  0  0  0  0  0
 20 19  1  0  0  0
 18 15  1  0  0  0
 13 11  2  0  0  0
 18 16  2  0  0  0
 18 17  2  0  0  0
  1  6  2  0  0  0
  1  2  1  0  0  0
  2  9  2  0  0  0
  6  3  1  0  0  0
  3  8  2  0  0  0
  8  4  1  0  0  0
  4  7  2  0  0  0
 13 12  1  0  0  0
 12 18  1  0  0  0
  9  5  1  0  0  0
  5  7  1  0  0  0
 20  6  1  0  0  0
  7 13  1  0  0  0
  9  8  1  0  0  0
 12 14  1  0  0  0
  5 10  1  0  0  0
M  END
> <minimizedAffinity>
-7.27511

$$$$
3ISJ_A8D_A_308


 20 21  0  0  0  0  0  0  0  0999 V2000
   16.6514   10.8149    3.6134 C   0  0  0  0  0  0  0  0  0  0  0  0
   16.7597   10.9364    2.2158 C   0  0  0  0  0  0  0  0  0  0  0  0
   14.3041   10.2950    3.3343 C   0  0  0  0  0  0  0  0  0  0  0  0
   13.6092   10.2894    0.9399 C   0  0  0  0  0  0  0  0  0  0  0  0
   15.5781   10.7948    0.1058 N   0  0  0  0  0  0  0  0  0  0  0  0
   15.4224   10.4878    4.2006 C   0  0  0  0  0  0  0  0  0  0  0  0
   14.2865   10.5128   -0.2049 C   0  0  0  0  0  0  0  0  0  0  0  0
   14.4613   10.4447    1.9764 C   0  0  0  0  0  0  0  0  0  0  0  0
   15.6884   10.7460    1.4450 C   0  0  0  0  0  0  0  0  0  0  0  0
   16.3003   10.9975   -0.5318 H   0  0  0  0  0  0  0  0  0  0  0  0
   13.2844   11.4426   -2.0291 O   0  0  0  0  0  0  0  0  0  0  0  0
   14.0040    9.2699   -2.1696 N   0  0  0  0  0  0  0  0  0  0  0  0
   13.8155   10.4496   -1.5000 C   0  0  0  0  0  0  0  0  0  0  0  0
   14.4227    8.5034   -1.7152 H   0  0  0  0  0  0  0  0  0  0  0  0
   14.6489   10.0338   -4.8508 C   0  0  0  0  0  0  0  0  0  0  0  0
   13.5334    7.6939   -4.2202 O   0  0  0  0  0  0  0  0  0  0  0  0
   12.0296    9.6186   -3.9018 O   0  0  0  0  0  0  0  0  0  0  0  0
   13.4913    9.1333   -3.8523 S   0  0  0  0  0  0  0  0  0  0  0  0
   14.2223   10.3557    6.3977 C   0  0  0  0  0  0  0  0  0  0  0  0
   15.4124   10.4406    5.5688 O   0  0  0  0  0  0  0  0  0  0  0  0
 20 19  1  0  0  0
 18 15  1  0  0  0
 13 11  2  0  0  0
 18 16  2  0  0  0
 18 17  2  0  0  0
  1  6  2  0  0  0
  1  2  1  0  0  0
  2  9  2  0  0  0
  6  3  1  0  0  0
  3  8  2  0  0  0
  8  4  1  0  0  0
  4  7  2  0  0  0
 13 12  1  0  0  0
 12 18  1  0  0  0
  9  5  1  0  0  0
  5  7  1  0  0  0
 20  6  1  0  0  0
  7 13  1  0  0  0
  9  8  1  0  0  0
 12 14  1  0  0  0
  5 10  1  0  0  0
M  END
> <minimizedAffinity>
-6.99799

$$$$
3ISJ_A8D_A_308


 20 21  0  0  0  0  0  0  0  0999 V2000
   15.3500   10.4636   -1.7076 C   0  0  0  0  0  0  0  0  0  0  0  0
   16.0842   10.4161   -0.5082 C   0  0  0  0  0  0  0  0  0  0  0  0
   13.3128   10.4375   -0.4010 C   0  0  0  0  0  0  0  0  0  0  0  0
   13.7564   10.3612    2.0512 C   0  0  0  0  0  0  0  0  0  0  0  0
   15.9490   10.3507    1.9096 N   0  0  0  0  0  0  0  0  0  0  0  0
   13.9496   10.4793   -1.6781 C   0  0  0  0  0  0  0  0  0  0  0  0
   14.8979   10.3375    2.7694 C   0  0  0  0  0  0  0  0  0  0  0  0
   14.0784   10.3726    0.7394 C   0  0  0  0  0  0  0  0  0  0  0  0
   15.4469   10.3797    0.6625 C   0  0  0  0  0  0  0  0  0  0  0  0
   16.9026   10.3408    2.1542 H   0  0  0  0  0  0  0  0  0  0  0  0
   15.4109   11.3580    4.7422 O   0  0  0  0  0  0  0  0  0  0  0  0
   14.7172    9.1729    4.7931 N   0  0  0  0  0  0  0  0  0  0  0  0
   15.0416   10.3329    4.1414 C   0  0  0  0  0  0  0  0  0  0  0  0
   14.4349    8.3798    4.2826 H   0  0  0  0  0  0  0  0  0  0  0  0
   13.7582   10.3843    7.2016 C   0  0  0  0  0  0  0  0  0  0  0  0
   14.2995    7.7812    6.9837 O   0  0  0  0  0  0  0  0  0  0  0  0
   16.3032    9.2122    6.9153 O   0  0  0  0  0  0  0  0  0  0  0  0
   14.8087    9.1097    6.5540 S   0  0  0  0  0  0  0  0  0  0  0  0
   13.4439    9.4290   -3.8975 C   0  0  0  0  0  0  0  0  0  0  0  0
   13.3303   10.4781   -2.8991 O   0  0  0  0  0  0  0  0  0  0  0  0
 20 19  1  0  0  0
 18 15  1  0  0  0
 13 11  2  0  0  0
 18 16  2  0  0  0
 18 17  2  0  0  0
  1  6  2  0  0  0
  1  2  1  0  0  0
  2  9  2  0  0  0
  6  3  1  0  0  0
  3  8  2  0  0  0
  8  4  1  0  0  0
  4  7  2  0  0  0
 13 12  1  0  0  0
 12 18  1  0  0  0
  9  5  1  0  0  0
  5  7  1  0  0  0
 20  6  1  0  0  0
  7 13  1  0  0  0
  9  8  1  0  0  0
 12 14  1  0  0  0
  5 10  1  0  0  0
M  END
> <minimizedAffinity>
-6.82285

$$$$
3ISJ_A8D_A_308


 20 21  0  0  0  0  0  0  0  0999 V2000
   19.8025   11.0241    0.4338 C   0  0  0  0  0  0  0  0  0  0  0  0
   19.1667   10.7077   -0.7809 C   0  0  0  0  0  0  0  0  0  0  0  0
   17.6217   11.3633    1.4272 C   0  0  0  0  0  0  0  0  0  0  0  0
   15.7669   10.9606   -0.1894 C   0  0  0  0  0  0  0  0  0  0  0  0
   17.0375   10.4442   -1.9059 N   0  0  0  0  0  0  0  0  0  0  0  0
   19.0428   11.3543    1.5634 C   0  0  0  0  0  0  0  0  0  0  0  0
   15.7543   10.5913   -1.4866 C   0  0  0  0  0  0  0  0  0  0  0  0
   17.0526   11.0645    0.2116 C   0  0  0  0  0  0  0  0  0  0  0  0
   17.8359   10.7274   -0.8616 C   0  0  0  0  0  0  0  0  0  0  0  0
   17.3295   10.1792   -2.8080 H   0  0  0  0  0  0  0  0  0  0  0  0
   13.6603   11.0919   -2.2356 O   0  0  0  0  0  0  0  0  0  0  0  0
   14.7599    9.3147   -3.1795 N   0  0  0  0  0  0  0  0  0  0  0  0
   14.6616   10.3557   -2.2951 C   0  0  0  0  0  0  0  0  0  0  0  0
   15.5662    8.7499   -3.1927 H   0  0  0  0  0  0  0  0  0  0  0  0
   11.9380    9.6024   -3.5564 C   0  0  0  0  0  0  0  0  0  0  0  0
   13.7058    9.7412   -5.5495 O   0  0  0  0  0  0  0  0  0  0  0  0
   13.4731    7.4820   -4.5959 O   0  0  0  0  0  0  0  0  0  0  0  0
   13.4314    8.9928   -4.2951 S   0  0  0  0  0  0  0  0  0  0  0  0
   20.7924   10.8772    3.2943 C   0  0  0  0  0  0  0  0  0  0  0  0
   19.7576   11.6919    2.6812 O   0  0  0  0  0  0  0  0  0  0  0  0
 20 19  1  0  0  0
 18 15  1  0  0  0
 13 11  2  0  0  0
 18 16  2  0  0  0
 18 17  2  0  0  0
  1  6  2  0  0  0
  1  2  1  0  0  0
  2  9  2  0  0  0
  6  3  1  0  0  0
  3  8  2  0  0  0
  8  4  1  0  0  0
  4  7  2  0  0  0
 13 12  1  0  0  0
 12 18  1  0  0  0
  9  5  1  0  0  0
  5  7  1  0  0  0
 20  6  1  0  0  0
  7 13  1  0  0  0
  9  8  1  0  0  0
 12 14  1  0  0  0
  5 10  1  0  0  0
M  END
> <minimizedAffinity>
-6.36599

$$$$
3ISJ_A8D_A_308


 20 21  0  0  0  0  0  0  0  0999 V2000
   14.3011   10.6094    0.1045 C   0  0  0  0  0  0  0  0  0  0  0  0
   13.6259   10.4526    1.3290 C   0  0  0  0  0  0  0  0  0  0  0  0
   16.3943   10.6222    1.3197 C   0  0  0  0  0  0  0  0  0  0  0  0
   16.0689   10.3588    3.7775 C   0  0  0  0  0  0  0  0  0  0  0  0
   13.8764   10.2254    3.7277 N   0  0  0  0  0  0  0  0  0  0  0  0
   15.6991   10.6933    0.0747 C   0  0  0  0  0  0  0  0  0  0  0  0
   14.9656   10.2085    4.5386 C   0  0  0  0  0  0  0  0  0  0  0  0
   15.6836   10.4876    2.4893 C   0  0  0  0  0  0  0  0  0  0  0  0
   14.3166   10.3894    2.4678 C   0  0  0  0  0  0  0  0  0  0  0  0
   12.9376   10.1344    4.0102 H   0  0  0  0  0  0  0  0  0  0  0  0
   15.8168    9.4765    6.5226 O   0  0  0  0  0  0  0  0  0  0  0  0
   13.7807   10.5314    6.5327 N   0  0  0  0  0  0  0  0  0  0  0  0
   14.8902   10.0312    5.9046 C   0  0  0  0  0  0  0  0  0  0  0  0
   13.0648   10.9584    6.0088 H   0  0  0  0  0  0  0  0  0  0  0  0
   13.2480    8.7220    8.6845 C   0  0  0  0  0  0  0  0  0  0  0  0
   14.9659   10.7547    8.8684 O   0  0  0  0  0  0  0  0  0  0  0  0
   12.6123   11.4657    8.7196 O   0  0  0  0  0  0  0  0  0  0  0  0
   13.6434   10.4053    8.2872 S   0  0  0  0  0  0  0  0  0  0  0  0
   17.6792   10.9751   -1.4368 C   0  0  0  0  0  0  0  0  0  0  0  0
   16.2554   10.8926   -1.1602 O   0  0  0  0  0  0  0  0  0  0  0  0
 20 19  1  0  0  0
 18 15  1  0  0  0
 13 11  2  0  0  0
 18 16  2  0  0  0
 18 17  2  0  0  0
  1  6  2  0  0  0
  1  2  1  0  0  0
  2  9  2  0  0  0
  6  3  1  0  0  0
  3  8  2  0  0  0
  8  4  1  0  0  0
  4  7  2  0  0  0
 13 12  1  0  0  0
 12 18  1  0  0  0
  9  5  1  0  0  0
  5  7  1  0  0  0
 20  6  1  0  0  0
  7 13  1  0  0  0
  9  8  1  0  0  0
 12 14  1  0  0  0
  5 10  1  0  0  0
M  END
> <minimizedAffinity>
-6.13443

$$$$
