5YHG_8UX_A_608


 29 29  0  0  0  0  0  0  0  0999 V2000
  106.4037   18.7958   51.4563 C   0  0  0  0  0  0  0  0  0  0  0  0
  106.9299   18.3964   50.1590 N   0  0  0  0  0  0  0  0  0  0  0  0
  106.2124   18.5740   49.4561 H   0  0  0  0  0  0  0  0  0  0  0  0
  107.3250   16.9698   50.0671 C   0  0  0  0  0  0  0  0  0  0  0  0
  106.2100   15.8818   49.9816 C   0  0  0  0  0  0  0  0  0  0  0  0
  105.0916   16.3224   49.5003 O   0  0  0  0  0  0  0  0  0  0  0  0
  106.4822   14.6450   50.2939 O   0  0  0  0  0  0  0  0  0  0  0  0
  104.9915   17.2336   49.3066 H   0  0  0  0  0  0  0  0  0  0  0  0
  108.4180   16.8282   49.0382 C   0  0  0  0  0  0  0  0  0  0  0  0
  107.9946   17.4549   47.7601 C   0  0  0  0  0  0  0  0  0  0  0  0
  108.8771   17.8746   46.9174 C   0  0  0  0  0  0  0  0  0  0  0  0
  108.2279   18.4173   45.9047 N   0  0  0  0  0  0  0  0  0  0  0  0
  106.9444   18.3229   46.1194 C   0  0  0  0  0  0  0  0  0  0  0  0
  106.7740   17.7367   47.2916 N   0  0  0  0  0  0  0  0  0  0  0  0
  108.6455   18.8279   45.1134 H   0  0  0  0  0  0  0  0  0  0  0  0
  106.0314   20.2713   51.5170 C   0  0  0  0  0  0  0  0  0  0  0  0
  104.8424   20.6027   50.6427 C   0  0  0  0  0  0  0  0  0  0  0  0
  105.4072   21.4159   49.4713 C   0  0  0  0  0  0  0  0  0  0  0  0
  105.5857   22.6628   49.5992 O   0  0  0  0  0  0  0  0  0  0  0  0
  105.6565   20.7663   48.4670 O   0  0  0  0  0  0  0  0  0  0  0  0
  105.3679   23.0870   50.4057 H   0  0  0  0  0  0  0  0  0  0  0  0
  104.0034   19.3839   50.2148 N   0  0  0  0  0  0  0  0  0  0  0  0
  104.0405   18.7421   51.0066 H   0  0  0  0  0  0  0  0  0  0  0  0
  102.6028   19.4091   49.8079 C   0  0  0  0  0  0  0  0  0  0  0  0
  101.9924   20.8427   49.5752 C   0  0  0  0  0  0  0  0  0  0  0  0
  102.8021   17.3763   48.5391 O   0  0  0  0  0  0  0  0  0  0  0  0
  102.4163   18.5647   48.5628 C   0  0  0  0  0  0  0  0  0  0  0  0
  101.9434   19.1805   47.6066 O   0  0  0  0  0  0  0  0  0  0  0  0
  103.1510   16.9813   49.3139 H   0  0  0  0  0  0  0  0  0  0  0  0
 11 12  1  0  0  0
 11 10  2  0  0  0
  9 10  1  0  0  0
  9  4  1  0  0  0
 12 13  1  0  0  0
 10 14  1  0  0  0
  4  2  1  0  0  0
  4  5  1  0  0  0
 13 14  2  0  0  0
  2  1  1  0  0  0
  7  5  2  0  0  0
  5  6  1  0  0  0
  1 16  1  0  0  0
 20 18  2  0  0  0
 16 17  1  0  0  0
 19 18  1  0  0  0
 18 17  1  0  0  0
 17 22  1  0  0  0
 28 27  2  0  0  0
 22 24  1  0  0  0
 27 24  1  0  0  0
 27 26  1  0  0  0
 24 25  1  0  0  0
 26 29  1  0  0  0
 22 23  1  0  0  0
 19 21  1  0  0  0
  2  3  1  0  0  0
  6  8  1  0  0  0
 12 15  1  0  0  0
M  END
> <minimizedAffinity>
-8.18486

$$$$
5YHG_8UX_A_608


 29 29  0  0  0  0  0  0  0  0999 V2000
  106.4520   19.0912   51.1386 C   0  0  0  0  0  0  0  0  0  0  0  0
  105.0464   19.3087   50.8283 N   0  0  0  0  0  0  0  0  0  0  0  0
  104.8275   18.8013   49.9710 H   0  0  0  0  0  0  0  0  0  0  0  0
  104.6714   20.7304   50.6334 C   0  0  0  0  0  0  0  0  0  0  0  0
  105.5083   21.6034   49.6477 C   0  0  0  0  0  0  0  0  0  0  0  0
  105.8407   20.9838   48.5604 O   0  0  0  0  0  0  0  0  0  0  0  0
  105.7308   22.8596   49.9192 O   0  0  0  0  0  0  0  0  0  0  0  0
  105.6363   20.0752   48.4578 H   0  0  0  0  0  0  0  0  0  0  0  0
  103.1791   20.8224   50.4387 C   0  0  0  0  0  0  0  0  0  0  0  0
  102.7441   19.8586   49.3958 C   0  0  0  0  0  0  0  0  0  0  0  0
  101.7677   19.0470   49.6263 C   0  0  0  0  0  0  0  0  0  0  0  0
  101.6267   18.2866   48.5570 N   0  0  0  0  0  0  0  0  0  0  0  0
  102.5106   18.6368   47.6634 C   0  0  0  0  0  0  0  0  0  0  0  0
  103.2383   19.6130   48.1775 N   0  0  0  0  0  0  0  0  0  0  0  0
  100.9608   17.5694   48.4505 H   0  0  0  0  0  0  0  0  0  0  0  0
  106.8435   17.6196   51.1179 C   0  0  0  0  0  0  0  0  0  0  0  0
  107.1819   17.1321   49.7266 C   0  0  0  0  0  0  0  0  0  0  0  0
  106.3007   15.8978   49.4976 C   0  0  0  0  0  0  0  0  0  0  0  0
  105.4446   15.9002   48.5649 O   0  0  0  0  0  0  0  0  0  0  0  0
  106.5085   14.9683   50.2627 O   0  0  0  0  0  0  0  0  0  0  0  0
  105.3471   16.6565   48.0203 H   0  0  0  0  0  0  0  0  0  0  0  0
  107.0613   18.2033   48.6264 N   0  0  0  0  0  0  0  0  0  0  0  0
  107.1980   19.0941   49.1040 H   0  0  0  0  0  0  0  0  0  0  0  0
  107.8767   18.2867   47.4198 C   0  0  0  0  0  0  0  0  0  0  0  0
  109.0122   17.2019   47.2953 C   0  0  0  0  0  0  0  0  0  0  0  0
  107.3778   18.7070   45.1054 O   0  0  0  0  0  0  0  0  0  0  0  0
  106.9849   18.2376   46.1950 C   0  0  0  0  0  0  0  0  0  0  0  0
  105.8611   17.7825   46.4120 O   0  0  0  0  0  0  0  0  0  0  0  0
  108.2520   19.0342   45.0242 H   0  0  0  0  0  0  0  0  0  0  0  0
 11 12  1  0  0  0
 11 10  2  0  0  0
  9 10  1  0  0  0
  9  4  1  0  0  0
 12 13  1  0  0  0
 10 14  1  0  0  0
  4  2  1  0  0  0
  4  5  1  0  0  0
 13 14  2  0  0  0
  2  1  1  0  0  0
  7  5  2  0  0  0
  5  6  1  0  0  0
  1 16  1  0  0  0
 20 18  2  0  0  0
 16 17  1  0  0  0
 19 18  1  0  0  0
 18 17  1  0  0  0
 17 22  1  0  0  0
 28 27  2  0  0  0
 22 24  1  0  0  0
 27 24  1  0  0  0
 27 26  1  0  0  0
 24 25  1  0  0  0
 26 29  1  0  0  0
 22 23  1  0  0  0
 19 21  1  0  0  0
  2  3  1  0  0  0
  6  8  1  0  0  0
 12 15  1  0  0  0
M  END
> <minimizedAffinity>
-7.76777

$$$$
5YHG_8UX_A_608


 29 29  0  0  0  0  0  0  0  0999 V2000
  106.1150   19.0619   51.5029 C   0  0  0  0  0  0  0  0  0  0  0  0
  104.8946   19.3181   50.7516 N   0  0  0  0  0  0  0  0  0  0  0  0
  105.0681   19.0859   49.7736 H   0  0  0  0  0  0  0  0  0  0  0  0
  104.4142   20.7198   50.8163 C   0  0  0  0  0  0  0  0  0  0  0  0
  105.2755   21.8439   50.1615 C   0  0  0  0  0  0  0  0  0  0  0  0
  105.7132   21.5406   48.9813 O   0  0  0  0  0  0  0  0  0  0  0  0
  105.4174   22.9908   50.7664 O   0  0  0  0  0  0  0  0  0  0  0  0
  105.5606   20.6852   48.6305 H   0  0  0  0  0  0  0  0  0  0  0  0
  102.9527   20.7556   50.4471 C   0  0  0  0  0  0  0  0  0  0  0  0
  102.6935   19.8293   49.3156 C   0  0  0  0  0  0  0  0  0  0  0  0
  101.7888   18.9149   49.4172 C   0  0  0  0  0  0  0  0  0  0  0  0
  101.8029   18.2203   48.2952 N   0  0  0  0  0  0  0  0  0  0  0  0
  102.7104   18.7136   47.4981 C   0  0  0  0  0  0  0  0  0  0  0  0
  103.2975   19.7165   48.1275 N   0  0  0  0  0  0  0  0  0  0  0  0
  101.2214   17.4523   48.0921 H   0  0  0  0  0  0  0  0  0  0  0  0
  107.2744   18.6211   50.6192 C   0  0  0  0  0  0  0  0  0  0  0  0
  107.0304   17.2735   49.9770 C   0  0  0  0  0  0  0  0  0  0  0  0
  107.7483   17.3273   48.6227 C   0  0  0  0  0  0  0  0  0  0  0  0
  108.9907   17.5670   48.5782 O   0  0  0  0  0  0  0  0  0  0  0  0
  107.0342   17.1193   47.6533 O   0  0  0  0  0  0  0  0  0  0  0  0
  109.4677   17.7162   49.3708 H   0  0  0  0  0  0  0  0  0  0  0  0
  107.4255   16.0677   50.8502 N   0  0  0  0  0  0  0  0  0  0  0  0
  106.5441   15.6839   51.1911 H   0  0  0  0  0  0  0  0  0  0  0  0
  108.2026   14.9129   50.4139 C   0  0  0  0  0  0  0  0  0  0  0  0
  109.3404   14.4520   51.4012 C   0  0  0  0  0  0  0  0  0  0  0  0
  106.6911   13.1570   51.0577 O   0  0  0  0  0  0  0  0  0  0  0  0
  107.2735   13.7505   50.1247 C   0  0  0  0  0  0  0  0  0  0  0  0
  107.2309   13.4273   48.9368 O   0  0  0  0  0  0  0  0  0  0  0  0
  106.7759   13.4695   51.9370 H   0  0  0  0  0  0  0  0  0  0  0  0
 11 12  1  0  0  0
 11 10  2  0  0  0
  9 10  1  0  0  0
  9  4  1  0  0  0
 12 13  1  0  0  0
 10 14  1  0  0  0
  4  2  1  0  0  0
  4  5  1  0  0  0
 13 14  2  0  0  0
  2  1  1  0  0  0
  7  5  2  0  0  0
  5  6  1  0  0  0
  1 16  1  0  0  0
 20 18  2  0  0  0
 16 17  1  0  0  0
 19 18  1  0  0  0
 18 17  1  0  0  0
 17 22  1  0  0  0
 28 27  2  0  0  0
 22 24  1  0  0  0
 27 24  1  0  0  0
 27 26  1  0  0  0
 24 25  1  0  0  0
 26 29  1  0  0  0
 22 23  1  0  0  0
 19 21  1  0  0  0
  2  3  1  0  0  0
  6  8  1  0  0  0
 12 15  1  0  0  0
M  END
> <minimizedAffinity>
-7.64934

$$$$
5YHG_8UX_A_608


 29 29  0  0  0  0  0  0  0  0999 V2000
  106.8740   19.2987   50.9208 C   0  0  0  0  0  0  0  0  0  0  0  0
  106.7429   17.8510   51.0002 N   0  0  0  0  0  0  0  0  0  0  0  0
  107.5751   17.4806   51.4591 H   0  0  0  0  0  0  0  0  0  0  0  0
  106.5964   17.1728   49.6893 C   0  0  0  0  0  0  0  0  0  0  0  0
  107.6641   17.4327   48.5817 C   0  0  0  0  0  0  0  0  0  0  0  0
  108.8818   17.4182   49.0218 O   0  0  0  0  0  0  0  0  0  0  0  0
  107.2946   17.5492   47.3363 O   0  0  0  0  0  0  0  0  0  0  0  0
  109.0471   17.3297   49.9398 H   0  0  0  0  0  0  0  0  0  0  0  0
  106.2771   15.7178   49.9221 C   0  0  0  0  0  0  0  0  0  0  0  0
  107.5283   14.9592   50.1764 C   0  0  0  0  0  0  0  0  0  0  0  0
  107.8150   13.9202   49.4670 C   0  0  0  0  0  0  0  0  0  0  0  0
  108.9464   13.4254   49.9323 N   0  0  0  0  0  0  0  0  0  0  0  0
  109.3620   14.1661   50.9228 C   0  0  0  0  0  0  0  0  0  0  0  0
  108.4742   15.1277   51.1068 N   0  0  0  0  0  0  0  0  0  0  0  0
  109.4041   12.6250   49.5871 H   0  0  0  0  0  0  0  0  0  0  0  0
  105.8475   20.0351   51.7714 C   0  0  0  0  0  0  0  0  0  0  0  0
  104.7353   20.6368   50.9414 C   0  0  0  0  0  0  0  0  0  0  0  0
  105.3394   21.8860   50.2881 C   0  0  0  0  0  0  0  0  0  0  0  0
  105.4654   22.9502   50.9622 O   0  0  0  0  0  0  0  0  0  0  0  0
  105.6710   21.7464   49.1204 O   0  0  0  0  0  0  0  0  0  0  0  0
  105.1850   22.9746   51.8559 H   0  0  0  0  0  0  0  0  0  0  0  0
  104.0805   19.6610   49.9457 N   0  0  0  0  0  0  0  0  0  0  0  0
  104.4380   18.7399   50.1991 H   0  0  0  0  0  0  0  0  0  0  0  0
  102.6475   19.4741   49.7471 C   0  0  0  0  0  0  0  0  0  0  0  0
  101.8461   20.7698   49.3465 C   0  0  0  0  0  0  0  0  0  0  0  0
  102.9320   17.2592   48.8551 O   0  0  0  0  0  0  0  0  0  0  0  0
  102.4110   18.3868   48.7175 C   0  0  0  0  0  0  0  0  0  0  0  0
  101.7516   18.7541   47.7441 O   0  0  0  0  0  0  0  0  0  0  0  0
  103.4199   17.0599   49.6298 H   0  0  0  0  0  0  0  0  0  0  0  0
 11 12  1  0  0  0
 11 10  2  0  0  0
  9 10  1  0  0  0
  9  4  1  0  0  0
 12 13  1  0  0  0
 10 14  1  0  0  0
  4  2  1  0  0  0
  4  5  1  0  0  0
 13 14  2  0  0  0
  2  1  1  0  0  0
  7  5  2  0  0  0
  5  6  1  0  0  0
  1 16  1  0  0  0
 20 18  2  0  0  0
 16 17  1  0  0  0
 19 18  1  0  0  0
 18 17  1  0  0  0
 17 22  1  0  0  0
 28 27  2  0  0  0
 22 24  1  0  0  0
 27 24  1  0  0  0
 27 26  1  0  0  0
 24 25  1  0  0  0
 26 29  1  0  0  0
 22 23  1  0  0  0
 19 21  1  0  0  0
  2  3  1  0  0  0
  6  8  1  0  0  0
 12 15  1  0  0  0
M  END
> <minimizedAffinity>
-7.27689

$$$$
5YHG_8UX_A_608


 29 29  0  0  0  0  0  0  0  0999 V2000
  105.3187   17.9935   45.7318 C   0  0  0  0  0  0  0  0  0  0  0  0
  106.3994   18.6122   46.4857 N   0  0  0  0  0  0  0  0  0  0  0  0
  106.4386   19.5999   46.2339 H   0  0  0  0  0  0  0  0  0  0  0  0
  107.7373   18.0194   46.2439 C   0  0  0  0  0  0  0  0  0  0  0  0
  108.5560   18.4861   45.0005 C   0  0  0  0  0  0  0  0  0  0  0  0
  108.5737   19.7714   44.8440 O   0  0  0  0  0  0  0  0  0  0  0  0
  109.2126   17.6126   44.2884 O   0  0  0  0  0  0  0  0  0  0  0  0
  108.0652   20.3192   45.4090 H   0  0  0  0  0  0  0  0  0  0  0  0
  108.5124   18.0124   47.5372 C   0  0  0  0  0  0  0  0  0  0  0  0
  107.7043   17.3761   48.6085 C   0  0  0  0  0  0  0  0  0  0  0  0
  107.7753   17.8097   49.8217 C   0  0  0  0  0  0  0  0  0  0  0  0
  106.9954   17.0431   50.5603 N   0  0  0  0  0  0  0  0  0  0  0  0
  106.4360   16.1427   49.7995 C   0  0  0  0  0  0  0  0  0  0  0  0
  106.8827   16.3215   48.5686 N   0  0  0  0  0  0  0  0  0  0  0  0
  106.8577   17.1357   51.5307 H   0  0  0  0  0  0  0  0  0  0  0  0
  103.9502   18.5646   46.0791 C   0  0  0  0  0  0  0  0  0  0  0  0
  103.0030   17.5112   46.6093 C   0  0  0  0  0  0  0  0  0  0  0  0
  102.4568   18.0750   47.9269 C   0  0  0  0  0  0  0  0  0  0  0  0
  102.7536   17.5141   49.0225 O   0  0  0  0  0  0  0  0  0  0  0  0
  101.7536   19.0672   47.8096 O   0  0  0  0  0  0  0  0  0  0  0  0
  103.3010   16.7536   49.0262 H   0  0  0  0  0  0  0  0  0  0  0  0
  101.9128   17.0717   45.6139 N   0  0  0  0  0  0  0  0  0  0  0  0
  101.7745   17.8726   44.9976 H   0  0  0  0  0  0  0  0  0  0  0  0
  101.9783   15.9142   44.7286 C   0  0  0  0  0  0  0  0  0  0  0  0
  102.9380   16.0656   43.4885 C   0  0  0  0  0  0  0  0  0  0  0  0
  101.4814   13.8920   45.9310 O   0  0  0  0  0  0  0  0  0  0  0  0
  102.3604   14.6820   45.5246 C   0  0  0  0  0  0  0  0  0  0  0  0
  103.5630   14.6037   45.7792 O   0  0  0  0  0  0  0  0  0  0  0  0
  100.5855   14.0236   45.6900 H   0  0  0  0  0  0  0  0  0  0  0  0
 11 12  1  0  0  0
 11 10  2  0  0  0
  9 10  1  0  0  0
  9  4  1  0  0  0
 12 13  1  0  0  0
 10 14  1  0  0  0
  4  2  1  0  0  0
  4  5  1  0  0  0
 13 14  2  0  0  0
  2  1  1  0  0  0
  7  5  2  0  0  0
  5  6  1  0  0  0
  1 16  1  0  0  0
 20 18  2  0  0  0
 16 17  1  0  0  0
 19 18  1  0  0  0
 18 17  1  0  0  0
 17 22  1  0  0  0
 28 27  2  0  0  0
 22 24  1  0  0  0
 27 24  1  0  0  0
 27 26  1  0  0  0
 24 25  1  0  0  0
 26 29  1  0  0  0
 22 23  1  0  0  0
 19 21  1  0  0  0
  2  3  1  0  0  0
  6  8  1  0  0  0
 12 15  1  0  0  0
M  END
> <minimizedAffinity>
-7.13730

$$$$
5YHG_8UX_A_608


 29 29  0  0  0  0  0  0  0  0999 V2000
  105.3774   18.2827   45.7427 C   0  0  0  0  0  0  0  0  0  0  0  0
  106.4904   18.6941   46.5860 N   0  0  0  0  0  0  0  0  0  0  0  0
  106.6211   19.6993   46.4728 H   0  0  0  0  0  0  0  0  0  0  0  0
  107.7768   18.0225   46.2793 C   0  0  0  0  0  0  0  0  0  0  0  0
  108.5931   18.4882   45.0340 C   0  0  0  0  0  0  0  0  0  0  0  0
  108.6392   19.7748   44.8957 O   0  0  0  0  0  0  0  0  0  0  0  0
  109.2216   17.6102   44.3023 O   0  0  0  0  0  0  0  0  0  0  0  0
  108.1496   20.3260   45.4741 H   0  0  0  0  0  0  0  0  0  0  0  0
  108.5833   17.9033   47.5477 C   0  0  0  0  0  0  0  0  0  0  0  0
  107.7487   17.3128   48.6248 C   0  0  0  0  0  0  0  0  0  0  0  0
  107.8177   17.7734   49.8282 C   0  0  0  0  0  0  0  0  0  0  0  0
  107.0116   17.0439   50.5761 N   0  0  0  0  0  0  0  0  0  0  0  0
  106.4381   16.1395   49.8308 C   0  0  0  0  0  0  0  0  0  0  0  0
  106.9019   16.2778   48.6010 N   0  0  0  0  0  0  0  0  0  0  0  0
  106.8661   17.1632   51.5425 H   0  0  0  0  0  0  0  0  0  0  0  0
  104.3562   17.4287   46.4826 C   0  0  0  0  0  0  0  0  0  0  0  0
  102.9849   18.0663   46.5135 C   0  0  0  0  0  0  0  0  0  0  0  0
  102.0855   17.1479   45.6769 C   0  0  0  0  0  0  0  0  0  0  0  0
  101.9318   15.9380   46.0168 O   0  0  0  0  0  0  0  0  0  0  0  0
  101.5614   17.6819   44.7110 O   0  0  0  0  0  0  0  0  0  0  0  0
  102.3711   15.6048   46.7743 H   0  0  0  0  0  0  0  0  0  0  0  0
  102.4459   18.3562   47.9269 N   0  0  0  0  0  0  0  0  0  0  0  0
  103.0233   17.7958   48.5537 H   0  0  0  0  0  0  0  0  0  0  0  0
  102.3591   19.6687   48.5575 C   0  0  0  0  0  0  0  0  0  0  0  0
  101.2989   19.7930   49.7160 C   0  0  0  0  0  0  0  0  0  0  0  0
  104.5663   20.5848   48.2901 O   0  0  0  0  0  0  0  0  0  0  0  0
  103.7254   20.0831   49.0668 C   0  0  0  0  0  0  0  0  0  0  0  0
  103.9243   19.8041   50.2499 O   0  0  0  0  0  0  0  0  0  0  0  0
  104.3328   20.7669   47.4011 H   0  0  0  0  0  0  0  0  0  0  0  0
 11 12  1  0  0  0
 11 10  2  0  0  0
  9 10  1  0  0  0
  9  4  1  0  0  0
 12 13  1  0  0  0
 10 14  1  0  0  0
  4  2  1  0  0  0
  4  5  1  0  0  0
 13 14  2  0  0  0
  2  1  1  0  0  0
  7  5  2  0  0  0
  5  6  1  0  0  0
  1 16  1  0  0  0
 20 18  2  0  0  0
 16 17  1  0  0  0
 19 18  1  0  0  0
 18 17  1  0  0  0
 17 22  1  0  0  0
 28 27  2  0  0  0
 22 24  1  0  0  0
 27 24  1  0  0  0
 27 26  1  0  0  0
 24 25  1  0  0  0
 26 29  1  0  0  0
 22 23  1  0  0  0
 19 21  1  0  0  0
  2  3  1  0  0  0
  6  8  1  0  0  0
 12 15  1  0  0  0
M  END
> <minimizedAffinity>
-6.78782

$$$$
5YHG_8UX_A_608


 29 29  0  0  0  0  0  0  0  0999 V2000
  108.7264   17.2042   47.6873 C   0  0  0  0  0  0  0  0  0  0  0  0
  108.0413   16.0825   48.3132 N   0  0  0  0  0  0  0  0  0  0  0  0
  107.1710   15.9185   47.8071 H   0  0  0  0  0  0  0  0  0  0  0  0
  107.7133   16.2827   49.7457 C   0  0  0  0  0  0  0  0  0  0  0  0
  106.2517   16.6608   50.1395 C   0  0  0  0  0  0  0  0  0  0  0  0
  106.1640   17.7683   50.8046 O   0  0  0  0  0  0  0  0  0  0  0  0
  105.2553   15.9311   49.7202 O   0  0  0  0  0  0  0  0  0  0  0  0
  106.9417   18.2226   51.0628 H   0  0  0  0  0  0  0  0  0  0  0  0
  108.3050   15.1513   50.5477 C   0  0  0  0  0  0  0  0  0  0  0  0
  108.2189   13.8849   49.7768 C   0  0  0  0  0  0  0  0  0  0  0  0
  109.1710   13.0165   49.8435 C   0  0  0  0  0  0  0  0  0  0  0  0
  108.8543   12.0220   49.0359 N   0  0  0  0  0  0  0  0  0  0  0  0
  107.7015   12.2736   48.4789 C   0  0  0  0  0  0  0  0  0  0  0  0
  107.2912   13.4512   48.9166 N   0  0  0  0  0  0  0  0  0  0  0  0
  109.4007   11.2183   48.8787 H   0  0  0  0  0  0  0  0  0  0  0  0
  107.8971   18.4816   47.6885 C   0  0  0  0  0  0  0  0  0  0  0  0
  107.1265   18.6705   46.4007 C   0  0  0  0  0  0  0  0  0  0  0  0
  108.1876   18.7794   45.2987 C   0  0  0  0  0  0  0  0  0  0  0  0
  109.0275   19.7264   45.3252 O   0  0  0  0  0  0  0  0  0  0  0  0
  108.1396   17.9019   44.4498 O   0  0  0  0  0  0  0  0  0  0  0  0
  108.9962   20.3611   46.0138 H   0  0  0  0  0  0  0  0  0  0  0  0
  106.0522   17.5991   46.1350 N   0  0  0  0  0  0  0  0  0  0  0  0
  106.0703   16.9927   46.9550 H   0  0  0  0  0  0  0  0  0  0  0  0
  104.6388   17.8500   45.8756 C   0  0  0  0  0  0  0  0  0  0  0  0
  104.2139   17.8169   44.3590 C   0  0  0  0  0  0  0  0  0  0  0  0
  103.2635   17.2189   47.7445 O   0  0  0  0  0  0  0  0  0  0  0  0
  103.7920   16.8724   46.6662 C   0  0  0  0  0  0  0  0  0  0  0  0
  103.7597   15.7376   46.1882 O   0  0  0  0  0  0  0  0  0  0  0  0
  103.3353   18.1059   48.0376 H   0  0  0  0  0  0  0  0  0  0  0  0
 11 12  1  0  0  0
 11 10  2  0  0  0
  9 10  1  0  0  0
  9  4  1  0  0  0
 12 13  1  0  0  0
 10 14  1  0  0  0
  4  2  1  0  0  0
  4  5  1  0  0  0
 13 14  2  0  0  0
  2  1  1  0  0  0
  7  5  2  0  0  0
  5  6  1  0  0  0
  1 16  1  0  0  0
 20 18  2  0  0  0
 16 17  1  0  0  0
 19 18  1  0  0  0
 18 17  1  0  0  0
 17 22  1  0  0  0
 28 27  2  0  0  0
 22 24  1  0  0  0
 27 24  1  0  0  0
 27 26  1  0  0  0
 24 25  1  0  0  0
 26 29  1  0  0  0
 22 23  1  0  0  0
 19 21  1  0  0  0
  2  3  1  0  0  0
  6  8  1  0  0  0
 12 15  1  0  0  0
M  END
> <minimizedAffinity>
-6.71537

$$$$
5YHG_8UX_A_608


 29 29  0  0  0  0  0  0  0  0999 V2000
  102.3516   18.2503   47.9643 C   0  0  0  0  0  0  0  0  0  0  0  0
  103.0920   17.1233   47.4159 N   0  0  0  0  0  0  0  0  0  0  0  0
  103.9922   17.0714   47.8927 H   0  0  0  0  0  0  0  0  0  0  0  0
  103.3450   17.2038   45.9567 C   0  0  0  0  0  0  0  0  0  0  0  0
  104.7636   17.6203   45.4585 C   0  0  0  0  0  0  0  0  0  0  0  0
  104.8032   17.9225   44.2000 O   0  0  0  0  0  0  0  0  0  0  0  0
  105.7475   17.7234   46.3085 O   0  0  0  0  0  0  0  0  0  0  0  0
  104.0399   17.8132   43.6677 H   0  0  0  0  0  0  0  0  0  0  0  0
  102.7850   15.9715   45.2924 C   0  0  0  0  0  0  0  0  0  0  0  0
  101.7649   16.3585   44.2849 C   0  0  0  0  0  0  0  0  0  0  0  0
  101.3401   17.5754   44.2231 C   0  0  0  0  0  0  0  0  0  0  0  0
  100.4199   17.6239   43.2785 N   0  0  0  0  0  0  0  0  0  0  0  0
  100.2848   16.4381   42.7514 C   0  0  0  0  0  0  0  0  0  0  0  0
  101.1090   15.6203   43.3828 N   0  0  0  0  0  0  0  0  0  0  0  0
   99.9156   18.4270   43.0137 H   0  0  0  0  0  0  0  0  0  0  0  0
  103.1310   19.5575   47.9055 C   0  0  0  0  0  0  0  0  0  0  0  0
  103.0777   20.3202   49.2107 C   0  0  0  0  0  0  0  0  0  0  0  0
  101.6003   20.3278   49.6225 C   0  0  0  0  0  0  0  0  0  0  0  0
  101.2337   19.7054   50.6622 O   0  0  0  0  0  0  0  0  0  0  0  0
  100.8642   20.9668   48.8858 O   0  0  0  0  0  0  0  0  0  0  0  0
  101.8633   19.2375   51.1747 H   0  0  0  0  0  0  0  0  0  0  0  0
  104.0308   19.7925   50.2995 N   0  0  0  0  0  0  0  0  0  0  0  0
  104.6132   19.0980   49.8317 H   0  0  0  0  0  0  0  0  0  0  0  0
  104.9552   20.5967   51.0910 C   0  0  0  0  0  0  0  0  0  0  0  0
  106.2099   19.8273   51.6527 C   0  0  0  0  0  0  0  0  0  0  0  0
  105.9724   21.6422   49.1794 O   0  0  0  0  0  0  0  0  0  0  0  0
  105.4093   21.7971   50.2843 C   0  0  0  0  0  0  0  0  0  0  0  0
  105.2419   22.8759   50.8548 O   0  0  0  0  0  0  0  0  0  0  0  0
  106.0590   20.7838   48.8139 H   0  0  0  0  0  0  0  0  0  0  0  0
 11 12  1  0  0  0
 11 10  2  0  0  0
  9 10  1  0  0  0
  9  4  1  0  0  0
 12 13  1  0  0  0
 10 14  1  0  0  0
  4  2  1  0  0  0
  4  5  1  0  0  0
 13 14  2  0  0  0
  2  1  1  0  0  0
  7  5  2  0  0  0
  5  6  1  0  0  0
  1 16  1  0  0  0
 20 18  2  0  0  0
 16 17  1  0  0  0
 19 18  1  0  0  0
 18 17  1  0  0  0
 17 22  1  0  0  0
 28 27  2  0  0  0
 22 24  1  0  0  0
 27 24  1  0  0  0
 27 26  1  0  0  0
 24 25  1  0  0  0
 26 29  1  0  0  0
 22 23  1  0  0  0
 19 21  1  0  0  0
  2  3  1  0  0  0
  6  8  1  0  0  0
 12 15  1  0  0  0
M  END
> <minimizedAffinity>
-6.26824

$$$$
5YHG_8UX_A_608


 29 29  0  0  0  0  0  0  0  0999 V2000
  106.5907   18.6941   51.5793 C   0  0  0  0  0  0  0  0  0  0  0  0
  107.1599   18.1176   50.3699 N   0  0  0  0  0  0  0  0  0  0  0  0
  106.6797   18.5238   49.5669 H   0  0  0  0  0  0  0  0  0  0  0  0
  107.0469   16.6415   50.2788 C   0  0  0  0  0  0  0  0  0  0  0  0
  105.8450   16.0234   49.4992 C   0  0  0  0  0  0  0  0  0  0  0  0
  105.0976   15.2536   50.2242 O   0  0  0  0  0  0  0  0  0  0  0  0
  105.6238   16.3715   48.2618 O   0  0  0  0  0  0  0  0  0  0  0  0
  105.3419   15.0607   51.1079 H   0  0  0  0  0  0  0  0  0  0  0  0
  108.3922   16.0675   49.9127 C   0  0  0  0  0  0  0  0  0  0  0  0
  108.3162   14.5849   49.8720 C   0  0  0  0  0  0  0  0  0  0  0  0
  108.5687   13.8910   50.9301 C   0  0  0  0  0  0  0  0  0  0  0  0
  108.4688   12.6175   50.5992 N   0  0  0  0  0  0  0  0  0  0  0  0
  108.1448   12.5271   49.3385 C   0  0  0  0  0  0  0  0  0  0  0  0
  108.0617   13.7544   48.8550 N   0  0  0  0  0  0  0  0  0  0  0  0
  108.6153   11.8567   51.2067 H   0  0  0  0  0  0  0  0  0  0  0  0
  106.4472   20.2085   51.5042 C   0  0  0  0  0  0  0  0  0  0  0  0
  105.1854   20.6335   50.7864 C   0  0  0  0  0  0  0  0  0  0  0  0
  105.6571   21.3464   49.5129 C   0  0  0  0  0  0  0  0  0  0  0  0
  105.5120   22.5992   49.4026 O   0  0  0  0  0  0  0  0  0  0  0  0
  106.1627   20.6175   48.6727 O   0  0  0  0  0  0  0  0  0  0  0  0
  105.1127   23.0874   50.0956 H   0  0  0  0  0  0  0  0  0  0  0  0
  104.1790   19.4954   50.5334 N   0  0  0  0  0  0  0  0  0  0  0  0
  103.6360   19.4221   51.3937 H   0  0  0  0  0  0  0  0  0  0  0  0
  103.1973   19.4445   49.4556 C   0  0  0  0  0  0  0  0  0  0  0  0
  102.5514   18.0313   49.1961 C   0  0  0  0  0  0  0  0  0  0  0  0
  102.3969   21.6669   49.9058 O   0  0  0  0  0  0  0  0  0  0  0  0
  102.1073   20.4674   49.7075 C   0  0  0  0  0  0  0  0  0  0  0  0
  100.9751   19.9866   49.7731 O   0  0  0  0  0  0  0  0  0  0  0  0
  103.2868   21.9518   49.8357 H   0  0  0  0  0  0  0  0  0  0  0  0
 11 12  1  0  0  0
 11 10  2  0  0  0
  9 10  1  0  0  0
  9  4  1  0  0  0
 12 13  1  0  0  0
 10 14  1  0  0  0
  4  2  1  0  0  0
  4  5  1  0  0  0
 13 14  2  0  0  0
  2  1  1  0  0  0
  7  5  2  0  0  0
  5  6  1  0  0  0
  1 16  1  0  0  0
 20 18  2  0  0  0
 16 17  1  0  0  0
 19 18  1  0  0  0
 18 17  1  0  0  0
 17 22  1  0  0  0
 28 27  2  0  0  0
 22 24  1  0  0  0
 27 24  1  0  0  0
 27 26  1  0  0  0
 24 25  1  0  0  0
 26 29  1  0  0  0
 22 23  1  0  0  0
 19 21  1  0  0  0
  2  3  1  0  0  0
  6  8  1  0  0  0
 12 15  1  0  0  0
M  END
> <minimizedAffinity>
-6.18012

$$$$
5YHG_8UX_A_608


 29 29  0  0  0  0  0  0  0  0999 V2000
  105.4267   18.1996   45.6314 C   0  0  0  0  0  0  0  0  0  0  0  0
  106.4355   18.4262   46.6562 N   0  0  0  0  0  0  0  0  0  0  0  0
  106.4762   19.4274   46.8471 H   0  0  0  0  0  0  0  0  0  0  0  0
  107.7983   17.9688   46.2910 C   0  0  0  0  0  0  0  0  0  0  0  0
  108.5188   18.6363   45.0788 C   0  0  0  0  0  0  0  0  0  0  0  0
  108.9034   19.8511   45.3090 O   0  0  0  0  0  0  0  0  0  0  0  0
  108.7599   17.9412   44.0018 O   0  0  0  0  0  0  0  0  0  0  0  0
  108.6794   20.2681   46.1177 H   0  0  0  0  0  0  0  0  0  0  0  0
  108.6354   17.8723   47.5413 C   0  0  0  0  0  0  0  0  0  0  0  0
  107.8398   17.2638   48.6378 C   0  0  0  0  0  0  0  0  0  0  0  0
  107.7672   17.8434   49.7883 C   0  0  0  0  0  0  0  0  0  0  0  0
  107.0402   17.0711   50.5734 N   0  0  0  0  0  0  0  0  0  0  0  0
  106.6565   16.0197   49.9029 C   0  0  0  0  0  0  0  0  0  0  0  0
  107.1645   16.1103   48.6861 N   0  0  0  0  0  0  0  0  0  0  0  0
  106.8221   17.2585   51.5150 H   0  0  0  0  0  0  0  0  0  0  0  0
  104.0438   17.9293   46.2095 C   0  0  0  0  0  0  0  0  0  0  0  0
  103.1009   17.3264   45.1920 C   0  0  0  0  0  0  0  0  0  0  0  0
  102.8920   15.8731   45.6354 C   0  0  0  0  0  0  0  0  0  0  0  0
  101.7237   15.4523   45.8825 O   0  0  0  0  0  0  0  0  0  0  0  0
  103.9133   15.2068   45.7121 O   0  0  0  0  0  0  0  0  0  0  0  0
  100.9905   16.0297   45.7994 H   0  0  0  0  0  0  0  0  0  0  0  0
  101.7937   18.1144   44.9854 N   0  0  0  0  0  0  0  0  0  0  0  0
  101.9959   19.0589   45.3131 H   0  0  0  0  0  0  0  0  0  0  0  0
  101.0915   18.2908   43.7190 C   0  0  0  0  0  0  0  0  0  0  0  0
  100.3467   19.6680   43.5455 C   0  0  0  0  0  0  0  0  0  0  0  0
  102.7968   19.0086   42.1832 O   0  0  0  0  0  0  0  0  0  0  0  0
  102.0536   18.0800   42.5667 C   0  0  0  0  0  0  0  0  0  0  0  0
  101.9591   16.9745   42.0316 O   0  0  0  0  0  0  0  0  0  0  0  0
  102.8089   19.8217   42.6488 H   0  0  0  0  0  0  0  0  0  0  0  0
 11 12  1  0  0  0
 11 10  2  0  0  0
  9 10  1  0  0  0
  9  4  1  0  0  0
 12 13  1  0  0  0
 10 14  1  0  0  0
  4  2  1  0  0  0
  4  5  1  0  0  0
 13 14  2  0  0  0
  2  1  1  0  0  0
  7  5  2  0  0  0
  5  6  1  0  0  0
  1 16  1  0  0  0
 20 18  2  0  0  0
 16 17  1  0  0  0
 19 18  1  0  0  0
 18 17  1  0  0  0
 17 22  1  0  0  0
 28 27  2  0  0  0
 22 24  1  0  0  0
 27 24  1  0  0  0
 27 26  1  0  0  0
 24 25  1  0  0  0
 26 29  1  0  0  0
 22 23  1  0  0  0
 19 21  1  0  0  0
  2  3  1  0  0  0
  6  8  1  0  0  0
 12 15  1  0  0  0
M  END
> <minimizedAffinity>
-6.05509

$$$$
