3MF5_HJZ_A_571


 28 31  0  0  0  0  0  0  0  0999 V2000
   77.3103   31.8983   -8.1411 S   0  0  0  0  0  0  0  0  0  0  0  0
   75.8300   32.1820   -8.9575 C   0  0  0  0  0  0  0  0  0  0  0  0
   76.0703   32.8522  -10.1149 C   0  0  0  0  0  0  0  0  0  0  0  0
   77.3574   33.1072  -10.3251 C   0  0  0  0  0  0  0  0  0  0  0  0
   78.2244   32.6789   -9.3792 C   0  0  0  0  0  0  0  0  0  0  0  0
   74.6348   31.7680   -8.2917 C   0  0  0  0  0  0  0  0  0  0  0  0
   74.8436   30.7580   -7.2610 C   0  0  0  0  0  0  0  0  0  0  0  0
   72.3441   30.7503   -6.9337 C   0  0  0  0  0  0  0  0  0  0  0  0
   72.1195   31.7216   -7.9583 C   0  0  0  0  0  0  0  0  0  0  0  0
   73.6820   30.2661   -6.5937 C   0  0  0  0  0  0  0  0  0  0  0  0
   73.2616   32.2404   -8.6360 C   0  0  0  0  0  0  0  0  0  0  0  0
   77.7454   33.8039  -11.5527 C   0  0  0  0  0  0  0  0  0  0  0  0
   77.8138   35.1766  -11.7021 C   0  0  0  0  0  0  0  0  0  0  0  0
   78.5191   34.9045  -14.1189 C   0  0  0  0  0  0  0  0  0  0  0  0
   78.4384   33.4690  -13.9539 C   0  0  0  0  0  0  0  0  0  0  0  0
   78.1908   35.7662  -12.9971 C   0  0  0  0  0  0  0  0  0  0  0  0
   78.0531   32.9054  -12.6846 C   0  0  0  0  0  0  0  0  0  0  0  0
   77.4634   36.0602  -10.5203 C   0  0  0  0  0  0  0  0  0  0  0  0
   78.3949   37.2280  -10.2682 C   0  0  0  0  0  0  0  0  0  0  0  0
   77.8031   38.0661   -9.0821 C   0  0  0  0  0  0  0  0  0  0  0  0
   76.3738   38.5382   -9.3731 C   0  0  0  0  0  0  0  0  0  0  0  0
   75.3476   37.4151   -9.8188 C   0  0  0  0  0  0  0  0  0  0  0  0
   75.9664   36.4547  -10.8883 C   0  0  0  0  0  0  0  0  0  0  0  0
   75.8059   39.4316   -8.2468 C   0  0  0  0  0  0  0  0  0  0  0  0
   79.6517   32.7875   -9.2726 C   0  0  0  0  0  0  0  0  0  0  0  0
   80.2594   31.8849   -8.6536 O   0  0  0  0  0  0  0  0  0  0  0  0
   80.3964   33.6237   -9.6754 O   0  0  0  0  0  0  0  0  0  0  0  0
   80.0630   34.3555  -10.1565 H   0  0  0  0  0  0  0  0  0  0  0  0
  1  2  1  0  0  0
  1  5  1  0  0  0
  6  2  1  0  0  0
  2  3  2  0  0  0
  3  4  1  0  0  0
  5  4  2  0  0  0
  4 12  1  0  0  0
 25  5  1  0  0  0
 11  6  2  0  0  0
  6  7  1  0  0  0
 26 25  2  0  0  0
 25 27  1  0  0  0
 12 13  2  0  0  0
 12 17  1  0  0  0
 18 13  1  0  0  0
 13 16  1  0  0  0
 16 14  2  0  0  0
 15 14  1  0  0  0
 17 15  2  0  0  0
 10  7  2  0  0  0
  9  8  2  0  0  0
  8 10  1  0  0  0
  9 11  1  0  0  0
 19 18  1  0  0  0
 18 23  1  0  0  0
 20 19  1  0  0  0
 20 21  1  0  0  0
 24 21  1  0  0  0
 21 22  1  0  0  0
 22 23  1  0  0  0
 27 28  1  0  0  0
M  END
> <minimizedAffinity>
-9.45946

$$$$
3MF5_HJZ_A_571


 28 31  0  0  0  0  0  0  0  0999 V2000
   77.7529   36.9780  -12.8323 S   0  0  0  0  0  0  0  0  0  0  0  0
   77.8616   36.5679  -11.1716 C   0  0  0  0  0  0  0  0  0  0  0  0
   78.6706   35.4863  -11.0223 C   0  0  0  0  0  0  0  0  0  0  0  0
   79.1692   35.0324  -12.1673 C   0  0  0  0  0  0  0  0  0  0  0  0
   78.8068   35.6911  -13.2918 C   0  0  0  0  0  0  0  0  0  0  0  0
   77.0638   37.3310  -10.2635 C   0  0  0  0  0  0  0  0  0  0  0  0
   75.6664   36.9187  -10.2036 C   0  0  0  0  0  0  0  0  0  0  0  0
   75.3037   38.8133   -8.5807 C   0  0  0  0  0  0  0  0  0  0  0  0
   76.6646   39.2460   -8.6469 C   0  0  0  0  0  0  0  0  0  0  0  0
   74.8058   37.6746   -9.3522 C   0  0  0  0  0  0  0  0  0  0  0  0
   77.5519   38.5041   -9.4807 C   0  0  0  0  0  0  0  0  0  0  0  0
   80.0761   33.8837  -12.1337 C   0  0  0  0  0  0  0  0  0  0  0  0
   79.8280   32.6916  -11.4791 C   0  0  0  0  0  0  0  0  0  0  0  0
   82.0760   31.7888  -12.2163 C   0  0  0  0  0  0  0  0  0  0  0  0
   82.3287   33.0428  -12.8931 C   0  0  0  0  0  0  0  0  0  0  0  0
   80.8300   31.6134  -11.4915 C   0  0  0  0  0  0  0  0  0  0  0  0
   81.3452   34.0959  -12.8600 C   0  0  0  0  0  0  0  0  0  0  0  0
   78.5227   32.5286  -10.7242 C   0  0  0  0  0  0  0  0  0  0  0  0
   77.6302   31.3939  -11.1834 C   0  0  0  0  0  0  0  0  0  0  0  0
   76.3967   31.3327  -10.2168 C   0  0  0  0  0  0  0  0  0  0  0  0
   76.8242   31.1570   -8.7549 C   0  0  0  0  0  0  0  0  0  0  0  0
   77.8957   32.1928   -8.2145 C   0  0  0  0  0  0  0  0  0  0  0  0
   79.0647   32.4036   -9.2334 C   0  0  0  0  0  0  0  0  0  0  0  0
   75.6175   31.0161   -7.7994 C   0  0  0  0  0  0  0  0  0  0  0  0
   79.1364   35.4768  -14.6724 C   0  0  0  0  0  0  0  0  0  0  0  0
   79.7674   36.3799  -15.2669 O   0  0  0  0  0  0  0  0  0  0  0  0
   78.8989   34.5587  -15.3911 O   0  0  0  0  0  0  0  0  0  0  0  0
   78.4296   33.8167  -15.0638 H   0  0  0  0  0  0  0  0  0  0  0  0
  1  2  1  0  0  0
  1  5  1  0  0  0
  6  2  1  0  0  0
  2  3  2  0  0  0
  3  4  1  0  0  0
  5  4  2  0  0  0
  4 12  1  0  0  0
 25  5  1  0  0  0
 11  6  2  0  0  0
  6  7  1  0  0  0
 26 25  2  0  0  0
 25 27  1  0  0  0
 12 13  2  0  0  0
 12 17  1  0  0  0
 18 13  1  0  0  0
 13 16  1  0  0  0
 16 14  2  0  0  0
 15 14  1  0  0  0
 17 15  2  0  0  0
 10  7  2  0  0  0
  9  8  2  0  0  0
  8 10  1  0  0  0
  9 11  1  0  0  0
 19 18  1  0  0  0
 18 23  1  0  0  0
 20 19  1  0  0  0
 20 21  1  0  0  0
 24 21  1  0  0  0
 21 22  1  0  0  0
 22 23  1  0  0  0
 27 28  1  0  0  0
M  END
> <minimizedAffinity>
-8.03392

$$$$
3MF5_HJZ_A_571


 28 31  0  0  0  0  0  0  0  0999 V2000
   77.6396   35.8532  -12.4204 S   0  0  0  0  0  0  0  0  0  0  0  0
   77.6439   35.7129  -10.7121 C   0  0  0  0  0  0  0  0  0  0  0  0
   78.2335   34.5423  -10.3535 C   0  0  0  0  0  0  0  0  0  0  0  0
   78.6559   33.8207  -11.3862 C   0  0  0  0  0  0  0  0  0  0  0  0
   78.4407   34.3375  -12.6176 C   0  0  0  0  0  0  0  0  0  0  0  0
   76.9892   36.7491   -9.9766 C   0  0  0  0  0  0  0  0  0  0  0  0
   75.5347   36.7266  -10.0775 C   0  0  0  0  0  0  0  0  0  0  0  0
   75.5255   38.8087   -8.6564 C   0  0  0  0  0  0  0  0  0  0  0  0
   76.9514   38.8598   -8.5682 C   0  0  0  0  0  0  0  0  0  0  0  0
   74.8243   37.7664   -9.4060 C   0  0  0  0  0  0  0  0  0  0  0  0
   77.6891   37.8282   -9.2197 C   0  0  0  0  0  0  0  0  0  0  0  0
   79.3309   32.5480  -11.1262 C   0  0  0  0  0  0  0  0  0  0  0  0
   78.7383   31.4316  -10.5661 C   0  0  0  0  0  0  0  0  0  0  0  0
   80.9289   30.1687  -10.7014 C   0  0  0  0  0  0  0  0  0  0  0  0
   81.5414   31.3446  -11.2814 C   0  0  0  0  0  0  0  0  0  0  0  0
   79.5270   30.2123  -10.3254 C   0  0  0  0  0  0  0  0  0  0  0  0
   80.7611   32.5370  -11.4974 C   0  0  0  0  0  0  0  0  0  0  0  0
   77.2741   31.4977  -10.1764 C   0  0  0  0  0  0  0  0  0  0  0  0
   76.3879   30.4094  -10.7468 C   0  0  0  0  0  0  0  0  0  0  0  0
   74.9518   30.5956  -10.1446 C   0  0  0  0  0  0  0  0  0  0  0  0
   74.9664   30.5646   -8.6118 C   0  0  0  0  0  0  0  0  0  0  0  0
   75.9904   31.5475   -7.9060 C   0  0  0  0  0  0  0  0  0  0  0  0
   77.3975   31.5089   -8.5900 C   0  0  0  0  0  0  0  0  0  0  0  0
   73.5483   30.6680   -8.0054 C   0  0  0  0  0  0  0  0  0  0  0  0
   78.7457   33.8396  -13.9290 C   0  0  0  0  0  0  0  0  0  0  0  0
   79.4691   34.5469  -14.6662 O   0  0  0  0  0  0  0  0  0  0  0  0
   78.4120   32.8348  -14.4720 O   0  0  0  0  0  0  0  0  0  0  0  0
   77.8665   32.2188  -14.0237 H   0  0  0  0  0  0  0  0  0  0  0  0
  1  2  1  0  0  0
  1  5  1  0  0  0
  6  2  1  0  0  0
  2  3  2  0  0  0
  3  4  1  0  0  0
  5  4  2  0  0  0
  4 12  1  0  0  0
 25  5  1  0  0  0
 11  6  2  0  0  0
  6  7  1  0  0  0
 26 25  2  0  0  0
 25 27  1  0  0  0
 12 13  2  0  0  0
 12 17  1  0  0  0
 18 13  1  0  0  0
 13 16  1  0  0  0
 16 14  2  0  0  0
 15 14  1  0  0  0
 17 15  2  0  0  0
 10  7  2  0  0  0
  9  8  2  0  0  0
  8 10  1  0  0  0
  9 11  1  0  0  0
 19 18  1  0  0  0
 18 23  1  0  0  0
 20 19  1  0  0  0
 20 21  1  0  0  0
 24 21  1  0  0  0
 21 22  1  0  0  0
 22 23  1  0  0  0
 27 28  1  0  0  0
M  END
> <minimizedAffinity>
-7.16175

$$$$
3MF5_HJZ_A_571


 28 31  0  0  0  0  0  0  0  0999 V2000
   79.0471   35.1756  -10.0664 S   0  0  0  0  0  0  0  0  0  0  0  0
   77.9127   36.1372  -10.9188 C   0  0  0  0  0  0  0  0  0  0  0  0
   78.0537   35.9300  -12.2544 C   0  0  0  0  0  0  0  0  0  0  0  0
   79.0034   35.0522  -12.5596 C   0  0  0  0  0  0  0  0  0  0  0  0
   79.6820   34.5062  -11.5247 C   0  0  0  0  0  0  0  0  0  0  0  0
   77.0994   37.0192  -10.1417 C   0  0  0  0  0  0  0  0  0  0  0  0
   75.6734   36.7191  -10.1937 C   0  0  0  0  0  0  0  0  0  0  0  0
   75.3183   38.7429   -8.7333 C   0  0  0  0  0  0  0  0  0  0  0  0
   76.7104   39.0657   -8.6924 C   0  0  0  0  0  0  0  0  0  0  0  0
   74.8025   37.5948   -9.4786 C   0  0  0  0  0  0  0  0  0  0  0  0
   77.6073   38.2031   -9.3883 C   0  0  0  0  0  0  0  0  0  0  0  0
   79.2341   34.7263  -13.9681 C   0  0  0  0  0  0  0  0  0  0  0  0
   80.2104   35.2915  -14.7672 C   0  0  0  0  0  0  0  0  0  0  0  0
   79.4365   33.9039  -16.7389 C   0  0  0  0  0  0  0  0  0  0  0  0
   78.4138   33.3229  -15.8958 C   0  0  0  0  0  0  0  0  0  0  0  0
   80.3299   34.9042  -16.1822 C   0  0  0  0  0  0  0  0  0  0  0  0
   78.2983   33.7225  -14.5158 C   0  0  0  0  0  0  0  0  0  0  0  0
   81.1316   36.3373  -14.1688 C   0  0  0  0  0  0  0  0  0  0  0  0
   82.2959   36.7680  -15.0371 C   0  0  0  0  0  0  0  0  0  0  0  0
   83.0542   37.9175  -14.2866 C   0  0  0  0  0  0  0  0  0  0  0  0
   82.1284   39.0953  -13.9609 C   0  0  0  0  0  0  0  0  0  0  0  0
   80.7852   38.7345  -13.2002 C   0  0  0  0  0  0  0  0  0  0  0  0
   80.0826   37.4833  -13.8247 C   0  0  0  0  0  0  0  0  0  0  0  0
   82.8790   40.2691  -13.2914 C   0  0  0  0  0  0  0  0  0  0  0  0
   80.7558   33.5545  -11.4827 C   0  0  0  0  0  0  0  0  0  0  0  0
   80.6414   32.5822  -10.7025 O   0  0  0  0  0  0  0  0  0  0  0  0
   81.7878   33.5257  -12.0744 O   0  0  0  0  0  0  0  0  0  0  0  0
   81.9934   34.2007  -12.6909 H   0  0  0  0  0  0  0  0  0  0  0  0
  1  2  1  0  0  0
  1  5  1  0  0  0
  6  2  1  0  0  0
  2  3  2  0  0  0
  3  4  1  0  0  0
  5  4  2  0  0  0
  4 12  1  0  0  0
 25  5  1  0  0  0
 11  6  2  0  0  0
  6  7  1  0  0  0
 26 25  2  0  0  0
 25 27  1  0  0  0
 12 13  2  0  0  0
 12 17  1  0  0  0
 18 13  1  0  0  0
 13 16  1  0  0  0
 16 14  2  0  0  0
 15 14  1  0  0  0
 17 15  2  0  0  0
 10  7  2  0  0  0
  9  8  2  0  0  0
  8 10  1  0  0  0
  9 11  1  0  0  0
 19 18  1  0  0  0
 18 23  1  0  0  0
 20 19  1  0  0  0
 20 21  1  0  0  0
 24 21  1  0  0  0
 21 22  1  0  0  0
 22 23  1  0  0  0
 27 28  1  0  0  0
M  END
> <minimizedAffinity>
-7.14671

$$$$
3MF5_HJZ_A_571


 28 31  0  0  0  0  0  0  0  0999 V2000
   78.9307   33.4366  -14.3164 S   0  0  0  0  0  0  0  0  0  0  0  0
   79.9233   33.3402  -12.9223 C   0  0  0  0  0  0  0  0  0  0  0  0
   80.4029   34.5750  -12.6194 C   0  0  0  0  0  0  0  0  0  0  0  0
   79.9888   35.5256  -13.4504 C   0  0  0  0  0  0  0  0  0  0  0  0
   79.1730   35.1393  -14.4579 C   0  0  0  0  0  0  0  0  0  0  0  0
   80.1472   32.0381  -12.3767 C   0  0  0  0  0  0  0  0  0  0  0  0
   80.2819   32.0131  -10.9249 C   0  0  0  0  0  0  0  0  0  0  0  0
   80.7029   29.5360  -11.1284 C   0  0  0  0  0  0  0  0  0  0  0  0
   80.5986   29.5471  -12.5542 C   0  0  0  0  0  0  0  0  0  0  0  0
   80.5573   30.7487  -10.3234 C   0  0  0  0  0  0  0  0  0  0  0  0
   80.3130   30.7939  -13.1841 C   0  0  0  0  0  0  0  0  0  0  0  0
   80.4192   36.9045  -13.2128 C   0  0  0  0  0  0  0  0  0  0  0  0
   79.8538   37.7685  -12.2934 C   0  0  0  0  0  0  0  0  0  0  0  0
   81.4649   39.5968  -12.9819 C   0  0  0  0  0  0  0  0  0  0  0  0
   82.0456   38.6866  -13.9457 C   0  0  0  0  0  0  0  0  0  0  0  0
   80.3541   39.1465  -12.1620 C   0  0  0  0  0  0  0  0  0  0  0  0
   81.5358   37.3447  -14.0745 C   0  0  0  0  0  0  0  0  0  0  0  0
   78.6922   37.2812  -11.4489 C   0  0  0  0  0  0  0  0  0  0  0  0
   78.5652   37.9064  -10.0748 C   0  0  0  0  0  0  0  0  0  0  0  0
   77.2558   37.3508   -9.4143 C   0  0  0  0  0  0  0  0  0  0  0  0
   76.0186   37.6287  -10.2762 C   0  0  0  0  0  0  0  0  0  0  0  0
   76.1085   37.1690  -11.7906 C   0  0  0  0  0  0  0  0  0  0  0  0
   77.4776   37.5647  -12.4371 C   0  0  0  0  0  0  0  0  0  0  0  0
   74.7105   37.1567   -9.6014 C   0  0  0  0  0  0  0  0  0  0  0  0
   78.5576   35.8768  -15.5246 C   0  0  0  0  0  0  0  0  0  0  0  0
   79.2647   36.1641  -16.5168 O   0  0  0  0  0  0  0  0  0  0  0  0
   77.4487   36.2932  -15.6382 O   0  0  0  0  0  0  0  0  0  0  0  0
   76.8202   36.1435  -14.9596 H   0  0  0  0  0  0  0  0  0  0  0  0
  1  2  1  0  0  0
  1  5  1  0  0  0
  6  2  1  0  0  0
  2  3  2  0  0  0
  3  4  1  0  0  0
  5  4  2  0  0  0
  4 12  1  0  0  0
 25  5  1  0  0  0
 11  6  2  0  0  0
  6  7  1  0  0  0
 26 25  2  0  0  0
 25 27  1  0  0  0
 12 13  2  0  0  0
 12 17  1  0  0  0
 18 13  1  0  0  0
 13 16  1  0  0  0
 16 14  2  0  0  0
 15 14  1  0  0  0
 17 15  2  0  0  0
 10  7  2  0  0  0
  9  8  2  0  0  0
  8 10  1  0  0  0
  9 11  1  0  0  0
 19 18  1  0  0  0
 18 23  1  0  0  0
 20 19  1  0  0  0
 20 21  1  0  0  0
 24 21  1  0  0  0
 21 22  1  0  0  0
 22 23  1  0  0  0
 27 28  1  0  0  0
M  END
> <minimizedAffinity>
-6.98374

$$$$
3MF5_HJZ_A_571


 28 31  0  0  0  0  0  0  0  0999 V2000
   78.9932   34.8680  -10.9583 S   0  0  0  0  0  0  0  0  0  0  0  0
   78.3171   36.3124  -11.5864 C   0  0  0  0  0  0  0  0  0  0  0  0
   78.9448   36.6417  -12.7457 C   0  0  0  0  0  0  0  0  0  0  0  0
   79.8947   35.7824  -13.0995 C   0  0  0  0  0  0  0  0  0  0  0  0
   80.1010   34.7306  -12.2744 C   0  0  0  0  0  0  0  0  0  0  0  0
   77.3141   36.9541  -10.7955 C   0  0  0  0  0  0  0  0  0  0  0  0
   77.8070   38.0676   -9.9933 C   0  0  0  0  0  0  0  0  0  0  0  0
   75.4687   38.2830   -9.0763 C   0  0  0  0  0  0  0  0  0  0  0  0
   74.9750   37.1779   -9.8370 C   0  0  0  0  0  0  0  0  0  0  0  0
   76.8637   38.7183   -9.1427 C   0  0  0  0  0  0  0  0  0  0  0  0
   75.8910   36.5139  -10.7048 C   0  0  0  0  0  0  0  0  0  0  0  0
   80.6270   36.0166  -14.3452 C   0  0  0  0  0  0  0  0  0  0  0  0
   80.3763   35.3828  -15.5481 C   0  0  0  0  0  0  0  0  0  0  0  0
   82.2650   36.6632  -16.6461 C   0  0  0  0  0  0  0  0  0  0  0  0
   82.5234   37.3165  -15.3808 C   0  0  0  0  0  0  0  0  0  0  0  0
   81.1997   35.6801  -16.7314 C   0  0  0  0  0  0  0  0  0  0  0  0
   81.7192   37.0046  -14.2261 C   0  0  0  0  0  0  0  0  0  0  0  0
   79.2621   34.3563  -15.6166 C   0  0  0  0  0  0  0  0  0  0  0  0
   78.1621   34.6396  -16.6189 C   0  0  0  0  0  0  0  0  0  0  0  0
   77.1766   33.4198  -16.6071 C   0  0  0  0  0  0  0  0  0  0  0  0
   77.8951   32.1014  -16.9169 C   0  0  0  0  0  0  0  0  0  0  0  0
   79.1747   31.7832  -16.0369 C   0  0  0  0  0  0  0  0  0  0  0  0
   80.1039   33.0339  -15.8901 C   0  0  0  0  0  0  0  0  0  0  0  0
   76.9236   30.9012  -16.9864 C   0  0  0  0  0  0  0  0  0  0  0  0
   81.0297   33.6377  -12.3341 C   0  0  0  0  0  0  0  0  0  0  0  0
   80.5616   32.4814  -12.4393 O   0  0  0  0  0  0  0  0  0  0  0  0
   82.2188   33.6294  -12.2893 O   0  0  0  0  0  0  0  0  0  0  0  0
   82.6902   34.4352  -12.2104 H   0  0  0  0  0  0  0  0  0  0  0  0
  1  2  1  0  0  0
  1  5  1  0  0  0
  6  2  1  0  0  0
  2  3  2  0  0  0
  3  4  1  0  0  0
  5  4  2  0  0  0
  4 12  1  0  0  0
 25  5  1  0  0  0
 11  6  2  0  0  0
  6  7  1  0  0  0
 26 25  2  0  0  0
 25 27  1  0  0  0
 12 13  2  0  0  0
 12 17  1  0  0  0
 18 13  1  0  0  0
 13 16  1  0  0  0
 16 14  2  0  0  0
 15 14  1  0  0  0
 17 15  2  0  0  0
 10  7  2  0  0  0
  9  8  2  0  0  0
  8 10  1  0  0  0
  9 11  1  0  0  0
 19 18  1  0  0  0
 18 23  1  0  0  0
 20 19  1  0  0  0
 20 21  1  0  0  0
 24 21  1  0  0  0
 21 22  1  0  0  0
 22 23  1  0  0  0
 27 28  1  0  0  0
M  END
> <minimizedAffinity>
-6.83303

$$$$
3MF5_HJZ_A_571


 28 31  0  0  0  0  0  0  0  0999 V2000
   79.4412   32.3943  -13.8872 S   0  0  0  0  0  0  0  0  0  0  0  0
   78.5843   33.3793  -14.9978 C   0  0  0  0  0  0  0  0  0  0  0  0
   78.9979   34.6679  -14.8757 C   0  0  0  0  0  0  0  0  0  0  0  0
   79.9430   34.8390  -13.9575 C   0  0  0  0  0  0  0  0  0  0  0  0
   80.3465   33.7354  -13.2874 C   0  0  0  0  0  0  0  0  0  0  0  0
   77.5673   32.7432  -15.7752 C   0  0  0  0  0  0  0  0  0  0  0  0
   77.6643   32.9957  -17.2081 C   0  0  0  0  0  0  0  0  0  0  0  0
   75.5568   31.6370  -17.4668 C   0  0  0  0  0  0  0  0  0  0  0  0
   75.4330   31.4008  -16.0623 C   0  0  0  0  0  0  0  0  0  0  0  0
   76.6478   32.4292  -18.0342 C   0  0  0  0  0  0  0  0  0  0  0  0
   76.4396   31.9447  -15.2116 C   0  0  0  0  0  0  0  0  0  0  0  0
   80.4881   36.1818  -13.7502 C   0  0  0  0  0  0  0  0  0  0  0  0
   80.0077   37.1050  -12.8402 C   0  0  0  0  0  0  0  0  0  0  0  0
   81.7539   38.7826  -13.5809 C   0  0  0  0  0  0  0  0  0  0  0  0
   82.2453   37.8113  -14.5346 C   0  0  0  0  0  0  0  0  0  0  0  0
   80.6210   38.4394  -12.7399 C   0  0  0  0  0  0  0  0  0  0  0  0
   81.6255   36.5138  -14.6330 C   0  0  0  0  0  0  0  0  0  0  0  0
   78.8212   36.7296  -11.9733 C   0  0  0  0  0  0  0  0  0  0  0  0
   78.9297   37.0980  -10.5079 C   0  0  0  0  0  0  0  0  0  0  0  0
   77.5723   36.7234   -9.8175 C   0  0  0  0  0  0  0  0  0  0  0  0
   76.3802   37.4178  -10.4862 C   0  0  0  0  0  0  0  0  0  0  0  0
   76.2649   37.2422  -12.0574 C   0  0  0  0  0  0  0  0  0  0  0  0
   77.6443   37.4482  -12.7673 C   0  0  0  0  0  0  0  0  0  0  0  0
   75.0442   37.1204   -9.7678 C   0  0  0  0  0  0  0  0  0  0  0  0
   81.3157   33.5524  -12.2444 C   0  0  0  0  0  0  0  0  0  0  0  0
   80.9278   33.6791  -11.0609 O   0  0  0  0  0  0  0  0  0  0  0  0
   82.4772   33.3007  -12.3029 O   0  0  0  0  0  0  0  0  0  0  0  0
   82.8894   33.1817  -13.1359 H   0  0  0  0  0  0  0  0  0  0  0  0
  1  2  1  0  0  0
  1  5  1  0  0  0
  6  2  1  0  0  0
  2  3  2  0  0  0
  3  4  1  0  0  0
  5  4  2  0  0  0
  4 12  1  0  0  0
 25  5  1  0  0  0
 11  6  2  0  0  0
  6  7  1  0  0  0
 26 25  2  0  0  0
 25 27  1  0  0  0
 12 13  2  0  0  0
 12 17  1  0  0  0
 18 13  1  0  0  0
 13 16  1  0  0  0
 16 14  2  0  0  0
 15 14  1  0  0  0
 17 15  2  0  0  0
 10  7  2  0  0  0
  9  8  2  0  0  0
  8 10  1  0  0  0
  9 11  1  0  0  0
 19 18  1  0  0  0
 18 23  1  0  0  0
 20 19  1  0  0  0
 20 21  1  0  0  0
 24 21  1  0  0  0
 21 22  1  0  0  0
 22 23  1  0  0  0
 27 28  1  0  0  0
M  END
> <minimizedAffinity>
-6.80185

$$$$
3MF5_HJZ_A_571


 28 31  0  0  0  0  0  0  0  0999 V2000
   78.8936   35.2740  -10.0123 S   0  0  0  0  0  0  0  0  0  0  0  0
   77.2102   35.5067  -10.2356 C   0  0  0  0  0  0  0  0  0  0  0  0
   76.6928   34.4541  -10.9219 C   0  0  0  0  0  0  0  0  0  0  0  0
   77.5929   33.5278  -11.2339 C   0  0  0  0  0  0  0  0  0  0  0  0
   78.8657   33.7593  -10.8387 C   0  0  0  0  0  0  0  0  0  0  0  0
   76.6600   36.7397   -9.7664 C   0  0  0  0  0  0  0  0  0  0  0  0
   77.6550   37.7035   -9.3108 C   0  0  0  0  0  0  0  0  0  0  0  0
   75.7327   39.2150   -8.6986 C   0  0  0  0  0  0  0  0  0  0  0  0
   74.7437   38.2716   -9.1176 C   0  0  0  0  0  0  0  0  0  0  0  0
   77.1662   38.9360   -8.7830 C   0  0  0  0  0  0  0  0  0  0  0  0
   75.2010   37.0348   -9.6598 C   0  0  0  0  0  0  0  0  0  0  0  0
   77.1515   32.3318  -11.9535 C   0  0  0  0  0  0  0  0  0  0  0  0
   76.3715   31.3230  -11.4195 C   0  0  0  0  0  0  0  0  0  0  0  0
   76.4552   30.0613  -13.6134 C   0  0  0  0  0  0  0  0  0  0  0  0
   77.2765   31.1196  -14.1611 C   0  0  0  0  0  0  0  0  0  0  0  0
   76.0122   30.1503  -12.2334 C   0  0  0  0  0  0  0  0  0  0  0  0
   77.6336   32.2549  -13.3481 C   0  0  0  0  0  0  0  0  0  0  0  0
   75.9217   31.4319   -9.9752 C   0  0  0  0  0  0  0  0  0  0  0  0
   74.5592   32.0553   -9.7518 C   0  0  0  0  0  0  0  0  0  0  0  0
   74.2420   31.9777   -8.2179 C   0  0  0  0  0  0  0  0  0  0  0  0
   74.2951   30.5373   -7.6953 C   0  0  0  0  0  0  0  0  0  0  0  0
   75.6163   29.7260   -8.0255 C   0  0  0  0  0  0  0  0  0  0  0  0
   76.0562   29.9144   -9.5155 C   0  0  0  0  0  0  0  0  0  0  0  0
   73.9076   30.4359   -6.2024 C   0  0  0  0  0  0  0  0  0  0  0  0
   80.0717   32.9996  -11.0089 C   0  0  0  0  0  0  0  0  0  0  0  0
   80.0868   31.8264  -10.5726 O   0  0  0  0  0  0  0  0  0  0  0  0
   81.1119   33.2995  -11.5030 O   0  0  0  0  0  0  0  0  0  0  0  0
   81.2280   34.1548  -11.8676 H   0  0  0  0  0  0  0  0  0  0  0  0
  1  2  1  0  0  0
  1  5  1  0  0  0
  6  2  1  0  0  0
  2  3  2  0  0  0
  3  4  1  0  0  0
  5  4  2  0  0  0
  4 12  1  0  0  0
 25  5  1  0  0  0
 11  6  2  0  0  0
  6  7  1  0  0  0
 26 25  2  0  0  0
 25 27  1  0  0  0
 12 13  2  0  0  0
 12 17  1  0  0  0
 18 13  1  0  0  0
 13 16  1  0  0  0
 16 14  2  0  0  0
 15 14  1  0  0  0
 17 15  2  0  0  0
 10  7  2  0  0  0
  9  8  2  0  0  0
  8 10  1  0  0  0
  9 11  1  0  0  0
 19 18  1  0  0  0
 18 23  1  0  0  0
 20 19  1  0  0  0
 20 21  1  0  0  0
 24 21  1  0  0  0
 21 22  1  0  0  0
 22 23  1  0  0  0
 27 28  1  0  0  0
M  END
> <minimizedAffinity>
-6.79904

$$$$
3MF5_HJZ_A_571


 28 31  0  0  0  0  0  0  0  0999 V2000
   79.2135   35.0043  -10.2272 S   0  0  0  0  0  0  0  0  0  0  0  0
   78.1022   35.9735  -11.1010 C   0  0  0  0  0  0  0  0  0  0  0  0
   78.3123   35.8163  -12.4343 C   0  0  0  0  0  0  0  0  0  0  0  0
   79.2938   34.9682  -12.7223 C   0  0  0  0  0  0  0  0  0  0  0  0
   79.9324   34.3989  -11.6744 C   0  0  0  0  0  0  0  0  0  0  0  0
   77.2339   36.8119  -10.3352 C   0  0  0  0  0  0  0  0  0  0  0  0
   75.8302   36.4197  -10.3813 C   0  0  0  0  0  0  0  0  0  0  0  0
   75.3457   38.4365   -8.9487 C   0  0  0  0  0  0  0  0  0  0  0  0
   76.7140   38.8491   -8.9140 C   0  0  0  0  0  0  0  0  0  0  0  0
   74.9048   37.2471   -9.6774 C   0  0  0  0  0  0  0  0  0  0  0  0
   77.6645   38.0365   -9.5989 C   0  0  0  0  0  0  0  0  0  0  0  0
   79.5995   34.6966  -14.1279 C   0  0  0  0  0  0  0  0  0  0  0  0
   79.1798   33.5846  -14.8342 C   0  0  0  0  0  0  0  0  0  0  0  0
   80.3860   34.4104  -16.9018 C   0  0  0  0  0  0  0  0  0  0  0  0
   80.8253   35.5676  -16.1520 C   0  0  0  0  0  0  0  0  0  0  0  0
   79.5740   33.4042  -16.2408 C   0  0  0  0  0  0  0  0  0  0  0  0
   80.4446   35.7241  -14.7707 C   0  0  0  0  0  0  0  0  0  0  0  0
   78.3356   32.5428  -14.1256 C   0  0  0  0  0  0  0  0  0  0  0  0
   77.0256   32.1846  -14.7968 C   0  0  0  0  0  0  0  0  0  0  0  0
   76.3638   31.0278  -13.9701 C   0  0  0  0  0  0  0  0  0  0  0  0
   77.2872   29.8098  -13.8509 C   0  0  0  0  0  0  0  0  0  0  0  0
   78.7525   30.0974  -13.3187 C   0  0  0  0  0  0  0  0  0  0  0  0
   79.3847   31.3520  -14.0082 C   0  0  0  0  0  0  0  0  0  0  0  0
   76.6183   28.6320  -13.1062 C   0  0  0  0  0  0  0  0  0  0  0  0
   81.0224   33.4669  -11.6121 C   0  0  0  0  0  0  0  0  0  0  0  0
   80.8728   32.4429  -10.9077 O   0  0  0  0  0  0  0  0  0  0  0  0
   82.0963   33.4970  -12.1237 O   0  0  0  0  0  0  0  0  0  0  0  0
   82.3315   34.2152  -12.6775 H   0  0  0  0  0  0  0  0  0  0  0  0
  1  2  1  0  0  0
  1  5  1  0  0  0
  6  2  1  0  0  0
  2  3  2  0  0  0
  3  4  1  0  0  0
  5  4  2  0  0  0
  4 12  1  0  0  0
 25  5  1  0  0  0
 11  6  2  0  0  0
  6  7  1  0  0  0
 26 25  2  0  0  0
 25 27  1  0  0  0
 12 13  2  0  0  0
 12 17  1  0  0  0
 18 13  1  0  0  0
 13 16  1  0  0  0
 16 14  2  0  0  0
 15 14  1  0  0  0
 17 15  2  0  0  0
 10  7  2  0  0  0
  9  8  2  0  0  0
  8 10  1  0  0  0
  9 11  1  0  0  0
 19 18  1  0  0  0
 18 23  1  0  0  0
 20 19  1  0  0  0
 20 21  1  0  0  0
 24 21  1  0  0  0
 21 22  1  0  0  0
 22 23  1  0  0  0
 27 28  1  0  0  0
M  END
> <minimizedAffinity>
-6.70521

$$$$
3MF5_HJZ_A_571


 28 31  0  0  0  0  0  0  0  0999 V2000
   79.1419   35.1570  -10.1352 S   0  0  0  0  0  0  0  0  0  0  0  0
   77.6680   35.6236  -10.8754 C   0  0  0  0  0  0  0  0  0  0  0  0
   77.5159   34.9535  -12.0478 C   0  0  0  0  0  0  0  0  0  0  0  0
   78.5150   34.1202  -12.3182 C   0  0  0  0  0  0  0  0  0  0  0  0
   79.5193   34.0614  -11.4139 C   0  0  0  0  0  0  0  0  0  0  0  0
   76.9131   36.6477  -10.2239 C   0  0  0  0  0  0  0  0  0  0  0  0
   77.7253   37.7025   -9.6288 C   0  0  0  0  0  0  0  0  0  0  0  0
   75.5752   38.7182   -8.7920 C   0  0  0  0  0  0  0  0  0  0  0  0
   74.7662   37.6789   -9.3478 C   0  0  0  0  0  0  0  0  0  0  0  0
   77.0325   38.7289   -8.9196 C   0  0  0  0  0  0  0  0  0  0  0  0
   75.4284   36.6445  -10.0719 C   0  0  0  0  0  0  0  0  0  0  0  0
   78.4535   33.3220  -13.5438 C   0  0  0  0  0  0  0  0  0  0  0  0
   78.1182   31.9822  -13.6061 C   0  0  0  0  0  0  0  0  0  0  0  0
   78.4439   31.9908  -16.1173 C   0  0  0  0  0  0  0  0  0  0  0  0
   78.7996   33.3915  -16.0405 C   0  0  0  0  0  0  0  0  0  0  0  0
   78.1173   31.2748  -14.8969 C   0  0  0  0  0  0  0  0  0  0  0  0
   78.8112   34.0681  -14.7680 C   0  0  0  0  0  0  0  0  0  0  0  0
   77.7839   31.2505  -12.3205 C   0  0  0  0  0  0  0  0  0  0  0  0
   76.3581   30.7547  -12.1930 C   0  0  0  0  0  0  0  0  0  0  0  0
   76.2503   29.9433  -10.8552 C   0  0  0  0  0  0  0  0  0  0  0  0
   77.2555   28.7868  -10.8056 C   0  0  0  0  0  0  0  0  0  0  0  0
   78.7666   29.1656  -11.0989 C   0  0  0  0  0  0  0  0  0  0  0  0
   78.8976   30.1140  -12.3368 C   0  0  0  0  0  0  0  0  0  0  0  0
   77.1078   27.9301   -9.5275 C   0  0  0  0  0  0  0  0  0  0  0  0
   80.7356   33.2995  -11.3857 C   0  0  0  0  0  0  0  0  0  0  0  0
   81.6740   33.6740  -12.1248 O   0  0  0  0  0  0  0  0  0  0  0  0
   81.0241   32.3253  -10.7664 O   0  0  0  0  0  0  0  0  0  0  0  0
   80.4044   31.9453  -10.1752 H   0  0  0  0  0  0  0  0  0  0  0  0
  1  2  1  0  0  0
  1  5  1  0  0  0
  6  2  1  0  0  0
  2  3  2  0  0  0
  3  4  1  0  0  0
  5  4  2  0  0  0
  4 12  1  0  0  0
 25  5  1  0  0  0
 11  6  2  0  0  0
  6  7  1  0  0  0
 26 25  2  0  0  0
 25 27  1  0  0  0
 12 13  2  0  0  0
 12 17  1  0  0  0
 18 13  1  0  0  0
 13 16  1  0  0  0
 16 14  2  0  0  0
 15 14  1  0  0  0
 17 15  2  0  0  0
 10  7  2  0  0  0
  9  8  2  0  0  0
  8 10  1  0  0  0
  9 11  1  0  0  0
 19 18  1  0  0  0
 18 23  1  0  0  0
 20 19  1  0  0  0
 20 21  1  0  0  0
 24 21  1  0  0  0
 21 22  1  0  0  0
 22 23  1  0  0  0
 27 28  1  0  0  0
M  END
> <minimizedAffinity>
-6.49217

$$$$
