4M2W_ETS_A_302


 22 23  0  0  0  0  0  0  0  0999 V2000
   17.3442    0.0244   13.3581 S   0  0  0  0  0  0  0  0  0  0  0  0
   17.6904    0.9374   11.9577 C   0  0  0  0  0  0  0  0  0  0  0  0
   17.7121    2.3752   12.2079 C   0  0  0  0  0  0  0  0  0  0  0  0
   17.3943    2.5060   13.6060 C   0  0  0  0  0  0  0  0  0  0  0  0
   17.3410    3.9369   14.1029 C   0  0  0  0  0  0  0  0  0  0  0  0
   17.4969    4.0066   15.6102 C   0  0  0  0  0  0  0  0  0  0  0  0
   16.6013    3.0718   16.3632 C   0  0  0  0  0  0  0  0  0  0  0  0
   16.8571    1.3643   15.9923 S   0  0  0  0  0  0  0  0  0  0  0  0
   17.2036    1.3564   14.2948 C   0  0  0  0  0  0  0  0  0  0  0  0
   15.2018    3.4171   15.9976 C   0  0  0  0  0  0  0  0  0  0  0  0
   18.0465    0.9120   16.7011 O   0  0  0  0  0  0  0  0  0  0  0  0
   15.6478    0.6212   16.2399 O   0  0  0  0  0  0  0  0  0  0  0  0
   18.0538    0.0748   10.4651 S   0  0  0  0  0  0  0  0  0  0  0  0
   18.4784   -1.2450   10.8701 O   0  0  0  0  0  0  0  0  0  0  0  0
   16.7801    0.0789    9.7181 O   0  0  0  0  0  0  0  0  0  0  0  0
   19.2472    0.8196    9.7114 N   0  0  0  0  0  0  0  0  0  0  0  0
   20.0903    0.7766   10.2840 H   0  0  0  0  0  0  0  0  0  0  0  0
   18.9932    1.7947    9.5529 H   0  0  0  0  0  0  0  0  0  0  0  0
   16.1093    4.4602   13.5561 N   0  0  0  0  0  0  0  0  0  0  0  0
   15.3591    4.2370   14.2101 H   0  0  0  0  0  0  0  0  0  0  0  0
   16.0727    5.8699   13.3150 C   0  0  0  0  0  0  0  0  0  0  0  0
   14.9869    6.6095   14.0273 C   0  0  0  0  0  0  0  0  0  0  0  0
  1  2  1  0  0  0
  1  9  1  0  0  0
  2  3  2  0  0  0
  2 13  1  0  0  0
  3  4  1  0  0  0
  4  5  1  0  0  0
  4  9  2  0  0  0
  5  6  1  0  0  0
  5 19  1  0  0  0
  6  7  1  0  0  0
  7  8  1  0  0  0
  7 10  1  0  0  0
  8  9  1  0  0  0
  8 11  2  0  0  0
  8 12  2  0  0  0
 13 14  2  0  0  0
 13 15  2  0  0  0
 13 16  1  0  0  0
 19 21  1  0  0  0
 21 22  1  0  0  0
 16 17  1  0  0  0
 16 18  1  0  0  0
 19 20  1  0  0  0
M  END
> <minimizedAffinity>
-6.82625

$$$$
4M2W_ETS_A_302


 22 23  0  0  0  0  0  0  0  0999 V2000
   16.7801    1.5176   14.8627 S   0  0  0  0  0  0  0  0  0  0  0  0
   15.8371    2.2740   16.0682 C   0  0  0  0  0  0  0  0  0  0  0  0
   15.6442    3.7005   15.8268 C   0  0  0  0  0  0  0  0  0  0  0  0
   16.3750    3.9665   14.6151 C   0  0  0  0  0  0  0  0  0  0  0  0
   16.3339    5.4136   14.1663 C   0  0  0  0  0  0  0  0  0  0  0  0
   16.6718    5.5470   12.6935 C   0  0  0  0  0  0  0  0  0  0  0  0
   17.9158    4.8218   12.2815 C   0  0  0  0  0  0  0  0  0  0  0  0
   17.8594    3.0763   12.5439 S   0  0  0  0  0  0  0  0  0  0  0  0
   16.9819    2.9085   14.0283 C   0  0  0  0  0  0  0  0  0  0  0  0
   19.0329    5.3729   13.0939 C   0  0  0  0  0  0  0  0  0  0  0  0
   17.0689    2.4756   11.4781 O   0  0  0  0  0  0  0  0  0  0  0  0
   19.1944    2.5616   12.7133 O   0  0  0  0  0  0  0  0  0  0  0  0
   15.1628    1.2745   17.3529 S   0  0  0  0  0  0  0  0  0  0  0  0
   15.3460    2.0283   18.5712 O   0  0  0  0  0  0  0  0  0  0  0  0
   13.7455    1.0994   16.9776 O   0  0  0  0  0  0  0  0  0  0  0  0
   15.9833   -0.0920   17.4335 N   0  0  0  0  0  0  0  0  0  0  0  0
   16.9487    0.1061   17.6965 H   0  0  0  0  0  0  0  0  0  0  0  0
   15.9665   -0.5528   16.5237 H   0  0  0  0  0  0  0  0  0  0  0  0
   17.2043    6.1010   15.0935 N   0  0  0  0  0  0  0  0  0  0  0  0
   18.1214    6.1851   14.6552 H   0  0  0  0  0  0  0  0  0  0  0  0
   16.7918    7.4103   15.4964 C   0  0  0  0  0  0  0  0  0  0  0  0
   15.3863    7.7725   15.1405 C   0  0  0  0  0  0  0  0  0  0  0  0
  1  2  1  0  0  0
  1  9  1  0  0  0
  2  3  2  0  0  0
  2 13  1  0  0  0
  3  4  1  0  0  0
  4  5  1  0  0  0
  4  9  2  0  0  0
  5  6  1  0  0  0
  5 19  1  0  0  0
  6  7  1  0  0  0
  7  8  1  0  0  0
  7 10  1  0  0  0
  8  9  1  0  0  0
  8 11  2  0  0  0
  8 12  2  0  0  0
 13 14  2  0  0  0
 13 15  2  0  0  0
 13 16  1  0  0  0
 19 21  1  0  0  0
 21 22  1  0  0  0
 16 17  1  0  0  0
 16 18  1  0  0  0
 19 20  1  0  0  0
M  END
> <minimizedAffinity>
-6.82454

$$$$
4M2W_ETS_A_302


 22 23  0  0  0  0  0  0  0  0999 V2000
   15.9124    3.3970   15.5882 S   0  0  0  0  0  0  0  0  0  0  0  0
   16.0324    1.7169   15.8659 C   0  0  0  0  0  0  0  0  0  0  0  0
   16.8281    1.0292   14.8538 C   0  0  0  0  0  0  0  0  0  0  0  0
   17.2196    2.0647   13.9333 C   0  0  0  0  0  0  0  0  0  0  0  0
   18.0555    1.5790   12.7660 C   0  0  0  0  0  0  0  0  0  0  0  0
   18.8329    2.7156   12.1299 C   0  0  0  0  0  0  0  0  0  0  0  0
   18.0066    3.9254   11.8192 C   0  0  0  0  0  0  0  0  0  0  0  0
   17.2508    4.6707   13.2305 S   0  0  0  0  0  0  0  0  0  0  0  0
   16.8156    3.3225   14.2279 C   0  0  0  0  0  0  0  0  0  0  0  0
   16.9259    3.4914   10.8944 C   0  0  0  0  0  0  0  0  0  0  0  0
   18.2592    5.4507   13.9352 O   0  0  0  0  0  0  0  0  0  0  0  0
   16.0609    5.3795   12.8338 O   0  0  0  0  0  0  0  0  0  0  0  0
   15.2937    1.0546   17.3218 S   0  0  0  0  0  0  0  0  0  0  0  0
   13.8827    0.9503   17.0311 O   0  0  0  0  0  0  0  0  0  0  0  0
   15.9537   -0.2532   17.5072 O   0  0  0  0  0  0  0  0  0  0  0  0
   15.5236    2.0714   18.5302 N   0  0  0  0  0  0  0  0  0  0  0  0
   15.0411    2.9482   18.3332 H   0  0  0  0  0  0  0  0  0  0  0  0
   16.5219    2.2497   18.6393 H   0  0  0  0  0  0  0  0  0  0  0  0
   17.1144    0.8850   11.9159 N   0  0  0  0  0  0  0  0  0  0  0  0
   16.6624    1.5791   11.3207 H   0  0  0  0  0  0  0  0  0  0  0  0
   17.6581   -0.1300   11.0667 C   0  0  0  0  0  0  0  0  0  0  0  0
   17.9934   -1.4173   11.7477 C   0  0  0  0  0  0  0  0  0  0  0  0
  1  2  1  0  0  0
  1  9  1  0  0  0
  2  3  2  0  0  0
  2 13  1  0  0  0
  3  4  1  0  0  0
  4  5  1  0  0  0
  4  9  2  0  0  0
  5  6  1  0  0  0
  5 19  1  0  0  0
  6  7  1  0  0  0
  7  8  1  0  0  0
  7 10  1  0  0  0
  8  9  1  0  0  0
  8 11  2  0  0  0
  8 12  2  0  0  0
 13 14  2  0  0  0
 13 15  2  0  0  0
 13 16  1  0  0  0
 19 21  1  0  0  0
 21 22  1  0  0  0
 16 17  1  0  0  0
 16 18  1  0  0  0
 19 20  1  0  0  0
M  END
> <minimizedAffinity>
-6.64481

$$$$
4M2W_ETS_A_302


 22 23  0  0  0  0  0  0  0  0999 V2000
   17.3980    3.1429   11.0319 S   0  0  0  0  0  0  0  0  0  0  0  0
   17.1730    1.6021   11.7319 C   0  0  0  0  0  0  0  0  0  0  0  0
   16.8339    1.6665   13.1501 C   0  0  0  0  0  0  0  0  0  0  0  0
   16.8370    3.0722   13.4614 C   0  0  0  0  0  0  0  0  0  0  0  0
   16.5221    3.3915   14.9093 C   0  0  0  0  0  0  0  0  0  0  0  0
   16.0592    4.8268   15.0724 C   0  0  0  0  0  0  0  0  0  0  0  0
   16.9456    5.8362   14.4100 C   0  0  0  0  0  0  0  0  0  0  0  0
   17.0922    5.6375   12.6614 S   0  0  0  0  0  0  0  0  0  0  0  0
   17.0981    3.9193   12.4386 C   0  0  0  0  0  0  0  0  0  0  0  0
   18.3002    5.6862   15.0050 C   0  0  0  0  0  0  0  0  0  0  0  0
   15.8913    6.1730   12.0346 O   0  0  0  0  0  0  0  0  0  0  0  0
   18.3451    6.1857   12.2080 O   0  0  0  0  0  0  0  0  0  0  0  0
   17.2816    0.1857   10.6898 S   0  0  0  0  0  0  0  0  0  0  0  0
   17.2300   -0.9549   11.5744 O   0  0  0  0  0  0  0  0  0  0  0  0
   16.1082    0.2927    9.7998 O   0  0  0  0  0  0  0  0  0  0  0  0
   18.6800    0.2116    9.9212 N   0  0  0  0  0  0  0  0  0  0  0  0
   19.4405    0.1340   10.5964 H   0  0  0  0  0  0  0  0  0  0  0  0
   18.7694    1.0883    9.4075 H   0  0  0  0  0  0  0  0  0  0  0  0
   17.7182    3.0130   15.6278 N   0  0  0  0  0  0  0  0  0  0  0  0
   18.0019    3.8082   16.2001 H   0  0  0  0  0  0  0  0  0  0  0  0
   17.6064    1.8749   16.4873 C   0  0  0  0  0  0  0  0  0  0  0  0
   16.2628    1.6781   17.1114 C   0  0  0  0  0  0  0  0  0  0  0  0
  1  2  1  0  0  0
  1  9  1  0  0  0
  2  3  2  0  0  0
  2 13  1  0  0  0
  3  4  1  0  0  0
  4  5  1  0  0  0
  4  9  2  0  0  0
  5  6  1  0  0  0
  5 19  1  0  0  0
  6  7  1  0  0  0
  7  8  1  0  0  0
  7 10  1  0  0  0
  8  9  1  0  0  0
  8 11  2  0  0  0
  8 12  2  0  0  0
 13 14  2  0  0  0
 13 15  2  0  0  0
 13 16  1  0  0  0
 19 21  1  0  0  0
 21 22  1  0  0  0
 16 17  1  0  0  0
 16 18  1  0  0  0
 19 20  1  0  0  0
M  END
> <minimizedAffinity>
-6.57778

$$$$
4M2W_ETS_A_302


 22 23  0  0  0  0  0  0  0  0999 V2000
   15.1009    3.7276   15.9199 S   0  0  0  0  0  0  0  0  0  0  0  0
   16.1210    2.3653   16.0542 C   0  0  0  0  0  0  0  0  0  0  0  0
   17.3732    2.5187   15.3201 C   0  0  0  0  0  0  0  0  0  0  0  0
   17.2756    3.8149   14.7011 C   0  0  0  0  0  0  0  0  0  0  0  0
   18.4753    4.1952   13.8564 C   0  0  0  0  0  0  0  0  0  0  0  0
   18.5527    5.6956   13.6470 C   0  0  0  0  0  0  0  0  0  0  0  0
   17.2697    6.3179   13.1892 C   0  0  0  0  0  0  0  0  0  0  0  0
   15.9237    6.1191   14.3150 S   0  0  0  0  0  0  0  0  0  0  0  0
   16.1542    4.5275   14.9594 C   0  0  0  0  0  0  0  0  0  0  0  0
   16.8979    5.6615   11.9076 C   0  0  0  0  0  0  0  0  0  0  0  0
   16.0857    7.0769   15.4004 O   0  0  0  0  0  0  0  0  0  0  0  0
   14.6737    6.1725   13.6006 O   0  0  0  0  0  0  0  0  0  0  0  0
   15.6077    1.0344   17.0882 S   0  0  0  0  0  0  0  0  0  0  0  0
   16.1422   -0.1615   16.4797 O   0  0  0  0  0  0  0  0  0  0  0  0
   16.2028    1.3402   18.4045 O   0  0  0  0  0  0  0  0  0  0  0  0
   14.0132    0.9697   17.0992 N   0  0  0  0  0  0  0  0  0  0  0  0
   13.6751    0.7553   16.1611 H   0  0  0  0  0  0  0  0  0  0  0  0
   13.6384    1.8700   17.3983 H   0  0  0  0  0  0  0  0  0  0  0  0
   18.3480    3.3828   12.6673 N   0  0  0  0  0  0  0  0  0  0  0  0
   17.6832    3.8434   12.0458 H   0  0  0  0  0  0  0  0  0  0  0  0
   19.5501    3.1525   11.9268 C   0  0  0  0  0  0  0  0  0  0  0  0
   19.7386    1.7526   11.4386 C   0  0  0  0  0  0  0  0  0  0  0  0
  1  2  1  0  0  0
  1  9  1  0  0  0
  2  3  2  0  0  0
  2 13  1  0  0  0
  3  4  1  0  0  0
  4  5  1  0  0  0
  4  9  2  0  0  0
  5  6  1  0  0  0
  5 19  1  0  0  0
  6  7  1  0  0  0
  7  8  1  0  0  0
  7 10  1  0  0  0
  8  9  1  0  0  0
  8 11  2  0  0  0
  8 12  2  0  0  0
 13 14  2  0  0  0
 13 15  2  0  0  0
 13 16  1  0  0  0
 19 21  1  0  0  0
 21 22  1  0  0  0
 16 17  1  0  0  0
 16 18  1  0  0  0
 19 20  1  0  0  0
M  END
> <minimizedAffinity>
-6.56291

$$$$
4M2W_ETS_A_302


 22 23  0  0  0  0  0  0  0  0999 V2000
   17.1716    0.2811   13.8201 S   0  0  0  0  0  0  0  0  0  0  0  0
   16.9525    1.5695   14.9186 C   0  0  0  0  0  0  0  0  0  0  0  0
   17.3659    2.8583   14.3723 C   0  0  0  0  0  0  0  0  0  0  0  0
   17.8537    2.5543   13.0522 C   0  0  0  0  0  0  0  0  0  0  0  0
   18.3628    3.7568   12.2826 C   0  0  0  0  0  0  0  0  0  0  0  0
   18.3932    3.4873   10.7901 C   0  0  0  0  0  0  0  0  0  0  0  0
   19.0614    2.2013   10.4125 C   0  0  0  0  0  0  0  0  0  0  0  0
   18.2942    0.7596   11.0847 S   0  0  0  0  0  0  0  0  0  0  0  0
   17.7823    1.2601   12.6624 C   0  0  0  0  0  0  0  0  0  0  0  0
   20.4545    2.2639   10.9290 C   0  0  0  0  0  0  0  0  0  0  0  0
   17.1072    0.4591   10.2957 O   0  0  0  0  0  0  0  0  0  0  0  0
   19.2622   -0.3005   11.2067 O   0  0  0  0  0  0  0  0  0  0  0  0
   16.2038    1.2236   16.4754 S   0  0  0  0  0  0  0  0  0  0  0  0
   16.0722   -0.2135   16.5349 O   0  0  0  0  0  0  0  0  0  0  0  0
   17.1509    1.7686   17.4685 O   0  0  0  0  0  0  0  0  0  0  0  0
   14.7597    1.9015   16.5200 N   0  0  0  0  0  0  0  0  0  0  0  0
   14.1627    1.4769   15.8102 H   0  0  0  0  0  0  0  0  0  0  0  0
   14.8475    2.9010   16.3368 H   0  0  0  0  0  0  0  0  0  0  0  0
   19.6273    4.0730   12.9078 N   0  0  0  0  0  0  0  0  0  0  0  0
   20.3696    3.7158   12.3062 H   0  0  0  0  0  0  0  0  0  0  0  0
   19.8869    5.4598   13.1443 C   0  0  0  0  0  0  0  0  0  0  0  0
   18.6742    6.3291   13.2281 C   0  0  0  0  0  0  0  0  0  0  0  0
  1  2  1  0  0  0
  1  9  1  0  0  0
  2  3  2  0  0  0
  2 13  1  0  0  0
  3  4  1  0  0  0
  4  5  1  0  0  0
  4  9  2  0  0  0
  5  6  1  0  0  0
  5 19  1  0  0  0
  6  7  1  0  0  0
  7  8  1  0  0  0
  7 10  1  0  0  0
  8  9  1  0  0  0
  8 11  2  0  0  0
  8 12  2  0  0  0
 13 14  2  0  0  0
 13 15  2  0  0  0
 13 16  1  0  0  0
 19 21  1  0  0  0
 21 22  1  0  0  0
 16 17  1  0  0  0
 16 18  1  0  0  0
 19 20  1  0  0  0
M  END
> <minimizedAffinity>
-6.22276

$$$$
4M2W_ETS_A_302


 22 23  0  0  0  0  0  0  0  0999 V2000
   17.3400    0.9246   13.1148 S   0  0  0  0  0  0  0  0  0  0  0  0
   17.1974    1.7894   14.5799 C   0  0  0  0  0  0  0  0  0  0  0  0
   17.2177    3.2364   14.3897 C   0  0  0  0  0  0  0  0  0  0  0  0
   17.3829    3.4145   12.9706 C   0  0  0  0  0  0  0  0  0  0  0  0
   17.4497    4.8623   12.5268 C   0  0  0  0  0  0  0  0  0  0  0  0
   17.1296    5.0050   11.0510 C   0  0  0  0  0  0  0  0  0  0  0  0
   17.8889    4.0660   10.1651 C   0  0  0  0  0  0  0  0  0  0  0  0
   17.5937    2.3566   10.4963 S   0  0  0  0  0  0  0  0  0  0  0  0
   17.4394    2.2892   12.2206 C   0  0  0  0  0  0  0  0  0  0  0  0
   19.3356    4.3331   10.3822 C   0  0  0  0  0  0  0  0  0  0  0  0
   16.3118    1.9886    9.9105 O   0  0  0  0  0  0  0  0  0  0  0  0
   18.7301    1.5729   10.0839 O   0  0  0  0  0  0  0  0  0  0  0  0
   16.9619    0.8786   16.0695 S   0  0  0  0  0  0  0  0  0  0  0  0
   16.9444   -0.5117   15.6787 O   0  0  0  0  0  0  0  0  0  0  0  0
   18.1225    1.2386   16.9085 O   0  0  0  0  0  0  0  0  0  0  0  0
   15.5548    1.2793   16.7070 N   0  0  0  0  0  0  0  0  0  0  0  0
   14.8038    1.0014   16.0753 H   0  0  0  0  0  0  0  0  0  0  0  0
   15.5219    2.2886   16.8511 H   0  0  0  0  0  0  0  0  0  0  0  0
   18.7588    5.3065   12.9498 N   0  0  0  0  0  0  0  0  0  0  0  0
   19.3747    5.2772   12.1372 H   0  0  0  0  0  0  0  0  0  0  0  0
   18.8314    6.6230   13.5049 C   0  0  0  0  0  0  0  0  0  0  0  0
   17.8755    6.8971   14.6204 C   0  0  0  0  0  0  0  0  0  0  0  0
  1  2  1  0  0  0
  1  9  1  0  0  0
  2  3  2  0  0  0
  2 13  1  0  0  0
  3  4  1  0  0  0
  4  5  1  0  0  0
  4  9  2  0  0  0
  5  6  1  0  0  0
  5 19  1  0  0  0
  6  7  1  0  0  0
  7  8  1  0  0  0
  7 10  1  0  0  0
  8  9  1  0  0  0
  8 11  2  0  0  0
  8 12  2  0  0  0
 13 14  2  0  0  0
 13 15  2  0  0  0
 13 16  1  0  0  0
 19 21  1  0  0  0
 21 22  1  0  0  0
 16 17  1  0  0  0
 16 18  1  0  0  0
 19 20  1  0  0  0
M  END
> <minimizedAffinity>
-6.22052

$$$$
4M2W_ETS_A_302


 22 23  0  0  0  0  0  0  0  0999 V2000
   17.1799    1.3371   13.3634 S   0  0  0  0  0  0  0  0  0  0  0  0
   17.2452    1.5842   11.6755 C   0  0  0  0  0  0  0  0  0  0  0  0
   17.3980    2.9897   11.3125 C   0  0  0  0  0  0  0  0  0  0  0  0
   17.4142    3.6904   12.5702 C   0  0  0  0  0  0  0  0  0  0  0  0
   17.5500    5.1948   12.4448 C   0  0  0  0  0  0  0  0  0  0  0  0
   18.0485    5.8160   13.7358 C   0  0  0  0  0  0  0  0  0  0  0  0
   17.3005    5.3765   14.9566 C   0  0  0  0  0  0  0  0  0  0  0  0
   17.3759    3.6400   15.2687 S   0  0  0  0  0  0  0  0  0  0  0  0
   17.3258    2.9324   13.6880 C   0  0  0  0  0  0  0  0  0  0  0  0
   15.8744    5.7455   14.7525 C   0  0  0  0  0  0  0  0  0  0  0  0
   18.6704    3.3344   15.8627 O   0  0  0  0  0  0  0  0  0  0  0  0
   16.2179    3.2248   16.0186 O   0  0  0  0  0  0  0  0  0  0  0  0
   17.2137    0.1729   10.6214 S   0  0  0  0  0  0  0  0  0  0  0  0
   18.4584    0.2041    9.8894 O   0  0  0  0  0  0  0  0  0  0  0  0
   17.1037   -0.9740   11.5450 O   0  0  0  0  0  0  0  0  0  0  0  0
   15.9872    0.3071    9.6092 N   0  0  0  0  0  0  0  0  0  0  0  0
   16.1314    1.1167    9.0058 H   0  0  0  0  0  0  0  0  0  0  0  0
   15.1223    0.4260   10.1368 H   0  0  0  0  0  0  0  0  0  0  0  0
   16.2550    5.6333   11.9749 N   0  0  0  0  0  0  0  0  0  0  0  0
   15.6523    5.7514   12.7892 H   0  0  0  0  0  0  0  0  0  0  0  0
   16.2319    6.8570   11.2341 C   0  0  0  0  0  0  0  0  0  0  0  0
   15.0720    7.0170   10.3055 C   0  0  0  0  0  0  0  0  0  0  0  0
  1  2  1  0  0  0
  1  9  1  0  0  0
  2  3  2  0  0  0
  2 13  1  0  0  0
  3  4  1  0  0  0
  4  5  1  0  0  0
  4  9  2  0  0  0
  5  6  1  0  0  0
  5 19  1  0  0  0
  6  7  1  0  0  0
  7  8  1  0  0  0
  7 10  1  0  0  0
  8  9  1  0  0  0
  8 11  2  0  0  0
  8 12  2  0  0  0
 13 14  2  0  0  0
 13 15  2  0  0  0
 13 16  1  0  0  0
 19 21  1  0  0  0
 21 22  1  0  0  0
 16 17  1  0  0  0
 16 18  1  0  0  0
 19 20  1  0  0  0
M  END
> <minimizedAffinity>
-6.08490

$$$$
4M2W_ETS_A_302


 22 23  0  0  0  0  0  0  0  0999 V2000
   18.2105    5.5927   12.9525 S   0  0  0  0  0  0  0  0  0  0  0  0
   17.0035    4.5375   13.5393 C   0  0  0  0  0  0  0  0  0  0  0  0
   17.2008    3.1556   13.1128 C   0  0  0  0  0  0  0  0  0  0  0  0
   18.3843    3.1931   12.2938 C   0  0  0  0  0  0  0  0  0  0  0  0
   18.7844    1.8513   11.7132 C   0  0  0  0  0  0  0  0  0  0  0  0
   20.2429    1.8403   11.2966 C   0  0  0  0  0  0  0  0  0  0  0  0
   20.6485    3.0090   10.4524 C   0  0  0  0  0  0  0  0  0  0  0  0
   20.4474    4.5774   11.2387 S   0  0  0  0  0  0  0  0  0  0  0  0
   18.9917    4.3953   12.1604 C   0  0  0  0  0  0  0  0  0  0  0  0
   19.7905    2.9902    9.2379 C   0  0  0  0  0  0  0  0  0  0  0  0
   21.5523    4.7720   12.1678 O   0  0  0  0  0  0  0  0  0  0  0  0
   20.2627    5.6047   10.2456 O   0  0  0  0  0  0  0  0  0  0  0  0
   15.7708    5.1917   14.6146 S   0  0  0  0  0  0  0  0  0  0  0  0
   16.4438    6.1801   15.4247 O   0  0  0  0  0  0  0  0  0  0  0  0
   14.7580    5.7667   13.7069 O   0  0  0  0  0  0  0  0  0  0  0  0
   15.2148    4.0187   15.5429 N   0  0  0  0  0  0  0  0  0  0  0  0
   15.9661    3.6722   16.1396 H   0  0  0  0  0  0  0  0  0  0  0  0
   14.8668    3.2586   14.9585 H   0  0  0  0  0  0  0  0  0  0  0  0
   17.8130    1.6083   10.6705 N   0  0  0  0  0  0  0  0  0  0  0  0
   18.3089    1.5998    9.7792 H   0  0  0  0  0  0  0  0  0  0  0  0
   17.0713    0.3888   10.7685 C   0  0  0  0  0  0  0  0  0  0  0  0
   17.4390   -0.4889   11.9208 C   0  0  0  0  0  0  0  0  0  0  0  0
  1  2  1  0  0  0
  1  9  1  0  0  0
  2  3  2  0  0  0
  2 13  1  0  0  0
  3  4  1  0  0  0
  4  5  1  0  0  0
  4  9  2  0  0  0
  5  6  1  0  0  0
  5 19  1  0  0  0
  6  7  1  0  0  0
  7  8  1  0  0  0
  7 10  1  0  0  0
  8  9  1  0  0  0
  8 11  2  0  0  0
  8 12  2  0  0  0
 13 14  2  0  0  0
 13 15  2  0  0  0
 13 16  1  0  0  0
 19 21  1  0  0  0
 21 22  1  0  0  0
 16 17  1  0  0  0
 16 18  1  0  0  0
 19 20  1  0  0  0
M  END
> <minimizedAffinity>
-5.67975

$$$$
4M2W_ETS_A_302


 22 23  0  0  0  0  0  0  0  0999 V2000
   19.9615    5.1999   13.1568 S   0  0  0  0  0  0  0  0  0  0  0  0
   20.9919    4.5396   11.9665 C   0  0  0  0  0  0  0  0  0  0  0  0
   20.4122    3.3823   11.2920 C   0  0  0  0  0  0  0  0  0  0  0  0
   19.1320    3.1964   11.9239 C   0  0  0  0  0  0  0  0  0  0  0  0
   18.3379    2.0203   11.3914 C   0  0  0  0  0  0  0  0  0  0  0  0
   16.8615    2.1577   11.7117 C   0  0  0  0  0  0  0  0  0  0  0  0
   16.5726    2.4824   13.1449 C   0  0  0  0  0  0  0  0  0  0  0  0
   17.2669    4.0090   13.6980 S   0  0  0  0  0  0  0  0  0  0  0  0
   18.7947    4.0881   12.8847 C   0  0  0  0  0  0  0  0  0  0  0  0
   17.1541    1.3882   13.9673 C   0  0  0  0  0  0  0  0  0  0  0  0
   16.4339    5.0986   13.2073 O   0  0  0  0  0  0  0  0  0  0  0  0
   17.4817    3.9639   15.1219 O   0  0  0  0  0  0  0  0  0  0  0  0
   22.5232    5.3487   11.6432 S   0  0  0  0  0  0  0  0  0  0  0  0
   22.5086    5.6637   10.2337 O   0  0  0  0  0  0  0  0  0  0  0  0
   22.4997    6.5421   12.5124 O   0  0  0  0  0  0  0  0  0  0  0  0
   23.7202    4.3419   11.9603 N   0  0  0  0  0  0  0  0  0  0  0  0
   23.6726    3.5460   11.3242 H   0  0  0  0  0  0  0  0  0  0  0  0
   23.6421    4.0132   12.9227 H   0  0  0  0  0  0  0  0  0  0  0  0
   19.0107    0.8601   11.9309 N   0  0  0  0  0  0  0  0  0  0  0  0
   18.5906    0.6501   12.8364 H   0  0  0  0  0  0  0  0  0  0  0  0
   18.9549   -0.3293   11.1379 C   0  0  0  0  0  0  0  0  0  0  0  0
   18.0721   -1.4100   11.6726 C   0  0  0  0  0  0  0  0  0  0  0  0
  1  2  1  0  0  0
  1  9  1  0  0  0
  2  3  2  0  0  0
  2 13  1  0  0  0
  3  4  1  0  0  0
  4  5  1  0  0  0
  4  9  2  0  0  0
  5  6  1  0  0  0
  5 19  1  0  0  0
  6  7  1  0  0  0
  7  8  1  0  0  0
  7 10  1  0  0  0
  8  9  1  0  0  0
  8 11  2  0  0  0
  8 12  2  0  0  0
 13 14  2  0  0  0
 13 15  2  0  0  0
 13 16  1  0  0  0
 19 21  1  0  0  0
 21 22  1  0  0  0
 16 17  1  0  0  0
 16 18  1  0  0  0
 19 20  1  0  0  0
M  END
> <minimizedAffinity>
-5.67023

$$$$
