3L4Z_SSD_A_1001


 25 25  0  0  0  0  0  0  0  0999 V2000
   44.3123   90.7079   34.2189 C   0  0  0  0  0  0  0  0  0  0  0  0
   45.5183   93.9949   35.6497 C   0  0  0  0  0  0  0  0  0  0  0  0
   46.4141   93.3947   34.5709 C   0  0  0  0  0  0  0  0  0  0  0  0
   45.4716   93.2132   33.3629 C   0  0  0  0  0  0  0  0  0  0  0  0
   44.3749   92.9608   35.8511 C   0  0  0  0  0  0  0  0  0  0  0  0
   43.9813   92.4990   34.1502 S   0  0  0  0  0  0  0  0  0  0  0  0
   47.4462   94.3796   34.3041 O   0  0  0  0  0  0  0  0  0  0  0  0
   46.2901   94.1160   36.8441 O   0  0  0  0  0  0  0  0  0  0  0  0
   47.0332   95.2266   34.0739 H   0  0  0  0  0  0  0  0  0  0  0  0
   46.6482   93.2479   37.0871 H   0  0  0  0  0  0  0  0  0  0  0  0
   43.1987   93.5504   36.6526 C   0  0  0  0  0  0  0  0  0  0  0  0
   42.7283   94.7498   36.0579 O   0  0  0  0  0  0  0  0  0  0  0  0
   43.4428   95.4057   36.0444 H   0  0  0  0  0  0  0  0  0  0  0  0
   43.4540   89.8270   33.3203 C   0  0  0  0  0  0  0  0  0  0  0  0
   43.8213   89.9930   31.9591 O   0  0  0  0  0  0  0  0  0  0  0  0
   44.7504   89.7404   31.8417 H   0  0  0  0  0  0  0  0  0  0  0  0
   43.6510   88.3587   33.7233 C   0  0  0  0  0  0  0  0  0  0  0  0
   44.9041   88.2036   34.5837 C   0  0  0  0  0  0  0  0  0  0  0  0
   45.8385   87.5136   33.7650 O   0  0  0  0  0  0  0  0  0  0  0  0
   45.4609   86.6638   33.4890 H   0  0  0  0  0  0  0  0  0  0  0  0
   43.8120   87.5612   32.5364 O   0  0  0  0  0  0  0  0  0  0  0  0
   42.8747   86.4960   32.2195 S   0  0  0  0  0  0  0  0  0  0  0  0
   43.2941   85.6967   31.0288 O   0  0  0  0  0  0  0  0  0  0  0  0
   42.8297   85.5249   33.3865 O   0  0  0  0  0  0  0  0  0  0  0  0
   41.5219   87.0865   31.9578 O   0  0  0  0  0  0  0  0  0  0  0  0
  2  3  1  0  0  0
  2  5  1  0  0  0
  2  8  1  0  0  0
  3  4  1  0  0  0
  3  7  1  0  0  0
  4  6  1  0  0  0
  5  6  1  0  0  0
  5 11  1  0  0  0
  6  1  1  0  0  0
 11 12  1  0  0  0
  1 14  1  0  0  0
 14 17  1  0  0  0
 14 15  1  0  0  0
 17 18  1  0  0  0
 17 21  1  0  0  0
 18 19  1  0  0  0
 21 22  1  0  0  0
 22 23  1  0  0  0
 22 24  1  0  0  0
 22 25  1  0  0  0
  7  9  1  0  0  0
  8 10  1  0  0  0
 12 13  1  0  0  0
 19 20  1  0  0  0
 15 16  1  0  0  0
M  CHG 1   6   1
M  CHG 1  23  -1
M  CHG 1  24  -1
M  CHG 1  25  -1
M  END
> <minimizedAffinity>
-7.11330

$$$$
3L4Z_SSD_A_1001


 25 25  0  0  0  0  0  0  0  0999 V2000
   44.4239   90.7152   34.1855 C   0  0  0  0  0  0  0  0  0  0  0  0
   45.5654   94.0213   35.6254 C   0  0  0  0  0  0  0  0  0  0  0  0
   46.4690   93.4451   34.5400 C   0  0  0  0  0  0  0  0  0  0  0  0
   45.5252   93.2485   33.3354 C   0  0  0  0  0  0  0  0  0  0  0  0
   44.4455   92.9619   35.8273 C   0  0  0  0  0  0  0  0  0  0  0  0
   44.0542   92.4990   34.1261 S   0  0  0  0  0  0  0  0  0  0  0  0
   47.4786   94.4531   34.2730 O   0  0  0  0  0  0  0  0  0  0  0  0
   46.3398   94.1538   36.8169 O   0  0  0  0  0  0  0  0  0  0  0  0
   47.0464   95.2920   34.0484 H   0  0  0  0  0  0  0  0  0  0  0  0
   46.7176   93.2925   37.0545 H   0  0  0  0  0  0  0  0  0  0  0  0
   43.2604   93.5226   36.6365 C   0  0  0  0  0  0  0  0  0  0  0  0
   42.7361   94.6918   36.0271 O   0  0  0  0  0  0  0  0  0  0  0  0
   43.4250   95.3736   35.9896 H   0  0  0  0  0  0  0  0  0  0  0  0
   43.5172   89.8093   33.3627 C   0  0  0  0  0  0  0  0  0  0  0  0
   43.7110   90.0352   31.9745 O   0  0  0  0  0  0  0  0  0  0  0  0
   44.6327   89.8429   31.7412 H   0  0  0  0  0  0  0  0  0  0  0  0
   43.8438   88.3450   33.6886 C   0  0  0  0  0  0  0  0  0  0  0  0
   43.5135   87.4455   32.4984 C   0  0  0  0  0  0  0  0  0  0  0  0
   44.6988   87.4090   31.7152 O   0  0  0  0  0  0  0  0  0  0  0  0
   44.9408   88.3109   31.4528 H   0  0  0  0  0  0  0  0  0  0  0  0
   43.0497   87.9232   34.8121 O   0  0  0  0  0  0  0  0  0  0  0  0
   43.6720   87.3405   35.9897 S   0  0  0  0  0  0  0  0  0  0  0  0
   45.1320   87.6456   36.0788 O   0  0  0  0  0  0  0  0  0  0  0  0
   43.0362   87.9496   37.2273 O   0  0  0  0  0  0  0  0  0  0  0  0
   43.4859   85.8532   35.9652 O   0  0  0  0  0  0  0  0  0  0  0  0
  2  3  1  0  0  0
  2  5  1  0  0  0
  2  8  1  0  0  0
  3  4  1  0  0  0
  3  7  1  0  0  0
  4  6  1  0  0  0
  5  6  1  0  0  0
  5 11  1  0  0  0
  6  1  1  0  0  0
 11 12  1  0  0  0
  1 14  1  0  0  0
 14 17  1  0  0  0
 14 15  1  0  0  0
 17 18  1  0  0  0
 17 21  1  0  0  0
 18 19  1  0  0  0
 21 22  1  0  0  0
 22 23  1  0  0  0
 22 24  1  0  0  0
 22 25  1  0  0  0
  7  9  1  0  0  0
  8 10  1  0  0  0
 12 13  1  0  0  0
 19 20  1  0  0  0
 15 16  1  0  0  0
M  CHG 1   6   1
M  CHG 1  23  -1
M  CHG 1  24  -1
M  CHG 1  25  -1
M  END
> <minimizedAffinity>
-7.06104

$$$$
3L4Z_SSD_A_1001


 25 25  0  0  0  0  0  0  0  0999 V2000
   44.1405   88.6846   36.2771 C   0  0  0  0  0  0  0  0  0  0  0  0
   45.7446   86.8163   39.1481 C   0  0  0  0  0  0  0  0  0  0  0  0
   44.3679   87.4001   39.4487 C   0  0  0  0  0  0  0  0  0  0  0  0
   43.4608   86.7960   38.3566 C   0  0  0  0  0  0  0  0  0  0  0  0
   46.0685   87.2648   37.6951 C   0  0  0  0  0  0  0  0  0  0  0  0
   44.4921   86.9928   36.8571 S   0  0  0  0  0  0  0  0  0  0  0  0
   44.0048   86.9266   40.7717 O   0  0  0  0  0  0  0  0  0  0  0  0
   46.6760   87.3945   40.0621 O   0  0  0  0  0  0  0  0  0  0  0  0
   44.0566   85.9583   40.7941 H   0  0  0  0  0  0  0  0  0  0  0  0
   46.6478   88.3609   39.9843 H   0  0  0  0  0  0  0  0  0  0  0  0
   47.2605   86.4881   37.1039 C   0  0  0  0  0  0  0  0  0  0  0  0
   48.4076   86.6105   37.9301 O   0  0  0  0  0  0  0  0  0  0  0  0
   48.6598   87.5448   37.9967 H   0  0  0  0  0  0  0  0  0  0  0  0
   44.9016   89.1474   35.0415 C   0  0  0  0  0  0  0  0  0  0  0  0
   45.1706   88.0513   34.1802 O   0  0  0  0  0  0  0  0  0  0  0  0
   44.3342   87.6512   33.8953 H   0  0  0  0  0  0  0  0  0  0  0  0
   44.0546   90.1855   34.2918 C   0  0  0  0  0  0  0  0  0  0  0  0
   43.1895   89.5053   33.2318 C   0  0  0  0  0  0  0  0  0  0  0  0
   43.8531   89.7414   31.9975 O   0  0  0  0  0  0  0  0  0  0  0  0
   43.9437   90.6968   31.8567 H   0  0  0  0  0  0  0  0  0  0  0  0
   44.9281   91.1213   33.6346 O   0  0  0  0  0  0  0  0  0  0  0  0
   44.8996   92.5347   33.9741 S   0  0  0  0  0  0  0  0  0  0  0  0
   45.6051   92.8319   35.2573 O   0  0  0  0  0  0  0  0  0  0  0  0
   45.6383   93.3086   32.8961 O   0  0  0  0  0  0  0  0  0  0  0  0
   43.4757   92.9904   34.0843 O   0  0  0  0  0  0  0  0  0  0  0  0
  2  3  1  0  0  0
  2  5  1  0  0  0
  2  8  1  0  0  0
  3  4  1  0  0  0
  3  7  1  0  0  0
  4  6  1  0  0  0
  5  6  1  0  0  0
  5 11  1  0  0  0
  6  1  1  0  0  0
 11 12  1  0  0  0
  1 14  1  0  0  0
 14 17  1  0  0  0
 14 15  1  0  0  0
 17 18  1  0  0  0
 17 21  1  0  0  0
 18 19  1  0  0  0
 21 22  1  0  0  0
 22 23  1  0  0  0
 22 24  1  0  0  0
 22 25  1  0  0  0
  7  9  1  0  0  0
  8 10  1  0  0  0
 12 13  1  0  0  0
 19 20  1  0  0  0
 15 16  1  0  0  0
M  CHG 1   6   1
M  CHG 1  23  -1
M  CHG 1  24  -1
M  CHG 1  25  -1
M  END
> <minimizedAffinity>
-6.80699

$$$$
3L4Z_SSD_A_1001


 25 25  0  0  0  0  0  0  0  0999 V2000
   45.2490   88.4404   34.4477 C   0  0  0  0  0  0  0  0  0  0  0  0
   46.2409   85.6586   32.0848 C   0  0  0  0  0  0  0  0  0  0  0  0
   47.3381   86.1122   33.0423 C   0  0  0  0  0  0  0  0  0  0  0  0
   46.7058   85.9443   34.4396 C   0  0  0  0  0  0  0  0  0  0  0  0
   45.0317   86.5899   32.3809 C   0  0  0  0  0  0  0  0  0  0  0  0
   45.0356   86.6493   34.1858 S   0  0  0  0  0  0  0  0  0  0  0  0
   48.4528   85.2041   32.8440 O   0  0  0  0  0  0  0  0  0  0  0  0
   46.7080   85.8652   30.7521 O   0  0  0  0  0  0  0  0  0  0  0  0
   48.1509   84.2903   32.9651 H   0  0  0  0  0  0  0  0  0  0  0  0
   46.9526   86.7966   30.6359 H   0  0  0  0  0  0  0  0  0  0  0  0
   43.7287   86.0608   31.7517 C   0  0  0  0  0  0  0  0  0  0  0  0
   43.9217   85.7283   30.3858 O   0  0  0  0  0  0  0  0  0  0  0  0
   44.1935   86.5200   29.8956 H   0  0  0  0  0  0  0  0  0  0  0  0
   44.0620   89.1816   35.0491 C   0  0  0  0  0  0  0  0  0  0  0  0
   44.4384   89.8370   36.2509 O   0  0  0  0  0  0  0  0  0  0  0  0
   45.1400   90.4798   36.0626 H   0  0  0  0  0  0  0  0  0  0  0  0
   43.5589   90.2233   34.0397 C   0  0  0  0  0  0  0  0  0  0  0  0
   42.9466   89.5347   32.8208 C   0  0  0  0  0  0  0  0  0  0  0  0
   43.7964   89.8718   31.7328 O   0  0  0  0  0  0  0  0  0  0  0  0
   43.8380   90.8366   31.6418 H   0  0  0  0  0  0  0  0  0  0  0  0
   44.6679   91.0274   33.5990 O   0  0  0  0  0  0  0  0  0  0  0  0
   44.7726   92.4271   33.9778 S   0  0  0  0  0  0  0  0  0  0  0  0
   45.4844   92.6191   35.2774 O   0  0  0  0  0  0  0  0  0  0  0  0
   45.5994   93.1535   32.9311 O   0  0  0  0  0  0  0  0  0  0  0  0
   43.3985   93.0171   34.0833 O   0  0  0  0  0  0  0  0  0  0  0  0
  2  3  1  0  0  0
  2  5  1  0  0  0
  2  8  1  0  0  0
  3  4  1  0  0  0
  3  7  1  0  0  0
  4  6  1  0  0  0
  5  6  1  0  0  0
  5 11  1  0  0  0
  6  1  1  0  0  0
 11 12  1  0  0  0
  1 14  1  0  0  0
 14 17  1  0  0  0
 14 15  1  0  0  0
 17 18  1  0  0  0
 17 21  1  0  0  0
 18 19  1  0  0  0
 21 22  1  0  0  0
 22 23  1  0  0  0
 22 24  1  0  0  0
 22 25  1  0  0  0
  7  9  1  0  0  0
  8 10  1  0  0  0
 12 13  1  0  0  0
 19 20  1  0  0  0
 15 16  1  0  0  0
M  CHG 1   6   1
M  CHG 1  23  -1
M  CHG 1  24  -1
M  CHG 1  25  -1
M  END
> <minimizedAffinity>
-6.68780

$$$$
3L4Z_SSD_A_1001


 25 25  0  0  0  0  0  0  0  0999 V2000
   44.2573   89.7887   35.9020 C   0  0  0  0  0  0  0  0  0  0  0  0
   43.9742   87.1636   38.6103 C   0  0  0  0  0  0  0  0  0  0  0  0
   42.6678   87.4968   37.8971 C   0  0  0  0  0  0  0  0  0  0  0  0
   42.9819   87.2449   36.4077 C   0  0  0  0  0  0  0  0  0  0  0  0
   45.0329   88.1162   37.9864 C   0  0  0  0  0  0  0  0  0  0  0  0
   44.6242   88.0336   36.2292 S   0  0  0  0  0  0  0  0  0  0  0  0
   41.6781   86.5634   38.4030 O   0  0  0  0  0  0  0  0  0  0  0  0
   43.8044   87.4555   39.9970 O   0  0  0  0  0  0  0  0  0  0  0  0
   41.9966   85.6556   38.2789 H   0  0  0  0  0  0  0  0  0  0  0  0
   43.5397   88.3827   40.1023 H   0  0  0  0  0  0  0  0  0  0  0  0
   46.4708   87.6904   38.3392 C   0  0  0  0  0  0  0  0  0  0  0  0
   46.6985   87.7764   39.7371 O   0  0  0  0  0  0  0  0  0  0  0  0
   46.5754   88.6933   40.0289 H   0  0  0  0  0  0  0  0  0  0  0  0
   44.9905   90.4249   34.7282 C   0  0  0  0  0  0  0  0  0  0  0  0
   44.3979   90.0359   33.4982 O   0  0  0  0  0  0  0  0  0  0  0  0
   43.4730   90.3273   33.4784 H   0  0  0  0  0  0  0  0  0  0  0  0
   44.9212   91.9527   34.8637 C   0  0  0  0  0  0  0  0  0  0  0  0
   43.6287   92.4863   34.2477 C   0  0  0  0  0  0  0  0  0  0  0  0
   43.2866   93.6273   35.0227 O   0  0  0  0  0  0  0  0  0  0  0  0
   43.1847   93.3683   35.9519 H   0  0  0  0  0  0  0  0  0  0  0  0
   46.0344   92.5393   34.1655 O   0  0  0  0  0  0  0  0  0  0  0  0
   46.5059   93.8735   34.4990 S   0  0  0  0  0  0  0  0  0  0  0  0
   45.7657   94.9446   33.7660 O   0  0  0  0  0  0  0  0  0  0  0  0
   46.2566   94.1220   35.9764 O   0  0  0  0  0  0  0  0  0  0  0  0
   47.9654   93.9801   34.1737 O   0  0  0  0  0  0  0  0  0  0  0  0
  2  3  1  0  0  0
  2  5  1  0  0  0
  2  8  1  0  0  0
  3  4  1  0  0  0
  3  7  1  0  0  0
  4  6  1  0  0  0
  5  6  1  0  0  0
  5 11  1  0  0  0
  6  1  1  0  0  0
 11 12  1  0  0  0
  1 14  1  0  0  0
 14 17  1  0  0  0
 14 15  1  0  0  0
 17 18  1  0  0  0
 17 21  1  0  0  0
 18 19  1  0  0  0
 21 22  1  0  0  0
 22 23  1  0  0  0
 22 24  1  0  0  0
 22 25  1  0  0  0
  7  9  1  0  0  0
  8 10  1  0  0  0
 12 13  1  0  0  0
 19 20  1  0  0  0
 15 16  1  0  0  0
M  CHG 1   6   1
M  CHG 1  23  -1
M  CHG 1  24  -1
M  CHG 1  25  -1
M  END
> <minimizedAffinity>
-6.63265

$$$$
3L4Z_SSD_A_1001


 25 25  0  0  0  0  0  0  0  0999 V2000
   44.4038   90.6188   34.0760 C   0  0  0  0  0  0  0  0  0  0  0  0
   45.4187   93.9501   35.5520 C   0  0  0  0  0  0  0  0  0  0  0  0
   46.4035   93.3650   34.5450 C   0  0  0  0  0  0  0  0  0  0  0  0
   45.5532   93.1470   33.2761 C   0  0  0  0  0  0  0  0  0  0  0  0
   44.2918   92.8870   35.6842 C   0  0  0  0  0  0  0  0  0  0  0  0
   44.0309   92.3995   33.9650 S   0  0  0  0  0  0  0  0  0  0  0  0
   47.4253   94.3752   34.3404 O   0  0  0  0  0  0  0  0  0  0  0  0
   46.1013   94.1028   36.7961 O   0  0  0  0  0  0  0  0  0  0  0  0
   47.0072   95.2085   34.0728 H   0  0  0  0  0  0  0  0  0  0  0  0
   46.4644   93.2470   37.0729 H   0  0  0  0  0  0  0  0  0  0  0  0
   43.0470   93.4515   36.3951 C   0  0  0  0  0  0  0  0  0  0  0  0
   43.4156   94.2608   37.5007 O   0  0  0  0  0  0  0  0  0  0  0  0
   43.9122   93.7272   38.1407 H   0  0  0  0  0  0  0  0  0  0  0  0
   43.4663   89.6838   33.3231 C   0  0  0  0  0  0  0  0  0  0  0  0
   43.7947   89.6516   31.9423 O   0  0  0  0  0  0  0  0  0  0  0  0
   44.7035   89.3303   31.8335 H   0  0  0  0  0  0  0  0  0  0  0  0
   43.5938   88.2699   33.9078 C   0  0  0  0  0  0  0  0  0  0  0  0
   43.4711   88.3076   35.4303 C   0  0  0  0  0  0  0  0  0  0  0  0
   42.9654   87.0314   35.7979 O   0  0  0  0  0  0  0  0  0  0  0  0
   42.1169   86.8795   35.3531 H   0  0  0  0  0  0  0  0  0  0  0  0
   44.8852   87.7337   33.5682 O   0  0  0  0  0  0  0  0  0  0  0  0
   45.0075   86.4532   32.8906 S   0  0  0  0  0  0  0  0  0  0  0  0
   44.5016   85.3153   33.7164 O   0  0  0  0  0  0  0  0  0  0  0  0
   44.1485   86.4819   31.6384 O   0  0  0  0  0  0  0  0  0  0  0  0
   46.4466   86.2064   32.5510 O   0  0  0  0  0  0  0  0  0  0  0  0
  2  3  1  0  0  0
  2  5  1  0  0  0
  2  8  1  0  0  0
  3  4  1  0  0  0
  3  7  1  0  0  0
  4  6  1  0  0  0
  5  6  1  0  0  0
  5 11  1  0  0  0
  6  1  1  0  0  0
 11 12  1  0  0  0
  1 14  1  0  0  0
 14 17  1  0  0  0
 14 15  1  0  0  0
 17 18  1  0  0  0
 17 21  1  0  0  0
 18 19  1  0  0  0
 21 22  1  0  0  0
 22 23  1  0  0  0
 22 24  1  0  0  0
 22 25  1  0  0  0
  7  9  1  0  0  0
  8 10  1  0  0  0
 12 13  1  0  0  0
 19 20  1  0  0  0
 15 16  1  0  0  0
M  CHG 1   6   1
M  CHG 1  23  -1
M  CHG 1  24  -1
M  CHG 1  25  -1
M  END
> <minimizedAffinity>
-6.61241

$$$$
3L4Z_SSD_A_1001


 25 25  0  0  0  0  0  0  0  0999 V2000
   44.0390   89.8700   35.5735 C   0  0  0  0  0  0  0  0  0  0  0  0
   45.8523   86.5673   35.2411 C   0  0  0  0  0  0  0  0  0  0  0  0
   45.6851   87.0692   36.6717 C   0  0  0  0  0  0  0  0  0  0  0  0
   44.1622   87.2662   36.8217 C   0  0  0  0  0  0  0  0  0  0  0  0
   45.2367   87.6791   34.3452 C   0  0  0  0  0  0  0  0  0  0  0  0
   43.7328   88.1025   35.2510 S   0  0  0  0  0  0  0  0  0  0  0  0
   46.1779   86.0113   37.5346 O   0  0  0  0  0  0  0  0  0  0  0  0
   47.2498   86.4411   34.9804 O   0  0  0  0  0  0  0  0  0  0  0  0
   45.7136   85.1846   37.3301 H   0  0  0  0  0  0  0  0  0  0  0  0
   47.6863   87.2929   35.1378 H   0  0  0  0  0  0  0  0  0  0  0  0
   45.0099   87.1955   32.9002 C   0  0  0  0  0  0  0  0  0  0  0  0
   44.2477   88.1377   32.1621 O   0  0  0  0  0  0  0  0  0  0  0  0
   43.3805   88.2517   32.5815 H   0  0  0  0  0  0  0  0  0  0  0  0
   44.8188   90.6267   34.5061 C   0  0  0  0  0  0  0  0  0  0  0  0
   44.0883   90.6700   33.2895 O   0  0  0  0  0  0  0  0  0  0  0  0
   43.2442   91.1251   33.4353 H   0  0  0  0  0  0  0  0  0  0  0  0
   45.0753   92.0593   34.9949 C   0  0  0  0  0  0  0  0  0  0  0  0
   43.7689   92.8503   35.0425 C   0  0  0  0  0  0  0  0  0  0  0  0
   43.6589   93.3134   36.3815 O   0  0  0  0  0  0  0  0  0  0  0  0
   43.6654   92.5558   36.9872 H   0  0  0  0  0  0  0  0  0  0  0  0
   45.9722   92.7161   34.0812 O   0  0  0  0  0  0  0  0  0  0  0  0
   46.5789   93.9935   34.4188 S   0  0  0  0  0  0  0  0  0  0  0  0
   46.4720   94.3138   35.8743 O   0  0  0  0  0  0  0  0  0  0  0  0
   48.0641   93.9232   34.1090 O   0  0  0  0  0  0  0  0  0  0  0  0
   45.9152   95.0823   33.6305 O   0  0  0  0  0  0  0  0  0  0  0  0
  2  3  1  0  0  0
  2  5  1  0  0  0
  2  8  1  0  0  0
  3  4  1  0  0  0
  3  7  1  0  0  0
  4  6  1  0  0  0
  5  6  1  0  0  0
  5 11  1  0  0  0
  6  1  1  0  0  0
 11 12  1  0  0  0
  1 14  1  0  0  0
 14 17  1  0  0  0
 14 15  1  0  0  0
 17 18  1  0  0  0
 17 21  1  0  0  0
 18 19  1  0  0  0
 21 22  1  0  0  0
 22 23  1  0  0  0
 22 24  1  0  0  0
 22 25  1  0  0  0
  7  9  1  0  0  0
  8 10  1  0  0  0
 12 13  1  0  0  0
 19 20  1  0  0  0
 15 16  1  0  0  0
M  CHG 1   6   1
M  CHG 1  23  -1
M  CHG 1  24  -1
M  CHG 1  25  -1
M  END
> <minimizedAffinity>
-6.50340

$$$$
3L4Z_SSD_A_1001


 25 25  0  0  0  0  0  0  0  0999 V2000
   44.3596   89.8895   35.8530 C   0  0  0  0  0  0  0  0  0  0  0  0
   43.9478   87.2601   38.5406 C   0  0  0  0  0  0  0  0  0  0  0  0
   42.6586   87.6661   37.8338 C   0  0  0  0  0  0  0  0  0  0  0  0
   42.9557   87.4109   36.3415 C   0  0  0  0  0  0  0  0  0  0  0  0
   45.0527   88.1619   37.9214 C   0  0  0  0  0  0  0  0  0  0  0  0
   44.6361   88.1151   36.1649 S   0  0  0  0  0  0  0  0  0  0  0  0
   41.6233   86.7809   38.3349 O   0  0  0  0  0  0  0  0  0  0  0  0
   43.7966   87.5487   39.9301 O   0  0  0  0  0  0  0  0  0  0  0  0
   41.8941   85.8590   38.2024 H   0  0  0  0  0  0  0  0  0  0  0  0
   43.5804   88.4875   40.0437 H   0  0  0  0  0  0  0  0  0  0  0  0
   46.4676   87.6595   38.2667 C   0  0  0  0  0  0  0  0  0  0  0  0
   46.7976   87.9548   39.6147 O   0  0  0  0  0  0  0  0  0  0  0  0
   46.7775   88.9152   39.7496 H   0  0  0  0  0  0  0  0  0  0  0  0
   44.7956   90.4123   34.4905 C   0  0  0  0  0  0  0  0  0  0  0  0
   44.0741   89.7660   33.4526 O   0  0  0  0  0  0  0  0  0  0  0  0
   43.1261   89.9404   33.5607 H   0  0  0  0  0  0  0  0  0  0  0  0
   44.5319   91.9234   34.4265 C   0  0  0  0  0  0  0  0  0  0  0  0
   45.7883   92.6670   33.9757 C   0  0  0  0  0  0  0  0  0  0  0  0
   45.4661   93.2114   32.7031 O   0  0  0  0  0  0  0  0  0  0  0  0
   45.2128   92.4953   32.0999 H   0  0  0  0  0  0  0  0  0  0  0  0
   44.1693   92.3950   35.7367 O   0  0  0  0  0  0  0  0  0  0  0  0
   43.5905   93.7159   35.9213 S   0  0  0  0  0  0  0  0  0  0  0  0
   42.9091   93.8653   37.2426 O   0  0  0  0  0  0  0  0  0  0  0  0
   44.7088   94.7434   35.9034 O   0  0  0  0  0  0  0  0  0  0  0  0
   42.5984   93.9805   34.8290 O   0  0  0  0  0  0  0  0  0  0  0  0
  2  3  1  0  0  0
  2  5  1  0  0  0
  2  8  1  0  0  0
  3  4  1  0  0  0
  3  7  1  0  0  0
  4  6  1  0  0  0
  5  6  1  0  0  0
  5 11  1  0  0  0
  6  1  1  0  0  0
 11 12  1  0  0  0
  1 14  1  0  0  0
 14 17  1  0  0  0
 14 15  1  0  0  0
 17 18  1  0  0  0
 17 21  1  0  0  0
 18 19  1  0  0  0
 21 22  1  0  0  0
 22 23  1  0  0  0
 22 24  1  0  0  0
 22 25  1  0  0  0
  7  9  1  0  0  0
  8 10  1  0  0  0
 12 13  1  0  0  0
 19 20  1  0  0  0
 15 16  1  0  0  0
M  CHG 1   6   1
M  CHG 1  23  -1
M  CHG 1  24  -1
M  CHG 1  25  -1
M  END
> <minimizedAffinity>
-6.36228

$$$$
3L4Z_SSD_A_1001


 25 25  0  0  0  0  0  0  0  0999 V2000
   44.0691   88.5224   35.9572 C   0  0  0  0  0  0  0  0  0  0  0  0
   44.1996   86.5171   39.1616 C   0  0  0  0  0  0  0  0  0  0  0  0
   42.8454   86.5224   38.4597 C   0  0  0  0  0  0  0  0  0  0  0  0
   43.1591   86.0025   37.0413 C   0  0  0  0  0  0  0  0  0  0  0  0
   45.1068   87.4425   38.3026 C   0  0  0  0  0  0  0  0  0  0  0  0
   44.6760   86.9379   36.6230 S   0  0  0  0  0  0  0  0  0  0  0  0
   42.0014   85.5993   39.1961 O   0  0  0  0  0  0  0  0  0  0  0  0
   44.0212   87.0723   40.4643 O   0  0  0  0  0  0  0  0  0  0  0  0
   42.4366   84.7339   39.2474 H   0  0  0  0  0  0  0  0  0  0  0  0
   43.6362   87.9594   40.3878 H   0  0  0  0  0  0  0  0  0  0  0  0
   46.5961   87.2878   38.6651 C   0  0  0  0  0  0  0  0  0  0  0  0
   46.8680   87.8372   39.9448 O   0  0  0  0  0  0  0  0  0  0  0  0
   46.6551   88.7836   39.9423 H   0  0  0  0  0  0  0  0  0  0  0  0
   44.8398   89.0990   34.7767 C   0  0  0  0  0  0  0  0  0  0  0  0
   45.1493   88.0813   33.8364 O   0  0  0  0  0  0  0  0  0  0  0  0
   44.3276   87.6866   33.5049 H   0  0  0  0  0  0  0  0  0  0  0  0
   43.9813   90.1744   34.0958 C   0  0  0  0  0  0  0  0  0  0  0  0
   43.0848   89.5472   33.0292 C   0  0  0  0  0  0  0  0  0  0  0  0
   43.7732   89.7377   31.8007 O   0  0  0  0  0  0  0  0  0  0  0  0
   43.9250   90.6852   31.6587 H   0  0  0  0  0  0  0  0  0  0  0  0
   44.8443   91.1335   33.4587 O   0  0  0  0  0  0  0  0  0  0  0  0
   44.9124   92.5067   33.9314 S   0  0  0  0  0  0  0  0  0  0  0  0
   45.6036   93.4134   32.9656 O   0  0  0  0  0  0  0  0  0  0  0  0
   43.4983   93.0417   34.0762 O   0  0  0  0  0  0  0  0  0  0  0  0
   45.6397   92.5454   35.2416 O   0  0  0  0  0  0  0  0  0  0  0  0
  2  3  1  0  0  0
  2  5  1  0  0  0
  2  8  1  0  0  0
  3  4  1  0  0  0
  3  7  1  0  0  0
  4  6  1  0  0  0
  5  6  1  0  0  0
  5 11  1  0  0  0
  6  1  1  0  0  0
 11 12  1  0  0  0
  1 14  1  0  0  0
 14 17  1  0  0  0
 14 15  1  0  0  0
 17 18  1  0  0  0
 17 21  1  0  0  0
 18 19  1  0  0  0
 21 22  1  0  0  0
 22 23  1  0  0  0
 22 24  1  0  0  0
 22 25  1  0  0  0
  7  9  1  0  0  0
  8 10  1  0  0  0
 12 13  1  0  0  0
 19 20  1  0  0  0
 15 16  1  0  0  0
M  CHG 1   6   1
M  CHG 1  23  -1
M  CHG 1  24  -1
M  CHG 1  25  -1
M  END
> <minimizedAffinity>
-6.30977

$$$$
3L4Z_SSD_A_1001


 25 25  0  0  0  0  0  0  0  0999 V2000
   43.6265   91.1921   33.4335 C   0  0  0  0  0  0  0  0  0  0  0  0
   44.9679   94.1007   35.4452 C   0  0  0  0  0  0  0  0  0  0  0  0
   43.7285   93.4306   36.0294 C   0  0  0  0  0  0  0  0  0  0  0  0
   44.1391   91.9505   36.1749 C   0  0  0  0  0  0  0  0  0  0  0  0
   45.2420   93.3549   34.1088 C   0  0  0  0  0  0  0  0  0  0  0  0
   44.9752   91.6316   34.5780 S   0  0  0  0  0  0  0  0  0  0  0  0
   43.4986   94.0540   37.3198 O   0  0  0  0  0  0  0  0  0  0  0  0
   44.6490   95.4683   35.1906 O   0  0  0  0  0  0  0  0  0  0  0  0
   44.3005   93.9826   37.8609 H   0  0  0  0  0  0  0  0  0  0  0  0
   43.8784   95.5167   34.6034 H   0  0  0  0  0  0  0  0  0  0  0  0
   46.6442   93.6665   33.5516 C   0  0  0  0  0  0  0  0  0  0  0  0
   47.4544   94.2926   34.5339 O   0  0  0  0  0  0  0  0  0  0  0  0
   47.0452   95.1291   34.8053 H   0  0  0  0  0  0  0  0  0  0  0  0
   43.4307   89.7069   33.1581 C   0  0  0  0  0  0  0  0  0  0  0  0
   43.8737   89.3782   31.8499 O   0  0  0  0  0  0  0  0  0  0  0  0
   44.8177   89.5854   31.7666 H   0  0  0  0  0  0  0  0  0  0  0  0
   44.2358   88.8973   34.1845 C   0  0  0  0  0  0  0  0  0  0  0  0
   44.8983   87.6937   33.5157 C   0  0  0  0  0  0  0  0  0  0  0  0
   46.1842   87.5934   34.1123 O   0  0  0  0  0  0  0  0  0  0  0  0
   46.6712   88.4205   33.9719 H   0  0  0  0  0  0  0  0  0  0  0  0
   43.3465   88.4166   35.2086 O   0  0  0  0  0  0  0  0  0  0  0  0
   43.8647   87.8893   36.4604 S   0  0  0  0  0  0  0  0  0  0  0  0
   45.1061   88.5895   36.9090 O   0  0  0  0  0  0  0  0  0  0  0  0
   42.8318   88.1199   37.5498 O   0  0  0  0  0  0  0  0  0  0  0  0
   44.1606   86.4285   36.2994 O   0  0  0  0  0  0  0  0  0  0  0  0
  2  3  1  0  0  0
  2  5  1  0  0  0
  2  8  1  0  0  0
  3  4  1  0  0  0
  3  7  1  0  0  0
  4  6  1  0  0  0
  5  6  1  0  0  0
  5 11  1  0  0  0
  6  1  1  0  0  0
 11 12  1  0  0  0
  1 14  1  0  0  0
 14 17  1  0  0  0
 14 15  1  0  0  0
 17 18  1  0  0  0
 17 21  1  0  0  0
 18 19  1  0  0  0
 21 22  1  0  0  0
 22 23  1  0  0  0
 22 24  1  0  0  0
 22 25  1  0  0  0
  7  9  1  0  0  0
  8 10  1  0  0  0
 12 13  1  0  0  0
 19 20  1  0  0  0
 15 16  1  0  0  0
M  CHG 1   6   1
M  CHG 1  23  -1
M  CHG 1  24  -1
M  CHG 1  25  -1
M  END
> <minimizedAffinity>
-6.21647

$$$$
