5I9X_DB8_A_1001


 37 40  0  0  0  0  0  0  0  0999 V2000
  -89.9200  -14.1211    6.3486 C   0  0  0  0  0  0  0  0  0  0  0  0
  -86.3669  -13.6260    5.7583 C   0  0  0  0  0  0  0  0  0  0  0  0
  -86.3013  -15.0357    8.2002 C   0  0  0  0  0  0  0  0  0  0  0  0
  -88.7149  -13.7446    5.7772 N   0  0  0  0  0  0  0  0  0  0  0  0
  -89.9544  -14.8138    7.5496 C   0  0  0  0  0  0  0  0  0  0  0  0
  -85.1311  -14.6198    7.5685 C   0  0  0  0  0  0  0  0  0  0  0  0
  -85.1639  -13.9258    6.3694 C   0  0  0  0  0  0  0  0  0  0  0  0
  -88.7478  -15.1459    8.1870 C   0  0  0  0  0  0  0  0  0  0  0  0
  -87.5442  -14.0388    6.3825 C   0  0  0  0  0  0  0  0  0  0  0  0
  -87.5310  -14.7434    7.6001 C   0  0  0  0  0  0  0  0  0  0  0  0
  -83.6212  -14.3145    9.3586 C   0  0  0  0  0  0  0  0  0  0  0  0
  -83.8695  -14.8491    8.0550 O   0  0  0  0  0  0  0  0  0  0  0  0
  -92.2362  -15.2587    8.5074 N   0  0  0  0  0  0  0  0  0  0  0  0
  -91.2358  -15.1063    8.0938 C   0  0  0  0  0  0  0  0  0  0  0  0
  -88.7218  -15.8457    9.3719 N   0  0  0  0  0  0  0  0  0  0  0  0
  -88.6815  -16.8291    9.3480 H   0  0  0  0  0  0  0  0  0  0  0  0
  -88.8295  -13.3726   14.7952 Cl  0  0  0  0  0  0  0  0  0  0  0  0
  -90.0943  -17.4302   11.5012 Cl  0  0  0  0  0  0  0  0  0  0  0  0
  -89.3884  -15.3221   12.9531 C   0  0  0  0  0  0  0  0  0  0  0  0
  -88.1598  -13.9484   10.8554 C   0  0  0  0  0  0  0  0  0  0  0  0
  -88.1851  -13.4168   12.1579 C   0  0  0  0  0  0  0  0  0  0  0  0
  -88.8080  -14.0895   13.1950 C   0  0  0  0  0  0  0  0  0  0  0  0
  -89.3473  -15.8703   11.6760 C   0  0  0  0  0  0  0  0  0  0  0  0
  -88.7508  -15.2006   10.5963 C   0  0  0  0  0  0  0  0  0  0  0  0
  -87.6412  -12.2068   12.5111 O   0  0  0  0  0  0  0  0  0  0  0  0
  -86.2153  -12.2558   12.5768 C   0  0  0  0  0  0  0  0  0  0  0  0
  -83.9479  -13.5677    5.8707 O   0  0  0  0  0  0  0  0  0  0  0  0
  -83.5547  -14.2596    4.6789 C   0  0  0  0  0  0  0  0  0  0  0  0
  -82.0636  -13.9635    4.4727 C   0  0  0  0  0  0  0  0  0  0  0  0
  -81.3786  -13.9741    5.8293 C   0  0  0  0  0  0  0  0  0  0  0  0
  -80.1795   -8.5293    6.5273 C   0  0  0  0  0  0  0  0  0  0  0  0
  -80.8245  -11.8608    4.9062 C   0  0  0  0  0  0  0  0  0  0  0  0
  -81.1381  -12.0824    7.2858 C   0  0  0  0  0  0  0  0  0  0  0  0
  -80.1838  -10.4976    5.1198 C   0  0  0  0  0  0  0  0  0  0  0  0
  -80.5029  -10.7198    7.4871 C   0  0  0  0  0  0  0  0  0  0  0  0
  -80.6163  -12.7363    6.0739 N   0  0  0  0  0  0  0  0  0  0  0  0
  -80.7568   -9.8660    6.3165 N   0  0  0  0  0  0  0  0  0  0  0  0
 11 12  1  0  0  0
 21 25  1  0  0  0
 26 25  1  0  0  0
 36 30  1  0  0  0
 29 30  1  0  0  0
 14 13  3  0  0  0
 17 22  1  0  0  0
 18 23  1  0  0  0
  5 14  1  0  0  0
  5  1  2  0  0  0
  4  1  1  0  0  0
 19 23  2  0  0  0
 19 22  1  0  0  0
 24 20  2  0  0  0
 21 20  1  0  0  0
  7  2  2  0  0  0
  2  9  1  0  0  0
  6  3  2  0  0  0
  3 10  1  0  0  0
 29 28  1  0  0  0
 27 28  1  0  0  0
 31 37  1  0  0  0
 36 32  1  0  0  0
 34 32  1  0  0  0
 35 33  1  0  0  0
 33 36  1  0  0  0
 37 34  1  0  0  0
 35 37  1  0  0  0
  9  4  2  0  0  0
 24 15  1  0  0  0
 15  8  1  0  0  0
 12  6  1  0  0  0
 27  7  1  0  0  0
 22 21  2  0  0  0
 23 24  1  0  0  0
  8  5  1  0  0  0
  6  7  1  0  0  0
 10  8  2  0  0  0
 10  9  1  0  0  0
 15 16  1  0  0  0
M  END
> <minimizedAffinity>
-7.90081

$$$$
5I9X_DB8_A_1001


 37 40  0  0  0  0  0  0  0  0999 V2000
  -90.9086  -17.8194   11.3883 C   0  0  0  0  0  0  0  0  0  0  0  0
  -89.7031  -15.4636   13.8814 C   0  0  0  0  0  0  0  0  0  0  0  0
  -89.6629  -13.8476   11.5703 C   0  0  0  0  0  0  0  0  0  0  0  0
  -90.5075  -17.2553   12.5889 N   0  0  0  0  0  0  0  0  0  0  0  0
  -90.9086  -17.0776   10.2165 C   0  0  0  0  0  0  0  0  0  0  0  0
  -89.2693  -13.3520   12.8116 C   0  0  0  0  0  0  0  0  0  0  0  0
  -89.2877  -14.1470   13.9467 C   0  0  0  0  0  0  0  0  0  0  0  0
  -90.5059  -15.7326   10.2536 C   0  0  0  0  0  0  0  0  0  0  0  0
  -90.1000  -15.9690   12.6432 C   0  0  0  0  0  0  0  0  0  0  0  0
  -90.0874  -15.1777   11.4800 C   0  0  0  0  0  0  0  0  0  0  0  0
  -87.5795  -11.7474   12.4272 C   0  0  0  0  0  0  0  0  0  0  0  0
  -88.8381  -12.0680   13.0272 O   0  0  0  0  0  0  0  0  0  0  0  0
  -91.6311  -18.2674    8.1226 N   0  0  0  0  0  0  0  0  0  0  0  0
  -91.2772  -17.7536    9.0203 C   0  0  0  0  0  0  0  0  0  0  0  0
  -90.5012  -14.9452    9.1249 N   0  0  0  0  0  0  0  0  0  0  0  0
  -91.3177  -14.4531    8.8792 H   0  0  0  0  0  0  0  0  0  0  0  0
  -85.8064  -14.1777    5.5318 Cl  0  0  0  0  0  0  0  0  0  0  0  0
  -91.1127  -13.9539    6.3731 Cl  0  0  0  0  0  0  0  0  0  0  0  0
  -88.4735  -14.1507    6.1582 C   0  0  0  0  0  0  0  0  0  0  0  0
  -88.0606  -15.0939    8.7538 C   0  0  0  0  0  0  0  0  0  0  0  0
  -86.9808  -14.8710    7.8797 C   0  0  0  0  0  0  0  0  0  0  0  0
  -87.1856  -14.4188    6.5876 C   0  0  0  0  0  0  0  0  0  0  0  0
  -89.5469  -14.3420    7.0209 C   0  0  0  0  0  0  0  0  0  0  0  0
  -89.3763  -14.8282    8.3265 C   0  0  0  0  0  0  0  0  0  0  0  0
  -85.6656  -15.1009    8.1993 O   0  0  0  0  0  0  0  0  0  0  0  0
  -85.5265  -15.8053    9.4340 C   0  0  0  0  0  0  0  0  0  0  0  0
  -88.8632  -13.5394   15.0896 O   0  0  0  0  0  0  0  0  0  0  0  0
  -88.1012  -14.3734   15.9714 C   0  0  0  0  0  0  0  0  0  0  0  0
  -86.6731  -14.4119   15.4121 C   0  0  0  0  0  0  0  0  0  0  0  0
  -85.9747  -15.6454   15.9600 C   0  0  0  0  0  0  0  0  0  0  0  0
  -85.9947  -20.9886   14.2218 C   0  0  0  0  0  0  0  0  0  0  0  0
  -84.9842  -17.3988   14.7071 C   0  0  0  0  0  0  0  0  0  0  0  0
  -86.9581  -17.8334   16.0205 C   0  0  0  0  0  0  0  0  0  0  0  0
  -85.1758  -18.7240   13.9848 C   0  0  0  0  0  0  0  0  0  0  0  0
  -87.1367  -19.1551   15.2980 C   0  0  0  0  0  0  0  0  0  0  0  0
  -86.2738  -16.8499   15.1643 N   0  0  0  0  0  0  0  0  0  0  0  0
  -85.8285  -19.6855   14.8841 N   0  0  0  0  0  0  0  0  0  0  0  0
 11 12  1  0  0  0
 21 25  1  0  0  0
 26 25  1  0  0  0
 36 30  1  0  0  0
 29 30  1  0  0  0
 14 13  3  0  0  0
 17 22  1  0  0  0
 18 23  1  0  0  0
  5 14  1  0  0  0
  5  1  2  0  0  0
  4  1  1  0  0  0
 19 23  2  0  0  0
 19 22  1  0  0  0
 24 20  2  0  0  0
 21 20  1  0  0  0
  7  2  2  0  0  0
  2  9  1  0  0  0
  6  3  2  0  0  0
  3 10  1  0  0  0
 29 28  1  0  0  0
 27 28  1  0  0  0
 31 37  1  0  0  0
 36 32  1  0  0  0
 34 32  1  0  0  0
 35 33  1  0  0  0
 33 36  1  0  0  0
 37 34  1  0  0  0
 35 37  1  0  0  0
  9  4  2  0  0  0
 24 15  1  0  0  0
 15  8  1  0  0  0
 12  6  1  0  0  0
 27  7  1  0  0  0
 22 21  2  0  0  0
 23 24  1  0  0  0
  8  5  1  0  0  0
  6  7  1  0  0  0
 10  8  2  0  0  0
 10  9  1  0  0  0
 15 16  1  0  0  0
M  END
> <minimizedAffinity>
-7.80961

$$$$
5I9X_DB8_A_1001


 37 40  0  0  0  0  0  0  0  0999 V2000
  -85.5285  -16.2643   11.5065 C   0  0  0  0  0  0  0  0  0  0  0  0
  -85.2126  -14.9640    8.1259 C   0  0  0  0  0  0  0  0  0  0  0  0
  -87.8590  -14.2026    8.7354 C   0  0  0  0  0  0  0  0  0  0  0  0
  -85.0211  -15.9295   10.2610 N   0  0  0  0  0  0  0  0  0  0  0  0
  -86.8234  -15.9206   11.8649 C   0  0  0  0  0  0  0  0  0  0  0  0
  -87.2821  -13.9058    7.5023 C   0  0  0  0  0  0  0  0  0  0  0  0
  -85.9822  -14.2815    7.2027 C   0  0  0  0  0  0  0  0  0  0  0  0
  -87.6249  -15.2136   10.9537 C   0  0  0  0  0  0  0  0  0  0  0  0
  -85.7809  -15.2653    9.3638 C   0  0  0  0  0  0  0  0  0  0  0  0
  -87.0989  -14.8930    9.6857 C   0  0  0  0  0  0  0  0  0  0  0  0
  -89.0506  -13.9150    5.9371 C   0  0  0  0  0  0  0  0  0  0  0  0
  -87.9231  -13.2327    6.4938 O   0  0  0  0  0  0  0  0  0  0  0  0
  -87.5645  -16.7123   14.1334 N   0  0  0  0  0  0  0  0  0  0  0  0
  -87.2819  -16.3573   13.1387 C   0  0  0  0  0  0  0  0  0  0  0  0
  -88.9111  -14.8331   11.2618 N   0  0  0  0  0  0  0  0  0  0  0  0
  -89.0945  -13.8899   11.4765 H   0  0  0  0  0  0  0  0  0  0  0  0
  -93.5705  -18.5424   11.5303 Cl  0  0  0  0  0  0  0  0  0  0  0  0
  -90.4317  -14.8335   13.8341 Cl  0  0  0  0  0  0  0  0  0  0  0  0
  -91.8465  -16.6591   12.5241 C   0  0  0  0  0  0  0  0  0  0  0  0
  -90.3153  -16.5646   10.1909 C   0  0  0  0  0  0  0  0  0  0  0  0
  -91.4402  -17.4039   10.2901 C   0  0  0  0  0  0  0  0  0  0  0  0
  -92.1904  -17.4634   11.4519 C   0  0  0  0  0  0  0  0  0  0  0  0
  -90.7526  -15.8060   12.4294 C   0  0  0  0  0  0  0  0  0  0  0  0
  -89.9533  -15.7441   11.2773 C   0  0  0  0  0  0  0  0  0  0  0  0
  -91.8724  -18.2407    9.2913 O   0  0  0  0  0  0  0  0  0  0  0  0
  -90.7878  -18.7899    8.5417 C   0  0  0  0  0  0  0  0  0  0  0  0
  -85.5504  -13.9405    5.9566 O   0  0  0  0  0  0  0  0  0  0  0  0
  -84.1289  -13.8188    5.8207 C   0  0  0  0  0  0  0  0  0  0  0  0
  -83.8542  -13.5267    4.3399 C   0  0  0  0  0  0  0  0  0  0  0  0
  -82.3530  -13.3911    4.1464 C   0  0  0  0  0  0  0  0  0  0  0  0
  -78.5537  -10.5289    7.1371 C   0  0  0  0  0  0  0  0  0  0  0  0
  -80.4440  -13.3684    5.5536 C   0  0  0  0  0  0  0  0  0  0  0  0
  -81.4414  -11.2879    4.8558 C   0  0  0  0  0  0  0  0  0  0  0  0
  -79.6401  -12.6260    6.6106 C   0  0  0  0  0  0  0  0  0  0  0  0
  -80.6311  -10.5568    5.9093 C   0  0  0  0  0  0  0  0  0  0  0  0
  -81.7132  -12.6760    5.2656 N   0  0  0  0  0  0  0  0  0  0  0  0
  -79.3611  -11.2595    6.1477 N   0  0  0  0  0  0  0  0  0  0  0  0
 11 12  1  0  0  0
 21 25  1  0  0  0
 26 25  1  0  0  0
 36 30  1  0  0  0
 29 30  1  0  0  0
 14 13  3  0  0  0
 17 22  1  0  0  0
 18 23  1  0  0  0
  5 14  1  0  0  0
  5  1  2  0  0  0
  4  1  1  0  0  0
 19 23  2  0  0  0
 19 22  1  0  0  0
 24 20  2  0  0  0
 21 20  1  0  0  0
  7  2  2  0  0  0
  2  9  1  0  0  0
  6  3  2  0  0  0
  3 10  1  0  0  0
 29 28  1  0  0  0
 27 28  1  0  0  0
 31 37  1  0  0  0
 36 32  1  0  0  0
 34 32  1  0  0  0
 35 33  1  0  0  0
 33 36  1  0  0  0
 37 34  1  0  0  0
 35 37  1  0  0  0
  9  4  2  0  0  0
 24 15  1  0  0  0
 15  8  1  0  0  0
 12  6  1  0  0  0
 27  7  1  0  0  0
 22 21  2  0  0  0
 23 24  1  0  0  0
  8  5  1  0  0  0
  6  7  1  0  0  0
 10  8  2  0  0  0
 10  9  1  0  0  0
 15 16  1  0  0  0
M  END
> <minimizedAffinity>
-7.72246

$$$$
5I9X_DB8_A_1001


 37 40  0  0  0  0  0  0  0  0999 V2000
  -88.7250  -13.3481    6.1892 C   0  0  0  0  0  0  0  0  0  0  0  0
  -85.2848  -13.8215    7.2658 C   0  0  0  0  0  0  0  0  0  0  0  0
  -86.6114  -15.6862    8.9144 C   0  0  0  0  0  0  0  0  0  0  0  0
  -87.3489  -13.2336    6.3059 N   0  0  0  0  0  0  0  0  0  0  0  0
  -89.4351  -14.2446    6.9736 C   0  0  0  0  0  0  0  0  0  0  0  0
  -85.2306  -15.5114    8.9785 C   0  0  0  0  0  0  0  0  0  0  0  0
  -84.5793  -14.5939    8.1694 C   0  0  0  0  0  0  0  0  0  0  0  0
  -88.7444  -15.0539    7.8905 C   0  0  0  0  0  0  0  0  0  0  0  0
  -86.6678  -13.9897    7.1935 C   0  0  0  0  0  0  0  0  0  0  0  0
  -87.3464  -14.9153    8.0072 C   0  0  0  0  0  0  0  0  0  0  0  0
  -84.8551  -16.2862   11.1777 C   0  0  0  0  0  0  0  0  0  0  0  0
  -84.4040  -16.2084    9.8222 O   0  0  0  0  0  0  0  0  0  0  0  0
  -91.9417  -14.2108    6.7783 N   0  0  0  0  0  0  0  0  0  0  0  0
  -90.8505  -14.2525    6.8311 C   0  0  0  0  0  0  0  0  0  0  0  0
  -89.3958  -15.9716    8.6828 N   0  0  0  0  0  0  0  0  0  0  0  0
  -89.6274  -16.8517    8.3072 H   0  0  0  0  0  0  0  0  0  0  0  0
  -90.7651  -15.0675   14.4142 Cl  0  0  0  0  0  0  0  0  0  0  0  0
  -90.5043  -18.3288   10.1468 Cl  0  0  0  0  0  0  0  0  0  0  0  0
  -90.5651  -16.5564   12.1229 C   0  0  0  0  0  0  0  0  0  0  0  0
  -89.5396  -14.4392   10.6187 C   0  0  0  0  0  0  0  0  0  0  0  0
  -89.8509  -14.2804   11.9816 C   0  0  0  0  0  0  0  0  0  0  0  0
  -90.3744  -15.3247   12.7241 C   0  0  0  0  0  0  0  0  0  0  0  0
  -90.2369  -16.7336   10.7835 C   0  0  0  0  0  0  0  0  0  0  0  0
  -89.7332  -15.6874    9.9950 C   0  0  0  0  0  0  0  0  0  0  0  0
  -89.7010  -13.1071   12.6785 O   0  0  0  0  0  0  0  0  0  0  0  0
  -88.3279  -12.7892   12.9090 C   0  0  0  0  0  0  0  0  0  0  0  0
  -83.2310  -14.5156    8.3465 O   0  0  0  0  0  0  0  0  0  0  0  0
  -82.6374  -13.2773    7.9365 C   0  0  0  0  0  0  0  0  0  0  0  0
  -81.8814  -12.7301    9.1542 C   0  0  0  0  0  0  0  0  0  0  0  0
  -82.0701  -13.6963   10.3119 C   0  0  0  0  0  0  0  0  0  0  0  0
  -85.0746  -12.5036   14.9078 C   0  0  0  0  0  0  0  0  0  0  0  0
  -83.9548  -12.6697   11.3215 C   0  0  0  0  0  0  0  0  0  0  0  0
  -82.4118  -13.9333   12.6752 C   0  0  0  0  0  0  0  0  0  0  0  0
  -84.5697  -12.0763   12.5802 C   0  0  0  0  0  0  0  0  0  0  0  0
  -83.0358  -13.3399   13.9240 C   0  0  0  0  0  0  0  0  0  0  0  0
  -82.5367  -13.0132   11.5322 N   0  0  0  0  0  0  0  0  0  0  0  0
  -84.4556  -13.0384   13.6850 N   0  0  0  0  0  0  0  0  0  0  0  0
 11 12  1  0  0  0
 21 25  1  0  0  0
 26 25  1  0  0  0
 36 30  1  0  0  0
 29 30  1  0  0  0
 14 13  3  0  0  0
 17 22  1  0  0  0
 18 23  1  0  0  0
  5 14  1  0  0  0
  5  1  2  0  0  0
  4  1  1  0  0  0
 19 23  2  0  0  0
 19 22  1  0  0  0
 24 20  2  0  0  0
 21 20  1  0  0  0
  7  2  2  0  0  0
  2  9  1  0  0  0
  6  3  2  0  0  0
  3 10  1  0  0  0
 29 28  1  0  0  0
 27 28  1  0  0  0
 31 37  1  0  0  0
 36 32  1  0  0  0
 34 32  1  0  0  0
 35 33  1  0  0  0
 33 36  1  0  0  0
 37 34  1  0  0  0
 35 37  1  0  0  0
  9  4  2  0  0  0
 24 15  1  0  0  0
 15  8  1  0  0  0
 12  6  1  0  0  0
 27  7  1  0  0  0
 22 21  2  0  0  0
 23 24  1  0  0  0
  8  5  1  0  0  0
  6  7  1  0  0  0
 10  8  2  0  0  0
 10  9  1  0  0  0
 15 16  1  0  0  0
M  END
> <minimizedAffinity>
-7.64448

$$$$
5I9X_DB8_A_1001


 37 40  0  0  0  0  0  0  0  0999 V2000
  -85.5581  -16.4690   11.7396 C   0  0  0  0  0  0  0  0  0  0  0  0
  -84.6776  -15.1228    8.4791 C   0  0  0  0  0  0  0  0  0  0  0  0
  -87.2433  -14.0061    8.8319 C   0  0  0  0  0  0  0  0  0  0  0  0
  -84.8694  -16.1723   10.5742 N   0  0  0  0  0  0  0  0  0  0  0  0
  -86.8245  -15.9530   11.9707 C   0  0  0  0  0  0  0  0  0  0  0  0
  -86.4930  -13.7573    7.6845 C   0  0  0  0  0  0  0  0  0  0  0  0
  -85.2330  -14.3075    7.5109 C   0  0  0  0  0  0  0  0  0  0  0  0
  -87.4092  -15.1093   11.0121 C   0  0  0  0  0  0  0  0  0  0  0  0
  -85.4207  -15.3774    9.6320 C   0  0  0  0  0  0  0  0  0  0  0  0
  -86.7015  -14.8286    9.8257 C   0  0  0  0  0  0  0  0  0  0  0  0
  -88.0274  -13.4829    5.9102 C   0  0  0  0  0  0  0  0  0  0  0  0
  -86.9134  -12.9673    6.6452 O   0  0  0  0  0  0  0  0  0  0  0  0
  -88.0532  -16.6590   14.0477 N   0  0  0  0  0  0  0  0  0  0  0  0
  -87.4827  -16.3585   13.1648 C   0  0  0  0  0  0  0  0  0  0  0  0
  -88.6561  -14.5565   11.1959 N   0  0  0  0  0  0  0  0  0  0  0  0
  -88.7282  -13.6091   11.4537 H   0  0  0  0  0  0  0  0  0  0  0  0
  -93.7980  -17.5239   10.6509 Cl  0  0  0  0  0  0  0  0  0  0  0  0
  -90.5305  -14.3553   13.5143 Cl  0  0  0  0  0  0  0  0  0  0  0  0
  -91.9850  -15.9327   11.9501 C   0  0  0  0  0  0  0  0  0  0  0  0
  -90.1224  -16.0451    9.8727 C   0  0  0  0  0  0  0  0  0  0  0  0
  -91.3607  -16.7063    9.7770 C   0  0  0  0  0  0  0  0  0  0  0  0
  -92.2780  -16.6645   10.8127 C   0  0  0  0  0  0  0  0  0  0  0  0
  -90.7757  -15.2533   12.0462 C   0  0  0  0  0  0  0  0  0  0  0  0
  -89.8115  -15.3002   11.0273 C   0  0  0  0  0  0  0  0  0  0  0  0
  -91.7559  -17.4576    8.6981 O   0  0  0  0  0  0  0  0  0  0  0  0
  -91.0278  -18.6823    8.5988 C   0  0  0  0  0  0  0  0  0  0  0  0
  -84.6176  -13.9937    6.3368 O   0  0  0  0  0  0  0  0  0  0  0  0
  -83.2034  -14.2247    6.3139 C   0  0  0  0  0  0  0  0  0  0  0  0
  -82.5349  -12.8441    6.2844 C   0  0  0  0  0  0  0  0  0  0  0  0
  -81.6109  -12.7309    7.4855 C   0  0  0  0  0  0  0  0  0  0  0  0
  -82.7052  -13.5185   12.9402 C   0  0  0  0  0  0  0  0  0  0  0  0
  -81.1990  -13.8885    9.5142 C   0  0  0  0  0  0  0  0  0  0  0  0
  -82.7851  -12.0740    9.4724 C   0  0  0  0  0  0  0  0  0  0  0  0
  -81.7268  -14.3156   10.8756 C   0  0  0  0  0  0  0  0  0  0  0  0
  -83.3003  -12.5051   10.8324 C   0  0  0  0  0  0  0  0  0  0  0  0
  -82.2476  -13.2211    8.7216 N   0  0  0  0  0  0  0  0  0  0  0  0
  -82.2202  -13.1387   11.6042 N   0  0  0  0  0  0  0  0  0  0  0  0
 11 12  1  0  0  0
 21 25  1  0  0  0
 26 25  1  0  0  0
 36 30  1  0  0  0
 29 30  1  0  0  0
 14 13  3  0  0  0
 17 22  1  0  0  0
 18 23  1  0  0  0
  5 14  1  0  0  0
  5  1  2  0  0  0
  4  1  1  0  0  0
 19 23  2  0  0  0
 19 22  1  0  0  0
 24 20  2  0  0  0
 21 20  1  0  0  0
  7  2  2  0  0  0
  2  9  1  0  0  0
  6  3  2  0  0  0
  3 10  1  0  0  0
 29 28  1  0  0  0
 27 28  1  0  0  0
 31 37  1  0  0  0
 36 32  1  0  0  0
 34 32  1  0  0  0
 35 33  1  0  0  0
 33 36  1  0  0  0
 37 34  1  0  0  0
 35 37  1  0  0  0
  9  4  2  0  0  0
 24 15  1  0  0  0
 15  8  1  0  0  0
 12  6  1  0  0  0
 27  7  1  0  0  0
 22 21  2  0  0  0
 23 24  1  0  0  0
  8  5  1  0  0  0
  6  7  1  0  0  0
 10  8  2  0  0  0
 10  9  1  0  0  0
 15 16  1  0  0  0
M  END
> <minimizedAffinity>
-7.62374

$$$$
5I9X_DB8_A_1001


 37 40  0  0  0  0  0  0  0  0999 V2000
  -90.9545  -17.8804   11.4501 C   0  0  0  0  0  0  0  0  0  0  0  0
  -89.6791  -15.5817   13.9616 C   0  0  0  0  0  0  0  0  0  0  0  0
  -89.7728  -13.8930   11.7046 C   0  0  0  0  0  0  0  0  0  0  0  0
  -90.5093  -17.3468   12.6491 N   0  0  0  0  0  0  0  0  0  0  0  0
  -91.0210  -17.1022   10.3041 C   0  0  0  0  0  0  0  0  0  0  0  0
  -89.3321  -13.4294   12.9424 C   0  0  0  0  0  0  0  0  0  0  0  0
  -89.2847  -14.2599   14.0508 C   0  0  0  0  0  0  0  0  0  0  0  0
  -90.6411  -15.7515   10.3667 C   0  0  0  0  0  0  0  0  0  0  0  0
  -90.1228  -16.0553   12.7267 C   0  0  0  0  0  0  0  0  0  0  0  0
  -90.1771  -15.2276   11.5904 C   0  0  0  0  0  0  0  0  0  0  0  0
  -87.7578  -11.7418   12.4406 C   0  0  0  0  0  0  0  0  0  0  0  0
  -88.9145  -12.1447   13.1799 O   0  0  0  0  0  0  0  0  0  0  0  0
  -91.7399  -18.1772    8.1479 N   0  0  0  0  0  0  0  0  0  0  0  0
  -91.4313  -17.7470    9.1044 C   0  0  0  0  0  0  0  0  0  0  0  0
  -90.7017  -14.9288    9.2650 N   0  0  0  0  0  0  0  0  0  0  0  0
  -91.5211  -14.4093    9.0981 H   0  0  0  0  0  0  0  0  0  0  0  0
  -86.2793  -14.1655    5.3406 Cl  0  0  0  0  0  0  0  0  0  0  0  0
  -91.5017  -13.8709    6.5874 Cl  0  0  0  0  0  0  0  0  0  0  0  0
  -88.8904  -14.1071    6.1685 C   0  0  0  0  0  0  0  0  0  0  0  0
  -88.2992  -15.1104    8.7065 C   0  0  0  0  0  0  0  0  0  0  0  0
  -87.2849  -14.8875    7.7572 C   0  0  0  0  0  0  0  0  0  0  0  0
  -87.5787  -14.4054    6.4934 C   0  0  0  0  0  0  0  0  0  0  0  0
  -89.8987  -14.2983    7.1066 C   0  0  0  0  0  0  0  0  0  0  0  0
  -89.6386  -14.8141    8.3858 C   0  0  0  0  0  0  0  0  0  0  0  0
  -85.9537  -15.1458    7.9713 O   0  0  0  0  0  0  0  0  0  0  0  0
  -85.3853  -14.2709    8.9468 C   0  0  0  0  0  0  0  0  0  0  0  0
  -88.8197  -13.6807   15.1926 O   0  0  0  0  0  0  0  0  0  0  0  0
  -88.4635  -14.5976   16.2349 C   0  0  0  0  0  0  0  0  0  0  0  0
  -86.9305  -14.6476   16.2687 C   0  0  0  0  0  0  0  0  0  0  0  0
  -86.3978  -13.2431   16.0383 C   0  0  0  0  0  0  0  0  0  0  0  0
  -83.0505  -12.5212   11.5835 C   0  0  0  0  0  0  0  0  0  0  0  0
  -85.5097  -14.0409   13.9889 C   0  0  0  0  0  0  0  0  0  0  0  0
  -84.8883  -11.8550   14.7925 C   0  0  0  0  0  0  0  0  0  0  0  0
  -84.3729  -13.9904   12.9791 C   0  0  0  0  0  0  0  0  0  0  0  0
  -83.7611  -11.8127   13.7782 C   0  0  0  0  0  0  0  0  0  0  0  0
  -85.1948  -13.2404   15.1862 N   0  0  0  0  0  0  0  0  0  0  0  0
  -84.1234  -12.5964   12.5873 N   0  0  0  0  0  0  0  0  0  0  0  0
 11 12  1  0  0  0
 21 25  1  0  0  0
 26 25  1  0  0  0
 36 30  1  0  0  0
 29 30  1  0  0  0
 14 13  3  0  0  0
 17 22  1  0  0  0
 18 23  1  0  0  0
  5 14  1  0  0  0
  5  1  2  0  0  0
  4  1  1  0  0  0
 19 23  2  0  0  0
 19 22  1  0  0  0
 24 20  2  0  0  0
 21 20  1  0  0  0
  7  2  2  0  0  0
  2  9  1  0  0  0
  6  3  2  0  0  0
  3 10  1  0  0  0
 29 28  1  0  0  0
 27 28  1  0  0  0
 31 37  1  0  0  0
 36 32  1  0  0  0
 34 32  1  0  0  0
 35 33  1  0  0  0
 33 36  1  0  0  0
 37 34  1  0  0  0
 35 37  1  0  0  0
  9  4  2  0  0  0
 24 15  1  0  0  0
 15  8  1  0  0  0
 12  6  1  0  0  0
 27  7  1  0  0  0
 22 21  2  0  0  0
 23 24  1  0  0  0
  8  5  1  0  0  0
  6  7  1  0  0  0
 10  8  2  0  0  0
 10  9  1  0  0  0
 15 16  1  0  0  0
M  END
> <minimizedAffinity>
-7.61940

$$$$
5I9X_DB8_A_1001


 37 40  0  0  0  0  0  0  0  0999 V2000
  -83.3211  -13.6055    3.8154 C   0  0  0  0  0  0  0  0  0  0  0  0
  -86.0720  -13.8090    6.1839 C   0  0  0  0  0  0  0  0  0  0  0  0
  -83.9189  -14.6323    7.8090 C   0  0  0  0  0  0  0  0  0  0  0  0
  -84.5843  -13.5464    4.3824 N   0  0  0  0  0  0  0  0  0  0  0  0
  -82.2225  -14.0053    4.5614 C   0  0  0  0  0  0  0  0  0  0  0  0
  -85.2177  -14.5531    8.3072 C   0  0  0  0  0  0  0  0  0  0  0  0
  -86.2756  -14.1500    7.5078 C   0  0  0  0  0  0  0  0  0  0  0  0
  -82.3952  -14.3437    5.9135 C   0  0  0  0  0  0  0  0  0  0  0  0
  -84.7749  -13.8843    5.6759 C   0  0  0  0  0  0  0  0  0  0  0  0
  -83.6887  -14.2920    6.4716 C   0  0  0  0  0  0  0  0  0  0  0  0
  -85.0652  -16.1062   10.0798 C   0  0  0  0  0  0  0  0  0  0  0  0
  -85.5677  -14.8563    9.5982 O   0  0  0  0  0  0  0  0  0  0  0  0
  -80.0533  -14.1525    3.2985 N   0  0  0  0  0  0  0  0  0  0  0  0
  -80.9753  -14.0955    3.8832 C   0  0  0  0  0  0  0  0  0  0  0  0
  -81.3384  -14.7319    6.7051 N   0  0  0  0  0  0  0  0  0  0  0  0
  -81.2557  -15.6776    6.9660 H   0  0  0  0  0  0  0  0  0  0  0  0
  -77.0089  -11.0289    8.4611 Cl  0  0  0  0  0  0  0  0  0  0  0  0
  -78.7528  -16.0184    7.4722 Cl  0  0  0  0  0  0  0  0  0  0  0  0
  -78.0941  -13.4845    7.9145 C   0  0  0  0  0  0  0  0  0  0  0  0
  -80.5752  -12.4295    7.1877 C   0  0  0  0  0  0  0  0  0  0  0  0
  -79.5152  -11.5924    7.5819 C   0  0  0  0  0  0  0  0  0  0  0  0
  -78.2900  -12.1153    7.9578 C   0  0  0  0  0  0  0  0  0  0  0  0
  -79.1254  -14.3207    7.5018 C   0  0  0  0  0  0  0  0  0  0  0  0
  -80.3887  -13.8251    7.1435 C   0  0  0  0  0  0  0  0  0  0  0  0
  -79.5970  -10.2242    7.6599 O   0  0  0  0  0  0  0  0  0  0  0  0
  -79.7652   -9.6205    6.3766 C   0  0  0  0  0  0  0  0  0  0  0  0
  -87.4929  -14.1322    8.1189 O   0  0  0  0  0  0  0  0  0  0  0  0
  -88.4659  -15.0211    7.5560 C   0  0  0  0  0  0  0  0  0  0  0  0
  -89.4937  -15.3008    8.6601 C   0  0  0  0  0  0  0  0  0  0  0  0
  -90.8791  -14.9909    8.1178 C   0  0  0  0  0  0  0  0  0  0  0  0
  -93.5650  -18.4878   11.6005 C   0  0  0  0  0  0  0  0  0  0  0  0
  -91.2279  -17.1805    8.9600 C   0  0  0  0  0  0  0  0  0  0  0  0
  -92.4549  -15.3286    9.8957 C   0  0  0  0  0  0  0  0  0  0  0  0
  -92.1737  -18.1525    9.6494 C   0  0  0  0  0  0  0  0  0  0  0  0
  -93.3887  -16.3066   10.5830 C   0  0  0  0  0  0  0  0  0  0  0  0
  -91.9021  -15.9046    8.6583 N   0  0  0  0  0  0  0  0  0  0  0  0
  -92.6739  -17.5539   10.8946 N   0  0  0  0  0  0  0  0  0  0  0  0
 11 12  1  0  0  0
 21 25  1  0  0  0
 26 25  1  0  0  0
 36 30  1  0  0  0
 29 30  1  0  0  0
 14 13  3  0  0  0
 17 22  1  0  0  0
 18 23  1  0  0  0
  5 14  1  0  0  0
  5  1  2  0  0  0
  4  1  1  0  0  0
 19 23  2  0  0  0
 19 22  1  0  0  0
 24 20  2  0  0  0
 21 20  1  0  0  0
  7  2  2  0  0  0
  2  9  1  0  0  0
  6  3  2  0  0  0
  3 10  1  0  0  0
 29 28  1  0  0  0
 27 28  1  0  0  0
 31 37  1  0  0  0
 36 32  1  0  0  0
 34 32  1  0  0  0
 35 33  1  0  0  0
 33 36  1  0  0  0
 37 34  1  0  0  0
 35 37  1  0  0  0
  9  4  2  0  0  0
 24 15  1  0  0  0
 15  8  1  0  0  0
 12  6  1  0  0  0
 27  7  1  0  0  0
 22 21  2  0  0  0
 23 24  1  0  0  0
  8  5  1  0  0  0
  6  7  1  0  0  0
 10  8  2  0  0  0
 10  9  1  0  0  0
 15 16  1  0  0  0
M  END
> <minimizedAffinity>
-7.50310

$$$$
5I9X_DB8_A_1001


 37 40  0  0  0  0  0  0  0  0999 V2000
  -85.7308  -15.6071    8.7762 C   0  0  0  0  0  0  0  0  0  0  0  0
  -84.9635  -16.8173   12.1177 C   0  0  0  0  0  0  0  0  0  0  0  0
  -87.4747  -15.6122   12.5603 C   0  0  0  0  0  0  0  0  0  0  0  0
  -85.0935  -16.2065    9.8510 N   0  0  0  0  0  0  0  0  0  0  0  0
  -86.9659  -14.9954    8.9301 C   0  0  0  0  0  0  0  0  0  0  0  0
  -86.7719  -16.2297   13.5928 C   0  0  0  0  0  0  0  0  0  0  0  0
  -85.5372  -16.8203   13.3752 C   0  0  0  0  0  0  0  0  0  0  0  0
  -87.5811  -14.9952   10.1926 C   0  0  0  0  0  0  0  0  0  0  0  0
  -85.6597  -16.2022   11.0769 C   0  0  0  0  0  0  0  0  0  0  0  0
  -86.9135  -15.5968   11.2788 C   0  0  0  0  0  0  0  0  0  0  0  0
  -88.5115  -16.9045   15.0407 C   0  0  0  0  0  0  0  0  0  0  0  0
  -87.2182  -16.3123   14.8870 O   0  0  0  0  0  0  0  0  0  0  0  0
  -88.0021  -13.9034    6.9161 N   0  0  0  0  0  0  0  0  0  0  0  0
  -87.5187  -14.3524    7.7879 C   0  0  0  0  0  0  0  0  0  0  0  0
  -88.8130  -14.4172   10.3996 N   0  0  0  0  0  0  0  0  0  0  0  0
  -88.8738  -13.4399   10.5011 H   0  0  0  0  0  0  0  0  0  0  0  0
  -93.9423  -17.4227   10.8450 Cl  0  0  0  0  0  0  0  0  0  0  0  0
  -90.4872  -13.7927   12.7944 Cl  0  0  0  0  0  0  0  0  0  0  0  0
  -92.0474  -15.6254   11.6733 C   0  0  0  0  0  0  0  0  0  0  0  0
  -90.3658  -16.1187    9.4994 C   0  0  0  0  0  0  0  0  0  0  0  0
  -91.5988  -16.7835    9.6318 C   0  0  0  0  0  0  0  0  0  0  0  0
  -92.4257  -16.5516   10.7173 C   0  0  0  0  0  0  0  0  0  0  0  0
  -90.8436  -14.9426   11.5405 C   0  0  0  0  0  0  0  0  0  0  0  0
  -89.9684  -15.1766   10.4684 C   0  0  0  0  0  0  0  0  0  0  0  0
  -92.0737  -17.7180    8.7452 O   0  0  0  0  0  0  0  0  0  0  0  0
  -91.1300  -18.7633    8.5074 C   0  0  0  0  0  0  0  0  0  0  0  0
  -84.9549  -17.3740   14.4751 O   0  0  0  0  0  0  0  0  0  0  0  0
  -83.5693  -17.0538   14.6524 C   0  0  0  0  0  0  0  0  0  0  0  0
  -83.5197  -15.6459   15.2601 C   0  0  0  0  0  0  0  0  0  0  0  0
  -82.4130  -14.8636   14.5726 C   0  0  0  0  0  0  0  0  0  0  0  0
  -82.3636  -12.0003    9.7383 C   0  0  0  0  0  0  0  0  0  0  0  0
  -82.7402  -12.8366   13.3855 C   0  0  0  0  0  0  0  0  0  0  0  0
  -81.9616  -14.7957   12.2168 C   0  0  0  0  0  0  0  0  0  0  0  0
  -83.0449  -12.1663   12.0542 C   0  0  0  0  0  0  0  0  0  0  0  0
  -82.2640  -14.1160   10.8949 C   0  0  0  0  0  0  0  0  0  0  0  0
  -82.8515  -14.3029   13.2816 N   0  0  0  0  0  0  0  0  0  0  0  0
  -82.1137  -12.6590   11.0298 N   0  0  0  0  0  0  0  0  0  0  0  0
 11 12  1  0  0  0
 21 25  1  0  0  0
 26 25  1  0  0  0
 36 30  1  0  0  0
 29 30  1  0  0  0
 14 13  3  0  0  0
 17 22  1  0  0  0
 18 23  1  0  0  0
  5 14  1  0  0  0
  5  1  2  0  0  0
  4  1  1  0  0  0
 19 23  2  0  0  0
 19 22  1  0  0  0
 24 20  2  0  0  0
 21 20  1  0  0  0
  7  2  2  0  0  0
  2  9  1  0  0  0
  6  3  2  0  0  0
  3 10  1  0  0  0
 29 28  1  0  0  0
 27 28  1  0  0  0
 31 37  1  0  0  0
 36 32  1  0  0  0
 34 32  1  0  0  0
 35 33  1  0  0  0
 33 36  1  0  0  0
 37 34  1  0  0  0
 35 37  1  0  0  0
  9  4  2  0  0  0
 24 15  1  0  0  0
 15  8  1  0  0  0
 12  6  1  0  0  0
 27  7  1  0  0  0
 22 21  2  0  0  0
 23 24  1  0  0  0
  8  5  1  0  0  0
  6  7  1  0  0  0
 10  8  2  0  0  0
 10  9  1  0  0  0
 15 16  1  0  0  0
M  END
> <minimizedAffinity>
-7.49459

$$$$
5I9X_DB8_A_1001


 37 40  0  0  0  0  0  0  0  0999 V2000
  -85.9083  -13.7334    5.7404 C   0  0  0  0  0  0  0  0  0  0  0  0
  -87.2460  -14.0097    9.1098 C   0  0  0  0  0  0  0  0  0  0  0  0
  -84.5192  -14.5540    9.5819 C   0  0  0  0  0  0  0  0  0  0  0  0
  -86.7745  -13.7409    6.8222 N   0  0  0  0  0  0  0  0  0  0  0  0
  -84.5568  -13.9962    5.9069 C   0  0  0  0  0  0  0  0  0  0  0  0
  -85.4502  -14.5487   10.6185 C   0  0  0  0  0  0  0  0  0  0  0  0
  -86.7902  -14.2827   10.3858 C   0  0  0  0  0  0  0  0  0  0  0  0
  -84.0612  -14.2625    7.1938 C   0  0  0  0  0  0  0  0  0  0  0  0
  -86.3214  -14.0118    8.0651 C   0  0  0  0  0  0  0  0  0  0  0  0
  -84.9575  -14.2803    8.2817 C   0  0  0  0  0  0  0  0  0  0  0  0
  -83.8995  -15.4745   12.1403 C   0  0  0  0  0  0  0  0  0  0  0  0
  -85.1427  -14.7980   11.9316 O   0  0  0  0  0  0  0  0  0  0  0  0
  -83.0869  -14.0963    3.8695 N   0  0  0  0  0  0  0  0  0  0  0  0
  -83.7523  -14.0278    4.7342 C   0  0  0  0  0  0  0  0  0  0  0  0
  -82.7271  -14.5142    7.4198 N   0  0  0  0  0  0  0  0  0  0  0  0
  -82.4263  -15.4449    7.5320 H   0  0  0  0  0  0  0  0  0  0  0  0
  -78.5638  -10.2475    7.4720 Cl  0  0  0  0  0  0  0  0  0  0  0  0
  -79.9808  -15.3612    6.6022 Cl  0  0  0  0  0  0  0  0  0  0  0  0
  -79.4855  -12.8010    7.1024 C   0  0  0  0  0  0  0  0  0  0  0  0
  -82.0956  -12.1646    7.8639 C   0  0  0  0  0  0  0  0  0  0  0  0
  -81.0864  -11.1847    7.8339 C   0  0  0  0  0  0  0  0  0  0  0  0
  -79.7887  -11.5024    7.4721 C   0  0  0  0  0  0  0  0  0  0  0  0
  -80.4796  -13.7730    7.1027 C   0  0  0  0  0  0  0  0  0  0  0  0
  -81.7979  -13.4907    7.4933 C   0  0  0  0  0  0  0  0  0  0  0  0
  -81.2742   -9.8690    8.1780 O   0  0  0  0  0  0  0  0  0  0  0  0
  -81.2582   -9.0068    7.0395 C   0  0  0  0  0  0  0  0  0  0  0  0
  -87.5916  -14.3249   11.4865 O   0  0  0  0  0  0  0  0  0  0  0  0
  -88.6751  -13.3869   11.4827 C   0  0  0  0  0  0  0  0  0  0  0  0
  -89.6073  -13.7905   12.6325 C   0  0  0  0  0  0  0  0  0  0  0  0
  -90.8872  -14.3552   12.0388 C   0  0  0  0  0  0  0  0  0  0  0  0
  -91.5460  -18.6817    8.5148 C   0  0  0  0  0  0  0  0  0  0  0  0
  -90.7039  -16.6754   11.5822 C   0  0  0  0  0  0  0  0  0  0  0  0
  -91.6406  -15.1992    9.9227 C   0  0  0  0  0  0  0  0  0  0  0  0
  -90.5705  -17.7679   10.5318 C   0  0  0  0  0  0  0  0  0  0  0  0
  -91.5081  -16.2972    8.8846 C   0  0  0  0  0  0  0  0  0  0  0  0
  -90.6166  -15.3361   10.9721 N   0  0  0  0  0  0  0  0  0  0  0  0
  -91.6301  -17.6157    9.5253 N   0  0  0  0  0  0  0  0  0  0  0  0
 11 12  1  0  0  0
 21 25  1  0  0  0
 26 25  1  0  0  0
 36 30  1  0  0  0
 29 30  1  0  0  0
 14 13  3  0  0  0
 17 22  1  0  0  0
 18 23  1  0  0  0
  5 14  1  0  0  0
  5  1  2  0  0  0
  4  1  1  0  0  0
 19 23  2  0  0  0
 19 22  1  0  0  0
 24 20  2  0  0  0
 21 20  1  0  0  0
  7  2  2  0  0  0
  2  9  1  0  0  0
  6  3  2  0  0  0
  3 10  1  0  0  0
 29 28  1  0  0  0
 27 28  1  0  0  0
 31 37  1  0  0  0
 36 32  1  0  0  0
 34 32  1  0  0  0
 35 33  1  0  0  0
 33 36  1  0  0  0
 37 34  1  0  0  0
 35 37  1  0  0  0
  9  4  2  0  0  0
 24 15  1  0  0  0
 15  8  1  0  0  0
 12  6  1  0  0  0
 27  7  1  0  0  0
 22 21  2  0  0  0
 23 24  1  0  0  0
  8  5  1  0  0  0
  6  7  1  0  0  0
 10  8  2  0  0  0
 10  9  1  0  0  0
 15 16  1  0  0  0
M  END
> <minimizedAffinity>
-7.39735

$$$$
5I9X_DB8_A_1001


 37 40  0  0  0  0  0  0  0  0999 V2000
  -84.6999  -14.5919   11.6724 C   0  0  0  0  0  0  0  0  0  0  0  0
  -87.9346  -16.0558   10.8901 C   0  0  0  0  0  0  0  0  0  0  0  0
  -87.4924  -14.4970    8.5816 C   0  0  0  0  0  0  0  0  0  0  0  0
  -85.8699  -15.3307   11.7495 N   0  0  0  0  0  0  0  0  0  0  0  0
  -84.4258  -13.8036   10.5648 C   0  0  0  0  0  0  0  0  0  0  0  0
  -88.6471  -15.2619    8.7328 C   0  0  0  0  0  0  0  0  0  0  0  0
  -88.8647  -16.0264    9.8680 C   0  0  0  0  0  0  0  0  0  0  0  0
  -85.3448  -13.7649    9.5035 C   0  0  0  0  0  0  0  0  0  0  0  0
  -86.7747  -15.2939   10.7478 C   0  0  0  0  0  0  0  0  0  0  0  0
  -86.5367  -14.5110    9.6033 C   0  0  0  0  0  0  0  0  0  0  0  0
  -89.5440  -14.3937    6.7279 C   0  0  0  0  0  0  0  0  0  0  0  0
  -89.6520  -15.3325    7.8021 O   0  0  0  0  0  0  0  0  0  0  0  0
  -82.3465  -12.3939   10.6703 N   0  0  0  0  0  0  0  0  0  0  0  0
  -83.2312  -13.0319   10.5969 C   0  0  0  0  0  0  0  0  0  0  0  0
  -85.1172  -13.0128    8.3736 N   0  0  0  0  0  0  0  0  0  0  0  0
  -85.5184  -12.1163    8.3046 H   0  0  0  0  0  0  0  0  0  0  0  0
  -81.9398  -14.8512    3.6763 Cl  0  0  0  0  0  0  0  0  0  0  0  0
  -86.5925  -13.1649    5.7795 Cl  0  0  0  0  0  0  0  0  0  0  0  0
  -84.2122  -13.9934    4.9438 C   0  0  0  0  0  0  0  0  0  0  0  0
  -82.9744  -13.8220    7.4409 C   0  0  0  0  0  0  0  0  0  0  0  0
  -82.2575  -14.2240    6.2989 C   0  0  0  0  0  0  0  0  0  0  0  0
  -82.8740  -14.3248    5.0637 C   0  0  0  0  0  0  0  0  0  0  0  0
  -84.9253  -13.5697    6.0597 C   0  0  0  0  0  0  0  0  0  0  0  0
  -84.3380  -13.4859    7.3318 C   0  0  0  0  0  0  0  0  0  0  0  0
  -80.9299  -14.5737    6.3014 O   0  0  0  0  0  0  0  0  0  0  0  0
  -80.2502  -14.0996    7.4646 C   0  0  0  0  0  0  0  0  0  0  0  0
  -90.0412  -16.7127    9.8908 O   0  0  0  0  0  0  0  0  0  0  0  0
  -90.7164  -16.7148   11.1549 C   0  0  0  0  0  0  0  0  0  0  0  0
  -91.7044  -15.5414   11.1253 C   0  0  0  0  0  0  0  0  0  0  0  0
  -91.7146  -14.8861   12.4964 C   0  0  0  0  0  0  0  0  0  0  0  0
  -87.4412  -13.6857   15.9414 C   0  0  0  0  0  0  0  0  0  0  0  0
  -89.7874  -13.6001   13.0035 C   0  0  0  0  0  0  0  0  0  0  0  0
  -90.5672  -15.2570   14.5709 C   0  0  0  0  0  0  0  0  0  0  0  0
  -88.4694  -13.5098   13.7581 C   0  0  0  0  0  0  0  0  0  0  0  0
  -89.2515  -15.1551   15.3190 C   0  0  0  0  0  0  0  0  0  0  0  0
  -90.3913  -14.9376   13.1442 N   0  0  0  0  0  0  0  0  0  0  0  0
  -88.6952  -13.8005   15.1806 N   0  0  0  0  0  0  0  0  0  0  0  0
 11 12  1  0  0  0
 21 25  1  0  0  0
 26 25  1  0  0  0
 36 30  1  0  0  0
 29 30  1  0  0  0
 14 13  3  0  0  0
 17 22  1  0  0  0
 18 23  1  0  0  0
  5 14  1  0  0  0
  5  1  2  0  0  0
  4  1  1  0  0  0
 19 23  2  0  0  0
 19 22  1  0  0  0
 24 20  2  0  0  0
 21 20  1  0  0  0
  7  2  2  0  0  0
  2  9  1  0  0  0
  6  3  2  0  0  0
  3 10  1  0  0  0
 29 28  1  0  0  0
 27 28  1  0  0  0
 31 37  1  0  0  0
 36 32  1  0  0  0
 34 32  1  0  0  0
 35 33  1  0  0  0
 33 36  1  0  0  0
 37 34  1  0  0  0
 35 37  1  0  0  0
  9  4  2  0  0  0
 24 15  1  0  0  0
 15  8  1  0  0  0
 12  6  1  0  0  0
 27  7  1  0  0  0
 22 21  2  0  0  0
 23 24  1  0  0  0
  8  5  1  0  0  0
  6  7  1  0  0  0
 10  8  2  0  0  0
 10  9  1  0  0  0
 15 16  1  0  0  0
M  END
> <minimizedAffinity>
-7.23072

$$$$
