3HL8_BBP_A_501


 21 23  0  0  0  0  0  0  0  0999 V2000
   34.7685    3.4749   57.8319 N   0  0  0  0  0  0  0  0  0  0  0  0
   35.2571    4.6599   58.2240 C   0  0  0  0  0  0  0  0  0  0  0  0
   34.4623    5.8928   58.1593 O   0  0  0  0  0  0  0  0  0  0  0  0
   35.7716    2.4808   57.9850 N   0  0  0  0  0  0  0  0  0  0  0  0
   36.7961    3.2258   58.4946 C   0  0  0  0  0  0  0  0  0  0  0  0
   36.6632    4.7087   58.7034 C   0  0  0  0  0  0  0  0  0  0  0  0
   34.9681    6.5797   57.6973 H   0  0  0  0  0  0  0  0  0  0  0  0
   27.7223    1.8231   55.0977 Cl  0  0  0  0  0  0  0  0  0  0  0  0
   29.1801    2.4710   55.8634 C   0  0  0  0  0  0  0  0  0  0  0  0
   28.9687    3.4866   56.7797 C   0  0  0  0  0  0  0  0  0  0  0  0
   30.0355    4.0327   57.4647 C   0  0  0  0  0  0  0  0  0  0  0  0
   30.4616    1.9648   55.6452 C   0  0  0  0  0  0  0  0  0  0  0  0
   31.5414    2.5212   56.3453 C   0  0  0  0  0  0  0  0  0  0  0  0
   33.1651    2.0246   56.1537 S   0  0  0  0  0  0  0  0  0  0  0  0
   31.3174    3.5536   57.2548 C   0  0  0  0  0  0  0  0  0  0  0  0
   32.4903    3.9421   57.8253 N   0  0  0  0  0  0  0  0  0  0  0  0
   33.5206    3.2239   57.3615 C   0  0  0  0  0  0  0  0  0  0  0  0
   38.1264    2.5846   58.7957 C   0  0  0  0  0  0  0  0  0  0  0  0
   38.1633    2.0385   60.2135 C   0  0  0  0  0  0  0  0  0  0  0  0
   38.2522    1.4130   57.8279 C   0  0  0  0  0  0  0  0  0  0  0  0
   39.2900    3.5320   58.5465 C   0  0  0  0  0  0  0  0  0  0  0  0
  8  9  1  0  0  0
 12  9  2  0  0  0
  9 10  1  0  0  0
 10 11  2  0  0  0
 15 11  1  0  0  0
 12 13  1  0  0  0
 14 13  1  0  0  0
 13 15  2  0  0  0
 14 17  1  0  0  0
 15 16  1  0  0  0
 17 16  2  0  0  0
 17  1  1  0  0  0
  2  1  1  0  0  0
  1  4  1  0  0  0
  3  2  1  0  0  0
  2  6  1  0  0  0
  4  5  2  0  0  0
  6  5  1  0  0  0
  5 18  1  0  0  0
 21 18  1  0  0  0
 18 19  1  0  0  0
 18 20  1  0  0  0
  3  7  1  0  0  0
M  END
> <minimizedAffinity>
-7.49650

$$$$
3HL8_BBP_A_501


 21 23  0  0  0  0  0  0  0  0999 V2000
   35.1394    2.7119   57.7958 N   0  0  0  0  0  0  0  0  0  0  0  0
   36.0361    1.7167   57.8417 C   0  0  0  0  0  0  0  0  0  0  0  0
   35.7146    0.3541   57.3991 O   0  0  0  0  0  0  0  0  0  0  0  0
   35.7280    3.8971   58.3121 N   0  0  0  0  0  0  0  0  0  0  0  0
   36.9843    3.4519   58.6087 C   0  0  0  0  0  0  0  0  0  0  0  0
   37.3824    2.0180   58.3951 C   0  0  0  0  0  0  0  0  0  0  0  0
   35.9592   -0.2776   58.0933 H   0  0  0  0  0  0  0  0  0  0  0  0
   27.9111    2.0698   55.1137 Cl  0  0  0  0  0  0  0  0  0  0  0  0
   29.4518    2.5071   55.8662 C   0  0  0  0  0  0  0  0  0  0  0  0
   29.3946    3.5492   56.7753 C   0  0  0  0  0  0  0  0  0  0  0  0
   30.5332    3.9413   57.4500 C   0  0  0  0  0  0  0  0  0  0  0  0
   30.6458    1.8205   55.6451 C   0  0  0  0  0  0  0  0  0  0  0  0
   31.7990    2.2210   56.3347 C   0  0  0  0  0  0  0  0  0  0  0  0
   33.3333    1.4948   56.1383 S   0  0  0  0  0  0  0  0  0  0  0  0
   31.7316    3.2814   57.2370 C   0  0  0  0  0  0  0  0  0  0  0  0
   32.9519    3.5016   57.7979 N   0  0  0  0  0  0  0  0  0  0  0  0
   33.8653    2.6394   57.3344 C   0  0  0  0  0  0  0  0  0  0  0  0
   37.9929    4.3814   59.2334 C   0  0  0  0  0  0  0  0  0  0  0  0
   39.4128    3.9164   58.9552 C   0  0  0  0  0  0  0  0  0  0  0  0
   37.7899    5.7321   58.5558 C   0  0  0  0  0  0  0  0  0  0  0  0
   37.7612    4.5606   60.7260 C   0  0  0  0  0  0  0  0  0  0  0  0
  8  9  1  0  0  0
 12  9  2  0  0  0
  9 10  1  0  0  0
 10 11  2  0  0  0
 15 11  1  0  0  0
 12 13  1  0  0  0
 14 13  1  0  0  0
 13 15  2  0  0  0
 14 17  1  0  0  0
 15 16  1  0  0  0
 17 16  2  0  0  0
 17  1  1  0  0  0
  2  1  1  0  0  0
  1  4  1  0  0  0
  3  2  1  0  0  0
  2  6  1  0  0  0
  4  5  2  0  0  0
  6  5  1  0  0  0
  5 18  1  0  0  0
 21 18  1  0  0  0
 18 19  1  0  0  0
 18 20  1  0  0  0
  3  7  1  0  0  0
M  END
> <minimizedAffinity>
-6.75056

$$$$
3HL8_BBP_A_501


 21 23  0  0  0  0  0  0  0  0999 V2000
   35.1298    1.7205   57.6126 N   0  0  0  0  0  0  0  0  0  0  0  0
   35.9848    2.6274   58.1058 C   0  0  0  0  0  0  0  0  0  0  0  0
   35.6231    4.0427   58.2542 O   0  0  0  0  0  0  0  0  0  0  0  0
   35.7682    0.4525   57.5642 N   0  0  0  0  0  0  0  0  0  0  0  0
   36.9948    0.7625   58.0779 C   0  0  0  0  0  0  0  0  0  0  0  0
   37.3496    2.1684   58.4749 C   0  0  0  0  0  0  0  0  0  0  0  0
   36.3043    4.5956   57.8405 H   0  0  0  0  0  0  0  0  0  0  0  0
   27.8269    2.7411   55.2718 Cl  0  0  0  0  0  0  0  0  0  0  0  0
   29.4471    2.7968   55.9810 C   0  0  0  0  0  0  0  0  0  0  0  0
   29.6210    3.7241   56.9938 C   0  0  0  0  0  0  0  0  0  0  0  0
   30.8355    3.8194   57.6427 C   0  0  0  0  0  0  0  0  0  0  0  0
   30.4794    1.9279   55.6270 C   0  0  0  0  0  0  0  0  0  0  0  0
   31.7104    2.0271   56.2909 C   0  0  0  0  0  0  0  0  0  0  0  0
   33.0697    1.0534   55.9389 S   0  0  0  0  0  0  0  0  0  0  0  0
   31.8775    2.9750   57.2992 C   0  0  0  0  0  0  0  0  0  0  0  0
   33.1354    2.8998   57.8132 N   0  0  0  0  0  0  0  0  0  0  0  0
   33.8507    1.9388   57.2154 C   0  0  0  0  0  0  0  0  0  0  0  0
   38.0611   -0.2964   58.1928 C   0  0  0  0  0  0  0  0  0  0  0  0
   38.5770   -0.4023   59.6184 C   0  0  0  0  0  0  0  0  0  0  0  0
   37.3816   -1.6124   57.8304 C   0  0  0  0  0  0  0  0  0  0  0  0
   39.2041   -0.0686   57.2155 C   0  0  0  0  0  0  0  0  0  0  0  0
  8  9  1  0  0  0
 12  9  2  0  0  0
  9 10  1  0  0  0
 10 11  2  0  0  0
 15 11  1  0  0  0
 12 13  1  0  0  0
 14 13  1  0  0  0
 13 15  2  0  0  0
 14 17  1  0  0  0
 15 16  1  0  0  0
 17 16  2  0  0  0
 17  1  1  0  0  0
  2  1  1  0  0  0
  1  4  1  0  0  0
  3  2  1  0  0  0
  2  6  1  0  0  0
  4  5  2  0  0  0
  6  5  1  0  0  0
  5 18  1  0  0  0
 21 18  1  0  0  0
 18 19  1  0  0  0
 18 20  1  0  0  0
  3  7  1  0  0  0
M  END
> <minimizedAffinity>
-6.33573

$$$$
3HL8_BBP_A_501


 21 23  0  0  0  0  0  0  0  0999 V2000
   32.7254    2.6297   56.6982 N   0  0  0  0  0  0  0  0  0  0  0  0
   32.6537    1.4106   56.1455 C   0  0  0  0  0  0  0  0  0  0  0  0
   33.8307    0.5430   56.0114 O   0  0  0  0  0  0  0  0  0  0  0  0
   31.4414    3.2362   56.6632 N   0  0  0  0  0  0  0  0  0  0  0  0
   30.7061    2.2474   56.0748 C   0  0  0  0  0  0  0  0  0  0  0  0
   31.3362    0.9581   55.6270 C   0  0  0  0  0  0  0  0  0  0  0  0
   33.9008    0.2326   55.0951 H   0  0  0  0  0  0  0  0  0  0  0  0
   38.8808    6.2039   59.7298 Cl  0  0  0  0  0  0  0  0  0  0  0  0
   37.6640    5.1052   59.0638 C   0  0  0  0  0  0  0  0  0  0  0  0
   37.9367    3.7563   59.2118 C   0  0  0  0  0  0  0  0  0  0  0  0
   37.0316    2.8149   58.7647 C   0  0  0  0  0  0  0  0  0  0  0  0
   36.4632    5.5301   58.4949 C   0  0  0  0  0  0  0  0  0  0  0  0
   35.5461    4.5700   58.0446 C   0  0  0  0  0  0  0  0  0  0  0  0
   34.0549    4.9452   57.2993 S   0  0  0  0  0  0  0  0  0  0  0  0
   35.8388    3.2144   58.1862 C   0  0  0  0  0  0  0  0  0  0  0  0
   34.8204    2.4581   57.6933 N   0  0  0  0  0  0  0  0  0  0  0  0
   33.8280    3.2230   57.2214 C   0  0  0  0  0  0  0  0  0  0  0  0
   29.2409    2.4561   55.7901 C   0  0  0  0  0  0  0  0  0  0  0  0
   28.6523    3.5222   56.6994 C   0  0  0  0  0  0  0  0  0  0  0  0
   29.1635    2.9572   54.3522 C   0  0  0  0  0  0  0  0  0  0  0  0
   28.4477    1.1617   55.8841 C   0  0  0  0  0  0  0  0  0  0  0  0
  8  9  1  0  0  0
 12  9  2  0  0  0
  9 10  1  0  0  0
 10 11  2  0  0  0
 15 11  1  0  0  0
 12 13  1  0  0  0
 14 13  1  0  0  0
 13 15  2  0  0  0
 14 17  1  0  0  0
 15 16  1  0  0  0
 17 16  2  0  0  0
 17  1  1  0  0  0
  2  1  1  0  0  0
  1  4  1  0  0  0
  3  2  1  0  0  0
  2  6  1  0  0  0
  4  5  2  0  0  0
  6  5  1  0  0  0
  5 18  1  0  0  0
 21 18  1  0  0  0
 18 19  1  0  0  0
 18 20  1  0  0  0
  3  7  1  0  0  0
M  END
> <minimizedAffinity>
-5.93972

$$$$
3HL8_BBP_A_501


 21 23  0  0  0  0  0  0  0  0999 V2000
   36.3800    3.8113   58.3665 N   0  0  0  0  0  0  0  0  0  0  0  0
   36.8620    5.0617   58.3972 C   0  0  0  0  0  0  0  0  0  0  0  0
   36.1343    6.1943   57.8111 O   0  0  0  0  0  0  0  0  0  0  0  0
   37.3124    2.9345   58.9826 N   0  0  0  0  0  0  0  0  0  0  0  0
   38.2918    3.8143   59.3448 C   0  0  0  0  0  0  0  0  0  0  0  0
   38.1945    5.2787   59.0192 C   0  0  0  0  0  0  0  0  0  0  0  0
   36.7240    6.6852   57.2177 H   0  0  0  0  0  0  0  0  0  0  0  0
   29.6896    1.2876   55.4128 Cl  0  0  0  0  0  0  0  0  0  0  0  0
   31.0582    2.1641   56.1128 C   0  0  0  0  0  0  0  0  0  0  0  0
   30.7648    3.4193   56.6170 C   0  0  0  0  0  0  0  0  0  0  0  0
   31.7527    4.1691   57.2229 C   0  0  0  0  0  0  0  0  0  0  0  0
   32.3400    1.6284   56.2391 C   0  0  0  0  0  0  0  0  0  0  0  0
   33.3393    2.3930   56.8575 C   0  0  0  0  0  0  0  0  0  0  0  0
   34.9574    1.8787   57.0505 S   0  0  0  0  0  0  0  0  0  0  0  0
   33.0347    3.6618   57.3483 C   0  0  0  0  0  0  0  0  0  0  0  0
   34.1374    4.2267   57.9115 N   0  0  0  0  0  0  0  0  0  0  0  0
   35.1947    3.4081   57.8430 C   0  0  0  0  0  0  0  0  0  0  0  0
   39.5438    3.3214   60.0239 C   0  0  0  0  0  0  0  0  0  0  0  0
   39.8614    4.1511   61.2570 C   0  0  0  0  0  0  0  0  0  0  0  0
   39.2409    1.8955   60.4712 C   0  0  0  0  0  0  0  0  0  0  0  0
   40.7322    3.2781   59.0757 C   0  0  0  0  0  0  0  0  0  0  0  0
  8  9  1  0  0  0
 12  9  2  0  0  0
  9 10  1  0  0  0
 10 11  2  0  0  0
 15 11  1  0  0  0
 12 13  1  0  0  0
 14 13  1  0  0  0
 13 15  2  0  0  0
 14 17  1  0  0  0
 15 16  1  0  0  0
 17 16  2  0  0  0
 17  1  1  0  0  0
  2  1  1  0  0  0
  1  4  1  0  0  0
  3  2  1  0  0  0
  2  6  1  0  0  0
  4  5  2  0  0  0
  6  5  1  0  0  0
  5 18  1  0  0  0
 21 18  1  0  0  0
 18 19  1  0  0  0
 18 20  1  0  0  0
  3  7  1  0  0  0
M  END
> <minimizedAffinity>
-5.81556

$$$$
3HL8_BBP_A_501


 21 23  0  0  0  0  0  0  0  0999 V2000
   35.6877    0.2630   54.9192 N   0  0  0  0  0  0  0  0  0  0  0  0
   36.4176    0.5406   53.8297 C   0  0  0  0  0  0  0  0  0  0  0  0
   36.0769    1.6425   52.9209 O   0  0  0  0  0  0  0  0  0  0  0  0
   36.2428   -0.8653   55.5798 N   0  0  0  0  0  0  0  0  0  0  0  0
   37.3096   -1.1371   54.7720 C   0  0  0  0  0  0  0  0  0  0  0  0
   37.5847   -0.3308   53.5333 C   0  0  0  0  0  0  0  0  0  0  0  0
   36.0472    1.3123   52.0093 H   0  0  0  0  0  0  0  0  0  0  0  0
   29.3199    3.8634   57.4374 Cl  0  0  0  0  0  0  0  0  0  0  0  0
   30.9288    3.3394   56.9198 C   0  0  0  0  0  0  0  0  0  0  0  0
   31.9630    4.2078   57.2234 C   0  0  0  0  0  0  0  0  0  0  0  0
   33.2630    3.8742   56.9010 C   0  0  0  0  0  0  0  0  0  0  0  0
   31.1875    2.1077   56.3180 C   0  0  0  0  0  0  0  0  0  0  0  0
   32.5100    1.7725   55.9948 C   0  0  0  0  0  0  0  0  0  0  0  0
   32.9688    0.3165   55.2270 S   0  0  0  0  0  0  0  0  0  0  0  0
   33.5412    2.6620   56.2926 C   0  0  0  0  0  0  0  0  0  0  0  0
   34.7380    2.1435   55.9041 N   0  0  0  0  0  0  0  0  0  0  0  0
   34.5903    0.9309   55.3561 C   0  0  0  0  0  0  0  0  0  0  0  0
   38.2065   -2.3121   55.0659 C   0  0  0  0  0  0  0  0  0  0  0  0
   39.6040   -2.0868   54.5127 C   0  0  0  0  0  0  0  0  0  0  0  0
   38.3006   -2.3940   56.5856 C   0  0  0  0  0  0  0  0  0  0  0  0
   37.6234   -3.6212   54.5561 C   0  0  0  0  0  0  0  0  0  0  0  0
  8  9  1  0  0  0
 12  9  2  0  0  0
  9 10  1  0  0  0
 10 11  2  0  0  0
 15 11  1  0  0  0
 12 13  1  0  0  0
 14 13  1  0  0  0
 13 15  2  0  0  0
 14 17  1  0  0  0
 15 16  1  0  0  0
 17 16  2  0  0  0
 17  1  1  0  0  0
  2  1  1  0  0  0
  1  4  1  0  0  0
  3  2  1  0  0  0
  2  6  1  0  0  0
  4  5  2  0  0  0
  6  5  1  0  0  0
  5 18  1  0  0  0
 21 18  1  0  0  0
 18 19  1  0  0  0
 18 20  1  0  0  0
  3  7  1  0  0  0
M  END
> <minimizedAffinity>
-5.61805

$$$$
3HL8_BBP_A_501


 21 23  0  0  0  0  0  0  0  0999 V2000
   37.4787    4.4789   59.1381 N   0  0  0  0  0  0  0  0  0  0  0  0
   37.6565    4.6193   60.4593 C   0  0  0  0  0  0  0  0  0  0  0  0
   36.6396    4.2029   61.4332 O   0  0  0  0  0  0  0  0  0  0  0  0
   38.6134    4.9928   58.4555 N   0  0  0  0  0  0  0  0  0  0  0  0
   39.3887    5.3886   59.5074 C   0  0  0  0  0  0  0  0  0  0  0  0
   38.9173    5.2516   60.9284 C   0  0  0  0  0  0  0  0  0  0  0  0
   36.4604    4.9334   62.0457 H   0  0  0  0  0  0  0  0  0  0  0  0
   31.3971    1.1717   55.6841 Cl  0  0  0  0  0  0  0  0  0  0  0  0
   32.6369    2.2210   56.3863 C   0  0  0  0  0  0  0  0  0  0  0  0
   32.3015    3.5610   56.4738 C   0  0  0  0  0  0  0  0  0  0  0  0
   33.1816    4.4580   57.0448 C   0  0  0  0  0  0  0  0  0  0  0  0
   33.8469    1.7553   56.9012 C   0  0  0  0  0  0  0  0  0  0  0  0
   34.7363    2.6701   57.4825 C   0  0  0  0  0  0  0  0  0  0  0  0
   36.2636    2.2472   58.1215 S   0  0  0  0  0  0  0  0  0  0  0  0
   34.3931    4.0194   57.5515 C   0  0  0  0  0  0  0  0  0  0  0  0
   35.3865    4.7284   58.1537 N   0  0  0  0  0  0  0  0  0  0  0  0
   36.4030    3.9353   58.5145 C   0  0  0  0  0  0  0  0  0  0  0  0
   40.7221    6.0478   59.2640 C   0  0  0  0  0  0  0  0  0  0  0  0
   40.8744    6.4551   57.8078 C   0  0  0  0  0  0  0  0  0  0  0  0
   40.7237    7.3113   60.1173 C   0  0  0  0  0  0  0  0  0  0  0  0
   41.8845    5.1738   59.7095 C   0  0  0  0  0  0  0  0  0  0  0  0
  8  9  1  0  0  0
 12  9  2  0  0  0
  9 10  1  0  0  0
 10 11  2  0  0  0
 15 11  1  0  0  0
 12 13  1  0  0  0
 14 13  1  0  0  0
 13 15  2  0  0  0
 14 17  1  0  0  0
 15 16  1  0  0  0
 17 16  2  0  0  0
 17  1  1  0  0  0
  2  1  1  0  0  0
  1  4  1  0  0  0
  3  2  1  0  0  0
  2  6  1  0  0  0
  4  5  2  0  0  0
  6  5  1  0  0  0
  5 18  1  0  0  0
 21 18  1  0  0  0
 18 19  1  0  0  0
 18 20  1  0  0  0
  3  7  1  0  0  0
M  END
> <minimizedAffinity>
-5.49004

$$$$
3HL8_BBP_A_501


 21 23  0  0  0  0  0  0  0  0999 V2000
   35.4018    3.3283   57.8540 N   0  0  0  0  0  0  0  0  0  0  0  0
   35.1371    4.6392   57.7640 C   0  0  0  0  0  0  0  0  0  0  0  0
   34.0206    5.1578   56.9637 O   0  0  0  0  0  0  0  0  0  0  0  0
   36.5490    3.1369   58.6695 N   0  0  0  0  0  0  0  0  0  0  0  0
   36.8445    4.4272   59.0044 C   0  0  0  0  0  0  0  0  0  0  0  0
   36.0380    5.5816   58.4779 C   0  0  0  0  0  0  0  0  0  0  0  0
   34.3440    5.8535   56.3702 H   0  0  0  0  0  0  0  0  0  0  0  0
   31.6032   -2.5971   54.6424 Cl  0  0  0  0  0  0  0  0  0  0  0  0
   32.1824   -1.0700   55.3233 C   0  0  0  0  0  0  0  0  0  0  0  0
   31.2105   -0.1078   55.5365 C   0  0  0  0  0  0  0  0  0  0  0  0
   31.5501    1.1041   56.1034 C   0  0  0  0  0  0  0  0  0  0  0  0
   33.5043   -0.8432   55.7068 C   0  0  0  0  0  0  0  0  0  0  0  0
   33.8437    0.3884   56.2845 C   0  0  0  0  0  0  0  0  0  0  0  0
   35.4254    0.8153   56.7701 S   0  0  0  0  0  0  0  0  0  0  0  0
   32.8584    1.3549   56.4806 C   0  0  0  0  0  0  0  0  0  0  0  0
   33.3951    2.4655   57.0556 N   0  0  0  0  0  0  0  0  0  0  0  0
   34.7071    2.3157   57.2764 C   0  0  0  0  0  0  0  0  0  0  0  0
   38.0453    4.7347   59.8617 C   0  0  0  0  0  0  0  0  0  0  0  0
   37.7106    4.6092   61.3389 C   0  0  0  0  0  0  0  0  0  0  0  0
   39.0863    3.6760   59.5150 C   0  0  0  0  0  0  0  0  0  0  0  0
   38.6375    6.1009   59.5516 C   0  0  0  0  0  0  0  0  0  0  0  0
  8  9  1  0  0  0
 12  9  2  0  0  0
  9 10  1  0  0  0
 10 11  2  0  0  0
 15 11  1  0  0  0
 12 13  1  0  0  0
 14 13  1  0  0  0
 13 15  2  0  0  0
 14 17  1  0  0  0
 15 16  1  0  0  0
 17 16  2  0  0  0
 17  1  1  0  0  0
  2  1  1  0  0  0
  1  4  1  0  0  0
  3  2  1  0  0  0
  2  6  1  0  0  0
  4  5  2  0  0  0
  6  5  1  0  0  0
  5 18  1  0  0  0
 21 18  1  0  0  0
 18 19  1  0  0  0
 18 20  1  0  0  0
  3  7  1  0  0  0
M  END
> <minimizedAffinity>
-5.36981

$$$$
3HL8_BBP_A_501


 21 23  0  0  0  0  0  0  0  0999 V2000
   32.4256    1.5506   56.1163 N   0  0  0  0  0  0  0  0  0  0  0  0
   32.3634    2.6545   56.8741 C   0  0  0  0  0  0  0  0  0  0  0  0
   33.5199    3.1479   57.6323 O   0  0  0  0  0  0  0  0  0  0  0  0
   31.1531    1.3110   55.5323 N   0  0  0  0  0  0  0  0  0  0  0  0
   30.4417    2.3679   56.0235 C   0  0  0  0  0  0  0  0  0  0  0  0
   31.0612    3.3658   56.9619 C   0  0  0  0  0  0  0  0  0  0  0  0
   33.2617    3.2968   58.5554 H   0  0  0  0  0  0  0  0  0  0  0  0
   38.4733   -3.1202   54.9065 Cl  0  0  0  0  0  0  0  0  0  0  0  0
   37.3196   -1.8014   55.1534 C   0  0  0  0  0  0  0  0  0  0  0  0
   37.7961   -0.5337   54.8678 C   0  0  0  0  0  0  0  0  0  0  0  0
   36.9634    0.5608   54.9867 C   0  0  0  0  0  0  0  0  0  0  0  0
   35.9903   -1.9937   55.5304 C   0  0  0  0  0  0  0  0  0  0  0  0
   35.1479   -0.8790   55.6473 C   0  0  0  0  0  0  0  0  0  0  0  0
   33.5112   -0.9618   56.1310 S   0  0  0  0  0  0  0  0  0  0  0  0
   35.6438    0.3942   55.3709 C   0  0  0  0  0  0  0  0  0  0  0  0
   34.6673    1.3272   55.5388 N   0  0  0  0  0  0  0  0  0  0  0  0
   33.5118    0.7632   55.9120 C   0  0  0  0  0  0  0  0  0  0  0  0
   28.9797    2.5211   55.6909 C   0  0  0  0  0  0  0  0  0  0  0  0
   28.2271    1.2202   55.9166 C   0  0  0  0  0  0  0  0  0  0  0  0
   28.4384    3.5625   56.6641 C   0  0  0  0  0  0  0  0  0  0  0  0
   28.7637    3.0369   54.2764 C   0  0  0  0  0  0  0  0  0  0  0  0
  8  9  1  0  0  0
 12  9  2  0  0  0
  9 10  1  0  0  0
 10 11  2  0  0  0
 15 11  1  0  0  0
 12 13  1  0  0  0
 14 13  1  0  0  0
 13 15  2  0  0  0
 14 17  1  0  0  0
 15 16  1  0  0  0
 17 16  2  0  0  0
 17  1  1  0  0  0
  2  1  1  0  0  0
  1  4  1  0  0  0
  3  2  1  0  0  0
  2  6  1  0  0  0
  4  5  2  0  0  0
  6  5  1  0  0  0
  5 18  1  0  0  0
 21 18  1  0  0  0
 18 19  1  0  0  0
 18 20  1  0  0  0
  3  7  1  0  0  0
M  END
> <minimizedAffinity>
-5.22421

$$$$
3HL8_BBP_A_501


 21 23  0  0  0  0  0  0  0  0999 V2000
   35.9597    0.8327   55.7236 N   0  0  0  0  0  0  0  0  0  0  0  0
   36.4667    0.6786   54.4924 C   0  0  0  0  0  0  0  0  0  0  0  0
   35.7312    1.0845   53.2881 O   0  0  0  0  0  0  0  0  0  0  0  0
   36.8829    0.3262   56.6771 N   0  0  0  0  0  0  0  0  0  0  0  0
   37.8988   -0.0804   55.8604 C   0  0  0  0  0  0  0  0  0  0  0  0
   37.8037    0.0416   54.3650 C   0  0  0  0  0  0  0  0  0  0  0  0
   35.7115    0.3477   52.6576 H   0  0  0  0  0  0  0  0  0  0  0  0
   29.2454    4.1689   57.6320 Cl  0  0  0  0  0  0  0  0  0  0  0  0
   30.5842    3.1732   57.0424 C   0  0  0  0  0  0  0  0  0  0  0  0
   30.2396    2.1988   56.1217 C   0  0  0  0  0  0  0  0  0  0  0  0
   31.2157    1.3954   55.5675 C   0  0  0  0  0  0  0  0  0  0  0  0
   31.9180    3.3785   57.3956 C   0  0  0  0  0  0  0  0  0  0  0  0
   32.9059    2.5615   56.8279 C   0  0  0  0  0  0  0  0  0  0  0  0
   34.5712    2.6776   57.1930 S   0  0  0  0  0  0  0  0  0  0  0  0
   32.5445    1.5740   55.9128 C   0  0  0  0  0  0  0  0  0  0  0  0
   33.6478    0.9037   55.4820 N   0  0  0  0  0  0  0  0  0  0  0  0
   34.7624    1.3826   56.0484 C   0  0  0  0  0  0  0  0  0  0  0  0
   39.1251   -0.7367   56.4409 C   0  0  0  0  0  0  0  0  0  0  0  0
   39.1167   -2.2352   56.1872 C   0  0  0  0  0  0  0  0  0  0  0  0
   40.3117   -0.1320   55.6986 C   0  0  0  0  0  0  0  0  0  0  0  0
   39.2901   -0.4361   57.9228 C   0  0  0  0  0  0  0  0  0  0  0  0
  8  9  1  0  0  0
 12  9  2  0  0  0
  9 10  1  0  0  0
 10 11  2  0  0  0
 15 11  1  0  0  0
 12 13  1  0  0  0
 14 13  1  0  0  0
 13 15  2  0  0  0
 14 17  1  0  0  0
 15 16  1  0  0  0
 17 16  2  0  0  0
 17  1  1  0  0  0
  2  1  1  0  0  0
  1  4  1  0  0  0
  3  2  1  0  0  0
  2  6  1  0  0  0
  4  5  2  0  0  0
  6  5  1  0  0  0
  5 18  1  0  0  0
 21 18  1  0  0  0
 18 19  1  0  0  0
 18 20  1  0  0  0
  3  7  1  0  0  0
M  END
> <minimizedAffinity>
-5.12123

$$$$
