1BR6_PT1_A_301


 28 30  0  0  0  0  0  0  0  0999 V2000
    0.5447    0.5744   10.8154 C   0  0  0  0  0  0  0  0  0  0  0  0
    0.7000    1.2558    9.5980 C   0  0  0  0  0  0  0  0  0  0  0  0
    2.0392    1.4567    9.1509 C   0  0  0  0  0  0  0  0  0  0  0  0
   -0.3282    1.6614    8.8521 N   0  0  0  0  0  0  0  0  0  0  0  0
    2.8382    0.4007   11.0228 C   0  0  0  0  0  0  0  0  0  0  0  0
    3.1203    1.0334    9.8693 N   0  0  0  0  0  0  0  0  0  0  0  0
   -0.0717    2.3006    7.6856 C   0  0  0  0  0  0  0  0  0  0  0  0
    3.9170    0.0488   11.7708 N   0  0  0  0  0  0  0  0  0  0  0  0
    1.2446    2.5134    7.2490 C   0  0  0  0  0  0  0  0  0  0  0  0
   -0.7157    0.3485   11.3051 O   0  0  0  0  0  0  0  0  0  0  0  0
    1.6285    0.1479   11.5506 N   0  0  0  0  0  0  0  0  0  0  0  0
    2.2836    2.0940    7.9881 N   0  0  0  0  0  0  0  0  0  0  0  0
    4.8263    0.2120   11.4306 H   0  0  0  0  0  0  0  0  0  0  0  0
    3.7891   -0.3694   12.6529 H   0  0  0  0  0  0  0  0  0  0  0  0
   -1.4650    0.6315   10.8187 H   0  0  0  0  0  0  0  0  0  0  0  0
   -1.2301    2.9137    6.9333 C   0  0  0  0  0  0  0  0  0  0  0  0
   -0.9129    4.2646    6.5544 N   0  0  0  0  0  0  0  0  0  0  0  0
   -0.3949    4.4273    5.7331 H   0  0  0  0  0  0  0  0  0  0  0  0
   -1.3244    5.3447    7.3269 C   0  0  0  0  0  0  0  0  0  0  0  0
   -2.1194    6.3465    6.7499 C   0  0  0  0  0  0  0  0  0  0  0  0
   -1.0024    5.4398    8.6831 C   0  0  0  0  0  0  0  0  0  0  0  0
   -2.5883    7.4163    7.5143 C   0  0  0  0  0  0  0  0  0  0  0  0
   -1.4783    6.5171    9.4429 C   0  0  0  0  0  0  0  0  0  0  0  0
   -2.2803    7.4955    8.8596 C   0  0  0  0  0  0  0  0  0  0  0  0
   -2.8299    8.6153    9.6987 C   0  0  0  0  0  0  0  0  0  0  0  0
   -2.9172    9.8186    9.2514 O   0  0  0  0  0  0  0  0  0  0  0  0
   -3.2361    8.3715   10.8968 O   0  0  0  0  0  0  0  0  0  0  0  0
   -3.1816    7.5022   11.2421 H   0  0  0  0  0  0  0  0  0  0  0  0
  1  2  1  0  0  0
  1 10  1  0  0  0
  1 11  2  0  0  0
  2  3  2  0  0  0
  2  4  1  0  0  0
  3  6  1  0  0  0
  3 12  1  0  0  0
  4  7  2  0  0  0
  5  6  2  0  0  0
  5  8  1  0  0  0
  5 11  1  0  0  0
  7  9  1  0  0  0
  7 16  1  0  0  0
  9 12  2  0  0  0
 25 26  2  0  0  0
 25 24  1  0  0  0
 25 27  1  0  0  0
 16 17  1  0  0  0
 17 19  1  0  0  0
 19 20  2  0  0  0
 19 21  1  0  0  0
 20 22  1  0  0  0
 21 23  2  0  0  0
 22 24  2  0  0  0
 23 24  1  0  0  0
  8 13  1  0  0  0
  8 14  1  0  0  0
 10 15  1  0  0  0
 17 18  1  0  0  0
 27 28  1  0  0  0
M  END
> <minimizedAffinity>
-9.27103

$$$$
1BR6_PT1_A_301


 28 30  0  0  0  0  0  0  0  0999 V2000
   -1.9497    6.3057   10.1313 C   0  0  0  0  0  0  0  0  0  0  0  0
   -1.8949    6.0619    8.7500 C   0  0  0  0  0  0  0  0  0  0  0  0
   -2.2033    7.1643    7.8995 C   0  0  0  0  0  0  0  0  0  0  0  0
   -1.5295    4.8899    8.2296 N   0  0  0  0  0  0  0  0  0  0  0  0
   -2.5788    8.4915    9.7312 C   0  0  0  0  0  0  0  0  0  0  0  0
   -2.5553    8.3890    8.3898 N   0  0  0  0  0  0  0  0  0  0  0  0
   -1.4970    4.7601    6.8815 C   0  0  0  0  0  0  0  0  0  0  0  0
   -3.0027    9.6888   10.2147 N   0  0  0  0  0  0  0  0  0  0  0  0
   -1.8139    5.8380    6.0409 C   0  0  0  0  0  0  0  0  0  0  0  0
   -1.6665    5.2893   11.0067 O   0  0  0  0  0  0  0  0  0  0  0  0
   -2.3088    7.5358   10.6365 N   0  0  0  0  0  0  0  0  0  0  0  0
   -2.1678    7.0246    6.5589 N   0  0  0  0  0  0  0  0  0  0  0  0
   -3.2142   10.4233    9.5941 H   0  0  0  0  0  0  0  0  0  0  0  0
   -3.0984    9.8218   11.1855 H   0  0  0  0  0  0  0  0  0  0  0  0
   -1.4204    4.4458   10.6813 H   0  0  0  0  0  0  0  0  0  0  0  0
   -1.2565    3.3870    6.2982 C   0  0  0  0  0  0  0  0  0  0  0  0
    0.1456    3.0691    6.3460 N   0  0  0  0  0  0  0  0  0  0  0  0
    0.7285    3.3407    5.6005 H   0  0  0  0  0  0  0  0  0  0  0  0
    0.6926    2.3854    7.4259 C   0  0  0  0  0  0  0  0  0  0  0  0
    2.0869    2.3092    7.5636 C   0  0  0  0  0  0  0  0  0  0  0  0
   -0.1128    1.8045    8.4087 C   0  0  0  0  0  0  0  0  0  0  0  0
    2.6630    1.6723    8.6640 C   0  0  0  0  0  0  0  0  0  0  0  0
    0.4747    1.1679    9.5105 C   0  0  0  0  0  0  0  0  0  0  0  0
    1.8605    1.1146    9.6417 C   0  0  0  0  0  0  0  0  0  0  0  0
    2.4765    0.4776   10.8562 C   0  0  0  0  0  0  0  0  0  0  0  0
    1.7576   -0.0413   11.7887 O   0  0  0  0  0  0  0  0  0  0  0  0
    3.7591    0.4370   10.9711 O   0  0  0  0  0  0  0  0  0  0  0  0
    4.3012    0.8090   10.3035 H   0  0  0  0  0  0  0  0  0  0  0  0
  1  2  1  0  0  0
  1 10  1  0  0  0
  1 11  2  0  0  0
  2  3  2  0  0  0
  2  4  1  0  0  0
  3  6  1  0  0  0
  3 12  1  0  0  0
  4  7  2  0  0  0
  5  6  2  0  0  0
  5  8  1  0  0  0
  5 11  1  0  0  0
  7  9  1  0  0  0
  7 16  1  0  0  0
  9 12  2  0  0  0
 25 26  2  0  0  0
 25 24  1  0  0  0
 25 27  1  0  0  0
 16 17  1  0  0  0
 17 19  1  0  0  0
 19 20  2  0  0  0
 19 21  1  0  0  0
 20 22  1  0  0  0
 21 23  2  0  0  0
 22 24  2  0  0  0
 23 24  1  0  0  0
  8 13  1  0  0  0
  8 14  1  0  0  0
 10 15  1  0  0  0
 17 18  1  0  0  0
 27 28  1  0  0  0
M  END
> <minimizedAffinity>
-8.90607

$$$$
1BR6_PT1_A_301


 28 30  0  0  0  0  0  0  0  0999 V2000
   -1.6886    6.6574   10.5885 C   0  0  0  0  0  0  0  0  0  0  0  0
   -1.9008    6.7203    9.2023 C   0  0  0  0  0  0  0  0  0  0  0  0
   -2.0192    8.0248    8.6383 C   0  0  0  0  0  0  0  0  0  0  0  0
   -1.9440    5.6409    8.4208 N   0  0  0  0  0  0  0  0  0  0  0  0
   -1.7552    8.9624   10.7140 C   0  0  0  0  0  0  0  0  0  0  0  0
   -1.9533    9.1576    9.3975 N   0  0  0  0  0  0  0  0  0  0  0  0
   -2.1418    5.8096    7.0913 C   0  0  0  0  0  0  0  0  0  0  0  0
   -1.7662   10.0878   11.4759 N   0  0  0  0  0  0  0  0  0  0  0  0
   -2.2735    7.0906    6.5341 C   0  0  0  0  0  0  0  0  0  0  0  0
   -1.5674    5.4347   11.1968 O   0  0  0  0  0  0  0  0  0  0  0  0
   -1.6259    7.7937   11.3645 N   0  0  0  0  0  0  0  0  0  0  0  0
   -2.2158    8.1817    7.3136 N   0  0  0  0  0  0  0  0  0  0  0  0
   -1.8585   10.9702   11.0492 H   0  0  0  0  0  0  0  0  0  0  0  0
   -1.6818   10.0206   12.4545 H   0  0  0  0  0  0  0  0  0  0  0  0
   -1.6076    4.6509   10.6850 H   0  0  0  0  0  0  0  0  0  0  0  0
   -2.3673    4.5831    6.2377 C   0  0  0  0  0  0  0  0  0  0  0  0
   -1.1229    4.1458    5.6637 N   0  0  0  0  0  0  0  0  0  0  0  0
   -0.9198    4.3653    4.7257 H   0  0  0  0  0  0  0  0  0  0  0  0
   -0.2019    3.4188    6.4093 C   0  0  0  0  0  0  0  0  0  0  0  0
   -0.6485    2.3808    7.2412 C   0  0  0  0  0  0  0  0  0  0  0  0
    1.1704    3.6658    6.3201 C   0  0  0  0  0  0  0  0  0  0  0  0
    0.2582    1.6022    7.9625 C   0  0  0  0  0  0  0  0  0  0  0  0
    2.0732    2.8782    7.0475 C   0  0  0  0  0  0  0  0  0  0  0  0
    1.6157    1.8407    7.8566 C   0  0  0  0  0  0  0  0  0  0  0  0
    2.5981    0.9684    8.5875 C   0  0  0  0  0  0  0  0  0  0  0  0
    2.4898    0.7329    9.8478 O   0  0  0  0  0  0  0  0  0  0  0  0
    3.5734    0.4296    7.9408 O   0  0  0  0  0  0  0  0  0  0  0  0
    3.6708    0.5880    7.0224 H   0  0  0  0  0  0  0  0  0  0  0  0
  1  2  1  0  0  0
  1 10  1  0  0  0
  1 11  2  0  0  0
  2  3  2  0  0  0
  2  4  1  0  0  0
  3  6  1  0  0  0
  3 12  1  0  0  0
  4  7  2  0  0  0
  5  6  2  0  0  0
  5  8  1  0  0  0
  5 11  1  0  0  0
  7  9  1  0  0  0
  7 16  1  0  0  0
  9 12  2  0  0  0
 25 26  2  0  0  0
 25 24  1  0  0  0
 25 27  1  0  0  0
 16 17  1  0  0  0
 17 19  1  0  0  0
 19 20  2  0  0  0
 19 21  1  0  0  0
 20 22  1  0  0  0
 21 23  2  0  0  0
 22 24  2  0  0  0
 23 24  1  0  0  0
  8 13  1  0  0  0
  8 14  1  0  0  0
 10 15  1  0  0  0
 17 18  1  0  0  0
 27 28  1  0  0  0
M  END
> <minimizedAffinity>
-8.67492

$$$$
1BR6_PT1_A_301


 28 30  0  0  0  0  0  0  0  0999 V2000
    0.6248    1.4549    9.3930 C   0  0  0  0  0  0  0  0  0  0  0  0
    0.2623    2.4414    8.4624 C   0  0  0  0  0  0  0  0  0  0  0  0
    1.1305    2.6058    7.3431 C   0  0  0  0  0  0  0  0  0  0  0  0
   -0.8519    3.1667    8.5643 N   0  0  0  0  0  0  0  0  0  0  0  0
    2.5069    0.9590    8.1500 C   0  0  0  0  0  0  0  0  0  0  0  0
    2.2668    1.8655    7.1851 N   0  0  0  0  0  0  0  0  0  0  0  0
   -1.1177    4.0863    7.6057 C   0  0  0  0  0  0  0  0  0  0  0  0
    3.6767    0.2779    8.0285 N   0  0  0  0  0  0  0  0  0  0  0  0
   -0.2586    4.2617    6.5103 C   0  0  0  0  0  0  0  0  0  0  0  0
   -0.1643    1.2449   10.4942 O   0  0  0  0  0  0  0  0  0  0  0  0
    1.7716    0.7063    9.2460 N   0  0  0  0  0  0  0  0  0  0  0  0
    0.8566    3.5239    6.3943 N   0  0  0  0  0  0  0  0  0  0  0  0
    4.2533    0.4258    7.2444 H   0  0  0  0  0  0  0  0  0  0  0  0
    3.9476   -0.3633    8.7247 H   0  0  0  0  0  0  0  0  0  0  0  0
   -0.9482    1.7448   10.6110 H   0  0  0  0  0  0  0  0  0  0  0  0
   -2.2828    5.0257    7.8154 C   0  0  0  0  0  0  0  0  0  0  0  0
   -1.8333    6.3907    7.7538 N   0  0  0  0  0  0  0  0  0  0  0  0
   -1.4259    6.7284    6.9236 H   0  0  0  0  0  0  0  0  0  0  0  0
   -1.9637    7.2419    8.8453 C   0  0  0  0  0  0  0  0  0  0  0  0
   -1.0787    7.1218    9.9274 C   0  0  0  0  0  0  0  0  0  0  0  0
   -2.9310    8.2495    8.8765 C   0  0  0  0  0  0  0  0  0  0  0  0
   -1.1547    7.9951   11.0137 C   0  0  0  0  0  0  0  0  0  0  0  0
   -2.9993    9.1222    9.9710 C   0  0  0  0  0  0  0  0  0  0  0  0
   -2.1031    9.0008   11.0306 C   0  0  0  0  0  0  0  0  0  0  0  0
   -2.1518    9.9781   12.1719 C   0  0  0  0  0  0  0  0  0  0  0  0
   -2.6730   11.1473   12.0423 O   0  0  0  0  0  0  0  0  0  0  0  0
   -1.6693    9.6413   13.3180 O   0  0  0  0  0  0  0  0  0  0  0  0
   -1.2851    8.7946   13.4341 H   0  0  0  0  0  0  0  0  0  0  0  0
  1  2  1  0  0  0
  1 10  1  0  0  0
  1 11  2  0  0  0
  2  3  2  0  0  0
  2  4  1  0  0  0
  3  6  1  0  0  0
  3 12  1  0  0  0
  4  7  2  0  0  0
  5  6  2  0  0  0
  5  8  1  0  0  0
  5 11  1  0  0  0
  7  9  1  0  0  0
  7 16  1  0  0  0
  9 12  2  0  0  0
 25 26  2  0  0  0
 25 24  1  0  0  0
 25 27  1  0  0  0
 16 17  1  0  0  0
 17 19  1  0  0  0
 19 20  2  0  0  0
 19 21  1  0  0  0
 20 22  1  0  0  0
 21 23  2  0  0  0
 22 24  2  0  0  0
 23 24  1  0  0  0
  8 13  1  0  0  0
  8 14  1  0  0  0
 10 15  1  0  0  0
 17 18  1  0  0  0
 27 28  1  0  0  0
M  END
> <minimizedAffinity>
-8.57641

$$$$
1BR6_PT1_A_301


 28 30  0  0  0  0  0  0  0  0999 V2000
   -2.0461    6.9627    5.0030 C   0  0  0  0  0  0  0  0  0  0  0  0
   -0.6912    6.7800    5.3216 C   0  0  0  0  0  0  0  0  0  0  0  0
    0.0870    7.9642    5.4819 C   0  0  0  0  0  0  0  0  0  0  0  0
   -0.1433    5.5806    5.5196 N   0  0  0  0  0  0  0  0  0  0  0  0
   -1.7482    9.2528    5.0035 C   0  0  0  0  0  0  0  0  0  0  0  0
   -0.4400    9.2127    5.3157 N   0  0  0  0  0  0  0  0  0  0  0  0
    1.1723    5.5122    5.8356 C   0  0  0  0  0  0  0  0  0  0  0  0
   -2.2503   10.4930    4.7647 N   0  0  0  0  0  0  0  0  0  0  0  0
    1.9453    6.6742    5.9798 C   0  0  0  0  0  0  0  0  0  0  0  0
   -2.8519    5.8667    4.8328 O   0  0  0  0  0  0  0  0  0  0  0  0
   -2.5866    8.2174    4.8278 N   0  0  0  0  0  0  0  0  0  0  0  0
    1.3957    7.8850    5.7967 N   0  0  0  0  0  0  0  0  0  0  0  0
   -1.6781   11.2860    4.8784 H   0  0  0  0  0  0  0  0  0  0  0  0
   -3.1863   10.5983    4.4779 H   0  0  0  0  0  0  0  0  0  0  0  0
   -2.5017    5.0053    4.9478 H   0  0  0  0  0  0  0  0  0  0  0  0
    1.8291    4.1520    5.8841 C   0  0  0  0  0  0  0  0  0  0  0  0
    0.8854    3.1641    6.3343 N   0  0  0  0  0  0  0  0  0  0  0  0
    0.0961    2.9624    5.7814 H   0  0  0  0  0  0  0  0  0  0  0  0
    1.0675    2.4889    7.5358 C   0  0  0  0  0  0  0  0  0  0  0  0
    0.0761    2.5572    8.5263 C   0  0  0  0  0  0  0  0  0  0  0  0
    2.1987    1.7031    7.7698 C   0  0  0  0  0  0  0  0  0  0  0  0
    0.2098    1.8491    9.7219 C   0  0  0  0  0  0  0  0  0  0  0  0
    2.3239    0.9950    8.9729 C   0  0  0  0  0  0  0  0  0  0  0  0
    1.3235    1.0598    9.9401 C   0  0  0  0  0  0  0  0  0  0  0  0
    1.4446    0.2515   11.2019 C   0  0  0  0  0  0  0  0  0  0  0  0
    0.4576   -0.4290   11.6692 O   0  0  0  0  0  0  0  0  0  0  0  0
    2.5664    0.2255   11.8349 O   0  0  0  0  0  0  0  0  0  0  0  0
    3.2980    0.7138   11.5119 H   0  0  0  0  0  0  0  0  0  0  0  0
  1  2  1  0  0  0
  1 10  1  0  0  0
  1 11  2  0  0  0
  2  3  2  0  0  0
  2  4  1  0  0  0
  3  6  1  0  0  0
  3 12  1  0  0  0
  4  7  2  0  0  0
  5  6  2  0  0  0
  5  8  1  0  0  0
  5 11  1  0  0  0
  7  9  1  0  0  0
  7 16  1  0  0  0
  9 12  2  0  0  0
 25 26  2  0  0  0
 25 24  1  0  0  0
 25 27  1  0  0  0
 16 17  1  0  0  0
 17 19  1  0  0  0
 19 20  2  0  0  0
 19 21  1  0  0  0
 20 22  1  0  0  0
 21 23  2  0  0  0
 22 24  2  0  0  0
 23 24  1  0  0  0
  8 13  1  0  0  0
  8 14  1  0  0  0
 10 15  1  0  0  0
 17 18  1  0  0  0
 27 28  1  0  0  0
M  END
> <minimizedAffinity>
-8.43131

$$$$
1BR6_PT1_A_301


 28 30  0  0  0  0  0  0  0  0999 V2000
   -0.2118    2.3370    7.2262 C   0  0  0  0  0  0  0  0  0  0  0  0
    0.4336    3.2781    6.4087 C   0  0  0  0  0  0  0  0  0  0  0  0
    1.8586    3.2932    6.4636 C   0  0  0  0  0  0  0  0  0  0  0  0
   -0.2182    4.0926    5.5782 N   0  0  0  0  0  0  0  0  0  0  0  0
    1.8313    1.6084    8.0187 C   0  0  0  0  0  0  0  0  0  0  0  0
    2.5670    2.4580    7.2789 N   0  0  0  0  0  0  0  0  0  0  0  0
    0.4989    4.9577    4.8215 C   0  0  0  0  0  0  0  0  0  0  0  0
    2.5357    0.8322    8.8837 N   0  0  0  0  0  0  0  0  0  0  0  0
    1.9004    4.9861    4.8832 C   0  0  0  0  0  0  0  0  0  0  0  0
   -1.5811    2.2692    7.2239 O   0  0  0  0  0  0  0  0  0  0  0  0
    0.4929    1.4936    8.0563 N   0  0  0  0  0  0  0  0  0  0  0  0
    2.5629    4.1581    5.7061 N   0  0  0  0  0  0  0  0  0  0  0  0
    3.5191    0.8777    8.8972 H   0  0  0  0  0  0  0  0  0  0  0  0
    2.0627    0.2244    9.4970 H   0  0  0  0  0  0  0  0  0  0  0  0
   -2.0773    2.8352    6.6658 H   0  0  0  0  0  0  0  0  0  0  0  0
   -0.2473    5.9968    4.0171 C   0  0  0  0  0  0  0  0  0  0  0  0
   -1.5906    6.1338    4.5131 N   0  0  0  0  0  0  0  0  0  0  0  0
   -2.3233    5.6547    4.0628 H   0  0  0  0  0  0  0  0  0  0  0  0
   -1.8730    6.9306    5.6169 C   0  0  0  0  0  0  0  0  0  0  0  0
   -2.5554    6.3803    6.7124 C   0  0  0  0  0  0  0  0  0  0  0  0
   -1.4553    8.2621    5.6847 C   0  0  0  0  0  0  0  0  0  0  0  0
   -2.8081    7.1430    7.8539 C   0  0  0  0  0  0  0  0  0  0  0  0
   -1.7129    9.0199    6.8353 C   0  0  0  0  0  0  0  0  0  0  0  0
   -2.3772    8.4548    7.9215 C   0  0  0  0  0  0  0  0  0  0  0  0
   -2.5975    9.2619    9.1706 C   0  0  0  0  0  0  0  0  0  0  0  0
   -3.2589    8.7966   10.1713 O   0  0  0  0  0  0  0  0  0  0  0  0
   -2.1063   10.4500    9.2544 O   0  0  0  0  0  0  0  0  0  0  0  0
   -1.6213   10.8081    8.5371 H   0  0  0  0  0  0  0  0  0  0  0  0
  1  2  1  0  0  0
  1 10  1  0  0  0
  1 11  2  0  0  0
  2  3  2  0  0  0
  2  4  1  0  0  0
  3  6  1  0  0  0
  3 12  1  0  0  0
  4  7  2  0  0  0
  5  6  2  0  0  0
  5  8  1  0  0  0
  5 11  1  0  0  0
  7  9  1  0  0  0
  7 16  1  0  0  0
  9 12  2  0  0  0
 25 26  2  0  0  0
 25 24  1  0  0  0
 25 27  1  0  0  0
 16 17  1  0  0  0
 17 19  1  0  0  0
 19 20  2  0  0  0
 19 21  1  0  0  0
 20 22  1  0  0  0
 21 23  2  0  0  0
 22 24  2  0  0  0
 23 24  1  0  0  0
  8 13  1  0  0  0
  8 14  1  0  0  0
 10 15  1  0  0  0
 17 18  1  0  0  0
 27 28  1  0  0  0
M  END
> <minimizedAffinity>
-8.24774

$$$$
1BR6_PT1_A_301


 28 30  0  0  0  0  0  0  0  0999 V2000
    3.1213    6.7824   14.8049 C   0  0  0  0  0  0  0  0  0  0  0  0
    3.0147    7.1179   13.4460 C   0  0  0  0  0  0  0  0  0  0  0  0
    4.2259    7.1042   12.6934 C   0  0  0  0  0  0  0  0  0  0  0  0
    1.8532    7.3901   12.8502 N   0  0  0  0  0  0  0  0  0  0  0  0
    5.4022    6.5083   14.5692 C   0  0  0  0  0  0  0  0  0  0  0  0
    5.4328    6.8042   13.2570 N   0  0  0  0  0  0  0  0  0  0  0  0
    1.8560    7.6908   11.5294 C   0  0  0  0  0  0  0  0  0  0  0  0
    6.6141    6.2848   15.1423 N   0  0  0  0  0  0  0  0  0  0  0  0
    3.0474    7.6929   10.7882 C   0  0  0  0  0  0  0  0  0  0  0  0
    1.9960    6.7774   15.5879 O   0  0  0  0  0  0  0  0  0  0  0  0
    4.3344    6.4835   15.3847 N   0  0  0  0  0  0  0  0  0  0  0  0
    4.2177    7.4048   11.3790 N   0  0  0  0  0  0  0  0  0  0  0  0
    7.4288    6.2921   14.5897 H   0  0  0  0  0  0  0  0  0  0  0  0
    6.6773    6.1158   16.1102 H   0  0  0  0  0  0  0  0  0  0  0  0
    1.1620    6.9783   15.2109 H   0  0  0  0  0  0  0  0  0  0  0  0
    0.5688    8.1704   10.8996 C   0  0  0  0  0  0  0  0  0  0  0  0
    0.6106    7.9684    9.4760 N   0  0  0  0  0  0  0  0  0  0  0  0
    1.0674    8.6296    8.9073 H   0  0  0  0  0  0  0  0  0  0  0  0
    0.0176    6.8566    8.8886 C   0  0  0  0  0  0  0  0  0  0  0  0
    0.8205    5.7902    8.4565 C   0  0  0  0  0  0  0  0  0  0  0  0
   -1.3691    6.7515    8.7547 C   0  0  0  0  0  0  0  0  0  0  0  0
    0.2485    4.6405    7.9091 C   0  0  0  0  0  0  0  0  0  0  0  0
   -1.9345    5.5930    8.2045 C   0  0  0  0  0  0  0  0  0  0  0  0
   -1.1252    4.5357    7.7951 C   0  0  0  0  0  0  0  0  0  0  0  0
   -1.7477    3.2768    7.2585 C   0  0  0  0  0  0  0  0  0  0  0  0
   -2.9763    3.2359    6.8784 O   0  0  0  0  0  0  0  0  0  0  0  0
   -1.0367    2.2066    7.1639 O   0  0  0  0  0  0  0  0  0  0  0  0
   -0.1398    2.2145    7.4350 H   0  0  0  0  0  0  0  0  0  0  0  0
  1  2  1  0  0  0
  1 10  1  0  0  0
  1 11  2  0  0  0
  2  3  2  0  0  0
  2  4  1  0  0  0
  3  6  1  0  0  0
  3 12  1  0  0  0
  4  7  2  0  0  0
  5  6  2  0  0  0
  5  8  1  0  0  0
  5 11  1  0  0  0
  7  9  1  0  0  0
  7 16  1  0  0  0
  9 12  2  0  0  0
 25 26  2  0  0  0
 25 24  1  0  0  0
 25 27  1  0  0  0
 16 17  1  0  0  0
 17 19  1  0  0  0
 19 20  2  0  0  0
 19 21  1  0  0  0
 20 22  1  0  0  0
 21 23  2  0  0  0
 22 24  2  0  0  0
 23 24  1  0  0  0
  8 13  1  0  0  0
  8 14  1  0  0  0
 10 15  1  0  0  0
 17 18  1  0  0  0
 27 28  1  0  0  0
M  END
> <minimizedAffinity>
-7.96508

$$$$
1BR6_PT1_A_301


 28 30  0  0  0  0  0  0  0  0999 V2000
    1.8361    3.6170    6.3391 C   0  0  0  0  0  0  0  0  0  0  0  0
    0.5570    3.9499    6.8118 C   0  0  0  0  0  0  0  0  0  0  0  0
    0.0609    3.1712    7.8987 C   0  0  0  0  0  0  0  0  0  0  0  0
   -0.1594    4.9644    6.3264 N   0  0  0  0  0  0  0  0  0  0  0  0
    1.9811    1.9180    7.8965 C   0  0  0  0  0  0  0  0  0  0  0  0
    0.7725    2.1415    8.4441 N   0  0  0  0  0  0  0  0  0  0  0  0
   -1.3797    5.2113    6.8605 C   0  0  0  0  0  0  0  0  0  0  0  0
    2.6532    0.8453    8.3912 N   0  0  0  0  0  0  0  0  0  0  0  0
   -1.8779    4.4384    7.9202 C   0  0  0  0  0  0  0  0  0  0  0  0
    2.3735    4.3240    5.2947 O   0  0  0  0  0  0  0  0  0  0  0  0
    2.5601    2.5768    6.8785 N   0  0  0  0  0  0  0  0  0  0  0  0
   -1.1550    3.4255    8.4231 N   0  0  0  0  0  0  0  0  0  0  0  0
    2.2730    0.3275    9.1373 H   0  0  0  0  0  0  0  0  0  0  0  0
    3.5202    0.5861    8.0035 H   0  0  0  0  0  0  0  0  0  0  0  0
    1.8956    5.0349    4.9150 H   0  0  0  0  0  0  0  0  0  0  0  0
   -2.2597    6.2431    6.1935 C   0  0  0  0  0  0  0  0  0  0  0  0
   -1.7792    7.5665    6.4886 N   0  0  0  0  0  0  0  0  0  0  0  0
   -1.3879    8.1105    5.7675 H   0  0  0  0  0  0  0  0  0  0  0  0
   -1.8573    8.0911    7.7737 C   0  0  0  0  0  0  0  0  0  0  0  0
   -0.7007    8.5943    8.3883 C   0  0  0  0  0  0  0  0  0  0  0  0
   -3.0722    8.1717    8.4590 C   0  0  0  0  0  0  0  0  0  0  0  0
   -0.7592    9.1722    9.6576 C   0  0  0  0  0  0  0  0  0  0  0  0
   -3.1213    8.7544    9.7328 C   0  0  0  0  0  0  0  0  0  0  0  0
   -1.9673    9.2644   10.3232 C   0  0  0  0  0  0  0  0  0  0  0  0
   -2.0441    9.9366   11.6658 C   0  0  0  0  0  0  0  0  0  0  0  0
   -1.5053    9.4214   12.7145 O   0  0  0  0  0  0  0  0  0  0  0  0
   -2.6560   11.0648   11.7775 O   0  0  0  0  0  0  0  0  0  0  0  0
   -3.0553   11.4576   11.0264 H   0  0  0  0  0  0  0  0  0  0  0  0
  1  2  1  0  0  0
  1 10  1  0  0  0
  1 11  2  0  0  0
  2  3  2  0  0  0
  2  4  1  0  0  0
  3  6  1  0  0  0
  3 12  1  0  0  0
  4  7  2  0  0  0
  5  6  2  0  0  0
  5  8  1  0  0  0
  5 11  1  0  0  0
  7  9  1  0  0  0
  7 16  1  0  0  0
  9 12  2  0  0  0
 25 26  2  0  0  0
 25 24  1  0  0  0
 25 27  1  0  0  0
 16 17  1  0  0  0
 17 19  1  0  0  0
 19 20  2  0  0  0
 19 21  1  0  0  0
 20 22  1  0  0  0
 21 23  2  0  0  0
 22 24  2  0  0  0
 23 24  1  0  0  0
  8 13  1  0  0  0
  8 14  1  0  0  0
 10 15  1  0  0  0
 17 18  1  0  0  0
 27 28  1  0  0  0
M  END
> <minimizedAffinity>
-7.92168

$$$$
1BR6_PT1_A_301


 28 30  0  0  0  0  0  0  0  0999 V2000
   -2.1557    7.3679    7.1955 C   0  0  0  0  0  0  0  0  0  0  0  0
   -0.8786    6.8139    7.0145 C   0  0  0  0  0  0  0  0  0  0  0  0
    0.2197    7.5816    7.5023 C   0  0  0  0  0  0  0  0  0  0  0  0
   -0.6737    5.6159    6.4661 N   0  0  0  0  0  0  0  0  0  0  0  0
   -1.2195    9.2239    8.2015 C   0  0  0  0  0  0  0  0  0  0  0  0
    0.0531    8.8002    8.0951 N   0  0  0  0  0  0  0  0  0  0  0  0
    0.5983    5.1653    6.3476 C   0  0  0  0  0  0  0  0  0  0  0  0
   -1.3751   10.4694    8.7227 N   0  0  0  0  0  0  0  0  0  0  0  0
    1.6832    5.9239    6.8128 C   0  0  0  0  0  0  0  0  0  0  0  0
   -3.2565    6.6837    6.7487 O   0  0  0  0  0  0  0  0  0  0  0  0
   -2.3346    8.5987    7.7873 N   0  0  0  0  0  0  0  0  0  0  0  0
    1.4820    7.1239    7.3795 N   0  0  0  0  0  0  0  0  0  0  0  0
   -0.5903   10.9713    9.0411 H   0  0  0  0  0  0  0  0  0  0  0  0
   -2.2726   10.8697    8.7819 H   0  0  0  0  0  0  0  0  0  0  0  0
   -3.1542    5.8450    6.3435 H   0  0  0  0  0  0  0  0  0  0  0  0
    0.8395    3.8931    5.5685 C   0  0  0  0  0  0  0  0  0  0  0  0
    1.8646    3.1108    6.2060 N   0  0  0  0  0  0  0  0  0  0  0  0
    2.7682    3.0882    5.8159 H   0  0  0  0  0  0  0  0  0  0  0  0
    1.6026    2.3861    7.3631 C   0  0  0  0  0  0  0  0  0  0  0  0
    2.6417    1.6819    7.9900 C   0  0  0  0  0  0  0  0  0  0  0  0
    0.3338    2.3742    7.9480 C   0  0  0  0  0  0  0  0  0  0  0  0
    2.4184    0.9869    9.1799 C   0  0  0  0  0  0  0  0  0  0  0  0
    0.1193    1.6743    9.1432 C   0  0  0  0  0  0  0  0  0  0  0  0
    1.1648    0.9933    9.7625 C   0  0  0  0  0  0  0  0  0  0  0  0
    0.9341    0.2933   11.0729 C   0  0  0  0  0  0  0  0  0  0  0  0
    1.9100   -0.1187   11.8032 O   0  0  0  0  0  0  0  0  0  0  0  0
   -0.2704    0.1045   11.4891 O   0  0  0  0  0  0  0  0  0  0  0  0
   -0.9957    0.3967   10.9728 H   0  0  0  0  0  0  0  0  0  0  0  0
  1  2  1  0  0  0
  1 10  1  0  0  0
  1 11  2  0  0  0
  2  3  2  0  0  0
  2  4  1  0  0  0
  3  6  1  0  0  0
  3 12  1  0  0  0
  4  7  2  0  0  0
  5  6  2  0  0  0
  5  8  1  0  0  0
  5 11  1  0  0  0
  7  9  1  0  0  0
  7 16  1  0  0  0
  9 12  2  0  0  0
 25 26  2  0  0  0
 25 24  1  0  0  0
 25 27  1  0  0  0
 16 17  1  0  0  0
 17 19  1  0  0  0
 19 20  2  0  0  0
 19 21  1  0  0  0
 20 22  1  0  0  0
 21 23  2  0  0  0
 22 24  2  0  0  0
 23 24  1  0  0  0
  8 13  1  0  0  0
  8 14  1  0  0  0
 10 15  1  0  0  0
 17 18  1  0  0  0
 27 28  1  0  0  0
M  END
> <minimizedAffinity>
-7.88323

$$$$
1BR6_PT1_A_301


 28 30  0  0  0  0  0  0  0  0999 V2000
   -0.4401    3.7380    8.1450 C   0  0  0  0  0  0  0  0  0  0  0  0
   -0.5821    5.1198    8.3476 C   0  0  0  0  0  0  0  0  0  0  0  0
   -1.7825    5.7120    7.8558 C   0  0  0  0  0  0  0  0  0  0  0  0
    0.3142    5.8572    9.0041 N   0  0  0  0  0  0  0  0  0  0  0  0
   -2.4804    3.6760    7.0650 C   0  0  0  0  0  0  0  0  0  0  0  0
   -2.7391    4.9893    7.2025 N   0  0  0  0  0  0  0  0  0  0  0  0
    0.0777    7.1823    9.1570 C   0  0  0  0  0  0  0  0  0  0  0  0
   -3.3985    2.9754    6.3485 N   0  0  0  0  0  0  0  0  0  0  0  0
   -1.0952    7.7719    8.6617 C   0  0  0  0  0  0  0  0  0  0  0  0
    0.6908    3.1043    8.5912 O   0  0  0  0  0  0  0  0  0  0  0  0
   -1.3964    3.0006    7.4826 N   0  0  0  0  0  0  0  0  0  0  0  0
   -2.0082    7.0319    8.0133 N   0  0  0  0  0  0  0  0  0  0  0  0
   -4.2111    3.4227    6.0187 H   0  0  0  0  0  0  0  0  0  0  0  0
   -3.2509    2.0206    6.1593 H   0  0  0  0  0  0  0  0  0  0  0  0
    1.3522    3.5898    9.0439 H   0  0  0  0  0  0  0  0  0  0  0  0
    1.1727    8.0441    9.7420 C   0  0  0  0  0  0  0  0  0  0  0  0
    1.2235    7.8757   11.1696 N   0  0  0  0  0  0  0  0  0  0  0  0
    0.3932    7.9444   11.6942 H   0  0  0  0  0  0  0  0  0  0  0  0
    2.4236    7.6178   11.8222 C   0  0  0  0  0  0  0  0  0  0  0  0
    2.4197    7.3476   13.1990 C   0  0  0  0  0  0  0  0  0  0  0  0
    3.6380    7.5770   11.1325 C   0  0  0  0  0  0  0  0  0  0  0  0
    3.6035    7.0362   13.8700 C   0  0  0  0  0  0  0  0  0  0  0  0
    4.8214    7.2626   11.8144 C   0  0  0  0  0  0  0  0  0  0  0  0
    4.7992    6.9807   13.1784 C   0  0  0  0  0  0  0  0  0  0  0  0
    6.0670    6.5905   13.8860 C   0  0  0  0  0  0  0  0  0  0  0  0
    6.6904    5.4994   13.6092 O   0  0  0  0  0  0  0  0  0  0  0  0
    6.5558    7.3682   14.7893 O   0  0  0  0  0  0  0  0  0  0  0  0
    6.1178    8.1676   15.0063 H   0  0  0  0  0  0  0  0  0  0  0  0
  1  2  1  0  0  0
  1 10  1  0  0  0
  1 11  2  0  0  0
  2  3  2  0  0  0
  2  4  1  0  0  0
  3  6  1  0  0  0
  3 12  1  0  0  0
  4  7  2  0  0  0
  5  6  2  0  0  0
  5  8  1  0  0  0
  5 11  1  0  0  0
  7  9  1  0  0  0
  7 16  1  0  0  0
  9 12  2  0  0  0
 25 26  2  0  0  0
 25 24  1  0  0  0
 25 27  1  0  0  0
 16 17  1  0  0  0
 17 19  1  0  0  0
 19 20  2  0  0  0
 19 21  1  0  0  0
 20 22  1  0  0  0
 21 23  2  0  0  0
 22 24  2  0  0  0
 23 24  1  0  0  0
  8 13  1  0  0  0
  8 14  1  0  0  0
 10 15  1  0  0  0
 17 18  1  0  0  0
 27 28  1  0  0  0
M  END
> <minimizedAffinity>
-7.80636

$$$$
