1P1Q_AMQ_A_602


 17 17  0  0  0  0  0  0  0  0999 V2000
   77.2669   27.5492   41.3084 C   0  0  0  0  0  0  0  0  0  0  0  0
   77.1220   26.8358   42.6311 C   0  0  0  0  0  0  0  0  0  0  0  0
   75.9603   26.7624   43.4619 C   0  0  0  0  0  0  0  0  0  0  0  0
   77.9171   25.9215   43.2338 C   0  0  0  0  0  0  0  0  0  0  0  0
   79.2764   25.3584   42.9473 C   0  0  0  0  0  0  0  0  0  0  0  0
   74.9277   27.5255   43.1187 O   0  0  0  0  0  0  0  0  0  0  0  0
   75.9586   25.9309   44.4698 N   0  0  0  0  0  0  0  0  0  0  0  0
   77.2737   25.3649   44.3213 O   0  0  0  0  0  0  0  0  0  0  0  0
   74.9951   28.1018   42.3829 H   0  0  0  0  0  0  0  0  0  0  0  0
   79.3917   27.5801   40.0069 N   0  0  0  0  0  0  0  0  0  0  0  0
   78.1548   26.7862   40.2936 C   0  0  0  0  0  0  0  0  0  0  0  0
   79.9731   27.0743   39.3386 H   0  0  0  0  0  0  0  0  0  0  0  0
   79.9130   27.7218   40.8721 H   0  0  0  0  0  0  0  0  0  0  0  0
   77.3946   26.4942   38.9472 C   0  0  0  0  0  0  0  0  0  0  0  0
   77.3625   25.3171   38.5512 O   0  0  0  0  0  0  0  0  0  0  0  0
   76.9201   27.4727   38.3141 O   0  0  0  0  0  0  0  0  0  0  0  0
   76.9793   28.3362   38.6731 H   0  0  0  0  0  0  0  0  0  0  0  0
 10 11  1  0  0  0
 11 14  1  0  0  0
 11  1  1  0  0  0
 14 15  2  0  0  0
 14 16  1  0  0  0
  1  2  1  0  0  0
  2  3  1  0  0  0
  2  4  2  0  0  0
  3  6  1  0  0  0
  3  7  2  0  0  0
  4  5  1  0  0  0
  4  8  1  0  0  0
  7  8  1  0  0  0
 10 12  1  0  0  0
 10 13  1  0  0  0
 16 17  1  0  0  0
  6  9  1  0  0  0
M  END
> <minimizedAffinity>
-9.07888

$$$$
1P1Q_AMQ_A_602


 17 17  0  0  0  0  0  0  0  0999 V2000
   78.2742   27.4248   40.6175 C   0  0  0  0  0  0  0  0  0  0  0  0
   77.7156   26.6935   41.8144 C   0  0  0  0  0  0  0  0  0  0  0  0
   76.5571   27.0304   42.5821 C   0  0  0  0  0  0  0  0  0  0  0  0
   77.9895   25.4621   42.3046 C   0  0  0  0  0  0  0  0  0  0  0  0
   79.0057   24.4066   41.9882 C   0  0  0  0  0  0  0  0  0  0  0  0
   75.9804   28.1982   42.3175 O   0  0  0  0  0  0  0  0  0  0  0  0
   76.1083   26.1687   43.4558 N   0  0  0  0  0  0  0  0  0  0  0  0
   77.0701   25.1133   43.2738 O   0  0  0  0  0  0  0  0  0  0  0  0
   76.3548   28.7713   41.6776 H   0  0  0  0  0  0  0  0  0  0  0  0
   78.7545   26.5474   38.3350 N   0  0  0  0  0  0  0  0  0  0  0  0
   77.6618   26.9588   39.2727 C   0  0  0  0  0  0  0  0  0  0  0  0
   78.3470   26.2415   37.4514 H   0  0  0  0  0  0  0  0  0  0  0  0
   79.2861   25.7810   38.7477 H   0  0  0  0  0  0  0  0  0  0  0  0
   76.7889   28.0825   38.6010 C   0  0  0  0  0  0  0  0  0  0  0  0
   76.8158   28.1646   37.3617 O   0  0  0  0  0  0  0  0  0  0  0  0
   76.1666   28.8750   39.3548 O   0  0  0  0  0  0  0  0  0  0  0  0
   76.1897   28.7536   40.2836 H   0  0  0  0  0  0  0  0  0  0  0  0
 10 11  1  0  0  0
 11 14  1  0  0  0
 11  1  1  0  0  0
 14 15  2  0  0  0
 14 16  1  0  0  0
  1  2  1  0  0  0
  2  3  1  0  0  0
  2  4  2  0  0  0
  3  6  1  0  0  0
  3  7  2  0  0  0
  4  5  1  0  0  0
  4  8  1  0  0  0
  7  8  1  0  0  0
 10 12  1  0  0  0
 10 13  1  0  0  0
 16 17  1  0  0  0
  6  9  1  0  0  0
M  END
> <minimizedAffinity>
-8.46334

$$$$
1P1Q_AMQ_A_602


 17 17  0  0  0  0  0  0  0  0999 V2000
   77.3953   27.0994   42.0877 C   0  0  0  0  0  0  0  0  0  0  0  0
   77.7626   26.2307   40.9088 C   0  0  0  0  0  0  0  0  0  0  0  0
   77.5371   26.4981   39.5222 C   0  0  0  0  0  0  0  0  0  0  0  0
   78.5756   25.1519   40.8251 C   0  0  0  0  0  0  0  0  0  0  0  0
   79.3067   24.3064   41.8238 C   0  0  0  0  0  0  0  0  0  0  0  0
   76.7888   27.5566   39.2289 O   0  0  0  0  0  0  0  0  0  0  0  0
   78.1051   25.7284   38.6320 N   0  0  0  0  0  0  0  0  0  0  0  0
   78.8027   24.8204   39.5042 O   0  0  0  0  0  0  0  0  0  0  0  0
   76.4097   28.0674   39.9169 H   0  0  0  0  0  0  0  0  0  0  0  0
   75.0878   27.6067   42.8801 N   0  0  0  0  0  0  0  0  0  0  0  0
   76.1720   26.5738   42.8800 C   0  0  0  0  0  0  0  0  0  0  0  0
   74.2848   27.2566   43.4026 H   0  0  0  0  0  0  0  0  0  0  0  0
   74.8079   27.8060   41.9198 H   0  0  0  0  0  0  0  0  0  0  0  0
   76.5446   26.2035   44.3633 C   0  0  0  0  0  0  0  0  0  0  0  0
   77.3475   25.2716   44.5366 O   0  0  0  0  0  0  0  0  0  0  0  0
   75.9614   26.8240   45.2898 O   0  0  0  0  0  0  0  0  0  0  0  0
   75.3664   27.5186   45.0865 H   0  0  0  0  0  0  0  0  0  0  0  0
 10 11  1  0  0  0
 11 14  1  0  0  0
 11  1  1  0  0  0
 14 15  2  0  0  0
 14 16  1  0  0  0
  1  2  1  0  0  0
  2  3  1  0  0  0
  2  4  2  0  0  0
  3  6  1  0  0  0
  3  7  2  0  0  0
  4  5  1  0  0  0
  4  8  1  0  0  0
  7  8  1  0  0  0
 10 12  1  0  0  0
 10 13  1  0  0  0
 16 17  1  0  0  0
  6  9  1  0  0  0
M  END
> <minimizedAffinity>
-8.45848

$$$$
1P1Q_AMQ_A_602


 17 17  0  0  0  0  0  0  0  0999 V2000
   77.4447   27.4243   41.6932 C   0  0  0  0  0  0  0  0  0  0  0  0
   77.6407   26.9638   40.2688 C   0  0  0  0  0  0  0  0  0  0  0  0
   78.1740   25.7154   39.8194 C   0  0  0  0  0  0  0  0  0  0  0  0
   77.1663   27.4653   39.1048 C   0  0  0  0  0  0  0  0  0  0  0  0
   76.4097   28.7017   38.7233 C   0  0  0  0  0  0  0  0  0  0  0  0
   78.6984   24.9186   40.7449 O   0  0  0  0  0  0  0  0  0  0  0  0
   78.0788   25.4096   38.5526 N   0  0  0  0  0  0  0  0  0  0  0  0
   77.4036   26.5848   38.0680 O   0  0  0  0  0  0  0  0  0  0  0  0
   78.7364   25.1995   41.6380 H   0  0  0  0  0  0  0  0  0  0  0  0
   75.3651   27.2773   43.0584 N   0  0  0  0  0  0  0  0  0  0  0  0
   76.5206   26.4932   42.5176 C   0  0  0  0  0  0  0  0  0  0  0  0
   74.7596   26.6607   43.6002 H   0  0  0  0  0  0  0  0  0  0  0  0
   74.8358   27.6800   42.2850 H   0  0  0  0  0  0  0  0  0  0  0  0
   77.2874   25.8018   43.7051 C   0  0  0  0  0  0  0  0  0  0  0  0
   78.4985   25.5736   43.5492 O   0  0  0  0  0  0  0  0  0  0  0  0
   76.6216   25.4591   44.7165 O   0  0  0  0  0  0  0  0  0  0  0  0
   75.7088   25.6644   44.7681 H   0  0  0  0  0  0  0  0  0  0  0  0
 10 11  1  0  0  0
 11 14  1  0  0  0
 11  1  1  0  0  0
 14 15  2  0  0  0
 14 16  1  0  0  0
  1  2  1  0  0  0
  2  3  1  0  0  0
  2  4  2  0  0  0
  3  6  1  0  0  0
  3  7  2  0  0  0
  4  5  1  0  0  0
  4  8  1  0  0  0
  7  8  1  0  0  0
 10 12  1  0  0  0
 10 13  1  0  0  0
 16 17  1  0  0  0
  6  9  1  0  0  0
M  END
> <minimizedAffinity>
-8.16508

$$$$
1P1Q_AMQ_A_602


 17 17  0  0  0  0  0  0  0  0999 V2000
   77.7468   27.6012   40.5322 C   0  0  0  0  0  0  0  0  0  0  0  0
   77.5699   26.3507   41.3594 C   0  0  0  0  0  0  0  0  0  0  0  0
   78.2290   25.0924   41.1934 C   0  0  0  0  0  0  0  0  0  0  0  0
   76.9700   26.1611   42.5576 C   0  0  0  0  0  0  0  0  0  0  0  0
   76.1412   27.0185   43.4658 C   0  0  0  0  0  0  0  0  0  0  0  0
   78.9739   24.9443   40.1027 O   0  0  0  0  0  0  0  0  0  0  0  0
   78.1029   24.1876   42.1275 N   0  0  0  0  0  0  0  0  0  0  0  0
   77.2552   24.9015   43.0459 O   0  0  0  0  0  0  0  0  0  0  0  0
   79.0210   25.6341   39.4702 H   0  0  0  0  0  0  0  0  0  0  0  0
   78.9543   27.5186   38.3539 N   0  0  0  0  0  0  0  0  0  0  0  0
   77.6177   27.3525   39.0084 C   0  0  0  0  0  0  0  0  0  0  0  0
   78.8648   27.3541   37.3513 H   0  0  0  0  0  0  0  0  0  0  0  0
   79.6129   26.8485   38.7509 H   0  0  0  0  0  0  0  0  0  0  0  0
   76.5800   28.3267   38.3374 C   0  0  0  0  0  0  0  0  0  0  0  0
   76.5745   28.3914   37.0968 O   0  0  0  0  0  0  0  0  0  0  0  0
   75.8615   29.0328   39.0915 O   0  0  0  0  0  0  0  0  0  0  0  0
   75.9171   28.9312   40.0213 H   0  0  0  0  0  0  0  0  0  0  0  0
 10 11  1  0  0  0
 11 14  1  0  0  0
 11  1  1  0  0  0
 14 15  2  0  0  0
 14 16  1  0  0  0
  1  2  1  0  0  0
  2  3  1  0  0  0
  2  4  2  0  0  0
  3  6  1  0  0  0
  3  7  2  0  0  0
  4  5  1  0  0  0
  4  8  1  0  0  0
  7  8  1  0  0  0
 10 12  1  0  0  0
 10 13  1  0  0  0
 16 17  1  0  0  0
  6  9  1  0  0  0
M  END
> <minimizedAffinity>
-8.11227

$$$$
1P1Q_AMQ_A_602


 17 17  0  0  0  0  0  0  0  0999 V2000
   78.6290   26.1331   40.3538 C   0  0  0  0  0  0  0  0  0  0  0  0
   77.5197   26.3896   41.3453 C   0  0  0  0  0  0  0  0  0  0  0  0
   77.0817   25.5371   42.4066 C   0  0  0  0  0  0  0  0  0  0  0  0
   76.8466   27.5250   41.6443 C   0  0  0  0  0  0  0  0  0  0  0  0
   76.8016   28.9051   41.0612 C   0  0  0  0  0  0  0  0  0  0  0  0
   77.5995   24.3136   42.4464 O   0  0  0  0  0  0  0  0  0  0  0  0
   76.2452   26.0117   43.2911 N   0  0  0  0  0  0  0  0  0  0  0  0
   76.0828   27.3478   42.7808 O   0  0  0  0  0  0  0  0  0  0  0  0
   78.1952   24.0351   41.7790 H   0  0  0  0  0  0  0  0  0  0  0  0
   78.8332   24.7700   38.2777 N   0  0  0  0  0  0  0  0  0  0  0  0
   78.1214   25.9290   38.9042 C   0  0  0  0  0  0  0  0  0  0  0  0
   78.4961   24.6393   37.3239 H   0  0  0  0  0  0  0  0  0  0  0  0
   78.6522   23.9259   38.8209 H   0  0  0  0  0  0  0  0  0  0  0  0
   78.3300   27.2136   38.0197 C   0  0  0  0  0  0  0  0  0  0  0  0
   77.3179   27.8584   37.6985 O   0  0  0  0  0  0  0  0  0  0  0  0
   79.4975   27.4792   37.6323 O   0  0  0  0  0  0  0  0  0  0  0  0
   80.2167   26.9491   37.9145 H   0  0  0  0  0  0  0  0  0  0  0  0
 10 11  1  0  0  0
 11 14  1  0  0  0
 11  1  1  0  0  0
 14 15  2  0  0  0
 14 16  1  0  0  0
  1  2  1  0  0  0
  2  3  1  0  0  0
  2  4  2  0  0  0
  3  6  1  0  0  0
  3  7  2  0  0  0
  4  5  1  0  0  0
  4  8  1  0  0  0
  7  8  1  0  0  0
 10 12  1  0  0  0
 10 13  1  0  0  0
 16 17  1  0  0  0
  6  9  1  0  0  0
M  END
> <minimizedAffinity>
-8.07103

$$$$
1P1Q_AMQ_A_602


 17 17  0  0  0  0  0  0  0  0999 V2000
   78.0824   26.8427   41.7465 C   0  0  0  0  0  0  0  0  0  0  0  0
   77.4475   27.2106   40.4270 C   0  0  0  0  0  0  0  0  0  0  0  0
   76.6695   28.3719   40.1251 C   0  0  0  0  0  0  0  0  0  0  0  0
   77.6357   26.7073   39.1849 C   0  0  0  0  0  0  0  0  0  0  0  0
   78.3951   25.5418   38.6266 C   0  0  0  0  0  0  0  0  0  0  0  0
   76.3333   29.1516   41.1475 O   0  0  0  0  0  0  0  0  0  0  0  0
   76.3739   28.6249   38.8777 N   0  0  0  0  0  0  0  0  0  0  0  0
   77.0200   27.5065   38.2423 O   0  0  0  0  0  0  0  0  0  0  0  0
   76.5771   28.9115   42.0198 H   0  0  0  0  0  0  0  0  0  0  0  0
   76.5807   24.8611   41.5783 N   0  0  0  0  0  0  0  0  0  0  0  0
   77.2847   25.7735   42.5345 C   0  0  0  0  0  0  0  0  0  0  0  0
   76.0570   24.1591   42.1012 H   0  0  0  0  0  0  0  0  0  0  0  0
   77.2669   24.3989   40.9817 H   0  0  0  0  0  0  0  0  0  0  0  0
   76.2347   26.4217   43.5111 C   0  0  0  0  0  0  0  0  0  0  0  0
   76.3106   26.1222   44.7143 O   0  0  0  0  0  0  0  0  0  0  0  0
   75.3390   27.1519   43.0131 O   0  0  0  0  0  0  0  0  0  0  0  0
   75.3426   27.3373   42.0946 H   0  0  0  0  0  0  0  0  0  0  0  0
 10 11  1  0  0  0
 11 14  1  0  0  0
 11  1  1  0  0  0
 14 15  2  0  0  0
 14 16  1  0  0  0
  1  2  1  0  0  0
  2  3  1  0  0  0
  2  4  2  0  0  0
  3  6  1  0  0  0
  3  7  2  0  0  0
  4  5  1  0  0  0
  4  8  1  0  0  0
  7  8  1  0  0  0
 10 12  1  0  0  0
 10 13  1  0  0  0
 16 17  1  0  0  0
  6  9  1  0  0  0
M  END
> <minimizedAffinity>
-8.06705

$$$$
1P1Q_AMQ_A_602


 17 17  0  0  0  0  0  0  0  0999 V2000
   78.1684   26.7679   42.1059 C   0  0  0  0  0  0  0  0  0  0  0  0
   77.8111   27.0631   40.6691 C   0  0  0  0  0  0  0  0  0  0  0  0
   77.9226   26.1885   39.5432 C   0  0  0  0  0  0  0  0  0  0  0  0
   77.0995   28.0782   40.1260 C   0  0  0  0  0  0  0  0  0  0  0  0
   76.5155   29.3535   40.6547 C   0  0  0  0  0  0  0  0  0  0  0  0
   78.5481   25.0326   39.7407 O   0  0  0  0  0  0  0  0  0  0  0  0
   77.3747   26.5453   38.4120 N   0  0  0  0  0  0  0  0  0  0  0  0
   76.8218   27.8167   38.7991 O   0  0  0  0  0  0  0  0  0  0  0  0
   78.9201   24.8383   40.5785 H   0  0  0  0  0  0  0  0  0  0  0  0
   76.4459   24.9926   41.8040 N   0  0  0  0  0  0  0  0  0  0  0  0
   77.1450   25.8466   42.8161 C   0  0  0  0  0  0  0  0  0  0  0  0
   75.7734   24.3879   42.2757 H   0  0  0  0  0  0  0  0  0  0  0  0
   77.1309   24.4197   41.3111 H   0  0  0  0  0  0  0  0  0  0  0  0
   76.0812   26.6674   43.6350 C   0  0  0  0  0  0  0  0  0  0  0  0
   76.1501   26.6181   44.8744 O   0  0  0  0  0  0  0  0  0  0  0  0
   75.1828   27.2722   42.9943 O   0  0  0  0  0  0  0  0  0  0  0  0
   75.1922   27.2682   42.0573 H   0  0  0  0  0  0  0  0  0  0  0  0
 10 11  1  0  0  0
 11 14  1  0  0  0
 11  1  1  0  0  0
 14 15  2  0  0  0
 14 16  1  0  0  0
  1  2  1  0  0  0
  2  3  1  0  0  0
  2  4  2  0  0  0
  3  6  1  0  0  0
  3  7  2  0  0  0
  4  5  1  0  0  0
  4  8  1  0  0  0
  7  8  1  0  0  0
 10 12  1  0  0  0
 10 13  1  0  0  0
 16 17  1  0  0  0
  6  9  1  0  0  0
M  END
> <minimizedAffinity>
-8.06004

$$$$
1P1Q_AMQ_A_602


 17 17  0  0  0  0  0  0  0  0999 V2000
   78.6410   26.3023   41.4281 C   0  0  0  0  0  0  0  0  0  0  0  0
   78.0435   26.9756   40.2160 C   0  0  0  0  0  0  0  0  0  0  0  0
   78.0237   26.4942   38.8696 C   0  0  0  0  0  0  0  0  0  0  0  0
   77.1986   28.0281   40.1164 C   0  0  0  0  0  0  0  0  0  0  0  0
   76.6351   29.0199   41.0888 C   0  0  0  0  0  0  0  0  0  0  0  0
   78.7368   25.4026   38.6119 O   0  0  0  0  0  0  0  0  0  0  0  0
   77.2835   27.1149   37.9898 N   0  0  0  0  0  0  0  0  0  0  0  0
   76.7285   28.1485   38.8237 O   0  0  0  0  0  0  0  0  0  0  0  0
   79.2476   25.0058   39.2899 H   0  0  0  0  0  0  0  0  0  0  0  0
   77.1933   24.4411   42.2344 N   0  0  0  0  0  0  0  0  0  0  0  0
   78.4244   24.7683   41.4472 C   0  0  0  0  0  0  0  0  0  0  0  0
   77.0546   23.4306   42.2444 H   0  0  0  0  0  0  0  0  0  0  0  0
   76.3852   24.8910   41.8044 H   0  0  0  0  0  0  0  0  0  0  0  0
   79.6572   24.0060   42.0597 C   0  0  0  0  0  0  0  0  0  0  0  0
   80.4580   24.6668   42.7418 O   0  0  0  0  0  0  0  0  0  0  0  0
   79.8001   22.7893   41.7719 O   0  0  0  0  0  0  0  0  0  0  0  0
   79.1551   22.3520   41.2516 H   0  0  0  0  0  0  0  0  0  0  0  0
 10 11  1  0  0  0
 11 14  1  0  0  0
 11  1  1  0  0  0
 14 15  2  0  0  0
 14 16  1  0  0  0
  1  2  1  0  0  0
  2  3  1  0  0  0
  2  4  2  0  0  0
  3  6  1  0  0  0
  3  7  2  0  0  0
  4  5  1  0  0  0
  4  8  1  0  0  0
  7  8  1  0  0  0
 10 12  1  0  0  0
 10 13  1  0  0  0
 16 17  1  0  0  0
  6  9  1  0  0  0
M  END
> <minimizedAffinity>
-7.59546

$$$$
1P1Q_AMQ_A_602


 17 17  0  0  0  0  0  0  0  0999 V2000
   79.3259   27.0649   40.7815 C   0  0  0  0  0  0  0  0  0  0  0  0
   78.2641   26.2419   41.4704 C   0  0  0  0  0  0  0  0  0  0  0  0
   78.3235   24.8574   41.8235 C   0  0  0  0  0  0  0  0  0  0  0  0
   77.1415   26.6179   42.1260 C   0  0  0  0  0  0  0  0  0  0  0  0
   76.4228   27.9190   42.3195 C   0  0  0  0  0  0  0  0  0  0  0  0
   79.3636   24.1661   41.3688 O   0  0  0  0  0  0  0  0  0  0  0  0
   77.3933   24.3645   42.5974 N   0  0  0  0  0  0  0  0  0  0  0  0
   76.5951   25.5448   42.8015 O   0  0  0  0  0  0  0  0  0  0  0  0
   79.9964   24.5809   40.8161 H   0  0  0  0  0  0  0  0  0  0  0  0
   78.1723   28.6722   39.2663 N   0  0  0  0  0  0  0  0  0  0  0  0
   78.9774   27.4104   39.3119 C   0  0  0  0  0  0  0  0  0  0  0  0
   77.9451   28.8958   38.2974 H   0  0  0  0  0  0  0  0  0  0  0  0
   78.7129   29.4353   39.6736 H   0  0  0  0  0  0  0  0  0  0  0  0
   78.1786   26.2523   38.6070 C   0  0  0  0  0  0  0  0  0  0  0  0
   77.0008   26.4821   38.2855 O   0  0  0  0  0  0  0  0  0  0  0  0
   78.7518   25.1406   38.4681 O   0  0  0  0  0  0  0  0  0  0  0  0
   79.6446   25.0376   38.7329 H   0  0  0  0  0  0  0  0  0  0  0  0
 10 11  1  0  0  0
 11 14  1  0  0  0
 11  1  1  0  0  0
 14 15  2  0  0  0
 14 16  1  0  0  0
  1  2  1  0  0  0
  2  3  1  0  0  0
  2  4  2  0  0  0
  3  6  1  0  0  0
  3  7  2  0  0  0
  4  5  1  0  0  0
  4  8  1  0  0  0
  7  8  1  0  0  0
 10 12  1  0  0  0
 10 13  1  0  0  0
 16 17  1  0  0  0
  6  9  1  0  0  0
M  END
> <minimizedAffinity>
-7.45755

$$$$
