3EKP_478_B_200


 39 41  0  0  0  0  0  0  0  0999 V2000
   11.1446  -19.7500   34.9100 C   0  0  0  0  0  0  0  0  0  0  0  0
   10.5311  -18.4952   34.6682 O   0  0  0  0  0  0  0  0  0  0  0  0
   11.1625  -17.7843   34.8599 H   0  0  0  0  0  0  0  0  0  0  0  0
   12.3442  -20.0384   34.0094 C   0  0  0  0  0  0  0  0  0  0  0  0
   14.6839  -19.3473   34.0991 C   0  0  0  0  0  0  0  0  0  0  0  0
   13.5846  -19.7934   34.6805 N   0  0  0  0  0  0  0  0  0  0  0  0
   14.7493  -18.8890   32.9924 O   0  0  0  0  0  0  0  0  0  0  0  0
   13.6214  -19.9707   35.6482 H   0  0  0  0  0  0  0  0  0  0  0  0
   15.8874  -19.4777   34.9105 O   0  0  0  0  0  0  0  0  0  0  0  0
   18.0375  -18.7316   35.6031 C   0  0  0  0  0  0  0  0  0  0  0  0
   16.1591  -17.2243   35.6217 C   0  0  0  0  0  0  0  0  0  0  0  0
   16.7658  -18.3797   34.8505 C   0  0  0  0  0  0  0  0  0  0  0  0
   17.2178  -16.8289   36.6379 C   0  0  0  0  0  0  0  0  0  0  0  0
   18.0535  -17.9607   36.8172 O   0  0  0  0  0  0  0  0  0  0  0  0
   12.3914  -21.4936   33.5297 C   0  0  0  0  0  0  0  0  0  0  0  0
   11.2685  -21.8056   32.5635 C   0  0  0  0  0  0  0  0  0  0  0  0
   11.3487  -21.3414   31.2512 C   0  0  0  0  0  0  0  0  0  0  0  0
   10.2014  -22.6139   32.9544 C   0  0  0  0  0  0  0  0  0  0  0  0
   10.3405  -21.6506   30.3401 C   0  0  0  0  0  0  0  0  0  0  0  0
    9.1756  -22.9071   32.0432 C   0  0  0  0  0  0  0  0  0  0  0  0
    9.2382  -22.4232   30.7287 C   0  0  0  0  0  0  0  0  0  0  0  0
   11.5864  -19.7015   36.3559 C   0  0  0  0  0  0  0  0  0  0  0  0
   11.3943  -21.0329   36.9068 N   0  0  0  0  0  0  0  0  0  0  0  0
   13.6318  -22.2048   37.0082 O   0  0  0  0  0  0  0  0  0  0  0  0
   12.1174  -22.5080   38.7044 O   0  0  0  0  0  0  0  0  0  0  0  0
   12.6460  -21.5334   37.8147 S   0  0  0  0  0  0  0  0  0  0  0  0
   13.3998  -20.3703   38.6337 C   0  0  0  0  0  0  0  0  0  0  0  0
   14.6937  -19.9673   38.2934 C   0  0  0  0  0  0  0  0  0  0  0  0
   15.3767  -19.0156   39.0511 C   0  0  0  0  0  0  0  0  0  0  0  0
   14.7475  -18.4637   40.1511 C   0  0  0  0  0  0  0  0  0  0  0  0
   13.4981  -18.9044   40.5422 C   0  0  0  0  0  0  0  0  0  0  0  0
   12.8286  -19.8497   39.7762 C   0  0  0  0  0  0  0  0  0  0  0  0
   15.3641  -17.5271   40.8839 N   0  0  0  0  0  0  0  0  0  0  0  0
   16.2548  -17.2021   40.6190 H   0  0  0  0  0  0  0  0  0  0  0  0
   14.9264  -17.1637   41.6875 H   0  0  0  0  0  0  0  0  0  0  0  0
   10.1010  -21.1093   37.5878 C   0  0  0  0  0  0  0  0  0  0  0  0
    9.0683  -21.7188   36.6402 C   0  0  0  0  0  0  0  0  0  0  0  0
    9.4058  -23.1804   36.3834 C   0  0  0  0  0  0  0  0  0  0  0  0
    7.6767  -21.5954   37.2438 C   0  0  0  0  0  0  0  0  0  0  0  0
 10 12  1  0  0  0
 10 14  1  0  0  0
 11 12  1  0  0  0
 11 13  1  0  0  0
  5  6  1  0  0  0
  5  9  1  0  0  0
  5  7  2  0  0  0
 12  9  1  0  0  0
  4  1  1  0  0  0
  4 15  1  0  0  0
  4  6  1  0  0  0
  1 22  1  0  0  0
  1  2  1  0  0  0
 15 16  1  0  0  0
 16 17  2  0  0  0
 16 18  1  0  0  0
 17 19  1  0  0  0
 18 20  2  0  0  0
 19 21  2  0  0  0
 20 21  1  0  0  0
 22 23  1  0  0  0
 36 37  1  0  0  0
 36 23  1  0  0  0
 37 38  1  0  0  0
 37 39  1  0  0  0
 27 28  2  0  0  0
 27 32  1  0  0  0
 27 26  1  0  0  0
 28 29  1  0  0  0
 29 30  2  0  0  0
 30 31  1  0  0  0
 30 33  1  0  0  0
 31 32  2  0  0  0
 13 14  1  0  0  0
 23 26  1  0  0  0
 24 26  2  0  0  0
 25 26  2  0  0  0
  6  8  1  0  0  0
 33 34  1  0  0  0
 33 35  1  0  0  0
  2  3  1  0  0  0
M  END
> <minimizedAffinity>
-8.63276

$$$$
3EKP_478_B_200


 39 41  0  0  0  0  0  0  0  0999 V2000
   11.8793  -22.3664   33.8025 C   0  0  0  0  0  0  0  0  0  0  0  0
   12.4775  -23.6503   33.7458 O   0  0  0  0  0  0  0  0  0  0  0  0
   11.9532  -24.2748   34.2711 H   0  0  0  0  0  0  0  0  0  0  0  0
   10.4782  -22.3071   33.1972 C   0  0  0  0  0  0  0  0  0  0  0  0
    8.2318  -22.5854   34.1115 C   0  0  0  0  0  0  0  0  0  0  0  0
    9.4716  -22.1379   34.2009 N   0  0  0  0  0  0  0  0  0  0  0  0
    7.8303  -23.3650   33.2929 O   0  0  0  0  0  0  0  0  0  0  0  0
    9.7221  -21.6515   35.0193 H   0  0  0  0  0  0  0  0  0  0  0  0
    7.3187  -22.0252   35.0996 O   0  0  0  0  0  0  0  0  0  0  0  0
    7.7250  -24.1614   36.0645 C   0  0  0  0  0  0  0  0  0  0  0  0
    5.4818  -23.4781   35.5149 C   0  0  0  0  0  0  0  0  0  0  0  0
    6.8073  -22.9513   36.0279 C   0  0  0  0  0  0  0  0  0  0  0  0
    5.6383  -24.9898   35.4966 C   0  0  0  0  0  0  0  0  0  0  0  0
    7.0305  -25.2547   35.4395 O   0  0  0  0  0  0  0  0  0  0  0  0
   10.3053  -21.1466   32.2106 C   0  0  0  0  0  0  0  0  0  0  0  0
   10.0107  -21.6371   30.8091 C   0  0  0  0  0  0  0  0  0  0  0  0
    8.6947  -21.9246   30.4493 C   0  0  0  0  0  0  0  0  0  0  0  0
   11.0295  -21.7271   29.8610 C   0  0  0  0  0  0  0  0  0  0  0  0
    8.4026  -22.3426   29.1523 C   0  0  0  0  0  0  0  0  0  0  0  0
   10.7386  -22.1687   28.5615 C   0  0  0  0  0  0  0  0  0  0  0  0
    9.4207  -22.4827   28.2001 C   0  0  0  0  0  0  0  0  0  0  0  0
   11.8190  -22.0235   35.2746 C   0  0  0  0  0  0  0  0  0  0  0  0
   12.0639  -20.5954   35.3915 N   0  0  0  0  0  0  0  0  0  0  0  0
    9.9391  -20.5209   36.7589 O   0  0  0  0  0  0  0  0  0  0  0  0
   10.9922  -18.5622   36.1960 O   0  0  0  0  0  0  0  0  0  0  0  0
   11.2302  -19.9032   36.6030 S   0  0  0  0  0  0  0  0  0  0  0  0
   11.9606  -19.9375   38.0372 C   0  0  0  0  0  0  0  0  0  0  0  0
   11.9034  -21.0712   38.8519 C   0  0  0  0  0  0  0  0  0  0  0  0
   12.4688  -21.0738   40.1273 C   0  0  0  0  0  0  0  0  0  0  0  0
   13.1007  -19.9300   40.5778 C   0  0  0  0  0  0  0  0  0  0  0  0
   13.1020  -18.7791   39.8138 C   0  0  0  0  0  0  0  0  0  0  0  0
   12.5385  -18.7924   38.5446 C   0  0  0  0  0  0  0  0  0  0  0  0
   13.6783  -19.9075   41.7862 N   0  0  0  0  0  0  0  0  0  0  0  0
   13.6861  -20.7192   42.3433 H   0  0  0  0  0  0  0  0  0  0  0  0
   14.0951  -19.0792   42.1172 H   0  0  0  0  0  0  0  0  0  0  0  0
   13.5039  -20.3385   35.4414 C   0  0  0  0  0  0  0  0  0  0  0  0
   13.8201  -19.0853   34.6256 C   0  0  0  0  0  0  0  0  0  0  0  0
   14.7587  -18.1826   35.4131 C   0  0  0  0  0  0  0  0  0  0  0  0
   14.4536  -19.4785   33.2989 C   0  0  0  0  0  0  0  0  0  0  0  0
 10 12  1  0  0  0
 10 14  1  0  0  0
 11 12  1  0  0  0
 11 13  1  0  0  0
  5  6  1  0  0  0
  5  9  1  0  0  0
  5  7  2  0  0  0
 12  9  1  0  0  0
  4  1  1  0  0  0
  4 15  1  0  0  0
  4  6  1  0  0  0
  1 22  1  0  0  0
  1  2  1  0  0  0
 15 16  1  0  0  0
 16 17  2  0  0  0
 16 18  1  0  0  0
 17 19  1  0  0  0
 18 20  2  0  0  0
 19 21  2  0  0  0
 20 21  1  0  0  0
 22 23  1  0  0  0
 36 37  1  0  0  0
 36 23  1  0  0  0
 37 38  1  0  0  0
 37 39  1  0  0  0
 27 28  2  0  0  0
 27 32  1  0  0  0
 27 26  1  0  0  0
 28 29  1  0  0  0
 29 30  2  0  0  0
 30 31  1  0  0  0
 30 33  1  0  0  0
 31 32  2  0  0  0
 13 14  1  0  0  0
 23 26  1  0  0  0
 24 26  2  0  0  0
 25 26  2  0  0  0
  6  8  1  0  0  0
 33 34  1  0  0  0
 33 35  1  0  0  0
  2  3  1  0  0  0
M  END
> <minimizedAffinity>
-8.54510

$$$$
3EKP_478_B_200


 39 41  0  0  0  0  0  0  0  0999 V2000
   13.3628  -21.5800   36.5308 C   0  0  0  0  0  0  0  0  0  0  0  0
   14.2006  -22.7208   36.6078 O   0  0  0  0  0  0  0  0  0  0  0  0
   14.8188  -22.6186   37.3483 H   0  0  0  0  0  0  0  0  0  0  0  0
   12.4747  -21.3780   37.7570 C   0  0  0  0  0  0  0  0  0  0  0  0
   12.8502  -20.6968   40.0710 C   0  0  0  0  0  0  0  0  0  0  0  0
   13.1458  -20.6412   38.7846 N   0  0  0  0  0  0  0  0  0  0  0  0
   12.1359  -21.5110   40.5868 O   0  0  0  0  0  0  0  0  0  0  0  0
   13.8831  -20.0484   38.5122 H   0  0  0  0  0  0  0  0  0  0  0  0
   13.4493  -19.6360   40.8710 O   0  0  0  0  0  0  0  0  0  0  0  0
   14.8824  -19.2708   42.7343 C   0  0  0  0  0  0  0  0  0  0  0  0
   15.7636  -19.2378   40.4930 C   0  0  0  0  0  0  0  0  0  0  0  0
   14.7338  -19.9220   41.3699 C   0  0  0  0  0  0  0  0  0  0  0  0
   16.5957  -18.3950   41.4456 C   0  0  0  0  0  0  0  0  0  0  0  0
   15.7954  -18.1684   42.5944 O   0  0  0  0  0  0  0  0  0  0  0  0
   11.1891  -20.6056   37.4395 C   0  0  0  0  0  0  0  0  0  0  0  0
   10.0694  -21.5281   37.0070 C   0  0  0  0  0  0  0  0  0  0  0  0
    8.7468  -21.1147   37.1612 C   0  0  0  0  0  0  0  0  0  0  0  0
   10.3530  -22.7454   36.3885 C   0  0  0  0  0  0  0  0  0  0  0  0
    7.7056  -21.9373   36.7349 C   0  0  0  0  0  0  0  0  0  0  0  0
    9.3046  -23.5830   35.9791 C   0  0  0  0  0  0  0  0  0  0  0  0
    7.9718  -23.1838   36.1534 C   0  0  0  0  0  0  0  0  0  0  0  0
   14.3058  -20.4069   36.3794 C   0  0  0  0  0  0  0  0  0  0  0  0
   14.6736  -20.3323   34.9751 N   0  0  0  0  0  0  0  0  0  0  0  0
   14.1891  -19.0365   32.8593 O   0  0  0  0  0  0  0  0  0  0  0  0
   13.2287  -18.3771   34.8355 O   0  0  0  0  0  0  0  0  0  0  0  0
   13.5895  -19.5224   34.0748 S   0  0  0  0  0  0  0  0  0  0  0  0
   12.2800  -20.3651   33.6663 C   0  0  0  0  0  0  0  0  0  0  0  0
   12.3858  -21.5985   33.0184 C   0  0  0  0  0  0  0  0  0  0  0  0
   11.2517  -22.2914   32.5941 C   0  0  0  0  0  0  0  0  0  0  0  0
   10.0067  -21.7401   32.8321 C   0  0  0  0  0  0  0  0  0  0  0  0
    9.8888  -20.4890   33.4057 C   0  0  0  0  0  0  0  0  0  0  0  0
   11.0263  -19.8125   33.8264 C   0  0  0  0  0  0  0  0  0  0  0  0
    8.8963  -22.3920   32.4628 N   0  0  0  0  0  0  0  0  0  0  0  0
    8.9628  -23.2845   32.0526 H   0  0  0  0  0  0  0  0  0  0  0  0
    8.0136  -21.9785   32.6015 H   0  0  0  0  0  0  0  0  0  0  0  0
   16.0432  -19.8330   34.8437 C   0  0  0  0  0  0  0  0  0  0  0  0
   16.2899  -18.7564   35.9002 C   0  0  0  0  0  0  0  0  0  0  0  0
   17.6296  -19.0005   36.5797 C   0  0  0  0  0  0  0  0  0  0  0  0
   16.2691  -17.3804   35.2505 C   0  0  0  0  0  0  0  0  0  0  0  0
 10 12  1  0  0  0
 10 14  1  0  0  0
 11 12  1  0  0  0
 11 13  1  0  0  0
  5  6  1  0  0  0
  5  9  1  0  0  0
  5  7  2  0  0  0
 12  9  1  0  0  0
  4  1  1  0  0  0
  4 15  1  0  0  0
  4  6  1  0  0  0
  1 22  1  0  0  0
  1  2  1  0  0  0
 15 16  1  0  0  0
 16 17  2  0  0  0
 16 18  1  0  0  0
 17 19  1  0  0  0
 18 20  2  0  0  0
 19 21  2  0  0  0
 20 21  1  0  0  0
 22 23  1  0  0  0
 36 37  1  0  0  0
 36 23  1  0  0  0
 37 38  1  0  0  0
 37 39  1  0  0  0
 27 28  2  0  0  0
 27 32  1  0  0  0
 27 26  1  0  0  0
 28 29  1  0  0  0
 29 30  2  0  0  0
 30 31  1  0  0  0
 30 33  1  0  0  0
 31 32  2  0  0  0
 13 14  1  0  0  0
 23 26  1  0  0  0
 24 26  2  0  0  0
 25 26  2  0  0  0
  6  8  1  0  0  0
 33 34  1  0  0  0
 33 35  1  0  0  0
  2  3  1  0  0  0
M  END
> <minimizedAffinity>
-8.51892

$$$$
3EKP_478_B_200


 39 41  0  0  0  0  0  0  0  0999 V2000
   13.2448  -20.8521   34.6809 C   0  0  0  0  0  0  0  0  0  0  0  0
   13.5572  -20.9716   33.3033 O   0  0  0  0  0  0  0  0  0  0  0  0
   13.4911  -20.1012   32.8802 H   0  0  0  0  0  0  0  0  0  0  0  0
   14.2107  -19.9629   35.4617 C   0  0  0  0  0  0  0  0  0  0  0  0
   13.8360  -19.8839   37.8727 C   0  0  0  0  0  0  0  0  0  0  0  0
   14.3929  -20.4254   36.8041 N   0  0  0  0  0  0  0  0  0  0  0  0
   12.9483  -19.0771   37.8620 O   0  0  0  0  0  0  0  0  0  0  0  0
   14.9772  -21.2058   36.9413 H   0  0  0  0  0  0  0  0  0  0  0  0
   14.4123  -20.3225   39.1374 O   0  0  0  0  0  0  0  0  0  0  0  0
   15.9554  -19.2701   40.6108 C   0  0  0  0  0  0  0  0  0  0  0  0
   13.7042  -19.7339   41.3305 C   0  0  0  0  0  0  0  0  0  0  0  0
   14.5185  -19.3210   40.1205 C   0  0  0  0  0  0  0  0  0  0  0  0
   14.6767  -19.6812   42.4974 C   0  0  0  0  0  0  0  0  0  0  0  0
   15.9790  -19.7989   41.9480 O   0  0  0  0  0  0  0  0  0  0  0  0
   15.6065  -19.9036   34.8308 C   0  0  0  0  0  0  0  0  0  0  0  0
   16.3738  -18.6760   35.2736 C   0  0  0  0  0  0  0  0  0  0  0  0
   17.7656  -18.7276   35.3382 C   0  0  0  0  0  0  0  0  0  0  0  0
   15.7061  -17.4808   35.5394 C   0  0  0  0  0  0  0  0  0  0  0  0
   18.4882  -17.5952   35.7093 C   0  0  0  0  0  0  0  0  0  0  0  0
   16.4321  -16.3470   35.9340 C   0  0  0  0  0  0  0  0  0  0  0  0
   17.8304  -16.3990   36.0244 C   0  0  0  0  0  0  0  0  0  0  0  0
   11.8535  -20.2598   34.7204 C   0  0  0  0  0  0  0  0  0  0  0  0
   10.9149  -21.3681   34.6585 N   0  0  0  0  0  0  0  0  0  0  0  0
    9.8783  -20.4045   36.7532 O   0  0  0  0  0  0  0  0  0  0  0  0
   11.0858  -22.3509   36.8800 O   0  0  0  0  0  0  0  0  0  0  0  0
   10.1576  -21.6410   36.0705 S   0  0  0  0  0  0  0  0  0  0  0  0
    8.7728  -22.4536   35.9533 C   0  0  0  0  0  0  0  0  0  0  0  0
    8.7573  -23.8473   35.8542 C   0  0  0  0  0  0  0  0  0  0  0  0
    7.5632  -24.5456   35.6734 C   0  0  0  0  0  0  0  0  0  0  0  0
    6.3803  -23.8342   35.6004 C   0  0  0  0  0  0  0  0  0  0  0  0
    6.3870  -22.4531   35.6236 C   0  0  0  0  0  0  0  0  0  0  0  0
    7.5828  -21.7715   35.8078 C   0  0  0  0  0  0  0  0  0  0  0  0
    5.2132  -24.4753   35.4551 N   0  0  0  0  0  0  0  0  0  0  0  0
    5.1911  -25.4594   35.4365 H   0  0  0  0  0  0  0  0  0  0  0  0
    4.3775  -23.9624   35.3668 H   0  0  0  0  0  0  0  0  0  0  0  0
   10.0069  -21.1903   33.5245 C   0  0  0  0  0  0  0  0  0  0  0  0
   10.2831  -22.2750   32.4837 C   0  0  0  0  0  0  0  0  0  0  0  0
    9.0102  -23.0639   32.2132 C   0  0  0  0  0  0  0  0  0  0  0  0
   10.7952  -21.6400   31.1989 C   0  0  0  0  0  0  0  0  0  0  0  0
 10 12  1  0  0  0
 10 14  1  0  0  0
 11 12  1  0  0  0
 11 13  1  0  0  0
  5  6  1  0  0  0
  5  9  1  0  0  0
  5  7  2  0  0  0
 12  9  1  0  0  0
  4  1  1  0  0  0
  4 15  1  0  0  0
  4  6  1  0  0  0
  1 22  1  0  0  0
  1  2  1  0  0  0
 15 16  1  0  0  0
 16 17  2  0  0  0
 16 18  1  0  0  0
 17 19  1  0  0  0
 18 20  2  0  0  0
 19 21  2  0  0  0
 20 21  1  0  0  0
 22 23  1  0  0  0
 36 37  1  0  0  0
 36 23  1  0  0  0
 37 38  1  0  0  0
 37 39  1  0  0  0
 27 28  2  0  0  0
 27 32  1  0  0  0
 27 26  1  0  0  0
 28 29  1  0  0  0
 29 30  2  0  0  0
 30 31  1  0  0  0
 30 33  1  0  0  0
 31 32  2  0  0  0
 13 14  1  0  0  0
 23 26  1  0  0  0
 24 26  2  0  0  0
 25 26  2  0  0  0
  6  8  1  0  0  0
 33 34  1  0  0  0
 33 35  1  0  0  0
  2  3  1  0  0  0
M  END
> <minimizedAffinity>
-8.44770

$$$$
3EKP_478_B_200


 39 41  0  0  0  0  0  0  0  0999 V2000
   11.9578  -21.8258   36.3447 C   0  0  0  0  0  0  0  0  0  0  0  0
   12.0895  -23.0236   35.5982 O   0  0  0  0  0  0  0  0  0  0  0  0
   12.1250  -22.8127   34.6521 H   0  0  0  0  0  0  0  0  0  0  0  0
   13.1416  -20.8712   36.2008 C   0  0  0  0  0  0  0  0  0  0  0  0
   13.9809  -19.7964   38.2256 C   0  0  0  0  0  0  0  0  0  0  0  0
   13.9326  -20.8208   37.3928 N   0  0  0  0  0  0  0  0  0  0  0  0
   13.2281  -18.8624   38.2249 O   0  0  0  0  0  0  0  0  0  0  0  0
   14.4820  -21.6089   37.6082 H   0  0  0  0  0  0  0  0  0  0  0  0
   15.0801  -19.8508   39.1810 O   0  0  0  0  0  0  0  0  0  0  0  0
   16.2623  -18.9234   41.0254 C   0  0  0  0  0  0  0  0  0  0  0  0
   14.0051  -19.7180   41.2986 C   0  0  0  0  0  0  0  0  0  0  0  0
   14.9252  -19.0273   40.3118 C   0  0  0  0  0  0  0  0  0  0  0  0
   14.7905  -19.7730   42.5987 C   0  0  0  0  0  0  0  0  0  0  0  0
   16.1616  -19.6689   42.2511 O   0  0  0  0  0  0  0  0  0  0  0  0
   14.0926  -21.2701   35.0665 C   0  0  0  0  0  0  0  0  0  0  0  0
   14.8244  -20.0733   34.4972 C   0  0  0  0  0  0  0  0  0  0  0  0
   14.1213  -18.8929   34.2602 C   0  0  0  0  0  0  0  0  0  0  0  0
   16.2018  -20.1206   34.2841 C   0  0  0  0  0  0  0  0  0  0  0  0
   14.7879  -17.7714   33.7702 C   0  0  0  0  0  0  0  0  0  0  0  0
   16.8690  -18.9985   33.7704 C   0  0  0  0  0  0  0  0  0  0  0  0
   16.1633  -17.8158   33.5071 C   0  0  0  0  0  0  0  0  0  0  0  0
   10.7003  -21.1692   35.8195 C   0  0  0  0  0  0  0  0  0  0  0  0
    9.9727  -22.1786   35.0679 N   0  0  0  0  0  0  0  0  0  0  0  0
    8.3386  -21.9725   36.9856 O   0  0  0  0  0  0  0  0  0  0  0  0
    9.2654  -24.0146   36.5027 O   0  0  0  0  0  0  0  0  0  0  0  0
    8.7442  -22.8344   35.9060 S   0  0  0  0  0  0  0  0  0  0  0  0
    7.4322  -23.1726   35.0365 C   0  0  0  0  0  0  0  0  0  0  0  0
    6.2809  -22.3860   35.1273 C   0  0  0  0  0  0  0  0  0  0  0  0
    5.1183  -22.7242   34.4343 C   0  0  0  0  0  0  0  0  0  0  0  0
    5.1214  -23.8561   33.6410 C   0  0  0  0  0  0  0  0  0  0  0  0
    6.2273  -24.6828   33.5983 C   0  0  0  0  0  0  0  0  0  0  0  0
    7.3789  -24.3316   34.2905 C   0  0  0  0  0  0  0  0  0  0  0  0
    4.0310  -24.1942   32.9403 N   0  0  0  0  0  0  0  0  0  0  0  0
    3.2344  -23.6160   32.9599 H   0  0  0  0  0  0  0  0  0  0  0  0
    4.0261  -25.0209   32.4057 H   0  0  0  0  0  0  0  0  0  0  0  0
    9.5803  -21.6432   33.7635 C   0  0  0  0  0  0  0  0  0  0  0  0
   10.3301  -22.3954   32.6644 C   0  0  0  0  0  0  0  0  0  0  0  0
    9.3850  -22.6950   31.5099 C   0  0  0  0  0  0  0  0  0  0  0  0
   11.5091  -21.5635   32.1807 C   0  0  0  0  0  0  0  0  0  0  0  0
 10 12  1  0  0  0
 10 14  1  0  0  0
 11 12  1  0  0  0
 11 13  1  0  0  0
  5  6  1  0  0  0
  5  9  1  0  0  0
  5  7  2  0  0  0
 12  9  1  0  0  0
  4  1  1  0  0  0
  4 15  1  0  0  0
  4  6  1  0  0  0
  1 22  1  0  0  0
  1  2  1  0  0  0
 15 16  1  0  0  0
 16 17  2  0  0  0
 16 18  1  0  0  0
 17 19  1  0  0  0
 18 20  2  0  0  0
 19 21  2  0  0  0
 20 21  1  0  0  0
 22 23  1  0  0  0
 36 37  1  0  0  0
 36 23  1  0  0  0
 37 38  1  0  0  0
 37 39  1  0  0  0
 27 28  2  0  0  0
 27 32  1  0  0  0
 27 26  1  0  0  0
 28 29  1  0  0  0
 29 30  2  0  0  0
 30 31  1  0  0  0
 30 33  1  0  0  0
 31 32  2  0  0  0
 13 14  1  0  0  0
 23 26  1  0  0  0
 24 26  2  0  0  0
 25 26  2  0  0  0
  6  8  1  0  0  0
 33 34  1  0  0  0
 33 35  1  0  0  0
  2  3  1  0  0  0
M  END
> <minimizedAffinity>
-8.35689

$$$$
3EKP_478_B_200


 39 41  0  0  0  0  0  0  0  0999 V2000
   12.8628  -21.4432   34.3183 C   0  0  0  0  0  0  0  0  0  0  0  0
   13.7710  -22.1408   35.1537 O   0  0  0  0  0  0  0  0  0  0  0  0
   13.5439  -21.9806   36.0830 H   0  0  0  0  0  0  0  0  0  0  0  0
   11.4136  -21.9070   34.4528 C   0  0  0  0  0  0  0  0  0  0  0  0
   10.1210  -22.0554   32.3872 C   0  0  0  0  0  0  0  0  0  0  0  0
   10.9560  -22.5724   33.2708 N   0  0  0  0  0  0  0  0  0  0  0  0
    9.7943  -20.9026   32.3294 O   0  0  0  0  0  0  0  0  0  0  0  0
   11.2885  -23.4839   33.1039 H   0  0  0  0  0  0  0  0  0  0  0  0
    9.5627  -23.0230   31.4511 O   0  0  0  0  0  0  0  0  0  0  0  0
    8.1051  -23.5555   29.6480 C   0  0  0  0  0  0  0  0  0  0  0  0
    9.9313  -22.0184   29.3269 C   0  0  0  0  0  0  0  0  0  0  0  0
    8.8988  -22.4629   30.3437 C   0  0  0  0  0  0  0  0  0  0  0  0
    9.5375  -22.7143   28.0344 C   0  0  0  0  0  0  0  0  0  0  0  0
    8.7592  -23.8423   28.3997 O   0  0  0  0  0  0  0  0  0  0  0  0
   11.2093  -22.8910   35.6103 C   0  0  0  0  0  0  0  0  0  0  0  0
    9.7986  -22.8337   36.1568 C   0  0  0  0  0  0  0  0  0  0  0  0
    9.2720  -21.6070   36.5590 C   0  0  0  0  0  0  0  0  0  0  0  0
    9.0030  -23.9787   36.1862 C   0  0  0  0  0  0  0  0  0  0  0  0
    7.9626  -21.5319   37.0305 C   0  0  0  0  0  0  0  0  0  0  0  0
    7.6922  -23.9070   36.6811 C   0  0  0  0  0  0  0  0  0  0  0  0
    7.1646  -22.6807   37.1100 C   0  0  0  0  0  0  0  0  0  0  0  0
   12.9795  -19.9929   34.7324 C   0  0  0  0  0  0  0  0  0  0  0  0
   14.1899  -19.8714   35.5281 N   0  0  0  0  0  0  0  0  0  0  0  0
   14.9537  -18.4034   33.6172 O   0  0  0  0  0  0  0  0  0  0  0  0
   16.1304  -20.3065   34.1227 O   0  0  0  0  0  0  0  0  0  0  0  0
   15.4295  -19.2161   34.7062 S   0  0  0  0  0  0  0  0  0  0  0  0
   16.4265  -18.3102   35.5878 C   0  0  0  0  0  0  0  0  0  0  0  0
   16.3129  -16.9177   35.6073 C   0  0  0  0  0  0  0  0  0  0  0  0
   17.2251  -16.1281   36.3080 C   0  0  0  0  0  0  0  0  0  0  0  0
   18.2503  -16.7479   36.9974 C   0  0  0  0  0  0  0  0  0  0  0  0
   18.4184  -18.1172   36.9280 C   0  0  0  0  0  0  0  0  0  0  0  0
   17.5004  -18.8908   36.2297 C   0  0  0  0  0  0  0  0  0  0  0  0
   19.1270  -16.0214   37.7032 N   0  0  0  0  0  0  0  0  0  0  0  0
   19.0216  -15.0444   37.7627 H   0  0  0  0  0  0  0  0  0  0  0  0
   19.8767  -16.4645   38.1623 H   0  0  0  0  0  0  0  0  0  0  0  0
   13.8915  -19.1925   36.7900 C   0  0  0  0  0  0  0  0  0  0  0  0
   14.0841  -20.1728   37.9467 C   0  0  0  0  0  0  0  0  0  0  0  0
   14.9694  -19.5428   39.0123 C   0  0  0  0  0  0  0  0  0  0  0  0
   12.7324  -20.5485   38.5363 C   0  0  0  0  0  0  0  0  0  0  0  0
 10 12  1  0  0  0
 10 14  1  0  0  0
 11 12  1  0  0  0
 11 13  1  0  0  0
  5  6  1  0  0  0
  5  9  1  0  0  0
  5  7  2  0  0  0
 12  9  1  0  0  0
  4  1  1  0  0  0
  4 15  1  0  0  0
  4  6  1  0  0  0
  1 22  1  0  0  0
  1  2  1  0  0  0
 15 16  1  0  0  0
 16 17  2  0  0  0
 16 18  1  0  0  0
 17 19  1  0  0  0
 18 20  2  0  0  0
 19 21  2  0  0  0
 20 21  1  0  0  0
 22 23  1  0  0  0
 36 37  1  0  0  0
 36 23  1  0  0  0
 37 38  1  0  0  0
 37 39  1  0  0  0
 27 28  2  0  0  0
 27 32  1  0  0  0
 27 26  1  0  0  0
 28 29  1  0  0  0
 29 30  2  0  0  0
 30 31  1  0  0  0
 30 33  1  0  0  0
 31 32  2  0  0  0
 13 14  1  0  0  0
 23 26  1  0  0  0
 24 26  2  0  0  0
 25 26  2  0  0  0
  6  8  1  0  0  0
 33 34  1  0  0  0
 33 35  1  0  0  0
  2  3  1  0  0  0
M  END
> <minimizedAffinity>
-8.32403

$$$$
3EKP_478_B_200


 39 41  0  0  0  0  0  0  0  0999 V2000
    8.9364  -21.9498   36.1575 C   0  0  0  0  0  0  0  0  0  0  0  0
    8.1612  -21.1301   37.0156 O   0  0  0  0  0  0  0  0  0  0  0  0
    7.6632  -20.4876   36.4863 H   0  0  0  0  0  0  0  0  0  0  0  0
    8.1085  -22.7959   35.1922 C   0  0  0  0  0  0  0  0  0  0  0  0
    8.0965  -23.2515   32.7939 C   0  0  0  0  0  0  0  0  0  0  0  0
    8.7159  -22.8749   33.8983 N   0  0  0  0  0  0  0  0  0  0  0  0
    6.9099  -23.3763   32.6690 O   0  0  0  0  0  0  0  0  0  0  0  0
    9.6667  -22.6303   33.8261 H   0  0  0  0  0  0  0  0  0  0  0  0
    8.9863  -23.5537   31.6799 O   0  0  0  0  0  0  0  0  0  0  0  0
    8.2780  -23.6219   29.4099 C   0  0  0  0  0  0  0  0  0  0  0  0
   10.1552  -22.2609   30.0614 C   0  0  0  0  0  0  0  0  0  0  0  0
    8.8026  -22.7510   30.5386 C   0  0  0  0  0  0  0  0  0  0  0  0
   10.2388  -22.6886   28.6053 C   0  0  0  0  0  0  0  0  0  0  0  0
    9.3348  -23.7697   28.4457 O   0  0  0  0  0  0  0  0  0  0  0  0
    7.9256  -24.2398   35.6737 C   0  0  0  0  0  0  0  0  0  0  0  0
    6.4839  -24.6900   35.5713 C   0  0  0  0  0  0  0  0  0  0  0  0
    5.4632  -23.7649   35.7868 C   0  0  0  0  0  0  0  0  0  0  0  0
    6.1745  -25.9950   35.1890 C   0  0  0  0  0  0  0  0  0  0  0  0
    4.1313  -24.1553   35.6610 C   0  0  0  0  0  0  0  0  0  0  0  0
    4.8335  -26.3935   35.0836 C   0  0  0  0  0  0  0  0  0  0  0  0
    3.8020  -25.4744   35.3226 C   0  0  0  0  0  0  0  0  0  0  0  0
    9.8121  -20.9915   35.3808 C   0  0  0  0  0  0  0  0  0  0  0  0
   11.1531  -21.0950   35.9321 N   0  0  0  0  0  0  0  0  0  0  0  0
   11.6004  -22.0184   33.6218 O   0  0  0  0  0  0  0  0  0  0  0  0
   12.6607  -22.9416   35.4345 O   0  0  0  0  0  0  0  0  0  0  0  0
   12.2295  -21.7063   34.8787 S   0  0  0  0  0  0  0  0  0  0  0  0
   13.4908  -20.7558   34.5669 C   0  0  0  0  0  0  0  0  0  0  0  0
   14.5666  -20.6663   35.4541 C   0  0  0  0  0  0  0  0  0  0  0  0
   15.6223  -19.7840   35.2228 C   0  0  0  0  0  0  0  0  0  0  0  0
   15.5948  -18.9956   34.0878 C   0  0  0  0  0  0  0  0  0  0  0  0
   14.5045  -19.0201   33.2400 C   0  0  0  0  0  0  0  0  0  0  0  0
   13.4625  -19.9060   33.4808 C   0  0  0  0  0  0  0  0  0  0  0  0
   16.6056  -18.1580   33.8212 N   0  0  0  0  0  0  0  0  0  0  0  0
   17.3900  -18.1282   34.4154 H   0  0  0  0  0  0  0  0  0  0  0  0
   16.5641  -17.5723   33.0310 H   0  0  0  0  0  0  0  0  0  0  0  0
   11.5549  -19.8125   36.5116 C   0  0  0  0  0  0  0  0  0  0  0  0
   11.7353  -19.9764   38.0205 C   0  0  0  0  0  0  0  0  0  0  0  0
   11.9898  -21.4398   38.3517 C   0  0  0  0  0  0  0  0  0  0  0  0
   12.8961  -19.1162   38.4986 C   0  0  0  0  0  0  0  0  0  0  0  0
 10 12  1  0  0  0
 10 14  1  0  0  0
 11 12  1  0  0  0
 11 13  1  0  0  0
  5  6  1  0  0  0
  5  9  1  0  0  0
  5  7  2  0  0  0
 12  9  1  0  0  0
  4  1  1  0  0  0
  4 15  1  0  0  0
  4  6  1  0  0  0
  1 22  1  0  0  0
  1  2  1  0  0  0
 15 16  1  0  0  0
 16 17  2  0  0  0
 16 18  1  0  0  0
 17 19  1  0  0  0
 18 20  2  0  0  0
 19 21  2  0  0  0
 20 21  1  0  0  0
 22 23  1  0  0  0
 36 37  1  0  0  0
 36 23  1  0  0  0
 37 38  1  0  0  0
 37 39  1  0  0  0
 27 28  2  0  0  0
 27 32  1  0  0  0
 27 26  1  0  0  0
 28 29  1  0  0  0
 29 30  2  0  0  0
 30 31  1  0  0  0
 30 33  1  0  0  0
 31 32  2  0  0  0
 13 14  1  0  0  0
 23 26  1  0  0  0
 24 26  2  0  0  0
 25 26  2  0  0  0
  6  8  1  0  0  0
 33 34  1  0  0  0
 33 35  1  0  0  0
  2  3  1  0  0  0
M  END
> <minimizedAffinity>
-8.24004

$$$$
3EKP_478_B_200


 39 41  0  0  0  0  0  0  0  0999 V2000
    9.9185  -20.9747   36.1397 C   0  0  0  0  0  0  0  0  0  0  0  0
    8.9593  -20.9897   37.1833 O   0  0  0  0  0  0  0  0  0  0  0  0
    9.1401  -21.7344   37.7779 H   0  0  0  0  0  0  0  0  0  0  0  0
   11.3526  -20.7549   36.6176 C   0  0  0  0  0  0  0  0  0  0  0  0
   13.4616  -21.1960   35.4700 C   0  0  0  0  0  0  0  0  0  0  0  0
   12.2663  -20.6358   35.5221 N   0  0  0  0  0  0  0  0  0  0  0  0
   13.8676  -22.0413   36.2181 O   0  0  0  0  0  0  0  0  0  0  0  0
   11.9826  -20.0958   34.7494 H   0  0  0  0  0  0  0  0  0  0  0  0
   14.3207  -20.6800   34.4118 O   0  0  0  0  0  0  0  0  0  0  0  0
   14.4038  -18.3132   34.1866 C   0  0  0  0  0  0  0  0  0  0  0  0
   16.4223  -19.6215   34.0649 C   0  0  0  0  0  0  0  0  0  0  0  0
   15.0784  -19.5468   34.7619 C   0  0  0  0  0  0  0  0  0  0  0  0
   16.5423  -18.3149   33.2978 C   0  0  0  0  0  0  0  0  0  0  0  0
   15.2226  -17.8319   33.1066 O   0  0  0  0  0  0  0  0  0  0  0  0
   11.5117  -19.4806   37.4547 C   0  0  0  0  0  0  0  0  0  0  0  0
   12.1964  -19.7560   38.7765 C   0  0  0  0  0  0  0  0  0  0  0  0
   12.8770  -18.7236   39.4206 C   0  0  0  0  0  0  0  0  0  0  0  0
   12.0845  -21.0055   39.3857 C   0  0  0  0  0  0  0  0  0  0  0  0
   13.4818  -18.9519   40.6553 C   0  0  0  0  0  0  0  0  0  0  0  0
   12.7118  -21.2414   40.6182 C   0  0  0  0  0  0  0  0  0  0  0  0
   13.4183  -20.2141   41.2598 C   0  0  0  0  0  0  0  0  0  0  0  0
    9.7994  -22.3280   35.4744 C   0  0  0  0  0  0  0  0  0  0  0  0
    9.0881  -22.1281   34.2226 N   0  0  0  0  0  0  0  0  0  0  0  0
   11.2999  -22.6313   33.1067 O   0  0  0  0  0  0  0  0  0  0  0  0
   10.4399  -20.5069   33.0082 O   0  0  0  0  0  0  0  0  0  0  0  0
   10.0799  -21.8812   32.9587 S   0  0  0  0  0  0  0  0  0  0  0  0
    9.4549  -22.2505   31.5218 C   0  0  0  0  0  0  0  0  0  0  0  0
    8.7267  -23.4274   31.3299 C   0  0  0  0  0  0  0  0  0  0  0  0
    8.2526  -23.7861   30.0678 C   0  0  0  0  0  0  0  0  0  0  0  0
    8.5084  -22.9492   28.9979 C   0  0  0  0  0  0  0  0  0  0  0  0
    9.2882  -21.8203   29.1579 C   0  0  0  0  0  0  0  0  0  0  0  0
    9.7502  -21.4737   30.4209 C   0  0  0  0  0  0  0  0  0  0  0  0
    8.0439  -23.2495   27.7779 N   0  0  0  0  0  0  0  0  0  0  0  0
    7.4867  -24.0505   27.6467 H   0  0  0  0  0  0  0  0  0  0  0  0
    8.2598  -22.6693   27.0124 H   0  0  0  0  0  0  0  0  0  0  0  0
    8.1256  -23.2113   34.0169 C   0  0  0  0  0  0  0  0  0  0  0  0
    7.2413  -23.3409   35.2567 C   0  0  0  0  0  0  0  0  0  0  0  0
    6.0406  -22.4144   35.1308 C   0  0  0  0  0  0  0  0  0  0  0  0
    6.7822  -24.7831   35.4156 C   0  0  0  0  0  0  0  0  0  0  0  0
 10 12  1  0  0  0
 10 14  1  0  0  0
 11 12  1  0  0  0
 11 13  1  0  0  0
  5  6  1  0  0  0
  5  9  1  0  0  0
  5  7  2  0  0  0
 12  9  1  0  0  0
  4  1  1  0  0  0
  4 15  1  0  0  0
  4  6  1  0  0  0
  1 22  1  0  0  0
  1  2  1  0  0  0
 15 16  1  0  0  0
 16 17  2  0  0  0
 16 18  1  0  0  0
 17 19  1  0  0  0
 18 20  2  0  0  0
 19 21  2  0  0  0
 20 21  1  0  0  0
 22 23  1  0  0  0
 36 37  1  0  0  0
 36 23  1  0  0  0
 37 38  1  0  0  0
 37 39  1  0  0  0
 27 28  2  0  0  0
 27 32  1  0  0  0
 27 26  1  0  0  0
 28 29  1  0  0  0
 29 30  2  0  0  0
 30 31  1  0  0  0
 30 33  1  0  0  0
 31 32  2  0  0  0
 13 14  1  0  0  0
 23 26  1  0  0  0
 24 26  2  0  0  0
 25 26  2  0  0  0
  6  8  1  0  0  0
 33 34  1  0  0  0
 33 35  1  0  0  0
  2  3  1  0  0  0
M  END
> <minimizedAffinity>
-8.21628

$$$$
3EKP_478_B_200


 39 41  0  0  0  0  0  0  0  0999 V2000
   13.2564  -21.5866   36.5095 C   0  0  0  0  0  0  0  0  0  0  0  0
   14.1850  -22.6563   36.5625 O   0  0  0  0  0  0  0  0  0  0  0  0
   14.8404  -22.4815   37.2559 H   0  0  0  0  0  0  0  0  0  0  0  0
   12.4375  -21.4114   37.7869 C   0  0  0  0  0  0  0  0  0  0  0  0
   12.8864  -20.6732   40.0701 C   0  0  0  0  0  0  0  0  0  0  0  0
   13.1477  -20.6577   38.7752 N   0  0  0  0  0  0  0  0  0  0  0  0
   12.1740  -21.4612   40.6273 O   0  0  0  0  0  0  0  0  0  0  0  0
   13.8863  -20.0847   38.4667 H   0  0  0  0  0  0  0  0  0  0  0  0
   13.5234  -19.6007   40.8239 O   0  0  0  0  0  0  0  0  0  0  0  0
   14.9532  -19.2668   42.6957 C   0  0  0  0  0  0  0  0  0  0  0  0
   15.8441  -19.2289   40.4584 C   0  0  0  0  0  0  0  0  0  0  0  0
   14.8022  -19.9064   41.3261 C   0  0  0  0  0  0  0  0  0  0  0  0
   16.6827  -18.4034   41.4204 C   0  0  0  0  0  0  0  0  0  0  0  0
   15.8804  -18.1750   42.5674 O   0  0  0  0  0  0  0  0  0  0  0  0
   11.1143  -20.6749   37.5487 C   0  0  0  0  0  0  0  0  0  0  0  0
   10.0189  -21.6161   37.0948 C   0  0  0  0  0  0  0  0  0  0  0  0
    8.6936  -21.1838   37.1209 C   0  0  0  0  0  0  0  0  0  0  0  0
   10.3332  -22.8741   36.5813 C   0  0  0  0  0  0  0  0  0  0  0  0
    7.6773  -22.0254   36.6725 C   0  0  0  0  0  0  0  0  0  0  0  0
    9.3082  -23.7295   36.1501 C   0  0  0  0  0  0  0  0  0  0  0  0
    7.9711  -23.3100   36.1964 C   0  0  0  0  0  0  0  0  0  0  0  0
   14.0919  -20.3504   36.2601 C   0  0  0  0  0  0  0  0  0  0  0  0
   13.5763  -19.7217   35.0552 N   0  0  0  0  0  0  0  0  0  0  0  0
   14.1067  -17.6319   33.7354 O   0  0  0  0  0  0  0  0  0  0  0  0
   15.1050  -19.6162   33.1624 O   0  0  0  0  0  0  0  0  0  0  0  0
   14.6905  -18.8328   34.2738 S   0  0  0  0  0  0  0  0  0  0  0  0
   15.9597  -18.3982   35.1638 C   0  0  0  0  0  0  0  0  0  0  0  0
   15.9612  -17.2030   35.8875 C   0  0  0  0  0  0  0  0  0  0  0  0
   17.0898  -16.7882   36.5950 C   0  0  0  0  0  0  0  0  0  0  0  0
   18.2175  -17.5873   36.5776 C   0  0  0  0  0  0  0  0  0  0  0  0
   18.2558  -18.7342   35.8086 C   0  0  0  0  0  0  0  0  0  0  0  0
   17.1236  -19.1367   35.1124 C   0  0  0  0  0  0  0  0  0  0  0  0
   19.3088  -17.2326   37.2687 N   0  0  0  0  0  0  0  0  0  0  0  0
   19.2981  -16.4181   37.8217 H   0  0  0  0  0  0  0  0  0  0  0  0
   20.1216  -17.7863   37.2236 H   0  0  0  0  0  0  0  0  0  0  0  0
   12.9196  -20.7218   34.2122 C   0  0  0  0  0  0  0  0  0  0  0  0
   11.6443  -20.1222   33.6205 C   0  0  0  0  0  0  0  0  0  0  0  0
   10.6742  -21.2362   33.2547 C   0  0  0  0  0  0  0  0  0  0  0  0
   11.0057  -19.1728   34.6240 C   0  0  0  0  0  0  0  0  0  0  0  0
 10 12  1  0  0  0
 10 14  1  0  0  0
 11 12  1  0  0  0
 11 13  1  0  0  0
  5  6  1  0  0  0
  5  9  1  0  0  0
  5  7  2  0  0  0
 12  9  1  0  0  0
  4  1  1  0  0  0
  4 15  1  0  0  0
  4  6  1  0  0  0
  1 22  1  0  0  0
  1  2  1  0  0  0
 15 16  1  0  0  0
 16 17  2  0  0  0
 16 18  1  0  0  0
 17 19  1  0  0  0
 18 20  2  0  0  0
 19 21  2  0  0  0
 20 21  1  0  0  0
 22 23  1  0  0  0
 36 37  1  0  0  0
 36 23  1  0  0  0
 37 38  1  0  0  0
 37 39  1  0  0  0
 27 28  2  0  0  0
 27 32  1  0  0  0
 27 26  1  0  0  0
 28 29  1  0  0  0
 29 30  2  0  0  0
 30 31  1  0  0  0
 30 33  1  0  0  0
 31 32  2  0  0  0
 13 14  1  0  0  0
 23 26  1  0  0  0
 24 26  2  0  0  0
 25 26  2  0  0  0
  6  8  1  0  0  0
 33 34  1  0  0  0
 33 35  1  0  0  0
  2  3  1  0  0  0
M  END
> <minimizedAffinity>
-8.20669

$$$$
3EKP_478_B_200


 39 41  0  0  0  0  0  0  0  0999 V2000
   11.0791  -22.6598   34.6970 C   0  0  0  0  0  0  0  0  0  0  0  0
   11.0065  -23.6606   35.6983 O   0  0  0  0  0  0  0  0  0  0  0  0
   10.3145  -23.4290   36.3374 H   0  0  0  0  0  0  0  0  0  0  0  0
    9.8066  -22.5221   33.8633 C   0  0  0  0  0  0  0  0  0  0  0  0
    7.8792  -23.1214   35.2365 C   0  0  0  0  0  0  0  0  0  0  0  0
    8.6676  -22.2213   34.6765 N   0  0  0  0  0  0  0  0  0  0  0  0
    8.1139  -24.2946   35.3238 O   0  0  0  0  0  0  0  0  0  0  0  0
    8.4558  -21.2722   34.8301 H   0  0  0  0  0  0  0  0  0  0  0  0
    6.6227  -22.5857   35.7447 O   0  0  0  0  0  0  0  0  0  0  0  0
    4.6219  -23.8672   35.6275 C   0  0  0  0  0  0  0  0  0  0  0  0
    5.9577  -23.5085   33.6558 C   0  0  0  0  0  0  0  0  0  0  0  0
    5.4992  -22.8380   34.9355 C   0  0  0  0  0  0  0  0  0  0  0  0
    5.1476  -24.7917   33.5703 C   0  0  0  0  0  0  0  0  0  0  0  0
    4.7282  -25.0974   34.8902 O   0  0  0  0  0  0  0  0  0  0  0  0
    9.8990  -21.4054   32.8172 C   0  0  0  0  0  0  0  0  0  0  0  0
    9.7784  -21.9425   31.4070 C   0  0  0  0  0  0  0  0  0  0  0  0
   10.7304  -21.5800   30.4550 C   0  0  0  0  0  0  0  0  0  0  0  0
    8.7735  -22.8521   31.0786 C   0  0  0  0  0  0  0  0  0  0  0  0
   10.6536  -22.0945   29.1621 C   0  0  0  0  0  0  0  0  0  0  0  0
    8.6835  -23.3531   29.7713 C   0  0  0  0  0  0  0  0  0  0  0  0
    9.6237  -22.9736   28.8026 C   0  0  0  0  0  0  0  0  0  0  0  0
   11.3467  -21.3721   35.4444 C   0  0  0  0  0  0  0  0  0  0  0  0
   12.7795  -21.1342   35.3874 N   0  0  0  0  0  0  0  0  0  0  0  0
   12.2047  -18.8069   34.5853 O   0  0  0  0  0  0  0  0  0  0  0  0
   13.1062  -20.3202   33.1157 O   0  0  0  0  0  0  0  0  0  0  0  0
   13.1774  -19.8608   34.4590 S   0  0  0  0  0  0  0  0  0  0  0  0
   14.6245  -19.2239   34.7626 C   0  0  0  0  0  0  0  0  0  0  0  0
   14.7516  -17.9773   35.3808 C   0  0  0  0  0  0  0  0  0  0  0  0
   16.0025  -17.3901   35.5725 C   0  0  0  0  0  0  0  0  0  0  0  0
   17.1288  -18.0680   35.1455 C   0  0  0  0  0  0  0  0  0  0  0  0
   17.0146  -19.2665   34.4681 C   0  0  0  0  0  0  0  0  0  0  0  0
   15.7631  -19.8409   34.2878 C   0  0  0  0  0  0  0  0  0  0  0  0
   18.3470  -17.5455   35.3391 N   0  0  0  0  0  0  0  0  0  0  0  0
   18.4458  -16.6921   35.8199 H   0  0  0  0  0  0  0  0  0  0  0  0
   19.1434  -18.0149   35.0006 H   0  0  0  0  0  0  0  0  0  0  0  0
   13.3297  -21.0740   36.7423 C   0  0  0  0  0  0  0  0  0  0  0  0
   12.2518  -20.5695   37.7012 C   0  0  0  0  0  0  0  0  0  0  0  0
   12.1326  -21.5179   38.8855 C   0  0  0  0  0  0  0  0  0  0  0  0
   12.6005  -19.1674   38.1794 C   0  0  0  0  0  0  0  0  0  0  0  0
 10 12  1  0  0  0
 10 14  1  0  0  0
 11 12  1  0  0  0
 11 13  1  0  0  0
  5  6  1  0  0  0
  5  9  1  0  0  0
  5  7  2  0  0  0
 12  9  1  0  0  0
  4  1  1  0  0  0
  4 15  1  0  0  0
  4  6  1  0  0  0
  1 22  1  0  0  0
  1  2  1  0  0  0
 15 16  1  0  0  0
 16 17  2  0  0  0
 16 18  1  0  0  0
 17 19  1  0  0  0
 18 20  2  0  0  0
 19 21  2  0  0  0
 20 21  1  0  0  0
 22 23  1  0  0  0
 36 37  1  0  0  0
 36 23  1  0  0  0
 37 38  1  0  0  0
 37 39  1  0  0  0
 27 28  2  0  0  0
 27 32  1  0  0  0
 27 26  1  0  0  0
 28 29  1  0  0  0
 29 30  2  0  0  0
 30 31  1  0  0  0
 30 33  1  0  0  0
 31 32  2  0  0  0
 13 14  1  0  0  0
 23 26  1  0  0  0
 24 26  2  0  0  0
 25 26  2  0  0  0
  6  8  1  0  0  0
 33 34  1  0  0  0
 33 35  1  0  0  0
  2  3  1  0  0  0
M  END
> <minimizedAffinity>
-8.04324

$$$$
