2QWD_4AM_A_800


 27 27  0  0  0  0  0  0  0  0999 V2000
   26.0909   16.3001   60.5165 C   0  0  0  0  0  0  0  0  0  0  0  0
   25.3709   15.4936   61.3676 C   0  0  0  0  0  0  0  0  0  0  0  0
   24.9548   15.9360   62.7743 C   0  0  0  0  0  0  0  0  0  0  0  0
   23.5508   15.5836   62.9201 N   0  0  0  0  0  0  0  0  0  0  0  0
   25.1803   17.4345   62.9551 C   0  0  0  0  0  0  0  0  0  0  0  0
   26.5273   17.8132   62.3327 C   0  0  0  0  0  0  0  0  0  0  0  0
   26.4310   17.5859   60.9460 O   0  0  0  0  0  0  0  0  0  0  0  0
   23.0056   16.0531   62.1971 H   0  0  0  0  0  0  0  0  0  0  0  0
   23.2203   15.8770   63.8394 H   0  0  0  0  0  0  0  0  0  0  0  0
   25.2210   17.7136   64.4096 N   0  0  0  0  0  0  0  0  0  0  0  0
   24.1494   18.2048   65.0296 C   0  0  0  0  0  0  0  0  0  0  0  0
   23.1015   18.4893   64.4362 O   0  0  0  0  0  0  0  0  0  0  0  0
   24.2474   18.4491   66.5411 C   0  0  0  0  0  0  0  0  0  0  0  0
   26.0437   17.5351   64.9201 H   0  0  0  0  0  0  0  0  0  0  0  0
   26.5084   15.8744   59.2491 C   0  0  0  0  0  0  0  0  0  0  0  0
   26.6947   14.6556   59.0979 O   0  0  0  0  0  0  0  0  0  0  0  0
   26.6119   16.6709   58.2926 O   0  0  0  0  0  0  0  0  0  0  0  0
   26.4672   17.5867   58.4279 H   0  0  0  0  0  0  0  0  0  0  0  0
   26.8782   19.2843   62.5583 C   0  0  0  0  0  0  0  0  0  0  0  0
   26.8546   19.9754   61.3281 O   0  0  0  0  0  0  0  0  0  0  0  0
   27.5068   19.5851   60.7255 H   0  0  0  0  0  0  0  0  0  0  0  0
   28.2538   19.3962   63.1952 C   0  0  0  0  0  0  0  0  0  0  0  0
   28.6470   20.6394   62.7982 O   0  0  0  0  0  0  0  0  0  0  0  0
   28.6629   20.6794   61.8292 H   0  0  0  0  0  0  0  0  0  0  0  0
   29.2799   18.4153   62.6804 C   0  0  0  0  0  0  0  0  0  0  0  0
   29.5318   18.6095   61.3407 O   0  0  0  0  0  0  0  0  0  0  0  0
   28.7146   18.4760   60.8354 H   0  0  0  0  0  0  0  0  0  0  0  0
 15 16  2  0  0  0
 15 17  1  0  0  0
 15  1  1  0  0  0
  1  2  2  0  0  0
  1  7  1  0  0  0
  2  3  1  0  0  0
  3  4  1  0  0  0
  3  5  1  0  0  0
  5 10  1  0  0  0
  5  6  1  0  0  0
 10 11  1  0  0  0
 11 12  2  0  0  0
 11 13  1  0  0  0
  6  7  1  0  0  0
  6 19  1  0  0  0
 19 20  1  0  0  0
 19 22  1  0  0  0
 22 23  1  0  0  0
 22 25  1  0  0  0
 25 26  1  0  0  0
 17 18  1  0  0  0
  4  8  1  0  0  0
  4  9  1  0  0  0
 10 14  1  0  0  0
 20 21  1  0  0  0
 23 24  1  0  0  0
 26 27  1  0  0  0
M  END
> <minimizedAffinity>
-7.53654

$$$$
2QWD_4AM_A_800


 27 27  0  0  0  0  0  0  0  0999 V2000
   24.9331   16.1766   61.5533 C   0  0  0  0  0  0  0  0  0  0  0  0
   24.0192   16.2826   62.5765 C   0  0  0  0  0  0  0  0  0  0  0  0
   24.1053   17.3672   63.6554 C   0  0  0  0  0  0  0  0  0  0  0  0
   22.7677   17.9233   63.7900 N   0  0  0  0  0  0  0  0  0  0  0  0
   25.1219   18.4358   63.2631 C   0  0  0  0  0  0  0  0  0  0  0  0
   26.3600   17.7523   62.6757 C   0  0  0  0  0  0  0  0  0  0  0  0
   25.9655   17.1161   61.4826 O   0  0  0  0  0  0  0  0  0  0  0  0
   22.4652   18.3026   62.8928 H   0  0  0  0  0  0  0  0  0  0  0  0
   22.7775   18.6673   64.4878 H   0  0  0  0  0  0  0  0  0  0  0  0
   25.5072   19.1666   64.4930 N   0  0  0  0  0  0  0  0  0  0  0  0
   25.4603   20.4972   64.5263 C   0  0  0  0  0  0  0  0  0  0  0  0
   25.1427   21.1830   63.5464 O   0  0  0  0  0  0  0  0  0  0  0  0
   25.8484   21.1936   65.8371 C   0  0  0  0  0  0  0  0  0  0  0  0
   25.7993   18.6664   65.2891 H   0  0  0  0  0  0  0  0  0  0  0  0
   24.8765   15.1557   60.5961 C   0  0  0  0  0  0  0  0  0  0  0  0
   25.9199   14.9162   59.9661 O   0  0  0  0  0  0  0  0  0  0  0  0
   23.8488   14.4636   60.4378 O   0  0  0  0  0  0  0  0  0  0  0  0
   23.0718   14.6609   60.9228 H   0  0  0  0  0  0  0  0  0  0  0  0
   27.4724   18.7487   62.3472 C   0  0  0  0  0  0  0  0  0  0  0  0
   26.9918   19.7211   61.4443 O   0  0  0  0  0  0  0  0  0  0  0  0
   26.7053   19.2879   60.6250 H   0  0  0  0  0  0  0  0  0  0  0  0
   28.6609   18.0172   61.7449 C   0  0  0  0  0  0  0  0  0  0  0  0
   28.5462   16.7819   62.3093 O   0  0  0  0  0  0  0  0  0  0  0  0
   28.5880   16.8625   63.2751 H   0  0  0  0  0  0  0  0  0  0  0  0
   30.0137   18.5641   62.1334 C   0  0  0  0  0  0  0  0  0  0  0  0
   29.9411   19.9011   62.4548 O   0  0  0  0  0  0  0  0  0  0  0  0
   29.6289   20.4021   61.6851 H   0  0  0  0  0  0  0  0  0  0  0  0
 15 16  2  0  0  0
 15 17  1  0  0  0
 15  1  1  0  0  0
  1  2  2  0  0  0
  1  7  1  0  0  0
  2  3  1  0  0  0
  3  4  1  0  0  0
  3  5  1  0  0  0
  5 10  1  0  0  0
  5  6  1  0  0  0
 10 11  1  0  0  0
 11 12  2  0  0  0
 11 13  1  0  0  0
  6  7  1  0  0  0
  6 19  1  0  0  0
 19 20  1  0  0  0
 19 22  1  0  0  0
 22 23  1  0  0  0
 22 25  1  0  0  0
 25 26  1  0  0  0
 17 18  1  0  0  0
  4  8  1  0  0  0
  4  9  1  0  0  0
 10 14  1  0  0  0
 20 21  1  0  0  0
 23 24  1  0  0  0
 26 27  1  0  0  0
M  END
> <minimizedAffinity>
-7.51780

$$$$
2QWD_4AM_A_800


 27 27  0  0  0  0  0  0  0  0999 V2000
   25.1824   16.5012   61.5584 C   0  0  0  0  0  0  0  0  0  0  0  0
   24.3132   16.3066   62.6071 C   0  0  0  0  0  0  0  0  0  0  0  0
   24.2503   17.2456   63.8163 C   0  0  0  0  0  0  0  0  0  0  0  0
   22.8415   17.5211   64.0529 N   0  0  0  0  0  0  0  0  0  0  0  0
   25.0358   18.5255   63.5443 C   0  0  0  0  0  0  0  0  0  0  0  0
   26.3490   18.1635   62.8446 C   0  0  0  0  0  0  0  0  0  0  0  0
   26.0220   17.6182   61.5878 O   0  0  0  0  0  0  0  0  0  0  0  0
   22.4336   17.9458   63.2200 H   0  0  0  0  0  0  0  0  0  0  0  0
   22.7479   18.1612   64.8415 H   0  0  0  0  0  0  0  0  0  0  0  0
   25.3383   19.1567   64.8501 N   0  0  0  0  0  0  0  0  0  0  0  0
   24.5063   20.0578   65.3695 C   0  0  0  0  0  0  0  0  0  0  0  0
   23.4834   20.4414   64.7882 O   0  0  0  0  0  0  0  0  0  0  0  0
   24.8636   20.6566   66.7361 C   0  0  0  0  0  0  0  0  0  0  0  0
   26.1579   18.9090   65.3360 H   0  0  0  0  0  0  0  0  0  0  0  0
   25.2683   15.6148   60.4774 C   0  0  0  0  0  0  0  0  0  0  0  0
   26.1403   15.8499   59.6246 O   0  0  0  0  0  0  0  0  0  0  0  0
   24.5562   14.5907   60.4130 O   0  0  0  0  0  0  0  0  0  0  0  0
   23.9038   14.4318   61.0665 H   0  0  0  0  0  0  0  0  0  0  0  0
   27.2448   19.3831   62.6242 C   0  0  0  0  0  0  0  0  0  0  0  0
   27.1976   19.7720   61.2684 O   0  0  0  0  0  0  0  0  0  0  0  0
   27.5150   19.0437   60.7119 H   0  0  0  0  0  0  0  0  0  0  0  0
   28.6737   19.0545   63.0250 C   0  0  0  0  0  0  0  0  0  0  0  0
   28.4890   18.3717   64.1900 O   0  0  0  0  0  0  0  0  0  0  0  0
   28.0271   18.9387   64.8273 H   0  0  0  0  0  0  0  0  0  0  0  0
   29.5421   20.2495   63.3381 C   0  0  0  0  0  0  0  0  0  0  0  0
   29.2965   21.2896   62.4698 O   0  0  0  0  0  0  0  0  0  0  0  0
   29.4959   21.0079   61.5633 H   0  0  0  0  0  0  0  0  0  0  0  0
 15 16  2  0  0  0
 15 17  1  0  0  0
 15  1  1  0  0  0
  1  2  2  0  0  0
  1  7  1  0  0  0
  2  3  1  0  0  0
  3  4  1  0  0  0
  3  5  1  0  0  0
  5 10  1  0  0  0
  5  6  1  0  0  0
 10 11  1  0  0  0
 11 12  2  0  0  0
 11 13  1  0  0  0
  6  7  1  0  0  0
  6 19  1  0  0  0
 19 20  1  0  0  0
 19 22  1  0  0  0
 22 23  1  0  0  0
 22 25  1  0  0  0
 25 26  1  0  0  0
 17 18  1  0  0  0
  4  8  1  0  0  0
  4  9  1  0  0  0
 10 14  1  0  0  0
 20 21  1  0  0  0
 23 24  1  0  0  0
 26 27  1  0  0  0
M  END
> <minimizedAffinity>
-7.45988

$$$$
2QWD_4AM_A_800


 27 27  0  0  0  0  0  0  0  0999 V2000
   27.8599   19.2340   62.8644 C   0  0  0  0  0  0  0  0  0  0  0  0
   28.1119   18.4370   61.7714 C   0  0  0  0  0  0  0  0  0  0  0  0
   27.1739   17.3063   61.3365 C   0  0  0  0  0  0  0  0  0  0  0  0
   27.0007   17.4430   59.8984 N   0  0  0  0  0  0  0  0  0  0  0  0
   25.8414   17.3995   62.0748 C   0  0  0  0  0  0  0  0  0  0  0  0
   26.1101   17.7328   63.5451 C   0  0  0  0  0  0  0  0  0  0  0  0
   26.6844   19.0182   63.5890 O   0  0  0  0  0  0  0  0  0  0  0  0
   26.6112   18.3621   59.6887 H   0  0  0  0  0  0  0  0  0  0  0  0
   26.3651   16.7196   59.5622 H   0  0  0  0  0  0  0  0  0  0  0  0
   25.1830   16.0751   61.9887 N   0  0  0  0  0  0  0  0  0  0  0  0
   24.2351   15.8538   61.0797 C   0  0  0  0  0  0  0  0  0  0  0  0
   23.8300   16.7295   60.3047 O   0  0  0  0  0  0  0  0  0  0  0  0
   23.6093   14.4541   61.0255 C   0  0  0  0  0  0  0  0  0  0  0  0
   25.4474   15.3553   62.6062 H   0  0  0  0  0  0  0  0  0  0  0  0
   28.7433   20.2362   63.2851 C   0  0  0  0  0  0  0  0  0  0  0  0
   29.4226   19.9990   64.2976 O   0  0  0  0  0  0  0  0  0  0  0  0
   28.9006   21.2872   62.6289 O   0  0  0  0  0  0  0  0  0  0  0  0
   28.3778   21.4472   61.8679 H   0  0  0  0  0  0  0  0  0  0  0  0
   24.8296   17.7466   64.3807 C   0  0  0  0  0  0  0  0  0  0  0  0
   23.7137   17.9540   63.5419 O   0  0  0  0  0  0  0  0  0  0  0  0
   23.8035   18.8074   63.0895 H   0  0  0  0  0  0  0  0  0  0  0  0
   24.9077   18.8446   65.4289 C   0  0  0  0  0  0  0  0  0  0  0  0
   25.5881   18.2254   66.4345 O   0  0  0  0  0  0  0  0  0  0  0  0
   25.0931   17.4439   66.7263 H   0  0  0  0  0  0  0  0  0  0  0  0
   23.5788   19.2878   65.9927 C   0  0  0  0  0  0  0  0  0  0  0  0
   22.8591   20.0134   65.0700 O   0  0  0  0  0  0  0  0  0  0  0  0
   23.3570   20.8089   64.8248 H   0  0  0  0  0  0  0  0  0  0  0  0
 15 16  2  0  0  0
 15 17  1  0  0  0
 15  1  1  0  0  0
  1  2  2  0  0  0
  1  7  1  0  0  0
  2  3  1  0  0  0
  3  4  1  0  0  0
  3  5  1  0  0  0
  5 10  1  0  0  0
  5  6  1  0  0  0
 10 11  1  0  0  0
 11 12  2  0  0  0
 11 13  1  0  0  0
  6  7  1  0  0  0
  6 19  1  0  0  0
 19 20  1  0  0  0
 19 22  1  0  0  0
 22 23  1  0  0  0
 22 25  1  0  0  0
 25 26  1  0  0  0
 17 18  1  0  0  0
  4  8  1  0  0  0
  4  9  1  0  0  0
 10 14  1  0  0  0
 20 21  1  0  0  0
 23 24  1  0  0  0
 26 27  1  0  0  0
M  END
> <minimizedAffinity>
-7.28283

$$$$
2QWD_4AM_A_800


 27 27  0  0  0  0  0  0  0  0999 V2000
   29.0852   17.5293   62.2082 C   0  0  0  0  0  0  0  0  0  0  0  0
   29.1078   16.1629   62.0485 C   0  0  0  0  0  0  0  0  0  0  0  0
   27.8424   15.3008   62.1066 C   0  0  0  0  0  0  0  0  0  0  0  0
   27.9060   14.3962   60.9689 N   0  0  0  0  0  0  0  0  0  0  0  0
   26.5932   16.1762   62.0601 C   0  0  0  0  0  0  0  0  0  0  0  0
   26.8065   17.3952   62.9621 C   0  0  0  0  0  0  0  0  0  0  0  0
   27.8515   18.1566   62.4035 O   0  0  0  0  0  0  0  0  0  0  0  0
   27.9577   14.9380   60.1062 H   0  0  0  0  0  0  0  0  0  0  0  0
   27.0710   13.8107   60.9530 H   0  0  0  0  0  0  0  0  0  0  0  0
   25.4607   15.3765   62.5828 N   0  0  0  0  0  0  0  0  0  0  0  0
   24.6555   14.7249   61.7456 C   0  0  0  0  0  0  0  0  0  0  0  0
   24.7766   14.7826   60.5154 O   0  0  0  0  0  0  0  0  0  0  0  0
   23.5159   13.8947   62.3506 C   0  0  0  0  0  0  0  0  0  0  0  0
   25.3028   15.3266   63.5532 H   0  0  0  0  0  0  0  0  0  0  0  0
   30.2496   18.3076   62.2002 C   0  0  0  0  0  0  0  0  0  0  0  0
   30.1150   19.5242   62.4118 O   0  0  0  0  0  0  0  0  0  0  0  0
   31.3797   17.7927   62.0666 O   0  0  0  0  0  0  0  0  0  0  0  0
   31.4596   16.8728   61.9076 H   0  0  0  0  0  0  0  0  0  0  0  0
   25.5603   18.2767   63.0513 C   0  0  0  0  0  0  0  0  0  0  0  0
   25.7883   19.4962   62.3785 O   0  0  0  0  0  0  0  0  0  0  0  0
   26.5323   19.9602   62.7933 H   0  0  0  0  0  0  0  0  0  0  0  0
   25.2156   18.5394   64.5082 C   0  0  0  0  0  0  0  0  0  0  0  0
   26.0589   17.6860   65.1548 O   0  0  0  0  0  0  0  0  0  0  0  0
   25.8788   16.7762   64.8706 H   0  0  0  0  0  0  0  0  0  0  0  0
   23.8079   18.1694   64.9102 C   0  0  0  0  0  0  0  0  0  0  0  0
   23.2451   17.2887   64.0138 O   0  0  0  0  0  0  0  0  0  0  0  0
   23.2040   17.7018   63.1371 H   0  0  0  0  0  0  0  0  0  0  0  0
 15 16  2  0  0  0
 15 17  1  0  0  0
 15  1  1  0  0  0
  1  2  2  0  0  0
  1  7  1  0  0  0
  2  3  1  0  0  0
  3  4  1  0  0  0
  3  5  1  0  0  0
  5 10  1  0  0  0
  5  6  1  0  0  0
 10 11  1  0  0  0
 11 12  2  0  0  0
 11 13  1  0  0  0
  6  7  1  0  0  0
  6 19  1  0  0  0
 19 20  1  0  0  0
 19 22  1  0  0  0
 22 23  1  0  0  0
 22 25  1  0  0  0
 25 26  1  0  0  0
 17 18  1  0  0  0
  4  8  1  0  0  0
  4  9  1  0  0  0
 10 14  1  0  0  0
 20 21  1  0  0  0
 23 24  1  0  0  0
 26 27  1  0  0  0
M  END
> <minimizedAffinity>
-7.18879

$$$$
2QWD_4AM_A_800


 27 27  0  0  0  0  0  0  0  0999 V2000
   24.7724   18.0153   64.1355 C   0  0  0  0  0  0  0  0  0  0  0  0
   25.8257   18.7807   64.5803 C   0  0  0  0  0  0  0  0  0  0  0  0
   27.2808   18.4897   64.1985 C   0  0  0  0  0  0  0  0  0  0  0  0
   27.8682   19.7623   63.8082 N   0  0  0  0  0  0  0  0  0  0  0  0
   27.3453   17.4693   63.0654 C   0  0  0  0  0  0  0  0  0  0  0  0
   26.3228   16.3617   63.3351 C   0  0  0  0  0  0  0  0  0  0  0  0
   25.0423   16.9454   63.2775 O   0  0  0  0  0  0  0  0  0  0  0  0
   27.3415   20.1547   63.0278 H   0  0  0  0  0  0  0  0  0  0  0  0
   28.8373   19.6169   63.5254 H   0  0  0  0  0  0  0  0  0  0  0  0
   28.7064   16.8842   63.0607 N   0  0  0  0  0  0  0  0  0  0  0  0
   29.6555   17.3970   62.2795 C   0  0  0  0  0  0  0  0  0  0  0  0
   29.4501   18.3379   61.5023 O   0  0  0  0  0  0  0  0  0  0  0  0
   31.0507   16.7616   62.3384 C   0  0  0  0  0  0  0  0  0  0  0  0
   28.9103   16.1128   63.6375 H   0  0  0  0  0  0  0  0  0  0  0  0
   23.4488   18.2575   64.5243 C   0  0  0  0  0  0  0  0  0  0  0  0
   23.2789   18.9033   65.5716 O   0  0  0  0  0  0  0  0  0  0  0  0
   22.4837   17.9107   63.8112 O   0  0  0  0  0  0  0  0  0  0  0  0
   22.6333   17.4239   63.0248 H   0  0  0  0  0  0  0  0  0  0  0  0
   26.3912   15.2426   62.2954 C   0  0  0  0  0  0  0  0  0  0  0  0
   27.5172   14.4285   62.5428 O   0  0  0  0  0  0  0  0  0  0  0  0
   28.3233   14.9645   62.4818 H   0  0  0  0  0  0  0  0  0  0  0  0
   26.4725   15.8380   60.8991 C   0  0  0  0  0  0  0  0  0  0  0  0
   25.1669   16.1336   60.6432 O   0  0  0  0  0  0  0  0  0  0  0  0
   24.6366   15.3227   60.6897 H   0  0  0  0  0  0  0  0  0  0  0  0
   26.9364   14.8860   59.8228 C   0  0  0  0  0  0  0  0  0  0  0  0
   26.3425   13.6508   59.9554 O   0  0  0  0  0  0  0  0  0  0  0  0
   26.5822   13.2673   60.8135 H   0  0  0  0  0  0  0  0  0  0  0  0
 15 16  2  0  0  0
 15 17  1  0  0  0
 15  1  1  0  0  0
  1  2  2  0  0  0
  1  7  1  0  0  0
  2  3  1  0  0  0
  3  4  1  0  0  0
  3  5  1  0  0  0
  5 10  1  0  0  0
  5  6  1  0  0  0
 10 11  1  0  0  0
 11 12  2  0  0  0
 11 13  1  0  0  0
  6  7  1  0  0  0
  6 19  1  0  0  0
 19 20  1  0  0  0
 19 22  1  0  0  0
 22 23  1  0  0  0
 22 25  1  0  0  0
 25 26  1  0  0  0
 17 18  1  0  0  0
  4  8  1  0  0  0
  4  9  1  0  0  0
 10 14  1  0  0  0
 20 21  1  0  0  0
 23 24  1  0  0  0
 26 27  1  0  0  0
M  END
> <minimizedAffinity>
-6.85179

$$$$
2QWD_4AM_A_800


 27 27  0  0  0  0  0  0  0  0999 V2000
   24.3212   17.1095   62.6742 C   0  0  0  0  0  0  0  0  0  0  0  0
   23.4526   17.5144   63.6615 C   0  0  0  0  0  0  0  0  0  0  0  0
   23.8740   18.4402   64.8074 C   0  0  0  0  0  0  0  0  0  0  0  0
   22.8403   19.4579   64.9180 N   0  0  0  0  0  0  0  0  0  0  0  0
   25.2417   19.0559   64.5256 C   0  0  0  0  0  0  0  0  0  0  0  0
   26.1639   17.9766   63.9514 C   0  0  0  0  0  0  0  0  0  0  0  0
   25.6344   17.5870   62.7058 O   0  0  0  0  0  0  0  0  0  0  0  0
   22.7610   19.9596   64.0334 H   0  0  0  0  0  0  0  0  0  0  0  0
   23.0864   20.1134   65.6597 H   0  0  0  0  0  0  0  0  0  0  0  0
   25.7962   19.5348   65.8133 N   0  0  0  0  0  0  0  0  0  0  0  0
   25.7138   20.8227   66.1427 C   0  0  0  0  0  0  0  0  0  0  0  0
   25.2222   21.6773   65.3948 O   0  0  0  0  0  0  0  0  0  0  0  0
   26.2851   21.2512   67.5006 C   0  0  0  0  0  0  0  0  0  0  0  0
   26.2274   18.8983   66.4282 H   0  0  0  0  0  0  0  0  0  0  0  0
   23.9435   16.2265   61.6548 C   0  0  0  0  0  0  0  0  0  0  0  0
   23.6097   15.0803   61.9979 O   0  0  0  0  0  0  0  0  0  0  0  0
   23.8680   16.5959   60.4640 O   0  0  0  0  0  0  0  0  0  0  0  0
   24.1248   17.4650   60.2259 H   0  0  0  0  0  0  0  0  0  0  0  0
   27.5888   18.4865   63.7329 C   0  0  0  0  0  0  0  0  0  0  0  0
   28.2750   18.5306   64.9654 O   0  0  0  0  0  0  0  0  0  0  0  0
   27.8145   19.1329   65.5704 H   0  0  0  0  0  0  0  0  0  0  0  0
   27.5524   19.8701   63.1044 C   0  0  0  0  0  0  0  0  0  0  0  0
   27.4151   19.5741   61.7811 O   0  0  0  0  0  0  0  0  0  0  0  0
   28.1672   19.0349   61.4906 H   0  0  0  0  0  0  0  0  0  0  0  0
   28.8208   20.6756   63.2547 C   0  0  0  0  0  0  0  0  0  0  0  0
   29.8692   20.0914   62.5798 O   0  0  0  0  0  0  0  0  0  0  0  0
   30.0349   19.2073   62.9429 H   0  0  0  0  0  0  0  0  0  0  0  0
 15 16  2  0  0  0
 15 17  1  0  0  0
 15  1  1  0  0  0
  1  2  2  0  0  0
  1  7  1  0  0  0
  2  3  1  0  0  0
  3  4  1  0  0  0
  3  5  1  0  0  0
  5 10  1  0  0  0
  5  6  1  0  0  0
 10 11  1  0  0  0
 11 12  2  0  0  0
 11 13  1  0  0  0
  6  7  1  0  0  0
  6 19  1  0  0  0
 19 20  1  0  0  0
 19 22  1  0  0  0
 22 23  1  0  0  0
 22 25  1  0  0  0
 25 26  1  0  0  0
 17 18  1  0  0  0
  4  8  1  0  0  0
  4  9  1  0  0  0
 10 14  1  0  0  0
 20 21  1  0  0  0
 23 24  1  0  0  0
 26 27  1  0  0  0
M  END
> <minimizedAffinity>
-6.64677

$$$$
2QWD_4AM_A_800


 27 27  0  0  0  0  0  0  0  0999 V2000
   24.4226   18.9909   65.0792 C   0  0  0  0  0  0  0  0  0  0  0  0
   25.6591   19.1536   65.6604 C   0  0  0  0  0  0  0  0  0  0  0  0
   26.9364   18.5415   65.0760 C   0  0  0  0  0  0  0  0  0  0  0  0
   27.9411   19.5937   65.0858 N   0  0  0  0  0  0  0  0  0  0  0  0
   26.6843   18.0176   63.6649 C   0  0  0  0  0  0  0  0  0  0  0  0
   25.3330   17.2978   63.6359 C   0  0  0  0  0  0  0  0  0  0  0  0
   24.3362   18.2596   63.8913 O   0  0  0  0  0  0  0  0  0  0  0  0
   27.6107   20.3844   64.5326 H   0  0  0  0  0  0  0  0  0  0  0  0
   28.8096   19.2384   64.6861 H   0  0  0  0  0  0  0  0  0  0  0  0
   27.7584   17.0491   63.3434 N   0  0  0  0  0  0  0  0  0  0  0  0
   28.8072   17.4264   62.6143 C   0  0  0  0  0  0  0  0  0  0  0  0
   28.9214   18.5637   62.1400 O   0  0  0  0  0  0  0  0  0  0  0  0
   29.8973   16.3832   62.3365 C   0  0  0  0  0  0  0  0  0  0  0  0
   27.6966   16.1224   63.6701 H   0  0  0  0  0  0  0  0  0  0  0  0
   23.2515   19.5137   65.6422 C   0  0  0  0  0  0  0  0  0  0  0  0
   22.4185   19.9992   64.8590 O   0  0  0  0  0  0  0  0  0  0  0  0
   23.0177   19.4248   66.8659 O   0  0  0  0  0  0  0  0  0  0  0  0
   23.6595   19.0553   67.4399 H   0  0  0  0  0  0  0  0  0  0  0  0
   25.0471   16.6539   62.2787 C   0  0  0  0  0  0  0  0  0  0  0  0
   23.7725   17.0504   61.8206 O   0  0  0  0  0  0  0  0  0  0  0  0
   23.0970   16.7620   62.4543 H   0  0  0  0  0  0  0  0  0  0  0  0
   25.1120   15.1402   62.4004 C   0  0  0  0  0  0  0  0  0  0  0  0
   26.1491   14.8356   61.5701 O   0  0  0  0  0  0  0  0  0  0  0  0
   25.9469   15.1452   60.6733 H   0  0  0  0  0  0  0  0  0  0  0  0
   23.8969   14.4037   61.8893 C   0  0  0  0  0  0  0  0  0  0  0  0
   23.0966   13.9765   62.9252 O   0  0  0  0  0  0  0  0  0  0  0  0
   23.5967   13.3668   63.4900 H   0  0  0  0  0  0  0  0  0  0  0  0
 15 16  2  0  0  0
 15 17  1  0  0  0
 15  1  1  0  0  0
  1  2  2  0  0  0
  1  7  1  0  0  0
  2  3  1  0  0  0
  3  4  1  0  0  0
  3  5  1  0  0  0
  5 10  1  0  0  0
  5  6  1  0  0  0
 10 11  1  0  0  0
 11 12  2  0  0  0
 11 13  1  0  0  0
  6  7  1  0  0  0
  6 19  1  0  0  0
 19 20  1  0  0  0
 19 22  1  0  0  0
 22 23  1  0  0  0
 22 25  1  0  0  0
 25 26  1  0  0  0
 17 18  1  0  0  0
  4  8  1  0  0  0
  4  9  1  0  0  0
 10 14  1  0  0  0
 20 21  1  0  0  0
 23 24  1  0  0  0
 26 27  1  0  0  0
M  END
> <minimizedAffinity>
-6.64396

$$$$
2QWD_4AM_A_800


 27 27  0  0  0  0  0  0  0  0999 V2000
   26.7352   19.9930   63.7590 C   0  0  0  0  0  0  0  0  0  0  0  0
   27.9834   19.7239   63.2463 C   0  0  0  0  0  0  0  0  0  0  0  0
   28.3372   18.3875   62.5855 C   0  0  0  0  0  0  0  0  0  0  0  0
   29.0365   18.7092   61.3509 N   0  0  0  0  0  0  0  0  0  0  0  0
   27.0770   17.5684   62.3211 C   0  0  0  0  0  0  0  0  0  0  0  0
   26.1529   17.6712   63.5379 C   0  0  0  0  0  0  0  0  0  0  0  0
   25.7435   19.0146   63.6455 O   0  0  0  0  0  0  0  0  0  0  0  0
   28.4337   19.2791   60.7573 H   0  0  0  0  0  0  0  0  0  0  0  0
   29.2778   17.8470   60.8622 H   0  0  0  0  0  0  0  0  0  0  0  0
   27.4855   16.1560   62.1386 N   0  0  0  0  0  0  0  0  0  0  0  0
   27.5771   15.6357   60.9159 C   0  0  0  0  0  0  0  0  0  0  0  0
   27.2926   16.2708   59.8926 O   0  0  0  0  0  0  0  0  0  0  0  0
   28.0289   14.1748   60.7926 C   0  0  0  0  0  0  0  0  0  0  0  0
   27.6903   15.5995   62.9245 H   0  0  0  0  0  0  0  0  0  0  0  0
   26.4298   21.1986   64.4031 C   0  0  0  0  0  0  0  0  0  0  0  0
   25.4093   21.2158   65.1111 O   0  0  0  0  0  0  0  0  0  0  0  0
   27.1895   22.1876   64.3347 O   0  0  0  0  0  0  0  0  0  0  0  0
   27.9545   22.1543   63.7946 H   0  0  0  0  0  0  0  0  0  0  0  0
   24.9070   16.7960   63.3965 C   0  0  0  0  0  0  0  0  0  0  0  0
   25.2859   15.4704   63.0950 O   0  0  0  0  0  0  0  0  0  0  0  0
   25.7767   15.4567   62.2584 H   0  0  0  0  0  0  0  0  0  0  0  0
   24.0100   17.3463   62.2996 C   0  0  0  0  0  0  0  0  0  0  0  0
   22.8493   17.5776   62.9754 O   0  0  0  0  0  0  0  0  0  0  0  0
   22.5281   16.7471   63.3601 H   0  0  0  0  0  0  0  0  0  0  0  0
   23.6947   16.3785   61.1842 C   0  0  0  0  0  0  0  0  0  0  0  0
   24.5100   16.5862   60.0942 O   0  0  0  0  0  0  0  0  0  0  0  0
   24.3732   17.4845   59.7546 H   0  0  0  0  0  0  0  0  0  0  0  0
 15 16  2  0  0  0
 15 17  1  0  0  0
 15  1  1  0  0  0
  1  2  2  0  0  0
  1  7  1  0  0  0
  2  3  1  0  0  0
  3  4  1  0  0  0
  3  5  1  0  0  0
  5 10  1  0  0  0
  5  6  1  0  0  0
 10 11  1  0  0  0
 11 12  2  0  0  0
 11 13  1  0  0  0
  6  7  1  0  0  0
  6 19  1  0  0  0
 19 20  1  0  0  0
 19 22  1  0  0  0
 22 23  1  0  0  0
 22 25  1  0  0  0
 25 26  1  0  0  0
 17 18  1  0  0  0
  4  8  1  0  0  0
  4  9  1  0  0  0
 10 14  1  0  0  0
 20 21  1  0  0  0
 23 24  1  0  0  0
 26 27  1  0  0  0
M  END
> <minimizedAffinity>
-6.49635

$$$$
2QWD_4AM_A_800


 27 27  0  0  0  0  0  0  0  0999 V2000
   29.2281   18.1139   62.7030 C   0  0  0  0  0  0  0  0  0  0  0  0
   29.0318   19.0970   63.6454 C   0  0  0  0  0  0  0  0  0  0  0  0
   27.6508   19.4313   64.2187 C   0  0  0  0  0  0  0  0  0  0  0  0
   27.8137   19.5243   65.6615 N   0  0  0  0  0  0  0  0  0  0  0  0
   26.6356   18.3582   63.8353 C   0  0  0  0  0  0  0  0  0  0  0  0
   26.8518   17.9704   62.3697 C   0  0  0  0  0  0  0  0  0  0  0  0
   28.1235   17.3728   62.2738 O   0  0  0  0  0  0  0  0  0  0  0  0
   28.1706   18.6391   66.0211 H   0  0  0  0  0  0  0  0  0  0  0  0
   26.9122   19.7279   66.0930 H   0  0  0  0  0  0  0  0  0  0  0  0
   25.2820   18.9403   63.9899 N   0  0  0  0  0  0  0  0  0  0  0  0
   24.5900   18.7434   65.1107 C   0  0  0  0  0  0  0  0  0  0  0  0
   25.0075   18.0467   66.0444 O   0  0  0  0  0  0  0  0  0  0  0  0
   23.2043   19.3930   65.2188 C   0  0  0  0  0  0  0  0  0  0  0  0
   24.8923   19.4751   63.2609 H   0  0  0  0  0  0  0  0  0  0  0  0
   30.4853   17.8432   62.1481 C   0  0  0  0  0  0  0  0  0  0  0  0
   30.8093   16.6485   62.0441 O   0  0  0  0  0  0  0  0  0  0  0  0
   31.2146   18.7549   61.7043 O   0  0  0  0  0  0  0  0  0  0  0  0
   30.9519   19.6500   61.7929 H   0  0  0  0  0  0  0  0  0  0  0  0
   25.8082   16.9687   61.8742 C   0  0  0  0  0  0  0  0  0  0  0  0
   25.5444   16.0158   62.8812 O   0  0  0  0  0  0  0  0  0  0  0  0
   26.3610   15.5388   63.0969 H   0  0  0  0  0  0  0  0  0  0  0  0
   26.3111   16.2767   60.6177 C   0  0  0  0  0  0  0  0  0  0  0  0
   25.4863   16.7928   59.6633 O   0  0  0  0  0  0  0  0  0  0  0  0
   24.5656   16.5800   59.8822 H   0  0  0  0  0  0  0  0  0  0  0  0
   26.1362   14.7769   60.5987 C   0  0  0  0  0  0  0  0  0  0  0  0
   24.8308   14.4273   60.3347 O   0  0  0  0  0  0  0  0  0  0  0  0
   24.2539   14.7841   61.0281 H   0  0  0  0  0  0  0  0  0  0  0  0
 15 16  2  0  0  0
 15 17  1  0  0  0
 15  1  1  0  0  0
  1  2  2  0  0  0
  1  7  1  0  0  0
  2  3  1  0  0  0
  3  4  1  0  0  0
  3  5  1  0  0  0
  5 10  1  0  0  0
  5  6  1  0  0  0
 10 11  1  0  0  0
 11 12  2  0  0  0
 11 13  1  0  0  0
  6  7  1  0  0  0
  6 19  1  0  0  0
 19 20  1  0  0  0
 19 22  1  0  0  0
 22 23  1  0  0  0
 22 25  1  0  0  0
 25 26  1  0  0  0
 17 18  1  0  0  0
  4  8  1  0  0  0
  4  9  1  0  0  0
 10 14  1  0  0  0
 20 21  1  0  0  0
 23 24  1  0  0  0
 26 27  1  0  0  0
M  END
> <minimizedAffinity>
-6.37128

$$$$
