2I4U_DJR_A_300


 41 44  0  0  0  0  0  0  0  0999 V2000
   14.0413   22.3935   17.1654 C   0  0  0  0  0  0  0  0  0  0  0  0
   13.6442   20.1958   18.0451 C   0  0  0  0  0  0  0  0  0  0  0  0
   14.7570   19.7793   17.7460 O   0  0  0  0  0  0  0  0  0  0  0  0
   13.1911   21.4362   17.8145 N   0  0  0  0  0  0  0  0  0  0  0  0
   12.2801   21.6893   18.0889 H   0  0  0  0  0  0  0  0  0  0  0  0
   12.6701   19.4891   18.6341 O   0  0  0  0  0  0  0  0  0  0  0  0
   11.9821   17.4499   19.5323 C   0  0  0  0  0  0  0  0  0  0  0  0
   11.5418   18.7908   21.3458 O   0  0  0  0  0  0  0  0  0  0  0  0
   10.9209   17.7627   20.5536 C   0  0  0  0  0  0  0  0  0  0  0  0
    9.8813   18.2155   19.6749 O   0  0  0  0  0  0  0  0  0  0  0  0
    9.8861   17.3151   18.5708 C   0  0  0  0  0  0  0  0  0  0  0  0
   11.3624   17.1143   18.1835 C   0  0  0  0  0  0  0  0  0  0  0  0
   12.9279   18.8781   20.9587 C   0  0  0  0  0  0  0  0  0  0  0  0
   13.0950   18.4466   19.4954 C   0  0  0  0  0  0  0  0  0  0  0  0
   14.3744   23.4939   18.1872 C   0  0  0  0  0  0  0  0  0  0  0  0
   13.1869   24.1648   18.5814 O   0  0  0  0  0  0  0  0  0  0  0  0
   12.7717   24.5707   17.8044 H   0  0  0  0  0  0  0  0  0  0  0  0
   15.3154   24.4897   17.5627 C   0  0  0  0  0  0  0  0  0  0  0  0
   16.7141   24.0903   17.7200 N   0  0  0  0  0  0  0  0  0  0  0  0
   17.6218   23.8834   16.3101 S   0  0  0  0  0  0  0  0  0  0  0  0
   18.4557   22.6278   16.3785 O   0  0  0  0  0  0  0  0  0  0  0  0
   16.6571   23.6180   15.1800 O   0  0  0  0  0  0  0  0  0  0  0  0
   18.4688   25.3940   16.0429 C   0  0  0  0  0  0  0  0  0  0  0  0
   19.3389   25.9400   16.9984 C   0  0  0  0  0  0  0  0  0  0  0  0
   19.9694   27.1750   16.7422 C   0  0  0  0  0  0  0  0  0  0  0  0
   19.7284   27.8638   15.5308 C   0  0  0  0  0  0  0  0  0  0  0  0
   18.8592   27.3031   14.5882 C   0  0  0  0  0  0  0  0  0  0  0  0
   18.2327   26.0780   14.8402 C   0  0  0  0  0  0  0  0  0  0  0  0
   20.3370   29.1022   15.2544 O   0  0  0  0  0  0  0  0  0  0  0  0
   21.5401   29.0634   14.4677 C   0  0  0  0  0  0  0  0  0  0  0  0
   17.4168   24.2278   19.0097 C   0  0  0  0  0  0  0  0  0  0  0  0
   18.0586   22.8938   19.4657 C   0  0  0  0  0  0  0  0  0  0  0  0
   16.9465   21.8501   19.6654 C   0  0  0  0  0  0  0  0  0  0  0  0
   18.8170   23.0808   20.7936 C   0  0  0  0  0  0  0  0  0  0  0  0
   13.3345   22.9791   15.9154 C   0  0  0  0  0  0  0  0  0  0  0  0
   12.7805   21.8564   15.0425 C   0  0  0  0  0  0  0  0  0  0  0  0
   13.6612   21.0234   14.3360 C   0  0  0  0  0  0  0  0  0  0  0  0
   13.1471   19.9801   13.5317 C   0  0  0  0  0  0  0  0  0  0  0  0
   11.7526   19.7739   13.4388 C   0  0  0  0  0  0  0  0  0  0  0  0
   10.8727   20.6171   14.1499 C   0  0  0  0  0  0  0  0  0  0  0  0
   11.3856   21.6574   14.9512 C   0  0  0  0  0  0  0  0  0  0  0  0
  7 12  1  0  0  0
  7 14  1  0  0  0
  7  9  1  0  0  0
  8  9  1  0  0  0
  8 13  1  0  0  0
  9 10  1  0  0  0
 10 11  1  0  0  0
 11 12  1  0  0  0
 13 14  1  0  0  0
 14  6  1  0  0  0
  6  2  1  0  0  0
  2  4  1  0  0  0
  2  3  2  0  0  0
  4  1  1  0  0  0
  1 35  1  0  0  0
  1 15  1  0  0  0
 35 36  1  0  0  0
 36 37  2  0  0  0
 36 41  1  0  0  0
 37 38  1  0  0  0
 38 39  2  0  0  0
 39 40  1  0  0  0
 40 41  2  0  0  0
 15 18  1  0  0  0
 15 16  1  0  0  0
 18 19  1  0  0  0
 19 20  1  0  0  0
 19 31  1  0  0  0
 20 22  2  0  0  0
 20 23  1  0  0  0
 20 21  2  0  0  0
 23 28  2  0  0  0
 23 24  1  0  0  0
 24 25  2  0  0  0
 25 26  1  0  0  0
 26 29  1  0  0  0
 26 27  2  0  0  0
 29 30  1  0  0  0
 27 28  1  0  0  0
 31 32  1  0  0  0
 32 34  1  0  0  0
 32 33  1  0  0  0
  4  5  1  0  0  0
 16 17  1  0  0  0
M  END
> <minimizedAffinity>
-9.97149

$$$$
2I4U_DJR_A_300


 41 44  0  0  0  0  0  0  0  0999 V2000
   17.4821   24.5889   18.2649 C   0  0  0  0  0  0  0  0  0  0  0  0
   19.0070   25.3357   16.5683 C   0  0  0  0  0  0  0  0  0  0  0  0
   19.0211   24.2592   15.9833 O   0  0  0  0  0  0  0  0  0  0  0  0
   18.3028   25.6087   17.6759 N   0  0  0  0  0  0  0  0  0  0  0  0
   18.3483   26.5039   18.0831 H   0  0  0  0  0  0  0  0  0  0  0  0
   19.7047   26.4275   16.2271 O   0  0  0  0  0  0  0  0  0  0  0  0
   21.1995   27.2542   14.6396 C   0  0  0  0  0  0  0  0  0  0  0  0
   19.8563   29.1073   14.8452 O   0  0  0  0  0  0  0  0  0  0  0  0
   21.2492   28.7472   14.8278 C   0  0  0  0  0  0  0  0  0  0  0  0
   21.9069   28.7975   16.1016 O   0  0  0  0  0  0  0  0  0  0  0  0
   22.9448   27.8232   16.0417 C   0  0  0  0  0  0  0  0  0  0  0  0
   22.3228   26.5680   15.4034 C   0  0  0  0  0  0  0  0  0  0  0  0
   19.0902   27.9504   14.4532 C   0  0  0  0  0  0  0  0  0  0  0  0
   19.8395   26.6671   14.8366 C   0  0  0  0  0  0  0  0  0  0  0  0
   16.0202   24.8910   17.8941 C   0  0  0  0  0  0  0  0  0  0  0  0
   15.4592   25.7964   18.8329 O   0  0  0  0  0  0  0  0  0  0  0  0
   15.4852   25.4013   19.7184 H   0  0  0  0  0  0  0  0  0  0  0  0
   15.2245   23.6129   17.9105 C   0  0  0  0  0  0  0  0  0  0  0  0
   15.7678   22.6210   16.9822 N   0  0  0  0  0  0  0  0  0  0  0  0
   16.1300   21.0940   17.6079 S   0  0  0  0  0  0  0  0  0  0  0  0
   16.9498   20.2860   16.6323 O   0  0  0  0  0  0  0  0  0  0  0  0
   17.0544   21.2896   18.7849 O   0  0  0  0  0  0  0  0  0  0  0  0
   14.6088   20.4053   18.1389 C   0  0  0  0  0  0  0  0  0  0  0  0
   13.6441   19.9404   17.2326 C   0  0  0  0  0  0  0  0  0  0  0  0
   12.4241   19.4245   17.7164 C   0  0  0  0  0  0  0  0  0  0  0  0
   12.1693   19.3748   19.1065 C   0  0  0  0  0  0  0  0  0  0  0  0
   13.1440   19.8408   19.9961 C   0  0  0  0  0  0  0  0  0  0  0  0
   14.3549   20.3530   19.5184 C   0  0  0  0  0  0  0  0  0  0  0  0
   10.9566   18.8739   19.6153 O   0  0  0  0  0  0  0  0  0  0  0  0
   11.0455   17.7059   20.4494 C   0  0  0  0  0  0  0  0  0  0  0  0
   15.6557   22.7873   15.5208 C   0  0  0  0  0  0  0  0  0  0  0  0
   14.4095   22.0667   14.9488 C   0  0  0  0  0  0  0  0  0  0  0  0
   14.6351   21.7972   13.4513 C   0  0  0  0  0  0  0  0  0  0  0  0
   13.1509   22.9387   15.1188 C   0  0  0  0  0  0  0  0  0  0  0  0
   17.6804   24.5616   19.8028 C   0  0  0  0  0  0  0  0  0  0  0  0
   19.1489   24.7833   20.1540 C   0  0  0  0  0  0  0  0  0  0  0  0
   19.5107   25.8387   21.0047 C   0  0  0  0  0  0  0  0  0  0  0  0
   20.8711   26.0401   21.3338 C   0  0  0  0  0  0  0  0  0  0  0  0
   21.8646   25.1828   20.8104 C   0  0  0  0  0  0  0  0  0  0  0  0
   21.4940   24.1250   19.9533 C   0  0  0  0  0  0  0  0  0  0  0  0
   20.1376   23.9249   19.6252 C   0  0  0  0  0  0  0  0  0  0  0  0
  7 12  1  0  0  0
  7 14  1  0  0  0
  7  9  1  0  0  0
  8  9  1  0  0  0
  8 13  1  0  0  0
  9 10  1  0  0  0
 10 11  1  0  0  0
 11 12  1  0  0  0
 13 14  1  0  0  0
 14  6  1  0  0  0
  6  2  1  0  0  0
  2  4  1  0  0  0
  2  3  2  0  0  0
  4  1  1  0  0  0
  1 35  1  0  0  0
  1 15  1  0  0  0
 35 36  1  0  0  0
 36 37  2  0  0  0
 36 41  1  0  0  0
 37 38  1  0  0  0
 38 39  2  0  0  0
 39 40  1  0  0  0
 40 41  2  0  0  0
 15 18  1  0  0  0
 15 16  1  0  0  0
 18 19  1  0  0  0
 19 20  1  0  0  0
 19 31  1  0  0  0
 20 22  2  0  0  0
 20 23  1  0  0  0
 20 21  2  0  0  0
 23 28  2  0  0  0
 23 24  1  0  0  0
 24 25  2  0  0  0
 25 26  1  0  0  0
 26 29  1  0  0  0
 26 27  2  0  0  0
 29 30  1  0  0  0
 27 28  1  0  0  0
 31 32  1  0  0  0
 32 34  1  0  0  0
 32 33  1  0  0  0
  4  5  1  0  0  0
 16 17  1  0  0  0
M  END
> <minimizedAffinity>
-9.65730

$$$$
2I4U_DJR_A_300


 41 44  0  0  0  0  0  0  0  0999 V2000
   14.6221   21.7563   16.6160 C   0  0  0  0  0  0  0  0  0  0  0  0
   13.8760   19.9284   17.9813 C   0  0  0  0  0  0  0  0  0  0  0  0
   14.9216   19.3001   17.8655 O   0  0  0  0  0  0  0  0  0  0  0  0
   13.6206   21.1209   17.4247 N   0  0  0  0  0  0  0  0  0  0  0  0
   12.7507   21.5585   17.5697 H   0  0  0  0  0  0  0  0  0  0  0  0
   12.7913   19.5350   18.6623 O   0  0  0  0  0  0  0  0  0  0  0  0
   11.9102   17.5240   19.4481 C   0  0  0  0  0  0  0  0  0  0  0  0
   11.0625   18.9245   21.0607 O   0  0  0  0  0  0  0  0  0  0  0  0
   10.6411   17.8651   20.1831 C   0  0  0  0  0  0  0  0  0  0  0  0
    9.8350   18.2799   19.0714 O   0  0  0  0  0  0  0  0  0  0  0  0
   10.0949   17.3413   18.0314 C   0  0  0  0  0  0  0  0  0  0  0  0
   11.6205   17.1371   18.0051 C   0  0  0  0  0  0  0  0  0  0  0  0
   12.5008   19.0075   21.0034 C   0  0  0  0  0  0  0  0  0  0  0  0
   13.0027   18.5262   19.6353 C   0  0  0  0  0  0  0  0  0  0  0  0
   15.3693   22.7669   17.5028 C   0  0  0  0  0  0  0  0  0  0  0  0
   14.8944   24.0801   17.2468 O   0  0  0  0  0  0  0  0  0  0  0  0
   15.0477   24.3035   16.3154 H   0  0  0  0  0  0  0  0  0  0  0  0
   16.8423   22.7100   17.1961 C   0  0  0  0  0  0  0  0  0  0  0  0
   17.6028   23.6699   17.9967 N   0  0  0  0  0  0  0  0  0  0  0  0
   18.0736   23.1834   19.5447 S   0  0  0  0  0  0  0  0  0  0  0  0
   16.9066   23.2054   20.5010 O   0  0  0  0  0  0  0  0  0  0  0  0
   18.4546   21.7249   19.4696 O   0  0  0  0  0  0  0  0  0  0  0  0
   19.4705   24.1549   19.9632 C   0  0  0  0  0  0  0  0  0  0  0  0
   20.7425   23.9011   19.4286 C   0  0  0  0  0  0  0  0  0  0  0  0
   21.8371   24.6963   19.8256 C   0  0  0  0  0  0  0  0  0  0  0  0
   21.6592   25.7446   20.7581 C   0  0  0  0  0  0  0  0  0  0  0  0
   20.3829   25.9849   21.2793 C   0  0  0  0  0  0  0  0  0  0  0  0
   19.2955   25.1972   20.8869 C   0  0  0  0  0  0  0  0  0  0  0  0
   22.7363   26.5468   21.1784 O   0  0  0  0  0  0  0  0  0  0  0  0
   23.3005   26.2391   22.4649 C   0  0  0  0  0  0  0  0  0  0  0  0
   18.2611   24.8385   17.3827 C   0  0  0  0  0  0  0  0  0  0  0  0
   18.2868   24.7441   15.8368 C   0  0  0  0  0  0  0  0  0  0  0  0
   19.7214   25.0044   15.3469 C   0  0  0  0  0  0  0  0  0  0  0  0
   17.3445   25.7905   15.2120 C   0  0  0  0  0  0  0  0  0  0  0  0
   13.9651   22.4530   15.3962 C   0  0  0  0  0  0  0  0  0  0  0  0
   12.9555   21.5214   14.7314 C   0  0  0  0  0  0  0  0  0  0  0  0
   11.5813   21.7446   14.9052 C   0  0  0  0  0  0  0  0  0  0  0  0
   10.6465   20.8841   14.2845 C   0  0  0  0  0  0  0  0  0  0  0  0
   11.0915   19.8034   13.4907 C   0  0  0  0  0  0  0  0  0  0  0  0
   12.4750   19.5833   13.3224 C   0  0  0  0  0  0  0  0  0  0  0  0
   13.4066   20.4412   13.9418 C   0  0  0  0  0  0  0  0  0  0  0  0
  7 12  1  0  0  0
  7 14  1  0  0  0
  7  9  1  0  0  0
  8  9  1  0  0  0
  8 13  1  0  0  0
  9 10  1  0  0  0
 10 11  1  0  0  0
 11 12  1  0  0  0
 13 14  1  0  0  0
 14  6  1  0  0  0
  6  2  1  0  0  0
  2  4  1  0  0  0
  2  3  2  0  0  0
  4  1  1  0  0  0
  1 35  1  0  0  0
  1 15  1  0  0  0
 35 36  1  0  0  0
 36 37  2  0  0  0
 36 41  1  0  0  0
 37 38  1  0  0  0
 38 39  2  0  0  0
 39 40  1  0  0  0
 40 41  2  0  0  0
 15 18  1  0  0  0
 15 16  1  0  0  0
 18 19  1  0  0  0
 19 20  1  0  0  0
 19 31  1  0  0  0
 20 22  2  0  0  0
 20 23  1  0  0  0
 20 21  2  0  0  0
 23 28  2  0  0  0
 23 24  1  0  0  0
 24 25  2  0  0  0
 25 26  1  0  0  0
 26 29  1  0  0  0
 26 27  2  0  0  0
 29 30  1  0  0  0
 27 28  1  0  0  0
 31 32  1  0  0  0
 32 34  1  0  0  0
 32 33  1  0  0  0
  4  5  1  0  0  0
 16 17  1  0  0  0
M  END
> <minimizedAffinity>
-9.27836

$$$$
2I4U_DJR_A_300


 41 44  0  0  0  0  0  0  0  0999 V2000
   17.4181   23.4215   17.3990 C   0  0  0  0  0  0  0  0  0  0  0  0
   18.1863   24.6758   19.2959 C   0  0  0  0  0  0  0  0  0  0  0  0
   17.0565   24.9249   19.6995 O   0  0  0  0  0  0  0  0  0  0  0  0
   18.4799   23.9611   18.2004 N   0  0  0  0  0  0  0  0  0  0  0  0
   19.4186   23.8072   17.9468 H   0  0  0  0  0  0  0  0  0  0  0  0
   19.3320   25.0864   19.8563 O   0  0  0  0  0  0  0  0  0  0  0  0
   21.5418   25.8286   19.7925 C   0  0  0  0  0  0  0  0  0  0  0  0
   20.5191   27.7238   18.9907 O   0  0  0  0  0  0  0  0  0  0  0  0
   21.5015   27.3240   19.9630 C   0  0  0  0  0  0  0  0  0  0  0  0
   21.0677   27.3889   21.3288 O   0  0  0  0  0  0  0  0  0  0  0  0
   21.8057   26.3844   22.0190 C   0  0  0  0  0  0  0  0  0  0  0  0
   21.7690   25.1311   21.1258 C   0  0  0  0  0  0  0  0  0  0  0  0
   20.2104   26.5792   18.1700 C   0  0  0  0  0  0  0  0  0  0  0  0
   20.4192   25.2857   18.9689 C   0  0  0  0  0  0  0  0  0  0  0  0
   16.9763   22.0941   18.0380 C   0  0  0  0  0  0  0  0  0  0  0  0
   18.0488   21.5325   18.7796 O   0  0  0  0  0  0  0  0  0  0  0  0
   18.7981   21.3637   18.1871 H   0  0  0  0  0  0  0  0  0  0  0  0
   16.5696   21.1281   16.9569 C   0  0  0  0  0  0  0  0  0  0  0  0
   15.1150   21.0296   16.8335 N   0  0  0  0  0  0  0  0  0  0  0  0
   14.3862   21.8909   15.5758 S   0  0  0  0  0  0  0  0  0  0  0  0
   14.1136   23.3189   15.9800 O   0  0  0  0  0  0  0  0  0  0  0  0
   15.3963   22.0152   14.4612 O   0  0  0  0  0  0  0  0  0  0  0  0
   13.0172   20.9319   15.0501 C   0  0  0  0  0  0  0  0  0  0  0  0
   13.0713   20.1181   13.9086 C   0  0  0  0  0  0  0  0  0  0  0  0
   11.9282   19.3922   13.5150 C   0  0  0  0  0  0  0  0  0  0  0  0
   10.7312   19.4815   14.2627 C   0  0  0  0  0  0  0  0  0  0  0  0
   10.6961   20.2965   15.3999 C   0  0  0  0  0  0  0  0  0  0  0  0
   11.8289   21.0174   15.7923 C   0  0  0  0  0  0  0  0  0  0  0  0
    9.5736   18.7754   13.8864 O   0  0  0  0  0  0  0  0  0  0  0  0
    9.7735   17.4546   13.3539 C   0  0  0  0  0  0  0  0  0  0  0  0
   14.3535   19.9577   17.5020 C   0  0  0  0  0  0  0  0  0  0  0  0
   14.1081   20.2678   18.9998 C   0  0  0  0  0  0  0  0  0  0  0  0
   13.0218   19.3180   19.5324 C   0  0  0  0  0  0  0  0  0  0  0  0
   13.6381   21.7233   19.1842 C   0  0  0  0  0  0  0  0  0  0  0  0
   17.8995   23.2129   15.9396 C   0  0  0  0  0  0  0  0  0  0  0  0
   18.4609   24.5142   15.3733 C   0  0  0  0  0  0  0  0  0  0  0  0
   19.8365   24.6291   15.1219 C   0  0  0  0  0  0  0  0  0  0  0  0
   20.3550   25.8333   14.5923 C   0  0  0  0  0  0  0  0  0  0  0  0
   19.4936   26.9182   14.3151 C   0  0  0  0  0  0  0  0  0  0  0  0
   18.1116   26.7968   14.5728 C   0  0  0  0  0  0  0  0  0  0  0  0
   17.5952   25.5961   15.1013 C   0  0  0  0  0  0  0  0  0  0  0  0
  7 12  1  0  0  0
  7 14  1  0  0  0
  7  9  1  0  0  0
  8  9  1  0  0  0
  8 13  1  0  0  0
  9 10  1  0  0  0
 10 11  1  0  0  0
 11 12  1  0  0  0
 13 14  1  0  0  0
 14  6  1  0  0  0
  6  2  1  0  0  0
  2  4  1  0  0  0
  2  3  2  0  0  0
  4  1  1  0  0  0
  1 35  1  0  0  0
  1 15  1  0  0  0
 35 36  1  0  0  0
 36 37  2  0  0  0
 36 41  1  0  0  0
 37 38  1  0  0  0
 38 39  2  0  0  0
 39 40  1  0  0  0
 40 41  2  0  0  0
 15 18  1  0  0  0
 15 16  1  0  0  0
 18 19  1  0  0  0
 19 20  1  0  0  0
 19 31  1  0  0  0
 20 22  2  0  0  0
 20 23  1  0  0  0
 20 21  2  0  0  0
 23 28  2  0  0  0
 23 24  1  0  0  0
 24 25  2  0  0  0
 25 26  1  0  0  0
 26 29  1  0  0  0
 26 27  2  0  0  0
 29 30  1  0  0  0
 27 28  1  0  0  0
 31 32  1  0  0  0
 32 34  1  0  0  0
 32 33  1  0  0  0
  4  5  1  0  0  0
 16 17  1  0  0  0
M  END
> <minimizedAffinity>
-9.21630

$$$$
2I4U_DJR_A_300


 41 44  0  0  0  0  0  0  0  0999 V2000
   19.1067   25.8883   16.0165 C   0  0  0  0  0  0  0  0  0  0  0  0
   19.9615   26.8247   18.0547 C   0  0  0  0  0  0  0  0  0  0  0  0
   19.8923   27.9811   17.6555 O   0  0  0  0  0  0  0  0  0  0  0  0
   19.6105   25.7382   17.3523 N   0  0  0  0  0  0  0  0  0  0  0  0
   19.6979   24.8420   17.7504 H   0  0  0  0  0  0  0  0  0  0  0  0
   20.4186   26.4295   19.2506 O   0  0  0  0  0  0  0  0  0  0  0  0
   22.4963   26.6853   20.2781 C   0  0  0  0  0  0  0  0  0  0  0  0
   21.2247   26.3250   22.1580 O   0  0  0  0  0  0  0  0  0  0  0  0
   22.4517   25.8821   21.5509 C   0  0  0  0  0  0  0  0  0  0  0  0
   22.4116   24.5626   20.9897 O   0  0  0  0  0  0  0  0  0  0  0  0
   23.3471   24.5687   19.9151 C   0  0  0  0  0  0  0  0  0  0  0  0
   23.1088   25.8786   19.1423 C   0  0  0  0  0  0  0  0  0  0  0  0
   20.7415   27.4609   21.4129 C   0  0  0  0  0  0  0  0  0  0  0  0
   21.2094   27.3724   19.9540 C   0  0  0  0  0  0  0  0  0  0  0  0
   17.9476   24.8930   15.8378 C   0  0  0  0  0  0  0  0  0  0  0  0
   17.0077   25.4060   14.9055 O   0  0  0  0  0  0  0  0  0  0  0  0
   16.6536   26.2475   15.2331 H   0  0  0  0  0  0  0  0  0  0  0  0
   17.2601   24.6815   17.1605 C   0  0  0  0  0  0  0  0  0  0  0  0
   17.3471   23.2897   17.6032 N   0  0  0  0  0  0  0  0  0  0  0  0
   16.6504   22.1168   16.6064 S   0  0  0  0  0  0  0  0  0  0  0  0
   16.2450   22.7031   15.2765 O   0  0  0  0  0  0  0  0  0  0  0  0
   17.7270   21.1203   16.2514 O   0  0  0  0  0  0  0  0  0  0  0  0
   15.3973   21.3437   17.5564 C   0  0  0  0  0  0  0  0  0  0  0  0
   15.2443   19.9497   17.5954 C   0  0  0  0  0  0  0  0  0  0  0  0
   14.1979   19.3839   18.3527 C   0  0  0  0  0  0  0  0  0  0  0  0
   13.3043   20.2130   19.0698 C   0  0  0  0  0  0  0  0  0  0  0  0
   13.4735   21.6013   19.0213 C   0  0  0  0  0  0  0  0  0  0  0  0
   14.5108   22.1647   18.2707 C   0  0  0  0  0  0  0  0  0  0  0  0
   12.2461   19.6748   19.8253 O   0  0  0  0  0  0  0  0  0  0  0  0
   12.6129   18.8664   20.9567 C   0  0  0  0  0  0  0  0  0  0  0  0
   18.3042   22.8679   18.6434 C   0  0  0  0  0  0  0  0  0  0  0  0
   17.6792   22.9143   20.0600 C   0  0  0  0  0  0  0  0  0  0  0  0
   18.1301   24.2076   20.7599 C   0  0  0  0  0  0  0  0  0  0  0  0
   18.1367   21.7041   20.8964 C   0  0  0  0  0  0  0  0  0  0  0  0
   20.2355   25.6316   14.9846 C   0  0  0  0  0  0  0  0  0  0  0  0
   21.1673   26.8376   14.9041 C   0  0  0  0  0  0  0  0  0  0  0  0
   22.4110   26.8022   15.5524 C   0  0  0  0  0  0  0  0  0  0  0  0
   23.2759   27.9181   15.4729 C   0  0  0  0  0  0  0  0  0  0  0  0
   22.8925   29.0654   14.7431 C   0  0  0  0  0  0  0  0  0  0  0  0
   21.6391   29.0952   14.0958 C   0  0  0  0  0  0  0  0  0  0  0  0
   20.7770   27.9826   14.1757 C   0  0  0  0  0  0  0  0  0  0  0  0
  7 12  1  0  0  0
  7 14  1  0  0  0
  7  9  1  0  0  0
  8  9  1  0  0  0
  8 13  1  0  0  0
  9 10  1  0  0  0
 10 11  1  0  0  0
 11 12  1  0  0  0
 13 14  1  0  0  0
 14  6  1  0  0  0
  6  2  1  0  0  0
  2  4  1  0  0  0
  2  3  2  0  0  0
  4  1  1  0  0  0
  1 35  1  0  0  0
  1 15  1  0  0  0
 35 36  1  0  0  0
 36 37  2  0  0  0
 36 41  1  0  0  0
 37 38  1  0  0  0
 38 39  2  0  0  0
 39 40  1  0  0  0
 40 41  2  0  0  0
 15 18  1  0  0  0
 15 16  1  0  0  0
 18 19  1  0  0  0
 19 20  1  0  0  0
 19 31  1  0  0  0
 20 22  2  0  0  0
 20 23  1  0  0  0
 20 21  2  0  0  0
 23 28  2  0  0  0
 23 24  1  0  0  0
 24 25  2  0  0  0
 25 26  1  0  0  0
 26 29  1  0  0  0
 26 27  2  0  0  0
 29 30  1  0  0  0
 27 28  1  0  0  0
 31 32  1  0  0  0
 32 34  1  0  0  0
 32 33  1  0  0  0
  4  5  1  0  0  0
 16 17  1  0  0  0
M  END
> <minimizedAffinity>
-9.17590

$$$$
2I4U_DJR_A_300


 41 44  0  0  0  0  0  0  0  0999 V2000
   14.1532   22.5051   17.1730 C   0  0  0  0  0  0  0  0  0  0  0  0
   13.6199   20.3700   18.1316 C   0  0  0  0  0  0  0  0  0  0  0  0
   14.6451   19.8342   17.7276 O   0  0  0  0  0  0  0  0  0  0  0  0
   13.2790   21.6499   17.9248 N   0  0  0  0  0  0  0  0  0  0  0  0
   12.4336   22.0014   18.2866 H   0  0  0  0  0  0  0  0  0  0  0  0
   12.6435   19.7768   18.8314 O   0  0  0  0  0  0  0  0  0  0  0  0
   11.9929   17.5982   19.3501 C   0  0  0  0  0  0  0  0  0  0  0  0
   11.2315   18.6459   21.2483 O   0  0  0  0  0  0  0  0  0  0  0  0
   10.7909   17.7080   20.2502 C   0  0  0  0  0  0  0  0  0  0  0  0
    9.8422   18.2244   19.3062 O   0  0  0  0  0  0  0  0  0  0  0  0
   10.0513   17.4895   18.1036 C   0  0  0  0  0  0  0  0  0  0  0  0
   11.5754   17.4232   17.8972 C   0  0  0  0  0  0  0  0  0  0  0  0
   12.6460   18.8596   21.0681 C   0  0  0  0  0  0  0  0  0  0  0  0
   13.0281   18.6474   19.5969 C   0  0  0  0  0  0  0  0  0  0  0  0
   14.6148   23.6391   18.1041 C   0  0  0  0  0  0  0  0  0  0  0  0
   13.5146   24.4740   18.4331 O   0  0  0  0  0  0  0  0  0  0  0  0
   13.1482   24.8605   17.6224 H   0  0  0  0  0  0  0  0  0  0  0  0
   15.6645   24.4637   17.4075 C   0  0  0  0  0  0  0  0  0  0  0  0
   16.9960   24.2390   17.9708 N   0  0  0  0  0  0  0  0  0  0  0  0
   18.3215   24.6772   17.0191 S   0  0  0  0  0  0  0  0  0  0  0  0
   18.7279   23.5518   16.0998 O   0  0  0  0  0  0  0  0  0  0  0  0
   17.8691   25.7686   16.0797 O   0  0  0  0  0  0  0  0  0  0  0  0
   19.5382   25.2906   18.1209 C   0  0  0  0  0  0  0  0  0  0  0  0
   19.8042   26.6620   18.2494 C   0  0  0  0  0  0  0  0  0  0  0  0
   20.8169   27.0964   19.1293 C   0  0  0  0  0  0  0  0  0  0  0  0
   21.5637   26.1587   19.8795 C   0  0  0  0  0  0  0  0  0  0  0  0
   21.2831   24.7947   19.7404 C   0  0  0  0  0  0  0  0  0  0  0  0
   20.2789   24.3615   18.8681 C   0  0  0  0  0  0  0  0  0  0  0  0
   22.5860   26.5647   20.7573 O   0  0  0  0  0  0  0  0  0  0  0  0
   22.3531   26.3422   22.1588 C   0  0  0  0  0  0  0  0  0  0  0  0
   17.1960   24.0097   19.4142 C   0  0  0  0  0  0  0  0  0  0  0  0
   17.1454   22.5041   19.7749 C   0  0  0  0  0  0  0  0  0  0  0  0
   18.1234   22.2372   20.9316 C   0  0  0  0  0  0  0  0  0  0  0  0
   17.5502   21.6408   18.5648 C   0  0  0  0  0  0  0  0  0  0  0  0
   13.4181   23.0621   15.9263 C   0  0  0  0  0  0  0  0  0  0  0  0
   12.8630   21.9190   15.0810 C   0  0  0  0  0  0  0  0  0  0  0  0
   13.7432   21.0580   14.4085 C   0  0  0  0  0  0  0  0  0  0  0  0
   13.2281   19.9960   13.6298 C   0  0  0  0  0  0  0  0  0  0  0  0
   11.8328   19.7993   13.5283 C   0  0  0  0  0  0  0  0  0  0  0  0
   10.9532   20.6707   14.2051 C   0  0  0  0  0  0  0  0  0  0  0  0
   11.4673   21.7296   14.9810 C   0  0  0  0  0  0  0  0  0  0  0  0
  7 12  1  0  0  0
  7 14  1  0  0  0
  7  9  1  0  0  0
  8  9  1  0  0  0
  8 13  1  0  0  0
  9 10  1  0  0  0
 10 11  1  0  0  0
 11 12  1  0  0  0
 13 14  1  0  0  0
 14  6  1  0  0  0
  6  2  1  0  0  0
  2  4  1  0  0  0
  2  3  2  0  0  0
  4  1  1  0  0  0
  1 35  1  0  0  0
  1 15  1  0  0  0
 35 36  1  0  0  0
 36 37  2  0  0  0
 36 41  1  0  0  0
 37 38  1  0  0  0
 38 39  2  0  0  0
 39 40  1  0  0  0
 40 41  2  0  0  0
 15 18  1  0  0  0
 15 16  1  0  0  0
 18 19  1  0  0  0
 19 20  1  0  0  0
 19 31  1  0  0  0
 20 22  2  0  0  0
 20 23  1  0  0  0
 20 21  2  0  0  0
 23 28  2  0  0  0
 23 24  1  0  0  0
 24 25  2  0  0  0
 25 26  1  0  0  0
 26 29  1  0  0  0
 26 27  2  0  0  0
 29 30  1  0  0  0
 27 28  1  0  0  0
 31 32  1  0  0  0
 32 34  1  0  0  0
 32 33  1  0  0  0
  4  5  1  0  0  0
 16 17  1  0  0  0
M  END
> <minimizedAffinity>
-9.14079

$$$$
2I4U_DJR_A_300


 41 44  0  0  0  0  0  0  0  0999 V2000
   13.2313   20.3447   16.9569 C   0  0  0  0  0  0  0  0  0  0  0  0
   11.0971   19.8454   15.9784 C   0  0  0  0  0  0  0  0  0  0  0  0
   10.4698   20.1078   16.9977 O   0  0  0  0  0  0  0  0  0  0  0  0
   12.4285   19.9240   15.8437 N   0  0  0  0  0  0  0  0  0  0  0  0
   12.8535   19.6945   14.9858 H   0  0  0  0  0  0  0  0  0  0  0  0
   10.5767   19.4123   14.8221 O   0  0  0  0  0  0  0  0  0  0  0  0
   10.5386   17.9558   13.0013 C   0  0  0  0  0  0  0  0  0  0  0  0
    8.7127   17.1399   14.1329 O   0  0  0  0  0  0  0  0  0  0  0  0
    9.1040   17.5418   12.8080 C   0  0  0  0  0  0  0  0  0  0  0  0
    8.5602   18.7934   12.3659 O   0  0  0  0  0  0  0  0  0  0  0  0
    9.5138   19.3311   11.4540 C   0  0  0  0  0  0  0  0  0  0  0  0
   10.8942   19.1343   12.1065 C   0  0  0  0  0  0  0  0  0  0  0  0
    9.8962   17.0965   14.9552 C   0  0  0  0  0  0  0  0  0  0  0  0
   10.9369   18.0972   14.4347 C   0  0  0  0  0  0  0  0  0  0  0  0
   14.2832   21.3349   16.4290 C   0  0  0  0  0  0  0  0  0  0  0  0
   14.5511   21.0730   15.0595 O   0  0  0  0  0  0  0  0  0  0  0  0
   14.8916   20.1698   14.9637 H   0  0  0  0  0  0  0  0  0  0  0  0
   15.5575   21.1795   17.2159 C   0  0  0  0  0  0  0  0  0  0  0  0
   15.8404   22.3596   18.0332 N   0  0  0  0  0  0  0  0  0  0  0  0
   15.4087   23.8632   17.3947 S   0  0  0  0  0  0  0  0  0  0  0  0
   14.1110   23.7778   16.6296 O   0  0  0  0  0  0  0  0  0  0  0  0
   15.0885   24.7768   18.5528 O   0  0  0  0  0  0  0  0  0  0  0  0
   16.8128   24.4520   16.5274 C   0  0  0  0  0  0  0  0  0  0  0  0
   16.7757   25.6233   15.7562 C   0  0  0  0  0  0  0  0  0  0  0  0
   17.9280   26.0326   15.0540 C   0  0  0  0  0  0  0  0  0  0  0  0
   19.1167   25.2696   15.1228 C   0  0  0  0  0  0  0  0  0  0  0  0
   19.1362   24.1052   15.8989 C   0  0  0  0  0  0  0  0  0  0  0  0
   17.9942   23.6972   16.5963 C   0  0  0  0  0  0  0  0  0  0  0  0
   20.2774   25.6503   14.4243 O   0  0  0  0  0  0  0  0  0  0  0  0
   20.5780   27.0564   14.3994 C   0  0  0  0  0  0  0  0  0  0  0  0
   16.1251   22.2500   19.4764 C   0  0  0  0  0  0  0  0  0  0  0  0
   17.6000   22.5916   19.8042 C   0  0  0  0  0  0  0  0  0  0  0  0
   18.1601   21.5170   20.7516 C   0  0  0  0  0  0  0  0  0  0  0  0
   17.7005   23.9678   20.4893 C   0  0  0  0  0  0  0  0  0  0  0  0
   13.8988   19.1183   17.6316 C   0  0  0  0  0  0  0  0  0  0  0  0
   13.0739   18.6553   18.8293 C   0  0  0  0  0  0  0  0  0  0  0  0
   13.1280   19.3742   20.0329 C   0  0  0  0  0  0  0  0  0  0  0  0
   12.3592   18.9475   21.1404 C   0  0  0  0  0  0  0  0  0  0  0  0
   11.5378   17.8026   21.0381 C   0  0  0  0  0  0  0  0  0  0  0  0
   11.4902   17.0828   19.8254 C   0  0  0  0  0  0  0  0  0  0  0  0
   12.2572   17.5084   18.7217 C   0  0  0  0  0  0  0  0  0  0  0  0
  7 12  1  0  0  0
  7 14  1  0  0  0
  7  9  1  0  0  0
  8  9  1  0  0  0
  8 13  1  0  0  0
  9 10  1  0  0  0
 10 11  1  0  0  0
 11 12  1  0  0  0
 13 14  1  0  0  0
 14  6  1  0  0  0
  6  2  1  0  0  0
  2  4  1  0  0  0
  2  3  2  0  0  0
  4  1  1  0  0  0
  1 35  1  0  0  0
  1 15  1  0  0  0
 35 36  1  0  0  0
 36 37  2  0  0  0
 36 41  1  0  0  0
 37 38  1  0  0  0
 38 39  2  0  0  0
 39 40  1  0  0  0
 40 41  2  0  0  0
 15 18  1  0  0  0
 15 16  1  0  0  0
 18 19  1  0  0  0
 19 20  1  0  0  0
 19 31  1  0  0  0
 20 22  2  0  0  0
 20 23  1  0  0  0
 20 21  2  0  0  0
 23 28  2  0  0  0
 23 24  1  0  0  0
 24 25  2  0  0  0
 25 26  1  0  0  0
 26 29  1  0  0  0
 26 27  2  0  0  0
 29 30  1  0  0  0
 27 28  1  0  0  0
 31 32  1  0  0  0
 32 34  1  0  0  0
 32 33  1  0  0  0
  4  5  1  0  0  0
 16 17  1  0  0  0
M  END
> <minimizedAffinity>
-9.11369

$$$$
2I4U_DJR_A_300


 41 44  0  0  0  0  0  0  0  0999 V2000
   17.1623   23.4554   17.3672 C   0  0  0  0  0  0  0  0  0  0  0  0
   18.0768   24.6940   19.2087 C   0  0  0  0  0  0  0  0  0  0  0  0
   16.9822   24.9370   19.7029 O   0  0  0  0  0  0  0  0  0  0  0  0
   18.2834   23.9899   18.0868 N   0  0  0  0  0  0  0  0  0  0  0  0
   19.1993   23.8403   17.7582 H   0  0  0  0  0  0  0  0  0  0  0  0
   19.2627   25.1019   19.6803 O   0  0  0  0  0  0  0  0  0  0  0  0
   21.5014   25.7176   19.4628 C   0  0  0  0  0  0  0  0  0  0  0  0
   20.5372   27.7413   18.9571 O   0  0  0  0  0  0  0  0  0  0  0  0
   21.5790   27.1874   19.7805 C   0  0  0  0  0  0  0  0  0  0  0  0
   21.2839   27.1361   21.1833 O   0  0  0  0  0  0  0  0  0  0  0  0
   22.0149   26.0248   21.6939 C   0  0  0  0  0  0  0  0  0  0  0  0
   21.8077   24.8744   20.6920 C   0  0  0  0  0  0  0  0  0  0  0  0
   20.0742   26.7072   18.0654 C   0  0  0  0  0  0  0  0  0  0  0  0
   20.2707   25.3283   18.7098 C   0  0  0  0  0  0  0  0  0  0  0  0
   16.7859   22.1123   18.0155 C   0  0  0  0  0  0  0  0  0  0  0  0
   17.9027   21.5808   18.7126 O   0  0  0  0  0  0  0  0  0  0  0  0
   18.6336   21.4376   18.0910 H   0  0  0  0  0  0  0  0  0  0  0  0
   16.3677   21.1389   16.9456 C   0  0  0  0  0  0  0  0  0  0  0  0
   14.9346   20.8497   17.0022 N   0  0  0  0  0  0  0  0  0  0  0  0
   14.1831   20.9606   18.5114 S   0  0  0  0  0  0  0  0  0  0  0  0
   15.1963   20.9209   19.6287 O   0  0  0  0  0  0  0  0  0  0  0  0
   13.5761   22.3383   18.6198 O   0  0  0  0  0  0  0  0  0  0  0  0
   12.9255   19.7404   18.5266 C   0  0  0  0  0  0  0  0  0  0  0  0
   11.5966   20.0351   18.1869 C   0  0  0  0  0  0  0  0  0  0  0  0
   10.6199   19.0197   18.2473 C   0  0  0  0  0  0  0  0  0  0  0  0
   10.9728   17.7103   18.6485 C   0  0  0  0  0  0  0  0  0  0  0  0
   12.3037   17.4340   18.9815 C   0  0  0  0  0  0  0  0  0  0  0  0
   13.2742   18.4397   18.9223 C   0  0  0  0  0  0  0  0  0  0  0  0
   10.0161   16.6813   18.7265 O   0  0  0  0  0  0  0  0  0  0  0  0
    9.9459   15.7852   17.6040 C   0  0  0  0  0  0  0  0  0  0  0  0
   14.0998   20.8386   15.7861 C   0  0  0  0  0  0  0  0  0  0  0  0
   14.1899   22.1752   15.0083 C   0  0  0  0  0  0  0  0  0  0  0  0
   12.7894   22.8078   14.9435 C   0  0  0  0  0  0  0  0  0  0  0  0
   14.7009   21.9369   13.5746 C   0  0  0  0  0  0  0  0  0  0  0  0
   17.5207   23.2783   15.8688 C   0  0  0  0  0  0  0  0  0  0  0  0
   18.1912   24.5388   15.3294 C   0  0  0  0  0  0  0  0  0  0  0  0
   17.4191   25.6796   15.0631 C   0  0  0  0  0  0  0  0  0  0  0  0
   18.0420   26.8487   14.5684 C   0  0  0  0  0  0  0  0  0  0  0  0
   19.4365   26.8715   14.3432 C   0  0  0  0  0  0  0  0  0  0  0  0
   20.2065   25.7198   14.6107 C   0  0  0  0  0  0  0  0  0  0  0  0
   19.5850   24.5543   15.1035 C   0  0  0  0  0  0  0  0  0  0  0  0
  7 12  1  0  0  0
  7 14  1  0  0  0
  7  9  1  0  0  0
  8  9  1  0  0  0
  8 13  1  0  0  0
  9 10  1  0  0  0
 10 11  1  0  0  0
 11 12  1  0  0  0
 13 14  1  0  0  0
 14  6  1  0  0  0
  6  2  1  0  0  0
  2  4  1  0  0  0
  2  3  2  0  0  0
  4  1  1  0  0  0
  1 35  1  0  0  0
  1 15  1  0  0  0
 35 36  1  0  0  0
 36 37  2  0  0  0
 36 41  1  0  0  0
 37 38  1  0  0  0
 38 39  2  0  0  0
 39 40  1  0  0  0
 40 41  2  0  0  0
 15 18  1  0  0  0
 15 16  1  0  0  0
 18 19  1  0  0  0
 19 20  1  0  0  0
 19 31  1  0  0  0
 20 22  2  0  0  0
 20 23  1  0  0  0
 20 21  2  0  0  0
 23 28  2  0  0  0
 23 24  1  0  0  0
 24 25  2  0  0  0
 25 26  1  0  0  0
 26 29  1  0  0  0
 26 27  2  0  0  0
 29 30  1  0  0  0
 27 28  1  0  0  0
 31 32  1  0  0  0
 32 34  1  0  0  0
 32 33  1  0  0  0
  4  5  1  0  0  0
 16 17  1  0  0  0
M  END
> <minimizedAffinity>
-9.11199

$$$$
2I4U_DJR_A_300


 41 44  0  0  0  0  0  0  0  0999 V2000
   20.5216   26.0621   20.2342 C   0  0  0  0  0  0  0  0  0  0  0  0
   21.3928   27.3179   18.3834 C   0  0  0  0  0  0  0  0  0  0  0  0
   22.5599   27.1957   18.7363 O   0  0  0  0  0  0  0  0  0  0  0  0
   20.3300   26.8143   19.0266 N   0  0  0  0  0  0  0  0  0  0  0  0
   19.4229   26.9594   18.6727 H   0  0  0  0  0  0  0  0  0  0  0  0
   20.9606   27.9917   17.3090 O   0  0  0  0  0  0  0  0  0  0  0  0
   21.6076   27.6670   15.0922 C   0  0  0  0  0  0  0  0  0  0  0  0
   19.7301   28.9388   14.7200 O   0  0  0  0  0  0  0  0  0  0  0  0
   21.1089   28.8574   14.3168 C   0  0  0  0  0  0  0  0  0  0  0  0
   21.9652   29.8674   14.8687 O   0  0  0  0  0  0  0  0  0  0  0  0
   23.2588   29.2763   14.9533 C   0  0  0  0  0  0  0  0  0  0  0  0
   23.0516   27.8641   15.5301 C   0  0  0  0  0  0  0  0  0  0  0  0
   19.4120   27.7484   15.4688 C   0  0  0  0  0  0  0  0  0  0  0  0
   20.6705   27.2099   16.1628 C   0  0  0  0  0  0  0  0  0  0  0  0
   19.4578   24.9517   20.2689 C   0  0  0  0  0  0  0  0  0  0  0  0
   19.8134   23.9699   21.2309 O   0  0  0  0  0  0  0  0  0  0  0  0
   20.6693   23.5799   20.9937 H   0  0  0  0  0  0  0  0  0  0  0  0
   19.3685   24.3005   18.9143 C   0  0  0  0  0  0  0  0  0  0  0  0
   18.0081   23.8545   18.6129 N   0  0  0  0  0  0  0  0  0  0  0  0
   17.4204   22.5276   19.4781 S   0  0  0  0  0  0  0  0  0  0  0  0
   18.5161   21.5268   19.7511 O   0  0  0  0  0  0  0  0  0  0  0  0
   17.0238   23.0156   20.8502 O   0  0  0  0  0  0  0  0  0  0  0  0
   16.0119   21.9555   18.6068 C   0  0  0  0  0  0  0  0  0  0  0  0
   14.7076   22.3080   18.9844 C   0  0  0  0  0  0  0  0  0  0  0  0
   13.6099   21.7923   18.2650 C   0  0  0  0  0  0  0  0  0  0  0  0
   13.8174   20.9234   17.1686 C   0  0  0  0  0  0  0  0  0  0  0  0
   15.1255   20.5844   16.8046 C   0  0  0  0  0  0  0  0  0  0  0  0
   16.2159   21.0948   17.5169 C   0  0  0  0  0  0  0  0  0  0  0  0
   12.7396   20.3872   16.4399 O   0  0  0  0  0  0  0  0  0  0  0  0
   12.2110   21.2056   15.3822 C   0  0  0  0  0  0  0  0  0  0  0  0
   17.0541   24.7173   17.8907 C   0  0  0  0  0  0  0  0  0  0  0  0
   17.5079   24.9930   16.4356 C   0  0  0  0  0  0  0  0  0  0  0  0
   16.3540   25.6677   15.6746 C   0  0  0  0  0  0  0  0  0  0  0  0
   17.8794   23.6785   15.7232 C   0  0  0  0  0  0  0  0  0  0  0  0
   20.4074   26.9921   21.4701 C   0  0  0  0  0  0  0  0  0  0  0  0
   21.5968   26.7847   22.4037 C   0  0  0  0  0  0  0  0  0  0  0  0
   21.6097   27.4014   23.6639 C   0  0  0  0  0  0  0  0  0  0  0  0
   22.7097   27.2043   24.5304 C   0  0  0  0  0  0  0  0  0  0  0  0
   23.7927   26.3893   24.1320 C   0  0  0  0  0  0  0  0  0  0  0  0
   23.7743   25.7744   22.8622 C   0  0  0  0  0  0  0  0  0  0  0  0
   22.6777   25.9714   21.9985 C   0  0  0  0  0  0  0  0  0  0  0  0
  7 12  1  0  0  0
  7 14  1  0  0  0
  7  9  1  0  0  0
  8  9  1  0  0  0
  8 13  1  0  0  0
  9 10  1  0  0  0
 10 11  1  0  0  0
 11 12  1  0  0  0
 13 14  1  0  0  0
 14  6  1  0  0  0
  6  2  1  0  0  0
  2  4  1  0  0  0
  2  3  2  0  0  0
  4  1  1  0  0  0
  1 35  1  0  0  0
  1 15  1  0  0  0
 35 36  1  0  0  0
 36 37  2  0  0  0
 36 41  1  0  0  0
 37 38  1  0  0  0
 38 39  2  0  0  0
 39 40  1  0  0  0
 40 41  2  0  0  0
 15 18  1  0  0  0
 15 16  1  0  0  0
 18 19  1  0  0  0
 19 20  1  0  0  0
 19 31  1  0  0  0
 20 22  2  0  0  0
 20 23  1  0  0  0
 20 21  2  0  0  0
 23 28  2  0  0  0
 23 24  1  0  0  0
 24 25  2  0  0  0
 25 26  1  0  0  0
 26 29  1  0  0  0
 26 27  2  0  0  0
 29 30  1  0  0  0
 27 28  1  0  0  0
 31 32  1  0  0  0
 32 34  1  0  0  0
 32 33  1  0  0  0
  4  5  1  0  0  0
 16 17  1  0  0  0
M  END
> <minimizedAffinity>
-9.10937

$$$$
2I4U_DJR_A_300


 41 44  0  0  0  0  0  0  0  0999 V2000
   12.6404   20.4191   16.8710 C   0  0  0  0  0  0  0  0  0  0  0  0
   10.4745   19.7961   16.0449 C   0  0  0  0  0  0  0  0  0  0  0  0
    9.8884   20.1478   17.0619 O   0  0  0  0  0  0  0  0  0  0  0  0
   11.7969   19.8802   15.8420 N   0  0  0  0  0  0  0  0  0  0  0  0
   12.1875   19.5741   14.9917 H   0  0  0  0  0  0  0  0  0  0  0  0
    9.9114   19.2447   14.9613 O   0  0  0  0  0  0  0  0  0  0  0  0
   10.2863   18.0142   13.0162 C   0  0  0  0  0  0  0  0  0  0  0  0
    8.5042   16.8204   13.8405 O   0  0  0  0  0  0  0  0  0  0  0  0
    8.9609   17.4224   12.6161 C   0  0  0  0  0  0  0  0  0  0  0  0
    8.2766   18.6246   12.2365 O   0  0  0  0  0  0  0  0  0  0  0  0
    9.2225   19.3941   11.4995 C   0  0  0  0  0  0  0  0  0  0  0  0
   10.5430   19.3255   12.2879 C   0  0  0  0  0  0  0  0  0  0  0  0
    9.5901   16.8551   14.7883 C   0  0  0  0  0  0  0  0  0  0  0  0
   10.5096   18.0478   14.4934 C   0  0  0  0  0  0  0  0  0  0  0  0
   13.5221   21.5062   16.2333 C   0  0  0  0  0  0  0  0  0  0  0  0
   14.5583   20.9047   15.4716 O   0  0  0  0  0  0  0  0  0  0  0  0
   15.1068   20.3529   16.0509 H   0  0  0  0  0  0  0  0  0  0  0  0
   14.1378   22.3516   17.3165 C   0  0  0  0  0  0  0  0  0  0  0  0
   15.5160   22.7257   16.9983 N   0  0  0  0  0  0  0  0  0  0  0  0
   16.7455   21.7499   17.6235 S   0  0  0  0  0  0  0  0  0  0  0  0
   16.1907   20.4571   18.1689 O   0  0  0  0  0  0  0  0  0  0  0  0
   17.6150   21.3141   16.4692 O   0  0  0  0  0  0  0  0  0  0  0  0
   17.6614   22.7572   18.7267 C   0  0  0  0  0  0  0  0  0  0  0  0
   17.0945   23.2923   19.8931 C   0  0  0  0  0  0  0  0  0  0  0  0
   17.8705   24.1224   20.7281 C   0  0  0  0  0  0  0  0  0  0  0  0
   19.2129   24.4178   20.3954 C   0  0  0  0  0  0  0  0  0  0  0  0
   19.7625   23.8735   19.2292 C   0  0  0  0  0  0  0  0  0  0  0  0
   18.9946   23.0497   18.3994 C   0  0  0  0  0  0  0  0  0  0  0  0
   20.0060   25.2510   21.2059 O   0  0  0  0  0  0  0  0  0  0  0  0
   20.4376   26.4917   20.6208 C   0  0  0  0  0  0  0  0  0  0  0  0
   15.8299   23.6537   15.8955 C   0  0  0  0  0  0  0  0  0  0  0  0
   16.8493   24.7390   16.3230 C   0  0  0  0  0  0  0  0  0  0  0  0
   16.1797   25.6753   17.3432 C   0  0  0  0  0  0  0  0  0  0  0  0
   17.3063   25.5657   15.1060 C   0  0  0  0  0  0  0  0  0  0  0  0
   13.5002   19.2946   17.5045 C   0  0  0  0  0  0  0  0  0  0  0  0
   12.8184   18.7431   18.7536 C   0  0  0  0  0  0  0  0  0  0  0  0
   13.0020   19.3834   19.9884 C   0  0  0  0  0  0  0  0  0  0  0  0
   12.3656   18.8748   21.1442 C   0  0  0  0  0  0  0  0  0  0  0  0
   11.5464   17.7271   21.0590 C   0  0  0  0  0  0  0  0  0  0  0  0
   11.3682   17.0866   19.8144 C   0  0  0  0  0  0  0  0  0  0  0  0
   12.0032   17.5937   18.6625 C   0  0  0  0  0  0  0  0  0  0  0  0
  7 12  1  0  0  0
  7 14  1  0  0  0
  7  9  1  0  0  0
  8  9  1  0  0  0
  8 13  1  0  0  0
  9 10  1  0  0  0
 10 11  1  0  0  0
 11 12  1  0  0  0
 13 14  1  0  0  0
 14  6  1  0  0  0
  6  2  1  0  0  0
  2  4  1  0  0  0
  2  3  2  0  0  0
  4  1  1  0  0  0
  1 35  1  0  0  0
  1 15  1  0  0  0
 35 36  1  0  0  0
 36 37  2  0  0  0
 36 41  1  0  0  0
 37 38  1  0  0  0
 38 39  2  0  0  0
 39 40  1  0  0  0
 40 41  2  0  0  0
 15 18  1  0  0  0
 15 16  1  0  0  0
 18 19  1  0  0  0
 19 20  1  0  0  0
 19 31  1  0  0  0
 20 22  2  0  0  0
 20 23  1  0  0  0
 20 21  2  0  0  0
 23 28  2  0  0  0
 23 24  1  0  0  0
 24 25  2  0  0  0
 25 26  1  0  0  0
 26 29  1  0  0  0
 26 27  2  0  0  0
 29 30  1  0  0  0
 27 28  1  0  0  0
 31 32  1  0  0  0
 32 34  1  0  0  0
 32 33  1  0  0  0
  4  5  1  0  0  0
 16 17  1  0  0  0
M  END
> <minimizedAffinity>
-9.08855

$$$$
