2V57_PRL_A_1188


 20 22  0  0  0  0  0  0  0  0999 V2000
    8.5088   -7.1185    9.5843 C   0  0  0  0  0  0  0  0  0  0  0  0
    9.7646   -7.4757   10.0925 C   0  0  0  0  0  0  0  0  0  0  0  0
   10.9213   -7.0442    9.4325 C   0  0  0  0  0  0  0  0  0  0  0  0
   10.8298   -6.2541    8.2916 C   0  0  0  0  0  0  0  0  0  0  0  0
    8.3048   -3.9868    4.9826 C   0  0  0  0  0  0  0  0  0  0  0  0
    7.0790   -3.6082    4.4264 C   0  0  0  0  0  0  0  0  0  0  0  0
    5.8975   -4.0012    5.0340 C   0  0  0  0  0  0  0  0  0  0  0  0
    5.9290   -4.7769    6.1817 C   0  0  0  0  0  0  0  0  0  0  0  0
    7.1803   -5.9590    7.8953 C   0  0  0  0  0  0  0  0  0  0  0  0
    9.5102   -5.1413    6.6746 N   0  0  0  0  0  0  0  0  0  0  0  0
    9.5816   -5.9078    7.7842 C   0  0  0  0  0  0  0  0  0  0  0  0
    7.1447   -5.1696    6.7363 C   0  0  0  0  0  0  0  0  0  0  0  0
    8.4178   -6.3311    8.4294 C   0  0  0  0  0  0  0  0  0  0  0  0
    8.3283   -4.7640    6.1424 C   0  0  0  0  0  0  0  0  0  0  0  0
   12.1343   -7.3854    9.9175 N   0  0  0  0  0  0  0  0  0  0  0  0
    7.0269   -2.8462    3.3054 N   0  0  0  0  0  0  0  0  0  0  0  0
   12.2021   -7.9446   10.7249 H   0  0  0  0  0  0  0  0  0  0  0  0
   12.9510   -7.0750    9.4637 H   0  0  0  0  0  0  0  0  0  0  0  0
    7.8599   -2.5609    2.8650 H   0  0  0  0  0  0  0  0  0  0  0  0
    6.1561   -2.5785    2.9323 H   0  0  0  0  0  0  0  0  0  0  0  0
  1  2  2  0  0  0
  1 13  1  0  0  0
  2  3  1  0  0  0
  3  4  2  0  0  0
  3 15  1  0  0  0
  4 11  1  0  0  0
  5  6  2  0  0  0
  5 14  1  0  0  0
  6  7  1  0  0  0
  6 16  1  0  0  0
  7  8  2  0  0  0
  8 12  1  0  0  0
  9 12  2  0  0  0
  9 13  1  0  0  0
 10 11  1  0  0  0
 10 14  2  0  0  0
 11 13  2  0  0  0
 12 14  1  0  0  0
 15 17  1  0  0  0
 15 18  1  0  0  0
 16 19  1  0  0  0
 16 20  1  0  0  0
M  END
> <minimizedAffinity>
-8.65415

$$$$
2V57_PRL_A_1188


 20 22  0  0  0  0  0  0  0  0999 V2000
    5.8861   -4.8485    6.2538 C   0  0  0  0  0  0  0  0  0  0  0  0
    5.7997   -4.0568    5.1012 C   0  0  0  0  0  0  0  0  0  0  0  0
    6.9745   -3.6205    4.4773 C   0  0  0  0  0  0  0  0  0  0  0  0
    8.2185   -3.9811    4.9841 C   0  0  0  0  0  0  0  0  0  0  0  0
   10.9390   -6.1729    8.1873 C   0  0  0  0  0  0  0  0  0  0  0  0
   11.0847   -6.9528    9.3387 C   0  0  0  0  0  0  0  0  0  0  0  0
    9.9601   -7.4180   10.0009 C   0  0  0  0  0  0  0  0  0  0  0  0
    8.6951   -7.1021    9.5320 C   0  0  0  0  0  0  0  0  0  0  0  0
    7.2604   -5.9895    7.9185 C   0  0  0  0  0  0  0  0  0  0  0  0
    9.5173   -5.1003    6.6135 N   0  0  0  0  0  0  0  0  0  0  0  0
    8.3016   -4.7603    6.1336 C   0  0  0  0  0  0  0  0  0  0  0  0
    8.5395   -6.3155    8.3932 C   0  0  0  0  0  0  0  0  0  0  0  0
    7.1396   -5.2026    6.7690 C   0  0  0  0  0  0  0  0  0  0  0  0
    9.6609   -5.8633    7.7179 C   0  0  0  0  0  0  0  0  0  0  0  0
    6.8976   -2.8572    3.3663 N   0  0  0  0  0  0  0  0  0  0  0  0
   12.3142   -7.2759    9.8118 N   0  0  0  0  0  0  0  0  0  0  0  0
    6.0184   -2.6005    3.0054 H   0  0  0  0  0  0  0  0  0  0  0  0
    7.7208   -2.5573    2.9172 H   0  0  0  0  0  0  0  0  0  0  0  0
   13.1205   -6.9512    9.3496 H   0  0  0  0  0  0  0  0  0  0  0  0
   12.4002   -7.8352   10.6174 H   0  0  0  0  0  0  0  0  0  0  0  0
  1  2  2  0  0  0
  1 13  1  0  0  0
  2  3  1  0  0  0
  3  4  2  0  0  0
  3 15  1  0  0  0
  4 11  1  0  0  0
  5  6  2  0  0  0
  5 14  1  0  0  0
  6  7  1  0  0  0
  6 16  1  0  0  0
  7  8  2  0  0  0
  8 12  1  0  0  0
  9 12  2  0  0  0
  9 13  1  0  0  0
 10 11  1  0  0  0
 10 14  2  0  0  0
 11 13  2  0  0  0
 12 14  1  0  0  0
 15 17  1  0  0  0
 15 18  1  0  0  0
 16 19  1  0  0  0
 16 20  1  0  0  0
M  END
> <minimizedAffinity>
-8.64629

$$$$
2V57_PRL_A_1188


 20 22  0  0  0  0  0  0  0  0999 V2000
    5.9424   -4.1486    5.1401 C   0  0  0  0  0  0  0  0  0  0  0  0
    6.4741   -3.3445    4.1235 C   0  0  0  0  0  0  0  0  0  0  0  0
    7.8601   -3.1649    4.0431 C   0  0  0  0  0  0  0  0  0  0  0  0
    8.7067   -3.7905    4.9521 C   0  0  0  0  0  0  0  0  0  0  0  0
    9.4578   -6.5515    8.7309 C   0  0  0  0  0  0  0  0  0  0  0  0
    8.9821   -7.3569    9.7702 C   0  0  0  0  0  0  0  0  0  0  0  0
    7.6205   -7.5759    9.9024 C   0  0  0  0  0  0  0  0  0  0  0  0
    6.7314   -6.9898    9.0159 C   0  0  0  0  0  0  0  0  0  0  0  0
    6.2970   -5.5769    7.0886 C   0  0  0  0  0  0  0  0  0  0  0  0
    9.0115   -5.1808    6.8412 N   0  0  0  0  0  0  0  0  0  0  0  0
    8.1757   -4.5817    5.9658 C   0  0  0  0  0  0  0  0  0  0  0  0
    7.1945   -6.1759    7.9848 C   0  0  0  0  0  0  0  0  0  0  0  0
    6.7955   -4.7700    6.0611 C   0  0  0  0  0  0  0  0  0  0  0  0
    8.5559   -5.9687    7.8382 C   0  0  0  0  0  0  0  0  0  0  0  0
    8.3783   -2.3910    3.0657 N   0  0  0  0  0  0  0  0  0  0  0  0
    9.8363   -7.9424   10.6463 N   0  0  0  0  0  0  0  0  0  0  0  0
    7.7814   -1.9470    2.4209 H   0  0  0  0  0  0  0  0  0  0  0  0
    9.3531   -2.2707    2.9978 H   0  0  0  0  0  0  0  0  0  0  0  0
   10.8059   -7.7940   10.5623 H   0  0  0  0  0  0  0  0  0  0  0  0
    9.4866   -8.5157   11.3662 H   0  0  0  0  0  0  0  0  0  0  0  0
  1  2  2  0  0  0
  1 13  1  0  0  0
  2  3  1  0  0  0
  3  4  2  0  0  0
  3 15  1  0  0  0
  4 11  1  0  0  0
  5  6  2  0  0  0
  5 14  1  0  0  0
  6  7  1  0  0  0
  6 16  1  0  0  0
  7  8  2  0  0  0
  8 12  1  0  0  0
  9 12  2  0  0  0
  9 13  1  0  0  0
 10 11  1  0  0  0
 10 14  2  0  0  0
 11 13  2  0  0  0
 12 14  1  0  0  0
 15 17  1  0  0  0
 15 18  1  0  0  0
 16 19  1  0  0  0
 16 20  1  0  0  0
M  END
> <minimizedAffinity>
-8.54577

$$$$
2V57_PRL_A_1188


 20 22  0  0  0  0  0  0  0  0999 V2000
   11.9424   -6.3067    8.1643 C   0  0  0  0  0  0  0  0  0  0  0  0
   12.0668   -7.1593    9.2690 C   0  0  0  0  0  0  0  0  0  0  0  0
   10.9139   -7.6107    9.9223 C   0  0  0  0  0  0  0  0  0  0  0  0
    9.6536   -7.2320    9.4721 C   0  0  0  0  0  0  0  0  0  0  0  0
    6.8296   -4.8440    6.5076 C   0  0  0  0  0  0  0  0  0  0  0  0
    6.6464   -3.9885    5.4168 C   0  0  0  0  0  0  0  0  0  0  0  0
    7.7477   -3.5093    4.7262 C   0  0  0  0  0  0  0  0  0  0  0  0
    9.0270   -3.8659    5.1214 C   0  0  0  0  0  0  0  0  0  0  0  0
   10.5141   -5.0666    6.6202 C   0  0  0  0  0  0  0  0  0  0  0  0
    8.3020   -6.0191    7.9567 N   0  0  0  0  0  0  0  0  0  0  0  0
    9.5330   -6.3784    8.3801 C   0  0  0  0  0  0  0  0  0  0  0  0
    9.2204   -4.7075    6.2142 C   0  0  0  0  0  0  0  0  0  0  0  0
   10.6728   -5.9179    7.7181 C   0  0  0  0  0  0  0  0  0  0  0  0
    8.1217   -5.2031    6.8964 C   0  0  0  0  0  0  0  0  0  0  0  0
   11.0275   -8.4324   10.9875 N   0  0  0  0  0  0  0  0  0  0  0  0
    5.4023   -3.6303    5.0120 N   0  0  0  0  0  0  0  0  0  0  0  0
   11.9183   -8.7021   11.3083 H   0  0  0  0  0  0  0  0  0  0  0  0
   10.2195   -8.7619   11.4434 H   0  0  0  0  0  0  0  0  0  0  0  0
    4.6123   -3.9646    5.4950 H   0  0  0  0  0  0  0  0  0  0  0  0
    5.2894   -3.0360    4.2353 H   0  0  0  0  0  0  0  0  0  0  0  0
  1  2  2  0  0  0
  1 13  1  0  0  0
  2  3  1  0  0  0
  3  4  2  0  0  0
  3 15  1  0  0  0
  4 11  1  0  0  0
  5  6  2  0  0  0
  5 14  1  0  0  0
  6  7  1  0  0  0
  6 16  1  0  0  0
  7  8  2  0  0  0
  8 12  1  0  0  0
  9 12  2  0  0  0
  9 13  1  0  0  0
 10 11  1  0  0  0
 10 14  2  0  0  0
 11 13  2  0  0  0
 12 14  1  0  0  0
 15 17  1  0  0  0
 15 18  1  0  0  0
 16 19  1  0  0  0
 16 20  1  0  0  0
M  END
> <minimizedAffinity>
-8.40656

$$$$
2V57_PRL_A_1188


 20 22  0  0  0  0  0  0  0  0999 V2000
    8.8628   -4.1615    5.6753 C   0  0  0  0  0  0  0  0  0  0  0  0
    8.5473   -3.4088    4.5366 C   0  0  0  0  0  0  0  0  0  0  0  0
    7.2346   -3.4154    4.0502 C   0  0  0  0  0  0  0  0  0  0  0  0
    6.2456   -4.1479    4.6980 C   0  0  0  0  0  0  0  0  0  0  0  0
    4.8035   -7.0778    8.1334 C   0  0  0  0  0  0  0  0  0  0  0  0
    5.0633   -7.8535    9.2674 C   0  0  0  0  0  0  0  0  0  0  0  0
    6.3421   -7.8870    9.7994 C   0  0  0  0  0  0  0  0  0  0  0  0
    7.3635   -7.1646    9.2038 C   0  0  0  0  0  0  0  0  0  0  0  0
    8.1502   -5.6701    7.4581 C   0  0  0  0  0  0  0  0  0  0  0  0
    5.5915   -5.6081    6.4400 N   0  0  0  0  0  0  0  0  0  0  0  0
    6.5633   -4.9012    5.8236 C   0  0  0  0  0  0  0  0  0  0  0  0
    7.1175   -6.3987    8.0667 C   0  0  0  0  0  0  0  0  0  0  0  0
    7.8680   -4.9069    6.3210 C   0  0  0  0  0  0  0  0  0  0  0  0
    5.8368   -6.3482    7.5420 C   0  0  0  0  0  0  0  0  0  0  0  0
    6.9246   -2.6921    2.9531 N   0  0  0  0  0  0  0  0  0  0  0  0
    4.0765   -8.5651    9.8672 N   0  0  0  0  0  0  0  0  0  0  0  0
    7.6227   -2.1727    2.4925 H   0  0  0  0  0  0  0  0  0  0  0  0
    6.0005   -2.6842    2.6136 H   0  0  0  0  0  0  0  0  0  0  0  0
    3.1639   -8.5490    9.4982 H   0  0  0  0  0  0  0  0  0  0  0  0
    4.2729   -9.0977   10.6716 H   0  0  0  0  0  0  0  0  0  0  0  0
  1  2  2  0  0  0
  1 13  1  0  0  0
  2  3  1  0  0  0
  3  4  2  0  0  0
  3 15  1  0  0  0
  4 11  1  0  0  0
  5  6  2  0  0  0
  5 14  1  0  0  0
  6  7  1  0  0  0
  6 16  1  0  0  0
  7  8  2  0  0  0
  8 12  1  0  0  0
  9 12  2  0  0  0
  9 13  1  0  0  0
 10 11  1  0  0  0
 10 14  2  0  0  0
 11 13  2  0  0  0
 12 14  1  0  0  0
 15 17  1  0  0  0
 15 18  1  0  0  0
 16 19  1  0  0  0
 16 20  1  0  0  0
M  END
> <minimizedAffinity>
-8.36134

$$$$
2V57_PRL_A_1188


 20 22  0  0  0  0  0  0  0  0999 V2000
    7.5588   -7.0920    9.2007 C   0  0  0  0  0  0  0  0  0  0  0  0
    6.5501   -7.8403    9.8214 C   0  0  0  0  0  0  0  0  0  0  0  0
    5.2551   -7.8226    9.2898 C   0  0  0  0  0  0  0  0  0  0  0  0
    4.9717   -7.0832    8.1464 C   0  0  0  0  0  0  0  0  0  0  0  0
    6.2588   -4.1475    4.6549 C   0  0  0  0  0  0  0  0  0  0  0  0
    7.2235   -3.3757    4.0001 C   0  0  0  0  0  0  0  0  0  0  0  0
    8.5248   -3.3532    4.4753 C   0  0  0  0  0  0  0  0  0  0  0  0
    8.8674   -4.0827    5.6024 C   0  0  0  0  0  0  0  0  0  0  0  0
    8.2530   -5.5806    7.4130 C   0  0  0  0  0  0  0  0  0  0  0  0
    5.6809   -5.6207    6.4282 N   0  0  0  0  0  0  0  0  0  0  0  0
    5.9732   -6.3343    7.5369 C   0  0  0  0  0  0  0  0  0  0  0  0
    7.9108   -4.8448    6.2688 C   0  0  0  0  0  0  0  0  0  0  0  0
    7.2698   -6.3398    8.0550 C   0  0  0  0  0  0  0  0  0  0  0  0
    6.6131   -4.8843    5.7869 C   0  0  0  0  0  0  0  0  0  0  0  0
    4.2788   -8.5416    9.8837 N   0  0  0  0  0  0  0  0  0  0  0  0
    6.9091   -2.6572    2.8934 N   0  0  0  0  0  0  0  0  0  0  0  0
    4.4766   -9.0659   10.6932 H   0  0  0  0  0  0  0  0  0  0  0  0
    3.3691   -8.5416    9.5073 H   0  0  0  0  0  0  0  0  0  0  0  0
    5.9878   -2.6655    2.5464 H   0  0  0  0  0  0  0  0  0  0  0  0
    7.6021   -2.1274    2.4370 H   0  0  0  0  0  0  0  0  0  0  0  0
  1  2  2  0  0  0
  1 13  1  0  0  0
  2  3  1  0  0  0
  3  4  2  0  0  0
  3 15  1  0  0  0
  4 11  1  0  0  0
  5  6  2  0  0  0
  5 14  1  0  0  0
  6  7  1  0  0  0
  6 16  1  0  0  0
  7  8  2  0  0  0
  8 12  1  0  0  0
  9 12  2  0  0  0
  9 13  1  0  0  0
 10 11  1  0  0  0
 10 14  2  0  0  0
 11 13  2  0  0  0
 12 14  1  0  0  0
 15 17  1  0  0  0
 15 18  1  0  0  0
 16 19  1  0  0  0
 16 20  1  0  0  0
M  END
> <minimizedAffinity>
-8.32612

$$$$
2V57_PRL_A_1188


 20 22  0  0  0  0  0  0  0  0999 V2000
    8.4669   -4.1421    5.2770 C   0  0  0  0  0  0  0  0  0  0  0  0
    7.3225   -3.6186    4.6613 C   0  0  0  0  0  0  0  0  0  0  0  0
    6.0616   -3.9020    5.1996 C   0  0  0  0  0  0  0  0  0  0  0  0
    5.9424   -4.6822    6.3447 C   0  0  0  0  0  0  0  0  0  0  0  0
    7.8242   -7.2846    9.8307 C   0  0  0  0  0  0  0  0  0  0  0  0
    8.9305   -7.8401   10.4809 C   0  0  0  0  0  0  0  0  0  0  0  0
   10.2060   -7.5947    9.9989 C   0  0  0  0  0  0  0  0  0  0  0  0
   10.3853   -6.8118    8.8698 C   0  0  0  0  0  0  0  0  0  0  0  0
    9.4665   -5.4753    7.0618 C   0  0  0  0  0  0  0  0  0  0  0  0
    6.9463   -5.9647    8.0599 N   0  0  0  0  0  0  0  0  0  0  0  0
    7.0797   -5.2078    6.9494 C   0  0  0  0  0  0  0  0  0  0  0  0
    9.2890   -6.2642    8.2080 C   0  0  0  0  0  0  0  0  0  0  0  0
    8.3447   -4.9360    6.4246 C   0  0  0  0  0  0  0  0  0  0  0  0
    8.0134   -6.4923    8.6966 C   0  0  0  0  0  0  0  0  0  0  0  0
    4.9552   -3.4005    4.6104 N   0  0  0  0  0  0  0  0  0  0  0  0
    8.7763   -8.6063   11.5895 N   0  0  0  0  0  0  0  0  0  0  0  0
    5.0367   -2.8479    3.7997 H   0  0  0  0  0  0  0  0  0  0  0  0
    4.0669   -3.5874    4.9915 H   0  0  0  0  0  0  0  0  0  0  0  0
    7.8748   -8.7876   11.9412 H   0  0  0  0  0  0  0  0  0  0  0  0
    9.5659   -8.9813   12.0424 H   0  0  0  0  0  0  0  0  0  0  0  0
  1  2  2  0  0  0
  1 13  1  0  0  0
  2  3  1  0  0  0
  3  4  2  0  0  0
  3 15  1  0  0  0
  4 11  1  0  0  0
  5  6  2  0  0  0
  5 14  1  0  0  0
  6  7  1  0  0  0
  6 16  1  0  0  0
  7  8  2  0  0  0
  8 12  1  0  0  0
  9 12  2  0  0  0
  9 13  1  0  0  0
 10 11  1  0  0  0
 10 14  2  0  0  0
 11 13  2  0  0  0
 12 14  1  0  0  0
 15 17  1  0  0  0
 15 18  1  0  0  0
 16 19  1  0  0  0
 16 20  1  0  0  0
M  END
> <minimizedAffinity>
-8.22241

$$$$
2V57_PRL_A_1188


 20 22  0  0  0  0  0  0  0  0999 V2000
    5.8118   -5.7175    7.2673 C   0  0  0  0  0  0  0  0  0  0  0  0
    5.6531   -4.9377    6.1142 C   0  0  0  0  0  0  0  0  0  0  0  0
    6.7859   -4.4341    5.4637 C   0  0  0  0  0  0  0  0  0  0  0  0
    8.0599   -4.7164    5.9448 C   0  0  0  0  0  0  0  0  0  0  0  0
   10.9757   -6.7251    9.0958 C   0  0  0  0  0  0  0  0  0  0  0  0
   11.1928   -7.4895   10.2463 C   0  0  0  0  0  0  0  0  0  0  0  0
   10.1129   -8.0188   10.9342 C   0  0  0  0  0  0  0  0  0  0  0  0
    8.8214   -7.7821   10.4916 C   0  0  0  0  0  0  0  0  0  0  0  0
    7.2879   -6.7657    8.9057 C   0  0  0  0  0  0  0  0  0  0  0  0
    9.4584   -5.7476    7.5495 N   0  0  0  0  0  0  0  0  0  0  0  0
    8.2144   -5.4839    7.0948 C   0  0  0  0  0  0  0  0  0  0  0  0
    8.5942   -7.0116    9.3538 C   0  0  0  0  0  0  0  0  0  0  0  0
    7.0951   -5.9928    7.7565 C   0  0  0  0  0  0  0  0  0  0  0  0
    9.6715   -6.4955    8.6530 C   0  0  0  0  0  0  0  0  0  0  0  0
    6.6392   -3.6819    4.3522 N   0  0  0  0  0  0  0  0  0  0  0  0
   12.4494   -7.7356   10.6939 N   0  0  0  0  0  0  0  0  0  0  0  0
    5.7386   -3.4804    4.0094 H   0  0  0  0  0  0  0  0  0  0  0  0
    7.4329   -3.3348    3.8844 H   0  0  0  0  0  0  0  0  0  0  0  0
   13.2245   -7.3647   10.2134 H   0  0  0  0  0  0  0  0  0  0  0  0
   12.5863   -8.2849   11.4993 H   0  0  0  0  0  0  0  0  0  0  0  0
  1  2  2  0  0  0
  1 13  1  0  0  0
  2  3  1  0  0  0
  3  4  2  0  0  0
  3 15  1  0  0  0
  4 11  1  0  0  0
  5  6  2  0  0  0
  5 14  1  0  0  0
  6  7  1  0  0  0
  6 16  1  0  0  0
  7  8  2  0  0  0
  8 12  1  0  0  0
  9 12  2  0  0  0
  9 13  1  0  0  0
 10 11  1  0  0  0
 10 14  2  0  0  0
 11 13  2  0  0  0
 12 14  1  0  0  0
 15 17  1  0  0  0
 15 18  1  0  0  0
 16 19  1  0  0  0
 16 20  1  0  0  0
M  END
> <minimizedAffinity>
-8.20998

$$$$
2V57_PRL_A_1188


 20 22  0  0  0  0  0  0  0  0999 V2000
   11.9532   -4.6991    6.4630 C   0  0  0  0  0  0  0  0  0  0  0  0
   11.2866   -3.9454    5.4881 C   0  0  0  0  0  0  0  0  0  0  0  0
    9.8881   -3.9754    5.4332 C   0  0  0  0  0  0  0  0  0  0  0  0
    9.1621   -4.7322    6.3468 C   0  0  0  0  0  0  0  0  0  0  0  0
    8.9094   -7.7136   10.0229 C   0  0  0  0  0  0  0  0  0  0  0  0
    9.5219   -8.4914   11.0103 C   0  0  0  0  0  0  0  0  0  0  0  0
   10.9031   -8.5024   11.1185 C   0  0  0  0  0  0  0  0  0  0  0  0
   11.6763   -7.7554   10.2443 C   0  0  0  0  0  0  0  0  0  0  0  0
   11.8558   -6.2337    8.3597 C   0  0  0  0  0  0  0  0  0  0  0  0
    9.1068   -6.2170    8.1871 N   0  0  0  0  0  0  0  0  0  0  0  0
    9.8267   -5.4864    7.3085 C   0  0  0  0  0  0  0  0  0  0  0  0
   11.0761   -6.9872    9.2495 C   0  0  0  0  0  0  0  0  0  0  0  0
   11.2212   -5.4688    7.3761 C   0  0  0  0  0  0  0  0  0  0  0  0
    9.6951   -6.9593    9.1491 C   0  0  0  0  0  0  0  0  0  0  0  0
    9.2402   -3.2514    4.4958 N   0  0  0  0  0  0  0  0  0  0  0  0
    8.7828   -9.2269   11.8778 N   0  0  0  0  0  0  0  0  0  0  0  0
    9.7515   -2.7148    3.8479 H   0  0  0  0  0  0  0  0  0  0  0  0
    8.2563   -3.2600    4.4602 H   0  0  0  0  0  0  0  0  0  0  0  0
    7.8006   -9.2268   11.8106 H   0  0  0  0  0  0  0  0  0  0  0  0
    9.2285   -9.7608   12.5746 H   0  0  0  0  0  0  0  0  0  0  0  0
  1  2  2  0  0  0
  1 13  1  0  0  0
  2  3  1  0  0  0
  3  4  2  0  0  0
  3 15  1  0  0  0
  4 11  1  0  0  0
  5  6  2  0  0  0
  5 14  1  0  0  0
  6  7  1  0  0  0
  6 16  1  0  0  0
  7  8  2  0  0  0
  8 12  1  0  0  0
  9 12  2  0  0  0
  9 13  1  0  0  0
 10 11  1  0  0  0
 10 14  2  0  0  0
 11 13  2  0  0  0
 12 14  1  0  0  0
 15 17  1  0  0  0
 15 18  1  0  0  0
 16 19  1  0  0  0
 16 20  1  0  0  0
M  END
> <minimizedAffinity>
-7.95188

$$$$
2V57_PRL_A_1188


 20 22  0  0  0  0  0  0  0  0999 V2000
   11.4440   -7.8380   10.3580 C   0  0  0  0  0  0  0  0  0  0  0  0
   10.6096   -8.5626   11.2190 C   0  0  0  0  0  0  0  0  0  0  0  0
    9.2213   -8.4868   11.0560 C   0  0  0  0  0  0  0  0  0  0  0  0
    8.6713   -7.7133   10.0394 C   0  0  0  0  0  0  0  0  0  0  0  0
    9.0910   -4.7513    6.3629 C   0  0  0  0  0  0  0  0  0  0  0  0
    9.8748   -4.0008    5.4811 C   0  0  0  0  0  0  0  0  0  0  0  0
   11.2557   -4.0355    5.5886 C   0  0  0  0  0  0  0  0  0  0  0  0
   11.8586   -4.8010    6.5737 C   0  0  0  0  0  0  0  0  0  0  0  0
   11.6930   -6.3144    8.4662 C   0  0  0  0  0  0  0  0  0  0  0  0
    8.9515   -6.2405    8.2099 N   0  0  0  0  0  0  0  0  0  0  0  0
    9.5017   -6.9879    9.1910 C   0  0  0  0  0  0  0  0  0  0  0  0
   11.0862   -5.5423    7.4646 C   0  0  0  0  0  0  0  0  0  0  0  0
   10.8885   -7.0513    9.3408 C   0  0  0  0  0  0  0  0  0  0  0  0
    9.7062   -5.5246    7.3495 C   0  0  0  0  0  0  0  0  0  0  0  0
    8.4121   -9.1828   11.8829 N   0  0  0  0  0  0  0  0  0  0  0  0
    9.3040   -3.2478    4.5079 N   0  0  0  0  0  0  0  0  0  0  0  0
    8.7987   -9.7311   12.6034 H   0  0  0  0  0  0  0  0  0  0  0  0
    7.4355   -9.1419   11.7653 H   0  0  0  0  0  0  0  0  0  0  0  0
    8.3238   -3.2155    4.4218 H   0  0  0  0  0  0  0  0  0  0  0  0
    9.8699   -2.7337    3.8877 H   0  0  0  0  0  0  0  0  0  0  0  0
  1  2  2  0  0  0
  1 13  1  0  0  0
  2  3  1  0  0  0
  3  4  2  0  0  0
  3 15  1  0  0  0
  4 11  1  0  0  0
  5  6  2  0  0  0
  5 14  1  0  0  0
  6  7  1  0  0  0
  6 16  1  0  0  0
  7  8  2  0  0  0
  8 12  1  0  0  0
  9 12  2  0  0  0
  9 13  1  0  0  0
 10 11  1  0  0  0
 10 14  2  0  0  0
 11 13  2  0  0  0
 12 14  1  0  0  0
 15 17  1  0  0  0
 15 18  1  0  0  0
 16 19  1  0  0  0
 16 20  1  0  0  0
M  END
> <minimizedAffinity>
-7.89312

$$$$
