2QNP_QN2_A_2501


 42 46  0  0  0  0  0  0  0  0999 V2000
   16.6494   22.9949   -5.4711 C   0  0  0  0  0  0  0  0  0  0  0  0
   17.0990   24.4561   -5.7733 C   0  0  0  0  0  0  0  0  0  0  0  0
   16.1344   25.2767   -4.9048 C   0  0  0  0  0  0  0  0  0  0  0  0
   14.8581   24.5219   -4.8832 N   0  0  0  0  0  0  0  0  0  0  0  0
   15.1993   23.1015   -4.8915 C   0  0  0  0  0  0  0  0  0  0  0  0
   14.3010   24.7527   -5.7059 H   0  0  0  0  0  0  0  0  0  0  0  0
   17.4605   22.2539   -4.5160 N   0  0  0  0  0  0  0  0  0  0  0  0
   17.8102   20.5869   -4.8166 S   0  0  0  0  0  0  0  0  0  0  0  0
   18.9834   20.2122   -4.0634 O   0  0  0  0  0  0  0  0  0  0  0  0
   17.6595   20.3002   -6.2108 O   0  0  0  0  0  0  0  0  0  0  0  0
   15.4954   19.1468   -1.8246 C   0  0  0  0  0  0  0  0  0  0  0  0
   16.5651   19.6479   -2.5724 C   0  0  0  0  0  0  0  0  0  0  0  0
   16.4343   19.8722   -3.9346 C   0  0  0  0  0  0  0  0  0  0  0  0
   15.2782   19.5585   -4.6546 C   0  0  0  0  0  0  0  0  0  0  0  0
   14.2236   18.9996   -3.8984 C   0  0  0  0  0  0  0  0  0  0  0  0
   14.3379   18.8095   -2.5327 C   0  0  0  0  0  0  0  0  0  0  0  0
   17.8727   22.8884   -3.2859 C   0  0  0  0  0  0  0  0  0  0  0  0
   19.2560   23.4897   -3.1600 C   0  0  0  0  0  0  0  0  0  0  0  0
   19.5023   24.2188   -1.9862 C   0  0  0  0  0  0  0  0  0  0  0  0
   20.7386   24.7995   -1.7381 C   0  0  0  0  0  0  0  0  0  0  0  0
   21.7137   24.6870   -2.7192 C   0  0  0  0  0  0  0  0  0  0  0  0
   23.5595   25.5024   -2.3683 I   0  0  0  0  0  0  0  0  0  0  0  0
   21.4889   24.0025   -3.9011 C   0  0  0  0  0  0  0  0  0  0  0  0
   20.2531   23.3866   -4.1192 C   0  0  0  0  0  0  0  0  0  0  0  0
   17.1504   24.6662   -7.2230 N   0  0  0  0  0  0  0  0  0  0  0  0
   18.6511   24.5609   -7.9907 S   0  0  0  0  0  0  0  0  0  0  0  0
   19.2713   23.3321   -7.4852 O   0  0  0  0  0  0  0  0  0  0  0  0
   18.4447   24.6007   -9.4495 O   0  0  0  0  0  0  0  0  0  0  0  0
   19.7347   25.8975   -7.6729 C   0  0  0  0  0  0  0  0  0  0  0  0
   20.2368   26.5938   -8.7943 C   0  0  0  0  0  0  0  0  0  0  0  0
   21.0998   27.6784   -8.6022 C   0  0  0  0  0  0  0  0  0  0  0  0
   21.4799   28.0657   -7.3091 C   0  0  0  0  0  0  0  0  0  0  0  0
   20.9792   27.3852   -6.1892 C   0  0  0  0  0  0  0  0  0  0  0  0
   20.0861   26.3269   -6.3988 C   0  0  0  0  0  0  0  0  0  0  0  0
   15.9368   24.8759   -8.0355 C   0  0  0  0  0  0  0  0  0  0  0  0
   15.2011   23.5602   -8.4080 C   0  0  0  0  0  0  0  0  0  0  0  0
   13.9133   23.3188   -7.9031 C   0  0  0  0  0  0  0  0  0  0  0  0
   13.1956   22.1537   -8.2083 C   0  0  0  0  0  0  0  0  0  0  0  0
   13.7934   21.2068   -9.0439 C   0  0  0  0  0  0  0  0  0  0  0  0
   12.8383   19.4418   -9.5481 I   0  0  0  0  0  0  0  0  0  0  0  0
   15.0836   21.4223   -9.5325 C   0  0  0  0  0  0  0  0  0  0  0  0
   15.7827   22.5856   -9.2373 C   0  0  0  0  0  0  0  0  0  0  0  0
 28 26  2  0  0  0
 41 42  2  0  0  0
 41 39  1  0  0  0
 40 39  1  0  0  0
 42 36  1  0  0  0
 39 38  2  0  0  0
 33 34  2  0  0  0
 33 32  1  0  0  0
 34 29  1  0  0  0
 36 35  1  0  0  0
 36 37  2  0  0  0
 32 31  2  0  0  0
 29 26  1  0  0  0
 29 30  2  0  0  0
 26 27  2  0  0  0
 26 25  1  0  0  0
 38 37  1  0  0  0
 35 25  1  0  0  0
 31 30  1  0  0  0
 25  2  1  0  0  0
 10  8  2  0  0  0
  2  1  1  0  0  0
  2  3  1  0  0  0
  1  5  1  0  0  0
  1  7  1  0  0  0
  3  4  1  0  0  0
  8  7  1  0  0  0
  8  9  2  0  0  0
  8 13  1  0  0  0
  4  5  1  0  0  0
 14 13  2  0  0  0
 14 15  1  0  0  0
  7 17  1  0  0  0
 24 23  2  0  0  0
 24 18  1  0  0  0
 23 21  1  0  0  0
 13 12  1  0  0  0
 15 16  2  0  0  0
 17 18  1  0  0  0
 18 19  2  0  0  0
 21 22  1  0  0  0
 21 20  2  0  0  0
 12 11  2  0  0  0
 16 11  1  0  0  0
 19 20  1  0  0  0
  4  6  1  0  0  0
M  END
> <minimizedAffinity>
-11.70140

$$$$
2QNP_QN2_A_2501


 42 46  0  0  0  0  0  0  0  0999 V2000
   17.4309   24.3572   -6.6679 C   0  0  0  0  0  0  0  0  0  0  0  0
   17.0489   23.1524   -5.7563 C   0  0  0  0  0  0  0  0  0  0  0  0
   16.3266   23.8450   -4.5917 C   0  0  0  0  0  0  0  0  0  0  0  0
   16.9896   25.1606   -4.4216 N   0  0  0  0  0  0  0  0  0  0  0  0
   17.3674   25.6262   -5.7536 C   0  0  0  0  0  0  0  0  0  0  0  0
   17.8196   25.0612   -3.8371 H   0  0  0  0  0  0  0  0  0  0  0  0
   16.5737   24.5921   -7.8209 N   0  0  0  0  0  0  0  0  0  0  0  0
   17.2470   25.3092   -9.2436 S   0  0  0  0  0  0  0  0  0  0  0  0
   16.8181   26.6854   -9.3212 O   0  0  0  0  0  0  0  0  0  0  0  0
   17.1417   24.4009  -10.3448 O   0  0  0  0  0  0  0  0  0  0  0  0
   21.0875   24.2546   -8.5207 C   0  0  0  0  0  0  0  0  0  0  0  0
   19.7316   24.2374   -8.8607 C   0  0  0  0  0  0  0  0  0  0  0  0
   18.9503   25.3741   -8.7177 C   0  0  0  0  0  0  0  0  0  0  0  0
   19.4296   26.5690   -8.1738 C   0  0  0  0  0  0  0  0  0  0  0  0
   20.7867   26.5572   -7.7808 C   0  0  0  0  0  0  0  0  0  0  0  0
   21.5784   25.4362   -7.9569 C   0  0  0  0  0  0  0  0  0  0  0  0
   15.1586   24.3210   -7.7252 C   0  0  0  0  0  0  0  0  0  0  0  0
   14.5910   23.0182   -8.2465 C   0  0  0  0  0  0  0  0  0  0  0  0
   13.2661   22.7366   -7.8785 C   0  0  0  0  0  0  0  0  0  0  0  0
   12.6211   21.5862   -8.3117 C   0  0  0  0  0  0  0  0  0  0  0  0
   13.3496   20.6865   -9.0772 C   0  0  0  0  0  0  0  0  0  0  0  0
   12.4159   18.9968   -9.7614 I   0  0  0  0  0  0  0  0  0  0  0  0
   14.6678   20.9214   -9.4278 C   0  0  0  0  0  0  0  0  0  0  0  0
   15.2916   22.1041   -9.0201 C   0  0  0  0  0  0  0  0  0  0  0  0
   18.2350   22.3281   -5.5062 N   0  0  0  0  0  0  0  0  0  0  0  0
   18.0064   20.7021   -5.1108 S   0  0  0  0  0  0  0  0  0  0  0  0
   18.2948   19.9503   -6.3362 O   0  0  0  0  0  0  0  0  0  0  0  0
   18.8609   20.3667   -3.9577 O   0  0  0  0  0  0  0  0  0  0  0  0
   16.3894   20.2948   -4.5807 C   0  0  0  0  0  0  0  0  0  0  0  0
   15.3563   20.4051   -5.5373 C   0  0  0  0  0  0  0  0  0  0  0  0
   14.0439   20.0830   -5.1743 C   0  0  0  0  0  0  0  0  0  0  0  0
   13.7476   19.6688   -3.8677 C   0  0  0  0  0  0  0  0  0  0  0  0
   14.7688   19.5481   -2.9135 C   0  0  0  0  0  0  0  0  0  0  0  0
   16.0820   19.8372   -3.3050 C   0  0  0  0  0  0  0  0  0  0  0  0
   19.6068   22.8447   -5.6734 C   0  0  0  0  0  0  0  0  0  0  0  0
   20.0985   23.7059   -4.4785 C   0  0  0  0  0  0  0  0  0  0  0  0
   21.0281   24.7344   -4.7009 C   0  0  0  0  0  0  0  0  0  0  0  0
   21.5047   25.5499   -3.6648 C   0  0  0  0  0  0  0  0  0  0  0  0
   21.0318   25.3209   -2.3702 C   0  0  0  0  0  0  0  0  0  0  0  0
   21.6776   26.4481   -0.7595 I   0  0  0  0  0  0  0  0  0  0  0  0
   20.1265   24.2852   -2.1306 C   0  0  0  0  0  0  0  0  0  0  0  0
   19.6480   23.4906   -3.1645 C   0  0  0  0  0  0  0  0  0  0  0  0
 28 26  2  0  0  0
 41 42  2  0  0  0
 41 39  1  0  0  0
 40 39  1  0  0  0
 42 36  1  0  0  0
 39 38  2  0  0  0
 33 34  2  0  0  0
 33 32  1  0  0  0
 34 29  1  0  0  0
 36 35  1  0  0  0
 36 37  2  0  0  0
 32 31  2  0  0  0
 29 26  1  0  0  0
 29 30  2  0  0  0
 26 27  2  0  0  0
 26 25  1  0  0  0
 38 37  1  0  0  0
 35 25  1  0  0  0
 31 30  1  0  0  0
 25  2  1  0  0  0
 10  8  2  0  0  0
  2  1  1  0  0  0
  2  3  1  0  0  0
  1  5  1  0  0  0
  1  7  1  0  0  0
  3  4  1  0  0  0
  8  7  1  0  0  0
  8  9  2  0  0  0
  8 13  1  0  0  0
  4  5  1  0  0  0
 14 13  2  0  0  0
 14 15  1  0  0  0
  7 17  1  0  0  0
 24 23  2  0  0  0
 24 18  1  0  0  0
 23 21  1  0  0  0
 13 12  1  0  0  0
 15 16  2  0  0  0
 17 18  1  0  0  0
 18 19  2  0  0  0
 21 22  1  0  0  0
 21 20  2  0  0  0
 12 11  2  0  0  0
 16 11  1  0  0  0
 19 20  1  0  0  0
  4  6  1  0  0  0
M  END
> <minimizedAffinity>
-10.14221

$$$$
2QNP_QN2_A_2501


 42 46  0  0  0  0  0  0  0  0999 V2000
   16.5999   23.3008   -5.5139 C   0  0  0  0  0  0  0  0  0  0  0  0
   17.6836   24.0547   -6.3419 C   0  0  0  0  0  0  0  0  0  0  0  0
   17.6798   25.4445   -5.6891 C   0  0  0  0  0  0  0  0  0  0  0  0
   16.2822   25.6926   -5.2596 N   0  0  0  0  0  0  0  0  0  0  0  0
   15.7307   24.4094   -4.8315 C   0  0  0  0  0  0  0  0  0  0  0  0
   15.7380   26.0654   -6.0375 H   0  0  0  0  0  0  0  0  0  0  0  0
   17.0877   22.4090   -4.4717 N   0  0  0  0  0  0  0  0  0  0  0  0
   18.6499   21.6858   -4.6399 S   0  0  0  0  0  0  0  0  0  0  0  0
   19.0369   21.7270   -6.0300 O   0  0  0  0  0  0  0  0  0  0  0  0
   18.7243   20.4951   -3.8491 O   0  0  0  0  0  0  0  0  0  0  0  0
   19.8788   24.4677   -1.9686 C   0  0  0  0  0  0  0  0  0  0  0  0
   19.1343   23.5097   -2.6631 C   0  0  0  0  0  0  0  0  0  0  0  0
   19.6107   22.9607   -3.8441 C   0  0  0  0  0  0  0  0  0  0  0  0
   20.8054   23.3627   -4.4477 C   0  0  0  0  0  0  0  0  0  0  0  0
   21.5216   24.3724   -3.7665 C   0  0  0  0  0  0  0  0  0  0  0  0
   21.0672   24.8951   -2.5687 C   0  0  0  0  0  0  0  0  0  0  0  0
   16.2235   22.0602   -3.3686 C   0  0  0  0  0  0  0  0  0  0  0  0
   15.1215   21.0389   -3.5517 C   0  0  0  0  0  0  0  0  0  0  0  0
   15.0506   20.0328   -2.5756 C   0  0  0  0  0  0  0  0  0  0  0  0
   14.0703   19.0506   -2.6151 C   0  0  0  0  0  0  0  0  0  0  0  0
   13.1913   19.0582   -3.6891 C   0  0  0  0  0  0  0  0  0  0  0  0
   11.7117   17.6435   -3.7578 I   0  0  0  0  0  0  0  0  0  0  0  0
   13.2579   20.0179   -4.6842 C   0  0  0  0  0  0  0  0  0  0  0  0
   14.2235   21.0260   -4.6092 C   0  0  0  0  0  0  0  0  0  0  0  0
   17.4008   23.9084   -7.7727 N   0  0  0  0  0  0  0  0  0  0  0  0
   17.6056   25.2579   -8.7675 S   0  0  0  0  0  0  0  0  0  0  0  0
   17.4225   24.7727  -10.1390 O   0  0  0  0  0  0  0  0  0  0  0  0
   16.6617   26.3087   -8.3465 O   0  0  0  0  0  0  0  0  0  0  0  0
   19.1762   26.0211   -8.6568 C   0  0  0  0  0  0  0  0  0  0  0  0
   19.2229   27.4189   -8.8527 C   0  0  0  0  0  0  0  0  0  0  0  0
   20.4497   28.0862   -8.7662 C   0  0  0  0  0  0  0  0  0  0  0  0
   21.6299   27.3757   -8.5033 C   0  0  0  0  0  0  0  0  0  0  0  0
   21.5916   25.9884   -8.2989 C   0  0  0  0  0  0  0  0  0  0  0  0
   20.3499   25.3428   -8.3506 C   0  0  0  0  0  0  0  0  0  0  0  0
   17.0332   22.6141   -8.3781 C   0  0  0  0  0  0  0  0  0  0  0  0
   15.5103   22.3142   -8.3312 C   0  0  0  0  0  0  0  0  0  0  0  0
   15.0582   20.9944   -8.4897 C   0  0  0  0  0  0  0  0  0  0  0  0
   13.6972   20.6594   -8.4504 C   0  0  0  0  0  0  0  0  0  0  0  0
   12.7683   21.6830   -8.2469 C   0  0  0  0  0  0  0  0  0  0  0  0
   10.7335   21.3114   -8.1892 I   0  0  0  0  0  0  0  0  0  0  0  0
   13.2024   23.0034   -8.1131 C   0  0  0  0  0  0  0  0  0  0  0  0
   14.5533   23.3256   -8.1389 C   0  0  0  0  0  0  0  0  0  0  0  0
 28 26  2  0  0  0
 41 42  2  0  0  0
 41 39  1  0  0  0
 40 39  1  0  0  0
 42 36  1  0  0  0
 39 38  2  0  0  0
 33 34  2  0  0  0
 33 32  1  0  0  0
 34 29  1  0  0  0
 36 35  1  0  0  0
 36 37  2  0  0  0
 32 31  2  0  0  0
 29 26  1  0  0  0
 29 30  2  0  0  0
 26 27  2  0  0  0
 26 25  1  0  0  0
 38 37  1  0  0  0
 35 25  1  0  0  0
 31 30  1  0  0  0
 25  2  1  0  0  0
 10  8  2  0  0  0
  2  1  1  0  0  0
  2  3  1  0  0  0
  1  5  1  0  0  0
  1  7  1  0  0  0
  3  4  1  0  0  0
  8  7  1  0  0  0
  8  9  2  0  0  0
  8 13  1  0  0  0
  4  5  1  0  0  0
 14 13  2  0  0  0
 14 15  1  0  0  0
  7 17  1  0  0  0
 24 23  2  0  0  0
 24 18  1  0  0  0
 23 21  1  0  0  0
 13 12  1  0  0  0
 15 16  2  0  0  0
 17 18  1  0  0  0
 18 19  2  0  0  0
 21 22  1  0  0  0
 21 20  2  0  0  0
 12 11  2  0  0  0
 16 11  1  0  0  0
 19 20  1  0  0  0
  4  6  1  0  0  0
M  END
> <minimizedAffinity>
-9.94537

$$$$
2QNP_QN2_A_2501


 42 46  0  0  0  0  0  0  0  0999 V2000
   18.7720   24.8568   -4.9538 C   0  0  0  0  0  0  0  0  0  0  0  0
   20.1130   24.7654   -4.1652 C   0  0  0  0  0  0  0  0  0  0  0  0
   19.6775   24.0697   -2.8674 C   0  0  0  0  0  0  0  0  0  0  0  0
   18.2949   24.5330   -2.5972 N   0  0  0  0  0  0  0  0  0  0  0  0
   17.6350   24.6917   -3.8907 C   0  0  0  0  0  0  0  0  0  0  0  0
   18.3150   25.4249   -2.1028 H   0  0  0  0  0  0  0  0  0  0  0  0
   18.5636   23.8574   -5.9917 N   0  0  0  0  0  0  0  0  0  0  0  0
   17.7414   24.3063   -7.4457 S   0  0  0  0  0  0  0  0  0  0  0  0
   16.6369   25.1730   -7.1096 O   0  0  0  0  0  0  0  0  0  0  0  0
   17.6003   23.1657   -8.2988 O   0  0  0  0  0  0  0  0  0  0  0  0
   19.6203   27.5941   -8.8756 C   0  0  0  0  0  0  0  0  0  0  0  0
   18.6599   26.6977   -8.3976 C   0  0  0  0  0  0  0  0  0  0  0  0
   18.9927   25.3788   -8.1283 C   0  0  0  0  0  0  0  0  0  0  0  0
   20.2606   24.8440   -8.3726 C   0  0  0  0  0  0  0  0  0  0  0  0
   21.2076   25.7449   -8.9093 C   0  0  0  0  0  0  0  0  0  0  0  0
   20.8889   27.0707   -9.1438 C   0  0  0  0  0  0  0  0  0  0  0  0
   18.9514   22.4873   -5.7514 C   0  0  0  0  0  0  0  0  0  0  0  0
   17.9783   21.5149   -5.1201 C   0  0  0  0  0  0  0  0  0  0  0  0
   18.3349   21.0274   -3.8531 C   0  0  0  0  0  0  0  0  0  0  0  0
   17.5163   20.1488   -3.1564 C   0  0  0  0  0  0  0  0  0  0  0  0
   16.3537   19.7173   -3.7795 C   0  0  0  0  0  0  0  0  0  0  0  0
   15.1071   18.4487   -2.7636 I   0  0  0  0  0  0  0  0  0  0  0  0
   15.9927   20.1549   -5.0420 C   0  0  0  0  0  0  0  0  0  0  0  0
   16.8053   21.0724   -5.7145 C   0  0  0  0  0  0  0  0  0  0  0  0
   20.7489   26.0853   -4.1198 N   0  0  0  0  0  0  0  0  0  0  0  0
   21.3517   26.6289   -2.6387 S   0  0  0  0  0  0  0  0  0  0  0  0
   21.7758   28.0140   -2.8659 O   0  0  0  0  0  0  0  0  0  0  0  0
   20.3123   26.4561   -1.6081 O   0  0  0  0  0  0  0  0  0  0  0  0
   22.7195   25.7260   -2.0258 C   0  0  0  0  0  0  0  0  0  0  0  0
   22.8631   25.6573   -0.6226 C   0  0  0  0  0  0  0  0  0  0  0  0
   23.9322   24.9406   -0.0736 C   0  0  0  0  0  0  0  0  0  0  0  0
   24.8666   24.3069   -0.9054 C   0  0  0  0  0  0  0  0  0  0  0  0
   24.7268   24.3627   -2.3002 C   0  0  0  0  0  0  0  0  0  0  0  0
   23.6292   25.0515   -2.8313 C   0  0  0  0  0  0  0  0  0  0  0  0
   20.9558   26.9057   -5.3286 C   0  0  0  0  0  0  0  0  0  0  0  0
   22.4028   26.8374   -5.8878 C   0  0  0  0  0  0  0  0  0  0  0  0
   23.0123   28.0031   -6.3789 C   0  0  0  0  0  0  0  0  0  0  0  0
   24.3178   28.0071   -6.8903 C   0  0  0  0  0  0  0  0  0  0  0  0
   25.0265   26.8031   -6.9076 C   0  0  0  0  0  0  0  0  0  0  0  0
   26.9521   26.6834   -7.6555 I   0  0  0  0  0  0  0  0  0  0  0  0
   24.4235   25.6313   -6.4458 C   0  0  0  0  0  0  0  0  0  0  0  0
   23.1349   25.6381   -5.9275 C   0  0  0  0  0  0  0  0  0  0  0  0
 28 26  2  0  0  0
 41 42  2  0  0  0
 41 39  1  0  0  0
 40 39  1  0  0  0
 42 36  1  0  0  0
 39 38  2  0  0  0
 33 34  2  0  0  0
 33 32  1  0  0  0
 34 29  1  0  0  0
 36 35  1  0  0  0
 36 37  2  0  0  0
 32 31  2  0  0  0
 29 26  1  0  0  0
 29 30  2  0  0  0
 26 27  2  0  0  0
 26 25  1  0  0  0
 38 37  1  0  0  0
 35 25  1  0  0  0
 31 30  1  0  0  0
 25  2  1  0  0  0
 10  8  2  0  0  0
  2  1  1  0  0  0
  2  3  1  0  0  0
  1  5  1  0  0  0
  1  7  1  0  0  0
  3  4  1  0  0  0
  8  7  1  0  0  0
  8  9  2  0  0  0
  8 13  1  0  0  0
  4  5  1  0  0  0
 14 13  2  0  0  0
 14 15  1  0  0  0
  7 17  1  0  0  0
 24 23  2  0  0  0
 24 18  1  0  0  0
 23 21  1  0  0  0
 13 12  1  0  0  0
 15 16  2  0  0  0
 17 18  1  0  0  0
 18 19  2  0  0  0
 21 22  1  0  0  0
 21 20  2  0  0  0
 12 11  2  0  0  0
 16 11  1  0  0  0
 19 20  1  0  0  0
  4  6  1  0  0  0
M  END
> <minimizedAffinity>
-9.76441

$$$$
2QNP_QN2_A_2501


 42 46  0  0  0  0  0  0  0  0999 V2000
   17.2885   21.9785   -5.3485 C   0  0  0  0  0  0  0  0  0  0  0  0
   16.7992   21.6178   -3.9135 C   0  0  0  0  0  0  0  0  0  0  0  0
   18.0572   20.9958   -3.2904 C   0  0  0  0  0  0  0  0  0  0  0  0
   18.7644   20.3051   -4.3958 N   0  0  0  0  0  0  0  0  0  0  0  0
   18.5637   21.1064   -5.6006 C   0  0  0  0  0  0  0  0  0  0  0  0
   18.3779   19.3706   -4.5287 H   0  0  0  0  0  0  0  0  0  0  0  0
   17.6452   23.3710   -5.5784 N   0  0  0  0  0  0  0  0  0  0  0  0
   16.3933   24.5273   -5.8746 S   0  0  0  0  0  0  0  0  0  0  0  0
   16.7772   25.7913   -5.2925 O   0  0  0  0  0  0  0  0  0  0  0  0
   15.1127   23.9280   -5.6520 O   0  0  0  0  0  0  0  0  0  0  0  0
   17.6560   25.9623   -9.4427 C   0  0  0  0  0  0  0  0  0  0  0  0
   17.3867   25.7981   -8.0807 C   0  0  0  0  0  0  0  0  0  0  0  0
   16.6345   24.7234   -7.6311 C   0  0  0  0  0  0  0  0  0  0  0  0
   16.0480   23.7878   -8.4878 C   0  0  0  0  0  0  0  0  0  0  0  0
   16.2795   23.9961   -9.8661 C   0  0  0  0  0  0  0  0  0  0  0  0
   17.0606   25.0461  -10.3151 C   0  0  0  0  0  0  0  0  0  0  0  0
   19.0370   23.7474   -5.6591 C   0  0  0  0  0  0  0  0  0  0  0  0
   19.7709   24.2372   -4.4291 C   0  0  0  0  0  0  0  0  0  0  0  0
   21.1326   24.5288   -4.6041 C   0  0  0  0  0  0  0  0  0  0  0  0
   21.9121   25.0094   -3.5607 C   0  0  0  0  0  0  0  0  0  0  0  0
   21.3149   25.1385   -2.3146 C   0  0  0  0  0  0  0  0  0  0  0  0
   22.4288   25.8784   -0.7631 I   0  0  0  0  0  0  0  0  0  0  0  0
   19.9828   24.8270   -2.1043 C   0  0  0  0  0  0  0  0  0  0  0  0
   19.1989   24.3844   -3.1737 C   0  0  0  0  0  0  0  0  0  0  0  0
   15.5555   20.8466   -3.9962 N   0  0  0  0  0  0  0  0  0  0  0  0
   15.5966   19.2181   -3.5502 S   0  0  0  0  0  0  0  0  0  0  0  0
   16.1208   18.4994   -4.7158 O   0  0  0  0  0  0  0  0  0  0  0  0
   16.3974   19.0802   -2.3206 O   0  0  0  0  0  0  0  0  0  0  0  0
   14.0429   18.5313   -3.1308 C   0  0  0  0  0  0  0  0  0  0  0  0
   13.4976   17.5878   -4.0291 C   0  0  0  0  0  0  0  0  0  0  0  0
   12.2622   16.9969   -3.7418 C   0  0  0  0  0  0  0  0  0  0  0  0
   11.5582   17.3468   -2.5805 C   0  0  0  0  0  0  0  0  0  0  0  0
   12.0963   18.2767   -1.6784 C   0  0  0  0  0  0  0  0  0  0  0  0
   13.3516   18.8288   -1.9625 C   0  0  0  0  0  0  0  0  0  0  0  0
   14.2665   21.4615   -4.3670 C   0  0  0  0  0  0  0  0  0  0  0  0
   13.6844   20.9298   -5.7048 C   0  0  0  0  0  0  0  0  0  0  0  0
   12.3933   20.3783   -5.7288 C   0  0  0  0  0  0  0  0  0  0  0  0
   11.8103   19.8879   -6.9059 C   0  0  0  0  0  0  0  0  0  0  0  0
   12.5499   19.9547   -8.0894 C   0  0  0  0  0  0  0  0  0  0  0  0
   11.8008   19.2453   -9.8832 I   0  0  0  0  0  0  0  0  0  0  0  0
   13.8446   20.4774   -8.0752 C   0  0  0  0  0  0  0  0  0  0  0  0
   14.4100   20.9744   -6.9078 C   0  0  0  0  0  0  0  0  0  0  0  0
 28 26  2  0  0  0
 41 42  2  0  0  0
 41 39  1  0  0  0
 40 39  1  0  0  0
 42 36  1  0  0  0
 39 38  2  0  0  0
 33 34  2  0  0  0
 33 32  1  0  0  0
 34 29  1  0  0  0
 36 35  1  0  0  0
 36 37  2  0  0  0
 32 31  2  0  0  0
 29 26  1  0  0  0
 29 30  2  0  0  0
 26 27  2  0  0  0
 26 25  1  0  0  0
 38 37  1  0  0  0
 35 25  1  0  0  0
 31 30  1  0  0  0
 25  2  1  0  0  0
 10  8  2  0  0  0
  2  1  1  0  0  0
  2  3  1  0  0  0
  1  5  1  0  0  0
  1  7  1  0  0  0
  3  4  1  0  0  0
  8  7  1  0  0  0
  8  9  2  0  0  0
  8 13  1  0  0  0
  4  5  1  0  0  0
 14 13  2  0  0  0
 14 15  1  0  0  0
  7 17  1  0  0  0
 24 23  2  0  0  0
 24 18  1  0  0  0
 23 21  1  0  0  0
 13 12  1  0  0  0
 15 16  2  0  0  0
 17 18  1  0  0  0
 18 19  2  0  0  0
 21 22  1  0  0  0
 21 20  2  0  0  0
 12 11  2  0  0  0
 16 11  1  0  0  0
 19 20  1  0  0  0
  4  6  1  0  0  0
M  END
> <minimizedAffinity>
-9.72431

$$$$
2QNP_QN2_A_2501


 42 46  0  0  0  0  0  0  0  0999 V2000
   20.4438   24.6952   -4.7846 C   0  0  0  0  0  0  0  0  0  0  0  0
   18.9761   24.7517   -4.2637 C   0  0  0  0  0  0  0  0  0  0  0  0
   19.1347   24.3065   -2.8028 C   0  0  0  0  0  0  0  0  0  0  0  0
   20.2482   23.3271   -2.7905 N   0  0  0  0  0  0  0  0  0  0  0  0
   21.2187   23.7682   -3.7893 C   0  0  0  0  0  0  0  0  0  0  0  0
   19.8999   22.3982   -3.0273 H   0  0  0  0  0  0  0  0  0  0  0  0
   21.1523   25.9648   -4.8585 N   0  0  0  0  0  0  0  0  0  0  0  0
   22.1307   26.3083   -6.2429 S   0  0  0  0  0  0  0  0  0  0  0  0
   23.0437   25.2102   -6.4542 O   0  0  0  0  0  0  0  0  0  0  0  0
   22.5551   27.6750   -6.2137 O   0  0  0  0  0  0  0  0  0  0  0  0
   19.2594   27.1807   -8.9592 C   0  0  0  0  0  0  0  0  0  0  0  0
   20.2082   27.2607   -7.9356 C   0  0  0  0  0  0  0  0  0  0  0  0
   20.8752   26.1268   -7.4969 C   0  0  0  0  0  0  0  0  0  0  0  0
   20.6070   24.8445   -7.9837 C   0  0  0  0  0  0  0  0  0  0  0  0
   19.6057   24.7683   -8.9777 C   0  0  0  0  0  0  0  0  0  0  0  0
   18.9652   25.9026   -9.4440 C   0  0  0  0  0  0  0  0  0  0  0  0
   21.1123   26.8710   -3.7349 C   0  0  0  0  0  0  0  0  0  0  0  0
   21.8918   26.5635   -2.4743 C   0  0  0  0  0  0  0  0  0  0  0  0
   23.1785   26.0358   -2.6634 C   0  0  0  0  0  0  0  0  0  0  0  0
   24.0048   25.7345   -1.5893 C   0  0  0  0  0  0  0  0  0  0  0  0
   23.4952   25.9167   -0.3113 C   0  0  0  0  0  0  0  0  0  0  0  0
   24.7017   25.5149    1.2943 I   0  0  0  0  0  0  0  0  0  0  0  0
   22.2180   26.4041   -0.0940 C   0  0  0  0  0  0  0  0  0  0  0  0
   21.4124   26.7433   -1.1848 C   0  0  0  0  0  0  0  0  0  0  0  0
   18.1012   24.0065   -5.1736 N   0  0  0  0  0  0  0  0  0  0  0  0
   16.7770   24.8124   -5.8441 S   0  0  0  0  0  0  0  0  0  0  0  0
   15.8987   25.1408   -4.7169 O   0  0  0  0  0  0  0  0  0  0  0  0
   17.2635   25.9714   -6.6138 O   0  0  0  0  0  0  0  0  0  0  0  0
   15.8596   23.8791   -7.0055 C   0  0  0  0  0  0  0  0  0  0  0  0
   14.7190   23.2007   -6.5224 C   0  0  0  0  0  0  0  0  0  0  0  0
   13.9400   22.4464   -7.4068 C   0  0  0  0  0  0  0  0  0  0  0  0
   14.2929   22.3477   -8.7604 C   0  0  0  0  0  0  0  0  0  0  0  0
   15.4193   23.0253   -9.2506 C   0  0  0  0  0  0  0  0  0  0  0  0
   16.1650   23.8068   -8.3593 C   0  0  0  0  0  0  0  0  0  0  0  0
   18.3871   22.6191   -5.5865 C   0  0  0  0  0  0  0  0  0  0  0  0
   17.4422   21.5695   -4.9409 C   0  0  0  0  0  0  0  0  0  0  0  0
   16.7711   21.8816   -3.7477 C   0  0  0  0  0  0  0  0  0  0  0  0
   15.9004   20.9793   -3.1203 C   0  0  0  0  0  0  0  0  0  0  0  0
   15.7027   19.7289   -3.7117 C   0  0  0  0  0  0  0  0  0  0  0  0
   14.4563   18.3095   -2.8670 I   0  0  0  0  0  0  0  0  0  0  0  0
   16.3833   19.3959   -4.8846 C   0  0  0  0  0  0  0  0  0  0  0  0
   17.2332   20.3005   -5.5080 C   0  0  0  0  0  0  0  0  0  0  0  0
 28 26  2  0  0  0
 41 42  2  0  0  0
 41 39  1  0  0  0
 40 39  1  0  0  0
 42 36  1  0  0  0
 39 38  2  0  0  0
 33 34  2  0  0  0
 33 32  1  0  0  0
 34 29  1  0  0  0
 36 35  1  0  0  0
 36 37  2  0  0  0
 32 31  2  0  0  0
 29 26  1  0  0  0
 29 30  2  0  0  0
 26 27  2  0  0  0
 26 25  1  0  0  0
 38 37  1  0  0  0
 35 25  1  0  0  0
 31 30  1  0  0  0
 25  2  1  0  0  0
 10  8  2  0  0  0
  2  1  1  0  0  0
  2  3  1  0  0  0
  1  5  1  0  0  0
  1  7  1  0  0  0
  3  4  1  0  0  0
  8  7  1  0  0  0
  8  9  2  0  0  0
  8 13  1  0  0  0
  4  5  1  0  0  0
 14 13  2  0  0  0
 14 15  1  0  0  0
  7 17  1  0  0  0
 24 23  2  0  0  0
 24 18  1  0  0  0
 23 21  1  0  0  0
 13 12  1  0  0  0
 15 16  2  0  0  0
 17 18  1  0  0  0
 18 19  2  0  0  0
 21 22  1  0  0  0
 21 20  2  0  0  0
 12 11  2  0  0  0
 16 11  1  0  0  0
 19 20  1  0  0  0
  4  6  1  0  0  0
M  END
> <minimizedAffinity>
-9.65386

$$$$
2QNP_QN2_A_2501


 42 46  0  0  0  0  0  0  0  0999 V2000
   16.3214   22.4495   -5.3126 C   0  0  0  0  0  0  0  0  0  0  0  0
   16.5429   23.9228   -5.7695 C   0  0  0  0  0  0  0  0  0  0  0  0
   15.4513   24.6702   -4.9899 C   0  0  0  0  0  0  0  0  0  0  0  0
   14.3073   23.7325   -4.8841 N   0  0  0  0  0  0  0  0  0  0  0  0
   14.8647   22.3896   -4.7428 C   0  0  0  0  0  0  0  0  0  0  0  0
   13.7321   23.7859   -5.7248 H   0  0  0  0  0  0  0  0  0  0  0  0
   17.2248   21.9485   -4.2869 N   0  0  0  0  0  0  0  0  0  0  0  0
   17.7506   20.3020   -4.3533 S   0  0  0  0  0  0  0  0  0  0  0  0
   18.8336   20.1190   -3.4166 O   0  0  0  0  0  0  0  0  0  0  0  0
   17.8211   19.8666   -5.7150 O   0  0  0  0  0  0  0  0  0  0  0  0
   14.8920   19.3632   -1.6456 C   0  0  0  0  0  0  0  0  0  0  0  0
   16.0294   19.8803   -2.2729 C   0  0  0  0  0  0  0  0  0  0  0  0
   16.3289   19.5467   -3.5852 C   0  0  0  0  0  0  0  0  0  0  0  0
   15.5751   18.6402   -4.3357 C   0  0  0  0  0  0  0  0  0  0  0  0
   14.4602   18.0801   -3.6723 C   0  0  0  0  0  0  0  0  0  0  0  0
   14.1376   18.4397   -2.3758 C   0  0  0  0  0  0  0  0  0  0  0  0
   17.5851   22.7982   -3.1763 C   0  0  0  0  0  0  0  0  0  0  0  0
   18.9646   23.4168   -3.1007 C   0  0  0  0  0  0  0  0  0  0  0  0
   19.7788   23.2375   -4.2298 C   0  0  0  0  0  0  0  0  0  0  0  0
   21.0564   23.7764   -4.2966 C   0  0  0  0  0  0  0  0  0  0  0  0
   21.5310   24.4534   -3.1819 C   0  0  0  0  0  0  0  0  0  0  0  0
   23.3986   25.2906   -3.2620 I   0  0  0  0  0  0  0  0  0  0  0  0
   20.7633   24.6173   -2.0419 C   0  0  0  0  0  0  0  0  0  0  0  0
   19.4629   24.1059   -2.0044 C   0  0  0  0  0  0  0  0  0  0  0  0
   16.5804   23.9845   -7.2336 N   0  0  0  0  0  0  0  0  0  0  0  0
   16.2101   22.5827   -8.0999 S   0  0  0  0  0  0  0  0  0  0  0  0
   16.6040   22.8556   -9.4856 O   0  0  0  0  0  0  0  0  0  0  0  0
   16.8940   21.4385   -7.4710 O   0  0  0  0  0  0  0  0  0  0  0  0
   14.5188   22.1344   -8.0846 C   0  0  0  0  0  0  0  0  0  0  0  0
   14.2226   20.7623   -7.9293 C   0  0  0  0  0  0  0  0  0  0  0  0
   12.8875   20.3447   -7.8995 C   0  0  0  0  0  0  0  0  0  0  0  0
   11.8471   21.2747   -8.0385 C   0  0  0  0  0  0  0  0  0  0  0  0
   12.1319   22.6406   -8.1845 C   0  0  0  0  0  0  0  0  0  0  0  0
   13.4727   23.0449   -8.1731 C   0  0  0  0  0  0  0  0  0  0  0  0
   16.8412   25.2384   -7.9661 C   0  0  0  0  0  0  0  0  0  0  0  0
   18.3103   25.7296   -7.8574 C   0  0  0  0  0  0  0  0  0  0  0  0
   18.8491   26.0316   -6.5965 C   0  0  0  0  0  0  0  0  0  0  0  0
   20.1699   26.4728   -6.4327 C   0  0  0  0  0  0  0  0  0  0  0  0
   20.9674   26.6141   -7.5712 C   0  0  0  0  0  0  0  0  0  0  0  0
   22.9247   27.2752   -7.4546 I   0  0  0  0  0  0  0  0  0  0  0  0
   20.4366   26.3416   -8.8337 C   0  0  0  0  0  0  0  0  0  0  0  0
   19.1316   25.8912   -8.9866 C   0  0  0  0  0  0  0  0  0  0  0  0
 28 26  2  0  0  0
 41 42  2  0  0  0
 41 39  1  0  0  0
 40 39  1  0  0  0
 42 36  1  0  0  0
 39 38  2  0  0  0
 33 34  2  0  0  0
 33 32  1  0  0  0
 34 29  1  0  0  0
 36 35  1  0  0  0
 36 37  2  0  0  0
 32 31  2  0  0  0
 29 26  1  0  0  0
 29 30  2  0  0  0
 26 27  2  0  0  0
 26 25  1  0  0  0
 38 37  1  0  0  0
 35 25  1  0  0  0
 31 30  1  0  0  0
 25  2  1  0  0  0
 10  8  2  0  0  0
  2  1  1  0  0  0
  2  3  1  0  0  0
  1  5  1  0  0  0
  1  7  1  0  0  0
  3  4  1  0  0  0
  8  7  1  0  0  0
  8  9  2  0  0  0
  8 13  1  0  0  0
  4  5  1  0  0  0
 14 13  2  0  0  0
 14 15  1  0  0  0
  7 17  1  0  0  0
 24 23  2  0  0  0
 24 18  1  0  0  0
 23 21  1  0  0  0
 13 12  1  0  0  0
 15 16  2  0  0  0
 17 18  1  0  0  0
 18 19  2  0  0  0
 21 22  1  0  0  0
 21 20  2  0  0  0
 12 11  2  0  0  0
 16 11  1  0  0  0
 19 20  1  0  0  0
  4  6  1  0  0  0
M  END
> <minimizedAffinity>
-9.60688

$$$$
2QNP_QN2_A_2501


 42 46  0  0  0  0  0  0  0  0999 V2000
   18.5787   23.2806   -5.7501 C   0  0  0  0  0  0  0  0  0  0  0  0
   18.3057   24.7062   -5.1828 C   0  0  0  0  0  0  0  0  0  0  0  0
   17.7646   25.4458   -6.4149 C   0  0  0  0  0  0  0  0  0  0  0  0
   18.4681   24.8650   -7.5841 N   0  0  0  0  0  0  0  0  0  0  0  0
   18.6655   23.4449   -7.3044 C   0  0  0  0  0  0  0  0  0  0  0  0
   19.3694   25.3247   -7.7140 H   0  0  0  0  0  0  0  0  0  0  0  0
   17.5740   22.2673   -5.4619 N   0  0  0  0  0  0  0  0  0  0  0  0
   18.0797   20.6535   -5.0994 S   0  0  0  0  0  0  0  0  0  0  0  0
   19.1864   20.7071   -4.1741 O   0  0  0  0  0  0  0  0  0  0  0  0
   18.1074   19.8699   -6.2969 O   0  0  0  0  0  0  0  0  0  0  0  0
   14.9632   18.5019   -3.6702 C   0  0  0  0  0  0  0  0  0  0  0  0
   16.0326   18.9667   -4.4413 C   0  0  0  0  0  0  0  0  0  0  0  0
   16.6718   20.1557   -4.1237 C   0  0  0  0  0  0  0  0  0  0  0  0
   16.2625   20.9896   -3.0795 C   0  0  0  0  0  0  0  0  0  0  0  0
   15.1449   20.5376   -2.3425 C   0  0  0  0  0  0  0  0  0  0  0  0
   14.5287   19.3335   -2.6335 C   0  0  0  0  0  0  0  0  0  0  0  0
   16.1731   22.5962   -5.5840 C   0  0  0  0  0  0  0  0  0  0  0  0
   15.3116   21.9064   -6.6199 C   0  0  0  0  0  0  0  0  0  0  0  0
   14.1792   21.2386   -6.1282 C   0  0  0  0  0  0  0  0  0  0  0  0
   13.2944   20.5878   -6.9773 C   0  0  0  0  0  0  0  0  0  0  0  0
   13.5962   20.5666   -8.3317 C   0  0  0  0  0  0  0  0  0  0  0  0
   12.2925   19.6450   -9.6147 I   0  0  0  0  0  0  0  0  0  0  0  0
   14.7232   21.1879   -8.8414 C   0  0  0  0  0  0  0  0  0  0  0  0
   15.5830   21.8756   -7.9802 C   0  0  0  0  0  0  0  0  0  0  0  0
   19.5001   25.1979   -4.4898 N   0  0  0  0  0  0  0  0  0  0  0  0
   20.2227   24.1956   -3.3385 S   0  0  0  0  0  0  0  0  0  0  0  0
   19.1201   23.4945   -2.6731 O   0  0  0  0  0  0  0  0  0  0  0  0
   21.2004   23.3225   -4.0124 O   0  0  0  0  0  0  0  0  0  0  0  0
   21.1604   25.0318   -2.1207 C   0  0  0  0  0  0  0  0  0  0  0  0
   22.4360   24.5044   -1.8224 C   0  0  0  0  0  0  0  0  0  0  0  0
   23.2361   25.1366   -0.8641 C   0  0  0  0  0  0  0  0  0  0  0  0
   22.7737   26.2760   -0.1898 C   0  0  0  0  0  0  0  0  0  0  0  0
   21.5115   26.8117   -0.4860 C   0  0  0  0  0  0  0  0  0  0  0  0
   20.7406   26.1888   -1.4755 C   0  0  0  0  0  0  0  0  0  0  0  0
   20.1346   26.4871   -4.8251 C   0  0  0  0  0  0  0  0  0  0  0  0
   21.5493   26.3419   -5.4485 C   0  0  0  0  0  0  0  0  0  0  0  0
   22.6761   26.7406   -4.7117 C   0  0  0  0  0  0  0  0  0  0  0  0
   23.9792   26.6284   -5.2169 C   0  0  0  0  0  0  0  0  0  0  0  0
   24.1497   26.1013   -6.4996 C   0  0  0  0  0  0  0  0  0  0  0  0
   26.0229   25.9056   -7.3566 I   0  0  0  0  0  0  0  0  0  0  0  0
   23.0362   25.7244   -7.2532 C   0  0  0  0  0  0  0  0  0  0  0  0
   21.7493   25.8252   -6.7404 C   0  0  0  0  0  0  0  0  0  0  0  0
 28 26  2  0  0  0
 41 42  2  0  0  0
 41 39  1  0  0  0
 40 39  1  0  0  0
 42 36  1  0  0  0
 39 38  2  0  0  0
 33 34  2  0  0  0
 33 32  1  0  0  0
 34 29  1  0  0  0
 36 35  1  0  0  0
 36 37  2  0  0  0
 32 31  2  0  0  0
 29 26  1  0  0  0
 29 30  2  0  0  0
 26 27  2  0  0  0
 26 25  1  0  0  0
 38 37  1  0  0  0
 35 25  1  0  0  0
 31 30  1  0  0  0
 25  2  1  0  0  0
 10  8  2  0  0  0
  2  1  1  0  0  0
  2  3  1  0  0  0
  1  5  1  0  0  0
  1  7  1  0  0  0
  3  4  1  0  0  0
  8  7  1  0  0  0
  8  9  2  0  0  0
  8 13  1  0  0  0
  4  5  1  0  0  0
 14 13  2  0  0  0
 14 15  1  0  0  0
  7 17  1  0  0  0
 24 23  2  0  0  0
 24 18  1  0  0  0
 23 21  1  0  0  0
 13 12  1  0  0  0
 15 16  2  0  0  0
 17 18  1  0  0  0
 18 19  2  0  0  0
 21 22  1  0  0  0
 21 20  2  0  0  0
 12 11  2  0  0  0
 16 11  1  0  0  0
 19 20  1  0  0  0
  4  6  1  0  0  0
M  END
> <minimizedAffinity>
-9.57059

$$$$
2QNP_QN2_A_2501


 42 46  0  0  0  0  0  0  0  0999 V2000
   19.2521   25.2122   -5.7683 C   0  0  0  0  0  0  0  0  0  0  0  0
   17.7770   25.2094   -6.2709 C   0  0  0  0  0  0  0  0  0  0  0  0
   16.9897   25.3661   -4.9619 C   0  0  0  0  0  0  0  0  0  0  0  0
   17.7778   24.6615   -3.9219 N   0  0  0  0  0  0  0  0  0  0  0  0
   19.1886   24.8602   -4.2444 C   0  0  0  0  0  0  0  0  0  0  0  0
   17.5543   23.6663   -3.9278 H   0  0  0  0  0  0  0  0  0  0  0  0
   19.9801   26.4651   -5.9090 N   0  0  0  0  0  0  0  0  0  0  0  0
   20.4434   27.0019   -7.4866 S   0  0  0  0  0  0  0  0  0  0  0  0
   20.0900   28.3943   -7.6291 O   0  0  0  0  0  0  0  0  0  0  0  0
   20.0990   26.0109   -8.4602 O   0  0  0  0  0  0  0  0  0  0  0  0
   24.2837   25.7340   -7.3173 C   0  0  0  0  0  0  0  0  0  0  0  0
   22.8911   25.7879   -7.4272 C   0  0  0  0  0  0  0  0  0  0  0  0
   22.2120   26.9846   -7.2552 C   0  0  0  0  0  0  0  0  0  0  0  0
   22.8445   28.1796   -6.9012 C   0  0  0  0  0  0  0  0  0  0  0  0
   24.2457   28.1008   -6.7370 C   0  0  0  0  0  0  0  0  0  0  0  0
   24.9302   26.9165   -6.9446 C   0  0  0  0  0  0  0  0  0  0  0  0
   20.3942   27.1863   -4.7284 C   0  0  0  0  0  0  0  0  0  0  0  0
   21.4092   26.5853   -3.7799 C   0  0  0  0  0  0  0  0  0  0  0  0
   21.2978   26.9754   -2.4363 C   0  0  0  0  0  0  0  0  0  0  0  0
   22.1520   26.4766   -1.4622 C   0  0  0  0  0  0  0  0  0  0  0  0
   23.1647   25.6192   -1.8687 C   0  0  0  0  0  0  0  0  0  0  0  0
   24.4194   24.8383   -0.4506 I   0  0  0  0  0  0  0  0  0  0  0  0
   23.3197   25.2430   -3.1917 C   0  0  0  0  0  0  0  0  0  0  0  0
   22.4263   25.7196   -4.1554 C   0  0  0  0  0  0  0  0  0  0  0  0
   17.5528   24.0465   -7.1346 N   0  0  0  0  0  0  0  0  0  0  0  0
   16.5482   24.2344   -8.4792 S   0  0  0  0  0  0  0  0  0  0  0  0
   15.9668   25.5750   -8.3573 O   0  0  0  0  0  0  0  0  0  0  0  0
   17.3396   24.0068   -9.7016 O   0  0  0  0  0  0  0  0  0  0  0  0
   15.2430   23.0744   -8.5895 C   0  0  0  0  0  0  0  0  0  0  0  0
   15.4570   21.9478   -9.4138 C   0  0  0  0  0  0  0  0  0  0  0  0
   14.4528   20.9807   -9.5333 C   0  0  0  0  0  0  0  0  0  0  0  0
   13.2346   21.1314   -8.8551 C   0  0  0  0  0  0  0  0  0  0  0  0
   13.0168   22.2428   -8.0273 C   0  0  0  0  0  0  0  0  0  0  0  0
   14.0475   23.1809   -7.8890 C   0  0  0  0  0  0  0  0  0  0  0  0
   18.2382   22.7577   -6.9197 C   0  0  0  0  0  0  0  0  0  0  0  0
   17.5911   21.8851   -5.8102 C   0  0  0  0  0  0  0  0  0  0  0  0
   18.4073   21.2697   -4.8476 C   0  0  0  0  0  0  0  0  0  0  0  0
   17.8824   20.4759   -3.8179 C   0  0  0  0  0  0  0  0  0  0  0  0
   16.4979   20.2974   -3.7588 C   0  0  0  0  0  0  0  0  0  0  0  0
   15.6115   19.1325   -2.2962 I   0  0  0  0  0  0  0  0  0  0  0  0
   15.6766   20.8827   -4.7245 C   0  0  0  0  0  0  0  0  0  0  0  0
   16.2027   21.6796   -5.7332 C   0  0  0  0  0  0  0  0  0  0  0  0
 28 26  2  0  0  0
 41 42  2  0  0  0
 41 39  1  0  0  0
 40 39  1  0  0  0
 42 36  1  0  0  0
 39 38  2  0  0  0
 33 34  2  0  0  0
 33 32  1  0  0  0
 34 29  1  0  0  0
 36 35  1  0  0  0
 36 37  2  0  0  0
 32 31  2  0  0  0
 29 26  1  0  0  0
 29 30  2  0  0  0
 26 27  2  0  0  0
 26 25  1  0  0  0
 38 37  1  0  0  0
 35 25  1  0  0  0
 31 30  1  0  0  0
 25  2  1  0  0  0
 10  8  2  0  0  0
  2  1  1  0  0  0
  2  3  1  0  0  0
  1  5  1  0  0  0
  1  7  1  0  0  0
  3  4  1  0  0  0
  8  7  1  0  0  0
  8  9  2  0  0  0
  8 13  1  0  0  0
  4  5  1  0  0  0
 14 13  2  0  0  0
 14 15  1  0  0  0
  7 17  1  0  0  0
 24 23  2  0  0  0
 24 18  1  0  0  0
 23 21  1  0  0  0
 13 12  1  0  0  0
 15 16  2  0  0  0
 17 18  1  0  0  0
 18 19  2  0  0  0
 21 22  1  0  0  0
 21 20  2  0  0  0
 12 11  2  0  0  0
 16 11  1  0  0  0
 19 20  1  0  0  0
  4  6  1  0  0  0
M  END
> <minimizedAffinity>
-9.53992

$$$$
2QNP_QN2_A_2501


 42 46  0  0  0  0  0  0  0  0999 V2000
   19.2091   25.8578   -6.8655 C   0  0  0  0  0  0  0  0  0  0  0  0
   18.6843   24.3952   -6.9825 C   0  0  0  0  0  0  0  0  0  0  0  0
   19.1868   23.9822   -8.3735 C   0  0  0  0  0  0  0  0  0  0  0  0
   19.1545   25.2109   -9.2032 N   0  0  0  0  0  0  0  0  0  0  0  0
   19.5034   26.3282   -8.3292 C   0  0  0  0  0  0  0  0  0  0  0  0
   18.2207   25.3476   -9.5900 H   0  0  0  0  0  0  0  0  0  0  0  0
   20.4206   26.0487   -6.0813 N   0  0  0  0  0  0  0  0  0  0  0  0
   21.1189   27.6274   -5.9737 S   0  0  0  0  0  0  0  0  0  0  0  0
   21.0622   28.0711   -4.6011 O   0  0  0  0  0  0  0  0  0  0  0  0
   20.6728   28.4342   -7.0685 O   0  0  0  0  0  0  0  0  0  0  0  0
   25.1151   27.2128   -5.4806 C   0  0  0  0  0  0  0  0  0  0  0  0
   23.7769   27.5919   -5.3393 C   0  0  0  0  0  0  0  0  0  0  0  0
   22.8215   27.1754   -6.2540 C   0  0  0  0  0  0  0  0  0  0  0  0
   23.1276   26.4235   -7.3917 C   0  0  0  0  0  0  0  0  0  0  0  0
   24.4920   26.0944   -7.5545 C   0  0  0  0  0  0  0  0  0  0  0  0
   25.4416   26.4768   -6.6237 C   0  0  0  0  0  0  0  0  0  0  0  0
   21.0774   24.9052   -5.4927 C   0  0  0  0  0  0  0  0  0  0  0  0
   21.6752   24.9950   -4.1050 C   0  0  0  0  0  0  0  0  0  0  0  0
   23.0013   24.5527   -3.9797 C   0  0  0  0  0  0  0  0  0  0  0  0
   23.6727   24.6057   -2.7657 C   0  0  0  0  0  0  0  0  0  0  0  0
   22.9695   25.0578   -1.6578 C   0  0  0  0  0  0  0  0  0  0  0  0
   23.9424   25.1813    0.1403 I   0  0  0  0  0  0  0  0  0  0  0  0
   21.6507   25.4691   -1.7444 C   0  0  0  0  0  0  0  0  0  0  0  0
   21.0002   25.4503   -2.9816 C   0  0  0  0  0  0  0  0  0  0  0  0
   17.2521   24.3591   -6.6723 N   0  0  0  0  0  0  0  0  0  0  0  0
   16.7892   24.0213   -5.0835 S   0  0  0  0  0  0  0  0  0  0  0  0
   18.0127   24.1246   -4.2821 O   0  0  0  0  0  0  0  0  0  0  0  0
   15.7091   24.9455   -4.6945 O   0  0  0  0  0  0  0  0  0  0  0  0
   16.1025   22.4304   -4.8404 C   0  0  0  0  0  0  0  0  0  0  0  0
   16.9251   21.3250   -5.1499 C   0  0  0  0  0  0  0  0  0  0  0  0
   16.4339   20.0277   -4.9661 C   0  0  0  0  0  0  0  0  0  0  0  0
   15.1298   19.8202   -4.4940 C   0  0  0  0  0  0  0  0  0  0  0  0
   14.3088   20.9124   -4.1759 C   0  0  0  0  0  0  0  0  0  0  0  0
   14.8305   22.2030   -4.3291 C   0  0  0  0  0  0  0  0  0  0  0  0
   16.2179   24.6915   -7.6707 C   0  0  0  0  0  0  0  0  0  0  0  0
   15.3601   23.4734   -8.1086 C   0  0  0  0  0  0  0  0  0  0  0  0
   14.0449   23.3449   -7.6342 C   0  0  0  0  0  0  0  0  0  0  0  0
   13.2190   22.2720   -7.9984 C   0  0  0  0  0  0  0  0  0  0  0  0
   13.7340   21.3029   -8.8632 C   0  0  0  0  0  0  0  0  0  0  0  0
   12.6151   19.6659   -9.4548 I   0  0  0  0  0  0  0  0  0  0  0  0
   15.0487   21.4049   -9.3225 C   0  0  0  0  0  0  0  0  0  0  0  0
   15.8562   22.4783   -8.9686 C   0  0  0  0  0  0  0  0  0  0  0  0
 28 26  2  0  0  0
 41 42  2  0  0  0
 41 39  1  0  0  0
 40 39  1  0  0  0
 42 36  1  0  0  0
 39 38  2  0  0  0
 33 34  2  0  0  0
 33 32  1  0  0  0
 34 29  1  0  0  0
 36 35  1  0  0  0
 36 37  2  0  0  0
 32 31  2  0  0  0
 29 26  1  0  0  0
 29 30  2  0  0  0
 26 27  2  0  0  0
 26 25  1  0  0  0
 38 37  1  0  0  0
 35 25  1  0  0  0
 31 30  1  0  0  0
 25  2  1  0  0  0
 10  8  2  0  0  0
  2  1  1  0  0  0
  2  3  1  0  0  0
  1  5  1  0  0  0
  1  7  1  0  0  0
  3  4  1  0  0  0
  8  7  1  0  0  0
  8  9  2  0  0  0
  8 13  1  0  0  0
  4  5  1  0  0  0
 14 13  2  0  0  0
 14 15  1  0  0  0
  7 17  1  0  0  0
 24 23  2  0  0  0
 24 18  1  0  0  0
 23 21  1  0  0  0
 13 12  1  0  0  0
 15 16  2  0  0  0
 17 18  1  0  0  0
 18 19  2  0  0  0
 21 22  1  0  0  0
 21 20  2  0  0  0
 12 11  2  0  0  0
 16 11  1  0  0  0
 19 20  1  0  0  0
  4  6  1  0  0  0
M  END
> <minimizedAffinity>
-9.51683

$$$$
