4IPI_LMR_A_402


 12 11  0  0  0  0  0  0  0  0999 V2000
   96.0938  -19.7614   53.2665 C   0  0  0  0  0  0  0  0  0  0  0  0
   96.5928  -18.8612   52.3023 O   0  0  0  0  0  0  0  0  0  0  0  0
   97.3588  -18.3900   52.6657 H   0  0  0  0  0  0  0  0  0  0  0  0
   95.6263  -19.0414   54.4990 C   0  0  0  0  0  0  0  0  0  0  0  0
   94.9727  -19.6220   55.4054 O   0  0  0  0  0  0  0  0  0  0  0  0
   95.8861  -17.8267   54.6206 O   0  0  0  0  0  0  0  0  0  0  0  0
   96.3716  -17.3824   53.9537 H   0  0  0  0  0  0  0  0  0  0  0  0
   97.1563  -20.8009   53.6354 C   0  0  0  0  0  0  0  0  0  0  0  0
   98.5181  -20.4383   53.0904 C   0  0  0  0  0  0  0  0  0  0  0  0
   99.2221  -19.5574   53.6489 O   0  0  0  0  0  0  0  0  0  0  0  0
   98.9598  -21.0051   52.0693 O   0  0  0  0  0  0  0  0  0  0  0  0
   98.9061  -19.1220   54.4160 H   0  0  0  0  0  0  0  0  0  0  0  0
  4  5  2  0  0  0
  4  6  1  0  0  0
  4  1  1  0  0  0
  1  2  1  0  0  0
  1  8  1  0  0  0
  8  9  1  0  0  0
  9 10  1  0  0  0
  9 11  2  0  0  0
  6  7  1  0  0  0
  2  3  1  0  0  0
 10 12  1  0  0  0
M  END
> <minimizedAffinity>
-6.62323

$$$$
4IPI_LMR_A_402


 12 11  0  0  0  0  0  0  0  0999 V2000
   96.0629  -19.9463   53.3322 C   0  0  0  0  0  0  0  0  0  0  0  0
   96.4410  -19.1284   52.2472 O   0  0  0  0  0  0  0  0  0  0  0  0
   97.1975  -18.5787   52.5048 H   0  0  0  0  0  0  0  0  0  0  0  0
   95.6312  -19.1253   54.5135 C   0  0  0  0  0  0  0  0  0  0  0  0
   95.9515  -17.9139   54.6392 O   0  0  0  0  0  0  0  0  0  0  0  0
   94.9424  -19.6667   55.4024 O   0  0  0  0  0  0  0  0  0  0  0  0
   94.6970  -20.5674   55.3215 H   0  0  0  0  0  0  0  0  0  0  0  0
   97.2105  -20.8790   53.7306 C   0  0  0  0  0  0  0  0  0  0  0  0
   98.5238  -20.4588   53.1127 C   0  0  0  0  0  0  0  0  0  0  0  0
   98.9604  -21.0272   52.0784 O   0  0  0  0  0  0  0  0  0  0  0  0
   99.1989  -19.5439   53.6284 O   0  0  0  0  0  0  0  0  0  0  0  0
   98.4667  -21.7157   51.6783 H   0  0  0  0  0  0  0  0  0  0  0  0
  4  5  2  0  0  0
  4  6  1  0  0  0
  4  1  1  0  0  0
  1  2  1  0  0  0
  1  8  1  0  0  0
  8  9  1  0  0  0
  9 10  1  0  0  0
  9 11  2  0  0  0
  6  7  1  0  0  0
  2  3  1  0  0  0
 10 12  1  0  0  0
M  END
> <minimizedAffinity>
-6.56718

$$$$
4IPI_LMR_A_402


 12 11  0  0  0  0  0  0  0  0999 V2000
   97.0761  -19.9461   52.5776 C   0  0  0  0  0  0  0  0  0  0  0  0
   96.6909  -20.5971   51.3873 O   0  0  0  0  0  0  0  0  0  0  0  0
   96.8255  -21.5529   51.4834 H   0  0  0  0  0  0  0  0  0  0  0  0
   98.5332  -20.1600   52.8730 C   0  0  0  0  0  0  0  0  0  0  0  0
   99.1375  -19.5086   53.7653 O   0  0  0  0  0  0  0  0  0  0  0  0
   99.1648  -21.0032   52.2037 O   0  0  0  0  0  0  0  0  0  0  0  0
   98.7274  -21.4949   51.5366 H   0  0  0  0  0  0  0  0  0  0  0  0
   96.2242  -20.4270   53.7560 C   0  0  0  0  0  0  0  0  0  0  0  0
   95.7167  -19.2778   54.5956 C   0  0  0  0  0  0  0  0  0  0  0  0
   96.1645  -18.1132   54.4319 O   0  0  0  0  0  0  0  0  0  0  0  0
   94.8490  -19.4724   55.4719 O   0  0  0  0  0  0  0  0  0  0  0  0
   96.8161  -17.9492   53.7788 H   0  0  0  0  0  0  0  0  0  0  0  0
  4  5  2  0  0  0
  4  6  1  0  0  0
  4  1  1  0  0  0
  1  2  1  0  0  0
  1  8  1  0  0  0
  8  9  1  0  0  0
  9 10  1  0  0  0
  9 11  2  0  0  0
  6  7  1  0  0  0
  2  3  1  0  0  0
 10 12  1  0  0  0
M  END
> <minimizedAffinity>
-6.40018

$$$$
4IPI_LMR_A_402


 12 11  0  0  0  0  0  0  0  0999 V2000
   95.5499  -19.9898   53.8745 C   0  0  0  0  0  0  0  0  0  0  0  0
   94.4559  -20.4499   53.1126 O   0  0  0  0  0  0  0  0  0  0  0  0
   94.6232  -20.2817   52.1721 H   0  0  0  0  0  0  0  0  0  0  0  0
   95.7433  -18.5086   53.7176 C   0  0  0  0  0  0  0  0  0  0  0  0
   95.8654  -17.9659   52.5878 O   0  0  0  0  0  0  0  0  0  0  0  0
   95.7951  -17.7973   54.7419 O   0  0  0  0  0  0  0  0  0  0  0  0
   95.7057  -18.1881   55.5887 H   0  0  0  0  0  0  0  0  0  0  0  0
   96.8309  -20.7322   53.4826 C   0  0  0  0  0  0  0  0  0  0  0  0
   96.7668  -21.2683   52.0713 C   0  0  0  0  0  0  0  0  0  0  0  0
   96.8214  -20.4907   51.0834 O   0  0  0  0  0  0  0  0  0  0  0  0
   96.6496  -22.4946   51.8676 O   0  0  0  0  0  0  0  0  0  0  0  0
   96.9093  -19.5676   51.2181 H   0  0  0  0  0  0  0  0  0  0  0  0
  4  5  2  0  0  0
  4  6  1  0  0  0
  4  1  1  0  0  0
  1  2  1  0  0  0
  1  8  1  0  0  0
  8  9  1  0  0  0
  9 10  1  0  0  0
  9 11  2  0  0  0
  6  7  1  0  0  0
  2  3  1  0  0  0
 10 12  1  0  0  0
M  END
> <minimizedAffinity>
-6.22001

$$$$
4IPI_LMR_A_402


 12 11  0  0  0  0  0  0  0  0999 V2000
   95.6571  -21.2713   53.4860 C   0  0  0  0  0  0  0  0  0  0  0  0
   94.3957  -20.7909   53.0770 O   0  0  0  0  0  0  0  0  0  0  0  0
   93.9335  -20.4070   53.8384 H   0  0  0  0  0  0  0  0  0  0  0  0
   95.5232  -22.3567   54.5155 C   0  0  0  0  0  0  0  0  0  0  0  0
   96.3583  -23.2944   54.6114 O   0  0  0  0  0  0  0  0  0  0  0  0
   94.5465  -22.3315   55.2921 O   0  0  0  0  0  0  0  0  0  0  0  0
   93.9176  -21.6395   55.2317 H   0  0  0  0  0  0  0  0  0  0  0  0
   96.5178  -20.1292   54.0342 C   0  0  0  0  0  0  0  0  0  0  0  0
   95.6842  -19.0616   54.7038 C   0  0  0  0  0  0  0  0  0  0  0  0
   94.7797  -19.3694   55.5228 O   0  0  0  0  0  0  0  0  0  0  0  0
   95.8781  -17.8557   54.4448 O   0  0  0  0  0  0  0  0  0  0  0  0
   94.6206  -20.2695   55.7287 H   0  0  0  0  0  0  0  0  0  0  0  0
  4  5  2  0  0  0
  4  6  1  0  0  0
  4  1  1  0  0  0
  1  2  1  0  0  0
  1  8  1  0  0  0
  8  9  1  0  0  0
  9 10  1  0  0  0
  9 11  2  0  0  0
  6  7  1  0  0  0
  2  3  1  0  0  0
 10 12  1  0  0  0
M  END
> <minimizedAffinity>
-6.06165

$$$$
4IPI_LMR_A_402


 12 11  0  0  0  0  0  0  0  0999 V2000
   96.1288  -19.9926   54.5785 C   0  0  0  0  0  0  0  0  0  0  0  0
   94.9212  -19.9630   55.3064 O   0  0  0  0  0  0  0  0  0  0  0  0
   94.1815  -20.1704   54.7141 H   0  0  0  0  0  0  0  0  0  0  0  0
   96.1355  -18.9628   53.4851 C   0  0  0  0  0  0  0  0  0  0  0  0
   96.4245  -19.2534   52.2943 O   0  0  0  0  0  0  0  0  0  0  0  0
   95.8558  -17.7805   53.7709 O   0  0  0  0  0  0  0  0  0  0  0  0
   95.6389  -17.5505   54.6530 H   0  0  0  0  0  0  0  0  0  0  0  0
   96.3708  -21.3859   53.9907 C   0  0  0  0  0  0  0  0  0  0  0  0
   95.3445  -22.3881   54.4655 C   0  0  0  0  0  0  0  0  0  0  0  0
   94.2773  -22.5708   53.8241 O   0  0  0  0  0  0  0  0  0  0  0  0
   95.5401  -23.0441   55.5097 O   0  0  0  0  0  0  0  0  0  0  0  0
   94.1143  -22.0870   53.0384 H   0  0  0  0  0  0  0  0  0  0  0  0
  4  5  2  0  0  0
  4  6  1  0  0  0
  4  1  1  0  0  0
  1  2  1  0  0  0
  1  8  1  0  0  0
  8  9  1  0  0  0
  9 10  1  0  0  0
  9 11  2  0  0  0
  6  7  1  0  0  0
  2  3  1  0  0  0
 10 12  1  0  0  0
M  END
> <minimizedAffinity>
-5.58537

$$$$
4IPI_LMR_A_402


 12 11  0  0  0  0  0  0  0  0999 V2000
   96.6290  -20.5806   52.7899 C   0  0  0  0  0  0  0  0  0  0  0  0
   96.6991  -19.4349   51.9705 O   0  0  0  0  0  0  0  0  0  0  0  0
   95.9824  -18.8249   52.2055 H   0  0  0  0  0  0  0  0  0  0  0  0
   95.3364  -21.3192   52.5906 C   0  0  0  0  0  0  0  0  0  0  0  0
   94.7712  -21.3874   51.4673 O   0  0  0  0  0  0  0  0  0  0  0  0
   94.8024  -21.8726   53.5737 O   0  0  0  0  0  0  0  0  0  0  0  0
   95.2122  -21.8297   54.4152 H   0  0  0  0  0  0  0  0  0  0  0  0
   96.7963  -20.2010   54.2642 C   0  0  0  0  0  0  0  0  0  0  0  0
   95.7996  -19.1506   54.6962 C   0  0  0  0  0  0  0  0  0  0  0  0
   95.9372  -17.9495   54.3471 O   0  0  0  0  0  0  0  0  0  0  0  0
   94.8276  -19.4619   55.4153 O   0  0  0  0  0  0  0  0  0  0  0  0
   96.6609  -17.6983   53.8075 H   0  0  0  0  0  0  0  0  0  0  0  0
  4  5  2  0  0  0
  4  6  1  0  0  0
  4  1  1  0  0  0
  1  2  1  0  0  0
  1  8  1  0  0  0
  8  9  1  0  0  0
  9 10  1  0  0  0
  9 11  2  0  0  0
  6  7  1  0  0  0
  2  3  1  0  0  0
 10 12  1  0  0  0
M  END
> <minimizedAffinity>
-5.56789

$$$$
4IPI_LMR_A_402


 12 11  0  0  0  0  0  0  0  0999 V2000
   96.8166  -20.9981   52.5596 C   0  0  0  0  0  0  0  0  0  0  0  0
   96.5216  -20.9431   51.1815 O   0  0  0  0  0  0  0  0  0  0  0  0
   95.9742  -20.1634   50.9989 H   0  0  0  0  0  0  0  0  0  0  0  0
   95.5676  -21.1317   53.3830 C   0  0  0  0  0  0  0  0  0  0  0  0
   94.4324  -20.8275   52.9307 O   0  0  0  0  0  0  0  0  0  0  0  0
   95.6624  -21.5476   54.5560 O   0  0  0  0  0  0  0  0  0  0  0  0
   96.5010  -21.7775   54.9052 H   0  0  0  0  0  0  0  0  0  0  0  0
   97.6026  -19.7572   52.9933 C   0  0  0  0  0  0  0  0  0  0  0  0
   96.8705  -18.4775   52.6623 C   0  0  0  0  0  0  0  0  0  0  0  0
   96.9033  -17.9987   51.4991 O   0  0  0  0  0  0  0  0  0  0  0  0
   96.2280  -17.8724   53.5455 O   0  0  0  0  0  0  0  0  0  0  0  0
   97.3807  -18.4397   50.8241 H   0  0  0  0  0  0  0  0  0  0  0  0
  4  5  2  0  0  0
  4  6  1  0  0  0
  4  1  1  0  0  0
  1  2  1  0  0  0
  1  8  1  0  0  0
  8  9  1  0  0  0
  9 10  1  0  0  0
  9 11  2  0  0  0
  6  7  1  0  0  0
  2  3  1  0  0  0
 10 12  1  0  0  0
M  END
> <minimizedAffinity>
-5.54123

$$$$
4IPI_LMR_A_402


 12 11  0  0  0  0  0  0  0  0999 V2000
   97.0706  -20.2362   53.5217 C   0  0  0  0  0  0  0  0  0  0  0  0
   96.2668  -19.4019   52.7173 O   0  0  0  0  0  0  0  0  0  0  0  0
   96.2609  -19.7383   51.8075 H   0  0  0  0  0  0  0  0  0  0  0  0
   98.4951  -20.2499   53.0459 C   0  0  0  0  0  0  0  0  0  0  0  0
   98.8755  -20.9817   52.0943 O   0  0  0  0  0  0  0  0  0  0  0  0
   99.3281  -19.5196   53.6209 O   0  0  0  0  0  0  0  0  0  0  0  0
   99.0586  -18.9701   54.3304 H   0  0  0  0  0  0  0  0  0  0  0  0
   96.5111  -21.6617   53.5487 C   0  0  0  0  0  0  0  0  0  0  0  0
   95.1991  -21.7422   54.2938 C   0  0  0  0  0  0  0  0  0  0  0  0
   94.8682  -20.8476   55.1147 O   0  0  0  0  0  0  0  0  0  0  0  0
   94.4276  -22.7065   54.1095 O   0  0  0  0  0  0  0  0  0  0  0  0
   95.4352  -20.1170   55.2653 H   0  0  0  0  0  0  0  0  0  0  0  0
  4  5  2  0  0  0
  4  6  1  0  0  0
  4  1  1  0  0  0
  1  2  1  0  0  0
  1  8  1  0  0  0
  8  9  1  0  0  0
  9 10  1  0  0  0
  9 11  2  0  0  0
  6  7  1  0  0  0
  2  3  1  0  0  0
 10 12  1  0  0  0
M  END
> <minimizedAffinity>
-5.51127

$$$$
4IPI_LMR_A_402


 12 11  0  0  0  0  0  0  0  0999 V2000
   95.4053  -20.2429   54.2466 C   0  0  0  0  0  0  0  0  0  0  0  0
   95.0452  -19.6302   55.4649 O   0  0  0  0  0  0  0  0  0  0  0  0
   95.5430  -20.0374   56.1911 H   0  0  0  0  0  0  0  0  0  0  0  0
   95.0680  -21.7066   54.2481 C   0  0  0  0  0  0  0  0  0  0  0  0
   94.8406  -22.3396   55.3127 O   0  0  0  0  0  0  0  0  0  0  0  0
   95.0230  -22.3142   53.1588 O   0  0  0  0  0  0  0  0  0  0  0  0
   95.1901  -21.8554   52.3591 H   0  0  0  0  0  0  0  0  0  0  0  0
   96.8978  -20.0471   53.9643 C   0  0  0  0  0  0  0  0  0  0  0  0
   97.1500  -19.5626   52.5555 C   0  0  0  0  0  0  0  0  0  0  0  0
   96.9154  -20.3051   51.5670 O   0  0  0  0  0  0  0  0  0  0  0  0
   97.6043  -18.4171   52.3548 O   0  0  0  0  0  0  0  0  0  0  0  0
   96.5743  -21.1677   51.6994 H   0  0  0  0  0  0  0  0  0  0  0  0
  4  5  2  0  0  0
  4  6  1  0  0  0
  4  1  1  0  0  0
  1  2  1  0  0  0
  1  8  1  0  0  0
  8  9  1  0  0  0
  9 10  1  0  0  0
  9 11  2  0  0  0
  6  7  1  0  0  0
  2  3  1  0  0  0
 10 12  1  0  0  0
M  END
> <minimizedAffinity>
-5.47022

$$$$
