6EQ8_BQZ_D_708


 32 33  0  0  0  0  0  0  0  0999 V2000
  134.7498    6.7893   72.7309 C   0  0  0  0  0  0  0  0  0  0  0  0
  136.0622    5.9180   74.7891 C   0  0  0  0  0  0  0  0  0  0  0  0
  135.0003    4.7750   74.9256 C   0  0  0  0  0  0  0  0  0  0  0  0
  134.3813    4.4296   73.5596 C   0  0  0  0  0  0  0  0  0  0  0  0
  133.7056    5.6601   72.9158 C   0  0  0  0  0  0  0  0  0  0  0  0
  135.4232    7.1700   74.1058 C   0  0  0  0  0  0  0  0  0  0  0  0
  133.9717    5.1389   75.8783 O   0  0  0  0  0  0  0  0  0  0  0  0
  133.4552    3.3823   73.7469 O   0  0  0  0  0  0  0  0  0  0  0  0
  133.1977    5.2819   71.6485 O   0  0  0  0  0  0  0  0  0  0  0  0
  134.1036    7.9188   72.1377 O   0  0  0  0  0  0  0  0  0  0  0  0
  136.3897    8.1973   73.9727 O   0  0  0  0  0  0  0  0  0  0  0  0
  133.5052    5.9292   75.5644 H   0  0  0  0  0  0  0  0  0  0  0  0
  132.7593    3.6713   74.3578 H   0  0  0  0  0  0  0  0  0  0  0  0
  133.9248    4.9651   71.0901 H   0  0  0  0  0  0  0  0  0  0  0  0
  133.3928    8.2279   72.7210 H   0  0  0  0  0  0  0  0  0  0  0  0
  137.1164    7.8866   73.4103 H   0  0  0  0  0  0  0  0  0  0  0  0
  136.5169    6.2858   76.1012 O   0  0  0  0  0  0  0  0  0  0  0  0
  139.6224    7.6864   77.4810 C   0  0  0  0  0  0  0  0  0  0  0  0
  139.2575    7.5456   76.0028 C   0  0  0  0  0  0  0  0  0  0  0  0
  138.4142    7.2738   78.3098 C   0  0  0  0  0  0  0  0  0  0  0  0
  137.7429    5.6415   76.4696 C   0  0  0  0  0  0  0  0  0  0  0  0
  138.0026    5.8086   77.9750 C   0  0  0  0  0  0  0  0  0  0  0  0
  136.8950    5.3930   78.7326 O   0  0  0  0  0  0  0  0  0  0  0  0
  138.8209    7.3505   79.6529 O   0  0  0  0  0  0  0  0  0  0  0  0
  140.6945    6.7972   77.8134 O   0  0  0  0  0  0  0  0  0  0  0  0
  138.8730    6.1738   75.7050 O   0  0  0  0  0  0  0  0  0  0  0  0
  136.1290    5.9474   78.5164 H   0  0  0  0  0  0  0  0  0  0  0  0
  139.5823    6.7664   79.7940 H   0  0  0  0  0  0  0  0  0  0  0  0
  140.4238    5.8832   77.6341 H   0  0  0  0  0  0  0  0  0  0  0  0
  140.3527    8.0189   75.0575 C   0  0  0  0  0  0  0  0  0  0  0  0
  141.4088    8.5337   75.8735 O   0  0  0  0  0  0  0  0  0  0  0  0
  141.7249    7.8375   76.4705 H   0  0  0  0  0  0  0  0  0  0  0  0
 31 30  1  0  0  0
 30 19  1  0  0  0
 26 19  1  0  0  0
 26 21  1  0  0  0
 19 18  1  0  0  0
 25 18  1  0  0  0
 11  6  1  0  0  0
 18 20  1  0  0  0
  1 10  1  0  0  0
  1  6  1  0  0  0
  1  5  1  0  0  0
  9  5  1  0  0  0
 21 17  1  0  0  0
 21 22  1  0  0  0
  2  6  1  0  0  0
  2 17  1  0  0  0
  2  3  1  0  0  0
  4  5  1  0  0  0
  4  8  1  0  0  0
  4  3  1  0  0  0
  3  7  1  0  0  0
 22 20  1  0  0  0
 22 23  1  0  0  0
 20 24  1  0  0  0
 23 27  1  0  0  0
 24 28  1  0  0  0
 25 29  1  0  0  0
 31 32  1  0  0  0
  7 12  1  0  0  0
  8 13  1  0  0  0
  9 14  1  0  0  0
 10 15  1  0  0  0
 11 16  1  0  0  0
M  END
> <minimizedAffinity>
-11.69241

$$$$
6EQ8_BQZ_D_708


 32 33  0  0  0  0  0  0  0  0999 V2000
  139.7447    7.8905   76.1957 C   0  0  0  0  0  0  0  0  0  0  0  0
  137.3071    7.3351   75.5118 C   0  0  0  0  0  0  0  0  0  0  0  0
  137.2021    6.4342   76.7885 C   0  0  0  0  0  0  0  0  0  0  0  0
  138.1381    6.9400   77.9005 C   0  0  0  0  0  0  0  0  0  0  0  0
  139.6099    6.9687   77.4333 C   0  0  0  0  0  0  0  0  0  0  0  0
  138.7917    7.4185   75.0304 C   0  0  0  0  0  0  0  0  0  0  0  0
  137.4868    5.0507   76.4674 O   0  0  0  0  0  0  0  0  0  0  0  0
  137.9791    6.1041   79.0255 O   0  0  0  0  0  0  0  0  0  0  0  0
  140.4057    7.4825   78.4869 O   0  0  0  0  0  0  0  0  0  0  0  0
  141.1123    7.8999   75.7777 O   0  0  0  0  0  0  0  0  0  0  0  0
  138.8847    8.2442   73.8828 O   0  0  0  0  0  0  0  0  0  0  0  0
  138.3955    4.9761   76.1363 H   0  0  0  0  0  0  0  0  0  0  0  0
  138.2153    5.1938   78.7878 H   0  0  0  0  0  0  0  0  0  0  0  0
  140.1054    8.3768   78.7124 H   0  0  0  0  0  0  0  0  0  0  0  0
  141.3844    6.9993   75.5414 H   0  0  0  0  0  0  0  0  0  0  0  0
  138.5905    9.1413   74.1052 H   0  0  0  0  0  0  0  0  0  0  0  0
  136.5118    6.7516   74.4674 O   0  0  0  0  0  0  0  0  0  0  0  0
  133.7409    6.4512   72.0714 C   0  0  0  0  0  0  0  0  0  0  0  0
  134.6150    7.6823   72.3125 C   0  0  0  0  0  0  0  0  0  0  0  0
  134.2999    5.3023   72.8987 C   0  0  0  0  0  0  0  0  0  0  0  0
  135.1078    6.9831   74.6376 C   0  0  0  0  0  0  0  0  0  0  0  0
  134.3207    5.6832   74.4097 C   0  0  0  0  0  0  0  0  0  0  0  0
  134.8221    4.6379   75.2031 O   0  0  0  0  0  0  0  0  0  0  0  0
  133.4252    4.2203   72.7006 O   0  0  0  0  0  0  0  0  0  0  0  0
  132.4048    6.6958   72.5246 O   0  0  0  0  0  0  0  0  0  0  0  0
  134.6273    8.0249   73.7270 O   0  0  0  0  0  0  0  0  0  0  0  0
  135.7421    4.4564   74.9551 H   0  0  0  0  0  0  0  0  0  0  0  0
  132.5304    4.4732   72.9770 H   0  0  0  0  0  0  0  0  0  0  0  0
  132.4175    6.9011   73.4725 H   0  0  0  0  0  0  0  0  0  0  0  0
  134.2198    8.8849   71.4671 C   0  0  0  0  0  0  0  0  0  0  0  0
  133.1451    9.5356   72.1512 O   0  0  0  0  0  0  0  0  0  0  0  0
  133.4386    9.7995   73.0372 H   0  0  0  0  0  0  0  0  0  0  0  0
 31 30  1  0  0  0
 30 19  1  0  0  0
 26 19  1  0  0  0
 26 21  1  0  0  0
 19 18  1  0  0  0
 25 18  1  0  0  0
 11  6  1  0  0  0
 18 20  1  0  0  0
  1 10  1  0  0  0
  1  6  1  0  0  0
  1  5  1  0  0  0
  9  5  1  0  0  0
 21 17  1  0  0  0
 21 22  1  0  0  0
  2  6  1  0  0  0
  2 17  1  0  0  0
  2  3  1  0  0  0
  4  5  1  0  0  0
  4  8  1  0  0  0
  4  3  1  0  0  0
  3  7  1  0  0  0
 22 20  1  0  0  0
 22 23  1  0  0  0
 20 24  1  0  0  0
 23 27  1  0  0  0
 24 28  1  0  0  0
 25 29  1  0  0  0
 31 32  1  0  0  0
  7 12  1  0  0  0
  8 13  1  0  0  0
  9 14  1  0  0  0
 10 15  1  0  0  0
 11 16  1  0  0  0
M  END
> <minimizedAffinity>
-9.65005

$$$$
6EQ8_BQZ_D_708


 32 33  0  0  0  0  0  0  0  0999 V2000
  139.5835    6.8181   77.2564 C   0  0  0  0  0  0  0  0  0  0  0  0
  137.5888    5.8891   75.8867 C   0  0  0  0  0  0  0  0  0  0  0  0
  137.8564    7.0077   74.8236 C   0  0  0  0  0  0  0  0  0  0  0  0
  139.3402    7.4157   74.8121 C   0  0  0  0  0  0  0  0  0  0  0  0
  139.7987    7.9263   76.1957 C   0  0  0  0  0  0  0  0  0  0  0  0
  138.0755    6.3564   77.2964 C   0  0  0  0  0  0  0  0  0  0  0  0
  137.0092    8.1581   75.0624 O   0  0  0  0  0  0  0  0  0  0  0  0
  139.5184    8.4043   73.8219 O   0  0  0  0  0  0  0  0  0  0  0  0
  141.1780    8.2420   76.1236 O   0  0  0  0  0  0  0  0  0  0  0  0
  140.0102    7.3121   78.5288 O   0  0  0  0  0  0  0  0  0  0  0  0
  137.8433    5.3374   78.2530 O   0  0  0  0  0  0  0  0  0  0  0  0
  137.2123    8.5340   75.9332 H   0  0  0  0  0  0  0  0  0  0  0  0
  138.9687    9.1753   74.0321 H   0  0  0  0  0  0  0  0  0  0  0  0
  141.6783    7.4496   75.8732 H   0  0  0  0  0  0  0  0  0  0  0  0
  139.4851    8.0926   78.7653 H   0  0  0  0  0  0  0  0  0  0  0  0
  138.3463    4.5446   78.0095 H   0  0  0  0  0  0  0  0  0  0  0  0
  136.1763    5.6336   75.9435 O   0  0  0  0  0  0  0  0  0  0  0  0
  133.3429    3.5733   74.8316 C   0  0  0  0  0  0  0  0  0  0  0  0
  134.8120    3.1542   74.8951 C   0  0  0  0  0  0  0  0  0  0  0  0
  133.2179    4.9609   75.4448 C   0  0  0  0  0  0  0  0  0  0  0  0
  135.5798    5.4966   74.6477 C   0  0  0  0  0  0  0  0  0  0  0  0
  134.1198    5.9748   74.6785 C   0  0  0  0  0  0  0  0  0  0  0  0
  134.0186    7.2696   75.2141 O   0  0  0  0  0  0  0  0  0  0  0  0
  131.8697    5.3296   75.2979 O   0  0  0  0  0  0  0  0  0  0  0  0
  132.9128    3.6661   73.4690 O   0  0  0  0  0  0  0  0  0  0  0  0
  135.6424    4.1106   74.1782 O   0  0  0  0  0  0  0  0  0  0  0  0
  134.3323    7.2652   76.1319 H   0  0  0  0  0  0  0  0  0  0  0  0
  131.6321    5.3187   74.3575 H   0  0  0  0  0  0  0  0  0  0  0  0
  133.4550    4.3214   73.0027 H   0  0  0  0  0  0  0  0  0  0  0  0
  135.0633    1.7379   74.3972 C   0  0  0  0  0  0  0  0  0  0  0  0
  133.8454    1.0115   74.5857 O   0  0  0  0  0  0  0  0  0  0  0  0
  133.1310    1.4447   74.0930 H   0  0  0  0  0  0  0  0  0  0  0  0
 31 30  1  0  0  0
 30 19  1  0  0  0
 26 19  1  0  0  0
 26 21  1  0  0  0
 19 18  1  0  0  0
 25 18  1  0  0  0
 11  6  1  0  0  0
 18 20  1  0  0  0
  1 10  1  0  0  0
  1  6  1  0  0  0
  1  5  1  0  0  0
  9  5  1  0  0  0
 21 17  1  0  0  0
 21 22  1  0  0  0
  2  6  1  0  0  0
  2 17  1  0  0  0
  2  3  1  0  0  0
  4  5  1  0  0  0
  4  8  1  0  0  0
  4  3  1  0  0  0
  3  7  1  0  0  0
 22 20  1  0  0  0
 22 23  1  0  0  0
 20 24  1  0  0  0
 23 27  1  0  0  0
 24 28  1  0  0  0
 25 29  1  0  0  0
 31 32  1  0  0  0
  7 12  1  0  0  0
  8 13  1  0  0  0
  9 14  1  0  0  0
 10 15  1  0  0  0
 11 16  1  0  0  0
M  END
> <minimizedAffinity>
-9.55965

$$$$
6EQ8_BQZ_D_708


 32 33  0  0  0  0  0  0  0  0999 V2000
  131.0768    5.1662   72.7988 C   0  0  0  0  0  0  0  0  0  0  0  0
  132.0648    7.5590   72.6711 C   0  0  0  0  0  0  0  0  0  0  0  0
  130.9641    8.0188   73.6860 C   0  0  0  0  0  0  0  0  0  0  0  0
  130.5332    6.8566   74.5982 C   0  0  0  0  0  0  0  0  0  0  0  0
  129.9873    5.6659   73.7800 C   0  0  0  0  0  0  0  0  0  0  0  0
  131.5612    6.3290   71.8489 C   0  0  0  0  0  0  0  0  0  0  0  0
  129.8225    8.5759   72.9900 O   0  0  0  0  0  0  0  0  0  0  0  0
  129.5625    7.3401   75.5001 O   0  0  0  0  0  0  0  0  0  0  0  0
  129.6516    4.6213   74.6763 O   0  0  0  0  0  0  0  0  0  0  0  0
  130.5502    4.0677   72.0496 O   0  0  0  0  0  0  0  0  0  0  0  0
  132.5639    5.9081   70.9408 O   0  0  0  0  0  0  0  0  0  0  0  0
  129.4257    7.8958   72.4236 H   0  0  0  0  0  0  0  0  0  0  0  0
  128.7960    7.6687   75.0047 H   0  0  0  0  0  0  0  0  0  0  0  0
  130.4410    4.3558   75.1735 H   0  0  0  0  0  0  0  0  0  0  0  0
  129.7734    4.3611   71.5482 H   0  0  0  0  0  0  0  0  0  0  0  0
  133.3536    5.6362   71.4342 H   0  0  0  0  0  0  0  0  0  0  0  0
  132.3412    8.6408   71.7673 O   0  0  0  0  0  0  0  0  0  0  0  0
  135.1893   10.8800   71.1477 C   0  0  0  0  0  0  0  0  0  0  0  0
  135.1771    9.6369   72.0380 C   0  0  0  0  0  0  0  0  0  0  0  0
  133.8472   10.9670   70.4350 C   0  0  0  0  0  0  0  0  0  0  0  0
  132.7409    9.8424   72.4382 C   0  0  0  0  0  0  0  0  0  0  0  0
  132.6865   11.0366   71.4727 C   0  0  0  0  0  0  0  0  0  0  0  0
  131.4327   11.1287   70.8458 O   0  0  0  0  0  0  0  0  0  0  0  0
  133.8805   12.1578   69.6894 O   0  0  0  0  0  0  0  0  0  0  0  0
  135.3280   12.0601   71.9467 O   0  0  0  0  0  0  0  0  0  0  0  0
  134.0875    9.7141   72.9998 O   0  0  0  0  0  0  0  0  0  0  0  0
  131.2769   10.3315   70.3157 H   0  0  0  0  0  0  0  0  0  0  0  0
  134.0315   12.9082   70.2852 H   0  0  0  0  0  0  0  0  0  0  0  0
  134.5869   12.1176   72.5699 H   0  0  0  0  0  0  0  0  0  0  0  0
  136.5025    9.3777   72.7401 C   0  0  0  0  0  0  0  0  0  0  0  0
  137.4960   10.1305   72.0382 O   0  0  0  0  0  0  0  0  0  0  0  0
  137.2591   11.0710   72.0526 H   0  0  0  0  0  0  0  0  0  0  0  0
 31 30  1  0  0  0
 30 19  1  0  0  0
 26 19  1  0  0  0
 26 21  1  0  0  0
 19 18  1  0  0  0
 25 18  1  0  0  0
 11  6  1  0  0  0
 18 20  1  0  0  0
  1 10  1  0  0  0
  1  6  1  0  0  0
  1  5  1  0  0  0
  9  5  1  0  0  0
 21 17  1  0  0  0
 21 22  1  0  0  0
  2  6  1  0  0  0
  2 17  1  0  0  0
  2  3  1  0  0  0
  4  5  1  0  0  0
  4  8  1  0  0  0
  4  3  1  0  0  0
  3  7  1  0  0  0
 22 20  1  0  0  0
 22 23  1  0  0  0
 20 24  1  0  0  0
 23 27  1  0  0  0
 24 28  1  0  0  0
 25 29  1  0  0  0
 31 32  1  0  0  0
  7 12  1  0  0  0
  8 13  1  0  0  0
  9 14  1  0  0  0
 10 15  1  0  0  0
 11 16  1  0  0  0
M  END
> <minimizedAffinity>
-9.30199

$$$$
6EQ8_BQZ_D_708


 32 33  0  0  0  0  0  0  0  0999 V2000
  134.3875    5.4682   73.5844 C   0  0  0  0  0  0  0  0  0  0  0  0
  135.2949    7.2550   75.2282 C   0  0  0  0  0  0  0  0  0  0  0  0
  135.4480    8.2304   74.0124 C   0  0  0  0  0  0  0  0  0  0  0  0
  134.4247    7.9043   72.9101 C   0  0  0  0  0  0  0  0  0  0  0  0
  134.5791    6.4532   72.4044 C   0  0  0  0  0  0  0  0  0  0  0  0
  135.4084    5.7720   74.7483 C   0  0  0  0  0  0  0  0  0  0  0  0
  136.7976    8.1918   73.4880 O   0  0  0  0  0  0  0  0  0  0  0  0
  134.5985    8.8290   71.8592 O   0  0  0  0  0  0  0  0  0  0  0  0
  133.5829    6.2099   71.4268 O   0  0  0  0  0  0  0  0  0  0  0  0
  134.5379    4.1326   73.0959 O   0  0  0  0  0  0  0  0  0  0  0  0
  135.2571    4.8923   75.8486 O   0  0  0  0  0  0  0  0  0  0  0  0
  136.9942    7.2980   73.1666 H   0  0  0  0  0  0  0  0  0  0  0  0
  135.4979    8.7502   71.5045 H   0  0  0  0  0  0  0  0  0  0  0  0
  132.7056    6.3390   71.8200 H   0  0  0  0  0  0  0  0  0  0  0  0
  135.4269    4.0225   72.7238 H   0  0  0  0  0  0  0  0  0  0  0  0
  134.3787    5.0141   76.2416 H   0  0  0  0  0  0  0  0  0  0  0  0
  136.3471    7.5208   76.1695 O   0  0  0  0  0  0  0  0  0  0  0  0
  139.8144    7.5647   77.3881 C   0  0  0  0  0  0  0  0  0  0  0  0
  139.3346    7.9011   75.9758 C   0  0  0  0  0  0  0  0  0  0  0  0
  138.5904    7.3384   78.2643 C   0  0  0  0  0  0  0  0  0  0  0  0
  137.3247    6.4746   76.2264 C   0  0  0  0  0  0  0  0  0  0  0  0
  137.7149    6.1868   77.6845 C   0  0  0  0  0  0  0  0  0  0  0  0
  136.5808    5.9453   78.4776 O   0  0  0  0  0  0  0  0  0  0  0  0
  139.0811    6.9633   79.5266 O   0  0  0  0  0  0  0  0  0  0  0  0
  140.5664    6.3463   77.3788 O   0  0  0  0  0  0  0  0  0  0  0  0
  138.5168    6.8190   75.4482 O   0  0  0  0  0  0  0  0  0  0  0  0
  136.0191    6.7361   78.4879 H   0  0  0  0  0  0  0  0  0  0  0  0
  139.6245    6.1647   79.4380 H   0  0  0  0  0  0  0  0  0  0  0  0
  140.0089    5.6248   77.0477 H   0  0  0  0  0  0  0  0  0  0  0  0
  140.4639    8.2452   75.0149 C   0  0  0  0  0  0  0  0  0  0  0  0
  141.6070    8.5582   75.8160 O   0  0  0  0  0  0  0  0  0  0  0  0
  141.8290    7.7965   76.3741 H   0  0  0  0  0  0  0  0  0  0  0  0
 31 30  1  0  0  0
 30 19  1  0  0  0
 26 19  1  0  0  0
 26 21  1  0  0  0
 19 18  1  0  0  0
 25 18  1  0  0  0
 11  6  1  0  0  0
 18 20  1  0  0  0
  1 10  1  0  0  0
  1  6  1  0  0  0
  1  5  1  0  0  0
  9  5  1  0  0  0
 21 17  1  0  0  0
 21 22  1  0  0  0
  2  6  1  0  0  0
  2 17  1  0  0  0
  2  3  1  0  0  0
  4  5  1  0  0  0
  4  8  1  0  0  0
  4  3  1  0  0  0
  3  7  1  0  0  0
 22 20  1  0  0  0
 22 23  1  0  0  0
 20 24  1  0  0  0
 23 27  1  0  0  0
 24 28  1  0  0  0
 25 29  1  0  0  0
 31 32  1  0  0  0
  7 12  1  0  0  0
  8 13  1  0  0  0
  9 14  1  0  0  0
 10 15  1  0  0  0
 11 16  1  0  0  0
M  END
> <minimizedAffinity>
-9.07045

$$$$
6EQ8_BQZ_D_708


 32 33  0  0  0  0  0  0  0  0999 V2000
  134.1430    9.5079   71.8403 C   0  0  0  0  0  0  0  0  0  0  0  0
  135.7015    8.0009   73.2608 C   0  0  0  0  0  0  0  0  0  0  0  0
  134.6850    6.8282   73.0498 C   0  0  0  0  0  0  0  0  0  0  0  0
  133.9190    6.9924   71.7251 C   0  0  0  0  0  0  0  0  0  0  0  0
  133.1495    8.3307   71.6772 C   0  0  0  0  0  0  0  0  0  0  0  0
  134.9633    9.3762   73.1814 C   0  0  0  0  0  0  0  0  0  0  0  0
  133.7666    6.7356   74.1660 O   0  0  0  0  0  0  0  0  0  0  0  0
  133.0414    5.8972   71.5841 O   0  0  0  0  0  0  0  0  0  0  0  0
  132.5058    8.4339   70.4193 O   0  0  0  0  0  0  0  0  0  0  0  0
  133.4106   10.7354   71.7969 O   0  0  0  0  0  0  0  0  0  0  0  0
  135.8878   10.4348   73.3604 O   0  0  0  0  0  0  0  0  0  0  0  0
  133.2516    7.5551   74.2298 H   0  0  0  0  0  0  0  0  0  0  0  0
  132.4154    5.8870   72.3250 H   0  0  0  0  0  0  0  0  0  0  0  0
  133.1696    8.4005   69.7128 H   0  0  0  0  0  0  0  0  0  0  0  0
  132.7662   10.7532   72.5217 H   0  0  0  0  0  0  0  0  0  0  0  0
  136.5505   10.4086   72.6525 H   0  0  0  0  0  0  0  0  0  0  0  0
  136.2977    7.8676   74.5610 O   0  0  0  0  0  0  0  0  0  0  0  0
  138.8557    7.0215   77.0611 C   0  0  0  0  0  0  0  0  0  0  0  0
  139.0602    7.8229   75.7750 C   0  0  0  0  0  0  0  0  0  0  0  0
  137.3673    6.7421   77.2149 C   0  0  0  0  0  0  0  0  0  0  0  0
  137.1378    6.7123   74.6756 C   0  0  0  0  0  0  0  0  0  0  0  0
  136.8331    5.9574   75.9790 C   0  0  0  0  0  0  0  0  0  0  0  0
  135.4621    5.6739   76.0952 O   0  0  0  0  0  0  0  0  0  0  0  0
  137.2392    5.9460   78.3659 O   0  0  0  0  0  0  0  0  0  0  0  0
  139.5221    5.7576   76.9685 O   0  0  0  0  0  0  0  0  0  0  0  0
  138.5549    7.0798   74.6301 O   0  0  0  0  0  0  0  0  0  0  0  0
  134.9619    6.5042   76.1280 H   0  0  0  0  0  0  0  0  0  0  0  0
  137.7580    5.1337   78.2567 H   0  0  0  0  0  0  0  0  0  0  0  0
  139.1650    5.2580   76.2176 H   0  0  0  0  0  0  0  0  0  0  0  0
  140.5028    8.2528   75.5483 C   0  0  0  0  0  0  0  0  0  0  0  0
  140.8884    7.7460   74.2673 O   0  0  0  0  0  0  0  0  0  0  0  0
  140.2957    8.1020   73.5870 H   0  0  0  0  0  0  0  0  0  0  0  0
 31 30  1  0  0  0
 30 19  1  0  0  0
 26 19  1  0  0  0
 26 21  1  0  0  0
 19 18  1  0  0  0
 25 18  1  0  0  0
 11  6  1  0  0  0
 18 20  1  0  0  0
  1 10  1  0  0  0
  1  6  1  0  0  0
  1  5  1  0  0  0
  9  5  1  0  0  0
 21 17  1  0  0  0
 21 22  1  0  0  0
  2  6  1  0  0  0
  2 17  1  0  0  0
  2  3  1  0  0  0
  4  5  1  0  0  0
  4  8  1  0  0  0
  4  3  1  0  0  0
  3  7  1  0  0  0
 22 20  1  0  0  0
 22 23  1  0  0  0
 20 24  1  0  0  0
 23 27  1  0  0  0
 24 28  1  0  0  0
 25 29  1  0  0  0
 31 32  1  0  0  0
  7 12  1  0  0  0
  8 13  1  0  0  0
  9 14  1  0  0  0
 10 15  1  0  0  0
 11 16  1  0  0  0
M  END
> <minimizedAffinity>
-8.73411

$$$$
