1NDW_FR2_A_1001


 22 23  0  0  0  0  0  0  0  0999 V2000
   49.4640   54.9309   21.2236 C   0  0  0  0  0  0  0  0  0  0  0  0
   50.0147   52.3991   21.4542 C   0  0  0  0  0  0  0  0  0  0  0  0
   49.9805   53.6419   20.7180 N   0  0  0  0  0  0  0  0  0  0  0  0
   50.6414   53.4670   19.5933 C   0  0  0  0  0  0  0  0  0  0  0  0
   51.1204   52.2800   19.5032 N   0  0  0  0  0  0  0  0  0  0  0  0
   50.7348   51.5760   20.6984 C   0  0  0  0  0  0  0  0  0  0  0  0
   50.9991   50.1701   21.0081 C   0  0  0  0  0  0  0  0  0  0  0  0
   51.9519   49.5495   20.5012 O   0  0  0  0  0  0  0  0  0  0  0  0
   50.1414   49.5116   21.7721 N   0  0  0  0  0  0  0  0  0  0  0  0
   49.3820   49.9860   22.1813 H   0  0  0  0  0  0  0  0  0  0  0  0
   50.2631   48.5477   21.9310 H   0  0  0  0  0  0  0  0  0  0  0  0
   50.6424   55.8659   21.6233 C   0  0  0  0  0  0  0  0  0  0  0  0
   50.8051   55.4393   23.0170 O   0  0  0  0  0  0  0  0  0  0  0  0
   49.9628   55.5422   23.4870 H   0  0  0  0  0  0  0  0  0  0  0  0
   48.5019   55.6802   20.3050 C   0  0  0  0  0  0  0  0  0  0  0  0
   47.6825   56.7537   21.0848 C   0  0  0  0  0  0  0  0  0  0  0  0
   46.5794   57.4020   20.2581 C   0  0  0  0  0  0  0  0  0  0  0  0
   45.2722   57.0083   20.4744 C   0  0  0  0  0  0  0  0  0  0  0  0
   44.2203   57.5651   19.7583 C   0  0  0  0  0  0  0  0  0  0  0  0
   44.4873   58.5020   18.7487 C   0  0  0  0  0  0  0  0  0  0  0  0
   45.8052   58.9121   18.4834 C   0  0  0  0  0  0  0  0  0  0  0  0
   46.8231   58.3527   19.2840 C   0  0  0  0  0  0  0  0  0  0  0  0
  2  3  1  0  0  0
  2  6  2  0  0  0
  3  4  1  0  0  0
  3  1  1  0  0  0
  4  5  2  0  0  0
  5  6  1  0  0  0
  6  7  1  0  0  0
  7  8  2  0  0  0
  7  9  1  0  0  0
  1 12  1  0  0  0
  1 15  1  0  0  0
 12 13  1  0  0  0
 15 16  1  0  0  0
 16 17  1  0  0  0
 17 18  2  0  0  0
 17 22  1  0  0  0
 18 19  1  0  0  0
 19 20  2  0  0  0
 20 21  1  0  0  0
 21 22  2  0  0  0
  9 10  1  0  0  0
  9 11  1  0  0  0
 13 14  1  0  0  0
M  END
> <minimizedAffinity>
-7.78596

$$$$
1NDW_FR2_A_1001


 22 23  0  0  0  0  0  0  0  0999 V2000
   50.5949   51.0391   19.7421 C   0  0  0  0  0  0  0  0  0  0  0  0
   50.4108   53.5257   20.4828 C   0  0  0  0  0  0  0  0  0  0  0  0
   50.3451   52.1046   20.7351 N   0  0  0  0  0  0  0  0  0  0  0  0
   50.1959   51.9277   22.0308 C   0  0  0  0  0  0  0  0  0  0  0  0
   50.1741   53.0438   22.6634 N   0  0  0  0  0  0  0  0  0  0  0  0
   50.3201   54.0888   21.6838 C   0  0  0  0  0  0  0  0  0  0  0  0
   50.2848   55.5306   21.9323 C   0  0  0  0  0  0  0  0  0  0  0  0
   49.2332   56.1911   21.8441 O   0  0  0  0  0  0  0  0  0  0  0  0
   51.4228   56.1681   22.1599 N   0  0  0  0  0  0  0  0  0  0  0  0
   52.2643   55.6624   22.2327 H   0  0  0  0  0  0  0  0  0  0  0  0
   51.4274   57.1479   22.2562 H   0  0  0  0  0  0  0  0  0  0  0  0
   50.5877   49.6442   20.4326 C   0  0  0  0  0  0  0  0  0  0  0  0
   52.0346   49.4096   20.4805 O   0  0  0  0  0  0  0  0  0  0  0  0
   52.4021   49.4722   19.5850 H   0  0  0  0  0  0  0  0  0  0  0  0
   49.6693   51.0166   18.5280 C   0  0  0  0  0  0  0  0  0  0  0  0
   49.1935   49.5691   18.1958 C   0  0  0  0  0  0  0  0  0  0  0  0
   47.6837   49.4420   18.0373 C   0  0  0  0  0  0  0  0  0  0  0  0
   47.0618   48.3042   18.5160 C   0  0  0  0  0  0  0  0  0  0  0  0
   45.6880   48.1301   18.4081 C   0  0  0  0  0  0  0  0  0  0  0  0
   44.9161   49.0959   17.7450 C   0  0  0  0  0  0  0  0  0  0  0  0
   45.5145   50.2565   17.2250 C   0  0  0  0  0  0  0  0  0  0  0  0
   46.9044   50.4015   17.4177 C   0  0  0  0  0  0  0  0  0  0  0  0
  2  3  1  0  0  0
  2  6  2  0  0  0
  3  4  1  0  0  0
  3  1  1  0  0  0
  4  5  2  0  0  0
  5  6  1  0  0  0
  6  7  1  0  0  0
  7  8  2  0  0  0
  7  9  1  0  0  0
  1 12  1  0  0  0
  1 15  1  0  0  0
 12 13  1  0  0  0
 15 16  1  0  0  0
 16 17  1  0  0  0
 17 18  2  0  0  0
 17 22  1  0  0  0
 18 19  1  0  0  0
 19 20  2  0  0  0
 20 21  1  0  0  0
 21 22  2  0  0  0
  9 10  1  0  0  0
  9 11  1  0  0  0
 13 14  1  0  0  0
M  END
> <minimizedAffinity>
-7.68849

$$$$
1NDW_FR2_A_1001


 22 23  0  0  0  0  0  0  0  0999 V2000
   50.3268   56.3518   21.4090 C   0  0  0  0  0  0  0  0  0  0  0  0
   50.2596   53.7521   21.3503 C   0  0  0  0  0  0  0  0  0  0  0  0
   50.3279   55.0476   20.7141 N   0  0  0  0  0  0  0  0  0  0  0  0
   50.5636   54.8598   19.4328 C   0  0  0  0  0  0  0  0  0  0  0  0
   50.6776   53.6139   19.1481 N   0  0  0  0  0  0  0  0  0  0  0  0
   50.4934   52.8809   20.3736 C   0  0  0  0  0  0  0  0  0  0  0  0
   50.4710   51.4255   20.5263 C   0  0  0  0  0  0  0  0  0  0  0  0
   50.2414   50.6639   19.5687 O   0  0  0  0  0  0  0  0  0  0  0  0
   50.5998   50.9078   21.7381 N   0  0  0  0  0  0  0  0  0  0  0  0
   50.7815   51.4948   22.5074 H   0  0  0  0  0  0  0  0  0  0  0  0
   50.5138   49.9360   21.8699 H   0  0  0  0  0  0  0  0  0  0  0  0
   51.6784   57.0883   21.1781 C   0  0  0  0  0  0  0  0  0  0  0  0
   52.4229   56.5564   22.3241 O   0  0  0  0  0  0  0  0  0  0  0  0
   51.9359   56.7445   23.1416 H   0  0  0  0  0  0  0  0  0  0  0  0
   49.1675   57.2901   21.0826 C   0  0  0  0  0  0  0  0  0  0  0  0
   47.7938   56.5572   21.1698 C   0  0  0  0  0  0  0  0  0  0  0  0
   46.6981   57.2082   20.3354 C   0  0  0  0  0  0  0  0  0  0  0  0
   47.0559   58.1655   19.4047 C   0  0  0  0  0  0  0  0  0  0  0  0
   46.1058   58.7920   18.6084 C   0  0  0  0  0  0  0  0  0  0  0  0
   44.7459   58.4982   18.7896 C   0  0  0  0  0  0  0  0  0  0  0  0
   44.3399   57.5466   19.7408 C   0  0  0  0  0  0  0  0  0  0  0  0
   45.3568   56.9036   20.4774 C   0  0  0  0  0  0  0  0  0  0  0  0
  2  3  1  0  0  0
  2  6  2  0  0  0
  3  4  1  0  0  0
  3  1  1  0  0  0
  4  5  2  0  0  0
  5  6  1  0  0  0
  6  7  1  0  0  0
  7  8  2  0  0  0
  7  9  1  0  0  0
  1 12  1  0  0  0
  1 15  1  0  0  0
 12 13  1  0  0  0
 15 16  1  0  0  0
 16 17  1  0  0  0
 17 18  2  0  0  0
 17 22  1  0  0  0
 18 19  1  0  0  0
 19 20  2  0  0  0
 20 21  1  0  0  0
 21 22  2  0  0  0
  9 10  1  0  0  0
  9 11  1  0  0  0
 13 14  1  0  0  0
M  END
> <minimizedAffinity>
-7.58902

$$$$
1NDW_FR2_A_1001


 22 23  0  0  0  0  0  0  0  0999 V2000
   49.3837   51.3785   20.3727 C   0  0  0  0  0  0  0  0  0  0  0  0
   49.0445   50.4717   17.9584 C   0  0  0  0  0  0  0  0  0  0  0  0
   49.1324   50.3031   19.3908 N   0  0  0  0  0  0  0  0  0  0  0  0
   48.7808   49.0675   19.6775 C   0  0  0  0  0  0  0  0  0  0  0  0
   48.4561   48.4094   18.6249 N   0  0  0  0  0  0  0  0  0  0  0  0
   48.6108   49.2999   17.5042 C   0  0  0  0  0  0  0  0  0  0  0  0
   48.4190   48.9682   16.0917 C   0  0  0  0  0  0  0  0  0  0  0  0
   48.6748   47.8376   15.6376 O   0  0  0  0  0  0  0  0  0  0  0  0
   48.0577   49.9270   15.2532 N   0  0  0  0  0  0  0  0  0  0  0  0
   47.8516   50.8273   15.5942 H   0  0  0  0  0  0  0  0  0  0  0  0
   47.9952   49.7398   14.2887 H   0  0  0  0  0  0  0  0  0  0  0  0
   50.6538   51.0571   21.2131 C   0  0  0  0  0  0  0  0  0  0  0  0
   50.3941   51.9359   22.3581 O   0  0  0  0  0  0  0  0  0  0  0  0
   50.2732   52.8463   22.0460 H   0  0  0  0  0  0  0  0  0  0  0  0
   49.4828   52.7953   19.8124 C   0  0  0  0  0  0  0  0  0  0  0  0
   48.1046   53.5242   19.8476 C   0  0  0  0  0  0  0  0  0  0  0  0
   48.1554   54.8991   20.5016 C   0  0  0  0  0  0  0  0  0  0  0  0
   47.0817   55.7527   20.3314 C   0  0  0  0  0  0  0  0  0  0  0  0
   47.0635   57.0169   20.9066 C   0  0  0  0  0  0  0  0  0  0  0  0
   48.1809   57.4686   21.6248 C   0  0  0  0  0  0  0  0  0  0  0  0
   49.3012   56.6386   21.8016 C   0  0  0  0  0  0  0  0  0  0  0  0
   49.2345   55.3454   21.2421 C   0  0  0  0  0  0  0  0  0  0  0  0
  2  3  1  0  0  0
  2  6  2  0  0  0
  3  4  1  0  0  0
  3  1  1  0  0  0
  4  5  2  0  0  0
  5  6  1  0  0  0
  6  7  1  0  0  0
  7  8  2  0  0  0
  7  9  1  0  0  0
  1 12  1  0  0  0
  1 15  1  0  0  0
 12 13  1  0  0  0
 15 16  1  0  0  0
 16 17  1  0  0  0
 17 18  2  0  0  0
 17 22  1  0  0  0
 18 19  1  0  0  0
 19 20  2  0  0  0
 20 21  1  0  0  0
 21 22  2  0  0  0
  9 10  1  0  0  0
  9 11  1  0  0  0
 13 14  1  0  0  0
M  END
> <minimizedAffinity>
-7.57235

$$$$
1NDW_FR2_A_1001


 22 23  0  0  0  0  0  0  0  0999 V2000
   50.1109   51.7628   19.9363 C   0  0  0  0  0  0  0  0  0  0  0  0
   48.5945   50.0516   18.6960 C   0  0  0  0  0  0  0  0  0  0  0  0
   49.5392   50.4163   19.7266 N   0  0  0  0  0  0  0  0  0  0  0  0
   49.6663   49.3918   20.5432 C   0  0  0  0  0  0  0  0  0  0  0  0
   48.9161   48.4108   20.1952 N   0  0  0  0  0  0  0  0  0  0  0  0
   48.2086   48.8186   19.0094 C   0  0  0  0  0  0  0  0  0  0  0  0
   47.2889   48.0018   18.2164 C   0  0  0  0  0  0  0  0  0  0  0  0
   46.0802   47.9044   18.4985 O   0  0  0  0  0  0  0  0  0  0  0  0
   47.7762   47.2658   17.2295 N   0  0  0  0  0  0  0  0  0  0  0  0
   48.7295   47.3296   16.9922 H   0  0  0  0  0  0  0  0  0  0  0  0
   47.1851   46.6547   16.7329 H   0  0  0  0  0  0  0  0  0  0  0  0
   50.1178   52.5611   18.6002 C   0  0  0  0  0  0  0  0  0  0  0  0
   51.5197   52.3548   18.2223 O   0  0  0  0  0  0  0  0  0  0  0  0
   52.0964   52.6621   18.9391 H   0  0  0  0  0  0  0  0  0  0  0  0
   49.4689   52.6056   21.0357 C   0  0  0  0  0  0  0  0  0  0  0  0
   50.1350   54.0115   21.1440 C   0  0  0  0  0  0  0  0  0  0  0  0
   49.1378   55.1631   21.1468 C   0  0  0  0  0  0  0  0  0  0  0  0
   47.9861   55.0428   20.3921 C   0  0  0  0  0  0  0  0  0  0  0  0
   47.0344   56.0539   20.3569 C   0  0  0  0  0  0  0  0  0  0  0  0
   47.2686   57.2516   21.0492 C   0  0  0  0  0  0  0  0  0  0  0  0
   48.4379   57.4212   21.8103 C   0  0  0  0  0  0  0  0  0  0  0  0
   49.3376   56.3355   21.8523 C   0  0  0  0  0  0  0  0  0  0  0  0
  2  3  1  0  0  0
  2  6  2  0  0  0
  3  4  1  0  0  0
  3  1  1  0  0  0
  4  5  2  0  0  0
  5  6  1  0  0  0
  6  7  1  0  0  0
  7  8  2  0  0  0
  7  9  1  0  0  0
  1 12  1  0  0  0
  1 15  1  0  0  0
 12 13  1  0  0  0
 15 16  1  0  0  0
 16 17  1  0  0  0
 17 18  2  0  0  0
 17 22  1  0  0  0
 18 19  1  0  0  0
 19 20  2  0  0  0
 20 21  1  0  0  0
 21 22  2  0  0  0
  9 10  1  0  0  0
  9 11  1  0  0  0
 13 14  1  0  0  0
M  END
> <minimizedAffinity>
-7.44394

$$$$
1NDW_FR2_A_1001


 22 23  0  0  0  0  0  0  0  0999 V2000
   50.4733   50.3970   19.7312 C   0  0  0  0  0  0  0  0  0  0  0  0
   50.3708   52.9471   20.2335 C   0  0  0  0  0  0  0  0  0  0  0  0
   50.2477   51.5591   20.6157 N   0  0  0  0  0  0  0  0  0  0  0  0
   50.0712   51.5100   21.9191 C   0  0  0  0  0  0  0  0  0  0  0  0
   50.0812   52.6805   22.4445 N   0  0  0  0  0  0  0  0  0  0  0  0
   50.2820   53.6231   21.3749 C   0  0  0  0  0  0  0  0  0  0  0  0
   50.2969   55.0823   21.4874 C   0  0  0  0  0  0  0  0  0  0  0  0
   49.8146   55.8181   20.6066 O   0  0  0  0  0  0  0  0  0  0  0  0
   50.9307   55.6383   22.5083 N   0  0  0  0  0  0  0  0  0  0  0  0
   51.3185   55.0722   23.2142 H   0  0  0  0  0  0  0  0  0  0  0  0
   51.0143   56.6178   22.5613 H   0  0  0  0  0  0  0  0  0  0  0  0
   50.7944   49.1295   20.5755 C   0  0  0  0  0  0  0  0  0  0  0  0
   51.8862   48.5870   19.7604 O   0  0  0  0  0  0  0  0  0  0  0  0
   51.5777   48.4610   18.8494 H   0  0  0  0  0  0  0  0  0  0  0  0
   49.3617   50.0819   18.7331 C   0  0  0  0  0  0  0  0  0  0  0  0
   48.3645   49.0250   19.2993 C   0  0  0  0  0  0  0  0  0  0  0  0
   47.4471   48.4213   18.2435 C   0  0  0  0  0  0  0  0  0  0  0  0
   47.9812   48.0960   17.0109 C   0  0  0  0  0  0  0  0  0  0  0  0
   47.1997   47.5369   16.0079 C   0  0  0  0  0  0  0  0  0  0  0  0
   45.8251   47.3531   16.2204 C   0  0  0  0  0  0  0  0  0  0  0  0
   45.2400   47.6918   17.4526 C   0  0  0  0  0  0  0  0  0  0  0  0
   46.0977   48.2012   18.4500 C   0  0  0  0  0  0  0  0  0  0  0  0
  2  3  1  0  0  0
  2  6  2  0  0  0
  3  4  1  0  0  0
  3  1  1  0  0  0
  4  5  2  0  0  0
  5  6  1  0  0  0
  6  7  1  0  0  0
  7  8  2  0  0  0
  7  9  1  0  0  0
  1 12  1  0  0  0
  1 15  1  0  0  0
 12 13  1  0  0  0
 15 16  1  0  0  0
 16 17  1  0  0  0
 17 18  2  0  0  0
 17 22  1  0  0  0
 18 19  1  0  0  0
 19 20  2  0  0  0
 20 21  1  0  0  0
 21 22  2  0  0  0
  9 10  1  0  0  0
  9 11  1  0  0  0
 13 14  1  0  0  0
M  END
> <minimizedAffinity>
-7.41372

$$$$
1NDW_FR2_A_1001


 22 23  0  0  0  0  0  0  0  0999 V2000
   47.8570   52.0266   17.5763 C   0  0  0  0  0  0  0  0  0  0  0  0
   49.7419   51.1442   19.1367 C   0  0  0  0  0  0  0  0  0  0  0  0
   48.5394   50.9717   18.3545 N   0  0  0  0  0  0  0  0  0  0  0  0
   48.2595   49.6862   18.3164 C   0  0  0  0  0  0  0  0  0  0  0  0
   49.1294   48.9913   18.9542 N   0  0  0  0  0  0  0  0  0  0  0  0
   50.1007   49.9122   19.4847 C   0  0  0  0  0  0  0  0  0  0  0  0
   51.2421   49.5822   20.3393 C   0  0  0  0  0  0  0  0  0  0  0  0
   52.1836   48.8725   19.9397 O   0  0  0  0  0  0  0  0  0  0  0  0
   51.2246   49.9669   21.6061 N   0  0  0  0  0  0  0  0  0  0  0  0
   50.4880   50.5284   21.9399 H   0  0  0  0  0  0  0  0  0  0  0  0
   51.9481   49.6914   22.2142 H   0  0  0  0  0  0  0  0  0  0  0  0
   46.3634   51.6513   17.3509 C   0  0  0  0  0  0  0  0  0  0  0  0
   46.3491   51.6567   15.8845 O   0  0  0  0  0  0  0  0  0  0  0  0
   46.6556   52.5184   15.5613 H   0  0  0  0  0  0  0  0  0  0  0  0
   47.9524   53.4451   18.1329 C   0  0  0  0  0  0  0  0  0  0  0  0
   47.4806   53.5120   19.6178 C   0  0  0  0  0  0  0  0  0  0  0  0
   47.7798   54.8429   20.2961 C   0  0  0  0  0  0  0  0  0  0  0  0
   48.9699   54.9814   20.9852 C   0  0  0  0  0  0  0  0  0  0  0  0
   49.3049   56.1706   21.6200 C   0  0  0  0  0  0  0  0  0  0  0  0
   48.3941   57.2379   21.6195 C   0  0  0  0  0  0  0  0  0  0  0  0
   47.1641   57.1286   20.9484 C   0  0  0  0  0  0  0  0  0  0  0  0
   46.9080   55.9160   20.2746 C   0  0  0  0  0  0  0  0  0  0  0  0
  2  3  1  0  0  0
  2  6  2  0  0  0
  3  4  1  0  0  0
  3  1  1  0  0  0
  4  5  2  0  0  0
  5  6  1  0  0  0
  6  7  1  0  0  0
  7  8  2  0  0  0
  7  9  1  0  0  0
  1 12  1  0  0  0
  1 15  1  0  0  0
 12 13  1  0  0  0
 15 16  1  0  0  0
 16 17  1  0  0  0
 17 18  2  0  0  0
 17 22  1  0  0  0
 18 19  1  0  0  0
 19 20  2  0  0  0
 20 21  1  0  0  0
 21 22  2  0  0  0
  9 10  1  0  0  0
  9 11  1  0  0  0
 13 14  1  0  0  0
M  END
> <minimizedAffinity>
-7.38930

$$$$
1NDW_FR2_A_1001


 22 23  0  0  0  0  0  0  0  0999 V2000
   48.6616   51.0387   19.2049 C   0  0  0  0  0  0  0  0  0  0  0  0
   49.3619   53.2580   20.3669 C   0  0  0  0  0  0  0  0  0  0  0  0
   49.1543   51.8282   20.3528 N   0  0  0  0  0  0  0  0  0  0  0  0
   49.6401   51.3354   21.4725 C   0  0  0  0  0  0  0  0  0  0  0  0
   50.1555   52.2500   22.2102 N   0  0  0  0  0  0  0  0  0  0  0  0
   49.9945   53.4984   21.5113 C   0  0  0  0  0  0  0  0  0  0  0  0
   50.3706   54.8267   21.9973 C   0  0  0  0  0  0  0  0  0  0  0  0
   50.5535   55.7858   21.2250 O   0  0  0  0  0  0  0  0  0  0  0  0
   50.6211   54.9881   23.2874 N   0  0  0  0  0  0  0  0  0  0  0  0
   50.4823   54.2408   23.9130 H   0  0  0  0  0  0  0  0  0  0  0  0
   50.9462   55.8554   23.6210 H   0  0  0  0  0  0  0  0  0  0  0  0
   48.8688   51.8263   17.8785 C   0  0  0  0  0  0  0  0  0  0  0  0
   49.7654   50.8869   17.1970 O   0  0  0  0  0  0  0  0  0  0  0  0
   50.5422   50.7200   17.7534 H   0  0  0  0  0  0  0  0  0  0  0  0
   49.2307   49.6293   19.0604 C   0  0  0  0  0  0  0  0  0  0  0  0
   48.1413   48.5419   19.3112 C   0  0  0  0  0  0  0  0  0  0  0  0
   47.2665   48.2599   18.0963 C   0  0  0  0  0  0  0  0  0  0  0  0
   45.9116   48.5200   18.1820 C   0  0  0  0  0  0  0  0  0  0  0  0
   45.0609   48.2905   17.1082 C   0  0  0  0  0  0  0  0  0  0  0  0
   45.5688   47.7243   15.9292 C   0  0  0  0  0  0  0  0  0  0  0  0
   46.9370   47.4253   15.8108 C   0  0  0  0  0  0  0  0  0  0  0  0
   47.7580   47.7352   16.9152 C   0  0  0  0  0  0  0  0  0  0  0  0
  2  3  1  0  0  0
  2  6  2  0  0  0
  3  4  1  0  0  0
  3  1  1  0  0  0
  4  5  2  0  0  0
  5  6  1  0  0  0
  6  7  1  0  0  0
  7  8  2  0  0  0
  7  9  1  0  0  0
  1 12  1  0  0  0
  1 15  1  0  0  0
 12 13  1  0  0  0
 15 16  1  0  0  0
 16 17  1  0  0  0
 17 18  2  0  0  0
 17 22  1  0  0  0
 18 19  1  0  0  0
 19 20  2  0  0  0
 20 21  1  0  0  0
 21 22  2  0  0  0
  9 10  1  0  0  0
  9 11  1  0  0  0
 13 14  1  0  0  0
M  END
> <minimizedAffinity>
-7.10282

$$$$
1NDW_FR2_A_1001


 22 23  0  0  0  0  0  0  0  0999 V2000
   48.3245   55.3903   19.6359 C   0  0  0  0  0  0  0  0  0  0  0  0
   50.5161   56.5917   20.3568 C   0  0  0  0  0  0  0  0  0  0  0  0
   49.4310   55.6633   20.5766 N   0  0  0  0  0  0  0  0  0  0  0  0
   49.6924   54.9842   21.6734 C   0  0  0  0  0  0  0  0  0  0  0  0
   50.8139   55.3311   22.1913 N   0  0  0  0  0  0  0  0  0  0  0  0
   51.3670   56.3621   21.3522 C   0  0  0  0  0  0  0  0  0  0  0  0
   52.6048   57.1075   21.5847 C   0  0  0  0  0  0  0  0  0  0  0  0
   53.1072   57.8425   20.7145 O   0  0  0  0  0  0  0  0  0  0  0  0
   53.2627   56.9168   22.7178 N   0  0  0  0  0  0  0  0  0  0  0  0
   52.8809   56.3388   23.4173 H   0  0  0  0  0  0  0  0  0  0  0  0
   54.1337   57.3529   22.8607 H   0  0  0  0  0  0  0  0  0  0  0  0
   48.4840   53.9740   19.0103 C   0  0  0  0  0  0  0  0  0  0  0  0
   47.3587   53.3072   19.6736 O   0  0  0  0  0  0  0  0  0  0  0  0
   47.4530   53.3934   20.6351 H   0  0  0  0  0  0  0  0  0  0  0  0
   46.9111   55.5512   20.1905 C   0  0  0  0  0  0  0  0  0  0  0  0
   46.6543   57.0046   20.6941 C   0  0  0  0  0  0  0  0  0  0  0  0
   45.9187   57.8804   19.6878 C   0  0  0  0  0  0  0  0  0  0  0  0
   46.6403   58.8220   18.9784 C   0  0  0  0  0  0  0  0  0  0  0  0
   46.0303   59.6470   18.0422 C   0  0  0  0  0  0  0  0  0  0  0  0
   44.6422   59.5726   17.8515 C   0  0  0  0  0  0  0  0  0  0  0  0
   43.8702   58.6433   18.5696 C   0  0  0  0  0  0  0  0  0  0  0  0
   44.5570   57.7948   19.4630 C   0  0  0  0  0  0  0  0  0  0  0  0
  2  3  1  0  0  0
  2  6  2  0  0  0
  3  4  1  0  0  0
  3  1  1  0  0  0
  4  5  2  0  0  0
  5  6  1  0  0  0
  6  7  1  0  0  0
  7  8  2  0  0  0
  7  9  1  0  0  0
  1 12  1  0  0  0
  1 15  1  0  0  0
 12 13  1  0  0  0
 15 16  1  0  0  0
 16 17  1  0  0  0
 17 18  2  0  0  0
 17 22  1  0  0  0
 18 19  1  0  0  0
 19 20  2  0  0  0
 20 21  1  0  0  0
 21 22  2  0  0  0
  9 10  1  0  0  0
  9 11  1  0  0  0
 13 14  1  0  0  0
M  END
> <minimizedAffinity>
-6.95346

$$$$
1NDW_FR2_A_1001


 22 23  0  0  0  0  0  0  0  0999 V2000
   49.5991   55.6906   21.0704 C   0  0  0  0  0  0  0  0  0  0  0  0
   48.7471   53.7426   19.5719 C   0  0  0  0  0  0  0  0  0  0  0  0
   49.7733   54.6456   20.0402 N   0  0  0  0  0  0  0  0  0  0  0  0
   50.9202   54.2634   19.5195 C   0  0  0  0  0  0  0  0  0  0  0  0
   50.7850   53.2185   18.7872 N   0  0  0  0  0  0  0  0  0  0  0  0
   49.3908   52.8601   18.8141 C   0  0  0  0  0  0  0  0  0  0  0  0
   48.7538   51.7724   18.0703 C   0  0  0  0  0  0  0  0  0  0  0  0
   47.5453   51.5027   18.1991 O   0  0  0  0  0  0  0  0  0  0  0  0
   49.5065   50.9887   17.3138 N   0  0  0  0  0  0  0  0  0  0  0  0
   50.4643   51.1864   17.2004 H   0  0  0  0  0  0  0  0  0  0  0  0
   49.1084   50.2083   16.8647 H   0  0  0  0  0  0  0  0  0  0  0  0
   50.9826   56.1378   21.6259 C   0  0  0  0  0  0  0  0  0  0  0  0
   50.8192   57.5893   21.4943 O   0  0  0  0  0  0  0  0  0  0  0  0
   50.6059   57.8085   20.5737 H   0  0  0  0  0  0  0  0  0  0  0  0
   48.7897   56.9177   20.6578 C   0  0  0  0  0  0  0  0  0  0  0  0
   47.3165   56.8295   21.1619 C   0  0  0  0  0  0  0  0  0  0  0  0
   46.3046   57.4522   20.2085 C   0  0  0  0  0  0  0  0  0  0  0  0
   44.9680   57.1365   20.3639 C   0  0  0  0  0  0  0  0  0  0  0  0
   43.9952   57.6753   19.5317 C   0  0  0  0  0  0  0  0  0  0  0  0
   44.3752   58.5092   18.4693 C   0  0  0  0  0  0  0  0  0  0  0  0
   45.7266   58.8365   18.2647 C   0  0  0  0  0  0  0  0  0  0  0  0
   46.6598   58.3039   19.1786 C   0  0  0  0  0  0  0  0  0  0  0  0
  2  3  1  0  0  0
  2  6  2  0  0  0
  3  4  1  0  0  0
  3  1  1  0  0  0
  4  5  2  0  0  0
  5  6  1  0  0  0
  6  7  1  0  0  0
  7  8  2  0  0  0
  7  9  1  0  0  0
  1 12  1  0  0  0
  1 15  1  0  0  0
 12 13  1  0  0  0
 15 16  1  0  0  0
 16 17  1  0  0  0
 17 18  2  0  0  0
 17 22  1  0  0  0
 18 19  1  0  0  0
 19 20  2  0  0  0
 20 21  1  0  0  0
 21 22  2  0  0  0
  9 10  1  0  0  0
  9 11  1  0  0  0
 13 14  1  0  0  0
M  END
> <minimizedAffinity>
-6.93506

$$$$
