5NW2_9B8_C_301


 39 42  0  0  0  0  0  0  0  0999 V2000
   12.0411   54.6992   92.9898 C   0  0  0  0  0  0  0  0  0  0  0  0
   10.8856   54.5315   92.6416 O   0  0  0  0  0  0  0  0  0  0  0  0
   13.0296   54.9556   92.0961 N   0  0  0  0  0  0  0  0  0  0  0  0
   14.4788   55.2680   92.3304 C   0  0  0  0  0  0  0  0  0  0  0  0
   14.9374   55.9567   91.0495 C   0  0  0  0  0  0  0  0  0  0  0  0
   14.6281   57.3698   91.0671 O   0  0  0  0  0  0  0  0  0  0  0  0
   14.1301   55.2595   89.9725 C   0  0  0  0  0  0  0  0  0  0  0  0
   12.7537   54.9535   90.6095 C   0  0  0  0  0  0  0  0  0  0  0  0
   13.6742   57.4905   91.1950 H   0  0  0  0  0  0  0  0  0  0  0  0
   12.2972   53.6934   90.1227 C   0  0  0  0  0  0  0  0  0  0  0  0
   12.7122   52.6478   90.5998 O   0  0  0  0  0  0  0  0  0  0  0  0
   11.4424   53.7110   89.0856 N   0  0  0  0  0  0  0  0  0  0  0  0
   11.1296   54.5852   88.7582 H   0  0  0  0  0  0  0  0  0  0  0  0
   10.9428   52.4928   88.4060 C   0  0  0  0  0  0  0  0  0  0  0  0
   11.6555   52.2218   87.1689 C   0  0  0  0  0  0  0  0  0  0  0  0
   12.0316   53.2660   86.3340 C   0  0  0  0  0  0  0  0  0  0  0  0
   12.7266   53.0507   85.1299 C   0  0  0  0  0  0  0  0  0  0  0  0
   12.0024   50.9349   86.7425 C   0  0  0  0  0  0  0  0  0  0  0  0
   12.7043   50.7108   85.5364 C   0  0  0  0  0  0  0  0  0  0  0  0
   13.0838   51.7598   84.7018 C   0  0  0  0  0  0  0  0  0  0  0  0
   13.7611   51.5323   83.5423 C   0  0  0  0  0  0  0  0  0  0  0  0
   13.2855   50.5171   82.2521 S   0  0  0  0  0  0  0  0  0  0  0  0
   14.5967   50.8100   81.2949 C   0  0  0  0  0  0  0  0  0  0  0  0
   15.3983   51.6517   81.9496 N   0  0  0  0  0  0  0  0  0  0  0  0
   14.9600   52.0366   83.1687 C   0  0  0  0  0  0  0  0  0  0  0  0
   15.8119   53.0199   83.9933 C   0  0  0  0  0  0  0  0  0  0  0  0
   12.4028   54.6749   94.5010 C   0  0  0  0  0  0  0  0  0  0  0  0
   11.2093   56.4626   95.9856 C   0  0  0  0  0  0  0  0  0  0  0  0
   12.1864   57.1257   96.3338 O   0  0  0  0  0  0  0  0  0  0  0  0
   11.3321   55.3835   95.2167 N   0  0  0  0  0  0  0  0  0  0  0  0
   10.4645   54.9349   95.0927 H   0  0  0  0  0  0  0  0  0  0  0  0
    9.6727   56.4141   97.9977 C   0  0  0  0  0  0  0  0  0  0  0  0
    9.7127   57.8118   98.3695 O   0  0  0  0  0  0  0  0  0  0  0  0
    9.7611   58.2210   96.9865 C   0  0  0  0  0  0  0  0  0  0  0  0
    9.8178   56.8078   96.5202 C   0  0  0  0  0  0  0  0  0  0  0  0
   12.6596   53.2758   95.1221 C   0  0  0  0  0  0  0  0  0  0  0  0
   13.4791   53.4242   96.4162 C   0  0  0  0  0  0  0  0  0  0  0  0
   13.4047   52.3366   94.1657 C   0  0  0  0  0  0  0  0  0  0  0  0
   11.2870   52.6838   95.4732 C   0  0  0  0  0  0  0  0  0  0  0  0
 24 23  2  0  0  0
 24 25  1  0  0  0
 23 22  1  0  0  0
 26 25  1  0  0  0
 25 21  2  0  0  0
 22 21  1  0  0  0
 21 20  1  0  0  0
 20 17  2  0  0  0
 20 19  1  0  0  0
 17 16  1  0  0  0
 19 18  2  0  0  0
 16 15  2  0  0  0
 18 15  1  0  0  0
 15 14  1  0  0  0
 14 12  1  0  0  0
 12 10  1  0  0  0
 10 11  2  0  0  0
 10  8  1  0  0  0
  7  8  1  0  0  0
  7  5  1  0  0  0
  8  3  1  0  0  0
  5  6  1  0  0  0
  5  4  1  0  0  0
  3  4  1  0  0  0
  3  1  1  0  0  0
  2  1  2  0  0  0
  1 27  1  0  0  0
 37 36  1  0  0  0
 27 36  1  0  0  0
 27 30  1  0  0  0
 38 36  1  0  0  0
 36 39  1  0  0  0
 30 28  1  0  0  0
 28 29  2  0  0  0
 28 35  1  0  0  0
 34 35  1  0  0  0
 34 33  1  0  0  0
 35 32  1  0  0  0
 33 32  1  0  0  0
 30 31  1  0  0  0
  6  9  1  0  0  0
 12 13  1  0  0  0
M  END
> <minimizedAffinity>
-8.99038

$$$$
5NW2_9B8_C_301


 39 42  0  0  0  0  0  0  0  0999 V2000
   10.8796   51.3379   84.0902 C   0  0  0  0  0  0  0  0  0  0  0  0
   11.2939   52.0025   85.0235 O   0  0  0  0  0  0  0  0  0  0  0  0
    9.8071   51.7250   83.3542 N   0  0  0  0  0  0  0  0  0  0  0  0
    9.2027   51.0957   82.1331 C   0  0  0  0  0  0  0  0  0  0  0  0
    8.4022   52.2157   81.4774 C   0  0  0  0  0  0  0  0  0  0  0  0
    9.2394   53.0447   80.6379 O   0  0  0  0  0  0  0  0  0  0  0  0
    7.8934   53.0166   82.6595 C   0  0  0  0  0  0  0  0  0  0  0  0
    9.0177   52.9614   83.7210 C   0  0  0  0  0  0  0  0  0  0  0  0
    9.9658   53.4106   81.1664 H   0  0  0  0  0  0  0  0  0  0  0  0
    8.4199   52.8858   85.0133 C   0  0  0  0  0  0  0  0  0  0  0  0
    7.4200   52.2100   85.2045 O   0  0  0  0  0  0  0  0  0  0  0  0
    8.9694   53.6324   85.9865 N   0  0  0  0  0  0  0  0  0  0  0  0
    9.7859   54.1404   85.7753 H   0  0  0  0  0  0  0  0  0  0  0  0
    8.4193   53.7363   87.3584 C   0  0  0  0  0  0  0  0  0  0  0  0
    9.4639   53.7954   88.3669 C   0  0  0  0  0  0  0  0  0  0  0  0
    9.2442   54.4631   89.5647 C   0  0  0  0  0  0  0  0  0  0  0  0
   10.2247   54.5415   90.5705 C   0  0  0  0  0  0  0  0  0  0  0  0
   10.7234   53.2058   88.2108 C   0  0  0  0  0  0  0  0  0  0  0  0
   11.7120   53.2765   89.2184 C   0  0  0  0  0  0  0  0  0  0  0  0
   11.4886   53.9438   90.4208 C   0  0  0  0  0  0  0  0  0  0  0  0
   12.4481   54.0046   91.3854 C   0  0  0  0  0  0  0  0  0  0  0  0
   12.5351   53.0704   92.8141 S   0  0  0  0  0  0  0  0  0  0  0  0
   13.9356   53.7321   93.3814 C   0  0  0  0  0  0  0  0  0  0  0  0
   14.3264   54.6648   92.5113 N   0  0  0  0  0  0  0  0  0  0  0  0
   13.5221   54.8263   91.4373 C   0  0  0  0  0  0  0  0  0  0  0  0
   13.9006   55.8704   90.3700 C   0  0  0  0  0  0  0  0  0  0  0  0
   11.6199   50.0336   83.6830 C   0  0  0  0  0  0  0  0  0  0  0  0
   13.5110   51.0575   82.2000 C   0  0  0  0  0  0  0  0  0  0  0  0
   12.8368   51.4427   81.2446 O   0  0  0  0  0  0  0  0  0  0  0  0
   12.9647   50.4188   83.2316 N   0  0  0  0  0  0  0  0  0  0  0  0
   13.6526   50.1214   83.8701 H   0  0  0  0  0  0  0  0  0  0  0  0
   15.5317   51.6363   80.7879 C   0  0  0  0  0  0  0  0  0  0  0  0
   15.8133   52.9615   81.2957 O   0  0  0  0  0  0  0  0  0  0  0  0
   15.4353   52.5743   82.6335 C   0  0  0  0  0  0  0  0  0  0  0  0
   15.0329   51.2147   82.1780 C   0  0  0  0  0  0  0  0  0  0  0  0
   11.6899   48.9197   84.7617 C   0  0  0  0  0  0  0  0  0  0  0  0
   10.3661   48.8711   85.5451 C   0  0  0  0  0  0  0  0  0  0  0  0
   12.8450   49.1295   85.7483 C   0  0  0  0  0  0  0  0  0  0  0  0
   11.8717   47.5885   84.0184 C   0  0  0  0  0  0  0  0  0  0  0  0
 24 23  2  0  0  0
 24 25  1  0  0  0
 23 22  1  0  0  0
 26 25  1  0  0  0
 25 21  2  0  0  0
 22 21  1  0  0  0
 21 20  1  0  0  0
 20 17  2  0  0  0
 20 19  1  0  0  0
 17 16  1  0  0  0
 19 18  2  0  0  0
 16 15  2  0  0  0
 18 15  1  0  0  0
 15 14  1  0  0  0
 14 12  1  0  0  0
 12 10  1  0  0  0
 10 11  2  0  0  0
 10  8  1  0  0  0
  7  8  1  0  0  0
  7  5  1  0  0  0
  8  3  1  0  0  0
  5  6  1  0  0  0
  5  4  1  0  0  0
  3  4  1  0  0  0
  3  1  1  0  0  0
  2  1  2  0  0  0
  1 27  1  0  0  0
 37 36  1  0  0  0
 27 36  1  0  0  0
 27 30  1  0  0  0
 38 36  1  0  0  0
 36 39  1  0  0  0
 30 28  1  0  0  0
 28 29  2  0  0  0
 28 35  1  0  0  0
 34 35  1  0  0  0
 34 33  1  0  0  0
 35 32  1  0  0  0
 33 32  1  0  0  0
 30 31  1  0  0  0
  6  9  1  0  0  0
 12 13  1  0  0  0
M  END
> <minimizedAffinity>
-6.86144

$$$$
5NW2_9B8_C_301


 39 42  0  0  0  0  0  0  0  0999 V2000
   11.6699   53.4179   91.3394 C   0  0  0  0  0  0  0  0  0  0  0  0
   12.3545   52.4173   91.2187 O   0  0  0  0  0  0  0  0  0  0  0  0
   10.7562   53.7793   90.4033 N   0  0  0  0  0  0  0  0  0  0  0  0
    9.7736   54.9136   90.4080 C   0  0  0  0  0  0  0  0  0  0  0  0
    8.7099   54.5075   89.3937 C   0  0  0  0  0  0  0  0  0  0  0  0
    7.7148   53.6409   89.9868 O   0  0  0  0  0  0  0  0  0  0  0  0
    9.5012   53.7516   88.3448 C   0  0  0  0  0  0  0  0  0  0  0  0
   10.6117   52.9993   89.1160 C   0  0  0  0  0  0  0  0  0  0  0  0
    8.1487   52.8562   90.3569 H   0  0  0  0  0  0  0  0  0  0  0  0
   11.7960   52.9977   88.3219 C   0  0  0  0  0  0  0  0  0  0  0  0
   12.5898   52.0704   88.3796 O   0  0  0  0  0  0  0  0  0  0  0  0
   12.0233   54.0810   87.5595 N   0  0  0  0  0  0  0  0  0  0  0  0
   11.3366   54.7863   87.5406 H   0  0  0  0  0  0  0  0  0  0  0  0
   13.2460   54.2767   86.7457 C   0  0  0  0  0  0  0  0  0  0  0  0
   13.2738   53.4118   85.5782 C   0  0  0  0  0  0  0  0  0  0  0  0
   14.4761   53.1333   84.9412 C   0  0  0  0  0  0  0  0  0  0  0  0
   14.5507   52.2983   83.8115 C   0  0  0  0  0  0  0  0  0  0  0  0
   12.1321   52.8176   85.0288 C   0  0  0  0  0  0  0  0  0  0  0  0
   12.1994   51.9741   83.8968 C   0  0  0  0  0  0  0  0  0  0  0  0
   13.4069   51.6931   83.2612 C   0  0  0  0  0  0  0  0  0  0  0  0
   13.4603   50.8777   82.1716 C   0  0  0  0  0  0  0  0  0  0  0  0
   12.4569   49.5348   81.8381 S   0  0  0  0  0  0  0  0  0  0  0  0
   13.1507   49.1410   80.3943 C   0  0  0  0  0  0  0  0  0  0  0  0
   14.1448   50.0025   80.1725 N   0  0  0  0  0  0  0  0  0  0  0  0
   14.3261   50.9356   81.1332 C   0  0  0  0  0  0  0  0  0  0  0  0
   15.4411   51.9834   80.9569 C   0  0  0  0  0  0  0  0  0  0  0  0
   11.7954   54.2888   92.6205 C   0  0  0  0  0  0  0  0  0  0  0  0
    9.7501   53.7448   94.1519 C   0  0  0  0  0  0  0  0  0  0  0  0
    8.9655   54.6094   93.7614 O   0  0  0  0  0  0  0  0  0  0  0  0
   10.9846   53.6465   93.6649 N   0  0  0  0  0  0  0  0  0  0  0  0
   11.4976   52.9499   94.1349 H   0  0  0  0  0  0  0  0  0  0  0  0
   10.0958   51.4691   95.2073 C   0  0  0  0  0  0  0  0  0  0  0  0
   10.9104   51.8470   96.3417 O   0  0  0  0  0  0  0  0  0  0  0  0
   10.1770   53.0782   96.5109 C   0  0  0  0  0  0  0  0  0  0  0  0
    9.3548   52.8114   95.2981 C   0  0  0  0  0  0  0  0  0  0  0  0
   13.2376   54.5652   93.1231 C   0  0  0  0  0  0  0  0  0  0  0  0
   13.1992   55.5777   94.2814 C   0  0  0  0  0  0  0  0  0  0  0  0
   14.1509   55.1080   92.0171 C   0  0  0  0  0  0  0  0  0  0  0  0
   13.7899   53.2333   93.6511 C   0  0  0  0  0  0  0  0  0  0  0  0
 24 23  2  0  0  0
 24 25  1  0  0  0
 23 22  1  0  0  0
 26 25  1  0  0  0
 25 21  2  0  0  0
 22 21  1  0  0  0
 21 20  1  0  0  0
 20 17  2  0  0  0
 20 19  1  0  0  0
 17 16  1  0  0  0
 19 18  2  0  0  0
 16 15  2  0  0  0
 18 15  1  0  0  0
 15 14  1  0  0  0
 14 12  1  0  0  0
 12 10  1  0  0  0
 10 11  2  0  0  0
 10  8  1  0  0  0
  7  8  1  0  0  0
  7  5  1  0  0  0
  8  3  1  0  0  0
  5  6  1  0  0  0
  5  4  1  0  0  0
  3  4  1  0  0  0
  3  1  1  0  0  0
  2  1  2  0  0  0
  1 27  1  0  0  0
 37 36  1  0  0  0
 27 36  1  0  0  0
 27 30  1  0  0  0
 38 36  1  0  0  0
 36 39  1  0  0  0
 30 28  1  0  0  0
 28 29  2  0  0  0
 28 35  1  0  0  0
 34 35  1  0  0  0
 34 33  1  0  0  0
 35 32  1  0  0  0
 33 32  1  0  0  0
 30 31  1  0  0  0
  6  9  1  0  0  0
 12 13  1  0  0  0
M  END
> <minimizedAffinity>
-6.81265

$$$$
5NW2_9B8_C_301


 39 42  0  0  0  0  0  0  0  0999 V2000
   11.1470   54.3409   93.3236 C   0  0  0  0  0  0  0  0  0  0  0  0
   10.0317   54.6817   92.9708 O   0  0  0  0  0  0  0  0  0  0  0  0
   12.2325   54.5022   92.5252 N   0  0  0  0  0  0  0  0  0  0  0  0
   13.6807   54.2260   92.8059 C   0  0  0  0  0  0  0  0  0  0  0  0
   14.4393   55.0662   91.7843 C   0  0  0  0  0  0  0  0  0  0  0  0
   14.6092   56.4289   92.2396 O   0  0  0  0  0  0  0  0  0  0  0  0
   13.5362   55.0318   90.5674 C   0  0  0  0  0  0  0  0  0  0  0  0
   12.0896   55.0320   91.1162 C   0  0  0  0  0  0  0  0  0  0  0  0
   13.7403   56.8193   92.4228 H   0  0  0  0  0  0  0  0  0  0  0  0
   11.2859   54.2019   90.2806 C   0  0  0  0  0  0  0  0  0  0  0  0
   10.0994   54.4410   90.1124 O   0  0  0  0  0  0  0  0  0  0  0  0
   11.8766   53.1223   89.7404 N   0  0  0  0  0  0  0  0  0  0  0  0
   12.8402   52.9947   89.8969 H   0  0  0  0  0  0  0  0  0  0  0  0
   11.1636   52.1127   88.9231 C   0  0  0  0  0  0  0  0  0  0  0  0
   11.7488   51.9619   87.6016 C   0  0  0  0  0  0  0  0  0  0  0  0
   12.0386   50.6982   87.1038 C   0  0  0  0  0  0  0  0  0  0  0  0
   12.6008   50.5050   85.8288 C   0  0  0  0  0  0  0  0  0  0  0  0
   12.0533   53.0403   86.7633 C   0  0  0  0  0  0  0  0  0  0  0  0
   12.6141   52.8541   85.4794 C   0  0  0  0  0  0  0  0  0  0  0  0
   12.9011   51.5854   84.9804 C   0  0  0  0  0  0  0  0  0  0  0  0
   13.4404   51.4176   83.7411 C   0  0  0  0  0  0  0  0  0  0  0  0
   12.8446   50.4264   82.4825 S   0  0  0  0  0  0  0  0  0  0  0  0
   14.0210   50.7944   81.3862 C   0  0  0  0  0  0  0  0  0  0  0  0
   14.8690   51.6433   81.9693 N   0  0  0  0  0  0  0  0  0  0  0  0
   14.5691   51.9750   83.2446 C   0  0  0  0  0  0  0  0  0  0  0  0
   15.4831   52.9619   83.9951 C   0  0  0  0  0  0  0  0  0  0  0  0
   11.3600   53.7514   94.7456 C   0  0  0  0  0  0  0  0  0  0  0  0
   11.9350   51.2082   94.5854 C   0  0  0  0  0  0  0  0  0  0  0  0
   10.8234   50.7315   94.8153 O   0  0  0  0  0  0  0  0  0  0  0  0
   12.1502   52.5213   94.5934 N   0  0  0  0  0  0  0  0  0  0  0  0
   13.1040   52.7259   94.4604 H   0  0  0  0  0  0  0  0  0  0  0  0
   13.4709   50.1183   92.8927 C   0  0  0  0  0  0  0  0  0  0  0  0
   14.6495   50.9391   93.0680 O   0  0  0  0  0  0  0  0  0  0  0  0
   14.4159   51.0438   94.4882 C   0  0  0  0  0  0  0  0  0  0  0  0
   13.1386   50.2853   94.3828 C   0  0  0  0  0  0  0  0  0  0  0  0
   12.0004   54.7014   95.7928 C   0  0  0  0  0  0  0  0  0  0  0  0
   11.1424   54.7208   97.0702 C   0  0  0  0  0  0  0  0  0  0  0  0
   12.1491   56.1358   95.2708 C   0  0  0  0  0  0  0  0  0  0  0  0
   13.3811   54.1234   96.1353 C   0  0  0  0  0  0  0  0  0  0  0  0
 24 23  2  0  0  0
 24 25  1  0  0  0
 23 22  1  0  0  0
 26 25  1  0  0  0
 25 21  2  0  0  0
 22 21  1  0  0  0
 21 20  1  0  0  0
 20 17  2  0  0  0
 20 19  1  0  0  0
 17 16  1  0  0  0
 19 18  2  0  0  0
 16 15  2  0  0  0
 18 15  1  0  0  0
 15 14  1  0  0  0
 14 12  1  0  0  0
 12 10  1  0  0  0
 10 11  2  0  0  0
 10  8  1  0  0  0
  7  8  1  0  0  0
  7  5  1  0  0  0
  8  3  1  0  0  0
  5  6  1  0  0  0
  5  4  1  0  0  0
  3  4  1  0  0  0
  3  1  1  0  0  0
  2  1  2  0  0  0
  1 27  1  0  0  0
 37 36  1  0  0  0
 27 36  1  0  0  0
 27 30  1  0  0  0
 38 36  1  0  0  0
 36 39  1  0  0  0
 30 28  1  0  0  0
 28 29  2  0  0  0
 28 35  1  0  0  0
 34 35  1  0  0  0
 34 33  1  0  0  0
 35 32  1  0  0  0
 33 32  1  0  0  0
 30 31  1  0  0  0
  6  9  1  0  0  0
 12 13  1  0  0  0
M  END
> <minimizedAffinity>
-6.81000

$$$$
5NW2_9B8_C_301


 39 42  0  0  0  0  0  0  0  0999 V2000
   11.8257   52.0261   91.1036 C   0  0  0  0  0  0  0  0  0  0  0  0
   12.2765   52.3219   90.0110 O   0  0  0  0  0  0  0  0  0  0  0  0
   11.6639   50.7344   91.4871 N   0  0  0  0  0  0  0  0  0  0  0  0
   11.2087   50.1729   92.8023 C   0  0  0  0  0  0  0  0  0  0  0  0
   11.7199   48.7363   92.8067 C   0  0  0  0  0  0  0  0  0  0  0  0
   13.0952   48.6640   93.2500 O   0  0  0  0  0  0  0  0  0  0  0  0
   11.6192   48.3276   91.3505 C   0  0  0  0  0  0  0  0  0  0  0  0
   11.9527   49.5978   90.5325 C   0  0  0  0  0  0  0  0  0  0  0  0
   13.6484   49.2199   92.6792 H   0  0  0  0  0  0  0  0  0  0  0  0
   11.1309   49.6176   89.3674 C   0  0  0  0  0  0  0  0  0  0  0  0
   10.0446   49.0581   89.3554 O   0  0  0  0  0  0  0  0  0  0  0  0
   11.6296   50.2244   88.2768 N   0  0  0  0  0  0  0  0  0  0  0  0
   12.5019   50.6740   88.3552 H   0  0  0  0  0  0  0  0  0  0  0  0
   10.9443   50.2568   86.9634 C   0  0  0  0  0  0  0  0  0  0  0  0
   11.8415   50.6336   85.8841 C   0  0  0  0  0  0  0  0  0  0  0  0
   12.2733   49.6831   84.9682 C   0  0  0  0  0  0  0  0  0  0  0  0
   13.1376   50.0038   83.9055 C   0  0  0  0  0  0  0  0  0  0  0  0
   12.3199   51.9350   85.6952 C   0  0  0  0  0  0  0  0  0  0  0  0
   13.1848   52.2659   84.6275 C   0  0  0  0  0  0  0  0  0  0  0  0
   13.6143   51.3118   83.7077 C   0  0  0  0  0  0  0  0  0  0  0  0
   14.4470   51.6421   82.6818 C   0  0  0  0  0  0  0  0  0  0  0  0
   14.3308   51.1332   81.0542 S   0  0  0  0  0  0  0  0  0  0  0  0
   15.6533   51.9553   80.5098 C   0  0  0  0  0  0  0  0  0  0  0  0
   16.1918   52.5939   81.5499 N   0  0  0  0  0  0  0  0  0  0  0  0
   15.5534   52.4200   82.7283 C   0  0  0  0  0  0  0  0  0  0  0  0
   16.0936   53.1311   83.9833 C   0  0  0  0  0  0  0  0  0  0  0  0
   11.4698   53.1461   92.1205 C   0  0  0  0  0  0  0  0  0  0  0  0
   13.7634   54.3532   92.4464 C   0  0  0  0  0  0  0  0  0  0  0  0
   14.3155   53.5464   93.1947 O   0  0  0  0  0  0  0  0  0  0  0  0
   12.5156   54.1741   92.0201 N   0  0  0  0  0  0  0  0  0  0  0  0
   12.2072   54.9442   91.4900 H   0  0  0  0  0  0  0  0  0  0  0  0
   15.2493   55.5020   90.7481 C   0  0  0  0  0  0  0  0  0  0  0  0
   14.2644   56.3220   90.0766 O   0  0  0  0  0  0  0  0  0  0  0  0
   13.5581   56.5586   91.3126 C   0  0  0  0  0  0  0  0  0  0  0  0
   14.4721   55.6543   92.0640 C   0  0  0  0  0  0  0  0  0  0  0  0
   10.0559   53.7718   91.9842 C   0  0  0  0  0  0  0  0  0  0  0  0
    9.0525   52.6955   91.5337 C   0  0  0  0  0  0  0  0  0  0  0  0
   10.0220   54.9340   90.9843 C   0  0  0  0  0  0  0  0  0  0  0  0
    9.6511   54.2696   93.3792 C   0  0  0  0  0  0  0  0  0  0  0  0
 24 23  2  0  0  0
 24 25  1  0  0  0
 23 22  1  0  0  0
 26 25  1  0  0  0
 25 21  2  0  0  0
 22 21  1  0  0  0
 21 20  1  0  0  0
 20 17  2  0  0  0
 20 19  1  0  0  0
 17 16  1  0  0  0
 19 18  2  0  0  0
 16 15  2  0  0  0
 18 15  1  0  0  0
 15 14  1  0  0  0
 14 12  1  0  0  0
 12 10  1  0  0  0
 10 11  2  0  0  0
 10  8  1  0  0  0
  7  8  1  0  0  0
  7  5  1  0  0  0
  8  3  1  0  0  0
  5  6  1  0  0  0
  5  4  1  0  0  0
  3  4  1  0  0  0
  3  1  1  0  0  0
  2  1  2  0  0  0
  1 27  1  0  0  0
 37 36  1  0  0  0
 27 36  1  0  0  0
 27 30  1  0  0  0
 38 36  1  0  0  0
 36 39  1  0  0  0
 30 28  1  0  0  0
 28 29  2  0  0  0
 28 35  1  0  0  0
 34 35  1  0  0  0
 34 33  1  0  0  0
 35 32  1  0  0  0
 33 32  1  0  0  0
 30 31  1  0  0  0
  6  9  1  0  0  0
 12 13  1  0  0  0
M  END
> <minimizedAffinity>
-6.80046

$$$$
5NW2_9B8_C_301


 39 42  0  0  0  0  0  0  0  0999 V2000
   11.5616   53.3049   93.0623 C   0  0  0  0  0  0  0  0  0  0  0  0
   10.4543   53.0160   92.6440 O   0  0  0  0  0  0  0  0  0  0  0  0
   12.5071   53.8620   92.2640 N   0  0  0  0  0  0  0  0  0  0  0  0
   13.8819   54.3577   92.6057 C   0  0  0  0  0  0  0  0  0  0  0  0
   14.2392   55.3159   91.4745 C   0  0  0  0  0  0  0  0  0  0  0  0
   13.7019   56.6384   91.7099 O   0  0  0  0  0  0  0  0  0  0  0  0
   13.5725   54.6897   90.2658 C   0  0  0  0  0  0  0  0  0  0  0  0
   12.2562   54.0655   90.7869 C   0  0  0  0  0  0  0  0  0  0  0  0
   12.7394   56.5821   91.8164 H   0  0  0  0  0  0  0  0  0  0  0  0
   12.0195   52.8486   90.0824 C   0  0  0  0  0  0  0  0  0  0  0  0
   12.4546   51.7860   90.5003 O   0  0  0  0  0  0  0  0  0  0  0  0
   11.3525   52.9348   88.9187 N   0  0  0  0  0  0  0  0  0  0  0  0
   11.0103   53.8165   88.6453 H   0  0  0  0  0  0  0  0  0  0  0  0
   11.1015   51.7814   88.0230 C   0  0  0  0  0  0  0  0  0  0  0  0
   11.9278   51.8228   86.8283 C   0  0  0  0  0  0  0  0  0  0  0  0
   12.3507   53.0404   86.3110 C   0  0  0  0  0  0  0  0  0  0  0  0
   13.1550   53.1277   85.1601 C   0  0  0  0  0  0  0  0  0  0  0  0
   12.3429   50.6801   86.1353 C   0  0  0  0  0  0  0  0  0  0  0  0
   13.1545   50.7594   84.9810 C   0  0  0  0  0  0  0  0  0  0  0  0
   13.5806   51.9815   84.4655 C   0  0  0  0  0  0  0  0  0  0  0  0
   14.3637   52.0461   83.3531 C   0  0  0  0  0  0  0  0  0  0  0  0
   16.0228   52.4507   83.2816 S   0  0  0  0  0  0  0  0  0  0  0  0
   16.1816   52.2874   81.6478 C   0  0  0  0  0  0  0  0  0  0  0  0
   14.9889   51.9494   81.1551 N   0  0  0  0  0  0  0  0  0  0  0  0
   13.9996   51.8291   82.0679 C   0  0  0  0  0  0  0  0  0  0  0  0
   12.5902   51.4270   81.5943 C   0  0  0  0  0  0  0  0  0  0  0  0
   11.9011   53.0852   94.5629 C   0  0  0  0  0  0  0  0  0  0  0  0
   10.4968   54.9306   95.7657 C   0  0  0  0  0  0  0  0  0  0  0  0
   11.2244   55.9038   95.5680 O   0  0  0  0  0  0  0  0  0  0  0  0
   10.8280   53.7111   95.3485 N   0  0  0  0  0  0  0  0  0  0  0  0
   10.1717   53.0420   95.6499 H   0  0  0  0  0  0  0  0  0  0  0  0
    8.8921   56.5605   96.8521 C   0  0  0  0  0  0  0  0  0  0  0  0
    7.7847   56.4674   95.9257 O   0  0  0  0  0  0  0  0  0  0  0  0
    8.0120   55.0556   95.7314 C   0  0  0  0  0  0  0  0  0  0  0  0
    9.2224   55.0821   96.5988 C   0  0  0  0  0  0  0  0  0  0  0  0
   12.1337   51.6157   95.0051 C   0  0  0  0  0  0  0  0  0  0  0  0
   10.7797   50.9085   95.1914 C   0  0  0  0  0  0  0  0  0  0  0  0
   12.9320   51.5148   96.3107 C   0  0  0  0  0  0  0  0  0  0  0  0
   12.8993   50.9228   93.8687 C   0  0  0  0  0  0  0  0  0  0  0  0
 24 23  2  0  0  0
 24 25  1  0  0  0
 23 22  1  0  0  0
 26 25  1  0  0  0
 25 21  2  0  0  0
 22 21  1  0  0  0
 21 20  1  0  0  0
 20 17  2  0  0  0
 20 19  1  0  0  0
 17 16  1  0  0  0
 19 18  2  0  0  0
 16 15  2  0  0  0
 18 15  1  0  0  0
 15 14  1  0  0  0
 14 12  1  0  0  0
 12 10  1  0  0  0
 10 11  2  0  0  0
 10  8  1  0  0  0
  7  8  1  0  0  0
  7  5  1  0  0  0
  8  3  1  0  0  0
  5  6  1  0  0  0
  5  4  1  0  0  0
  3  4  1  0  0  0
  3  1  1  0  0  0
  2  1  2  0  0  0
  1 27  1  0  0  0
 37 36  1  0  0  0
 27 36  1  0  0  0
 27 30  1  0  0  0
 38 36  1  0  0  0
 36 39  1  0  0  0
 30 28  1  0  0  0
 28 29  2  0  0  0
 28 35  1  0  0  0
 34 35  1  0  0  0
 34 33  1  0  0  0
 35 32  1  0  0  0
 33 32  1  0  0  0
 30 31  1  0  0  0
  6  9  1  0  0  0
 12 13  1  0  0  0
M  END
> <minimizedAffinity>
-6.76205

$$$$
5NW2_9B8_C_301


 39 42  0  0  0  0  0  0  0  0999 V2000
   11.9423   52.9801   91.0454 C   0  0  0  0  0  0  0  0  0  0  0  0
   12.7314   52.8035   90.1341 O   0  0  0  0  0  0  0  0  0  0  0  0
   10.6242   52.6821   90.9209 N   0  0  0  0  0  0  0  0  0  0  0  0
    9.5239   52.7496   91.9394 C   0  0  0  0  0  0  0  0  0  0  0  0
    8.4372   51.8284   91.3957 C   0  0  0  0  0  0  0  0  0  0  0  0
    8.6846   50.4482   91.7519 O   0  0  0  0  0  0  0  0  0  0  0  0
    8.5493   52.0077   89.8947 C   0  0  0  0  0  0  0  0  0  0  0  0
   10.0569   52.1999   89.6048 C   0  0  0  0  0  0  0  0  0  0  0  0
    9.5555   50.1797   91.4197 H   0  0  0  0  0  0  0  0  0  0  0  0
   10.1999   53.1470   88.5485 C   0  0  0  0  0  0  0  0  0  0  0  0
    9.5187   54.1610   88.5173 O   0  0  0  0  0  0  0  0  0  0  0  0
   11.0691   52.8447   87.5689 N   0  0  0  0  0  0  0  0  0  0  0  0
   11.6030   52.0227   87.6610 H   0  0  0  0  0  0  0  0  0  0  0  0
   11.2713   53.6753   86.3586 C   0  0  0  0  0  0  0  0  0  0  0  0
   11.6927   52.8856   85.2138 C   0  0  0  0  0  0  0  0  0  0  0  0
   12.9183   52.2326   85.2262 C   0  0  0  0  0  0  0  0  0  0  0  0
   13.3644   51.4539   84.1427 C   0  0  0  0  0  0  0  0  0  0  0  0
   10.9225   52.7309   84.0557 C   0  0  0  0  0  0  0  0  0  0  0  0
   11.3617   51.9468   82.9649 C   0  0  0  0  0  0  0  0  0  0  0  0
   12.5901   51.2897   82.9805 C   0  0  0  0  0  0  0  0  0  0  0  0
   13.0029   50.5356   81.9241 C   0  0  0  0  0  0  0  0  0  0  0  0
   12.3372   49.0541   81.3917 S   0  0  0  0  0  0  0  0  0  0  0  0
   13.3649   48.8374   80.1197 C   0  0  0  0  0  0  0  0  0  0  0  0
   14.2173   49.8635   80.1062 N   0  0  0  0  0  0  0  0  0  0  0  0
   14.0360   50.7782   81.0844 C   0  0  0  0  0  0  0  0  0  0  0  0
   14.9634   52.0067   81.1405 C   0  0  0  0  0  0  0  0  0  0  0  0
   12.4509   53.5114   92.4144 C   0  0  0  0  0  0  0  0  0  0  0  0
   13.6050   52.0197   94.2219 C   0  0  0  0  0  0  0  0  0  0  0  0
   13.2106   52.5886   95.2400 O   0  0  0  0  0  0  0  0  0  0  0  0
   13.2890   52.4587   93.0061 N   0  0  0  0  0  0  0  0  0  0  0  0
   13.7426   51.9319   92.3091 H   0  0  0  0  0  0  0  0  0  0  0  0
   14.6914   50.3441   95.7789 C   0  0  0  0  0  0  0  0  0  0  0  0
   13.9270   49.1636   95.4394 O   0  0  0  0  0  0  0  0  0  0  0  0
   13.8670   49.5512   94.0507 C   0  0  0  0  0  0  0  0  0  0  0  0
   14.5680   50.8354   94.3290 C   0  0  0  0  0  0  0  0  0  0  0  0
   13.1980   54.8717   92.3873 C   0  0  0  0  0  0  0  0  0  0  0  0
   14.6900   54.6392   92.0904 C   0  0  0  0  0  0  0  0  0  0  0  0
   13.0668   55.6401   93.7079 C   0  0  0  0  0  0  0  0  0  0  0  0
   12.5897   55.6929   91.2413 C   0  0  0  0  0  0  0  0  0  0  0  0
 24 23  2  0  0  0
 24 25  1  0  0  0
 23 22  1  0  0  0
 26 25  1  0  0  0
 25 21  2  0  0  0
 22 21  1  0  0  0
 21 20  1  0  0  0
 20 17  2  0  0  0
 20 19  1  0  0  0
 17 16  1  0  0  0
 19 18  2  0  0  0
 16 15  2  0  0  0
 18 15  1  0  0  0
 15 14  1  0  0  0
 14 12  1  0  0  0
 12 10  1  0  0  0
 10 11  2  0  0  0
 10  8  1  0  0  0
  7  8  1  0  0  0
  7  5  1  0  0  0
  8  3  1  0  0  0
  5  6  1  0  0  0
  5  4  1  0  0  0
  3  4  1  0  0  0
  3  1  1  0  0  0
  2  1  2  0  0  0
  1 27  1  0  0  0
 37 36  1  0  0  0
 27 36  1  0  0  0
 27 30  1  0  0  0
 38 36  1  0  0  0
 36 39  1  0  0  0
 30 28  1  0  0  0
 28 29  2  0  0  0
 28 35  1  0  0  0
 34 35  1  0  0  0
 34 33  1  0  0  0
 35 32  1  0  0  0
 33 32  1  0  0  0
 30 31  1  0  0  0
  6  9  1  0  0  0
 12 13  1  0  0  0
M  END
> <minimizedAffinity>
-6.52531

$$$$
5NW2_9B8_C_301


 39 42  0  0  0  0  0  0  0  0999 V2000
   10.8623   51.5446   83.2155 C   0  0  0  0  0  0  0  0  0  0  0  0
   11.0656   52.7187   83.4699 O   0  0  0  0  0  0  0  0  0  0  0  0
    9.8237   51.1487   82.4370 N   0  0  0  0  0  0  0  0  0  0  0  0
    9.4580   49.7777   81.9480 C   0  0  0  0  0  0  0  0  0  0  0  0
    8.5602   50.0250   80.7405 C   0  0  0  0  0  0  0  0  0  0  0  0
    9.3358   50.2482   79.5398 O   0  0  0  0  0  0  0  0  0  0  0  0
    7.8097   51.2865   81.1186 C   0  0  0  0  0  0  0  0  0  0  0  0
    8.8122   52.1481   81.9227 C   0  0  0  0  0  0  0  0  0  0  0  0
    9.9353   50.9984   79.6769 H   0  0  0  0  0  0  0  0  0  0  0  0
    8.1038   52.8191   82.9625 C   0  0  0  0  0  0  0  0  0  0  0  0
    7.7798   53.9916   82.8466 O   0  0  0  0  0  0  0  0  0  0  0  0
    7.8642   52.1237   84.0874 N   0  0  0  0  0  0  0  0  0  0  0  0
    8.1324   51.1767   84.1124 H   0  0  0  0  0  0  0  0  0  0  0  0
    7.2205   52.6978   85.2922 C   0  0  0  0  0  0  0  0  0  0  0  0
    8.1547   52.8513   86.3947 C   0  0  0  0  0  0  0  0  0  0  0  0
    7.9037   52.2395   87.6159 C   0  0  0  0  0  0  0  0  0  0  0  0
    8.7823   52.3570   88.7084 C   0  0  0  0  0  0  0  0  0  0  0  0
    9.3336   53.6006   86.3103 C   0  0  0  0  0  0  0  0  0  0  0  0
   10.2234   53.7198   87.4020 C   0  0  0  0  0  0  0  0  0  0  0  0
    9.9716   53.1026   88.6253 C   0  0  0  0  0  0  0  0  0  0  0  0
   10.8367   53.2232   89.6703 C   0  0  0  0  0  0  0  0  0  0  0  0
   11.0110   54.5643   90.7156 S   0  0  0  0  0  0  0  0  0  0  0  0
   12.2014   53.9129   91.6534 C   0  0  0  0  0  0  0  0  0  0  0  0
   12.4810   52.7006   91.1718 N   0  0  0  0  0  0  0  0  0  0  0  0
   11.7570   52.3260   90.0939 C   0  0  0  0  0  0  0  0  0  0  0  0
   11.9992   50.9356   89.4770 C   0  0  0  0  0  0  0  0  0  0  0  0
   11.8407   50.4597   83.7454 C   0  0  0  0  0  0  0  0  0  0  0  0
   13.7867   50.8268   82.0417 C   0  0  0  0  0  0  0  0  0  0  0  0
   13.2255   50.4638   81.0077 O   0  0  0  0  0  0  0  0  0  0  0  0
   13.1758   50.7845   83.2231 N   0  0  0  0  0  0  0  0  0  0  0  0
   13.7884   51.0426   83.9493 H   0  0  0  0  0  0  0  0  0  0  0  0
   15.6987   51.6326   80.5901 C   0  0  0  0  0  0  0  0  0  0  0  0
   15.7367   53.0237   80.9861 O   0  0  0  0  0  0  0  0  0  0  0  0
   15.4099   52.6871   82.3507 C   0  0  0  0  0  0  0  0  0  0  0  0
   15.2580   51.2454   82.0096 C   0  0  0  0  0  0  0  0  0  0  0  0
   11.8756   50.2607   85.2844 C   0  0  0  0  0  0  0  0  0  0  0  0
   12.6721   48.9890   85.6260 C   0  0  0  0  0  0  0  0  0  0  0  0
   10.4729   50.1486   85.8939 C   0  0  0  0  0  0  0  0  0  0  0  0
   12.6076   51.4742   85.8754 C   0  0  0  0  0  0  0  0  0  0  0  0
 24 23  2  0  0  0
 24 25  1  0  0  0
 23 22  1  0  0  0
 26 25  1  0  0  0
 25 21  2  0  0  0
 22 21  1  0  0  0
 21 20  1  0  0  0
 20 17  2  0  0  0
 20 19  1  0  0  0
 17 16  1  0  0  0
 19 18  2  0  0  0
 16 15  2  0  0  0
 18 15  1  0  0  0
 15 14  1  0  0  0
 14 12  1  0  0  0
 12 10  1  0  0  0
 10 11  2  0  0  0
 10  8  1  0  0  0
  7  8  1  0  0  0
  7  5  1  0  0  0
  8  3  1  0  0  0
  5  6  1  0  0  0
  5  4  1  0  0  0
  3  4  1  0  0  0
  3  1  1  0  0  0
  2  1  2  0  0  0
  1 27  1  0  0  0
 37 36  1  0  0  0
 27 36  1  0  0  0
 27 30  1  0  0  0
 38 36  1  0  0  0
 36 39  1  0  0  0
 30 28  1  0  0  0
 28 29  2  0  0  0
 28 35  1  0  0  0
 34 35  1  0  0  0
 34 33  1  0  0  0
 35 32  1  0  0  0
 33 32  1  0  0  0
 30 31  1  0  0  0
  6  9  1  0  0  0
 12 13  1  0  0  0
M  END
> <minimizedAffinity>
-6.48624

$$$$
5NW2_9B8_C_301


 39 42  0  0  0  0  0  0  0  0999 V2000
   12.3494   52.8037   92.9966 C   0  0  0  0  0  0  0  0  0  0  0  0
   13.3535   52.8206   92.3067 O   0  0  0  0  0  0  0  0  0  0  0  0
   11.1363   52.4678   92.4897 N   0  0  0  0  0  0  0  0  0  0  0  0
    9.8152   52.3105   93.1843 C   0  0  0  0  0  0  0  0  0  0  0  0
    8.9855   51.4425   92.2445 C   0  0  0  0  0  0  0  0  0  0  0  0
    9.2588   50.0356   92.4421 O   0  0  0  0  0  0  0  0  0  0  0  0
    9.4520   51.8761   90.8690 C   0  0  0  0  0  0  0  0  0  0  0  0
   10.9608   52.1865   91.0144 C   0  0  0  0  0  0  0  0  0  0  0  0
   10.2054   49.8687   92.3120 H   0  0  0  0  0  0  0  0  0  0  0  0
   11.2774   53.3032   90.1861 C   0  0  0  0  0  0  0  0  0  0  0  0
   10.6324   54.3387   90.2541 O   0  0  0  0  0  0  0  0  0  0  0  0
   12.2713   53.1424   89.2956 N   0  0  0  0  0  0  0  0  0  0  0  0
   12.7664   52.2915   89.3028 H   0  0  0  0  0  0  0  0  0  0  0  0
   12.6659   54.1700   88.3036 C   0  0  0  0  0  0  0  0  0  0  0  0
   12.9940   53.5902   87.0121 C   0  0  0  0  0  0  0  0  0  0  0  0
   12.3365   52.4501   86.5687 C   0  0  0  0  0  0  0  0  0  0  0  0
   12.6184   51.8578   85.3241 C   0  0  0  0  0  0  0  0  0  0  0  0
   13.9625   54.1185   86.1511 C   0  0  0  0  0  0  0  0  0  0  0  0
   14.2483   53.5318   84.8975 C   0  0  0  0  0  0  0  0  0  0  0  0
   13.5853   52.3901   84.4528 C   0  0  0  0  0  0  0  0  0  0  0  0
   13.8678   51.8338   83.2422 C   0  0  0  0  0  0  0  0  0  0  0  0
   12.7647   51.1038   82.1597 S   0  0  0  0  0  0  0  0  0  0  0  0
   13.8717   50.7253   80.9967 C   0  0  0  0  0  0  0  0  0  0  0  0
   15.0683   51.1278   81.4278 N   0  0  0  0  0  0  0  0  0  0  0  0
   15.0763   51.7162   82.6445 C   0  0  0  0  0  0  0  0  0  0  0  0
   16.4107   52.2276   83.2189 C   0  0  0  0  0  0  0  0  0  0  0  0
   12.4507   53.1216   94.5145 C   0  0  0  0  0  0  0  0  0  0  0  0
   13.8807   51.3042   95.7295 C   0  0  0  0  0  0  0  0  0  0  0  0
   12.9772   50.6093   96.1949 O   0  0  0  0  0  0  0  0  0  0  0  0
   13.6275   52.4084   95.0314 N   0  0  0  0  0  0  0  0  0  0  0  0
   14.4598   52.8784   94.7955 H   0  0  0  0  0  0  0  0  0  0  0  0
   15.6737   51.2016   97.5147 C   0  0  0  0  0  0  0  0  0  0  0  0
   15.7282   49.7710   97.7244 O   0  0  0  0  0  0  0  0  0  0  0  0
   15.5056   49.5152   96.3217 C   0  0  0  0  0  0  0  0  0  0  0  0
   15.3420   50.9671   96.0335 C   0  0  0  0  0  0  0  0  0  0  0  0
   12.4946   54.6248   94.8987 C   0  0  0  0  0  0  0  0  0  0  0  0
   13.0720   54.7822   96.3164 C   0  0  0  0  0  0  0  0  0  0  0  0
   11.1110   55.2844   94.8484 C   0  0  0  0  0  0  0  0  0  0  0  0
   13.4390   55.3133   93.9028 C   0  0  0  0  0  0  0  0  0  0  0  0
 24 23  2  0  0  0
 24 25  1  0  0  0
 23 22  1  0  0  0
 26 25  1  0  0  0
 25 21  2  0  0  0
 22 21  1  0  0  0
 21 20  1  0  0  0
 20 17  2  0  0  0
 20 19  1  0  0  0
 17 16  1  0  0  0
 19 18  2  0  0  0
 16 15  2  0  0  0
 18 15  1  0  0  0
 15 14  1  0  0  0
 14 12  1  0  0  0
 12 10  1  0  0  0
 10 11  2  0  0  0
 10  8  1  0  0  0
  7  8  1  0  0  0
  7  5  1  0  0  0
  8  3  1  0  0  0
  5  6  1  0  0  0
  5  4  1  0  0  0
  3  4  1  0  0  0
  3  1  1  0  0  0
  2  1  2  0  0  0
  1 27  1  0  0  0
 37 36  1  0  0  0
 27 36  1  0  0  0
 27 30  1  0  0  0
 38 36  1  0  0  0
 36 39  1  0  0  0
 30 28  1  0  0  0
 28 29  2  0  0  0
 28 35  1  0  0  0
 34 35  1  0  0  0
 34 33  1  0  0  0
 35 32  1  0  0  0
 33 32  1  0  0  0
 30 31  1  0  0  0
  6  9  1  0  0  0
 12 13  1  0  0  0
M  END
> <minimizedAffinity>
-6.37178

$$$$
5NW2_9B8_C_301


 39 42  0  0  0  0  0  0  0  0999 V2000
   11.3336   52.0050   86.9908 C   0  0  0  0  0  0  0  0  0  0  0  0
   12.3369   52.6652   86.7854 O   0  0  0  0  0  0  0  0  0  0  0  0
   10.4065   52.3760   87.9097 N   0  0  0  0  0  0  0  0  0  0  0  0
    9.0842   51.7508   88.2463 C   0  0  0  0  0  0  0  0  0  0  0  0
    8.2966   52.8602   88.9350 C   0  0  0  0  0  0  0  0  0  0  0  0
    7.6456   53.7236   87.9739 O   0  0  0  0  0  0  0  0  0  0  0  0
    9.3649   53.6289   89.6870 C   0  0  0  0  0  0  0  0  0  0  0  0
   10.6249   53.5858   88.7901 C   0  0  0  0  0  0  0  0  0  0  0  0
    8.3096   54.0996   87.3751 H   0  0  0  0  0  0  0  0  0  0  0  0
   11.7747   53.4744   89.6260 C   0  0  0  0  0  0  0  0  0  0  0  0
   12.2514   52.3822   89.8964 O   0  0  0  0  0  0  0  0  0  0  0  0
   12.2676   54.6125   90.1439 N   0  0  0  0  0  0  0  0  0  0  0  0
   11.8519   55.4627   89.8728 H   0  0  0  0  0  0  0  0  0  0  0  0
   13.3996   54.6634   91.0986 C   0  0  0  0  0  0  0  0  0  0  0  0
   12.9557   54.8645   92.4677 C   0  0  0  0  0  0  0  0  0  0  0  0
   13.8188   55.4060   93.4115 C   0  0  0  0  0  0  0  0  0  0  0  0
   13.4304   55.6225   94.7462 C   0  0  0  0  0  0  0  0  0  0  0  0
   11.6722   54.5384   92.9201 C   0  0  0  0  0  0  0  0  0  0  0  0
   11.2732   54.7570   94.2582 C   0  0  0  0  0  0  0  0  0  0  0  0
   12.1393   55.3034   95.2028 C   0  0  0  0  0  0  0  0  0  0  0  0
   11.7437   55.5108   96.4894 C   0  0  0  0  0  0  0  0  0  0  0  0
   11.5139   54.3276   97.7014 S   0  0  0  0  0  0  0  0  0  0  0  0
   11.0695   55.3733   98.8972 C   0  0  0  0  0  0  0  0  0  0  0  0
   11.0746   56.6045   98.3835 N   0  0  0  0  0  0  0  0  0  0  0  0
   11.4257   56.6857   97.0809 C   0  0  0  0  0  0  0  0  0  0  0  0
   11.4748   58.0686   96.4046 C   0  0  0  0  0  0  0  0  0  0  0  0
   11.0652   50.7267   86.1487 C   0  0  0  0  0  0  0  0  0  0  0  0
   10.9944   51.6690   83.7133 C   0  0  0  0  0  0  0  0  0  0  0  0
    9.8692   52.1687   83.7191 O   0  0  0  0  0  0  0  0  0  0  0  0
   11.4787   51.0193   84.7688 N   0  0  0  0  0  0  0  0  0  0  0  0
   12.3586   50.6250   84.5703 H   0  0  0  0  0  0  0  0  0  0  0  0
   13.3176   51.4129   82.7390 C   0  0  0  0  0  0  0  0  0  0  0  0
   13.1875   50.1033   82.1378 O   0  0  0  0  0  0  0  0  0  0  0  0
   11.8199   50.3670   81.7602 C   0  0  0  0  0  0  0  0  0  0  0  0
   11.8381   51.6934   82.4370 C   0  0  0  0  0  0  0  0  0  0  0  0
   11.7203   49.4169   86.6629 C   0  0  0  0  0  0  0  0  0  0  0  0
   10.8072   48.2196   86.3449 C   0  0  0  0  0  0  0  0  0  0  0  0
   11.9918   49.4493   88.1719 C   0  0  0  0  0  0  0  0  0  0  0  0
   13.0403   49.2469   85.8972 C   0  0  0  0  0  0  0  0  0  0  0  0
 24 23  2  0  0  0
 24 25  1  0  0  0
 23 22  1  0  0  0
 26 25  1  0  0  0
 25 21  2  0  0  0
 22 21  1  0  0  0
 21 20  1  0  0  0
 20 17  2  0  0  0
 20 19  1  0  0  0
 17 16  1  0  0  0
 19 18  2  0  0  0
 16 15  2  0  0  0
 18 15  1  0  0  0
 15 14  1  0  0  0
 14 12  1  0  0  0
 12 10  1  0  0  0
 10 11  2  0  0  0
 10  8  1  0  0  0
  7  8  1  0  0  0
  7  5  1  0  0  0
  8  3  1  0  0  0
  5  6  1  0  0  0
  5  4  1  0  0  0
  3  4  1  0  0  0
  3  1  1  0  0  0
  2  1  2  0  0  0
  1 27  1  0  0  0
 37 36  1  0  0  0
 27 36  1  0  0  0
 27 30  1  0  0  0
 38 36  1  0  0  0
 36 39  1  0  0  0
 30 28  1  0  0  0
 28 29  2  0  0  0
 28 35  1  0  0  0
 34 35  1  0  0  0
 34 33  1  0  0  0
 35 32  1  0  0  0
 33 32  1  0  0  0
 30 31  1  0  0  0
  6  9  1  0  0  0
 12 13  1  0  0  0
M  END
> <minimizedAffinity>
-6.26997

$$$$
