4K77_1Q4_A_1201


 20 22  0  0  0  0  0  0  0  0999 V2000
    6.4111   58.9132   -0.9739 C   0  0  0  0  0  0  0  0  0  0  0  0
    7.2598   59.7462   -1.6224 C   0  0  0  0  0  0  0  0  0  0  0  0
    8.4133   59.2896   -2.2147 N   0  0  0  0  0  0  0  0  0  0  0  0
    8.7947   57.9847   -2.1742 C   0  0  0  0  0  0  0  0  0  0  0  0
    9.8232   57.6083   -2.7162 O   0  0  0  0  0  0  0  0  0  0  0  0
    7.9441   57.0129   -1.4822 C   0  0  0  0  0  0  0  0  0  0  0  0
    6.7389   57.4858   -0.8867 C   0  0  0  0  0  0  0  0  0  0  0  0
    5.9091   56.5417   -0.2350 C   0  0  0  0  0  0  0  0  0  0  0  0
    6.3103   55.2648   -0.2210 N   0  0  0  0  0  0  0  0  0  0  0  0
    7.4393   54.8737   -0.8035 C   0  0  0  0  0  0  0  0  0  0  0  0
    8.2485   55.7173   -1.4121 N   0  0  0  0  0  0  0  0  0  0  0  0
    8.9874   59.9342   -2.6881 H   0  0  0  0  0  0  0  0  0  0  0  0
    4.7245   56.9453    0.3705 N   0  0  0  0  0  0  0  0  0  0  0  0
    4.7468   57.6346    1.0731 H   0  0  0  0  0  0  0  0  0  0  0  0
    3.4461   56.3570   -0.0251 C   0  0  0  0  0  0  0  0  0  0  0  0
    2.3502   56.8325    0.9357 C   0  0  0  0  0  0  0  0  0  0  0  0
    0.9714   56.3666    0.4348 C   0  0  0  0  0  0  0  0  0  0  0  0
    0.6887   56.8580   -0.9902 C   0  0  0  0  0  0  0  0  0  0  0  0
    1.7485   56.2527   -1.9081 C   0  0  0  0  0  0  0  0  0  0  0  0
    3.1152   56.7929   -1.4573 C   0  0  0  0  0  0  0  0  0  0  0  0
  5  4  2  0  0  0
 11 10  2  0  0  0
 11  6  1  0  0  0
 10  9  1  0  0  0
  4  6  1  0  0  0
  4  3  1  0  0  0
  6  7  2  0  0  0
  9  8  2  0  0  0
  3  2  1  0  0  0
  7  8  1  0  0  0
  7  1  1  0  0  0
  8 13  1  0  0  0
 20 19  1  0  0  0
 20 15  1  0  0  0
  2  1  2  0  0  0
 19 18  1  0  0  0
 15 13  1  0  0  0
 15 16  1  0  0  0
 16 17  1  0  0  0
 18 17  1  0  0  0
  3 12  1  0  0  0
 13 14  1  0  0  0
M  END
> <minimizedAffinity>
-0.00014

$$$$
4K77_1Q4_A_1201


 20 22  0  0  0  0  0  0  0  0999 V2000
    4.1406   57.7277    1.2116 C   0  0  0  0  0  0  0  0  0  0  0  0
    4.6753   58.9665    1.3298 C   0  0  0  0  0  0  0  0  0  0  0  0
    4.4009   59.7755    2.4070 N   0  0  0  0  0  0  0  0  0  0  0  0
    3.5631   59.4038    3.4119 C   0  0  0  0  0  0  0  0  0  0  0  0
    3.3439   60.1432    4.3598 O   0  0  0  0  0  0  0  0  0  0  0  0
    2.9280   58.0844    3.3614 C   0  0  0  0  0  0  0  0  0  0  0  0
    3.2303   57.2403    2.2539 C   0  0  0  0  0  0  0  0  0  0  0  0
    2.6305   55.9583    2.2169 C   0  0  0  0  0  0  0  0  0  0  0  0
    1.8178   55.6217    3.2259 N   0  0  0  0  0  0  0  0  0  0  0  0
    1.5788   56.4432    4.2432 C   0  0  0  0  0  0  0  0  0  0  0  0
    2.1056   57.6490    4.3154 N   0  0  0  0  0  0  0  0  0  0  0  0
    4.8287   60.6609    2.4529 H   0  0  0  0  0  0  0  0  0  0  0  0
    2.8822   55.0937    1.1577 N   0  0  0  0  0  0  0  0  0  0  0  0
    2.6809   55.3793    0.2373 H   0  0  0  0  0  0  0  0  0  0  0  0
    3.4426   53.7648    1.3964 C   0  0  0  0  0  0  0  0  0  0  0  0
    3.4229   52.9640    0.0893 C   0  0  0  0  0  0  0  0  0  0  0  0
    4.1666   51.6296    0.2773 C   0  0  0  0  0  0  0  0  0  0  0  0
    5.6078   51.8447    0.7554 C   0  0  0  0  0  0  0  0  0  0  0  0
    5.5468   52.5412    2.1131 C   0  0  0  0  0  0  0  0  0  0  0  0
    4.8828   53.9112    1.9016 C   0  0  0  0  0  0  0  0  0  0  0  0
  5  4  2  0  0  0
 11 10  2  0  0  0
 11  6  1  0  0  0
 10  9  1  0  0  0
  4  6  1  0  0  0
  4  3  1  0  0  0
  6  7  2  0  0  0
  9  8  2  0  0  0
  3  2  1  0  0  0
  7  8  1  0  0  0
  7  1  1  0  0  0
  8 13  1  0  0  0
 20 19  1  0  0  0
 20 15  1  0  0  0
  2  1  2  0  0  0
 19 18  1  0  0  0
 15 13  1  0  0  0
 15 16  1  0  0  0
 16 17  1  0  0  0
 18 17  1  0  0  0
  3 12  1  0  0  0
 13 14  1  0  0  0
M  END
> <minimizedAffinity>
-0.00014

$$$$
4K77_1Q4_A_1201


 20 22  0  0  0  0  0  0  0  0999 V2000
    2.8027   55.5627   -0.3033 C   0  0  0  0  0  0  0  0  0  0  0  0
    2.3413   56.8222   -0.4916 C   0  0  0  0  0  0  0  0  0  0  0  0
    3.0368   57.7460   -1.2352 N   0  0  0  0  0  0  0  0  0  0  0  0
    4.2379   57.4728   -1.8118 C   0  0  0  0  0  0  0  0  0  0  0  0
    4.8291   58.3137   -2.4726 O   0  0  0  0  0  0  0  0  0  0  0  0
    4.8211   56.1385   -1.6499 C   0  0  0  0  0  0  0  0  0  0  0  0
    4.0882   55.1769   -0.8957 C   0  0  0  0  0  0  0  0  0  0  0  0
    4.6447   53.8825   -0.7566 C   0  0  0  0  0  0  0  0  0  0  0  0
    5.8240   53.6452   -1.3437 N   0  0  0  0  0  0  0  0  0  0  0  0
    6.4612   54.5754   -2.0478 C   0  0  0  0  0  0  0  0  0  0  0  0
    5.9879   55.7963   -2.1957 N   0  0  0  0  0  0  0  0  0  0  0  0
    2.6492   58.6430   -1.3553 H   0  0  0  0  0  0  0  0  0  0  0  0
    3.9789   52.9049   -0.0260 N   0  0  0  0  0  0  0  0  0  0  0  0
    3.7517   53.0719    0.9173 H   0  0  0  0  0  0  0  0  0  0  0  0
    3.6128   51.6315   -0.6436 C   0  0  0  0  0  0  0  0  0  0  0  0
    3.0812   50.6796    0.4340 C   0  0  0  0  0  0  0  0  0  0  0  0
    2.5282   49.4001   -0.2189 C   0  0  0  0  0  0  0  0  0  0  0  0
    1.4346   49.7140   -1.2472 C   0  0  0  0  0  0  0  0  0  0  0  0
    2.0636   50.5660   -2.3475 C   0  0  0  0  0  0  0  0  0  0  0  0
    2.5337   51.8804   -1.7040 C   0  0  0  0  0  0  0  0  0  0  0  0
  5  4  2  0  0  0
 11 10  2  0  0  0
 11  6  1  0  0  0
 10  9  1  0  0  0
  4  6  1  0  0  0
  4  3  1  0  0  0
  6  7  2  0  0  0
  9  8  2  0  0  0
  3  2  1  0  0  0
  7  8  1  0  0  0
  7  1  1  0  0  0
  8 13  1  0  0  0
 20 19  1  0  0  0
 20 15  1  0  0  0
  2  1  2  0  0  0
 19 18  1  0  0  0
 15 13  1  0  0  0
 15 16  1  0  0  0
 16 17  1  0  0  0
 18 17  1  0  0  0
  3 12  1  0  0  0
 13 14  1  0  0  0
M  END
> <minimizedAffinity>
-0.00014

$$$$
4K77_1Q4_A_1201


 20 22  0  0  0  0  0  0  0  0999 V2000
    3.8248   50.3818   -0.9372 C   0  0  0  0  0  0  0  0  0  0  0  0
    4.8260   49.8061   -1.6448 C   0  0  0  0  0  0  0  0  0  0  0  0
    4.5772   49.0101   -2.7379 N   0  0  0  0  0  0  0  0  0  0  0  0
    3.3194   48.7270   -3.1711 C   0  0  0  0  0  0  0  0  0  0  0  0
    3.1308   48.0207   -4.1503 O   0  0  0  0  0  0  0  0  0  0  0  0
    2.1731   49.2962   -2.4579 C   0  0  0  0  0  0  0  0  0  0  0  0
    2.4347   50.1372   -1.3377 C   0  0  0  0  0  0  0  0  0  0  0  0
    1.3261   50.7015   -0.6617 C   0  0  0  0  0  0  0  0  0  0  0  0
    0.1027   50.4088   -1.1194 N   0  0  0  0  0  0  0  0  0  0  0  0
   -0.0860   49.6273   -2.1780 C   0  0  0  0  0  0  0  0  0  0  0  0
    0.9139   49.0714   -2.8321 N   0  0  0  0  0  0  0  0  0  0  0  0
    5.3415   48.6291   -3.2276 H   0  0  0  0  0  0  0  0  0  0  0  0
    1.5190   51.5241    0.4424 N   0  0  0  0  0  0  0  0  0  0  0  0
    2.0124   51.1835    1.2233 H   0  0  0  0  0  0  0  0  0  0  0  0
    0.9969   52.8894    0.4560 C   0  0  0  0  0  0  0  0  0  0  0  0
    1.1748   53.4863    1.8567 C   0  0  0  0  0  0  0  0  0  0  0  0
    0.7933   54.9775    1.8467 C   0  0  0  0  0  0  0  0  0  0  0  0
    1.6117   55.7664    0.8173 C   0  0  0  0  0  0  0  0  0  0  0  0
    1.2961   55.1940   -0.5629 C   0  0  0  0  0  0  0  0  0  0  0  0
    1.7614   53.7290   -0.5743 C   0  0  0  0  0  0  0  0  0  0  0  0
  5  4  2  0  0  0
 11 10  2  0  0  0
 11  6  1  0  0  0
 10  9  1  0  0  0
  4  6  1  0  0  0
  4  3  1  0  0  0
  6  7  2  0  0  0
  9  8  2  0  0  0
  3  2  1  0  0  0
  7  8  1  0  0  0
  7  1  1  0  0  0
  8 13  1  0  0  0
 20 19  1  0  0  0
 20 15  1  0  0  0
  2  1  2  0  0  0
 19 18  1  0  0  0
 15 13  1  0  0  0
 15 16  1  0  0  0
 16 17  1  0  0  0
 18 17  1  0  0  0
  3 12  1  0  0  0
 13 14  1  0  0  0
M  END
> <minimizedAffinity>
-0.00014

$$$$
4K77_1Q4_A_1201


 20 22  0  0  0  0  0  0  0  0999 V2000
    3.2272   54.9498    2.7355 C   0  0  0  0  0  0  0  0  0  0  0  0
    3.3387   56.2669    2.4396 C   0  0  0  0  0  0  0  0  0  0  0  0
    3.9616   57.1509    3.2886 N   0  0  0  0  0  0  0  0  0  0  0  0
    4.4864   56.7758    4.4859 C   0  0  0  0  0  0  0  0  0  0  0  0
    5.0399   57.5845    5.2161 O   0  0  0  0  0  0  0  0  0  0  0  0
    4.4000   55.3717    4.8955 C   0  0  0  0  0  0  0  0  0  0  0  0
    3.7719   54.4542    4.0043 C   0  0  0  0  0  0  0  0  0  0  0  0
    3.7065   53.0945    4.3936 C   0  0  0  0  0  0  0  0  0  0  0  0
    4.2401   52.7584    5.5744 N   0  0  0  0  0  0  0  0  0  0  0  0
    4.8266   53.6530    6.3636 C   0  0  0  0  0  0  0  0  0  0  0  0
    4.9018   54.9304    6.0486 N   0  0  0  0  0  0  0  0  0  0  0  0
    4.0307   58.0951    3.0184 H   0  0  0  0  0  0  0  0  0  0  0  0
    3.0992   52.1545    3.5687 N   0  0  0  0  0  0  0  0  0  0  0  0
    2.1606   52.2777    3.2985 H   0  0  0  0  0  0  0  0  0  0  0  0
    3.8397   50.9852    3.0985 C   0  0  0  0  0  0  0  0  0  0  0  0
    2.8770   50.0282    2.3861 C   0  0  0  0  0  0  0  0  0  0  0  0
    3.6642   48.8783    1.7324 C   0  0  0  0  0  0  0  0  0  0  0  0
    4.7260   49.3994    0.7564 C   0  0  0  0  0  0  0  0  0  0  0  0
    5.7137   50.2473    1.5551 C   0  0  0  0  0  0  0  0  0  0  0  0
    4.9380   51.4426    2.1314 C   0  0  0  0  0  0  0  0  0  0  0  0
  5  4  2  0  0  0
 11 10  2  0  0  0
 11  6  1  0  0  0
 10  9  1  0  0  0
  4  6  1  0  0  0
  4  3  1  0  0  0
  6  7  2  0  0  0
  9  8  2  0  0  0
  3  2  1  0  0  0
  7  8  1  0  0  0
  7  1  1  0  0  0
  8 13  1  0  0  0
 20 19  1  0  0  0
 20 15  1  0  0  0
  2  1  2  0  0  0
 19 18  1  0  0  0
 15 13  1  0  0  0
 15 16  1  0  0  0
 16 17  1  0  0  0
 18 17  1  0  0  0
  3 12  1  0  0  0
 13 14  1  0  0  0
M  END
> <minimizedAffinity>
-0.00013

$$$$
4K77_1Q4_A_1201


 20 22  0  0  0  0  0  0  0  0999 V2000
    4.5507   59.0643   -0.9568 C   0  0  0  0  0  0  0  0  0  0  0  0
    5.5902   59.8458   -1.3354 C   0  0  0  0  0  0  0  0  0  0  0  0
    5.5683   61.2109   -1.1735 N   0  0  0  0  0  0  0  0  0  0  0  0
    4.5029   61.8725   -0.6472 C   0  0  0  0  0  0  0  0  0  0  0  0
    4.5161   63.0867   -0.5102 O   0  0  0  0  0  0  0  0  0  0  0  0
    3.3270   61.1090   -0.2216 C   0  0  0  0  0  0  0  0  0  0  0  0
    3.3609   59.6924   -0.3719 C   0  0  0  0  0  0  0  0  0  0  0  0
    2.2312   58.9550    0.0578 C   0  0  0  0  0  0  0  0  0  0  0  0
    1.2037   59.6368    0.5785 N   0  0  0  0  0  0  0  0  0  0  0  0
    1.2281   60.9596    0.7079 C   0  0  0  0  0  0  0  0  0  0  0  0
    2.2523   61.6886    0.3127 N   0  0  0  0  0  0  0  0  0  0  0  0
    6.3568   61.7313   -1.4501 H   0  0  0  0  0  0  0  0  0  0  0  0
    2.2037   57.5709   -0.0704 N   0  0  0  0  0  0  0  0  0  0  0  0
    2.3204   57.1615   -0.9581 H   0  0  0  0  0  0  0  0  0  0  0  0
    2.0033   56.7172    1.0991 C   0  0  0  0  0  0  0  0  0  0  0  0
    1.8141   55.2664    0.6413 C   0  0  0  0  0  0  0  0  0  0  0  0
    1.7768   54.3290    1.8617 C   0  0  0  0  0  0  0  0  0  0  0  0
    3.0410   54.4625    2.7195 C   0  0  0  0  0  0  0  0  0  0  0  0
    3.1020   55.8988    3.2349 C   0  0  0  0  0  0  0  0  0  0  0  0
    3.2288   56.8242    2.0142 C   0  0  0  0  0  0  0  0  0  0  0  0
  5  4  2  0  0  0
 11 10  2  0  0  0
 11  6  1  0  0  0
 10  9  1  0  0  0
  4  6  1  0  0  0
  4  3  1  0  0  0
  6  7  2  0  0  0
  9  8  2  0  0  0
  3  2  1  0  0  0
  7  8  1  0  0  0
  7  1  1  0  0  0
  8 13  1  0  0  0
 20 19  1  0  0  0
 20 15  1  0  0  0
  2  1  2  0  0  0
 19 18  1  0  0  0
 15 13  1  0  0  0
 15 16  1  0  0  0
 16 17  1  0  0  0
 18 17  1  0  0  0
  3 12  1  0  0  0
 13 14  1  0  0  0
M  END
> <minimizedAffinity>
-0.00013

$$$$
4K77_1Q4_A_1201


 20 22  0  0  0  0  0  0  0  0999 V2000
    8.3049   57.9831   -0.2811 C   0  0  0  0  0  0  0  0  0  0  0  0
    8.9442   56.9614    0.3369 C   0  0  0  0  0  0  0  0  0  0  0  0
    8.8406   55.6650   -0.1091 N   0  0  0  0  0  0  0  0  0  0  0  0
    8.0782   55.3136   -1.1792 C   0  0  0  0  0  0  0  0  0  0  0  0
    8.0114   54.1529   -1.5554 O   0  0  0  0  0  0  0  0  0  0  0  0
    7.3396   56.3522   -1.9021 C   0  0  0  0  0  0  0  0  0  0  0  0
    7.4652   57.6976   -1.4498 C   0  0  0  0  0  0  0  0  0  0  0  0
    6.7657   58.7021   -2.1615 C   0  0  0  0  0  0  0  0  0  0  0  0
    6.0315   58.3226   -3.2145 N   0  0  0  0  0  0  0  0  0  0  0  0
    5.9582   57.0533   -3.6026 C   0  0  0  0  0  0  0  0  0  0  0  0
    6.5826   56.0833   -2.9655 N   0  0  0  0  0  0  0  0  0  0  0  0
    9.3391   54.9616    0.3661 H   0  0  0  0  0  0  0  0  0  0  0  0
    6.8442   60.0316   -1.7626 N   0  0  0  0  0  0  0  0  0  0  0  0
    6.5770   60.2826   -0.8489 H   0  0  0  0  0  0  0  0  0  0  0  0
    7.3193   61.0607   -2.6856 C   0  0  0  0  0  0  0  0  0  0  0  0
    7.1089   62.4426   -2.0562 C   0  0  0  0  0  0  0  0  0  0  0  0
    7.7604   63.5264   -2.9337 C   0  0  0  0  0  0  0  0  0  0  0  0
    9.2538   63.2569   -3.1544 C   0  0  0  0  0  0  0  0  0  0  0  0
    9.3809   61.9232   -3.8874 C   0  0  0  0  0  0  0  0  0  0  0  0
    8.8090   60.8327   -2.9675 C   0  0  0  0  0  0  0  0  0  0  0  0
  5  4  2  0  0  0
 11 10  2  0  0  0
 11  6  1  0  0  0
 10  9  1  0  0  0
  4  6  1  0  0  0
  4  3  1  0  0  0
  6  7  2  0  0  0
  9  8  2  0  0  0
  3  2  1  0  0  0
  7  8  1  0  0  0
  7  1  1  0  0  0
  8 13  1  0  0  0
 20 19  1  0  0  0
 20 15  1  0  0  0
  2  1  2  0  0  0
 19 18  1  0  0  0
 15 13  1  0  0  0
 15 16  1  0  0  0
 16 17  1  0  0  0
 18 17  1  0  0  0
  3 12  1  0  0  0
 13 14  1  0  0  0
M  END
> <minimizedAffinity>
-0.00012

$$$$
4K77_1Q4_A_1201


 20 22  0  0  0  0  0  0  0  0999 V2000
    8.3918   56.5744    1.5353 C   0  0  0  0  0  0  0  0  0  0  0  0
    9.3548   57.5269    1.5447 C   0  0  0  0  0  0  0  0  0  0  0  0
   10.5205   57.3872    0.8294 N   0  0  0  0  0  0  0  0  0  0  0  0
   10.7994   56.2835    0.0851 C   0  0  0  0  0  0  0  0  0  0  0  0
   11.8423   56.1916   -0.5452 O   0  0  0  0  0  0  0  0  0  0  0  0
    9.8203   55.1951    0.0265 C   0  0  0  0  0  0  0  0  0  0  0  0
    8.6043   55.3517    0.7527 C   0  0  0  0  0  0  0  0  0  0  0  0
    7.6515   54.3070    0.6793 C   0  0  0  0  0  0  0  0  0  0  0  0
    7.9546   53.2391   -0.0687 N   0  0  0  0  0  0  0  0  0  0  0  0
    9.0999   53.1484   -0.7373 C   0  0  0  0  0  0  0  0  0  0  0  0
   10.0208   54.0899   -0.6908 N   0  0  0  0  0  0  0  0  0  0  0  0
   11.1811   58.1166    0.8571 H   0  0  0  0  0  0  0  0  0  0  0  0
    6.4498   54.4003    1.3723 N   0  0  0  0  0  0  0  0  0  0  0  0
    6.4592   54.5254    2.3488 H   0  0  0  0  0  0  0  0  0  0  0  0
    5.1727   54.3145    0.6663 C   0  0  0  0  0  0  0  0  0  0  0  0
    4.0323   54.2420    1.6882 C   0  0  0  0  0  0  0  0  0  0  0  0
    2.6740   54.3277    0.9693 C   0  0  0  0  0  0  0  0  0  0  0  0
    2.5585   55.6014    0.1229 C   0  0  0  0  0  0  0  0  0  0  0  0
    3.6496   55.5494   -0.9443 C   0  0  0  0  0  0  0  0  0  0  0  0
    5.0058   55.5538   -0.2208 C   0  0  0  0  0  0  0  0  0  0  0  0
  5  4  2  0  0  0
 11 10  2  0  0  0
 11  6  1  0  0  0
 10  9  1  0  0  0
  4  6  1  0  0  0
  4  3  1  0  0  0
  6  7  2  0  0  0
  9  8  2  0  0  0
  3  2  1  0  0  0
  7  8  1  0  0  0
  7  1  1  0  0  0
  8 13  1  0  0  0
 20 19  1  0  0  0
 20 15  1  0  0  0
  2  1  2  0  0  0
 19 18  1  0  0  0
 15 13  1  0  0  0
 15 16  1  0  0  0
 16 17  1  0  0  0
 18 17  1  0  0  0
  3 12  1  0  0  0
 13 14  1  0  0  0
M  END
> <minimizedAffinity>
-0.00011

$$$$
4K77_1Q4_A_1201


 20 22  0  0  0  0  0  0  0  0999 V2000
    9.2452   54.8281    1.9576 C   0  0  0  0  0  0  0  0  0  0  0  0
    8.3779   55.5028    2.7496 C   0  0  0  0  0  0  0  0  0  0  0  0
    7.9845   56.7888    2.4640 N   0  0  0  0  0  0  0  0  0  0  0  0
    8.4497   57.4790    1.3884 C   0  0  0  0  0  0  0  0  0  0  0  0
    8.0759   58.6193    1.1576 O   0  0  0  0  0  0  0  0  0  0  0  0
    9.4027   56.8326    0.4824 C   0  0  0  0  0  0  0  0  0  0  0  0
    9.7930   55.4926    0.7699 C   0  0  0  0  0  0  0  0  0  0  0  0
   10.6993   54.8635   -0.1175 C   0  0  0  0  0  0  0  0  0  0  0  0
   11.1308   55.5686   -1.1703 N   0  0  0  0  0  0  0  0  0  0  0  0
   10.7251   56.8135   -1.3997 C   0  0  0  0  0  0  0  0  0  0  0  0
    9.8915   57.4434   -0.5965 N   0  0  0  0  0  0  0  0  0  0  0  0
    7.3389   57.2285    3.0632 H   0  0  0  0  0  0  0  0  0  0  0  0
   11.1218   53.5596    0.1154 N   0  0  0  0  0  0  0  0  0  0  0  0
   11.5655   53.3358    0.9652 H   0  0  0  0  0  0  0  0  0  0  0  0
   10.9142   52.5175   -0.8885 C   0  0  0  0  0  0  0  0  0  0  0  0
   11.6519   51.2445   -0.4579 C   0  0  0  0  0  0  0  0  0  0  0  0
   11.3034   50.0858   -1.4094 C   0  0  0  0  0  0  0  0  0  0  0  0
    9.7914   49.8370   -1.4718 C   0  0  0  0  0  0  0  0  0  0  0  0
    9.1353   51.1035   -2.0176 C   0  0  0  0  0  0  0  0  0  0  0  0
    9.4123   52.2369   -1.0170 C   0  0  0  0  0  0  0  0  0  0  0  0
  5  4  2  0  0  0
 11 10  2  0  0  0
 11  6  1  0  0  0
 10  9  1  0  0  0
  4  6  1  0  0  0
  4  3  1  0  0  0
  6  7  2  0  0  0
  9  8  2  0  0  0
  3  2  1  0  0  0
  7  8  1  0  0  0
  7  1  1  0  0  0
  8 13  1  0  0  0
 20 19  1  0  0  0
 20 15  1  0  0  0
  2  1  2  0  0  0
 19 18  1  0  0  0
 15 13  1  0  0  0
 15 16  1  0  0  0
 16 17  1  0  0  0
 18 17  1  0  0  0
  3 12  1  0  0  0
 13 14  1  0  0  0
M  END
> <minimizedAffinity>
-0.00011

$$$$
4K77_1Q4_A_1201


 20 22  0  0  0  0  0  0  0  0999 V2000
    4.0583   54.4142    4.2381 C   0  0  0  0  0  0  0  0  0  0  0  0
    2.7709   54.6228    3.8722 C   0  0  0  0  0  0  0  0  0  0  0  0
    2.4362   55.4880    2.8575 N   0  0  0  0  0  0  0  0  0  0  0  0
    3.3621   56.2076    2.1685 C   0  0  0  0  0  0  0  0  0  0  0  0
    3.0334   56.9642    1.2669 O   0  0  0  0  0  0  0  0  0  0  0  0
    4.7800   56.0559    2.5051 C   0  0  0  0  0  0  0  0  0  0  0  0
    5.1253   55.1432    3.5436 C   0  0  0  0  0  0  0  0  0  0  0  0
    6.4975   54.9840    3.8542 C   0  0  0  0  0  0  0  0  0  0  0  0
    7.3824   55.7013    3.1511 N   0  0  0  0  0  0  0  0  0  0  0  0
    7.0075   56.5308    2.1824 C   0  0  0  0  0  0  0  0  0  0  0  0
    5.7424   56.7196    1.8653 N   0  0  0  0  0  0  0  0  0  0  0  0
    1.4864   55.5909    2.6197 H   0  0  0  0  0  0  0  0  0  0  0  0
    6.8945   54.1132    4.8626 N   0  0  0  0  0  0  0  0  0  0  0  0
    6.5480   54.2354    5.7760 H   0  0  0  0  0  0  0  0  0  0  0  0
    7.8210   53.0182    4.5809 C   0  0  0  0  0  0  0  0  0  0  0  0
    8.2383   52.3555    5.8988 C   0  0  0  0  0  0  0  0  0  0  0  0
    9.0729   51.0941    5.6135 C   0  0  0  0  0  0  0  0  0  0  0  0
    8.3139   50.0991    4.7271 C   0  0  0  0  0  0  0  0  0  0  0  0
    8.0347   50.7866    3.3923 C   0  0  0  0  0  0  0  0  0  0  0  0
    7.1272   51.9948    3.6744 C   0  0  0  0  0  0  0  0  0  0  0  0
  5  4  2  0  0  0
 11 10  2  0  0  0
 11  6  1  0  0  0
 10  9  1  0  0  0
  4  6  1  0  0  0
  4  3  1  0  0  0
  6  7  2  0  0  0
  9  8  2  0  0  0
  3  2  1  0  0  0
  7  8  1  0  0  0
  7  1  1  0  0  0
  8 13  1  0  0  0
 20 19  1  0  0  0
 20 15  1  0  0  0
  2  1  2  0  0  0
 19 18  1  0  0  0
 15 13  1  0  0  0
 15 16  1  0  0  0
 16 17  1  0  0  0
 18 17  1  0  0  0
  3 12  1  0  0  0
 13 14  1  0  0  0
M  END
> <minimizedAffinity>
-0.00011

$$$$
