1O5R_FR9_A_1001


 38 41  0  0  0  0  0  0  0  0999 V2000
   49.1663   57.7436   19.0921 N   0  0  0  0  0  0  0  0  0  0  0  0
   48.6765   58.8637   18.4609 C   0  0  0  0  0  0  0  0  0  0  0  0
   48.1685   58.5132   17.2450 C   0  0  0  0  0  0  0  0  0  0  0  0
   48.3433   57.1059   17.1572 C   0  0  0  0  0  0  0  0  0  0  0  0
   48.9753   56.6790   18.3481 C   0  0  0  0  0  0  0  0  0  0  0  0
   47.9768   56.1768   16.2206 C   0  0  0  0  0  0  0  0  0  0  0  0
   48.2464   54.8257   16.4441 C   0  0  0  0  0  0  0  0  0  0  0  0
   48.9079   54.4497   17.6163 C   0  0  0  0  0  0  0  0  0  0  0  0
   49.2408   55.3926   18.5536 C   0  0  0  0  0  0  0  0  0  0  0  0
   49.1225   53.2198   18.0028 N   0  0  0  0  0  0  0  0  0  0  0  0
   49.2831   52.1344   17.2024 C   0  0  0  0  0  0  0  0  0  0  0  0
   49.0029   52.1831   16.0291 O   0  0  0  0  0  0  0  0  0  0  0  0
   49.4601   51.0571   17.8967 N   0  0  0  0  0  0  0  0  0  0  0  0
   49.1730   53.0642   18.9736 H   0  0  0  0  0  0  0  0  0  0  0  0
   49.6225   51.1269   18.8652 H   0  0  0  0  0  0  0  0  0  0  0  0
   49.4237   49.7583   17.2773 C   0  0  0  0  0  0  0  0  0  0  0  0
   47.3824   49.1376   18.6245 C   0  0  0  0  0  0  0  0  0  0  0  0
   48.0094   49.2330   17.3927 C   0  0  0  0  0  0  0  0  0  0  0  0
   47.3270   48.8266   16.2598 C   0  0  0  0  0  0  0  0  0  0  0  0
   46.0182   48.3714   16.3664 C   0  0  0  0  0  0  0  0  0  0  0  0
   45.3625   48.2994   17.6058 C   0  0  0  0  0  0  0  0  0  0  0  0
   46.0926   48.6369   18.7025 C   0  0  0  0  0  0  0  0  0  0  0  0
   49.8420   57.7554   20.3715 C   0  0  0  0  0  0  0  0  0  0  0  0
   51.3478   57.8528   20.1412 C   0  0  0  0  0  0  0  0  0  0  0  0
   52.1275   57.5294   21.4026 C   0  0  0  0  0  0  0  0  0  0  0  0
   52.0397   54.9574   20.7140 C   0  0  0  0  0  0  0  0  0  0  0  0
   52.1320   56.0847   21.6561 N   0  0  0  0  0  0  0  0  0  0  0  0
   51.9348   55.4878   22.8231 C   0  0  0  0  0  0  0  0  0  0  0  0
   51.8007   54.1891   22.7932 N   0  0  0  0  0  0  0  0  0  0  0  0
   51.8723   53.7897   21.3911 C   0  0  0  0  0  0  0  0  0  0  0  0
   51.8474   52.4120   20.9352 C   0  0  0  0  0  0  0  0  0  0  0  0
   51.3215   52.2667   19.9663 O   0  0  0  0  0  0  0  0  0  0  0  0
   52.2755   51.5149   21.6759 N   0  0  0  0  0  0  0  0  0  0  0  0
   52.7298   51.7467   22.5180 H   0  0  0  0  0  0  0  0  0  0  0  0
   52.1613   50.5706   21.4219 H   0  0  0  0  0  0  0  0  0  0  0  0
   53.5408   58.1858   21.2953 C   0  0  0  0  0  0  0  0  0  0  0  0
   54.2470   58.8852   22.4259 O   0  0  0  0  0  0  0  0  0  0  0  0
   53.7848   59.7124   22.6334 H   0  0  0  0  0  0  0  0  0  0  0  0
 26 27  1  0  0  0
 26 30  2  0  0  0
 27 28  1  0  0  0
 27 25  1  0  0  0
 28 29  2  0  0  0
 29 30  1  0  0  0
 30 31  1  0  0  0
 31 32  2  0  0  0
 31 33  1  0  0  0
 25 36  1  0  0  0
 25 24  1  0  0  0
 36 37  1  0  0  0
 24 23  1  0  0  0
 23  1  1  0  0  0
  1  2  1  0  0  0
  1  5  1  0  0  0
  2  3  2  0  0  0
  3  4  1  0  0  0
  4  5  2  0  0  0
  4  6  1  0  0  0
  5  9  1  0  0  0
  6  7  2  0  0  0
  7  8  1  0  0  0
  8  9  2  0  0  0
  8 10  1  0  0  0
 10 11  1  0  0  0
 11 12  2  0  0  0
 11 13  1  0  0  0
 13 16  1  0  0  0
 16 18  1  0  0  0
 17 18  2  0  0  0
 17 22  1  0  0  0
 18 19  1  0  0  0
 19 20  2  0  0  0
 20 21  1  0  0  0
 21 22  2  0  0  0
 33 34  1  0  0  0
 33 35  1  0  0  0
 37 38  1  0  0  0
 10 14  1  0  0  0
 13 15  1  0  0  0
M  END
> <minimizedAffinity>
-10.00590

$$$$
1O5R_FR9_A_1001


 38 41  0  0  0  0  0  0  0  0999 V2000
   50.8859   53.3366   19.7461 N   0  0  0  0  0  0  0  0  0  0  0  0
   51.6228   53.7388   20.8360 C   0  0  0  0  0  0  0  0  0  0  0  0
   51.8054   52.6801   21.6756 C   0  0  0  0  0  0  0  0  0  0  0  0
   51.1634   51.5830   21.0406 C   0  0  0  0  0  0  0  0  0  0  0  0
   50.6042   52.0572   19.8313 C   0  0  0  0  0  0  0  0  0  0  0  0
   51.0625   50.2534   21.3518 C   0  0  0  0  0  0  0  0  0  0  0  0
   50.3957   49.3883   20.4830 C   0  0  0  0  0  0  0  0  0  0  0  0
   49.8230   49.9042   19.3173 C   0  0  0  0  0  0  0  0  0  0  0  0
   49.9600   51.2331   19.0108 C   0  0  0  0  0  0  0  0  0  0  0  0
   49.2710   49.1959   18.3678 N   0  0  0  0  0  0  0  0  0  0  0  0
   47.9424   48.9860   18.1802 C   0  0  0  0  0  0  0  0  0  0  0  0
   47.1440   49.2612   19.0430 O   0  0  0  0  0  0  0  0  0  0  0  0
   47.7239   48.2217   17.1594 N   0  0  0  0  0  0  0  0  0  0  0  0
   49.8809   48.7708   17.7223 H   0  0  0  0  0  0  0  0  0  0  0  0
   48.4648   48.0090   16.5470 H   0  0  0  0  0  0  0  0  0  0  0  0
   46.4163   47.6772   16.9039 C   0  0  0  0  0  0  0  0  0  0  0  0
   46.9401   48.6748   14.6460 C   0  0  0  0  0  0  0  0  0  0  0  0
   46.0457   48.0204   15.4775 C   0  0  0  0  0  0  0  0  0  0  0  0
   44.7933   47.6924   14.9893 C   0  0  0  0  0  0  0  0  0  0  0  0
   44.4667   47.9837   13.6702 C   0  0  0  0  0  0  0  0  0  0  0  0
   45.3763   48.6192   12.8098 C   0  0  0  0  0  0  0  0  0  0  0  0
   46.5678   48.9918   13.3494 C   0  0  0  0  0  0  0  0  0  0  0  0
   50.4439   54.2181   18.6872 C   0  0  0  0  0  0  0  0  0  0  0  0
   49.1640   54.9246   19.1259 C   0  0  0  0  0  0  0  0  0  0  0  0
   49.2229   56.4143   18.8408 C   0  0  0  0  0  0  0  0  0  0  0  0
   51.5877   57.2239   19.7626 C   0  0  0  0  0  0  0  0  0  0  0  0
   50.1219   57.0897   19.7828 N   0  0  0  0  0  0  0  0  0  0  0  0
   49.8240   57.4848   21.0124 C   0  0  0  0  0  0  0  0  0  0  0  0
   50.8224   57.9021   21.7437 N   0  0  0  0  0  0  0  0  0  0  0  0
   52.0291   57.7498   20.9368 C   0  0  0  0  0  0  0  0  0  0  0  0
   53.3497   58.1790   21.3588 C   0  0  0  0  0  0  0  0  0  0  0  0
   53.8135   58.9361   20.6895 O   0  0  0  0  0  0  0  0  0  0  0  0
   53.9016   57.6111   22.3126 N   0  0  0  0  0  0  0  0  0  0  0  0
   53.4036   56.9519   22.8481 H   0  0  0  0  0  0  0  0  0  0  0  0
   54.8378   57.8193   22.5347 H   0  0  0  0  0  0  0  0  0  0  0  0
   49.5723   56.6182   17.3322 C   0  0  0  0  0  0  0  0  0  0  0  0
   48.7132   56.1565   16.1855 O   0  0  0  0  0  0  0  0  0  0  0  0
   48.7223   55.1874   16.1444 H   0  0  0  0  0  0  0  0  0  0  0  0
 26 27  1  0  0  0
 26 30  2  0  0  0
 27 28  1  0  0  0
 27 25  1  0  0  0
 28 29  2  0  0  0
 29 30  1  0  0  0
 30 31  1  0  0  0
 31 32  2  0  0  0
 31 33  1  0  0  0
 25 36  1  0  0  0
 25 24  1  0  0  0
 36 37  1  0  0  0
 24 23  1  0  0  0
 23  1  1  0  0  0
  1  2  1  0  0  0
  1  5  1  0  0  0
  2  3  2  0  0  0
  3  4  1  0  0  0
  4  5  2  0  0  0
  4  6  1  0  0  0
  5  9  1  0  0  0
  6  7  2  0  0  0
  7  8  1  0  0  0
  8  9  2  0  0  0
  8 10  1  0  0  0
 10 11  1  0  0  0
 11 12  2  0  0  0
 11 13  1  0  0  0
 13 16  1  0  0  0
 16 18  1  0  0  0
 17 18  2  0  0  0
 17 22  1  0  0  0
 18 19  1  0  0  0
 19 20  2  0  0  0
 20 21  1  0  0  0
 21 22  2  0  0  0
 33 34  1  0  0  0
 33 35  1  0  0  0
 37 38  1  0  0  0
 10 14  1  0  0  0
 13 15  1  0  0  0
M  END
> <minimizedAffinity>
-9.56227

$$$$
1O5R_FR9_A_1001


 38 41  0  0  0  0  0  0  0  0999 V2000
   50.2347   54.0339   20.5286 N   0  0  0  0  0  0  0  0  0  0  0  0
   50.7616   54.4989   21.7114 C   0  0  0  0  0  0  0  0  0  0  0  0
   51.7113   53.6283   22.1579 C   0  0  0  0  0  0  0  0  0  0  0  0
   51.7702   52.6022   21.1768 C   0  0  0  0  0  0  0  0  0  0  0  0
   50.8193   52.9123   20.1770 C   0  0  0  0  0  0  0  0  0  0  0  0
   52.5675   51.4991   21.0270 C   0  0  0  0  0  0  0  0  0  0  0  0
   52.4203   50.6870   19.9015 C   0  0  0  0  0  0  0  0  0  0  0  0
   51.4419   51.0066   18.9562 C   0  0  0  0  0  0  0  0  0  0  0  0
   50.6737   52.1309   19.1113 C   0  0  0  0  0  0  0  0  0  0  0  0
   51.2713   50.4025   17.8099 N   0  0  0  0  0  0  0  0  0  0  0  0
   50.4220   50.7722   16.8167 C   0  0  0  0  0  0  0  0  0  0  0  0
   49.5574   51.5913   17.0140 O   0  0  0  0  0  0  0  0  0  0  0  0
   50.4770   49.9517   15.8178 N   0  0  0  0  0  0  0  0  0  0  0  0
   51.8140   49.5968   17.6501 H   0  0  0  0  0  0  0  0  0  0  0  0
   51.1932   49.2770   15.7847 H   0  0  0  0  0  0  0  0  0  0  0  0
   49.5089   50.0084   14.7542 C   0  0  0  0  0  0  0  0  0  0  0  0
   48.5039   48.1482   16.1314 C   0  0  0  0  0  0  0  0  0  0  0  0
   48.3659   49.0880   15.1228 C   0  0  0  0  0  0  0  0  0  0  0  0
   47.1648   49.1679   14.4407 C   0  0  0  0  0  0  0  0  0  0  0  0
   46.1079   48.3403   14.8011 C   0  0  0  0  0  0  0  0  0  0  0  0
   46.2268   47.4055   15.8419 C   0  0  0  0  0  0  0  0  0  0  0  0
   47.4460   47.3066   16.4365 C   0  0  0  0  0  0  0  0  0  0  0  0
   49.1528   54.6706   19.8089 C   0  0  0  0  0  0  0  0  0  0  0  0
   49.2279   56.1797   20.0254 C   0  0  0  0  0  0  0  0  0  0  0  0
   50.1820   56.8375   19.0452 C   0  0  0  0  0  0  0  0  0  0  0  0
   52.0618   57.8050   20.6660 C   0  0  0  0  0  0  0  0  0  0  0  0
   51.5321   56.9249   19.6116 N   0  0  0  0  0  0  0  0  0  0  0  0
   52.6405   56.4174   19.0911 C   0  0  0  0  0  0  0  0  0  0  0  0
   53.7610   56.7656   19.6646 N   0  0  0  0  0  0  0  0  0  0  0  0
   53.4157   57.6950   20.7359 C   0  0  0  0  0  0  0  0  0  0  0  0
   54.3762   58.2534   21.6696 C   0  0  0  0  0  0  0  0  0  0  0  0
   54.1123   59.2701   22.0345 O   0  0  0  0  0  0  0  0  0  0  0  0
   55.4370   57.6508   21.8895 N   0  0  0  0  0  0  0  0  0  0  0  0
   55.5764   56.7489   21.5202 H   0  0  0  0  0  0  0  0  0  0  0  0
   56.1400   58.0740   22.4334 H   0  0  0  0  0  0  0  0  0  0  0  0
   50.0860   56.0872   17.6786 C   0  0  0  0  0  0  0  0  0  0  0  0
   49.5464   56.6891   16.4086 O   0  0  0  0  0  0  0  0  0  0  0  0
   48.5903   56.8271   16.4970 H   0  0  0  0  0  0  0  0  0  0  0  0
 26 27  1  0  0  0
 26 30  2  0  0  0
 27 28  1  0  0  0
 27 25  1  0  0  0
 28 29  2  0  0  0
 29 30  1  0  0  0
 30 31  1  0  0  0
 31 32  2  0  0  0
 31 33  1  0  0  0
 25 36  1  0  0  0
 25 24  1  0  0  0
 36 37  1  0  0  0
 24 23  1  0  0  0
 23  1  1  0  0  0
  1  2  1  0  0  0
  1  5  1  0  0  0
  2  3  2  0  0  0
  3  4  1  0  0  0
  4  5  2  0  0  0
  4  6  1  0  0  0
  5  9  1  0  0  0
  6  7  2  0  0  0
  7  8  1  0  0  0
  8  9  2  0  0  0
  8 10  1  0  0  0
 10 11  1  0  0  0
 11 12  2  0  0  0
 11 13  1  0  0  0
 13 16  1  0  0  0
 16 18  1  0  0  0
 17 18  2  0  0  0
 17 22  1  0  0  0
 18 19  1  0  0  0
 19 20  2  0  0  0
 20 21  1  0  0  0
 21 22  2  0  0  0
 33 34  1  0  0  0
 33 35  1  0  0  0
 37 38  1  0  0  0
 10 14  1  0  0  0
 13 15  1  0  0  0
M  END
> <minimizedAffinity>
-9.38465

$$$$
1O5R_FR9_A_1001


 38 41  0  0  0  0  0  0  0  0999 V2000
   50.4655   52.1334   19.6398 N   0  0  0  0  0  0  0  0  0  0  0  0
   51.3707   51.3420   20.3085 C   0  0  0  0  0  0  0  0  0  0  0  0
   52.0388   52.0951   21.2281 C   0  0  0  0  0  0  0  0  0  0  0  0
   51.4856   53.3992   21.1180 C   0  0  0  0  0  0  0  0  0  0  0  0
   50.5011   53.3611   20.1035 C   0  0  0  0  0  0  0  0  0  0  0  0
   51.6898   54.5612   21.8131 C   0  0  0  0  0  0  0  0  0  0  0  0
   50.9383   55.6951   21.5008 C   0  0  0  0  0  0  0  0  0  0  0  0
   50.0029   55.6263   20.4648 C   0  0  0  0  0  0  0  0  0  0  0  0
   49.7944   54.4457   19.8007 C   0  0  0  0  0  0  0  0  0  0  0  0
   49.1595   56.5713   20.1429 N   0  0  0  0  0  0  0  0  0  0  0  0
   49.4440   57.7202   19.4770 C   0  0  0  0  0  0  0  0  0  0  0  0
   50.5860   58.0801   19.3227 O   0  0  0  0  0  0  0  0  0  0  0  0
   48.3898   58.4562   19.3321 N   0  0  0  0  0  0  0  0  0  0  0  0
   48.2217   56.4364   20.4105 H   0  0  0  0  0  0  0  0  0  0  0  0
   47.5049   58.0813   19.5458 H   0  0  0  0  0  0  0  0  0  0  0  0
   48.4886   59.8137   18.8639 C   0  0  0  0  0  0  0  0  0  0  0  0
   46.8879   61.7620   18.7700 C   0  0  0  0  0  0  0  0  0  0  0  0
   47.0911   60.3930   18.8341 C   0  0  0  0  0  0  0  0  0  0  0  0
   45.9923   59.5537   18.8844 C   0  0  0  0  0  0  0  0  0  0  0  0
   44.7104   60.0879   18.8281 C   0  0  0  0  0  0  0  0  0  0  0  0
   44.4932   61.4717   18.7322 C   0  0  0  0  0  0  0  0  0  0  0  0
   45.5969   62.2657   18.7612 C   0  0  0  0  0  0  0  0  0  0  0  0
   49.6340   51.6799   18.5459 C   0  0  0  0  0  0  0  0  0  0  0  0
   49.6734   50.1552   18.4864 C   0  0  0  0  0  0  0  0  0  0  0  0
   49.5085   49.6476   17.0655 C   0  0  0  0  0  0  0  0  0  0  0  0
   47.2149   48.4038   17.6034 C   0  0  0  0  0  0  0  0  0  0  0  0
   48.1187   49.2538   16.8111 N   0  0  0  0  0  0  0  0  0  0  0  0
   47.4685   49.3528   15.6602 C   0  0  0  0  0  0  0  0  0  0  0  0
   46.2973   48.7775   15.6062 N   0  0  0  0  0  0  0  0  0  0  0  0
   46.0842   48.1320   16.8979 C   0  0  0  0  0  0  0  0  0  0  0  0
   44.8601   47.4493   17.2742 C   0  0  0  0  0  0  0  0  0  0  0  0
   44.1611   47.2761   16.4269 O   0  0  0  0  0  0  0  0  0  0  0  0
   44.6251   47.2304   18.4716 N   0  0  0  0  0  0  0  0  0  0  0  0
   45.3131   47.4177   19.1505 H   0  0  0  0  0  0  0  0  0  0  0  0
   43.7506   46.8693   18.7437 H   0  0  0  0  0  0  0  0  0  0  0  0
   50.0814   50.7201   16.0849 C   0  0  0  0  0  0  0  0  0  0  0  0
   51.4495   50.6628   15.4595 O   0  0  0  0  0  0  0  0  0  0  0  0
   52.1235   50.8039   16.1427 H   0  0  0  0  0  0  0  0  0  0  0  0
 26 27  1  0  0  0
 26 30  2  0  0  0
 27 28  1  0  0  0
 27 25  1  0  0  0
 28 29  2  0  0  0
 29 30  1  0  0  0
 30 31  1  0  0  0
 31 32  2  0  0  0
 31 33  1  0  0  0
 25 36  1  0  0  0
 25 24  1  0  0  0
 36 37  1  0  0  0
 24 23  1  0  0  0
 23  1  1  0  0  0
  1  2  1  0  0  0
  1  5  1  0  0  0
  2  3  2  0  0  0
  3  4  1  0  0  0
  4  5  2  0  0  0
  4  6  1  0  0  0
  5  9  1  0  0  0
  6  7  2  0  0  0
  7  8  1  0  0  0
  8  9  2  0  0  0
  8 10  1  0  0  0
 10 11  1  0  0  0
 11 12  2  0  0  0
 11 13  1  0  0  0
 13 16  1  0  0  0
 16 18  1  0  0  0
 17 18  2  0  0  0
 17 22  1  0  0  0
 18 19  1  0  0  0
 19 20  2  0  0  0
 20 21  1  0  0  0
 21 22  2  0  0  0
 33 34  1  0  0  0
 33 35  1  0  0  0
 37 38  1  0  0  0
 10 14  1  0  0  0
 13 15  1  0  0  0
M  END
> <minimizedAffinity>
-9.15561

$$$$
1O5R_FR9_A_1001


 38 41  0  0  0  0  0  0  0  0999 V2000
   51.0073   53.1885   19.8477 N   0  0  0  0  0  0  0  0  0  0  0  0
   52.0435   53.1745   20.7526 C   0  0  0  0  0  0  0  0  0  0  0  0
   52.1699   51.9226   21.2779 C   0  0  0  0  0  0  0  0  0  0  0  0
   51.1713   51.1434   20.6342 C   0  0  0  0  0  0  0  0  0  0  0  0
   50.4729   51.9937   19.7459 C   0  0  0  0  0  0  0  0  0  0  0  0
   50.8482   49.8137   20.6853 C   0  0  0  0  0  0  0  0  0  0  0  0
   49.8249   49.3189   19.8754 C   0  0  0  0  0  0  0  0  0  0  0  0
   49.1330   50.2002   19.0402 C   0  0  0  0  0  0  0  0  0  0  0  0
   49.4911   51.5219   18.9835 C   0  0  0  0  0  0  0  0  0  0  0  0
   48.2353   49.8562   18.1548 N   0  0  0  0  0  0  0  0  0  0  0  0
   48.4510   49.1579   17.0101 C   0  0  0  0  0  0  0  0  0  0  0  0
   49.5698   48.9889   16.5892 O   0  0  0  0  0  0  0  0  0  0  0  0
   47.3556   48.9976   16.3406 N   0  0  0  0  0  0  0  0  0  0  0  0
   47.3077   50.1316   18.3362 H   0  0  0  0  0  0  0  0  0  0  0  0
   46.4945   49.2253   16.7600 H   0  0  0  0  0  0  0  0  0  0  0  0
   47.3743   48.4920   14.9931 C   0  0  0  0  0  0  0  0  0  0  0  0
   45.2226   47.2711   15.4902 C   0  0  0  0  0  0  0  0  0  0  0  0
   45.9637   48.0744   14.6387 C   0  0  0  0  0  0  0  0  0  0  0  0
   45.3999   48.4838   13.4434 C   0  0  0  0  0  0  0  0  0  0  0  0
   44.0941   48.1219   13.1344 C   0  0  0  0  0  0  0  0  0  0  0  0
   43.3234   47.3336   14.0038 C   0  0  0  0  0  0  0  0  0  0  0  0
   43.9392   46.8900   15.1323 C   0  0  0  0  0  0  0  0  0  0  0  0
   50.5456   54.3696   19.1511 C   0  0  0  0  0  0  0  0  0  0  0  0
   49.4340   55.0275   19.9644 C   0  0  0  0  0  0  0  0  0  0  0  0
   49.5957   56.5360   20.0128 C   0  0  0  0  0  0  0  0  0  0  0  0
   52.0020   57.6328   20.3346 C   0  0  0  0  0  0  0  0  0  0  0  0
   50.7970   56.9070   20.7682 N   0  0  0  0  0  0  0  0  0  0  0  0
   51.1757   56.4154   21.9395 C   0  0  0  0  0  0  0  0  0  0  0  0
   52.3694   56.7514   22.3491 N   0  0  0  0  0  0  0  0  0  0  0  0
   52.9585   57.5778   21.3000 C   0  0  0  0  0  0  0  0  0  0  0  0
   54.2544   58.2230   21.4039 C   0  0  0  0  0  0  0  0  0  0  0  0
   54.5003   58.5794   22.4280 O   0  0  0  0  0  0  0  0  0  0  0  0
   54.9132   58.4408   20.3766 N   0  0  0  0  0  0  0  0  0  0  0  0
   54.6109   58.0796   19.5121 H   0  0  0  0  0  0  0  0  0  0  0  0
   55.7388   58.9749   20.4253 H   0  0  0  0  0  0  0  0  0  0  0  0
   49.5356   57.0894   18.5534 C   0  0  0  0  0  0  0  0  0  0  0  0
   48.4893   58.0440   18.0433 O   0  0  0  0  0  0  0  0  0  0  0  0
   47.6329   57.5908   17.9975 H   0  0  0  0  0  0  0  0  0  0  0  0
 26 27  1  0  0  0
 26 30  2  0  0  0
 27 28  1  0  0  0
 27 25  1  0  0  0
 28 29  2  0  0  0
 29 30  1  0  0  0
 30 31  1  0  0  0
 31 32  2  0  0  0
 31 33  1  0  0  0
 25 36  1  0  0  0
 25 24  1  0  0  0
 36 37  1  0  0  0
 24 23  1  0  0  0
 23  1  1  0  0  0
  1  2  1  0  0  0
  1  5  1  0  0  0
  2  3  2  0  0  0
  3  4  1  0  0  0
  4  5  2  0  0  0
  4  6  1  0  0  0
  5  9  1  0  0  0
  6  7  2  0  0  0
  7  8  1  0  0  0
  8  9  2  0  0  0
  8 10  1  0  0  0
 10 11  1  0  0  0
 11 12  2  0  0  0
 11 13  1  0  0  0
 13 16  1  0  0  0
 16 18  1  0  0  0
 17 18  2  0  0  0
 17 22  1  0  0  0
 18 19  1  0  0  0
 19 20  2  0  0  0
 20 21  1  0  0  0
 21 22  2  0  0  0
 33 34  1  0  0  0
 33 35  1  0  0  0
 37 38  1  0  0  0
 10 14  1  0  0  0
 13 15  1  0  0  0
M  END
> <minimizedAffinity>
-9.04643

$$$$
1O5R_FR9_A_1001


 38 41  0  0  0  0  0  0  0  0999 V2000
   50.5346   54.0186   20.1584 N   0  0  0  0  0  0  0  0  0  0  0  0
   51.2804   54.4631   21.2256 C   0  0  0  0  0  0  0  0  0  0  0  0
   51.7954   53.3931   21.8959 C   0  0  0  0  0  0  0  0  0  0  0  0
   51.3525   52.2511   21.1758 C   0  0  0  0  0  0  0  0  0  0  0  0
   50.5645   52.7077   20.0939 C   0  0  0  0  0  0  0  0  0  0  0  0
   51.5946   50.9103   21.3121 C   0  0  0  0  0  0  0  0  0  0  0  0
   51.0478   50.0119   20.3946 C   0  0  0  0  0  0  0  0  0  0  0  0
   50.2423   50.5007   19.3625 C   0  0  0  0  0  0  0  0  0  0  0  0
   50.0357   51.8488   19.2277 C   0  0  0  0  0  0  0  0  0  0  0  0
   49.7614   49.7900   18.3767 N   0  0  0  0  0  0  0  0  0  0  0  0
   48.4899   49.3288   18.2540 C   0  0  0  0  0  0  0  0  0  0  0  0
   47.7312   49.3467   19.1930 O   0  0  0  0  0  0  0  0  0  0  0  0
   48.3394   48.6398   17.1693 N   0  0  0  0  0  0  0  0  0  0  0  0
   50.3848   49.5659   17.6484 H   0  0  0  0  0  0  0  0  0  0  0  0
   49.0513   48.6464   16.4894 H   0  0  0  0  0  0  0  0  0  0  0  0
   47.1490   47.8640   16.9397 C   0  0  0  0  0  0  0  0  0  0  0  0
   47.3897   48.9986   14.6987 C   0  0  0  0  0  0  0  0  0  0  0  0
   46.6709   48.1597   15.5349 C   0  0  0  0  0  0  0  0  0  0  0  0
   45.4932   47.6003   15.0720 C   0  0  0  0  0  0  0  0  0  0  0  0
   45.0720   47.8515   13.7715 C   0  0  0  0  0  0  0  0  0  0  0  0
   45.8085   48.6755   12.9055 C   0  0  0  0  0  0  0  0  0  0  0  0
   46.9194   49.2653   13.4228 C   0  0  0  0  0  0  0  0  0  0  0  0
   49.7841   54.8794   19.2699 C   0  0  0  0  0  0  0  0  0  0  0  0
   49.3468   56.1268   20.0331 C   0  0  0  0  0  0  0  0  0  0  0  0
   50.0176   57.3762   19.4918 C   0  0  0  0  0  0  0  0  0  0  0  0
   48.2659   59.3833   19.4833 C   0  0  0  0  0  0  0  0  0  0  0  0
   49.0306   58.2763   18.8860 N   0  0  0  0  0  0  0  0  0  0  0  0
   48.4056   58.0991   17.7305 C   0  0  0  0  0  0  0  0  0  0  0  0
   47.4339   58.9303   17.4651 N   0  0  0  0  0  0  0  0  0  0  0  0
   47.3108   59.8175   18.6176 C   0  0  0  0  0  0  0  0  0  0  0  0
   46.3947   60.9411   18.6854 C   0  0  0  0  0  0  0  0  0  0  0  0
   46.8713   61.8934   19.0054 O   0  0  0  0  0  0  0  0  0  0  0  0
   45.1810   60.7516   18.5180 N   0  0  0  0  0  0  0  0  0  0  0  0
   44.8557   59.8676   18.2318 H   0  0  0  0  0  0  0  0  0  0  0  0
   44.5426   61.4852   18.6713 H   0  0  0  0  0  0  0  0  0  0  0  0
   50.8795   58.0103   20.6297 C   0  0  0  0  0  0  0  0  0  0  0  0
   50.5603   57.9160   22.0978 O   0  0  0  0  0  0  0  0  0  0  0  0
   49.7669   58.4398   22.2905 H   0  0  0  0  0  0  0  0  0  0  0  0
 26 27  1  0  0  0
 26 30  2  0  0  0
 27 28  1  0  0  0
 27 25  1  0  0  0
 28 29  2  0  0  0
 29 30  1  0  0  0
 30 31  1  0  0  0
 31 32  2  0  0  0
 31 33  1  0  0  0
 25 36  1  0  0  0
 25 24  1  0  0  0
 36 37  1  0  0  0
 24 23  1  0  0  0
 23  1  1  0  0  0
  1  2  1  0  0  0
  1  5  1  0  0  0
  2  3  2  0  0  0
  3  4  1  0  0  0
  4  5  2  0  0  0
  4  6  1  0  0  0
  5  9  1  0  0  0
  6  7  2  0  0  0
  7  8  1  0  0  0
  8  9  2  0  0  0
  8 10  1  0  0  0
 10 11  1  0  0  0
 11 12  2  0  0  0
 11 13  1  0  0  0
 13 16  1  0  0  0
 16 18  1  0  0  0
 17 18  2  0  0  0
 17 22  1  0  0  0
 18 19  1  0  0  0
 19 20  2  0  0  0
 20 21  1  0  0  0
 21 22  2  0  0  0
 33 34  1  0  0  0
 33 35  1  0  0  0
 37 38  1  0  0  0
 10 14  1  0  0  0
 13 15  1  0  0  0
M  END
> <minimizedAffinity>
-8.74074

$$$$
1O5R_FR9_A_1001


 38 41  0  0  0  0  0  0  0  0999 V2000
   50.9923   53.5489   19.7304 N   0  0  0  0  0  0  0  0  0  0  0  0
   51.7057   53.9676   20.8298 C   0  0  0  0  0  0  0  0  0  0  0  0
   51.8780   52.9193   21.6846 C   0  0  0  0  0  0  0  0  0  0  0  0
   51.2547   51.8115   21.0497 C   0  0  0  0  0  0  0  0  0  0  0  0
   50.7163   52.2689   19.8246 C   0  0  0  0  0  0  0  0  0  0  0  0
   51.1554   50.4848   21.3739 C   0  0  0  0  0  0  0  0  0  0  0  0
   50.5104   49.6062   20.5021 C   0  0  0  0  0  0  0  0  0  0  0  0
   49.9575   50.1057   19.3198 C   0  0  0  0  0  0  0  0  0  0  0  0
   50.0928   51.4318   19.0012 C   0  0  0  0  0  0  0  0  0  0  0  0
   49.4281   49.3836   18.3679 N   0  0  0  0  0  0  0  0  0  0  0  0
   48.1114   49.0912   18.2083 C   0  0  0  0  0  0  0  0  0  0  0  0
   47.3197   49.2947   19.0968 O   0  0  0  0  0  0  0  0  0  0  0  0
   47.9164   48.3367   17.1756 N   0  0  0  0  0  0  0  0  0  0  0  0
   50.0471   49.0135   17.6978 H   0  0  0  0  0  0  0  0  0  0  0  0
   48.6532   48.1863   16.5402 H   0  0  0  0  0  0  0  0  0  0  0  0
   46.6406   47.7134   16.9397 C   0  0  0  0  0  0  0  0  0  0  0  0
   45.4232   47.0227   14.8401 C   0  0  0  0  0  0  0  0  0  0  0  0
   46.3134   47.8763   15.4713 C   0  0  0  0  0  0  0  0  0  0  0  0
   46.9159   48.8807   14.7348 C   0  0  0  0  0  0  0  0  0  0  0  0
   46.5914   49.0450   13.3934 C   0  0  0  0  0  0  0  0  0  0  0  0
   45.6676   48.2049   12.7514 C   0  0  0  0  0  0  0  0  0  0  0  0
   45.1550   47.1846   13.4903 C   0  0  0  0  0  0  0  0  0  0  0  0
   50.5659   54.4159   18.6533 C   0  0  0  0  0  0  0  0  0  0  0  0
   49.4062   55.2821   19.1377 C   0  0  0  0  0  0  0  0  0  0  0  0
   49.7188   56.7611   19.0003 C   0  0  0  0  0  0  0  0  0  0  0  0
   48.4557   57.0656   16.6747 C   0  0  0  0  0  0  0  0  0  0  0  0
   48.7881   57.4057   18.0677 N   0  0  0  0  0  0  0  0  0  0  0  0
   48.2540   58.6123   18.1938 C   0  0  0  0  0  0  0  0  0  0  0  0
   47.5943   59.0635   17.1610 N   0  0  0  0  0  0  0  0  0  0  0  0
   47.6992   58.0489   16.1170 C   0  0  0  0  0  0  0  0  0  0  0  0
   47.0304   58.1318   14.8316 C   0  0  0  0  0  0  0  0  0  0  0  0
   46.8396   59.1721   14.4884 O   0  0  0  0  0  0  0  0  0  0  0  0
   46.6197   57.0961   14.2880 N   0  0  0  0  0  0  0  0  0  0  0  0
   46.8438   56.2172   14.6706 H   0  0  0  0  0  0  0  0  0  0  0  0
   46.0695   57.1527   13.4735 H   0  0  0  0  0  0  0  0  0  0  0  0
   49.7680   57.3933   20.4277 C   0  0  0  0  0  0  0  0  0  0  0  0
   50.9629   58.1006   21.0091 O   0  0  0  0  0  0  0  0  0  0  0  0
   51.6693   57.4573   21.1769 H   0  0  0  0  0  0  0  0  0  0  0  0
 26 27  1  0  0  0
 26 30  2  0  0  0
 27 28  1  0  0  0
 27 25  1  0  0  0
 28 29  2  0  0  0
 29 30  1  0  0  0
 30 31  1  0  0  0
 31 32  2  0  0  0
 31 33  1  0  0  0
 25 36  1  0  0  0
 25 24  1  0  0  0
 36 37  1  0  0  0
 24 23  1  0  0  0
 23  1  1  0  0  0
  1  2  1  0  0  0
  1  5  1  0  0  0
  2  3  2  0  0  0
  3  4  1  0  0  0
  4  5  2  0  0  0
  4  6  1  0  0  0
  5  9  1  0  0  0
  6  7  2  0  0  0
  7  8  1  0  0  0
  8  9  2  0  0  0
  8 10  1  0  0  0
 10 11  1  0  0  0
 11 12  2  0  0  0
 11 13  1  0  0  0
 13 16  1  0  0  0
 16 18  1  0  0  0
 17 18  2  0  0  0
 17 22  1  0  0  0
 18 19  1  0  0  0
 19 20  2  0  0  0
 20 21  1  0  0  0
 21 22  2  0  0  0
 33 34  1  0  0  0
 33 35  1  0  0  0
 37 38  1  0  0  0
 10 14  1  0  0  0
 13 15  1  0  0  0
M  END
> <minimizedAffinity>
-8.72869

$$$$
1O5R_FR9_A_1001


 38 41  0  0  0  0  0  0  0  0999 V2000
   51.3960   51.7255   18.6295 N   0  0  0  0  0  0  0  0  0  0  0  0
   52.1418   50.7399   19.2338 C   0  0  0  0  0  0  0  0  0  0  0  0
   52.4365   51.1135   20.5116 C   0  0  0  0  0  0  0  0  0  0  0  0
   51.8131   52.3784   20.6856 C   0  0  0  0  0  0  0  0  0  0  0  0
   51.1740   52.7105   19.4685 C   0  0  0  0  0  0  0  0  0  0  0  0
   51.6909   53.2185   21.7600 C   0  0  0  0  0  0  0  0  0  0  0  0
   50.9541   54.3974   21.6358 C   0  0  0  0  0  0  0  0  0  0  0  0
   50.3712   54.7079   20.4043 C   0  0  0  0  0  0  0  0  0  0  0  0
   50.4820   53.8394   19.3498 C   0  0  0  0  0  0  0  0  0  0  0  0
   49.5683   55.7143   20.1794 N   0  0  0  0  0  0  0  0  0  0  0  0
   49.9280   56.9762   19.8289 C   0  0  0  0  0  0  0  0  0  0  0  0
   51.0747   57.3420   19.9225 O   0  0  0  0  0  0  0  0  0  0  0  0
   48.8944   57.7435   19.6990 N   0  0  0  0  0  0  0  0  0  0  0  0
   48.6040   55.5399   20.2738 H   0  0  0  0  0  0  0  0  0  0  0  0
   47.9938   57.3458   19.6963 H   0  0  0  0  0  0  0  0  0  0  0  0
   49.0387   59.1687   19.5583 C   0  0  0  0  0  0  0  0  0  0  0  0
   46.5201   59.0210   19.5097 C   0  0  0  0  0  0  0  0  0  0  0  0
   47.6737   59.7404   19.2427 C   0  0  0  0  0  0  0  0  0  0  0  0
   47.5640   60.9937   18.6669 C   0  0  0  0  0  0  0  0  0  0  0  0
   46.3078   61.5273   18.4047 C   0  0  0  0  0  0  0  0  0  0  0  0
   45.1314   60.8197   18.6994 C   0  0  0  0  0  0  0  0  0  0  0  0
   45.2839   59.5623   19.1947 C   0  0  0  0  0  0  0  0  0  0  0  0
   50.9667   51.6954   17.2480 C   0  0  0  0  0  0  0  0  0  0  0  0
   49.6329   50.9591   17.1546 C   0  0  0  0  0  0  0  0  0  0  0  0
   49.7778   49.6306   16.4348 C   0  0  0  0  0  0  0  0  0  0  0  0
   47.5896   48.4563   15.4707 C   0  0  0  0  0  0  0  0  0  0  0  0
   48.5382   48.8517   16.5246 N   0  0  0  0  0  0  0  0  0  0  0  0
   47.8575   48.5764   17.6281 C   0  0  0  0  0  0  0  0  0  0  0  0
   46.6862   48.0231   17.4623 N   0  0  0  0  0  0  0  0  0  0  0  0
   46.4693   47.9175   16.0228 C   0  0  0  0  0  0  0  0  0  0  0  0
   45.3141   47.2797   15.4186 C   0  0  0  0  0  0  0  0  0  0  0  0
   44.4785   47.9783   15.1948 O   0  0  0  0  0  0  0  0  0  0  0  0
   45.2817   46.0447   15.3151 N   0  0  0  0  0  0  0  0  0  0  0  0
   46.0782   45.5110   15.5383 H   0  0  0  0  0  0  0  0  0  0  0  0
   44.4593   45.5978   15.0098 H   0  0  0  0  0  0  0  0  0  0  0  0
   50.2822   49.9049   14.9822 C   0  0  0  0  0  0  0  0  0  0  0  0
   51.6489   49.5386   14.4681 O   0  0  0  0  0  0  0  0  0  0  0  0
   52.3160   50.0975   14.8964 H   0  0  0  0  0  0  0  0  0  0  0  0
 26 27  1  0  0  0
 26 30  2  0  0  0
 27 28  1  0  0  0
 27 25  1  0  0  0
 28 29  2  0  0  0
 29 30  1  0  0  0
 30 31  1  0  0  0
 31 32  2  0  0  0
 31 33  1  0  0  0
 25 36  1  0  0  0
 25 24  1  0  0  0
 36 37  1  0  0  0
 24 23  1  0  0  0
 23  1  1  0  0  0
  1  2  1  0  0  0
  1  5  1  0  0  0
  2  3  2  0  0  0
  3  4  1  0  0  0
  4  5  2  0  0  0
  4  6  1  0  0  0
  5  9  1  0  0  0
  6  7  2  0  0  0
  7  8  1  0  0  0
  8  9  2  0  0  0
  8 10  1  0  0  0
 10 11  1  0  0  0
 11 12  2  0  0  0
 11 13  1  0  0  0
 13 16  1  0  0  0
 16 18  1  0  0  0
 17 18  2  0  0  0
 17 22  1  0  0  0
 18 19  1  0  0  0
 19 20  2  0  0  0
 20 21  1  0  0  0
 21 22  2  0  0  0
 33 34  1  0  0  0
 33 35  1  0  0  0
 37 38  1  0  0  0
 10 14  1  0  0  0
 13 15  1  0  0  0
M  END
> <minimizedAffinity>
-8.71629

$$$$
1O5R_FR9_A_1001


 38 41  0  0  0  0  0  0  0  0999 V2000
   49.4755   50.6364   19.2302 N   0  0  0  0  0  0  0  0  0  0  0  0
   49.9875   49.6738   20.0693 C   0  0  0  0  0  0  0  0  0  0  0  0
   51.0931   50.1632   20.6995 C   0  0  0  0  0  0  0  0  0  0  0  0
   51.2335   51.4965   20.2289 C   0  0  0  0  0  0  0  0  0  0  0  0
   50.1873   51.7367   19.3082 C   0  0  0  0  0  0  0  0  0  0  0  0
   52.1000   52.5098   20.5410 C   0  0  0  0  0  0  0  0  0  0  0  0
   51.9512   53.7583   19.9351 C   0  0  0  0  0  0  0  0  0  0  0  0
   50.9281   53.9428   19.0012 C   0  0  0  0  0  0  0  0  0  0  0  0
   50.0545   52.9237   18.7243 C   0  0  0  0  0  0  0  0  0  0  0  0
   50.6071   55.0813   18.4454 N   0  0  0  0  0  0  0  0  0  0  0  0
   49.7439   56.0082   18.9354 C   0  0  0  0  0  0  0  0  0  0  0  0
   49.0014   55.7412   19.8492 O   0  0  0  0  0  0  0  0  0  0  0  0
   49.6298   57.0179   18.1345 N   0  0  0  0  0  0  0  0  0  0  0  0
   51.0350   55.2882   17.5833 H   0  0  0  0  0  0  0  0  0  0  0  0
   50.2541   57.1090   17.3788 H   0  0  0  0  0  0  0  0  0  0  0  0
   48.6057   58.0104   18.3296 C   0  0  0  0  0  0  0  0  0  0  0  0
   48.2383   57.4768   15.8909 C   0  0  0  0  0  0  0  0  0  0  0  0
   47.9645   58.2802   16.9859 C   0  0  0  0  0  0  0  0  0  0  0  0
   47.1005   59.3501   16.8332 C   0  0  0  0  0  0  0  0  0  0  0  0
   46.4915   59.5778   15.6048 C   0  0  0  0  0  0  0  0  0  0  0  0
   46.7381   58.7517   14.4966 C   0  0  0  0  0  0  0  0  0  0  0  0
   47.6499   57.7574   14.6680 C   0  0  0  0  0  0  0  0  0  0  0  0
   48.3437   50.4371   18.3510 C   0  0  0  0  0  0  0  0  0  0  0  0
   48.6126   49.2310   17.4550 C   0  0  0  0  0  0  0  0  0  0  0  0
   48.4632   49.5826   15.9860 C   0  0  0  0  0  0  0  0  0  0  0  0
   50.9263   50.5949   15.9139 C   0  0  0  0  0  0  0  0  0  0  0  0
   49.7709   49.8554   15.3802 N   0  0  0  0  0  0  0  0  0  0  0  0
   50.0881   49.7323   14.0990 C   0  0  0  0  0  0  0  0  0  0  0  0
   51.2549   50.1996   13.7446 N   0  0  0  0  0  0  0  0  0  0  0  0
   51.8563   50.7836   14.9395 C   0  0  0  0  0  0  0  0  0  0  0  0
   53.1959   51.3400   14.9873 C   0  0  0  0  0  0  0  0  0  0  0  0
   53.5054   51.6851   15.9980 O   0  0  0  0  0  0  0  0  0  0  0  0
   53.8270   51.5064   13.9334 N   0  0  0  0  0  0  0  0  0  0  0  0
   53.4671   51.1614   13.0844 H   0  0  0  0  0  0  0  0  0  0  0  0
   54.6881   51.9836   13.9453 H   0  0  0  0  0  0  0  0  0  0  0  0
   47.6331   48.4586   15.2879 C   0  0  0  0  0  0  0  0  0  0  0  0
   46.6973   48.6806   14.1298 O   0  0  0  0  0  0  0  0  0  0  0  0
   45.9239   49.1828   14.4307 H   0  0  0  0  0  0  0  0  0  0  0  0
 26 27  1  0  0  0
 26 30  2  0  0  0
 27 28  1  0  0  0
 27 25  1  0  0  0
 28 29  2  0  0  0
 29 30  1  0  0  0
 30 31  1  0  0  0
 31 32  2  0  0  0
 31 33  1  0  0  0
 25 36  1  0  0  0
 25 24  1  0  0  0
 36 37  1  0  0  0
 24 23  1  0  0  0
 23  1  1  0  0  0
  1  2  1  0  0  0
  1  5  1  0  0  0
  2  3  2  0  0  0
  3  4  1  0  0  0
  4  5  2  0  0  0
  4  6  1  0  0  0
  5  9  1  0  0  0
  6  7  2  0  0  0
  7  8  1  0  0  0
  8  9  2  0  0  0
  8 10  1  0  0  0
 10 11  1  0  0  0
 11 12  2  0  0  0
 11 13  1  0  0  0
 13 16  1  0  0  0
 16 18  1  0  0  0
 17 18  2  0  0  0
 17 22  1  0  0  0
 18 19  1  0  0  0
 19 20  2  0  0  0
 20 21  1  0  0  0
 21 22  2  0  0  0
 33 34  1  0  0  0
 33 35  1  0  0  0
 37 38  1  0  0  0
 10 14  1  0  0  0
 13 15  1  0  0  0
M  END
> <minimizedAffinity>
-8.68304

$$$$
1O5R_FR9_A_1001


 38 41  0  0  0  0  0  0  0  0999 V2000
   50.8735   51.8552   18.4768 N   0  0  0  0  0  0  0  0  0  0  0  0
   52.0350   51.1728   18.7563 C   0  0  0  0  0  0  0  0  0  0  0  0
   53.0310   52.0642   19.0253 C   0  0  0  0  0  0  0  0  0  0  0  0
   52.4250   53.3454   18.9242 C   0  0  0  0  0  0  0  0  0  0  0  0
   51.0680   53.1496   18.5774 C   0  0  0  0  0  0  0  0  0  0  0  0
   52.8849   54.6155   19.1483 C   0  0  0  0  0  0  0  0  0  0  0  0
   52.0159   55.6994   19.0148 C   0  0  0  0  0  0  0  0  0  0  0  0
   50.6922   55.4660   18.6321 C   0  0  0  0  0  0  0  0  0  0  0  0
   50.2451   54.1847   18.4402 C   0  0  0  0  0  0  0  0  0  0  0  0
   49.7496   56.3696   18.5782 N   0  0  0  0  0  0  0  0  0  0  0  0
   49.1864   56.8883   17.4565 C   0  0  0  0  0  0  0  0  0  0  0  0
   49.6905   56.7149   16.3733 O   0  0  0  0  0  0  0  0  0  0  0  0
   48.2929   57.7787   17.7444 N   0  0  0  0  0  0  0  0  0  0  0  0
   49.4133   56.7091   19.4389 H   0  0  0  0  0  0  0  0  0  0  0  0
   47.9935   57.8797   18.6768 H   0  0  0  0  0  0  0  0  0  0  0  0
   47.7292   58.6239   16.7248 C   0  0  0  0  0  0  0  0  0  0  0  0
   45.5761   59.6835   17.5053 C   0  0  0  0  0  0  0  0  0  0  0  0
   46.9581   59.7271   17.4162 C   0  0  0  0  0  0  0  0  0  0  0  0
   47.6311   60.8069   17.9597 C   0  0  0  0  0  0  0  0  0  0  0  0
   46.9218   61.8040   18.6188 C   0  0  0  0  0  0  0  0  0  0  0  0
   45.5240   61.7545   18.7416 C   0  0  0  0  0  0  0  0  0  0  0  0
   44.8944   60.7160   18.1292 C   0  0  0  0  0  0  0  0  0  0  0  0
   49.6321   51.2280   18.0781 C   0  0  0  0  0  0  0  0  0  0  0  0
   49.5636   51.1784   16.5540 C   0  0  0  0  0  0  0  0  0  0  0  0
   49.9178   49.8010   16.0238 C   0  0  0  0  0  0  0  0  0  0  0  0
   47.3907   49.2539   15.3826 C   0  0  0  0  0  0  0  0  0  0  0  0
   48.7231   48.9550   15.9323 N   0  0  0  0  0  0  0  0  0  0  0  0
   48.5054   47.8235   16.5875 C   0  0  0  0  0  0  0  0  0  0  0  0
   47.3016   47.3251   16.4970 N   0  0  0  0  0  0  0  0  0  0  0  0
   46.5198   48.2546   15.6875 C   0  0  0  0  0  0  0  0  0  0  0  0
   45.1456   48.0234   15.2821 C   0  0  0  0  0  0  0  0  0  0  0  0
   44.5006   47.6107   16.0884 O   0  0  0  0  0  0  0  0  0  0  0  0
   44.8258   48.1693   14.0933 N   0  0  0  0  0  0  0  0  0  0  0  0
   45.4714   48.5457   13.4525 H   0  0  0  0  0  0  0  0  0  0  0  0
   43.9261   47.9087   13.7900 H   0  0  0  0  0  0  0  0  0  0  0  0
   50.7109   49.9711   14.6890 C   0  0  0  0  0  0  0  0  0  0  0  0
   52.2121   49.9539   14.5781 O   0  0  0  0  0  0  0  0  0  0  0  0
   52.5763   50.7504   14.9952 H   0  0  0  0  0  0  0  0  0  0  0  0
 26 27  1  0  0  0
 26 30  2  0  0  0
 27 28  1  0  0  0
 27 25  1  0  0  0
 28 29  2  0  0  0
 29 30  1  0  0  0
 30 31  1  0  0  0
 31 32  2  0  0  0
 31 33  1  0  0  0
 25 36  1  0  0  0
 25 24  1  0  0  0
 36 37  1  0  0  0
 24 23  1  0  0  0
 23  1  1  0  0  0
  1  2  1  0  0  0
  1  5  1  0  0  0
  2  3  2  0  0  0
  3  4  1  0  0  0
  4  5  2  0  0  0
  4  6  1  0  0  0
  5  9  1  0  0  0
  6  7  2  0  0  0
  7  8  1  0  0  0
  8  9  2  0  0  0
  8 10  1  0  0  0
 10 11  1  0  0  0
 11 12  2  0  0  0
 11 13  1  0  0  0
 13 16  1  0  0  0
 16 18  1  0  0  0
 17 18  2  0  0  0
 17 22  1  0  0  0
 18 19  1  0  0  0
 19 20  2  0  0  0
 20 21  1  0  0  0
 21 22  2  0  0  0
 33 34  1  0  0  0
 33 35  1  0  0  0
 37 38  1  0  0  0
 10 14  1  0  0  0
 13 15  1  0  0  0
M  END
> <minimizedAffinity>
-8.64224

$$$$
