2JKE_NOJ_A_1727


 16 16  0  0  0  0  0  0  0  0999 V2000
   23.8249   44.6980   68.5705 C   0  0  0  0  0  0  0  0  0  0  0  0
   23.4019   43.5839   69.5452 C   0  0  0  0  0  0  0  0  0  0  0  0
   22.7257   44.1823   70.6266 O   0  0  0  0  0  0  0  0  0  0  0  0
   24.6792   42.8893   70.0428 C   0  0  0  0  0  0  0  0  0  0  0  0
   24.4086   41.9729   71.0658 O   0  0  0  0  0  0  0  0  0  0  0  0
   25.3185   42.1449   68.8727 C   0  0  0  0  0  0  0  0  0  0  0  0
   26.5581   41.6095   69.3597 O   0  0  0  0  0  0  0  0  0  0  0  0
   25.6362   43.1609   67.7537 C   0  0  0  0  0  0  0  0  0  0  0  0
   24.5396   44.1088   67.4287 N   0  0  0  0  0  0  0  0  0  0  0  0
   23.3078   44.8303   71.0533 H   0  0  0  0  0  0  0  0  0  0  0  0
   23.8128   41.2836   70.7332 H   0  0  0  0  0  0  0  0  0  0  0  0
   27.1136   42.3317   69.6925 H   0  0  0  0  0  0  0  0  0  0  0  0
   24.9411   44.8734   66.8859 H   0  0  0  0  0  0  0  0  0  0  0  0
   26.0084   42.4677   66.4362 C   0  0  0  0  0  0  0  0  0  0  0  0
   26.2272   41.0628   66.6872 O   0  0  0  0  0  0  0  0  0  0  0  0
   26.9470   40.9573   67.3289 H   0  0  0  0  0  0  0  0  0  0  0  0
  1  2  1  0  0  0
  1  9  1  0  0  0
  2  3  1  0  0  0
  2  4  1  0  0  0
  4  5  1  0  0  0
  4  6  1  0  0  0
  6  7  1  0  0  0
  6  8  1  0  0  0
  8  9  1  0  0  0
  8 14  1  0  0  0
 14 15  1  0  0  0
  3 10  1  0  0  0
  5 11  1  0  0  0
  7 12  1  0  0  0
  9 13  1  0  0  0
 15 16  1  0  0  0
M  END
> <minimizedAffinity>
-6.88144

$$$$
2JKE_NOJ_A_1727


 16 16  0  0  0  0  0  0  0  0999 V2000
   25.7812   41.9466   68.5916 C   0  0  0  0  0  0  0  0  0  0  0  0
   24.4082   41.7441   67.9253 C   0  0  0  0  0  0  0  0  0  0  0  0
   24.6082   41.6377   66.5348 O   0  0  0  0  0  0  0  0  0  0  0  0
   23.5498   42.9792   68.2403 C   0  0  0  0  0  0  0  0  0  0  0  0
   22.3410   42.9668   67.5345 O   0  0  0  0  0  0  0  0  0  0  0  0
   23.2450   42.9940   69.7366 C   0  0  0  0  0  0  0  0  0  0  0  0
   22.5404   44.2173   69.9961 O   0  0  0  0  0  0  0  0  0  0  0  0
   24.5794   43.0296   70.5134 C   0  0  0  0  0  0  0  0  0  0  0  0
   25.6099   42.0667   70.0470 N   0  0  0  0  0  0  0  0  0  0  0  0
   25.0504   42.4374   66.2096 H   0  0  0  0  0  0  0  0  0  0  0  0
   21.8276   42.1833   67.7862 H   0  0  0  0  0  0  0  0  0  0  0  0
   23.0855   44.9698   69.7175 H   0  0  0  0  0  0  0  0  0  0  0  0
   26.5051   42.3546   70.4421 H   0  0  0  0  0  0  0  0  0  0  0  0
   24.3811   42.7540   72.0100 C   0  0  0  0  0  0  0  0  0  0  0  0
   24.1198   41.3469   72.2005 O   0  0  0  0  0  0  0  0  0  0  0  0
   23.3199   41.0975   71.7116 H   0  0  0  0  0  0  0  0  0  0  0  0
  1  2  1  0  0  0
  1  9  1  0  0  0
  2  3  1  0  0  0
  2  4  1  0  0  0
  4  5  1  0  0  0
  4  6  1  0  0  0
  6  7  1  0  0  0
  6  8  1  0  0  0
  8  9  1  0  0  0
  8 14  1  0  0  0
 14 15  1  0  0  0
  3 10  1  0  0  0
  5 11  1  0  0  0
  7 12  1  0  0  0
  9 13  1  0  0  0
 15 16  1  0  0  0
M  END
> <minimizedAffinity>
-6.51438

$$$$
2JKE_NOJ_A_1727


 16 16  0  0  0  0  0  0  0  0999 V2000
   25.0041   45.3664   67.8988 C   0  0  0  0  0  0  0  0  0  0  0  0
   23.6056   45.2175   68.5249 C   0  0  0  0  0  0  0  0  0  0  0  0
   23.2258   46.4686   69.0496 O   0  0  0  0  0  0  0  0  0  0  0  0
   23.7083   44.1820   69.6558 C   0  0  0  0  0  0  0  0  0  0  0  0
   22.5245   44.1033   70.3987 O   0  0  0  0  0  0  0  0  0  0  0  0
   23.9947   42.8136   69.0412 C   0  0  0  0  0  0  0  0  0  0  0  0
   24.1910   41.9084   70.1377 O   0  0  0  0  0  0  0  0  0  0  0  0
   25.3124   42.8967   68.2399 C   0  0  0  0  0  0  0  0  0  0  0  0
   25.4357   44.0751   67.3438 N   0  0  0  0  0  0  0  0  0  0  0  0
   23.8822   46.7582   69.7024 H   0  0  0  0  0  0  0  0  0  0  0  0
   21.7964   43.8302   69.8188 H   0  0  0  0  0  0  0  0  0  0  0  0
   24.9178   42.2281   70.6948 H   0  0  0  0  0  0  0  0  0  0  0  0
   26.4171   44.1630   67.0802 H   0  0  0  0  0  0  0  0  0  0  0  0
   25.5264   41.6610   67.3554 C   0  0  0  0  0  0  0  0  0  0  0  0
   24.5774   40.6404   67.7324 O   0  0  0  0  0  0  0  0  0  0  0  0
   24.7092   40.4046   68.6640 H   0  0  0  0  0  0  0  0  0  0  0  0
  1  2  1  0  0  0
  1  9  1  0  0  0
  2  3  1  0  0  0
  2  4  1  0  0  0
  4  5  1  0  0  0
  4  6  1  0  0  0
  6  7  1  0  0  0
  6  8  1  0  0  0
  8  9  1  0  0  0
  8 14  1  0  0  0
 14 15  1  0  0  0
  3 10  1  0  0  0
  5 11  1  0  0  0
  7 12  1  0  0  0
  9 13  1  0  0  0
 15 16  1  0  0  0
M  END
> <minimizedAffinity>
-6.27439

$$$$
2JKE_NOJ_A_1727


 16 16  0  0  0  0  0  0  0  0999 V2000
   25.3376   42.3126   66.8098 C   0  0  0  0  0  0  0  0  0  0  0  0
   24.2836   41.9574   67.8742 C   0  0  0  0  0  0  0  0  0  0  0  0
   23.4995   40.8978   67.3769 O   0  0  0  0  0  0  0  0  0  0  0  0
   23.4079   43.2004   68.0971 C   0  0  0  0  0  0  0  0  0  0  0  0
   22.3123   42.9240   68.9234 O   0  0  0  0  0  0  0  0  0  0  0  0
   24.2577   44.2857   68.7544 C   0  0  0  0  0  0  0  0  0  0  0  0
   23.4298   45.4552   68.8387 O   0  0  0  0  0  0  0  0  0  0  0  0
   25.4541   44.6047   67.8313 C   0  0  0  0  0  0  0  0  0  0  0  0
   26.1733   43.4210   67.2944 N   0  0  0  0  0  0  0  0  0  0  0  0
   23.0883   41.1651   66.5400 H   0  0  0  0  0  0  0  0  0  0  0  0
   22.6284   42.6307   69.7922 H   0  0  0  0  0  0  0  0  0  0  0  0
   23.1281   45.7024   67.9506 H   0  0  0  0  0  0  0  0  0  0  0  0
   26.7523   43.7364   66.5161 H   0  0  0  0  0  0  0  0  0  0  0  0
   26.5110   45.4653   68.5364 C   0  0  0  0  0  0  0  0  0  0  0  0
   25.9946   46.8030   68.7055 O   0  0  0  0  0  0  0  0  0  0  0  0
   25.7883   47.1821   67.8368 H   0  0  0  0  0  0  0  0  0  0  0  0
  1  2  1  0  0  0
  1  9  1  0  0  0
  2  3  1  0  0  0
  2  4  1  0  0  0
  4  5  1  0  0  0
  4  6  1  0  0  0
  6  7  1  0  0  0
  6  8  1  0  0  0
  8  9  1  0  0  0
  8 14  1  0  0  0
 14 15  1  0  0  0
  3 10  1  0  0  0
  5 11  1  0  0  0
  7 12  1  0  0  0
  9 13  1  0  0  0
 15 16  1  0  0  0
M  END
> <minimizedAffinity>
-6.19766

$$$$
2JKE_NOJ_A_1727


 16 16  0  0  0  0  0  0  0  0999 V2000
   24.9760   43.3831   69.9233 C   0  0  0  0  0  0  0  0  0  0  0  0
   23.5755   43.7519   69.4011 C   0  0  0  0  0  0  0  0  0  0  0  0
   22.8157   44.2298   70.4869 O   0  0  0  0  0  0  0  0  0  0  0  0
   22.9373   42.4740   68.8342 C   0  0  0  0  0  0  0  0  0  0  0  0
   21.5948   42.6710   68.4904 O   0  0  0  0  0  0  0  0  0  0  0  0
   23.7084   42.0554   67.5843 C   0  0  0  0  0  0  0  0  0  0  0  0
   23.1468   40.8044   67.1599 O   0  0  0  0  0  0  0  0  0  0  0  0
   25.1849   41.8174   67.9699 C   0  0  0  0  0  0  0  0  0  0  0  0
   25.7973   42.8746   68.8148 N   0  0  0  0  0  0  0  0  0  0  0  0
   22.7736   43.5490   71.1766 H   0  0  0  0  0  0  0  0  0  0  0  0
   21.5334   43.3556   67.8060 H   0  0  0  0  0  0  0  0  0  0  0  0
   23.2190   40.1571   67.8788 H   0  0  0  0  0  0  0  0  0  0  0  0
   26.6558   42.4947   69.2136 H   0  0  0  0  0  0  0  0  0  0  0  0
   26.0864   41.6788   66.7358 C   0  0  0  0  0  0  0  0  0  0  0  0
   25.3114   41.9610   65.5508 O   0  0  0  0  0  0  0  0  0  0  0  0
   24.5731   41.3347   65.4906 H   0  0  0  0  0  0  0  0  0  0  0  0
  1  2  1  0  0  0
  1  9  1  0  0  0
  2  3  1  0  0  0
  2  4  1  0  0  0
  4  5  1  0  0  0
  4  6  1  0  0  0
  6  7  1  0  0  0
  6  8  1  0  0  0
  8  9  1  0  0  0
  8 14  1  0  0  0
 14 15  1  0  0  0
  3 10  1  0  0  0
  5 11  1  0  0  0
  7 12  1  0  0  0
  9 13  1  0  0  0
 15 16  1  0  0  0
M  END
> <minimizedAffinity>
-5.98701

$$$$
2JKE_NOJ_A_1727


 16 16  0  0  0  0  0  0  0  0999 V2000
   26.4741   44.6041   68.1765 C   0  0  0  0  0  0  0  0  0  0  0  0
   25.2747   45.5613   68.0528 C   0  0  0  0  0  0  0  0  0  0  0  0
   25.6518   46.8070   68.5920 O   0  0  0  0  0  0  0  0  0  0  0  0
   24.1156   44.9649   68.8667 C   0  0  0  0  0  0  0  0  0  0  0  0
   23.0336   45.8484   68.9562 O   0  0  0  0  0  0  0  0  0  0  0  0
   23.6473   43.6822   68.1829 C   0  0  0  0  0  0  0  0  0  0  0  0
   22.6457   43.1087   69.0363 O   0  0  0  0  0  0  0  0  0  0  0  0
   24.8368   42.7002   68.1046 C   0  0  0  0  0  0  0  0  0  0  0  0
   26.1140   43.2890   67.6263 N   0  0  0  0  0  0  0  0  0  0  0  0
   25.9240   46.6905   69.5157 H   0  0  0  0  0  0  0  0  0  0  0  0
   22.6972   46.0389   68.0665 H   0  0  0  0  0  0  0  0  0  0  0  0
   23.0232   42.9482   69.9153 H   0  0  0  0  0  0  0  0  0  0  0  0
   26.8633   42.6383   67.8621 H   0  0  0  0  0  0  0  0  0  0  0  0
   24.5407   41.5107   67.1814 C   0  0  0  0  0  0  0  0  0  0  0  0
   23.2501   40.9595   67.5206 O   0  0  0  0  0  0  0  0  0  0  0  0
   23.2572   40.6646   68.4446 H   0  0  0  0  0  0  0  0  0  0  0  0
  1  2  1  0  0  0
  1  9  1  0  0  0
  2  3  1  0  0  0
  2  4  1  0  0  0
  4  5  1  0  0  0
  4  6  1  0  0  0
  6  7  1  0  0  0
  6  8  1  0  0  0
  8  9  1  0  0  0
  8 14  1  0  0  0
 14 15  1  0  0  0
  3 10  1  0  0  0
  5 11  1  0  0  0
  7 12  1  0  0  0
  9 13  1  0  0  0
 15 16  1  0  0  0
M  END
> <minimizedAffinity>
-5.98312

$$$$
2JKE_NOJ_A_1727


 16 16  0  0  0  0  0  0  0  0999 V2000
   23.4134   43.6461   70.1974 C   0  0  0  0  0  0  0  0  0  0  0  0
   24.5797   42.6676   70.4262 C   0  0  0  0  0  0  0  0  0  0  0  0
   25.4921   43.2741   71.3119 O   0  0  0  0  0  0  0  0  0  0  0  0
   25.2526   42.4176   69.0674 C   0  0  0  0  0  0  0  0  0  0  0  0
   26.4312   41.6739   69.1990 O   0  0  0  0  0  0  0  0  0  0  0  0
   24.2819   41.6464   68.1757 C   0  0  0  0  0  0  0  0  0  0  0  0
   24.9106   41.5364   66.8900 O   0  0  0  0  0  0  0  0  0  0  0  0
   22.9907   42.4782   68.0138 C   0  0  0  0  0  0  0  0  0  0  0  0
   22.4413   43.0464   69.2716 N   0  0  0  0  0  0  0  0  0  0  0  0
   25.7974   44.1147   70.9362 H   0  0  0  0  0  0  0  0  0  0  0  0
   26.2258   40.8085   69.5861 H   0  0  0  0  0  0  0  0  0  0  0  0
   25.1079   42.4230   66.5496 H   0  0  0  0  0  0  0  0  0  0  0  0
   21.7680   43.7692   69.0174 H   0  0  0  0  0  0  0  0  0  0  0  0
   21.8562   41.6617   67.3805 C   0  0  0  0  0  0  0  0  0  0  0  0
   22.3329   40.3276   67.1024 O   0  0  0  0  0  0  0  0  0  0  0  0
   23.0851   40.3738   66.4917 H   0  0  0  0  0  0  0  0  0  0  0  0
  1  2  1  0  0  0
  1  9  1  0  0  0
  2  3  1  0  0  0
  2  4  1  0  0  0
  4  5  1  0  0  0
  4  6  1  0  0  0
  6  7  1  0  0  0
  6  8  1  0  0  0
  8  9  1  0  0  0
  8 14  1  0  0  0
 14 15  1  0  0  0
  3 10  1  0  0  0
  5 11  1  0  0  0
  7 12  1  0  0  0
  9 13  1  0  0  0
 15 16  1  0  0  0
M  END
> <minimizedAffinity>
-5.98060

$$$$
2JKE_NOJ_A_1727


 16 16  0  0  0  0  0  0  0  0999 V2000
   26.3959   45.4339   67.8528 C   0  0  0  0  0  0  0  0  0  0  0  0
   25.0706   46.1567   67.5509 C   0  0  0  0  0  0  0  0  0  0  0  0
   25.3419   47.5334   67.4251 O   0  0  0  0  0  0  0  0  0  0  0  0
   24.1252   45.9129   68.7376 C   0  0  0  0  0  0  0  0  0  0  0  0
   22.9538   46.6725   68.6346 O   0  0  0  0  0  0  0  0  0  0  0  0
   23.7500   44.4329   68.7679 C   0  0  0  0  0  0  0  0  0  0  0  0
   22.9613   44.2374   69.9511 O   0  0  0  0  0  0  0  0  0  0  0  0
   25.0418   43.5974   68.9034 C   0  0  0  0  0  0  0  0  0  0  0  0
   26.1495   43.9915   67.9954 N   0  0  0  0  0  0  0  0  0  0  0  0
   25.7496   47.8586   68.2429 H   0  0  0  0  0  0  0  0  0  0  0  0
   22.4775   46.4243   67.8269 H   0  0  0  0  0  0  0  0  0  0  0  0
   23.4724   44.5102   70.7291 H   0  0  0  0  0  0  0  0  0  0  0  0
   27.0060   43.5636   68.3469 H   0  0  0  0  0  0  0  0  0  0  0  0
   24.7905   42.1048   68.6506 C   0  0  0  0  0  0  0  0  0  0  0  0
   25.4252   41.3355   69.6945 O   0  0  0  0  0  0  0  0  0  0  0  0
   26.3788   41.5131   69.6927 H   0  0  0  0  0  0  0  0  0  0  0  0
  1  2  1  0  0  0
  1  9  1  0  0  0
  2  3  1  0  0  0
  2  4  1  0  0  0
  4  5  1  0  0  0
  4  6  1  0  0  0
  6  7  1  0  0  0
  6  8  1  0  0  0
  8  9  1  0  0  0
  8 14  1  0  0  0
 14 15  1  0  0  0
  3 10  1  0  0  0
  5 11  1  0  0  0
  7 12  1  0  0  0
  9 13  1  0  0  0
 15 16  1  0  0  0
M  END
> <minimizedAffinity>
-5.90033

$$$$
2JKE_NOJ_A_1727


 16 16  0  0  0  0  0  0  0  0999 V2000
   24.7527   42.8061   67.0085 C   0  0  0  0  0  0  0  0  0  0  0  0
   25.0125   42.1491   68.3762 C   0  0  0  0  0  0  0  0  0  0  0  0
   25.0099   40.7516   68.1977 O   0  0  0  0  0  0  0  0  0  0  0  0
   23.8693   42.5614   69.3168 C   0  0  0  0  0  0  0  0  0  0  0  0
   23.9249   41.8754   70.5358 O   0  0  0  0  0  0  0  0  0  0  0  0
   23.9780   44.0598   69.5908 C   0  0  0  0  0  0  0  0  0  0  0  0
   22.8313   44.4135   70.3783 O   0  0  0  0  0  0  0  0  0  0  0  0
   23.8946   44.8163   68.2469 C   0  0  0  0  0  0  0  0  0  0  0  0
   24.7439   44.2688   67.1580 N   0  0  0  0  0  0  0  0  0  0  0  0
   24.1592   40.4751   67.8227 H   0  0  0  0  0  0  0  0  0  0  0  0
   24.7600   42.0808   70.9846 H   0  0  0  0  0  0  0  0  0  0  0  0
   22.0230   44.1787   69.8961 H   0  0  0  0  0  0  0  0  0  0  0  0
   24.4168   44.6687   66.2785 H   0  0  0  0  0  0  0  0  0  0  0  0
   24.2843   46.2933   68.3932 C   0  0  0  0  0  0  0  0  0  0  0  0
   23.2501   46.9840   69.1266 O   0  0  0  0  0  0  0  0  0  0  0  0
   22.4101   46.9117   68.6469 H   0  0  0  0  0  0  0  0  0  0  0  0
  1  2  1  0  0  0
  1  9  1  0  0  0
  2  3  1  0  0  0
  2  4  1  0  0  0
  4  5  1  0  0  0
  4  6  1  0  0  0
  6  7  1  0  0  0
  6  8  1  0  0  0
  8  9  1  0  0  0
  8 14  1  0  0  0
 14 15  1  0  0  0
  3 10  1  0  0  0
  5 11  1  0  0  0
  7 12  1  0  0  0
  9 13  1  0  0  0
 15 16  1  0  0  0
M  END
> <minimizedAffinity>
-5.77448

$$$$
2JKE_NOJ_A_1727


 16 16  0  0  0  0  0  0  0  0999 V2000
   23.4299   44.8091   68.7813 C   0  0  0  0  0  0  0  0  0  0  0  0
   24.8488   44.6437   68.2072 C   0  0  0  0  0  0  0  0  0  0  0  0
   24.8522   45.1561   66.8949 O   0  0  0  0  0  0  0  0  0  0  0  0
   25.1716   43.1414   68.1863 C   0  0  0  0  0  0  0  0  0  0  0  0
   26.3747   42.8766   67.5215 O   0  0  0  0  0  0  0  0  0  0  0  0
   25.2866   42.6459   69.6262 C   0  0  0  0  0  0  0  0  0  0  0  0
   25.4768   41.2251   69.5535 O   0  0  0  0  0  0  0  0  0  0  0  0
   23.9509   42.9191   70.3520 C   0  0  0  0  0  0  0  0  0  0  0  0
   23.3879   44.2792   70.1521 N   0  0  0  0  0  0  0  0  0  0  0  0
   24.1924   44.6851   66.3621 H   0  0  0  0  0  0  0  0  0  0  0  0
   27.1028   43.3248   67.9797 H   0  0  0  0  0  0  0  0  0  0  0  0
   24.7333   40.8232   69.0774 H   0  0  0  0  0  0  0  0  0  0  0  0
   22.4116   44.2573   70.4465 H   0  0  0  0  0  0  0  0  0  0  0  0
   24.0703   42.7231   71.8693 C   0  0  0  0  0  0  0  0  0  0  0  0
   24.1257   41.3099   72.1599 O   0  0  0  0  0  0  0  0  0  0  0  0
   23.3182   40.8812   71.8357 H   0  0  0  0  0  0  0  0  0  0  0  0
  1  2  1  0  0  0
  1  9  1  0  0  0
  2  3  1  0  0  0
  2  4  1  0  0  0
  4  5  1  0  0  0
  4  6  1  0  0  0
  6  7  1  0  0  0
  6  8  1  0  0  0
  8  9  1  0  0  0
  8 14  1  0  0  0
 14 15  1  0  0  0
  3 10  1  0  0  0
  5 11  1  0  0  0
  7 12  1  0  0  0
  9 13  1  0  0  0
 15 16  1  0  0  0
M  END
> <minimizedAffinity>
-5.76836

$$$$
