1UWF_DEG_A_1159


 20 20  0  0  0  0  0  0  0  0999 V2000
    6.9885   14.7358   34.5498 C   0  0  0  0  0  0  0  0  0  0  0  0
    7.3476   15.1415   33.2399 O   0  0  0  0  0  0  0  0  0  0  0  0
    7.3550   13.2014   34.7073 C   0  0  0  0  0  0  0  0  0  0  0  0
    6.6197   12.4403   33.7438 O   0  0  0  0  0  0  0  0  0  0  0  0
    8.8606   12.9957   34.4651 C   0  0  0  0  0  0  0  0  0  0  0  0
    9.2068   11.5976   34.6131 O   0  0  0  0  0  0  0  0  0  0  0  0
    9.6690   13.8329   35.5163 C   0  0  0  0  0  0  0  0  0  0  0  0
    9.2940   15.2751   35.3957 O   0  0  0  0  0  0  0  0  0  0  0  0
    7.8332   15.5704   35.6068 C   0  0  0  0  0  0  0  0  0  0  0  0
    8.2960   14.9906   33.1033 H   0  0  0  0  0  0  0  0  0  0  0  0
    6.8516   12.7391   32.8506 H   0  0  0  0  0  0  0  0  0  0  0  0
    8.9916   11.3046   35.5124 H   0  0  0  0  0  0  0  0  0  0  0  0
   11.1724   13.6927   35.3063 C   0  0  0  0  0  0  0  0  0  0  0  0
   11.5103   13.7064   33.9355 O   0  0  0  0  0  0  0  0  0  0  0  0
   11.0819   12.9591   33.4894 H   0  0  0  0  0  0  0  0  0  0  0  0
    7.4427   15.1750   36.9355 O   0  0  0  0  0  0  0  0  0  0  0  0
    7.8685   16.0430   38.0232 C   0  0  0  0  0  0  0  0  0  0  0  0
    8.7755   15.2586   38.9554 C   0  0  0  0  0  0  0  0  0  0  0  0
   10.2916   15.3637   38.8739 C   0  0  0  0  0  0  0  0  0  0  0  0
   11.0941   16.4811   38.2418 C   0  0  0  0  0  0  0  0  0  0  0  0
 19 20  1  0  0  0
 19 18  1  0  0  0
 17 18  1  0  0  0
 17 16  1  0  0  0
  1  2  1  0  0  0
  1  3  1  0  0  0
  1  9  1  0  0  0
  3  4  1  0  0  0
  3  5  1  0  0  0
  5  6  1  0  0  0
  5  7  1  0  0  0
  7  8  1  0  0  0
  7 13  1  0  0  0
  8  9  1  0  0  0
 13 14  1  0  0  0
 16  9  1  0  0  0
  2 10  1  0  0  0
  4 11  1  0  0  0
  6 12  1  0  0  0
 14 15  1  0  0  0
M  END
> <minimizedAffinity>
-7.29441

$$$$
1UWF_DEG_A_1159


 20 20  0  0  0  0  0  0  0  0999 V2000
    7.0088   14.7606   34.4891 C   0  0  0  0  0  0  0  0  0  0  0  0
    7.3775   15.1305   33.1713 O   0  0  0  0  0  0  0  0  0  0  0  0
    7.3643   13.2283   34.6875 C   0  0  0  0  0  0  0  0  0  0  0  0
    6.6291   12.4478   33.7397 O   0  0  0  0  0  0  0  0  0  0  0  0
    8.8698   13.0068   34.4589 C   0  0  0  0  0  0  0  0  0  0  0  0
    9.2059   11.6107   34.6441 O   0  0  0  0  0  0  0  0  0  0  0  0
    9.6781   13.8652   35.4928 C   0  0  0  0  0  0  0  0  0  0  0  0
    9.3133   15.3063   35.3335 O   0  0  0  0  0  0  0  0  0  0  0  0
    7.8535   15.6163   35.5292 C   0  0  0  0  0  0  0  0  0  0  0  0
    8.3256   14.9700   33.0437 H   0  0  0  0  0  0  0  0  0  0  0  0
    6.8677   12.7223   32.8404 H   0  0  0  0  0  0  0  0  0  0  0  0
    8.9841   11.3421   35.5494 H   0  0  0  0  0  0  0  0  0  0  0  0
   11.1817   13.7100   35.2946 C   0  0  0  0  0  0  0  0  0  0  0  0
   11.5248   13.6663   33.9257 O   0  0  0  0  0  0  0  0  0  0  0  0
   11.0947   12.9033   33.5088 H   0  0  0  0  0  0  0  0  0  0  0  0
    7.4533   15.2573   36.8653 O   0  0  0  0  0  0  0  0  0  0  0  0
    7.7140   16.2391   37.9074 C   0  0  0  0  0  0  0  0  0  0  0  0
    8.7459   15.6764   38.8695 C   0  0  0  0  0  0  0  0  0  0  0  0
    8.6969   14.2302   39.3408 C   0  0  0  0  0  0  0  0  0  0  0  0
    9.2808   13.6691   40.6200 C   0  0  0  0  0  0  0  0  0  0  0  0
 19 20  1  0  0  0
 19 18  1  0  0  0
 17 18  1  0  0  0
 17 16  1  0  0  0
  1  2  1  0  0  0
  1  3  1  0  0  0
  1  9  1  0  0  0
  3  4  1  0  0  0
  3  5  1  0  0  0
  5  6  1  0  0  0
  5  7  1  0  0  0
  7  8  1  0  0  0
  7 13  1  0  0  0
  8  9  1  0  0  0
 13 14  1  0  0  0
 16  9  1  0  0  0
  2 10  1  0  0  0
  4 11  1  0  0  0
  6 12  1  0  0  0
 14 15  1  0  0  0
M  END
> <minimizedAffinity>
-7.15825

$$$$
1UWF_DEG_A_1159


 20 20  0  0  0  0  0  0  0  0999 V2000
    7.0124   14.8214   34.5191 C   0  0  0  0  0  0  0  0  0  0  0  0
    7.3849   15.2196   33.2106 O   0  0  0  0  0  0  0  0  0  0  0  0
    7.3526   13.2813   34.6801 C   0  0  0  0  0  0  0  0  0  0  0  0
    6.6098   12.5314   33.7137 O   0  0  0  0  0  0  0  0  0  0  0  0
    8.8558   13.0505   34.4459 C   0  0  0  0  0  0  0  0  0  0  0  0
    9.1781   11.6470   34.5971 O   0  0  0  0  0  0  0  0  0  0  0  0
    9.6725   13.8754   35.5004 C   0  0  0  0  0  0  0  0  0  0  0  0
    9.3221   15.3235   35.3762 O   0  0  0  0  0  0  0  0  0  0  0  0
    7.8654   15.6431   35.5795 C   0  0  0  0  0  0  0  0  0  0  0  0
    8.3314   15.0528   33.0791 H   0  0  0  0  0  0  0  0  0  0  0  0
    6.8512   12.8253   32.8213 H   0  0  0  0  0  0  0  0  0  0  0  0
    8.9535   11.3587   35.4956 H   0  0  0  0  0  0  0  0  0  0  0  0
   11.1746   13.7101   35.2982 C   0  0  0  0  0  0  0  0  0  0  0  0
   11.5131   13.6581   33.9285 O   0  0  0  0  0  0  0  0  0  0  0  0
   11.0771   12.8959   33.5164 H   0  0  0  0  0  0  0  0  0  0  0  0
    7.4615   15.2557   36.9066 O   0  0  0  0  0  0  0  0  0  0  0  0
    7.5460   16.2805   37.9365 C   0  0  0  0  0  0  0  0  0  0  0  0
    6.3950   17.2556   37.7590 C   0  0  0  0  0  0  0  0  0  0  0  0
    4.9517   16.8462   38.0151 C   0  0  0  0  0  0  0  0  0  0  0  0
    4.1130   15.8984   37.1842 C   0  0  0  0  0  0  0  0  0  0  0  0
 19 20  1  0  0  0
 19 18  1  0  0  0
 17 18  1  0  0  0
 17 16  1  0  0  0
  1  2  1  0  0  0
  1  3  1  0  0  0
  1  9  1  0  0  0
  3  4  1  0  0  0
  3  5  1  0  0  0
  5  6  1  0  0  0
  5  7  1  0  0  0
  7  8  1  0  0  0
  7 13  1  0  0  0
  8  9  1  0  0  0
 13 14  1  0  0  0
 16  9  1  0  0  0
  2 10  1  0  0  0
  4 11  1  0  0  0
  6 12  1  0  0  0
 14 15  1  0  0  0
M  END
> <minimizedAffinity>
-6.82822

$$$$
1UWF_DEG_A_1159


 20 20  0  0  0  0  0  0  0  0999 V2000
    7.9212   12.7331   36.8239 C   0  0  0  0  0  0  0  0  0  0  0  0
    6.8419   11.8237   36.6918 O   0  0  0  0  0  0  0  0  0  0  0  0
    8.7259   12.7433   35.4578 C   0  0  0  0  0  0  0  0  0  0  0  0
    9.2271   11.4285   35.1968 O   0  0  0  0  0  0  0  0  0  0  0  0
    7.7957   13.1629   34.3061 C   0  0  0  0  0  0  0  0  0  0  0  0
    8.5231   13.1815   33.0543 O   0  0  0  0  0  0  0  0  0  0  0  0
    7.2407   14.6014   34.5921 C   0  0  0  0  0  0  0  0  0  0  0  0
    6.5161   14.6023   35.8999 O   0  0  0  0  0  0  0  0  0  0  0  0
    7.3476   14.1925   37.0858 C   0  0  0  0  0  0  0  0  0  0  0  0
    6.2767   12.0979   35.9527 H   0  0  0  0  0  0  0  0  0  0  0  0
    8.4854   10.8068   35.1317 H   0  0  0  0  0  0  0  0  0  0  0  0
    9.2534   13.8171   33.1141 H   0  0  0  0  0  0  0  0  0  0  0  0
    6.2854   15.0606   33.4963 C   0  0  0  0  0  0  0  0  0  0  0  0
    6.9581   15.2690   32.2726 O   0  0  0  0  0  0  0  0  0  0  0  0
    7.6278   15.9615   32.3856 H   0  0  0  0  0  0  0  0  0  0  0  0
    8.4488   15.1064   37.2486 O   0  0  0  0  0  0  0  0  0  0  0  0
    8.8181   15.4416   38.6158 C   0  0  0  0  0  0  0  0  0  0  0  0
   10.3290   15.3668   38.7521 C   0  0  0  0  0  0  0  0  0  0  0  0
   11.1823   16.6176   38.9054 C   0  0  0  0  0  0  0  0  0  0  0  0
   12.3621   16.8067   39.8352 C   0  0  0  0  0  0  0  0  0  0  0  0
 19 20  1  0  0  0
 19 18  1  0  0  0
 17 18  1  0  0  0
 17 16  1  0  0  0
  1  2  1  0  0  0
  1  3  1  0  0  0
  1  9  1  0  0  0
  3  4  1  0  0  0
  3  5  1  0  0  0
  5  6  1  0  0  0
  5  7  1  0  0  0
  7  8  1  0  0  0
  7 13  1  0  0  0
  8  9  1  0  0  0
 13 14  1  0  0  0
 16  9  1  0  0  0
  2 10  1  0  0  0
  4 11  1  0  0  0
  6 12  1  0  0  0
 14 15  1  0  0  0
M  END
> <minimizedAffinity>
-5.92348

$$$$
1UWF_DEG_A_1159


 20 20  0  0  0  0  0  0  0  0999 V2000
    7.9606   12.8783   36.8425 C   0  0  0  0  0  0  0  0  0  0  0  0
    6.8562   11.9932   36.7635 O   0  0  0  0  0  0  0  0  0  0  0  0
    8.7291   12.8309   35.4566 C   0  0  0  0  0  0  0  0  0  0  0  0
    9.1908   11.4972   35.2196 O   0  0  0  0  0  0  0  0  0  0  0  0
    7.7796   13.2423   34.3177 C   0  0  0  0  0  0  0  0  0  0  0  0
    8.4741   13.2084   33.0477 O   0  0  0  0  0  0  0  0  0  0  0  0
    7.2678   14.7017   34.5776 C   0  0  0  0  0  0  0  0  0  0  0  0
    6.5781   14.7565   35.9030 O   0  0  0  0  0  0  0  0  0  0  0  0
    7.4301   14.3583   37.0782 C   0  0  0  0  0  0  0  0  0  0  0  0
    6.2787   12.2614   36.0317 H   0  0  0  0  0  0  0  0  0  0  0  0
    8.4326   10.8929   35.1909 H   0  0  0  0  0  0  0  0  0  0  0  0
    9.2211   13.8267   33.0711 H   0  0  0  0  0  0  0  0  0  0  0  0
    6.2956   15.1548   33.4942 C   0  0  0  0  0  0  0  0  0  0  0  0
    6.9355   15.2875   32.2427 O   0  0  0  0  0  0  0  0  0  0  0  0
    7.6348   15.9567   32.3064 H   0  0  0  0  0  0  0  0  0  0  0  0
    8.5573   15.2481   37.1873 O   0  0  0  0  0  0  0  0  0  0  0  0
    8.8544   15.7601   38.5167 C   0  0  0  0  0  0  0  0  0  0  0  0
    9.7444   14.7656   39.2419 C   0  0  0  0  0  0  0  0  0  0  0  0
    9.2703   14.0228   40.4828 C   0  0  0  0  0  0  0  0  0  0  0  0
    7.8726   14.0214   41.0646 C   0  0  0  0  0  0  0  0  0  0  0  0
 19 20  1  0  0  0
 19 18  1  0  0  0
 17 18  1  0  0  0
 17 16  1  0  0  0
  1  2  1  0  0  0
  1  3  1  0  0  0
  1  9  1  0  0  0
  3  4  1  0  0  0
  3  5  1  0  0  0
  5  6  1  0  0  0
  5  7  1  0  0  0
  7  8  1  0  0  0
  7 13  1  0  0  0
  8  9  1  0  0  0
 13 14  1  0  0  0
 16  9  1  0  0  0
  2 10  1  0  0  0
  4 11  1  0  0  0
  6 12  1  0  0  0
 14 15  1  0  0  0
M  END
> <minimizedAffinity>
-5.74196

$$$$
1UWF_DEG_A_1159


 20 20  0  0  0  0  0  0  0  0999 V2000
    7.5771   15.2456   37.7689 C   0  0  0  0  0  0  0  0  0  0  0  0
    6.3900   15.6939   37.1372 O   0  0  0  0  0  0  0  0  0  0  0  0
    7.4602   13.6786   37.9801 C   0  0  0  0  0  0  0  0  0  0  0  0
    6.3307   13.3988   38.8132 O   0  0  0  0  0  0  0  0  0  0  0  0
    7.2667   12.9808   36.6225 C   0  0  0  0  0  0  0  0  0  0  0  0
    7.1652   11.5479   36.8041 O   0  0  0  0  0  0  0  0  0  0  0  0
    8.5007   13.2901   35.7055 C   0  0  0  0  0  0  0  0  0  0  0  0
    8.6358   14.7697   35.5385 O   0  0  0  0  0  0  0  0  0  0  0  0
    8.8184   15.5384   36.8197 C   0  0  0  0  0  0  0  0  0  0  0  0
    6.2797   15.2322   36.2913 H   0  0  0  0  0  0  0  0  0  0  0  0
    5.5246   13.7296   38.3868 H   0  0  0  0  0  0  0  0  0  0  0  0
    7.9792   11.2154   37.2136 H   0  0  0  0  0  0  0  0  0  0  0  0
    8.3511   12.6482   34.3308 C   0  0  0  0  0  0  0  0  0  0  0  0
    7.0068   12.3166   34.0544 O   0  0  0  0  0  0  0  0  0  0  0  0
    6.6898   11.6774   34.7116 H   0  0  0  0  0  0  0  0  0  0  0  0
   10.0242   15.1079   37.4793 O   0  0  0  0  0  0  0  0  0  0  0  0
   10.8080   16.1413   38.1393 C   0  0  0  0  0  0  0  0  0  0  0  0
   10.8358   15.8627   39.6322 C   0  0  0  0  0  0  0  0  0  0  0  0
   11.8262   16.5544   40.5578 C   0  0  0  0  0  0  0  0  0  0  0  0
   13.2555   16.9383   40.2386 C   0  0  0  0  0  0  0  0  0  0  0  0
 19 20  1  0  0  0
 19 18  1  0  0  0
 17 18  1  0  0  0
 17 16  1  0  0  0
  1  2  1  0  0  0
  1  3  1  0  0  0
  1  9  1  0  0  0
  3  4  1  0  0  0
  3  5  1  0  0  0
  5  6  1  0  0  0
  5  7  1  0  0  0
  7  8  1  0  0  0
  7 13  1  0  0  0
  8  9  1  0  0  0
 13 14  1  0  0  0
 16  9  1  0  0  0
  2 10  1  0  0  0
  4 11  1  0  0  0
  6 12  1  0  0  0
 14 15  1  0  0  0
M  END
> <minimizedAffinity>
-5.38459

$$$$
1UWF_DEG_A_1159


 20 20  0  0  0  0  0  0  0  0999 V2000
   10.5554   14.0047   35.2318 C   0  0  0  0  0  0  0  0  0  0  0  0
   11.1994   12.7612   35.4515 O   0  0  0  0  0  0  0  0  0  0  0  0
    9.1701   13.7213   34.5147 C   0  0  0  0  0  0  0  0  0  0  0  0
    9.4122   13.0713   33.2629 O   0  0  0  0  0  0  0  0  0  0  0  0
    8.3030   12.8049   35.3956 C   0  0  0  0  0  0  0  0  0  0  0  0
    7.0323   12.5451   34.7520 O   0  0  0  0  0  0  0  0  0  0  0  0
    8.0404   13.5124   36.7704 C   0  0  0  0  0  0  0  0  0  0  0  0
    9.3477   13.8165   37.4290 O   0  0  0  0  0  0  0  0  0  0  0  0
   10.2688   14.7008   36.6321 C   0  0  0  0  0  0  0  0  0  0  0  0
   10.6310   12.1944   35.9960 H   0  0  0  0  0  0  0  0  0  0  0  0
    9.8747   12.2329   33.4180 H   0  0  0  0  0  0  0  0  0  0  0  0
    6.5625   13.3824   34.6140 H   0  0  0  0  0  0  0  0  0  0  0  0
    7.2090   12.6364   37.7006 C   0  0  0  0  0  0  0  0  0  0  0  0
    7.0035   11.3491   37.1582 O   0  0  0  0  0  0  0  0  0  0  0  0
    6.5216   11.4247   36.3198 H   0  0  0  0  0  0  0  0  0  0  0  0
    9.6415   15.9765   36.4013 O   0  0  0  0  0  0  0  0  0  0  0  0
    9.7875   16.9720   37.4528 C   0  0  0  0  0  0  0  0  0  0  0  0
    8.4158   17.5173   37.8109 C   0  0  0  0  0  0  0  0  0  0  0  0
    7.2960   16.6102   38.3004 C   0  0  0  0  0  0  0  0  0  0  0  0
    5.8908   16.5174   37.7447 C   0  0  0  0  0  0  0  0  0  0  0  0
 19 20  1  0  0  0
 19 18  1  0  0  0
 17 18  1  0  0  0
 17 16  1  0  0  0
  1  2  1  0  0  0
  1  3  1  0  0  0
  1  9  1  0  0  0
  3  4  1  0  0  0
  3  5  1  0  0  0
  5  6  1  0  0  0
  5  7  1  0  0  0
  7  8  1  0  0  0
  7 13  1  0  0  0
  8  9  1  0  0  0
 13 14  1  0  0  0
 16  9  1  0  0  0
  2 10  1  0  0  0
  4 11  1  0  0  0
  6 12  1  0  0  0
 14 15  1  0  0  0
M  END
> <minimizedAffinity>
-5.13711

$$$$
1UWF_DEG_A_1159


 20 20  0  0  0  0  0  0  0  0999 V2000
    7.8566   12.8043   36.9263 C   0  0  0  0  0  0  0  0  0  0  0  0
    6.7944   11.8718   36.8189 O   0  0  0  0  0  0  0  0  0  0  0  0
    8.6934   12.7536   35.5806 C   0  0  0  0  0  0  0  0  0  0  0  0
    9.2202   11.4349   35.4031 O   0  0  0  0  0  0  0  0  0  0  0  0
    7.7850   13.0953   34.3866 C   0  0  0  0  0  0  0  0  0  0  0  0
    8.5418   13.0579   33.1528 O   0  0  0  0  0  0  0  0  0  0  0  0
    7.2020   14.5381   34.5810 C   0  0  0  0  0  0  0  0  0  0  0  0
    6.4464   14.5979   35.8697 O   0  0  0  0  0  0  0  0  0  0  0  0
    7.2552   14.2663   37.0951 C   0  0  0  0  0  0  0  0  0  0  0  0
    6.2430   12.0965   36.0532 H   0  0  0  0  0  0  0  0  0  0  0  0
    8.4896   10.7987   35.3549 H   0  0  0  0  0  0  0  0  0  0  0  0
    9.2609   13.7075   33.1948 H   0  0  0  0  0  0  0  0  0  0  0  0
    6.2665   14.9219   33.4401 C   0  0  0  0  0  0  0  0  0  0  0  0
    6.9659   15.5308   32.3755 O   0  0  0  0  0  0  0  0  0  0  0  0
    7.3911   16.3436   32.6909 H   0  0  0  0  0  0  0  0  0  0  0  0
    8.3386   15.2052   37.2334 O   0  0  0  0  0  0  0  0  0  0  0  0
    7.9692   16.5945   37.4600 C   0  0  0  0  0  0  0  0  0  0  0  0
    7.1783   16.6909   38.7531 C   0  0  0  0  0  0  0  0  0  0  0  0
    5.7731   17.2743   38.7910 C   0  0  0  0  0  0  0  0  0  0  0  0
    4.6461   16.9980   37.8186 C   0  0  0  0  0  0  0  0  0  0  0  0
 19 20  1  0  0  0
 19 18  1  0  0  0
 17 18  1  0  0  0
 17 16  1  0  0  0
  1  2  1  0  0  0
  1  3  1  0  0  0
  1  9  1  0  0  0
  3  4  1  0  0  0
  3  5  1  0  0  0
  5  6  1  0  0  0
  5  7  1  0  0  0
  7  8  1  0  0  0
  7 13  1  0  0  0
  8  9  1  0  0  0
 13 14  1  0  0  0
 16  9  1  0  0  0
  2 10  1  0  0  0
  4 11  1  0  0  0
  6 12  1  0  0  0
 14 15  1  0  0  0
M  END
> <minimizedAffinity>
-5.13610

$$$$
1UWF_DEG_A_1159


 20 20  0  0  0  0  0  0  0  0999 V2000
    7.1260   14.0550   37.4846 C   0  0  0  0  0  0  0  0  0  0  0  0
    5.7415   13.7601   37.5592 O   0  0  0  0  0  0  0  0  0  0  0  0
    7.8119   12.9648   36.5601 C   0  0  0  0  0  0  0  0  0  0  0  0
    7.6211   11.6697   37.1383 O   0  0  0  0  0  0  0  0  0  0  0  0
    7.1721   12.9881   35.1609 C   0  0  0  0  0  0  0  0  0  0  0  0
    7.7964   11.9998   34.3065 O   0  0  0  0  0  0  0  0  0  0  0  0
    7.3751   14.4081   34.5269 C   0  0  0  0  0  0  0  0  0  0  0  0
    6.7636   15.4410   35.4183 O   0  0  0  0  0  0  0  0  0  0  0  0
    7.3220   15.4837   36.8154 C   0  0  0  0  0  0  0  0  0  0  0  0
    5.3611   13.7659   36.6669 H   0  0  0  0  0  0  0  0  0  0  0  0
    6.6717   11.4839   37.2092 H   0  0  0  0  0  0  0  0  0  0  0  0
    8.7423   12.1971   34.2214 H   0  0  0  0  0  0  0  0  0  0  0  0
    6.7331   14.5017   33.1473 C   0  0  0  0  0  0  0  0  0  0  0  0
    6.9265   15.7748   32.5682 O   0  0  0  0  0  0  0  0  0  0  0  0
    6.5147   16.4509   33.1287 H   0  0  0  0  0  0  0  0  0  0  0  0
    8.7285   15.7904   36.7695 O   0  0  0  0  0  0  0  0  0  0  0  0
    9.5614   15.1743   37.7915 C   0  0  0  0  0  0  0  0  0  0  0  0
   10.8446   14.6763   37.1493 C   0  0  0  0  0  0  0  0  0  0  0  0
   10.9217   14.3449   35.6659 C   0  0  0  0  0  0  0  0  0  0  0  0
   11.0685   12.9713   35.0463 C   0  0  0  0  0  0  0  0  0  0  0  0
 19 20  1  0  0  0
 19 18  1  0  0  0
 17 18  1  0  0  0
 17 16  1  0  0  0
  1  2  1  0  0  0
  1  3  1  0  0  0
  1  9  1  0  0  0
  3  4  1  0  0  0
  3  5  1  0  0  0
  5  6  1  0  0  0
  5  7  1  0  0  0
  7  8  1  0  0  0
  7 13  1  0  0  0
  8  9  1  0  0  0
 13 14  1  0  0  0
 16  9  1  0  0  0
  2 10  1  0  0  0
  4 11  1  0  0  0
  6 12  1  0  0  0
 14 15  1  0  0  0
M  END
> <minimizedAffinity>
-5.05996

$$$$
1UWF_DEG_A_1159


 20 20  0  0  0  0  0  0  0  0999 V2000
    7.9188   15.5404   37.4120 C   0  0  0  0  0  0  0  0  0  0  0  0
    7.2585   16.2452   36.3744 O   0  0  0  0  0  0  0  0  0  0  0  0
    7.4620   14.0237   37.3444 C   0  0  0  0  0  0  0  0  0  0  0  0
    6.0451   13.9500   37.5318 O   0  0  0  0  0  0  0  0  0  0  0  0
    7.8172   13.4312   35.9695 C   0  0  0  0  0  0  0  0  0  0  0  0
    7.4095   12.0436   35.9000 O   0  0  0  0  0  0  0  0  0  0  0  0
    9.3690   13.5156   35.7592 C   0  0  0  0  0  0  0  0  0  0  0  0
    9.8065   14.9414   35.8629 O   0  0  0  0  0  0  0  0  0  0  0  0
    9.4893   15.6083   37.1744 C   0  0  0  0  0  0  0  0  0  0  0  0
    7.4843   15.8476   35.5189 H   0  0  0  0  0  0  0  0  0  0  0  0
    5.5999   14.4542   36.8329 H   0  0  0  0  0  0  0  0  0  0  0  0
    7.8693   11.5367   36.5874 H   0  0  0  0  0  0  0  0  0  0  0  0
    9.7793   12.9694   34.3963 C   0  0  0  0  0  0  0  0  0  0  0  0
    8.6635   12.7879   33.5505 O   0  0  0  0  0  0  0  0  0  0  0  0
    8.0550   12.1474   33.9509 H   0  0  0  0  0  0  0  0  0  0  0  0
   10.1556   14.9162   38.2474 O   0  0  0  0  0  0  0  0  0  0  0  0
    9.9948   15.4766   39.5808 C   0  0  0  0  0  0  0  0  0  0  0  0
    9.6545   14.3572   40.5495 C   0  0  0  0  0  0  0  0  0  0  0  0
    8.2172   14.0468   40.9419 C   0  0  0  0  0  0  0  0  0  0  0  0
    7.6616   13.9292   42.3453 C   0  0  0  0  0  0  0  0  0  0  0  0
 19 20  1  0  0  0
 19 18  1  0  0  0
 17 18  1  0  0  0
 17 16  1  0  0  0
  1  2  1  0  0  0
  1  3  1  0  0  0
  1  9  1  0  0  0
  3  4  1  0  0  0
  3  5  1  0  0  0
  5  6  1  0  0  0
  5  7  1  0  0  0
  7  8  1  0  0  0
  7 13  1  0  0  0
  8  9  1  0  0  0
 13 14  1  0  0  0
 16  9  1  0  0  0
  2 10  1  0  0  0
  4 11  1  0  0  0
  6 12  1  0  0  0
 14 15  1  0  0  0
M  END
> <minimizedAffinity>
-4.94952

$$$$
