3RZ5_RZ5_A_262


 21 21  0  0  0  0  0  0  0  0999 V2000
   16.6244    2.7678   13.6363 C   0  0  0  0  0  0  0  0  0  0  0  0
   16.2214    0.9636   15.2262 C   0  0  0  0  0  0  0  0  0  0  0  0
   16.8005    1.4374   14.0279 C   0  0  0  0  0  0  0  0  0  0  0  0
   15.4166    1.7852   16.0576 C   0  0  0  0  0  0  0  0  0  0  0  0
   15.8048    3.5847   14.4249 C   0  0  0  0  0  0  0  0  0  0  0  0
   15.2408    3.1438   15.6260 C   0  0  0  0  0  0  0  0  0  0  0  0
   14.7185    1.1950   17.4447 S   0  0  0  0  0  0  0  0  0  0  0  0
   15.4650    0.0009   17.8220 O   0  0  0  0  0  0  0  0  0  0  0  0
   13.3192    1.0216   17.1617 O   0  0  0  0  0  0  0  0  0  0  0  0
   14.8030    2.3046   18.5817 N   0  0  0  0  0  0  0  0  0  0  0  0
   15.7801    2.4695   18.8239 H   0  0  0  0  0  0  0  0  0  0  0  0
   14.2974    1.9844   19.4076 H   0  0  0  0  0  0  0  0  0  0  0  0
   18.5299    2.9114   12.0994 N   0  0  0  0  0  0  0  0  0  0  0  0
   16.5683    3.9822   11.5984 O   0  0  0  0  0  0  0  0  0  0  0  0
   17.2483    3.2553   12.3640 C   0  0  0  0  0  0  0  0  0  0  0  0
   19.0011    2.3450   12.7524 H   0  0  0  0  0  0  0  0  0  0  0  0
   19.2720    3.3387   10.8774 C   0  0  0  0  0  0  0  0  0  0  0  0
   19.5740    2.0282   10.1261 C   0  0  0  0  0  0  0  0  0  0  0  0
   19.3099    0.8248   10.9837 C   0  0  0  0  0  0  0  0  0  0  0  0
   18.1822    0.0150   10.3635 C   0  0  0  0  0  0  0  0  0  0  0  0
   17.7491   -0.9960   11.4061 C   0  0  0  0  0  0  0  0  0  0  0  0
  4  7  1  0  0  0
 10  7  1  0  0  0
  8  7  2  0  0  0
  7  9  2  0  0  0
 17 13  1  0  0  0
 13 15  1  0  0  0
 14 15  2  0  0  0
 15  1  1  0  0  0
  1  5  2  0  0  0
  1  3  1  0  0  0
  3  2  2  0  0  0
  2  4  1  0  0  0
  6  4  2  0  0  0
  5  6  1  0  0  0
 17 18  1  0  0  0
 19 18  1  0  0  0
 19 20  1  0  0  0
 21 20  1  0  0  0
 13 16  1  0  0  0
 10 11  1  0  0  0
 10 12  1  0  0  0
M  END
> <minimizedAffinity>
-6.63805

$$$$
3RZ5_RZ5_A_262


 21 21  0  0  0  0  0  0  0  0999 V2000
   15.9460    4.7549   14.4182 C   0  0  0  0  0  0  0  0  0  0  0  0
   16.5019    2.5760   15.3609 C   0  0  0  0  0  0  0  0  0  0  0  0
   16.7974    3.6485   14.4902 C   0  0  0  0  0  0  0  0  0  0  0  0
   15.3311    2.5491   16.1626 C   0  0  0  0  0  0  0  0  0  0  0  0
   14.7681    4.7313   15.1750 C   0  0  0  0  0  0  0  0  0  0  0  0
   14.4670    3.6917   16.0602 C   0  0  0  0  0  0  0  0  0  0  0  0
   14.9886    1.2605   17.1535 S   0  0  0  0  0  0  0  0  0  0  0  0
   13.5568    1.0086   17.0444 O   0  0  0  0  0  0  0  0  0  0  0  0
   15.4893    1.5983   18.4588 O   0  0  0  0  0  0  0  0  0  0  0  0
   15.8292   -0.0020   16.6733 N   0  0  0  0  0  0  0  0  0  0  0  0
   15.5143   -0.2874   15.7460 H   0  0  0  0  0  0  0  0  0  0  0  0
   15.6933   -0.7707   17.3299 H   0  0  0  0  0  0  0  0  0  0  0  0
   17.5173    6.4216   13.5425 N   0  0  0  0  0  0  0  0  0  0  0  0
   15.3842    6.3100   12.7161 O   0  0  0  0  0  0  0  0  0  0  0  0
   16.2760    5.8857   13.4918 C   0  0  0  0  0  0  0  0  0  0  0  0
   18.1600    6.0402   14.1833 H   0  0  0  0  0  0  0  0  0  0  0  0
   17.9709    7.5559   12.6856 C   0  0  0  0  0  0  0  0  0  0  0  0
   19.1364    8.1927   13.4661 C   0  0  0  0  0  0  0  0  0  0  0  0
   18.8876    8.1734   14.9463 C   0  0  0  0  0  0  0  0  0  0  0  0
   19.8471    9.1414   15.6204 C   0  0  0  0  0  0  0  0  0  0  0  0
   20.0873   10.2699   14.6378 C   0  0  0  0  0  0  0  0  0  0  0  0
  4  7  1  0  0  0
 10  7  1  0  0  0
  8  7  2  0  0  0
  7  9  2  0  0  0
 17 13  1  0  0  0
 13 15  1  0  0  0
 14 15  2  0  0  0
 15  1  1  0  0  0
  1  5  2  0  0  0
  1  3  1  0  0  0
  3  2  2  0  0  0
  2  4  1  0  0  0
  6  4  2  0  0  0
  5  6  1  0  0  0
 17 18  1  0  0  0
 19 18  1  0  0  0
 19 20  1  0  0  0
 21 20  1  0  0  0
 13 16  1  0  0  0
 10 11  1  0  0  0
 10 12  1  0  0  0
M  END
> <minimizedAffinity>
-6.53801

$$$$
3RZ5_RZ5_A_262


 21 21  0  0  0  0  0  0  0  0999 V2000
   16.7369    4.7960   14.7005 C   0  0  0  0  0  0  0  0  0  0  0  0
   14.8165    3.7001   15.7282 C   0  0  0  0  0  0  0  0  0  0  0  0
   15.3771    4.7894   15.0247 C   0  0  0  0  0  0  0  0  0  0  0  0
   15.5950    2.5973   16.1662 C   0  0  0  0  0  0  0  0  0  0  0  0
   17.5286    3.7338   15.1543 C   0  0  0  0  0  0  0  0  0  0  0  0
   16.9912    2.6349   15.8316 C   0  0  0  0  0  0  0  0  0  0  0  0
   14.9186    1.3442   17.0217 S   0  0  0  0  0  0  0  0  0  0  0  0
   13.4849    1.3741   16.7584 O   0  0  0  0  0  0  0  0  0  0  0  0
   15.3293    1.5087   18.3901 O   0  0  0  0  0  0  0  0  0  0  0  0
   15.5611   -0.0262   16.5314 N   0  0  0  0  0  0  0  0  0  0  0  0
   15.3009   -0.1952   15.5598 H   0  0  0  0  0  0  0  0  0  0  0  0
   15.2175   -0.7902   17.1133 H   0  0  0  0  0  0  0  0  0  0  0  0
   17.1188    6.0265   12.6140 N   0  0  0  0  0  0  0  0  0  0  0  0
   17.9783    6.8151   14.5850 O   0  0  0  0  0  0  0  0  0  0  0  0
   17.3150    5.9577   13.9509 C   0  0  0  0  0  0  0  0  0  0  0  0
   16.5946    5.3115   12.1860 H   0  0  0  0  0  0  0  0  0  0  0  0
   17.6491    7.1208   11.7491 C   0  0  0  0  0  0  0  0  0  0  0  0
   16.4028    7.9193   11.3222 C   0  0  0  0  0  0  0  0  0  0  0  0
   15.1726    7.0592   11.3065 C   0  0  0  0  0  0  0  0  0  0  0  0
   13.9638    7.9328   11.0102 C   0  0  0  0  0  0  0  0  0  0  0  0
   13.6939    7.8111    9.5239 C   0  0  0  0  0  0  0  0  0  0  0  0
  4  7  1  0  0  0
 10  7  1  0  0  0
  8  7  2  0  0  0
  7  9  2  0  0  0
 17 13  1  0  0  0
 13 15  1  0  0  0
 14 15  2  0  0  0
 15  1  1  0  0  0
  1  5  2  0  0  0
  1  3  1  0  0  0
  3  2  2  0  0  0
  2  4  1  0  0  0
  6  4  2  0  0  0
  5  6  1  0  0  0
 17 18  1  0  0  0
 19 18  1  0  0  0
 19 20  1  0  0  0
 21 20  1  0  0  0
 13 16  1  0  0  0
 10 11  1  0  0  0
 10 12  1  0  0  0
M  END
> <minimizedAffinity>
-6.29530

$$$$
3RZ5_RZ5_A_262


 21 21  0  0  0  0  0  0  0  0999 V2000
   16.6482    4.4980   14.6591 C   0  0  0  0  0  0  0  0  0  0  0  0
   14.7027    3.6377   15.8509 C   0  0  0  0  0  0  0  0  0  0  0  0
   15.3062    4.6179   15.0320 C   0  0  0  0  0  0  0  0  0  0  0  0
   15.4216    2.5242   16.3580 C   0  0  0  0  0  0  0  0  0  0  0  0
   17.3836    3.4251   15.1778 C   0  0  0  0  0  0  0  0  0  0  0  0
   16.8015    2.4314   15.9707 C   0  0  0  0  0  0  0  0  0  0  0  0
   14.6979    1.4029   17.3473 S   0  0  0  0  0  0  0  0  0  0  0  0
   13.3379    1.2168   16.8562 O   0  0  0  0  0  0  0  0  0  0  0  0
   14.8396    1.8872   18.6940 O   0  0  0  0  0  0  0  0  0  0  0  0
   15.5207    0.0429   17.2802 N   0  0  0  0  0  0  0  0  0  0  0  0
   15.4549   -0.3483   16.3405 H   0  0  0  0  0  0  0  0  0  0  0  0
   15.1360   -0.6208   17.9525 H   0  0  0  0  0  0  0  0  0  0  0  0
   17.8753    5.1554   12.6403 N   0  0  0  0  0  0  0  0  0  0  0  0
   17.2320    6.7432   14.1602 O   0  0  0  0  0  0  0  0  0  0  0  0
   17.2721    5.5448   13.7871 C   0  0  0  0  0  0  0  0  0  0  0  0
   17.8731    4.1960   12.4192 H   0  0  0  0  0  0  0  0  0  0  0  0
   18.5436    6.0922   11.6904 C   0  0  0  0  0  0  0  0  0  0  0  0
   20.0267    5.6766   11.7109 C   0  0  0  0  0  0  0  0  0  0  0  0
   20.3259    4.6403   10.6670 C   0  0  0  0  0  0  0  0  0  0  0  0
   20.8053    3.3715   11.3545 C   0  0  0  0  0  0  0  0  0  0  0  0
   19.6899    2.3548   11.2165 C   0  0  0  0  0  0  0  0  0  0  0  0
  4  7  1  0  0  0
 10  7  1  0  0  0
  8  7  2  0  0  0
  7  9  2  0  0  0
 17 13  1  0  0  0
 13 15  1  0  0  0
 14 15  2  0  0  0
 15  1  1  0  0  0
  1  5  2  0  0  0
  1  3  1  0  0  0
  3  2  2  0  0  0
  2  4  1  0  0  0
  6  4  2  0  0  0
  5  6  1  0  0  0
 17 18  1  0  0  0
 19 18  1  0  0  0
 19 20  1  0  0  0
 21 20  1  0  0  0
 13 16  1  0  0  0
 10 11  1  0  0  0
 10 12  1  0  0  0
M  END
> <minimizedAffinity>
-5.98973

$$$$
3RZ5_RZ5_A_262


 21 21  0  0  0  0  0  0  0  0999 V2000
   16.4158    4.4886   14.4486 C   0  0  0  0  0  0  0  0  0  0  0  0
   16.7772    2.5538   15.8878 C   0  0  0  0  0  0  0  0  0  0  0  0
   17.2495    3.4720   14.9237 C   0  0  0  0  0  0  0  0  0  0  0  0
   15.4487    2.5913   16.3855 C   0  0  0  0  0  0  0  0  0  0  0  0
   15.0910    4.5209   14.9013 C   0  0  0  0  0  0  0  0  0  0  0  0
   14.6091    3.6372   15.8717 C   0  0  0  0  0  0  0  0  0  0  0  0
   14.9067    1.4791   17.4941 S   0  0  0  0  0  0  0  0  0  0  0  0
   15.8639    0.3794   17.4965 O   0  0  0  0  0  0  0  0  0  0  0  0
   13.5528    1.1586   17.1301 O   0  0  0  0  0  0  0  0  0  0  0  0
   14.8257    2.1691   18.9254 N   0  0  0  0  0  0  0  0  0  0  0  0
   15.7645    2.4196   19.2357 H   0  0  0  0  0  0  0  0  0  0  0  0
   14.4089    1.5200   19.5927 H   0  0  0  0  0  0  0  0  0  0  0  0
   18.2145    5.3319   13.0109 N   0  0  0  0  0  0  0  0  0  0  0  0
   16.1686    6.3612   13.0122 O   0  0  0  0  0  0  0  0  0  0  0  0
   16.9336    5.4565   13.4284 C   0  0  0  0  0  0  0  0  0  0  0  0
   18.7556    4.6018   13.3896 H   0  0  0  0  0  0  0  0  0  0  0  0
   18.8566    6.2343   12.0109 C   0  0  0  0  0  0  0  0  0  0  0  0
   19.7119    5.2999   11.1345 C   0  0  0  0  0  0  0  0  0  0  0  0
   18.8610    4.4563   10.2302 C   0  0  0  0  0  0  0  0  0  0  0  0
   19.5267    3.1012   10.0490 C   0  0  0  0  0  0  0  0  0  0  0  0
   20.1519    2.7427   11.3822 C   0  0  0  0  0  0  0  0  0  0  0  0
  4  7  1  0  0  0
 10  7  1  0  0  0
  8  7  2  0  0  0
  7  9  2  0  0  0
 17 13  1  0  0  0
 13 15  1  0  0  0
 14 15  2  0  0  0
 15  1  1  0  0  0
  1  5  2  0  0  0
  1  3  1  0  0  0
  3  2  2  0  0  0
  2  4  1  0  0  0
  6  4  2  0  0  0
  5  6  1  0  0  0
 17 18  1  0  0  0
 19 18  1  0  0  0
 19 20  1  0  0  0
 21 20  1  0  0  0
 13 16  1  0  0  0
 10 11  1  0  0  0
 10 12  1  0  0  0
M  END
> <minimizedAffinity>
-5.78330

$$$$
3RZ5_RZ5_A_262


 21 21  0  0  0  0  0  0  0  0999 V2000
   16.1968    4.7017   14.5597 C   0  0  0  0  0  0  0  0  0  0  0  0
   14.5748    3.4919   15.9203 C   0  0  0  0  0  0  0  0  0  0  0  0
   14.9067    4.5816   15.0847 C   0  0  0  0  0  0  0  0  0  0  0  0
   15.5232    2.5042   16.2930 C   0  0  0  0  0  0  0  0  0  0  0  0
   17.1560    3.7565   14.9439 C   0  0  0  0  0  0  0  0  0  0  0  0
   16.8442    2.6579   15.7507 C   0  0  0  0  0  0  0  0  0  0  0  0
   15.1171    1.2507   17.3047 S   0  0  0  0  0  0  0  0  0  0  0  0
   15.3789    1.7009   18.6664 O   0  0  0  0  0  0  0  0  0  0  0  0
   15.8498    0.0993   16.8510 O   0  0  0  0  0  0  0  0  0  0  0  0
   13.5783    0.8994   17.1049 N   0  0  0  0  0  0  0  0  0  0  0  0
   13.0072    1.6865   17.4127 H   0  0  0  0  0  0  0  0  0  0  0  0
   13.3439    0.0734   17.6555 H   0  0  0  0  0  0  0  0  0  0  0  0
   17.7270    6.4745   13.8324 N   0  0  0  0  0  0  0  0  0  0  0  0
   15.6835    6.2380   12.8256 O   0  0  0  0  0  0  0  0  0  0  0  0
   16.5313    5.8618   13.6722 C   0  0  0  0  0  0  0  0  0  0  0  0
   18.3359    6.1270   14.5235 H   0  0  0  0  0  0  0  0  0  0  0  0
   18.1783    7.6453   13.0247 C   0  0  0  0  0  0  0  0  0  0  0  0
   19.0852    7.0416   11.9357 C   0  0  0  0  0  0  0  0  0  0  0  0
   20.5210    7.4338   12.1307 C   0  0  0  0  0  0  0  0  0  0  0  0
   21.3864    6.1851   12.0676 C   0  0  0  0  0  0  0  0  0  0  0  0
   21.6804    5.9340   10.6022 C   0  0  0  0  0  0  0  0  0  0  0  0
  4  7  1  0  0  0
 10  7  1  0  0  0
  8  7  2  0  0  0
  7  9  2  0  0  0
 17 13  1  0  0  0
 13 15  1  0  0  0
 14 15  2  0  0  0
 15  1  1  0  0  0
  1  5  2  0  0  0
  1  3  1  0  0  0
  3  2  2  0  0  0
  2  4  1  0  0  0
  6  4  2  0  0  0
  5  6  1  0  0  0
 17 18  1  0  0  0
 19 18  1  0  0  0
 19 20  1  0  0  0
 21 20  1  0  0  0
 13 16  1  0  0  0
 10 11  1  0  0  0
 10 12  1  0  0  0
M  END
> <minimizedAffinity>
-5.63366

$$$$
3RZ5_RZ5_A_262


 21 21  0  0  0  0  0  0  0  0999 V2000
   18.5179    3.4444   12.1443 C   0  0  0  0  0  0  0  0  0  0  0  0
   20.4545    2.9771   10.7384 C   0  0  0  0  0  0  0  0  0  0  0  0
   19.1982    2.5995   11.2624 C   0  0  0  0  0  0  0  0  0  0  0  0
   21.0952    4.1903   11.1012 C   0  0  0  0  0  0  0  0  0  0  0  0
   19.1493    4.6295   12.5416 C   0  0  0  0  0  0  0  0  0  0  0  0
   20.3812    5.0340   12.0184 C   0  0  0  0  0  0  0  0  0  0  0  0
   22.5886    4.5962   10.4973 S   0  0  0  0  0  0  0  0  0  0  0  0
   22.5206    5.9974   10.1002 O   0  0  0  0  0  0  0  0  0  0  0  0
   22.8889    3.6436    9.4626 O   0  0  0  0  0  0  0  0  0  0  0  0
   23.6843    4.3758   11.6295 N   0  0  0  0  0  0  0  0  0  0  0  0
   23.5191    5.0298   12.3946 H   0  0  0  0  0  0  0  0  0  0  0  0
   24.6131    4.5363   11.2397 H   0  0  0  0  0  0  0  0  0  0  0  0
   17.0367    2.9287   14.0294 N   0  0  0  0  0  0  0  0  0  0  0  0
   16.2575    2.7718   11.8814 O   0  0  0  0  0  0  0  0  0  0  0  0
   17.1845    3.0302   12.6883 C   0  0  0  0  0  0  0  0  0  0  0  0
   17.8125    3.1400   14.5975 H   0  0  0  0  0  0  0  0  0  0  0  0
   15.7688    2.5159   14.6992 C   0  0  0  0  0  0  0  0  0  0  0  0
   15.3274    3.7570   15.4978 C   0  0  0  0  0  0  0  0  0  0  0  0
   14.2450    3.4252   16.4835 C   0  0  0  0  0  0  0  0  0  0  0  0
   14.3435    1.9519   16.8469 C   0  0  0  0  0  0  0  0  0  0  0  0
   14.9087    1.8879   18.2516 C   0  0  0  0  0  0  0  0  0  0  0  0
  4  7  1  0  0  0
 10  7  1  0  0  0
  8  7  2  0  0  0
  7  9  2  0  0  0
 17 13  1  0  0  0
 13 15  1  0  0  0
 14 15  2  0  0  0
 15  1  1  0  0  0
  1  5  2  0  0  0
  1  3  1  0  0  0
  3  2  2  0  0  0
  2  4  1  0  0  0
  6  4  2  0  0  0
  5  6  1  0  0  0
 17 18  1  0  0  0
 19 18  1  0  0  0
 19 20  1  0  0  0
 21 20  1  0  0  0
 13 16  1  0  0  0
 10 11  1  0  0  0
 10 12  1  0  0  0
M  END
> <minimizedAffinity>
-5.58515

$$$$
3RZ5_RZ5_A_262


 21 21  0  0  0  0  0  0  0  0999 V2000
   17.3534    4.4705   14.0646 C   0  0  0  0  0  0  0  0  0  0  0  0
   19.2916    5.8015   13.4186 C   0  0  0  0  0  0  0  0  0  0  0  0
   18.6052    4.5671   13.4499 C   0  0  0  0  0  0  0  0  0  0  0  0
   18.7748    6.9735   14.0295 C   0  0  0  0  0  0  0  0  0  0  0  0
   16.8427    5.6072   14.7034 C   0  0  0  0  0  0  0  0  0  0  0  0
   17.4935    6.8441   14.6653 C   0  0  0  0  0  0  0  0  0  0  0  0
   19.6170    8.4053   14.0086 S   0  0  0  0  0  0  0  0  0  0  0  0
   20.9633    8.1003   13.5394 O   0  0  0  0  0  0  0  0  0  0  0  0
   19.5028    8.9713   15.3258 O   0  0  0  0  0  0  0  0  0  0  0  0
   18.8870    9.4232   13.0277 N   0  0  0  0  0  0  0  0  0  0  0  0
   18.9374    9.0700   12.0722 H   0  0  0  0  0  0  0  0  0  0  0  0
   19.3459   10.3327   13.0786 H   0  0  0  0  0  0  0  0  0  0  0  0
   17.0197    2.2248   14.9915 N   0  0  0  0  0  0  0  0  0  0  0  0
   15.7220    2.9520   13.2501 O   0  0  0  0  0  0  0  0  0  0  0  0
   16.6372    3.1544   14.0859 C   0  0  0  0  0  0  0  0  0  0  0  0
   17.7515    2.4541   15.6089 H   0  0  0  0  0  0  0  0  0  0  0  0
   16.3994    0.8729   15.1110 C   0  0  0  0  0  0  0  0  0  0  0  0
   16.0177    0.7489   16.5982 C   0  0  0  0  0  0  0  0  0  0  0  0
   14.5859    1.1320   16.8363 C   0  0  0  0  0  0  0  0  0  0  0  0
   14.5472    2.3851   17.6969 C   0  0  0  0  0  0  0  0  0  0  0  0
   14.1773    3.5319   16.7778 C   0  0  0  0  0  0  0  0  0  0  0  0
  4  7  1  0  0  0
 10  7  1  0  0  0
  8  7  2  0  0  0
  7  9  2  0  0  0
 17 13  1  0  0  0
 13 15  1  0  0  0
 14 15  2  0  0  0
 15  1  1  0  0  0
  1  5  2  0  0  0
  1  3  1  0  0  0
  3  2  2  0  0  0
  2  4  1  0  0  0
  6  4  2  0  0  0
  5  6  1  0  0  0
 17 18  1  0  0  0
 19 18  1  0  0  0
 19 20  1  0  0  0
 21 20  1  0  0  0
 13 16  1  0  0  0
 10 11  1  0  0  0
 10 12  1  0  0  0
M  END
> <minimizedAffinity>
-5.56478

$$$$
3RZ5_RZ5_A_262


 21 21  0  0  0  0  0  0  0  0999 V2000
   16.9977    3.5789   11.8294 C   0  0  0  0  0  0  0  0  0  0  0  0
   16.5304    1.4986   13.0125 C   0  0  0  0  0  0  0  0  0  0  0  0
   16.6861    2.2163   11.8057 C   0  0  0  0  0  0  0  0  0  0  0  0
   16.6423    2.1182   14.2844 C   0  0  0  0  0  0  0  0  0  0  0  0
   17.0776    4.2157   13.0740 C   0  0  0  0  0  0  0  0  0  0  0  0
   16.9501    3.5210   14.2807 C   0  0  0  0  0  0  0  0  0  0  0  0
   16.4213    1.2595   15.6892 S   0  0  0  0  0  0  0  0  0  0  0  0
   15.0927    1.5938   16.1878 O   0  0  0  0  0  0  0  0  0  0  0  0
   17.5328    1.5748   16.5457 O   0  0  0  0  0  0  0  0  0  0  0  0
   16.5379   -0.2951   15.3717 N   0  0  0  0  0  0  0  0  0  0  0  0
   15.7692   -0.5765   14.7632 H   0  0  0  0  0  0  0  0  0  0  0  0
   16.4933   -0.8243   16.2426 H   0  0  0  0  0  0  0  0  0  0  0  0
   16.5007    5.4937   10.3802 N   0  0  0  0  0  0  0  0  0  0  0  0
   17.8923    3.8294    9.6459 O   0  0  0  0  0  0  0  0  0  0  0  0
   17.1628    4.3246   10.5401 C   0  0  0  0  0  0  0  0  0  0  0  0
   15.9406    5.8135   11.1239 H   0  0  0  0  0  0  0  0  0  0  0  0
   16.5684    6.3274    9.1445 C   0  0  0  0  0  0  0  0  0  0  0  0
   16.6558    7.7775    9.6565 C   0  0  0  0  0  0  0  0  0  0  0  0
   16.0718    7.9151   11.0325 C   0  0  0  0  0  0  0  0  0  0  0  0
   14.7690    8.6938   10.9399 C   0  0  0  0  0  0  0  0  0  0  0  0
   15.1013   10.0203   10.2866 C   0  0  0  0  0  0  0  0  0  0  0  0
  4  7  1  0  0  0
 10  7  1  0  0  0
  8  7  2  0  0  0
  7  9  2  0  0  0
 17 13  1  0  0  0
 13 15  1  0  0  0
 14 15  2  0  0  0
 15  1  1  0  0  0
  1  5  2  0  0  0
  1  3  1  0  0  0
  3  2  2  0  0  0
  2  4  1  0  0  0
  6  4  2  0  0  0
  5  6  1  0  0  0
 17 18  1  0  0  0
 19 18  1  0  0  0
 19 20  1  0  0  0
 21 20  1  0  0  0
 13 16  1  0  0  0
 10 11  1  0  0  0
 10 12  1  0  0  0
M  END
> <minimizedAffinity>
-5.51241

$$$$
3RZ5_RZ5_A_262


 21 21  0  0  0  0  0  0  0  0999 V2000
   20.1497    3.8083   11.3495 C   0  0  0  0  0  0  0  0  0  0  0  0
   19.1618    1.7438   10.5082 C   0  0  0  0  0  0  0  0  0  0  0  0
   20.2404    2.6544   10.5655 C   0  0  0  0  0  0  0  0  0  0  0  0
   17.9421    1.9670   11.1985 C   0  0  0  0  0  0  0  0  0  0  0  0
   18.9417    4.0637   12.0100 C   0  0  0  0  0  0  0  0  0  0  0  0
   17.8701    3.1658   11.9861 C   0  0  0  0  0  0  0  0  0  0  0  0
   16.6755    0.8977   11.0880 S   0  0  0  0  0  0  0  0  0  0  0  0
   16.7055    0.0765   12.2922 O   0  0  0  0  0  0  0  0  0  0  0  0
   16.8219    0.2118    9.8324 O   0  0  0  0  0  0  0  0  0  0  0  0
   15.3137    1.7140   10.9869 N   0  0  0  0  0  0  0  0  0  0  0  0
   15.1575    2.2238   11.8565 H   0  0  0  0  0  0  0  0  0  0  0  0
   14.5408    1.0677   10.8283 H   0  0  0  0  0  0  0  0  0  0  0  0
   21.1000    5.9968   11.9160 N   0  0  0  0  0  0  0  0  0  0  0  0
   22.4149    4.3904   10.9485 O   0  0  0  0  0  0  0  0  0  0  0  0
   21.3043    4.7620   11.4019 C   0  0  0  0  0  0  0  0  0  0  0  0
   20.1986    6.2178   12.2443 H   0  0  0  0  0  0  0  0  0  0  0  0
   22.1586    7.0437   12.0154 C   0  0  0  0  0  0  0  0  0  0  0  0
   21.4659    8.2348   12.7042 C   0  0  0  0  0  0  0  0  0  0  0  0
   20.1780    7.8244   13.3571 C   0  0  0  0  0  0  0  0  0  0  0  0
   19.5113    9.0557   13.9500 C   0  0  0  0  0  0  0  0  0  0  0  0
   19.4011    8.8139   15.4420 C   0  0  0  0  0  0  0  0  0  0  0  0
  4  7  1  0  0  0
 10  7  1  0  0  0
  8  7  2  0  0  0
  7  9  2  0  0  0
 17 13  1  0  0  0
 13 15  1  0  0  0
 14 15  2  0  0  0
 15  1  1  0  0  0
  1  5  2  0  0  0
  1  3  1  0  0  0
  3  2  2  0  0  0
  2  4  1  0  0  0
  6  4  2  0  0  0
  5  6  1  0  0  0
 17 18  1  0  0  0
 19 18  1  0  0  0
 19 20  1  0  0  0
 21 20  1  0  0  0
 13 16  1  0  0  0
 10 11  1  0  0  0
 10 12  1  0  0  0
M  END
> <minimizedAffinity>
-5.46596

$$$$
