2D3Z_FIH_A_2001


 28 30  0  0  0  0  0  0  0  0999 V2000
    7.3066   32.1637   75.2994 C   0  0  0  0  0  0  0  0  0  0  0  0
    8.2600   32.2801   76.3017 C   0  0  0  0  0  0  0  0  0  0  0  0
    9.5771   31.9692   75.8050 C   0  0  0  0  0  0  0  0  0  0  0  0
    9.6016   31.6253   74.4536 C   0  0  0  0  0  0  0  0  0  0  0  0
    8.0095   31.6884   73.8299 S   0  0  0  0  0  0  0  0  0  0  0  0
   13.0680   31.5868   72.7482 C   0  0  0  0  0  0  0  0  0  0  0  0
   12.9255   30.4910   71.8444 C   0  0  0  0  0  0  0  0  0  0  0  0
   11.6970   29.7824   71.8168 C   0  0  0  0  0  0  0  0  0  0  0  0
   10.6291   30.1554   72.6693 C   0  0  0  0  0  0  0  0  0  0  0  0
   10.7500   31.2490   73.5770 C   0  0  0  0  0  0  0  0  0  0  0  0
   11.9906   31.9637   73.6059 C   0  0  0  0  0  0  0  0  0  0  0  0
   13.9068   30.1385   71.0499 F   0  0  0  0  0  0  0  0  0  0  0  0
    5.8517   32.4146   75.4583 C   0  0  0  0  0  0  0  0  0  0  0  0
    5.4874   33.5912   75.6646 O   0  0  0  0  0  0  0  0  0  0  0  0
    5.0664   31.4451   75.3937 O   0  0  0  0  0  0  0  0  0  0  0  0
    6.1231   34.2785   75.7027 H   0  0  0  0  0  0  0  0  0  0  0  0
    7.9713   32.6663   77.6858 N   0  0  0  0  0  0  0  0  0  0  0  0
    7.8938   31.9633   78.3706 H   0  0  0  0  0  0  0  0  0  0  0  0
    7.7656   34.2917   78.1462 S   0  0  0  0  0  0  0  0  0  0  0  0
    8.4616   34.4437   79.4184 O   0  0  0  0  0  0  0  0  0  0  0  0
    6.3253   34.4902   78.2846 O   0  0  0  0  0  0  0  0  0  0  0  0
    9.8165   35.5605   76.7051 C   0  0  0  0  0  0  0  0  0  0  0  0
    8.4123   35.4938   76.9645 C   0  0  0  0  0  0  0  0  0  0  0  0
    7.5225   36.3814   76.2887 C   0  0  0  0  0  0  0  0  0  0  0  0
    8.0322   37.3308   75.3601 C   0  0  0  0  0  0  0  0  0  0  0  0
    9.4290   37.3974   75.1018 C   0  0  0  0  0  0  0  0  0  0  0  0
   10.3194   36.5111   75.7746 C   0  0  0  0  0  0  0  0  0  0  0  0
    9.9625   38.4051   74.1197 C   0  0  0  0  0  0  0  0  0  0  0  0
  6  7  1  0  0  0
  6 11  2  0  0  0
  7  8  2  0  0  0
  7 12  1  0  0  0
  8  9  1  0  0  0
  9 10  2  0  0  0
 10 11  1  0  0  0
 10  4  1  0  0  0
  1  2  2  0  0  0
  1  5  1  0  0  0
  1 13  1  0  0  0
  2  3  1  0  0  0
  2 17  1  0  0  0
  3  4  2  0  0  0
  4  5  1  0  0  0
 13 14  1  0  0  0
 13 15  2  0  0  0
 17 19  1  0  0  0
 19 23  1  0  0  0
 19 20  2  0  0  0
 19 21  2  0  0  0
 22 23  1  0  0  0
 22 27  2  0  0  0
 23 24  2  0  0  0
 24 25  1  0  0  0
 25 26  2  0  0  0
 26 27  1  0  0  0
 26 28  1  0  0  0
 14 16  1  0  0  0
 17 18  1  0  0  0
M  END
> <minimizedAffinity>
-8.64251

$$$$
2D3Z_FIH_A_2001


 28 30  0  0  0  0  0  0  0  0999 V2000
    7.5449   30.6498   75.8410 C   0  0  0  0  0  0  0  0  0  0  0  0
    8.2288   31.7822   76.2617 C   0  0  0  0  0  0  0  0  0  0  0  0
    9.4363   31.9740   75.4979 C   0  0  0  0  0  0  0  0  0  0  0  0
    9.6471   30.9974   74.5249 C   0  0  0  0  0  0  0  0  0  0  0  0
    8.3621   29.8686   74.5755 S   0  0  0  0  0  0  0  0  0  0  0  0
   11.7362   29.8386   71.4886 C   0  0  0  0  0  0  0  0  0  0  0  0
   12.9451   30.5731   71.6812 C   0  0  0  0  0  0  0  0  0  0  0  0
   13.0486   31.4388   72.8001 C   0  0  0  0  0  0  0  0  0  0  0  0
   11.9728   31.5720   73.7119 C   0  0  0  0  0  0  0  0  0  0  0  0
   10.7581   30.8448   73.5393 C   0  0  0  0  0  0  0  0  0  0  0  0
   10.6529   29.9717   72.4091 C   0  0  0  0  0  0  0  0  0  0  0  0
   13.9474   30.4560   70.8445 F   0  0  0  0  0  0  0  0  0  0  0  0
    6.2623   30.1569   76.4038 C   0  0  0  0  0  0  0  0  0  0  0  0
    5.2569   30.8865   76.2760 O   0  0  0  0  0  0  0  0  0  0  0  0
    6.2496   29.0520   76.9869 O   0  0  0  0  0  0  0  0  0  0  0  0
    5.3270   31.7064   75.8279 H   0  0  0  0  0  0  0  0  0  0  0  0
    7.7871   32.6694   77.3414 N   0  0  0  0  0  0  0  0  0  0  0  0
    8.0113   32.4368   78.2714 H   0  0  0  0  0  0  0  0  0  0  0  0
    6.8990   34.0892   77.0382 S   0  0  0  0  0  0  0  0  0  0  0  0
    6.4283   34.5577   78.3362 O   0  0  0  0  0  0  0  0  0  0  0  0
    5.7954   33.6935   76.1673 O   0  0  0  0  0  0  0  0  0  0  0  0
    9.2545   35.4863   76.4118 C   0  0  0  0  0  0  0  0  0  0  0  0
    7.8386   35.4043   76.2336 C   0  0  0  0  0  0  0  0  0  0  0  0
    7.1685   36.3660   75.4198 C   0  0  0  0  0  0  0  0  0  0  0  0
    7.9081   37.4043   74.7885 C   0  0  0  0  0  0  0  0  0  0  0  0
    9.3167   37.4861   74.9655 C   0  0  0  0  0  0  0  0  0  0  0  0
    9.9882   36.5259   75.7768 C   0  0  0  0  0  0  0  0  0  0  0  0
   10.0936   38.5878   74.2965 C   0  0  0  0  0  0  0  0  0  0  0  0
  6  7  1  0  0  0
  6 11  2  0  0  0
  7  8  2  0  0  0
  7 12  1  0  0  0
  8  9  1  0  0  0
  9 10  2  0  0  0
 10 11  1  0  0  0
 10  4  1  0  0  0
  1  2  2  0  0  0
  1  5  1  0  0  0
  1 13  1  0  0  0
  2  3  1  0  0  0
  2 17  1  0  0  0
  3  4  2  0  0  0
  4  5  1  0  0  0
 13 14  1  0  0  0
 13 15  2  0  0  0
 17 19  1  0  0  0
 19 23  1  0  0  0
 19 20  2  0  0  0
 19 21  2  0  0  0
 22 23  1  0  0  0
 22 27  2  0  0  0
 23 24  2  0  0  0
 24 25  1  0  0  0
 25 26  2  0  0  0
 26 27  1  0  0  0
 26 28  1  0  0  0
 14 16  1  0  0  0
 17 18  1  0  0  0
M  END
> <minimizedAffinity>
-7.95535

$$$$
2D3Z_FIH_A_2001


 28 30  0  0  0  0  0  0  0  0999 V2000
    4.4932   34.6561   79.8681 C   0  0  0  0  0  0  0  0  0  0  0  0
    5.6262   35.1543   79.2392 C   0  0  0  0  0  0  0  0  0  0  0  0
    5.5349   36.5814   79.0580 C   0  0  0  0  0  0  0  0  0  0  0  0
    4.3507   37.1353   79.5437 C   0  0  0  0  0  0  0  0  0  0  0  0
    3.3799   35.8914   80.2055 S   0  0  0  0  0  0  0  0  0  0  0  0
    2.1438   40.2780   79.9666 C   0  0  0  0  0  0  0  0  0  0  0  0
    3.0304   41.3066   79.5265 C   0  0  0  0  0  0  0  0  0  0  0  0
    4.3371   40.9495   79.1056 C   0  0  0  0  0  0  0  0  0  0  0  0
    4.7556   39.5963   79.1197 C   0  0  0  0  0  0  0  0  0  0  0  0
    3.8841   38.5535   79.5525 C   0  0  0  0  0  0  0  0  0  0  0  0
    2.5654   38.9140   79.9787 C   0  0  0  0  0  0  0  0  0  0  0  0
    2.6529   42.5618   79.5078 F   0  0  0  0  0  0  0  0  0  0  0  0
    4.2539   33.2322   80.2150 C   0  0  0  0  0  0  0  0  0  0  0  0
    3.5375   32.9923   81.2094 O   0  0  0  0  0  0  0  0  0  0  0  0
    4.7864   32.3471   79.5122 O   0  0  0  0  0  0  0  0  0  0  0  0
    3.1641   33.6985   81.6991 H   0  0  0  0  0  0  0  0  0  0  0  0
    6.7678   34.3406   78.8117 N   0  0  0  0  0  0  0  0  0  0  0  0
    7.3577   33.9499   79.4962 H   0  0  0  0  0  0  0  0  0  0  0  0
    7.1057   34.0500   77.1692 S   0  0  0  0  0  0  0  0  0  0  0  0
    5.8181   33.8184   76.5254 O   0  0  0  0  0  0  0  0  0  0  0  0
    7.9534   32.8611   77.1384 O   0  0  0  0  0  0  0  0  0  0  0  0
    7.2095   36.4063   75.6428 C   0  0  0  0  0  0  0  0  0  0  0  0
    7.9592   35.4008   76.3286 C   0  0  0  0  0  0  0  0  0  0  0  0
    9.3846   35.4656   76.3453 C   0  0  0  0  0  0  0  0  0  0  0  0
   10.0574   36.5278   75.6802 C   0  0  0  0  0  0  0  0  0  0  0  0
    9.3120   37.5283   74.9980 C   0  0  0  0  0  0  0  0  0  0  0  0
    7.8882   37.4663   74.9809 C   0  0  0  0  0  0  0  0  0  0  0  0
   10.0293   38.6487   74.2946 C   0  0  0  0  0  0  0  0  0  0  0  0
  6  7  1  0  0  0
  6 11  2  0  0  0
  7  8  2  0  0  0
  7 12  1  0  0  0
  8  9  1  0  0  0
  9 10  2  0  0  0
 10 11  1  0  0  0
 10  4  1  0  0  0
  1  2  2  0  0  0
  1  5  1  0  0  0
  1 13  1  0  0  0
  2  3  1  0  0  0
  2 17  1  0  0  0
  3  4  2  0  0  0
  4  5  1  0  0  0
 13 14  1  0  0  0
 13 15  2  0  0  0
 17 19  1  0  0  0
 19 23  1  0  0  0
 19 20  2  0  0  0
 19 21  2  0  0  0
 22 23  1  0  0  0
 22 27  2  0  0  0
 23 24  2  0  0  0
 24 25  1  0  0  0
 25 26  2  0  0  0
 26 27  1  0  0  0
 26 28  1  0  0  0
 14 16  1  0  0  0
 17 18  1  0  0  0
M  END
> <minimizedAffinity>
-7.71368

$$$$
2D3Z_FIH_A_2001


 28 30  0  0  0  0  0  0  0  0999 V2000
    6.5124   34.1449   80.0082 C   0  0  0  0  0  0  0  0  0  0  0  0
    6.4837   34.3473   78.6351 C   0  0  0  0  0  0  0  0  0  0  0  0
    5.7189   35.5220   78.2987 C   0  0  0  0  0  0  0  0  0  0  0  0
    5.1858   36.1819   79.4056 C   0  0  0  0  0  0  0  0  0  0  0  0
    5.6330   35.3423   80.8280 S   0  0  0  0  0  0  0  0  0  0  0  0
    3.9589   39.8199   78.9754 C   0  0  0  0  0  0  0  0  0  0  0  0
    2.7151   39.7827   79.6750 C   0  0  0  0  0  0  0  0  0  0  0  0
    2.3005   38.5630   80.2689 C   0  0  0  0  0  0  0  0  0  0  0  0
    3.1062   37.4021   80.1715 C   0  0  0  0  0  0  0  0  0  0  0  0
    4.3534   37.4191   79.4798 C   0  0  0  0  0  0  0  0  0  0  0  0
    4.7716   38.6500   78.8792 C   0  0  0  0  0  0  0  0  0  0  0  0
    1.9626   40.8516   79.7727 F   0  0  0  0  0  0  0  0  0  0  0  0
    7.2119   33.0345   80.7028 C   0  0  0  0  0  0  0  0  0  0  0  0
    7.9470   33.3290   81.6685 O   0  0  0  0  0  0  0  0  0  0  0  0
    7.0469   31.8686   80.2852 O   0  0  0  0  0  0  0  0  0  0  0  0
    8.0320   34.2226   81.9371 H   0  0  0  0  0  0  0  0  0  0  0  0
    7.1414   33.4826   77.6513 N   0  0  0  0  0  0  0  0  0  0  0  0
    6.6425   32.7208   77.2771 H   0  0  0  0  0  0  0  0  0  0  0  0
    8.7404   33.7538   77.1355 S   0  0  0  0  0  0  0  0  0  0  0  0
    9.0914   32.6191   76.2898 O   0  0  0  0  0  0  0  0  0  0  0  0
    9.5508   33.8014   78.3496 O   0  0  0  0  0  0  0  0  0  0  0  0
   10.2948   35.8195   76.0357 C   0  0  0  0  0  0  0  0  0  0  0  0
    8.9804   35.2852   76.2098 C   0  0  0  0  0  0  0  0  0  0  0  0
    7.8574   35.9665   75.6521 C   0  0  0  0  0  0  0  0  0  0  0  0
    8.0459   37.1749   74.9257 C   0  0  0  0  0  0  0  0  0  0  0  0
    9.3533   37.7066   74.7522 C   0  0  0  0  0  0  0  0  0  0  0  0
   10.4765   37.0272   75.3073 C   0  0  0  0  0  0  0  0  0  0  0  0
    9.5464   38.9863   73.9842 C   0  0  0  0  0  0  0  0  0  0  0  0
  6  7  1  0  0  0
  6 11  2  0  0  0
  7  8  2  0  0  0
  7 12  1  0  0  0
  8  9  1  0  0  0
  9 10  2  0  0  0
 10 11  1  0  0  0
 10  4  1  0  0  0
  1  2  2  0  0  0
  1  5  1  0  0  0
  1 13  1  0  0  0
  2  3  1  0  0  0
  2 17  1  0  0  0
  3  4  2  0  0  0
  4  5  1  0  0  0
 13 14  1  0  0  0
 13 15  2  0  0  0
 17 19  1  0  0  0
 19 23  1  0  0  0
 19 20  2  0  0  0
 19 21  2  0  0  0
 22 23  1  0  0  0
 22 27  2  0  0  0
 23 24  2  0  0  0
 24 25  1  0  0  0
 25 26  2  0  0  0
 26 27  1  0  0  0
 26 28  1  0  0  0
 14 16  1  0  0  0
 17 18  1  0  0  0
M  END
> <minimizedAffinity>
-7.70238

$$$$
2D3Z_FIH_A_2001


 28 30  0  0  0  0  0  0  0  0999 V2000
    5.2350   33.2995   77.4458 C   0  0  0  0  0  0  0  0  0  0  0  0
    5.4603   34.1068   78.5525 C   0  0  0  0  0  0  0  0  0  0  0  0
    6.4181   35.1421   78.2543 C   0  0  0  0  0  0  0  0  0  0  0  0
    6.8986   35.1036   76.9456 C   0  0  0  0  0  0  0  0  0  0  0  0
    6.1665   33.7973   76.1177 S   0  0  0  0  0  0  0  0  0  0  0  0
   10.2072   36.6161   75.6452 C   0  0  0  0  0  0  0  0  0  0  0  0
    9.7329   37.7501   74.9193 C   0  0  0  0  0  0  0  0  0  0  0  0
    8.3363   37.9926   74.8656 C   0  0  0  0  0  0  0  0  0  0  0  0
    7.4273   37.1265   75.5215 C   0  0  0  0  0  0  0  0  0  0  0  0
    7.8810   35.9903   76.2546 C   0  0  0  0  0  0  0  0  0  0  0  0
    9.2908   35.7446   76.3079 C   0  0  0  0  0  0  0  0  0  0  0  0
   10.5653   38.5590   74.3101 F   0  0  0  0  0  0  0  0  0  0  0  0
    4.3064   32.1418   77.3962 C   0  0  0  0  0  0  0  0  0  0  0  0
    3.1052   32.3528   77.6649 O   0  0  0  0  0  0  0  0  0  0  0  0
    4.7664   31.0174   77.1050 O   0  0  0  0  0  0  0  0  0  0  0  0
    2.8176   33.2191   77.8765 H   0  0  0  0  0  0  0  0  0  0  0  0
    4.8135   33.9332   79.8562 N   0  0  0  0  0  0  0  0  0  0  0  0
    4.3503   33.0863   80.0495 H   0  0  0  0  0  0  0  0  0  0  0  0
    4.8381   35.1495   81.0463 S   0  0  0  0  0  0  0  0  0  0  0  0
    6.2262   35.5822   81.1548 O   0  0  0  0  0  0  0  0  0  0  0  0
    4.3652   34.5177   82.2752 O   0  0  0  0  0  0  0  0  0  0  0  0
    2.6991   36.9025   81.5404 C   0  0  0  0  0  0  0  0  0  0  0  0
    3.7945   36.5769   80.6816 C   0  0  0  0  0  0  0  0  0  0  0  0
    4.0600   37.3815   79.5334 C   0  0  0  0  0  0  0  0  0  0  0  0
    3.2358   38.5042   79.2440 C   0  0  0  0  0  0  0  0  0  0  0  0
    2.1462   38.8285   80.0982 C   0  0  0  0  0  0  0  0  0  0  0  0
    1.8798   38.0271   81.2462 C   0  0  0  0  0  0  0  0  0  0  0  0
    1.2766   40.0164   79.7860 C   0  0  0  0  0  0  0  0  0  0  0  0
  6  7  1  0  0  0
  6 11  2  0  0  0
  7  8  2  0  0  0
  7 12  1  0  0  0
  8  9  1  0  0  0
  9 10  2  0  0  0
 10 11  1  0  0  0
 10  4  1  0  0  0
  1  2  2  0  0  0
  1  5  1  0  0  0
  1 13  1  0  0  0
  2  3  1  0  0  0
  2 17  1  0  0  0
  3  4  2  0  0  0
  4  5  1  0  0  0
 13 14  1  0  0  0
 13 15  2  0  0  0
 17 19  1  0  0  0
 19 23  1  0  0  0
 19 20  2  0  0  0
 19 21  2  0  0  0
 22 23  1  0  0  0
 22 27  2  0  0  0
 23 24  2  0  0  0
 24 25  1  0  0  0
 25 26  2  0  0  0
 26 27  1  0  0  0
 26 28  1  0  0  0
 14 16  1  0  0  0
 17 18  1  0  0  0
M  END
> <minimizedAffinity>
-7.57927

$$$$
2D3Z_FIH_A_2001


 28 30  0  0  0  0  0  0  0  0999 V2000
    5.4231   32.7168   77.7465 C   0  0  0  0  0  0  0  0  0  0  0  0
    6.5415   33.3085   78.3177 C   0  0  0  0  0  0  0  0  0  0  0  0
    7.7304   33.0149   77.5572 C   0  0  0  0  0  0  0  0  0  0  0  0
    7.4988   32.2156   76.4381 C   0  0  0  0  0  0  0  0  0  0  0  0
    5.8312   31.8423   76.3509 S   0  0  0  0  0  0  0  0  0  0  0  0
    9.0323   30.1664   73.5441 C   0  0  0  0  0  0  0  0  0  0  0  0
   10.3367   30.7392   73.4531 C   0  0  0  0  0  0  0  0  0  0  0  0
   10.6852   31.7909   74.3389 C   0  0  0  0  0  0  0  0  0  0  0  0
    9.7569   32.2641   75.2985 C   0  0  0  0  0  0  0  0  0  0  0  0
    8.4501   31.7033   75.4078 C   0  0  0  0  0  0  0  0  0  0  0  0
    8.0976   30.6424   74.5128 C   0  0  0  0  0  0  0  0  0  0  0  0
   11.2041   30.3076   72.5701 F   0  0  0  0  0  0  0  0  0  0  0  0
    4.0347   32.8158   78.2640 C   0  0  0  0  0  0  0  0  0  0  0  0
    3.1177   32.3605   77.5489 O   0  0  0  0  0  0  0  0  0  0  0  0
    3.8467   33.3575   79.3740 O   0  0  0  0  0  0  0  0  0  0  0  0
    3.3196   31.9643   76.7241 H   0  0  0  0  0  0  0  0  0  0  0  0
    6.5226   34.1242   79.5353 N   0  0  0  0  0  0  0  0  0  0  0  0
    6.0972   33.7614   80.3456 H   0  0  0  0  0  0  0  0  0  0  0  0
    7.2128   35.6787   79.5923 S   0  0  0  0  0  0  0  0  0  0  0  0
    8.3996   35.5646   80.4317 O   0  0  0  0  0  0  0  0  0  0  0  0
    6.2012   36.5450   80.1917 O   0  0  0  0  0  0  0  0  0  0  0  0
    9.0153   36.1828   77.4972 C   0  0  0  0  0  0  0  0  0  0  0  0
    7.6817   36.3508   77.9836 C   0  0  0  0  0  0  0  0  0  0  0  0
    6.7217   37.0534   77.1954 C   0  0  0  0  0  0  0  0  0  0  0  0
    7.0919   37.5859   75.9294 C   0  0  0  0  0  0  0  0  0  0  0  0
    8.4184   37.4189   75.4452 C   0  0  0  0  0  0  0  0  0  0  0  0
    9.3785   36.7166   76.2301 C   0  0  0  0  0  0  0  0  0  0  0  0
    8.8046   37.9861   74.1058 C   0  0  0  0  0  0  0  0  0  0  0  0
  6  7  1  0  0  0
  6 11  2  0  0  0
  7  8  2  0  0  0
  7 12  1  0  0  0
  8  9  1  0  0  0
  9 10  2  0  0  0
 10 11  1  0  0  0
 10  4  1  0  0  0
  1  2  2  0  0  0
  1  5  1  0  0  0
  1 13  1  0  0  0
  2  3  1  0  0  0
  2 17  1  0  0  0
  3  4  2  0  0  0
  4  5  1  0  0  0
 13 14  1  0  0  0
 13 15  2  0  0  0
 17 19  1  0  0  0
 19 23  1  0  0  0
 19 20  2  0  0  0
 19 21  2  0  0  0
 22 23  1  0  0  0
 22 27  2  0  0  0
 23 24  2  0  0  0
 24 25  1  0  0  0
 25 26  2  0  0  0
 26 27  1  0  0  0
 26 28  1  0  0  0
 14 16  1  0  0  0
 17 18  1  0  0  0
M  END
> <minimizedAffinity>
-7.53522

$$$$
2D3Z_FIH_A_2001


 28 30  0  0  0  0  0  0  0  0999 V2000
    5.5197   33.7345   77.8568 C   0  0  0  0  0  0  0  0  0  0  0  0
    6.0035   32.9119   76.8486 C   0  0  0  0  0  0  0  0  0  0  0  0
    6.9753   33.6010   76.0370 C   0  0  0  0  0  0  0  0  0  0  0  0
    7.2091   34.9169   76.4356 C   0  0  0  0  0  0  0  0  0  0  0  0
    6.2285   35.2749   77.7913 S   0  0  0  0  0  0  0  0  0  0  0  0
   10.4107   36.8429   75.4525 C   0  0  0  0  0  0  0  0  0  0  0  0
    9.8628   37.9725   74.7729 C   0  0  0  0  0  0  0  0  0  0  0  0
    8.4540   38.0767   74.6452 C   0  0  0  0  0  0  0  0  0  0  0  0
    7.6044   37.0792   75.1833 C   0  0  0  0  0  0  0  0  0  0  0  0
    8.1315   35.9448   75.8685 C   0  0  0  0  0  0  0  0  0  0  0  0
    9.5538   35.8387   75.9965 C   0  0  0  0  0  0  0  0  0  0  0  0
   10.6398   38.9022   74.2727 F   0  0  0  0  0  0  0  0  0  0  0  0
    4.5120   33.3487   78.8770 C   0  0  0  0  0  0  0  0  0  0  0  0
    3.4490   32.8328   78.4728 O   0  0  0  0  0  0  0  0  0  0  0  0
    4.7641   33.5686   80.0807 O   0  0  0  0  0  0  0  0  0  0  0  0
    3.3155   32.6918   77.5561 H   0  0  0  0  0  0  0  0  0  0  0  0
    5.5837   31.5246   76.6317 N   0  0  0  0  0  0  0  0  0  0  0  0
    5.2462   31.0035   77.3958 H   0  0  0  0  0  0  0  0  0  0  0  0
    5.6611   30.7859   75.1004 S   0  0  0  0  0  0  0  0  0  0  0  0
    5.2033   31.7868   74.1441 O   0  0  0  0  0  0  0  0  0  0  0  0
    4.7604   29.6379   75.1628 O   0  0  0  0  0  0  0  0  0  0  0  0
    7.7775   28.9387   75.0646 C   0  0  0  0  0  0  0  0  0  0  0  0
    7.3067   30.2150   74.6254 C   0  0  0  0  0  0  0  0  0  0  0  0
    8.1416   31.0384   73.8122 C   0  0  0  0  0  0  0  0  0  0  0  0
    9.4395   30.5902   73.4407 C   0  0  0  0  0  0  0  0  0  0  0  0
    9.9081   29.3206   73.8773 C   0  0  0  0  0  0  0  0  0  0  0  0
    9.0756   28.4960   74.6885 C   0  0  0  0  0  0  0  0  0  0  0  0
   11.2828   28.8525   73.4825 C   0  0  0  0  0  0  0  0  0  0  0  0
  6  7  1  0  0  0
  6 11  2  0  0  0
  7  8  2  0  0  0
  7 12  1  0  0  0
  8  9  1  0  0  0
  9 10  2  0  0  0
 10 11  1  0  0  0
 10  4  1  0  0  0
  1  2  2  0  0  0
  1  5  1  0  0  0
  1 13  1  0  0  0
  2  3  1  0  0  0
  2 17  1  0  0  0
  3  4  2  0  0  0
  4  5  1  0  0  0
 13 14  1  0  0  0
 13 15  2  0  0  0
 17 19  1  0  0  0
 19 23  1  0  0  0
 19 20  2  0  0  0
 19 21  2  0  0  0
 22 23  1  0  0  0
 22 27  2  0  0  0
 23 24  2  0  0  0
 24 25  1  0  0  0
 25 26  2  0  0  0
 26 27  1  0  0  0
 26 28  1  0  0  0
 14 16  1  0  0  0
 17 18  1  0  0  0
M  END
> <minimizedAffinity>
-7.39545

$$$$
2D3Z_FIH_A_2001


 28 30  0  0  0  0  0  0  0  0999 V2000
    7.4225   33.8841   79.5850 C   0  0  0  0  0  0  0  0  0  0  0  0
    6.8348   35.1038   79.8917 C   0  0  0  0  0  0  0  0  0  0  0  0
    7.2033   36.1143   78.9320 C   0  0  0  0  0  0  0  0  0  0  0  0
    8.0537   35.6525   77.9277 C   0  0  0  0  0  0  0  0  0  0  0  0
    8.3815   33.9936   78.1894 S   0  0  0  0  0  0  0  0  0  0  0  0
   10.5543   36.8904   75.2556 C   0  0  0  0  0  0  0  0  0  0  0  0
    9.7478   37.8093   74.5187 C   0  0  0  0  0  0  0  0  0  0  0  0
    8.3975   38.0000   74.9093 C   0  0  0  0  0  0  0  0  0  0  0  0
    7.8581   37.2929   76.0118 C   0  0  0  0  0  0  0  0  0  0  0  0
    8.6479   36.3730   76.7629 C   0  0  0  0  0  0  0  0  0  0  0  0
   10.0107   36.1794   76.3680 C   0  0  0  0  0  0  0  0  0  0  0  0
   10.2374   38.4701   73.4980 F   0  0  0  0  0  0  0  0  0  0  0  0
    7.2551   32.6267   80.3569 C   0  0  0  0  0  0  0  0  0  0  0  0
    6.1024   32.1557   80.4514 O   0  0  0  0  0  0  0  0  0  0  0  0
    8.2627   32.1093   80.8841 O   0  0  0  0  0  0  0  0  0  0  0  0
    5.3839   32.5883   80.0336 H   0  0  0  0  0  0  0  0  0  0  0  0
    5.9554   35.3398   81.0403 N   0  0  0  0  0  0  0  0  0  0  0  0
    6.3560   35.5923   81.9034 H   0  0  0  0  0  0  0  0  0  0  0  0
    4.2638   35.1911   80.9289 S   0  0  0  0  0  0  0  0  0  0  0  0
    3.8316   34.5450   82.1625 O   0  0  0  0  0  0  0  0  0  0  0  0
    4.0108   34.3563   79.7575 O   0  0  0  0  0  0  0  0  0  0  0  0
    3.6001   37.5604   79.5729 C   0  0  0  0  0  0  0  0  0  0  0  0
    3.3844   36.7560   80.7347 C   0  0  0  0  0  0  0  0  0  0  0  0
    2.4738   37.1937   81.7424 C   0  0  0  0  0  0  0  0  0  0  0  0
    1.7834   38.4282   81.5912 C   0  0  0  0  0  0  0  0  0  0  0  0
    1.9977   39.2287   80.4356 C   0  0  0  0  0  0  0  0  0  0  0  0
    2.9057   38.7929   79.4273 C   0  0  0  0  0  0  0  0  0  0  0  0
    1.2657   40.5346   80.2821 C   0  0  0  0  0  0  0  0  0  0  0  0
  6  7  1  0  0  0
  6 11  2  0  0  0
  7  8  2  0  0  0
  7 12  1  0  0  0
  8  9  1  0  0  0
  9 10  2  0  0  0
 10 11  1  0  0  0
 10  4  1  0  0  0
  1  2  2  0  0  0
  1  5  1  0  0  0
  1 13  1  0  0  0
  2  3  1  0  0  0
  2 17  1  0  0  0
  3  4  2  0  0  0
  4  5  1  0  0  0
 13 14  1  0  0  0
 13 15  2  0  0  0
 17 19  1  0  0  0
 19 23  1  0  0  0
 19 20  2  0  0  0
 19 21  2  0  0  0
 22 23  1  0  0  0
 22 27  2  0  0  0
 23 24  2  0  0  0
 24 25  1  0  0  0
 25 26  2  0  0  0
 26 27  1  0  0  0
 26 28  1  0  0  0
 14 16  1  0  0  0
 17 18  1  0  0  0
M  END
> <minimizedAffinity>
-7.38599

$$$$
2D3Z_FIH_A_2001


 28 30  0  0  0  0  0  0  0  0999 V2000
    7.3956   32.2078   74.9435 C   0  0  0  0  0  0  0  0  0  0  0  0
    8.3170   32.7936   75.8009 C   0  0  0  0  0  0  0  0  0  0  0  0
    9.6674   32.4833   75.4034 C   0  0  0  0  0  0  0  0  0  0  0  0
    9.7482   31.6774   74.2680 C   0  0  0  0  0  0  0  0  0  0  0  0
    8.1669   31.3187   73.7212 S   0  0  0  0  0  0  0  0  0  0  0  0
   12.0318   29.5015   72.0372 C   0  0  0  0  0  0  0  0  0  0  0  0
   13.2893   30.1586   72.1951 C   0  0  0  0  0  0  0  0  0  0  0  0
   13.3618   31.3064   73.0254 C   0  0  0  0  0  0  0  0  0  0  0  0
   12.2080   31.7921   73.6882 C   0  0  0  0  0  0  0  0  0  0  0  0
   10.9432   31.1484   73.5462 C   0  0  0  0  0  0  0  0  0  0  0  0
   10.8695   29.9904   72.7070 C   0  0  0  0  0  0  0  0  0  0  0  0
   14.3636   29.7165   71.5879 F   0  0  0  0  0  0  0  0  0  0  0  0
    5.9193   32.3235   75.0530 C   0  0  0  0  0  0  0  0  0  0  0  0
    5.4610   32.9943   76.0015 O   0  0  0  0  0  0  0  0  0  0  0  0
    5.2086   31.7384   74.2084 O   0  0  0  0  0  0  0  0  0  0  0  0
    6.0440   33.4115   76.6049 H   0  0  0  0  0  0  0  0  0  0  0  0
    7.9685   33.6188   76.9609 N   0  0  0  0  0  0  0  0  0  0  0  0
    7.7251   33.1755   77.8056 H   0  0  0  0  0  0  0  0  0  0  0  0
    7.9714   35.3194   76.8938 S   0  0  0  0  0  0  0  0  0  0  0  0
    7.8882   35.6692   75.4808 O   0  0  0  0  0  0  0  0  0  0  0  0
    9.2371   35.7420   77.4875 O   0  0  0  0  0  0  0  0  0  0  0  0
    6.2019   37.4322   77.4394 C   0  0  0  0  0  0  0  0  0  0  0  0
    6.6135   36.1076   77.7851 C   0  0  0  0  0  0  0  0  0  0  0  0
    5.9500   35.4101   78.8385 C   0  0  0  0  0  0  0  0  0  0  0  0
    4.8824   36.0323   79.5431 C   0  0  0  0  0  0  0  0  0  0  0  0
    4.4726   37.3498   79.1994 C   0  0  0  0  0  0  0  0  0  0  0  0
    5.1330   38.0479   78.1469 C   0  0  0  0  0  0  0  0  0  0  0  0
    3.3436   38.0035   79.9496 C   0  0  0  0  0  0  0  0  0  0  0  0
  6  7  1  0  0  0
  6 11  2  0  0  0
  7  8  2  0  0  0
  7 12  1  0  0  0
  8  9  1  0  0  0
  9 10  2  0  0  0
 10 11  1  0  0  0
 10  4  1  0  0  0
  1  2  2  0  0  0
  1  5  1  0  0  0
  1 13  1  0  0  0
  2  3  1  0  0  0
  2 17  1  0  0  0
  3  4  2  0  0  0
  4  5  1  0  0  0
 13 14  1  0  0  0
 13 15  2  0  0  0
 17 19  1  0  0  0
 19 23  1  0  0  0
 19 20  2  0  0  0
 19 21  2  0  0  0
 22 23  1  0  0  0
 22 27  2  0  0  0
 23 24  2  0  0  0
 24 25  1  0  0  0
 25 26  2  0  0  0
 26 27  1  0  0  0
 26 28  1  0  0  0
 14 16  1  0  0  0
 17 18  1  0  0  0
M  END
> <minimizedAffinity>
-7.26301

$$$$
2D3Z_FIH_A_2001


 28 30  0  0  0  0  0  0  0  0999 V2000
    8.0862   35.9083   77.4538 C   0  0  0  0  0  0  0  0  0  0  0  0
    7.1074   35.5898   76.5223 C   0  0  0  0  0  0  0  0  0  0  0  0
    5.8570   36.2321   76.8419 C   0  0  0  0  0  0  0  0  0  0  0  0
    5.9058   37.0152   77.9948 C   0  0  0  0  0  0  0  0  0  0  0  0
    7.4815   36.9397   78.6579 S   0  0  0  0  0  0  0  0  0  0  0  0
    3.7056   40.0028   79.0716 C   0  0  0  0  0  0  0  0  0  0  0  0
    2.7806   39.3681   79.9545 C   0  0  0  0  0  0  0  0  0  0  0  0
    2.8932   37.9713   80.1743 C   0  0  0  0  0  0  0  0  0  0  0  0
    3.9061   37.2185   79.5310 C   0  0  0  0  0  0  0  0  0  0  0  0
    4.8418   37.8340   78.6479 C   0  0  0  0  0  0  0  0  0  0  0  0
    4.7276   39.2439   78.4249 C   0  0  0  0  0  0  0  0  0  0  0  0
    1.8407   40.0555   80.5564 F   0  0  0  0  0  0  0  0  0  0  0  0
    9.4905   35.4261   77.4298 C   0  0  0  0  0  0  0  0  0  0  0  0
   10.2038   35.7721   76.4649 O   0  0  0  0  0  0  0  0  0  0  0  0
    9.8871   34.6915   78.3592 O   0  0  0  0  0  0  0  0  0  0  0  0
    9.8510   36.3256   75.7962 H   0  0  0  0  0  0  0  0  0  0  0  0
    7.3118   34.7143   75.3648 N   0  0  0  0  0  0  0  0  0  0  0  0
    7.5719   35.1151   74.5040 H   0  0  0  0  0  0  0  0  0  0  0  0
    7.1138   33.0268   75.4619 S   0  0  0  0  0  0  0  0  0  0  0  0
    5.8693   32.7241   74.7651 O   0  0  0  0  0  0  0  0  0  0  0  0
    7.0324   32.7138   76.8861 O   0  0  0  0  0  0  0  0  0  0  0  0
    8.1703   31.0501   73.7680 C   0  0  0  0  0  0  0  0  0  0  0  0
    8.4574   32.0704   74.7272 C   0  0  0  0  0  0  0  0  0  0  0  0
    9.8088   32.3299   75.1048 C   0  0  0  0  0  0  0  0  0  0  0  0
   10.8673   31.5742   74.5286 C   0  0  0  0  0  0  0  0  0  0  0  0
   10.5821   30.5592   73.5744 C   0  0  0  0  0  0  0  0  0  0  0  0
    9.2333   30.2991   73.1948 C   0  0  0  0  0  0  0  0  0  0  0  0
   11.7059   29.7618   72.9695 C   0  0  0  0  0  0  0  0  0  0  0  0
  6  7  1  0  0  0
  6 11  2  0  0  0
  7  8  2  0  0  0
  7 12  1  0  0  0
  8  9  1  0  0  0
  9 10  2  0  0  0
 10 11  1  0  0  0
 10  4  1  0  0  0
  1  2  2  0  0  0
  1  5  1  0  0  0
  1 13  1  0  0  0
  2  3  1  0  0  0
  2 17  1  0  0  0
  3  4  2  0  0  0
  4  5  1  0  0  0
 13 14  1  0  0  0
 13 15  2  0  0  0
 17 19  1  0  0  0
 19 23  1  0  0  0
 19 20  2  0  0  0
 19 21  2  0  0  0
 22 23  1  0  0  0
 22 27  2  0  0  0
 23 24  2  0  0  0
 24 25  1  0  0  0
 25 26  2  0  0  0
 26 27  1  0  0  0
 26 28  1  0  0  0
 14 16  1  0  0  0
 17 18  1  0  0  0
M  END
> <minimizedAffinity>
-7.13672

$$$$
