5SZ4_72D_A_304


 18 19  0  0  0  0  0  0  0  0999 V2000
   15.1722    6.9534   15.6784 C   0  0  0  0  0  0  0  0  0  0  0  0
   14.9515    5.5485   16.1924 C   0  0  0  0  0  0  0  0  0  0  0  0
   15.9656    4.7069   16.2365 C   0  0  0  0  0  0  0  0  0  0  0  0
   17.3643    5.0968   15.7799 C   0  0  0  0  0  0  0  0  0  0  0  0
   17.5380    6.3232   15.3379 C   0  0  0  0  0  0  0  0  0  0  0  0
   16.3778    7.2993   15.3017 C   0  0  0  0  0  0  0  0  0  0  0  0
   15.6281    3.0470   16.8349 S   0  0  0  0  0  0  0  0  0  0  0  0
   16.0357    3.0067   18.2302 O   0  0  0  0  0  0  0  0  0  0  0  0
   14.1739    2.7682   16.7627 O   0  0  0  0  0  0  0  0  0  0  0  0
   16.5333    1.9277   15.9556 N   0  0  0  0  0  0  0  0  0  0  0  0
   16.2488    1.9544   14.9764 H   0  0  0  0  0  0  0  0  0  0  0  0
   16.3745    0.9924   16.3303 H   0  0  0  0  0  0  0  0  0  0  0  0
   16.5971    8.6907   14.7563 C   0  0  0  0  0  0  0  0  0  0  0  0
   17.6691    9.3856   15.0609 C   0  0  0  0  0  0  0  0  0  0  0  0
   17.8149   10.7914   14.4900 C   0  0  0  0  0  0  0  0  0  0  0  0
   16.8760   11.2919   13.7167 C   0  0  0  0  0  0  0  0  0  0  0  0
   15.6353   10.4792   13.3815 C   0  0  0  0  0  0  0  0  0  0  0  0
   15.5042    9.2652   13.8702 C   0  0  0  0  0  0  0  0  0  0  0  0
 15 14  2  0  0  0
 15 16  1  0  0  0
 14 13  1  0  0  0
 16 17  2  0  0  0
 13  6  1  0  0  0
 13 18  2  0  0  0
 17 18  1  0  0  0
  6  5  2  0  0  0
  6  1  1  0  0  0
  5  4  1  0  0  0
  1  2  2  0  0  0
  4  3  2  0  0  0
  2  3  1  0  0  0
  3  7  1  0  0  0
 10  7  1  0  0  0
  9  7  2  0  0  0
  7  8  2  0  0  0
 10 11  1  0  0  0
 10 12  1  0  0  0
M  END
> <minimizedAffinity>
-7.41422

$$$$
5SZ4_72D_A_304


 18 19  0  0  0  0  0  0  0  0999 V2000
   15.1123    6.9427   15.6973 C   0  0  0  0  0  0  0  0  0  0  0  0
   14.9085    5.5383   16.2196 C   0  0  0  0  0  0  0  0  0  0  0  0
   15.9271    4.7015   16.2456 C   0  0  0  0  0  0  0  0  0  0  0  0
   17.3145    5.0963   15.7598 C   0  0  0  0  0  0  0  0  0  0  0  0
   17.4737    6.3223   15.3110 C   0  0  0  0  0  0  0  0  0  0  0  0
   16.3085    7.2930   15.2954 C   0  0  0  0  0  0  0  0  0  0  0  0
   15.6092    3.0418   16.8554 S   0  0  0  0  0  0  0  0  0  0  0  0
   16.0312    3.0116   18.2467 O   0  0  0  0  0  0  0  0  0  0  0  0
   14.1567    2.7508   16.7992 O   0  0  0  0  0  0  0  0  0  0  0  0
   16.5147    1.9256   15.9723 N   0  0  0  0  0  0  0  0  0  0  0  0
   16.2201    1.9453   14.9960 H   0  0  0  0  0  0  0  0  0  0  0  0
   16.3673    0.9909   16.3531 H   0  0  0  0  0  0  0  0  0  0  0  0
   16.5104    8.6837   14.7418 C   0  0  0  0  0  0  0  0  0  0  0  0
   15.6168    9.2478   13.9619 C   0  0  0  0  0  0  0  0  0  0  0  0
   15.8959   10.6462   13.4234 C   0  0  0  0  0  0  0  0  0  0  0  0
   17.0161   11.2625   13.7322 C   0  0  0  0  0  0  0  0  0  0  0  0
   18.0462   10.5922   14.6277 C   0  0  0  0  0  0  0  0  0  0  0  0
   17.8106    9.3861   15.0964 C   0  0  0  0  0  0  0  0  0  0  0  0
 15 14  2  0  0  0
 15 16  1  0  0  0
 14 13  1  0  0  0
 16 17  2  0  0  0
 13  6  1  0  0  0
 13 18  2  0  0  0
 17 18  1  0  0  0
  6  5  2  0  0  0
  6  1  1  0  0  0
  5  4  1  0  0  0
  1  2  2  0  0  0
  4  3  2  0  0  0
  2  3  1  0  0  0
  3  7  1  0  0  0
 10  7  1  0  0  0
  9  7  2  0  0  0
  7  8  2  0  0  0
 10 11  1  0  0  0
 10 12  1  0  0  0
M  END
> <minimizedAffinity>
-7.39972

$$$$
5SZ4_72D_A_304


 18 19  0  0  0  0  0  0  0  0999 V2000
   18.5857    7.8418   14.8564 C   0  0  0  0  0  0  0  0  0  0  0  0
   18.2419    6.3801   15.0354 C   0  0  0  0  0  0  0  0  0  0  0  0
   16.9881    6.0291   15.2432 C   0  0  0  0  0  0  0  0  0  0  0  0
   15.8611    7.0495   15.3165 C   0  0  0  0  0  0  0  0  0  0  0  0
   16.1783    8.3158   15.1564 C   0  0  0  0  0  0  0  0  0  0  0  0
   17.6168    8.7219   14.9002 C   0  0  0  0  0  0  0  0  0  0  0  0
   16.6538    4.2788   15.4716 S   0  0  0  0  0  0  0  0  0  0  0  0
   15.2892    4.1667   15.9613 O   0  0  0  0  0  0  0  0  0  0  0  0
   16.7455    3.5716   14.1721 O   0  0  0  0  0  0  0  0  0  0  0  0
   17.7134    3.6397   16.6181 N   0  0  0  0  0  0  0  0  0  0  0  0
   18.6713    3.7175   16.2764 H   0  0  0  0  0  0  0  0  0  0  0  0
   17.4884    2.6580   16.7790 H   0  0  0  0  0  0  0  0  0  0  0  0
   17.9586   10.1860   14.7553 C   0  0  0  0  0  0  0  0  0  0  0  0
   17.0839   11.0525   14.2981 C   0  0  0  0  0  0  0  0  0  0  0  0
   17.5044   12.5110   14.1597 C   0  0  0  0  0  0  0  0  0  0  0  0
   18.7235   12.8818   14.4857 C   0  0  0  0  0  0  0  0  0  0  0  0
   19.7287   11.8651   15.0036 C   0  0  0  0  0  0  0  0  0  0  0  0
   19.3716   10.6052   15.1262 C   0  0  0  0  0  0  0  0  0  0  0  0
 15 14  2  0  0  0
 15 16  1  0  0  0
 14 13  1  0  0  0
 16 17  2  0  0  0
 13  6  1  0  0  0
 13 18  2  0  0  0
 17 18  1  0  0  0
  6  5  2  0  0  0
  6  1  1  0  0  0
  5  4  1  0  0  0
  1  2  2  0  0  0
  4  3  2  0  0  0
  2  3  1  0  0  0
  3  7  1  0  0  0
 10  7  1  0  0  0
  9  7  2  0  0  0
  7  8  2  0  0  0
 10 11  1  0  0  0
 10 12  1  0  0  0
M  END
> <minimizedAffinity>
-7.10561

$$$$
5SZ4_72D_A_304


 18 19  0  0  0  0  0  0  0  0999 V2000
   18.6967    7.6619   14.9319 C   0  0  0  0  0  0  0  0  0  0  0  0
   18.3298    6.2144   15.1704 C   0  0  0  0  0  0  0  0  0  0  0  0
   17.0707    5.8920   15.3918 C   0  0  0  0  0  0  0  0  0  0  0  0
   15.9599    6.9323   15.4228 C   0  0  0  0  0  0  0  0  0  0  0  0
   16.2971    8.1858   15.2113 C   0  0  0  0  0  0  0  0  0  0  0  0
   17.7419    8.5583   14.9392 C   0  0  0  0  0  0  0  0  0  0  0  0
   16.7087    4.1581   15.6916 S   0  0  0  0  0  0  0  0  0  0  0  0
   16.7653    3.4831   14.4047 O   0  0  0  0  0  0  0  0  0  0  0  0
   17.7431    3.5700   16.5757 O   0  0  0  0  0  0  0  0  0  0  0  0
   15.1582    4.0015   16.3373 N   0  0  0  0  0  0  0  0  0  0  0  0
   15.1166    4.4744   17.2401 H   0  0  0  0  0  0  0  0  0  0  0  0
   14.9396    3.0129   16.4609 H   0  0  0  0  0  0  0  0  0  0  0  0
   18.1068   10.0096   14.7347 C   0  0  0  0  0  0  0  0  0  0  0  0
   19.3052   10.4627   15.0238 C   0  0  0  0  0  0  0  0  0  0  0  0
   19.5972   11.9435   14.8108 C   0  0  0  0  0  0  0  0  0  0  0  0
   18.6583   12.7440   14.3550 C   0  0  0  0  0  0  0  0  0  0  0  0
   17.2722   12.2068   14.0347 C   0  0  0  0  0  0  0  0  0  0  0  0
   17.0144   10.9298   14.2154 C   0  0  0  0  0  0  0  0  0  0  0  0
 15 14  2  0  0  0
 15 16  1  0  0  0
 14 13  1  0  0  0
 16 17  2  0  0  0
 13  6  1  0  0  0
 13 18  2  0  0  0
 17 18  1  0  0  0
  6  5  2  0  0  0
  6  1  1  0  0  0
  5  4  1  0  0  0
  1  2  2  0  0  0
  4  3  2  0  0  0
  2  3  1  0  0  0
  3  7  1  0  0  0
 10  7  1  0  0  0
  9  7  2  0  0  0
  7  8  2  0  0  0
 10 11  1  0  0  0
 10 12  1  0  0  0
M  END
> <minimizedAffinity>
-7.00824

$$$$
5SZ4_72D_A_304


 18 19  0  0  0  0  0  0  0  0999 V2000
   15.4328    7.4831   15.2482 C   0  0  0  0  0  0  0  0  0  0  0  0
   15.9213    8.7818   14.6470 C   0  0  0  0  0  0  0  0  0  0  0  0
   17.1904    8.9044   14.3109 C   0  0  0  0  0  0  0  0  0  0  0  0
   18.1956    7.7793   14.5119 C   0  0  0  0  0  0  0  0  0  0  0  0
   17.7525    6.6564   15.0340 C   0  0  0  0  0  0  0  0  0  0  0  0
   16.2900    6.5056   15.4059 C   0  0  0  0  0  0  0  0  0  0  0  0
   17.7081   10.4820   13.6249 S   0  0  0  0  0  0  0  0  0  0  0  0
   18.4170   11.1917   14.6777 O   0  0  0  0  0  0  0  0  0  0  0  0
   18.6432   10.2613   12.4960 O   0  0  0  0  0  0  0  0  0  0  0  0
   16.3542   11.3756   13.1621 N   0  0  0  0  0  0  0  0  0  0  0  0
   15.8556   10.8793   12.4236 H   0  0  0  0  0  0  0  0  0  0  0  0
   16.6510   12.2887   12.8178 H   0  0  0  0  0  0  0  0  0  0  0  0
   15.8150    5.2179   16.0366 C   0  0  0  0  0  0  0  0  0  0  0  0
   14.6650    5.1465   16.6671 C   0  0  0  0  0  0  0  0  0  0  0  0
   14.2585    3.8192   17.2968 C   0  0  0  0  0  0  0  0  0  0  0  0
   15.0547    2.7757   17.2124 C   0  0  0  0  0  0  0  0  0  0  0  0
   16.3880    2.8766   16.4882 C   0  0  0  0  0  0  0  0  0  0  0  0
   16.7439    4.0189   15.9419 C   0  0  0  0  0  0  0  0  0  0  0  0
 15 14  2  0  0  0
 15 16  1  0  0  0
 14 13  1  0  0  0
 16 17  2  0  0  0
 13  6  1  0  0  0
 13 18  2  0  0  0
 17 18  1  0  0  0
  6  5  2  0  0  0
  6  1  1  0  0  0
  5  4  1  0  0  0
  1  2  2  0  0  0
  4  3  2  0  0  0
  2  3  1  0  0  0
  3  7  1  0  0  0
 10  7  1  0  0  0
  9  7  2  0  0  0
  7  8  2  0  0  0
 10 11  1  0  0  0
 10 12  1  0  0  0
M  END
> <minimizedAffinity>
-6.46706

$$$$
5SZ4_72D_A_304


 18 19  0  0  0  0  0  0  0  0999 V2000
   15.4989    7.4192   15.2100 C   0  0  0  0  0  0  0  0  0  0  0  0
   15.9000    8.7475   14.6088 C   0  0  0  0  0  0  0  0  0  0  0  0
   17.1570    8.9521   14.2674 C   0  0  0  0  0  0  0  0  0  0  0  0
   18.2335    7.8938   14.4622 C   0  0  0  0  0  0  0  0  0  0  0  0
   17.8661    6.7440   14.9844 C   0  0  0  0  0  0  0  0  0  0  0  0
   16.4180    6.4987   15.3624 C   0  0  0  0  0  0  0  0  0  0  0  0
   17.5689   10.5607   13.5817 S   0  0  0  0  0  0  0  0  0  0  0  0
   18.2057   10.3246   12.2959 O   0  0  0  0  0  0  0  0  0  0  0  0
   16.3327   11.3468   13.3557 O   0  0  0  0  0  0  0  0  0  0  0  0
   18.6498   11.3572   14.6029 N   0  0  0  0  0  0  0  0  0  0  0  0
   18.2049   11.5238   15.5055 H   0  0  0  0  0  0  0  0  0  0  0  0
   18.9172   12.2489   14.1860 H   0  0  0  0  0  0  0  0  0  0  0  0
   16.0298    5.1823   15.9930 C   0  0  0  0  0  0  0  0  0  0  0  0
   16.7979    4.1215   15.8941 C   0  0  0  0  0  0  0  0  0  0  0  0
   16.3335    2.8207   16.5386 C   0  0  0  0  0  0  0  0  0  0  0  0
   15.1811    2.7702   17.1706 C   0  0  0  0  0  0  0  0  0  0  0  0
   14.2975    4.0040   17.2678 C   0  0  0  0  0  0  0  0  0  0  0  0
   14.6933    5.1297   16.7145 C   0  0  0  0  0  0  0  0  0  0  0  0
 15 14  2  0  0  0
 15 16  1  0  0  0
 14 13  1  0  0  0
 16 17  2  0  0  0
 13  6  1  0  0  0
 13 18  2  0  0  0
 17 18  1  0  0  0
  6  5  2  0  0  0
  6  1  1  0  0  0
  5  4  1  0  0  0
  1  2  2  0  0  0
  4  3  2  0  0  0
  2  3  1  0  0  0
  3  7  1  0  0  0
 10  7  1  0  0  0
  9  7  2  0  0  0
  7  8  2  0  0  0
 10 11  1  0  0  0
 10 12  1  0  0  0
M  END
> <minimizedAffinity>
-6.33097

$$$$
5SZ4_72D_A_304


 18 19  0  0  0  0  0  0  0  0999 V2000
   16.2422    6.7933   14.3515 C   0  0  0  0  0  0  0  0  0  0  0  0
   16.7360    7.5333   13.1287 C   0  0  0  0  0  0  0  0  0  0  0  0
   17.1821    6.8502   12.0930 C   0  0  0  0  0  0  0  0  0  0  0  0
   17.2254    5.3288   12.0818 C   0  0  0  0  0  0  0  0  0  0  0  0
   16.7899    4.7019   13.1529 C   0  0  0  0  0  0  0  0  0  0  0  0
   16.2601    5.4838   14.3395 C   0  0  0  0  0  0  0  0  0  0  0  0
   17.7761    7.7927   10.6836 S   0  0  0  0  0  0  0  0  0  0  0  0
   17.5458    6.9793    9.5003 O   0  0  0  0  0  0  0  0  0  0  0  0
   16.9984    9.0475   10.5490 O   0  0  0  0  0  0  0  0  0  0  0  0
   19.4293    8.0852   10.8478 N   0  0  0  0  0  0  0  0  0  0  0  0
   19.5929    8.6557   11.6774 H   0  0  0  0  0  0  0  0  0  0  0  0
   19.7709    8.5787   10.0230 H   0  0  0  0  0  0  0  0  0  0  0  0
   15.7993    4.7399   15.5707 C   0  0  0  0  0  0  0  0  0  0  0  0
   14.9715    5.2857   16.4320 C   0  0  0  0  0  0  0  0  0  0  0  0
   14.5645    4.4838   17.6627 C   0  0  0  0  0  0  0  0  0  0  0  0
   15.0456    3.2745   17.8531 C   0  0  0  0  0  0  0  0  0  0  0  0
   16.0115    2.6599   16.8524 C   0  0  0  0  0  0  0  0  0  0  0  0
   16.3657    3.3464   15.7879 C   0  0  0  0  0  0  0  0  0  0  0  0
 15 14  2  0  0  0
 15 16  1  0  0  0
 14 13  1  0  0  0
 16 17  2  0  0  0
 13  6  1  0  0  0
 13 18  2  0  0  0
 17 18  1  0  0  0
  6  5  2  0  0  0
  6  1  1  0  0  0
  5  4  1  0  0  0
  1  2  2  0  0  0
  4  3  2  0  0  0
  2  3  1  0  0  0
  3  7  1  0  0  0
 10  7  1  0  0  0
  9  7  2  0  0  0
  7  8  2  0  0  0
 10 11  1  0  0  0
 10 12  1  0  0  0
M  END
> <minimizedAffinity>
-5.78487

$$$$
5SZ4_72D_A_304


 18 19  0  0  0  0  0  0  0  0999 V2000
   16.1337    9.1874   14.7974 C   0  0  0  0  0  0  0  0  0  0  0  0
   16.6292   10.5554   14.3856 C   0  0  0  0  0  0  0  0  0  0  0  0
   17.9210   10.7514   14.2084 C   0  0  0  0  0  0  0  0  0  0  0  0
   18.9452    9.6436   14.4098 C   0  0  0  0  0  0  0  0  0  0  0  0
   18.4959    8.4599   14.7657 C   0  0  0  0  0  0  0  0  0  0  0  0
   17.0093    8.2261   14.9539 C   0  0  0  0  0  0  0  0  0  0  0  0
   18.4429   12.4064   13.7434 S   0  0  0  0  0  0  0  0  0  0  0  0
   18.2066   12.5413   12.3149 O   0  0  0  0  0  0  0  0  0  0  0  0
   17.6201   13.4152   14.4524 O   0  0  0  0  0  0  0  0  0  0  0  0
   20.0894   12.5956   14.0580 N   0  0  0  0  0  0  0  0  0  0  0  0
   20.2571   12.5013   15.0597 H   0  0  0  0  0  0  0  0  0  0  0  0
   20.3907   13.5195   13.7483 H   0  0  0  0  0  0  0  0  0  0  0  0
   16.5235    6.8664   15.3974 C   0  0  0  0  0  0  0  0  0  0  0  0
   15.2529    6.6369   15.6376 C   0  0  0  0  0  0  0  0  0  0  0  0
   14.8368    5.2458   16.1013 C   0  0  0  0  0  0  0  0  0  0  0  0
   15.7411    4.3045   16.2631 C   0  0  0  0  0  0  0  0  0  0  0  0
   17.2101    4.5882   15.9912 C   0  0  0  0  0  0  0  0  0  0  0  0
   17.5752    5.7863   15.5898 C   0  0  0  0  0  0  0  0  0  0  0  0
 15 14  2  0  0  0
 15 16  1  0  0  0
 14 13  1  0  0  0
 16 17  2  0  0  0
 13  6  1  0  0  0
 13 18  2  0  0  0
 17 18  1  0  0  0
  6  5  2  0  0  0
  6  1  1  0  0  0
  5  4  1  0  0  0
  1  2  2  0  0  0
  4  3  2  0  0  0
  2  3  1  0  0  0
  3  7  1  0  0  0
 10  7  1  0  0  0
  9  7  2  0  0  0
  7  8  2  0  0  0
 10 11  1  0  0  0
 10 12  1  0  0  0
M  END
> <minimizedAffinity>
-5.66208

$$$$
5SZ4_72D_A_304


 18 19  0  0  0  0  0  0  0  0999 V2000
   17.2169    5.7595   13.1675 C   0  0  0  0  0  0  0  0  0  0  0  0
   17.7624    6.6088   12.0416 C   0  0  0  0  0  0  0  0  0  0  0  0
   17.5038    7.9015   12.0199 C   0  0  0  0  0  0  0  0  0  0  0  0
   16.6634    8.5792   13.0928 C   0  0  0  0  0  0  0  0  0  0  0  0
   16.1990    7.8255   14.0654 C   0  0  0  0  0  0  0  0  0  0  0  0
   16.5087    6.3413   14.1031 C   0  0  0  0  0  0  0  0  0  0  0  0
   18.1622    8.8463   10.6410 S   0  0  0  0  0  0  0  0  0  0  0  0
   19.5952    8.6016   10.6033 O   0  0  0  0  0  0  0  0  0  0  0  0
   17.5706    8.3663    9.3694 O   0  0  0  0  0  0  0  0  0  0  0  0
   17.8824   10.4911   10.8901 N   0  0  0  0  0  0  0  0  0  0  0  0
   16.8776   10.6648   10.9169 H   0  0  0  0  0  0  0  0  0  0  0  0
   18.2998   11.0261   10.1286 H   0  0  0  0  0  0  0  0  0  0  0  0
   15.9334    5.4925   15.2121 C   0  0  0  0  0  0  0  0  0  0  0  0
   15.0450    5.9720   16.0523 C   0  0  0  0  0  0  0  0  0  0  0  0
   14.5224    5.0641   17.1596 C   0  0  0  0  0  0  0  0  0  0  0  0
   14.9655    3.8305   17.2679 C   0  0  0  0  0  0  0  0  0  0  0  0
   16.0022    3.2927   16.2939 C   0  0  0  0  0  0  0  0  0  0  0  0
   16.4562    4.0708   15.3357 C   0  0  0  0  0  0  0  0  0  0  0  0
 15 14  2  0  0  0
 15 16  1  0  0  0
 14 13  1  0  0  0
 16 17  2  0  0  0
 13  6  1  0  0  0
 13 18  2  0  0  0
 17 18  1  0  0  0
  6  5  2  0  0  0
  6  1  1  0  0  0
  5  4  1  0  0  0
  1  2  2  0  0  0
  4  3  2  0  0  0
  2  3  1  0  0  0
  3  7  1  0  0  0
 10  7  1  0  0  0
  9  7  2  0  0  0
  7  8  2  0  0  0
 10 11  1  0  0  0
 10 12  1  0  0  0
M  END
> <minimizedAffinity>
-5.11082

$$$$
5SZ4_72D_A_304


 18 19  0  0  0  0  0  0  0  0999 V2000
   18.3141    8.7518   12.2897 C   0  0  0  0  0  0  0  0  0  0  0  0
   17.7516    7.3818   11.9841 C   0  0  0  0  0  0  0  0  0  0  0  0
   17.3192    6.6228   12.9717 C   0  0  0  0  0  0  0  0  0  0  0  0
   17.3696    7.0744   14.4244 C   0  0  0  0  0  0  0  0  0  0  0  0
   17.8599    8.2696   14.6712 C   0  0  0  0  0  0  0  0  0  0  0  0
   18.3425    9.1523   13.5363 C   0  0  0  0  0  0  0  0  0  0  0  0
   16.6862    4.9977   12.5403 S   0  0  0  0  0  0  0  0  0  0  0  0
   15.5293    4.7533   13.3867 O   0  0  0  0  0  0  0  0  0  0  0  0
   16.2436    4.9855   11.1256 O   0  0  0  0  0  0  0  0  0  0  0  0
   17.8612    3.8270   12.8478 N   0  0  0  0  0  0  0  0  0  0  0  0
   18.6736    3.9968   12.2549 H   0  0  0  0  0  0  0  0  0  0  0  0
   17.4806    2.9023   12.6465 H   0  0  0  0  0  0  0  0  0  0  0  0
   18.9337   10.5061   13.8508 C   0  0  0  0  0  0  0  0  0  0  0  0
   19.7875   10.6696   14.8354 C   0  0  0  0  0  0  0  0  0  0  0  0
   20.3286   12.0682   15.1083 C   0  0  0  0  0  0  0  0  0  0  0  0
   19.9349   13.0850   14.3726 C   0  0  0  0  0  0  0  0  0  0  0  0
   18.9375   12.8819   13.2428 C   0  0  0  0  0  0  0  0  0  0  0  0
   18.4678   11.6773   13.0017 C   0  0  0  0  0  0  0  0  0  0  0  0
 15 14  2  0  0  0
 15 16  1  0  0  0
 14 13  1  0  0  0
 16 17  2  0  0  0
 13  6  1  0  0  0
 13 18  2  0  0  0
 17 18  1  0  0  0
  6  5  2  0  0  0
  6  1  1  0  0  0
  5  4  1  0  0  0
  1  2  2  0  0  0
  4  3  2  0  0  0
  2  3  1  0  0  0
  3  7  1  0  0  0
 10  7  1  0  0  0
  9  7  2  0  0  0
  7  8  2  0  0  0
 10 11  1  0  0  0
 10 12  1  0  0  0
M  END
> <minimizedAffinity>
-4.66061

$$$$
