3PCN_DHY_M_550


 15 15  0  0  0  0  0  0  0  0999 V2000
   13.6967   12.3334   41.7969 C   0  0  0  0  0  0  0  0  0  0  0  0
   14.7434   12.5916   40.8546 C   0  0  0  0  0  0  0  0  0  0  0  0
   15.4393   13.7632   40.9929 C   0  0  0  0  0  0  0  0  0  0  0  0
   15.1409   14.6945   41.9727 C   0  0  0  0  0  0  0  0  0  0  0  0
   14.1046   14.4756   42.8734 C   0  0  0  0  0  0  0  0  0  0  0  0
   13.3651   13.2673   42.7781 C   0  0  0  0  0  0  0  0  0  0  0  0
   16.5006   14.0816   40.1863 O   0  0  0  0  0  0  0  0  0  0  0  0
   15.9585   15.8092   41.9692 O   0  0  0  0  0  0  0  0  0  0  0  0
   16.7600   13.4977   39.5010 H   0  0  0  0  0  0  0  0  0  0  0  0
   16.6389   15.8891   41.3300 H   0  0  0  0  0  0  0  0  0  0  0  0
   12.7638   11.0990   41.5733 C   0  0  0  0  0  0  0  0  0  0  0  0
   13.5271    9.7065   41.8091 C   0  0  0  0  0  0  0  0  0  0  0  0
   13.6361    9.0007   40.7636 O   0  0  0  0  0  0  0  0  0  0  0  0
   13.8932    9.4002   42.9400 O   0  0  0  0  0  0  0  0  0  0  0  0
   13.7663    9.9969   43.6512 H   0  0  0  0  0  0  0  0  0  0  0  0
  1  2  2  0  0  0
  1  6  1  0  0  0
  1 11  1  0  0  0
  2  3  1  0  0  0
  3  4  2  0  0  0
  3  7  1  0  0  0
  4  5  1  0  0  0
  4  8  1  0  0  0
  5  6  2  0  0  0
 11 12  1  0  0  0
 12 13  2  0  0  0
 12 14  1  0  0  0
 14 15  1  0  0  0
  7  9  1  0  0  0
  8 10  1  0  0  0
M  END
> <minimizedAffinity>
-7.24210

$$$$
3PCN_DHY_M_550


 15 15  0  0  0  0  0  0  0  0999 V2000
   14.0959   12.0928   41.0779 C   0  0  0  0  0  0  0  0  0  0  0  0
   13.6307   12.8650   42.1904 C   0  0  0  0  0  0  0  0  0  0  0  0
   14.2732   14.0469   42.4481 C   0  0  0  0  0  0  0  0  0  0  0  0
   15.3538   14.4845   41.7017 C   0  0  0  0  0  0  0  0  0  0  0  0
   15.8405   13.7296   40.6403 C   0  0  0  0  0  0  0  0  0  0  0  0
   15.1962   12.5040   40.3262 C   0  0  0  0  0  0  0  0  0  0  0  0
   13.8706   14.8938   43.4477 O   0  0  0  0  0  0  0  0  0  0  0  0
   15.8643   15.7065   42.0978 O   0  0  0  0  0  0  0  0  0  0  0  0
   13.1451   14.6628   43.9937 H   0  0  0  0  0  0  0  0  0  0  0  0
   15.4841   16.1597   42.8245 H   0  0  0  0  0  0  0  0  0  0  0  0
   13.5119   10.6601   40.8532 C   0  0  0  0  0  0  0  0  0  0  0  0
   14.6315    9.5171   40.9851 C   0  0  0  0  0  0  0  0  0  0  0  0
   15.0753    9.1063   39.8728 O   0  0  0  0  0  0  0  0  0  0  0  0
   14.9365    9.0932   42.0960 O   0  0  0  0  0  0  0  0  0  0  0  0
   14.5491    9.4673   42.8628 H   0  0  0  0  0  0  0  0  0  0  0  0
  1  2  2  0  0  0
  1  6  1  0  0  0
  1 11  1  0  0  0
  2  3  1  0  0  0
  3  4  2  0  0  0
  3  7  1  0  0  0
  4  5  1  0  0  0
  4  8  1  0  0  0
  5  6  2  0  0  0
 11 12  1  0  0  0
 12 13  2  0  0  0
 12 14  1  0  0  0
 14 15  1  0  0  0
  7  9  1  0  0  0
  8 10  1  0  0  0
M  END
> <minimizedAffinity>
-6.99268

$$$$
3PCN_DHY_M_550


 15 15  0  0  0  0  0  0  0  0999 V2000
   13.9473   12.7699   42.0429 C   0  0  0  0  0  0  0  0  0  0  0  0
   13.4481   11.7264   42.8868 C   0  0  0  0  0  0  0  0  0  0  0  0
   13.4347   10.4559   42.3751 C   0  0  0  0  0  0  0  0  0  0  0  0
   13.8478   10.1690   41.0854 C   0  0  0  0  0  0  0  0  0  0  0  0
   14.3018   11.1758   40.2408 C   0  0  0  0  0  0  0  0  0  0  0  0
   14.3480   12.5068   40.7333 C   0  0  0  0  0  0  0  0  0  0  0  0
   13.0375    9.3741   43.1169 O   0  0  0  0  0  0  0  0  0  0  0  0
   13.7782    8.8303   40.7478 O   0  0  0  0  0  0  0  0  0  0  0  0
   12.7450    9.4930   43.9991 H   0  0  0  0  0  0  0  0  0  0  0  0
   13.4605    8.2061   41.3703 H   0  0  0  0  0  0  0  0  0  0  0  0
   13.8183   14.2541   42.5167 C   0  0  0  0  0  0  0  0  0  0  0  0
   15.2077   15.0514   42.4113 C   0  0  0  0  0  0  0  0  0  0  0  0
   15.6860   15.3942   43.5323 O   0  0  0  0  0  0  0  0  0  0  0  0
   15.6727   15.3147   41.3061 O   0  0  0  0  0  0  0  0  0  0  0  0
   15.2403   15.0124   40.5318 H   0  0  0  0  0  0  0  0  0  0  0  0
  1  2  2  0  0  0
  1  6  1  0  0  0
  1 11  1  0  0  0
  2  3  1  0  0  0
  3  4  2  0  0  0
  3  7  1  0  0  0
  4  5  1  0  0  0
  4  8  1  0  0  0
  5  6  2  0  0  0
 11 12  1  0  0  0
 12 13  2  0  0  0
 12 14  1  0  0  0
 14 15  1  0  0  0
  7  9  1  0  0  0
  8 10  1  0  0  0
M  END
> <minimizedAffinity>
-6.73207

$$$$
3PCN_DHY_M_550


 15 15  0  0  0  0  0  0  0  0999 V2000
   14.7680   14.6020   42.2014 C   0  0  0  0  0  0  0  0  0  0  0  0
   15.6637   14.1162   41.1955 C   0  0  0  0  0  0  0  0  0  0  0  0
   15.3803   12.8985   40.6361 C   0  0  0  0  0  0  0  0  0  0  0  0
   14.2987   12.1310   41.0329 C   0  0  0  0  0  0  0  0  0  0  0  0
   13.4395   12.5720   42.0331 C   0  0  0  0  0  0  0  0  0  0  0  0
   13.6850   13.8360   42.6316 C   0  0  0  0  0  0  0  0  0  0  0  0
   16.1340   12.3679   39.6217 O   0  0  0  0  0  0  0  0  0  0  0  0
   14.1619   10.9388   40.3468 O   0  0  0  0  0  0  0  0  0  0  0  0
   16.8820   12.8325   39.3014 H   0  0  0  0  0  0  0  0  0  0  0  0
   14.7812   10.7065   39.6831 H   0  0  0  0  0  0  0  0  0  0  0  0
   15.1455   15.8982   42.9897 C   0  0  0  0  0  0  0  0  0  0  0  0
   14.9791   17.2240   42.0999 C   0  0  0  0  0  0  0  0  0  0  0  0
   16.0617   17.6340   41.5872 O   0  0  0  0  0  0  0  0  0  0  0  0
   13.8799   17.7641   42.0172 O   0  0  0  0  0  0  0  0  0  0  0  0
   13.1355   17.3780   42.4354 H   0  0  0  0  0  0  0  0  0  0  0  0
  1  2  2  0  0  0
  1  6  1  0  0  0
  1 11  1  0  0  0
  2  3  1  0  0  0
  3  4  2  0  0  0
  3  7  1  0  0  0
  4  5  1  0  0  0
  4  8  1  0  0  0
  5  6  2  0  0  0
 11 12  1  0  0  0
 12 13  2  0  0  0
 12 14  1  0  0  0
 14 15  1  0  0  0
  7  9  1  0  0  0
  8 10  1  0  0  0
M  END
> <minimizedAffinity>
-6.71495

$$$$
3PCN_DHY_M_550


 15 15  0  0  0  0  0  0  0  0999 V2000
   14.2162   12.4767   41.3778 C   0  0  0  0  0  0  0  0  0  0  0  0
   15.1334   13.5233   41.0410 C   0  0  0  0  0  0  0  0  0  0  0  0
   15.1600   14.6230   41.8571 C   0  0  0  0  0  0  0  0  0  0  0  0
   14.3204   14.7594   42.9493 C   0  0  0  0  0  0  0  0  0  0  0  0
   13.3992   13.7684   43.2695 C   0  0  0  0  0  0  0  0  0  0  0  0
   13.3463   12.6027   42.4605 C   0  0  0  0  0  0  0  0  0  0  0  0
   16.0423   15.6540   41.6646 O   0  0  0  0  0  0  0  0  0  0  0  0
   14.4995   15.9284   43.6649 O   0  0  0  0  0  0  0  0  0  0  0  0
   16.6414   15.6296   40.9446 H   0  0  0  0  0  0  0  0  0  0  0  0
   15.1414   16.5529   43.3892 H   0  0  0  0  0  0  0  0  0  0  0  0
   14.0257   11.2869   40.3817 C   0  0  0  0  0  0  0  0  0  0  0  0
   14.0085    9.8645   41.1260 C   0  0  0  0  0  0  0  0  0  0  0  0
   15.1152    9.5520   41.6557 O   0  0  0  0  0  0  0  0  0  0  0  0
   12.9927    9.1761   41.0934 O   0  0  0  0  0  0  0  0  0  0  0  0
   12.2201    9.5005   40.6742 H   0  0  0  0  0  0  0  0  0  0  0  0
  1  2  2  0  0  0
  1  6  1  0  0  0
  1 11  1  0  0  0
  2  3  1  0  0  0
  3  4  2  0  0  0
  3  7  1  0  0  0
  4  5  1  0  0  0
  4  8  1  0  0  0
  5  6  2  0  0  0
 11 12  1  0  0  0
 12 13  2  0  0  0
 12 14  1  0  0  0
 14 15  1  0  0  0
  7  9  1  0  0  0
  8 10  1  0  0  0
M  END
> <minimizedAffinity>
-6.55674

$$$$
3PCN_DHY_M_550


 15 15  0  0  0  0  0  0  0  0999 V2000
   15.1166   12.8031   40.7063 C   0  0  0  0  0  0  0  0  0  0  0  0
   15.6625   11.5988   40.1569 C   0  0  0  0  0  0  0  0  0  0  0  0
   14.9466   10.4449   40.3358 C   0  0  0  0  0  0  0  0  0  0  0  0
   13.7584   10.4090   41.0454 C   0  0  0  0  0  0  0  0  0  0  0  0
   13.2326   11.5629   41.6157 C   0  0  0  0  0  0  0  0  0  0  0  0
   13.9326   12.7861   41.4430 C   0  0  0  0  0  0  0  0  0  0  0  0
   15.3439    9.2483   39.7984 O   0  0  0  0  0  0  0  0  0  0  0  0
   13.1690    9.1603   41.1095 O   0  0  0  0  0  0  0  0  0  0  0  0
   16.1388    9.1973   39.3050 H   0  0  0  0  0  0  0  0  0  0  0  0
   13.5822    8.4256   40.7002 H   0  0  0  0  0  0  0  0  0  0  0  0
   15.9794   14.1065   40.6805 C   0  0  0  0  0  0  0  0  0  0  0  0
   15.5217   15.1638   41.7985 C   0  0  0  0  0  0  0  0  0  0  0  0
   15.8915   14.8597   42.9706 O   0  0  0  0  0  0  0  0  0  0  0  0
   14.8308   16.1257   41.4758 O   0  0  0  0  0  0  0  0  0  0  0  0
   14.6109   16.2636   40.5755 H   0  0  0  0  0  0  0  0  0  0  0  0
  1  2  2  0  0  0
  1  6  1  0  0  0
  1 11  1  0  0  0
  2  3  1  0  0  0
  3  4  2  0  0  0
  3  7  1  0  0  0
  4  5  1  0  0  0
  4  8  1  0  0  0
  5  6  2  0  0  0
 11 12  1  0  0  0
 12 13  2  0  0  0
 12 14  1  0  0  0
 14 15  1  0  0  0
  7  9  1  0  0  0
  8 10  1  0  0  0
M  END
> <minimizedAffinity>
-6.46061

$$$$
3PCN_DHY_M_550


 15 15  0  0  0  0  0  0  0  0999 V2000
   13.6990   14.3279   43.4168 C   0  0  0  0  0  0  0  0  0  0  0  0
   14.7232   15.1807   42.8936 C   0  0  0  0  0  0  0  0  0  0  0  0
   15.3602   14.7713   41.7522 C   0  0  0  0  0  0  0  0  0  0  0  0
   15.0706   13.5697   41.1288 C   0  0  0  0  0  0  0  0  0  0  0  0
   14.1038   12.7134   41.6438 C   0  0  0  0  0  0  0  0  0  0  0  0
   13.4061   13.1033   42.8174 C   0  0  0  0  0  0  0  0  0  0  0  0
   16.3107   15.5389   41.1311 O   0  0  0  0  0  0  0  0  0  0  0  0
   15.8027   13.3308   39.9808 O   0  0  0  0  0  0  0  0  0  0  0  0
   16.5576   16.3656   41.4967 H   0  0  0  0  0  0  0  0  0  0  0  0
   16.4395   13.9549   39.6929 H   0  0  0  0  0  0  0  0  0  0  0  0
   13.0696   14.6655   44.8075 C   0  0  0  0  0  0  0  0  0  0  0  0
   11.7428   15.5597   44.6761 C   0  0  0  0  0  0  0  0  0  0  0  0
   11.9071   16.6218   44.0068 O   0  0  0  0  0  0  0  0  0  0  0  0
   10.7152   15.2065   45.2472 O   0  0  0  0  0  0  0  0  0  0  0  0
   10.6959   14.3973   45.7192 H   0  0  0  0  0  0  0  0  0  0  0  0
  1  2  2  0  0  0
  1  6  1  0  0  0
  1 11  1  0  0  0
  2  3  1  0  0  0
  3  4  2  0  0  0
  3  7  1  0  0  0
  4  5  1  0  0  0
  4  8  1  0  0  0
  5  6  2  0  0  0
 11 12  1  0  0  0
 12 13  2  0  0  0
 12 14  1  0  0  0
 14 15  1  0  0  0
  7  9  1  0  0  0
  8 10  1  0  0  0
M  END
> <minimizedAffinity>
-6.41079

$$$$
3PCN_DHY_M_550


 15 15  0  0  0  0  0  0  0  0999 V2000
   14.3351   14.3398   42.3964 C   0  0  0  0  0  0  0  0  0  0  0  0
   15.3405   14.0792   41.4108 C   0  0  0  0  0  0  0  0  0  0  0  0
   15.2655   12.8901   40.7351 C   0  0  0  0  0  0  0  0  0  0  0  0
   14.2891   11.9449   40.9988 C   0  0  0  0  0  0  0  0  0  0  0  0
   13.3267   12.1669   41.9774 C   0  0  0  0  0  0  0  0  0  0  0  0
   13.3555   13.3927   42.6934 C   0  0  0  0  0  0  0  0  0  0  0  0
   16.1373   12.5661   39.7285 O   0  0  0  0  0  0  0  0  0  0  0  0
   14.3615   10.8131   40.2084 O   0  0  0  0  0  0  0  0  0  0  0  0
   16.8245   13.1588   39.4950 H   0  0  0  0  0  0  0  0  0  0  0  0
   15.0399   10.7321   39.5672 H   0  0  0  0  0  0  0  0  0  0  0  0
   14.4804   15.5986   43.3121 C   0  0  0  0  0  0  0  0  0  0  0  0
   13.1339   16.4710   43.3687 C   0  0  0  0  0  0  0  0  0  0  0  0
   12.4867   16.3416   44.4492 O   0  0  0  0  0  0  0  0  0  0  0  0
   12.8010   17.1354   42.3916 O   0  0  0  0  0  0  0  0  0  0  0  0
   13.3538   17.1663   41.6357 H   0  0  0  0  0  0  0  0  0  0  0  0
  1  2  2  0  0  0
  1  6  1  0  0  0
  1 11  1  0  0  0
  2  3  1  0  0  0
  3  4  2  0  0  0
  3  7  1  0  0  0
  4  5  1  0  0  0
  4  8  1  0  0  0
  5  6  2  0  0  0
 11 12  1  0  0  0
 12 13  2  0  0  0
 12 14  1  0  0  0
 14 15  1  0  0  0
  7  9  1  0  0  0
  8 10  1  0  0  0
M  END
> <minimizedAffinity>
-6.33458

$$$$
3PCN_DHY_M_550


 15 15  0  0  0  0  0  0  0  0999 V2000
   14.1754   14.5053   42.6113 C   0  0  0  0  0  0  0  0  0  0  0  0
   13.7093   13.2112   42.2135 C   0  0  0  0  0  0  0  0  0  0  0  0
   14.4211   12.5573   41.2431 C   0  0  0  0  0  0  0  0  0  0  0  0
   15.5291   13.1159   40.6293 C   0  0  0  0  0  0  0  0  0  0  0  0
   15.9738   14.3861   40.9786 C   0  0  0  0  0  0  0  0  0  0  0  0
   15.2761   15.0959   41.9912 C   0  0  0  0  0  0  0  0  0  0  0  0
   14.1014   11.2894   40.8324 O   0  0  0  0  0  0  0  0  0  0  0  0
   16.1287   12.3041   39.6847 O   0  0  0  0  0  0  0  0  0  0  0  0
   13.3632   10.8485   41.2048 H   0  0  0  0  0  0  0  0  0  0  0  0
   15.7724   11.4573   39.5007 H   0  0  0  0  0  0  0  0  0  0  0  0
   13.2991   15.3601   43.5837 C   0  0  0  0  0  0  0  0  0  0  0  0
   13.4369   14.8816   45.1099 C   0  0  0  0  0  0  0  0  0  0  0  0
   14.6013   15.0238   45.5864 O   0  0  0  0  0  0  0  0  0  0  0  0
   12.4699   14.3826   45.6780 O   0  0  0  0  0  0  0  0  0  0  0  0
   11.6460   14.3234   45.2359 H   0  0  0  0  0  0  0  0  0  0  0  0
  1  2  2  0  0  0
  1  6  1  0  0  0
  1 11  1  0  0  0
  2  3  1  0  0  0
  3  4  2  0  0  0
  3  7  1  0  0  0
  4  5  1  0  0  0
  4  8  1  0  0  0
  5  6  2  0  0  0
 11 12  1  0  0  0
 12 13  2  0  0  0
 12 14  1  0  0  0
 14 15  1  0  0  0
  7  9  1  0  0  0
  8 10  1  0  0  0
M  END
> <minimizedAffinity>
-6.30270

$$$$
3PCN_DHY_M_550


 15 15  0  0  0  0  0  0  0  0999 V2000
   13.7391   12.6709   41.7185 C   0  0  0  0  0  0  0  0  0  0  0  0
   13.3128   13.3434   42.9085 C   0  0  0  0  0  0  0  0  0  0  0  0
   14.0068   14.4641   43.2805 C   0  0  0  0  0  0  0  0  0  0  0  0
   15.1019   14.9299   42.5734 C   0  0  0  0  0  0  0  0  0  0  0  0
   15.5509   14.2684   41.4359 C   0  0  0  0  0  0  0  0  0  0  0  0
   14.8528   13.1101   41.0032 C   0  0  0  0  0  0  0  0  0  0  0  0
   13.6457   15.2200   44.3653 O   0  0  0  0  0  0  0  0  0  0  0  0
   15.6665   16.0818   43.0884 O   0  0  0  0  0  0  0  0  0  0  0  0
   12.9133   14.9649   44.8911 H   0  0  0  0  0  0  0  0  0  0  0  0
   15.3096   16.4735   43.8611 H   0  0  0  0  0  0  0  0  0  0  0  0
   13.0928   11.2950   41.3531 C   0  0  0  0  0  0  0  0  0  0  0  0
   13.5427   10.1241   42.3550 C   0  0  0  0  0  0  0  0  0  0  0  0
   14.5862    9.5093   41.9861 O   0  0  0  0  0  0  0  0  0  0  0  0
   12.8546    9.8718   43.3398 O   0  0  0  0  0  0  0  0  0  0  0  0
   12.0967   10.3900   43.5270 H   0  0  0  0  0  0  0  0  0  0  0  0
  1  2  2  0  0  0
  1  6  1  0  0  0
  1 11  1  0  0  0
  2  3  1  0  0  0
  3  4  2  0  0  0
  3  7  1  0  0  0
  4  5  1  0  0  0
  4  8  1  0  0  0
  5  6  2  0  0  0
 11 12  1  0  0  0
 12 13  2  0  0  0
 12 14  1  0  0  0
 14 15  1  0  0  0
  7  9  1  0  0  0
  8 10  1  0  0  0
M  END
> <minimizedAffinity>
-6.26879

$$$$
