4UMA_GZ3_A_1351


 13 12  0  0  0  0  0  0  0  0999 V2000
   -8.2369  -85.9132    0.3082 C   0  0  0  0  0  0  0  0  0  0  0  0
   -8.3589  -85.7617   -1.2058 C   0  0  0  0  0  0  0  0  0  0  0  0
   -7.1443  -85.3632    1.1136 C   0  0  0  0  0  0  0  0  0  0  0  0
   -5.9693  -84.1494    0.4917 P   0  0  0  0  0  0  0  0  0  0  0  0
   -5.1655  -83.6801    1.7658 O   0  0  0  0  0  0  0  0  0  0  0  0
   -4.9270  -84.8931   -0.3747 O   0  0  0  0  0  0  0  0  0  0  0  0
   -6.6296  -82.9986   -0.2280 O   0  0  0  0  0  0  0  0  0  0  0  0
   -4.5060  -83.0179    1.5062 H   0  0  0  0  0  0  0  0  0  0  0  0
   -4.2818  -84.2571   -0.7214 H   0  0  0  0  0  0  0  0  0  0  0  0
   -9.1425  -86.9039    1.0338 C   0  0  0  0  0  0  0  0  0  0  0  0
  -10.1723  -86.5423    1.6299 O   0  0  0  0  0  0  0  0  0  0  0  0
   -8.8168  -88.0736    1.0050 O   0  0  0  0  0  0  0  0  0  0  0  0
   -8.0383  -88.3322    0.5522 H   0  0  0  0  0  0  0  0  0  0  0  0
  5  4  1  0  0  0
  4  6  1  0  0  0
  4  7  2  0  0  0
  4  3  1  0  0  0
  3  1  2  0  0  0
  1  2  1  0  0  0
  1 10  1  0  0  0
 10 12  1  0  0  0
 10 11  2  0  0  0
 12 13  1  0  0  0
  5  8  1  0  0  0
  6  9  1  0  0  0
M  END
> <minimizedAffinity>
-6.00609

$$$$
4UMA_GZ3_A_1351


 13 12  0  0  0  0  0  0  0  0999 V2000
   -6.9798  -85.2889   -0.3211 C   0  0  0  0  0  0  0  0  0  0  0  0
   -7.8406  -85.8062   -1.4707 C   0  0  0  0  0  0  0  0  0  0  0  0
   -7.3076  -85.4430    1.0979 C   0  0  0  0  0  0  0  0  0  0  0  0
   -8.5915  -86.5502    1.7032 P   0  0  0  0  0  0  0  0  0  0  0  0
   -8.7334  -86.2000    3.2351 O   0  0  0  0  0  0  0  0  0  0  0  0
   -9.9353  -86.1117    1.0771 O   0  0  0  0  0  0  0  0  0  0  0  0
   -8.2751  -88.0080    1.4733 O   0  0  0  0  0  0  0  0  0  0  0  0
   -9.4153  -86.7631    3.6337 H   0  0  0  0  0  0  0  0  0  0  0  0
  -10.6437  -86.6958    1.3900 H   0  0  0  0  0  0  0  0  0  0  0  0
   -5.8353  -84.3256   -0.6214 C   0  0  0  0  0  0  0  0  0  0  0  0
   -4.6436  -84.6524   -0.4809 O   0  0  0  0  0  0  0  0  0  0  0  0
   -6.1356  -83.2147   -1.0098 O   0  0  0  0  0  0  0  0  0  0  0  0
   -7.0375  -82.9818   -1.1112 H   0  0  0  0  0  0  0  0  0  0  0  0
  5  4  1  0  0  0
  4  6  1  0  0  0
  4  7  2  0  0  0
  4  3  1  0  0  0
  3  1  2  0  0  0
  1  2  1  0  0  0
  1 10  1  0  0  0
 10 12  1  0  0  0
 10 11  2  0  0  0
 12 13  1  0  0  0
  5  8  1  0  0  0
  6  9  1  0  0  0
M  END
> <minimizedAffinity>
-5.76622

$$$$
4UMA_GZ3_A_1351


 13 12  0  0  0  0  0  0  0  0999 V2000
   -7.7190  -85.8886    0.8821 C   0  0  0  0  0  0  0  0  0  0  0  0
   -6.8811  -86.0215   -0.3869 C   0  0  0  0  0  0  0  0  0  0  0  0
   -7.5482  -84.8351    1.8849 C   0  0  0  0  0  0  0  0  0  0  0  0
   -6.5589  -83.3565    1.6093 P   0  0  0  0  0  0  0  0  0  0  0  0
   -5.0654  -83.8357    1.7811 O   0  0  0  0  0  0  0  0  0  0  0  0
   -6.6762  -82.9741    0.1160 O   0  0  0  0  0  0  0  0  0  0  0  0
   -6.9108  -82.2242    2.5434 O   0  0  0  0  0  0  0  0  0  0  0  0
   -4.4671  -83.0843    1.6453 H   0  0  0  0  0  0  0  0  0  0  0  0
   -6.1497  -82.1779   -0.0562 H   0  0  0  0  0  0  0  0  0  0  0  0
   -8.6256  -87.0421    1.3012 C   0  0  0  0  0  0  0  0  0  0  0  0
   -8.2259  -88.2194    1.3282 O   0  0  0  0  0  0  0  0  0  0  0  0
   -9.7658  -86.7633    1.6135 O   0  0  0  0  0  0  0  0  0  0  0  0
  -10.0538  -85.8720    1.5887 H   0  0  0  0  0  0  0  0  0  0  0  0
  5  4  1  0  0  0
  4  6  1  0  0  0
  4  7  2  0  0  0
  4  3  1  0  0  0
  3  1  2  0  0  0
  1  2  1  0  0  0
  1 10  1  0  0  0
 10 12  1  0  0  0
 10 11  2  0  0  0
 12 13  1  0  0  0
  5  8  1  0  0  0
  6  9  1  0  0  0
M  END
> <minimizedAffinity>
-5.74097

$$$$
4UMA_GZ3_A_1351


 13 12  0  0  0  0  0  0  0  0999 V2000
   -6.9681  -84.5582    0.6021 C   0  0  0  0  0  0  0  0  0  0  0  0
   -7.3399  -83.6948    1.8048 C   0  0  0  0  0  0  0  0  0  0  0  0
   -7.3471  -85.9633    0.4381 C   0  0  0  0  0  0  0  0  0  0  0  0
   -8.5827  -86.7815    1.4601 P   0  0  0  0  0  0  0  0  0  0  0  0
   -9.9657  -86.3817    0.8143 O   0  0  0  0  0  0  0  0  0  0  0  0
   -8.4674  -88.3048    1.2224 O   0  0  0  0  0  0  0  0  0  0  0  0
   -8.4961  -86.3981    2.9175 O   0  0  0  0  0  0  0  0  0  0  0  0
  -10.6875  -86.7905    1.3171 H   0  0  0  0  0  0  0  0  0  0  0  0
   -9.1255  -88.7674    1.7644 H   0  0  0  0  0  0  0  0  0  0  0  0
   -5.9261  -84.0477   -0.3887 C   0  0  0  0  0  0  0  0  0  0  0  0
   -6.1497  -83.0857   -1.1444 O   0  0  0  0  0  0  0  0  0  0  0  0
   -4.8560  -84.6219   -0.4100 O   0  0  0  0  0  0  0  0  0  0  0  0
   -4.7010  -85.3453    0.1650 H   0  0  0  0  0  0  0  0  0  0  0  0
  5  4  1  0  0  0
  4  6  1  0  0  0
  4  7  2  0  0  0
  4  3  1  0  0  0
  3  1  2  0  0  0
  1  2  1  0  0  0
  1 10  1  0  0  0
 10 12  1  0  0  0
 10 11  2  0  0  0
 12 13  1  0  0  0
  5  8  1  0  0  0
  6  9  1  0  0  0
M  END
> <minimizedAffinity>
-5.71931

$$$$
4UMA_GZ3_A_1351


 13 12  0  0  0  0  0  0  0  0999 V2000
   -7.6249  -85.4305    1.2838 C   0  0  0  0  0  0  0  0  0  0  0  0
   -7.5248  -83.9087    1.3501 C   0  0  0  0  0  0  0  0  0  0  0  0
   -7.0995  -86.2516    0.1909 C   0  0  0  0  0  0  0  0  0  0  0  0
   -5.9695  -85.6259   -1.0631 P   0  0  0  0  0  0  0  0  0  0  0  0
   -5.4926  -86.9083   -1.8489 O   0  0  0  0  0  0  0  0  0  0  0  0
   -6.7959  -84.8225   -2.0935 O   0  0  0  0  0  0  0  0  0  0  0  0
   -4.8156  -84.8432   -0.4850 O   0  0  0  0  0  0  0  0  0  0  0  0
   -4.8740  -86.6472   -2.5489 H   0  0  0  0  0  0  0  0  0  0  0  0
   -6.2061  -84.4748   -2.7806 H   0  0  0  0  0  0  0  0  0  0  0  0
   -8.5415  -86.1607    2.2608 C   0  0  0  0  0  0  0  0  0  0  0  0
   -8.4248  -86.0376    3.4928 O   0  0  0  0  0  0  0  0  0  0  0  0
   -9.4013  -86.8738    1.7840 O   0  0  0  0  0  0  0  0  0  0  0  0
   -9.4780  -86.9574    0.8539 H   0  0  0  0  0  0  0  0  0  0  0  0
  5  4  1  0  0  0
  4  6  1  0  0  0
  4  7  2  0  0  0
  4  3  1  0  0  0
  3  1  2  0  0  0
  1  2  1  0  0  0
  1 10  1  0  0  0
 10 12  1  0  0  0
 10 11  2  0  0  0
 12 13  1  0  0  0
  5  8  1  0  0  0
  6  9  1  0  0  0
M  END
> <minimizedAffinity>
-5.40408

$$$$
4UMA_GZ3_A_1351


 13 12  0  0  0  0  0  0  0  0999 V2000
   -6.8869  -84.8248    0.7211 C   0  0  0  0  0  0  0  0  0  0  0  0
   -8.3939  -84.9218    0.4982 C   0  0  0  0  0  0  0  0  0  0  0  0
   -6.2568  -84.1811    1.8759 C   0  0  0  0  0  0  0  0  0  0  0  0
   -7.1586  -83.7086    3.3606 P   0  0  0  0  0  0  0  0  0  0  0  0
   -6.0558  -83.1409    4.3358 O   0  0  0  0  0  0  0  0  0  0  0  0
   -8.0405  -82.4865    3.0158 O   0  0  0  0  0  0  0  0  0  0  0  0
   -7.9349  -84.8496    3.9720 O   0  0  0  0  0  0  0  0  0  0  0  0
   -6.4714  -82.8628    5.1670 H   0  0  0  0  0  0  0  0  0  0  0  0
   -8.5370  -82.2137    3.8032 H   0  0  0  0  0  0  0  0  0  0  0  0
   -5.9398  -85.1758   -0.4225 C   0  0  0  0  0  0  0  0  0  0  0  0
   -6.2469  -85.9958   -1.3055 O   0  0  0  0  0  0  0  0  0  0  0  0
   -4.8623  -84.6155   -0.4393 O   0  0  0  0  0  0  0  0  0  0  0  0
   -4.6439  -83.9998    0.2324 H   0  0  0  0  0  0  0  0  0  0  0  0
  5  4  1  0  0  0
  4  6  1  0  0  0
  4  7  2  0  0  0
  4  3  1  0  0  0
  3  1  2  0  0  0
  1  2  1  0  0  0
  1 10  1  0  0  0
 10 12  1  0  0  0
 10 11  2  0  0  0
 12 13  1  0  0  0
  5  8  1  0  0  0
  6  9  1  0  0  0
M  END
> <minimizedAffinity>
-5.33275

$$$$
4UMA_GZ3_A_1351


 13 12  0  0  0  0  0  0  0  0999 V2000
   -6.8568  -84.2666    2.4456 C   0  0  0  0  0  0  0  0  0  0  0  0
   -6.1209  -82.9352    2.5713 C   0  0  0  0  0  0  0  0  0  0  0  0
   -7.0907  -84.9716    1.1835 C   0  0  0  0  0  0  0  0  0  0  0  0
   -6.2600  -84.5478   -0.3564 P   0  0  0  0  0  0  0  0  0  0  0  0
   -7.0417  -85.3501   -1.4676 O   0  0  0  0  0  0  0  0  0  0  0  0
   -6.5567  -83.0626   -0.6667 O   0  0  0  0  0  0  0  0  0  0  0  0
   -4.7856  -84.8704   -0.3437 O   0  0  0  0  0  0  0  0  0  0  0  0
   -6.6465  -85.1697   -2.3349 H   0  0  0  0  0  0  0  0  0  0  0  0
   -6.1179  -82.8113   -1.4945 H   0  0  0  0  0  0  0  0  0  0  0  0
   -7.6354  -84.8042    3.6427 C   0  0  0  0  0  0  0  0  0  0  0  0
   -8.3430  -85.8239    3.5657 O   0  0  0  0  0  0  0  0  0  0  0  0
   -7.5349  -84.1922    4.6870 O   0  0  0  0  0  0  0  0  0  0  0  0
   -6.9983  -83.4254    4.7310 H   0  0  0  0  0  0  0  0  0  0  0  0
  5  4  1  0  0  0
  4  6  1  0  0  0
  4  7  2  0  0  0
  4  3  1  0  0  0
  3  1  2  0  0  0
  1  2  1  0  0  0
  1 10  1  0  0  0
 10 12  1  0  0  0
 10 11  2  0  0  0
 12 13  1  0  0  0
  5  8  1  0  0  0
  6  9  1  0  0  0
M  END
> <minimizedAffinity>
-5.31267

$$$$
4UMA_GZ3_A_1351


 13 12  0  0  0  0  0  0  0  0999 V2000
   -8.1670  -85.7798    1.1833 C   0  0  0  0  0  0  0  0  0  0  0  0
   -8.0263  -84.8724   -0.0361 C   0  0  0  0  0  0  0  0  0  0  0  0
   -7.6029  -85.4918    2.5037 C   0  0  0  0  0  0  0  0  0  0  0  0
   -6.9526  -83.8800    2.9728 P   0  0  0  0  0  0  0  0  0  0  0  0
   -6.4469  -84.0677    4.4556 O   0  0  0  0  0  0  0  0  0  0  0  0
   -5.6674  -83.6255    2.1520 O   0  0  0  0  0  0  0  0  0  0  0  0
   -7.9685  -82.7707    2.8476 O   0  0  0  0  0  0  0  0  0  0  0  0
   -6.0787  -83.2310    4.7800 H   0  0  0  0  0  0  0  0  0  0  0  0
   -5.2985  -82.7602    2.3889 H   0  0  0  0  0  0  0  0  0  0  0  0
   -8.6957  -87.1992    0.9995 C   0  0  0  0  0  0  0  0  0  0  0  0
   -9.7068  -87.4437    0.3180 O   0  0  0  0  0  0  0  0  0  0  0  0
   -8.0829  -88.0925    1.5487 O   0  0  0  0  0  0  0  0  0  0  0  0
   -7.3226  -87.8941    2.0592 H   0  0  0  0  0  0  0  0  0  0  0  0
  5  4  1  0  0  0
  4  6  1  0  0  0
  4  7  2  0  0  0
  4  3  1  0  0  0
  3  1  2  0  0  0
  1  2  1  0  0  0
  1 10  1  0  0  0
 10 12  1  0  0  0
 10 11  2  0  0  0
 12 13  1  0  0  0
  5  8  1  0  0  0
  6  9  1  0  0  0
M  END
> <minimizedAffinity>
-5.28841

$$$$
4UMA_GZ3_A_1351


 13 12  0  0  0  0  0  0  0  0999 V2000
   -7.2764  -84.2278    1.8839 C   0  0  0  0  0  0  0  0  0  0  0  0
   -7.7388  -85.1986    2.9673 C   0  0  0  0  0  0  0  0  0  0  0  0
   -7.5401  -84.3919    0.4527 C   0  0  0  0  0  0  0  0  0  0  0  0
   -8.7272  -85.5739   -0.2065 P   0  0  0  0  0  0  0  0  0  0  0  0
   -8.4904  -85.5524   -1.7663 O   0  0  0  0  0  0  0  0  0  0  0  0
   -8.2884  -86.9891    0.2348 O   0  0  0  0  0  0  0  0  0  0  0  0
  -10.1545  -85.2507    0.1632 O   0  0  0  0  0  0  0  0  0  0  0  0
   -9.1014  -86.1721   -2.1947 H   0  0  0  0  0  0  0  0  0  0  0  0
   -8.9152  -87.6442   -0.1100 H   0  0  0  0  0  0  0  0  0  0  0  0
   -6.2587  -83.1470    2.2361 C   0  0  0  0  0  0  0  0  0  0  0  0
   -6.6032  -81.9989    2.5672 O   0  0  0  0  0  0  0  0  0  0  0  0
   -5.0850  -83.4548    2.1824 O   0  0  0  0  0  0  0  0  0  0  0  0
   -4.8395  -84.3235    1.9314 H   0  0  0  0  0  0  0  0  0  0  0  0
  5  4  1  0  0  0
  4  6  1  0  0  0
  4  7  2  0  0  0
  4  3  1  0  0  0
  3  1  2  0  0  0
  1  2  1  0  0  0
  1 10  1  0  0  0
 10 12  1  0  0  0
 10 11  2  0  0  0
 12 13  1  0  0  0
  5  8  1  0  0  0
  6  9  1  0  0  0
M  END
> <minimizedAffinity>
-5.27483

$$$$
4UMA_GZ3_A_1351


 13 12  0  0  0  0  0  0  0  0999 V2000
   -7.2327  -84.2669    2.0446 C   0  0  0  0  0  0  0  0  0  0  0  0
   -6.9750  -83.5375    0.7287 C   0  0  0  0  0  0  0  0  0  0  0  0
   -7.9073  -85.5617    2.1593 C   0  0  0  0  0  0  0  0  0  0  0  0
   -8.2310  -86.6380    0.7530 P   0  0  0  0  0  0  0  0  0  0  0  0
   -8.4253  -88.0719    1.3819 O   0  0  0  0  0  0  0  0  0  0  0  0
   -9.6196  -86.2720    0.1804 O   0  0  0  0  0  0  0  0  0  0  0  0
   -7.1332  -86.6079   -0.2825 O   0  0  0  0  0  0  0  0  0  0  0  0
   -8.6055  -88.7127    0.6763 H   0  0  0  0  0  0  0  0  0  0  0  0
   -9.8157  -86.8408   -0.5805 H   0  0  0  0  0  0  0  0  0  0  0  0
   -7.0245  -83.5251    3.3615 C   0  0  0  0  0  0  0  0  0  0  0  0
   -7.9473  -83.3588    4.1783 O   0  0  0  0  0  0  0  0  0  0  0  0
   -5.9091  -83.0999    3.5858 O   0  0  0  0  0  0  0  0  0  0  0  0
   -5.2229  -83.2323    2.9615 H   0  0  0  0  0  0  0  0  0  0  0  0
  5  4  1  0  0  0
  4  6  1  0  0  0
  4  7  2  0  0  0
  4  3  1  0  0  0
  3  1  2  0  0  0
  1  2  1  0  0  0
  1 10  1  0  0  0
 10 12  1  0  0  0
 10 11  2  0  0  0
 12 13  1  0  0  0
  5  8  1  0  0  0
  6  9  1  0  0  0
M  END
> <minimizedAffinity>
-5.23963

$$$$
