4D7B_TCW_A_1126


 22 23  0  0  0  0  0  0  0  0999 V2000
    0.2297    0.4029   -5.5612 C   0  0  0  0  0  0  0  0  0  0  0  0
   -0.8085   -0.5102   -5.3646 C   0  0  0  0  0  0  0  0  0  0  0  0
   -1.1725   -0.8760   -4.0691 C   0  0  0  0  0  0  0  0  0  0  0  0
   -2.2324   -1.7173   -3.8544 O   0  0  0  0  0  0  0  0  0  0  0  0
    0.9241    0.9090   -4.4611 C   0  0  0  0  0  0  0  0  0  0  0  0
    0.5346    0.5693   -3.1539 C   0  0  0  0  0  0  0  0  0  0  0  0
   -0.5291   -0.3287   -2.9487 C   0  0  0  0  0  0  0  0  0  0  0  0
   -0.8940   -0.6694   -1.6996 O   0  0  0  0  0  0  0  0  0  0  0  0
   -2.6827   -2.0986   -4.5823 H   0  0  0  0  0  0  0  0  0  0  0  0
   -1.6026   -1.2675   -1.5652 H   0  0  0  0  0  0  0  0  0  0  0  0
    1.2944    1.1898   -2.0157 N   0  0  0  0  0  0  0  0  0  0  0  0
    1.4277    0.6106   -0.9896 O   0  0  0  0  0  0  0  0  0  0  0  0
    1.7251    2.2712   -2.1795 O   0  0  0  0  0  0  0  0  0  0  0  0
    1.6548    1.4277   -7.1539 O   0  0  0  0  0  0  0  0  0  0  0  0
    0.6370    0.7537   -6.9597 C   0  0  0  0  0  0  0  0  0  0  0  0
   -0.1571    0.2904   -8.1501 C   0  0  0  0  0  0  0  0  0  0  0  0
   -1.3475    0.9284   -8.5003 C   0  0  0  0  0  0  0  0  0  0  0  0
   -2.1159    0.5646   -9.5968 C   0  0  0  0  0  0  0  0  0  0  0  0
   -1.7551   -0.5141  -10.3746 C   0  0  0  0  0  0  0  0  0  0  0  0
   -2.5871   -0.9074  -11.4985 C   0  0  0  0  0  0  0  0  0  0  0  0
   -0.5866   -1.1757  -10.0070 C   0  0  0  0  0  0  0  0  0  0  0  0
    0.2392   -0.8056   -8.9493 C   0  0  0  0  0  0  0  0  0  0  0  0
 14 15  2  0  0  0
 15  1  1  0  0  0
 15 16  1  0  0  0
  1  2  2  0  0  0
  1  5  1  0  0  0
  2  3  1  0  0  0
  3  4  1  0  0  0
  3  7  2  0  0  0
  5  6  2  0  0  0
  6 11  1  0  0  0
  6  7  1  0  0  0
 11 12  1  0  0  0
 11 13  2  0  0  0
  7  8  1  0  0  0
 16 17  2  0  0  0
 16 22  1  0  0  0
 17 18  1  0  0  0
 18 19  2  0  0  0
 19 20  1  0  0  0
 19 21  1  0  0  0
 21 22  2  0  0  0
  4  9  1  0  0  0
  8 10  1  0  0  0
M  CHG 1  11   1
M  CHG 1  12  -1
M  END
> <minimizedAffinity>
-7.67788

$$$$
4D7B_TCW_A_1126


 22 23  0  0  0  0  0  0  0  0999 V2000
   -0.2388   -0.3936   -5.5747 C   0  0  0  0  0  0  0  0  0  0  0  0
    0.7971    0.5229   -5.3818 C   0  0  0  0  0  0  0  0  0  0  0  0
    1.1653    0.8889   -4.0875 C   0  0  0  0  0  0  0  0  0  0  0  0
    2.2231    1.7337   -3.8767 O   0  0  0  0  0  0  0  0  0  0  0  0
   -0.9267   -0.9030   -4.4721 C   0  0  0  0  0  0  0  0  0  0  0  0
   -0.5328   -0.5631   -3.1663 C   0  0  0  0  0  0  0  0  0  0  0  0
    0.5286    0.3385   -2.9649 C   0  0  0  0  0  0  0  0  0  0  0  0
    0.8976    0.6794   -1.7171 O   0  0  0  0  0  0  0  0  0  0  0  0
    2.6690    2.1172   -4.6062 H   0  0  0  0  0  0  0  0  0  0  0  0
    1.6047    1.2799   -1.5853 H   0  0  0  0  0  0  0  0  0  0  0  0
   -1.2856   -1.1871   -2.0254 N   0  0  0  0  0  0  0  0  0  0  0  0
   -1.4494   -0.5942   -1.0116 O   0  0  0  0  0  0  0  0  0  0  0  0
   -1.6795   -2.2846   -2.1741 O   0  0  0  0  0  0  0  0  0  0  0  0
   -1.6649   -1.4255   -7.1620 O   0  0  0  0  0  0  0  0  0  0  0  0
   -0.6508   -0.7447   -6.9717 C   0  0  0  0  0  0  0  0  0  0  0  0
    0.1338   -0.2736   -8.1653 C   0  0  0  0  0  0  0  0  0  0  0  0
    1.3194   -0.9118   -8.5313 C   0  0  0  0  0  0  0  0  0  0  0  0
    2.0790   -0.5409   -9.6317 C   0  0  0  0  0  0  0  0  0  0  0  0
    1.7141    0.5450  -10.3974 C   0  0  0  0  0  0  0  0  0  0  0  0
    2.5370    0.9455  -11.5254 C   0  0  0  0  0  0  0  0  0  0  0  0
    0.5506    1.2066  -10.0139 C   0  0  0  0  0  0  0  0  0  0  0  0
   -0.2667    0.8299   -8.9520 C   0  0  0  0  0  0  0  0  0  0  0  0
 14 15  2  0  0  0
 15  1  1  0  0  0
 15 16  1  0  0  0
  1  2  2  0  0  0
  1  5  1  0  0  0
  2  3  1  0  0  0
  3  4  1  0  0  0
  3  7  2  0  0  0
  5  6  2  0  0  0
  6 11  1  0  0  0
  6  7  1  0  0  0
 11 12  1  0  0  0
 11 13  2  0  0  0
  7  8  1  0  0  0
 16 17  2  0  0  0
 16 22  1  0  0  0
 17 18  1  0  0  0
 18 19  2  0  0  0
 19 20  1  0  0  0
 19 21  1  0  0  0
 21 22  2  0  0  0
  4  9  1  0  0  0
  8 10  1  0  0  0
M  CHG 1  11   1
M  CHG 1  12  -1
M  END
> <minimizedAffinity>
-7.67110

$$$$
4D7B_TCW_A_1126


 22 23  0  0  0  0  0  0  0  0999 V2000
   -0.5228   -0.4778   -5.6664 C   0  0  0  0  0  0  0  0  0  0  0  0
   -1.0536   -1.3047   -4.6741 C   0  0  0  0  0  0  0  0  0  0  0  0
   -0.7492   -1.0621   -3.3350 C   0  0  0  0  0  0  0  0  0  0  0  0
   -1.3145   -1.8201   -2.3436 O   0  0  0  0  0  0  0  0  0  0  0  0
    0.3436    0.5584   -5.3138 C   0  0  0  0  0  0  0  0  0  0  0  0
    0.6222    0.8264   -3.9624 C   0  0  0  0  0  0  0  0  0  0  0  0
    0.0679    0.0138   -2.9561 C   0  0  0  0  0  0  0  0  0  0  0  0
    0.3455    0.2567   -1.6626 O   0  0  0  0  0  0  0  0  0  0  0  0
   -1.8650   -2.5454   -2.5646 H   0  0  0  0  0  0  0  0  0  0  0  0
   -0.0247   -0.2857   -0.9941 H   0  0  0  0  0  0  0  0  0  0  0  0
    1.5234    1.9881   -3.6525 N   0  0  0  0  0  0  0  0  0  0  0  0
    1.4663    2.5355   -2.6022 O   0  0  0  0  0  0  0  0  0  0  0  0
    2.2620    2.3391   -4.4969 O   0  0  0  0  0  0  0  0  0  0  0  0
   -1.8695   -1.3656   -7.4031 O   0  0  0  0  0  0  0  0  0  0  0  0
   -0.8250   -0.7766   -7.1031 C   0  0  0  0  0  0  0  0  0  0  0  0
    0.1092   -0.3615   -8.2064 C   0  0  0  0  0  0  0  0  0  0  0  0
   -0.2334    0.6777   -9.0722 C   0  0  0  0  0  0  0  0  0  0  0  0
    0.5906    1.1228  -10.0959 C   0  0  0  0  0  0  0  0  0  0  0  0
    1.7931    0.4979  -10.3454 C   0  0  0  0  0  0  0  0  0  0  0  0
    2.6306    0.9501  -11.4428 C   0  0  0  0  0  0  0  0  0  0  0  0
    2.1224   -0.5629   -9.5059 C   0  0  0  0  0  0  0  0  0  0  0  0
    1.3486   -1.0008   -8.4348 C   0  0  0  0  0  0  0  0  0  0  0  0
 14 15  2  0  0  0
 15  1  1  0  0  0
 15 16  1  0  0  0
  1  2  2  0  0  0
  1  5  1  0  0  0
  2  3  1  0  0  0
  3  4  1  0  0  0
  3  7  2  0  0  0
  5  6  2  0  0  0
  6 11  1  0  0  0
  6  7  1  0  0  0
 11 12  1  0  0  0
 11 13  2  0  0  0
  7  8  1  0  0  0
 16 17  2  0  0  0
 16 22  1  0  0  0
 17 18  1  0  0  0
 18 19  2  0  0  0
 19 20  1  0  0  0
 19 21  1  0  0  0
 21 22  2  0  0  0
  4  9  1  0  0  0
  8 10  1  0  0  0
M  CHG 1  11   1
M  CHG 1  12  -1
M  END
> <minimizedAffinity>
-7.59478

$$$$
4D7B_TCW_A_1126


 22 23  0  0  0  0  0  0  0  0999 V2000
    0.5498    0.6385   -8.3997 C   0  0  0  0  0  0  0  0  0  0  0  0
    1.6096    0.6026   -9.3083 C   0  0  0  0  0  0  0  0  0  0  0  0
    1.3656    0.2851  -10.6442 C   0  0  0  0  0  0  0  0  0  0  0  0
    2.3812    0.3115  -11.5633 O   0  0  0  0  0  0  0  0  0  0  0  0
   -0.7391    0.3135   -8.8261 C   0  0  0  0  0  0  0  0  0  0  0  0
   -0.9922    0.0290  -10.1792 C   0  0  0  0  0  0  0  0  0  0  0  0
    0.0674    0.0187  -11.1052 C   0  0  0  0  0  0  0  0  0  0  0  0
   -0.1680   -0.2696  -12.3977 O   0  0  0  0  0  0  0  0  0  0  0  0
    3.2591    0.4867  -11.2866 H   0  0  0  0  0  0  0  0  0  0  0  0
    0.5390   -0.2759  -13.0126 H   0  0  0  0  0  0  0  0  0  0  0  0
   -2.4112   -0.2634  -10.5775 N   0  0  0  0  0  0  0  0  0  0  0  0
   -2.6694   -1.2044  -11.2513 O   0  0  0  0  0  0  0  0  0  0  0  0
   -3.2399    0.4870  -10.2141 O   0  0  0  0  0  0  0  0  0  0  0  0
    1.6494    1.8203   -6.6642 O   0  0  0  0  0  0  0  0  0  0  0  0
    0.8338    0.9398   -6.9598 C   0  0  0  0  0  0  0  0  0  0  0  0
    0.1350    0.2043   -5.8494 C   0  0  0  0  0  0  0  0  0  0  0  0
   -1.1649    0.5499   -5.4782 C   0  0  0  0  0  0  0  0  0  0  0  0
   -1.8727   -0.1009   -4.4779 C   0  0  0  0  0  0  0  0  0  0  0  0
   -1.2810   -1.1076   -3.7463 C   0  0  0  0  0  0  0  0  0  0  0  0
   -2.0201   -1.7570   -2.6775 C   0  0  0  0  0  0  0  0  0  0  0  0
    0.0287   -1.4313   -4.0900 C   0  0  0  0  0  0  0  0  0  0  0  0
    0.7503   -0.8401   -5.1232 C   0  0  0  0  0  0  0  0  0  0  0  0
 14 15  2  0  0  0
 15  1  1  0  0  0
 15 16  1  0  0  0
  1  2  2  0  0  0
  1  5  1  0  0  0
  2  3  1  0  0  0
  3  4  1  0  0  0
  3  7  2  0  0  0
  5  6  2  0  0  0
  6 11  1  0  0  0
  6  7  1  0  0  0
 11 12  1  0  0  0
 11 13  2  0  0  0
  7  8  1  0  0  0
 16 17  2  0  0  0
 16 22  1  0  0  0
 17 18  1  0  0  0
 18 19  2  0  0  0
 19 20  1  0  0  0
 19 21  1  0  0  0
 21 22  2  0  0  0
  4  9  1  0  0  0
  8 10  1  0  0  0
M  CHG 1  11   1
M  CHG 1  12  -1
M  END
> <minimizedAffinity>
-7.56901

$$$$
4D7B_TCW_A_1126


 22 23  0  0  0  0  0  0  0  0999 V2000
   -0.5453   -0.6328   -8.3634 C   0  0  0  0  0  0  0  0  0  0  0  0
   -1.6120   -0.5925   -9.2638 C   0  0  0  0  0  0  0  0  0  0  0  0
   -1.3771   -0.2760  -10.6015 C   0  0  0  0  0  0  0  0  0  0  0  0
   -2.4000   -0.2982  -11.5127 O   0  0  0  0  0  0  0  0  0  0  0  0
    0.7415   -0.3132   -8.7999 C   0  0  0  0  0  0  0  0  0  0  0  0
    0.9852   -0.0297  -10.1549 C   0  0  0  0  0  0  0  0  0  0  0  0
   -0.0815   -0.0149  -11.0726 C   0  0  0  0  0  0  0  0  0  0  0  0
    0.1451    0.2724  -12.3669 O   0  0  0  0  0  0  0  0  0  0  0  0
   -3.2764   -0.4697  -11.2292 H   0  0  0  0  0  0  0  0  0  0  0  0
   -0.5667    0.2817  -12.9763 H   0  0  0  0  0  0  0  0  0  0  0  0
    2.4023    0.2568  -10.5642 N   0  0  0  0  0  0  0  0  0  0  0  0
    2.6582    1.1922  -11.2467 O   0  0  0  0  0  0  0  0  0  0  0  0
    3.2318   -0.4924  -10.2002 O   0  0  0  0  0  0  0  0  0  0  0  0
   -1.6833   -1.7637   -6.6186 O   0  0  0  0  0  0  0  0  0  0  0  0
   -0.8194   -0.9330   -6.9214 C   0  0  0  0  0  0  0  0  0  0  0  0
   -0.0536   -0.2566   -5.8176 C   0  0  0  0  0  0  0  0  0  0  0  0
   -0.6241    0.7952   -5.1000 C   0  0  0  0  0  0  0  0  0  0  0  0
    0.0194    1.4474   -4.0580 C   0  0  0  0  0  0  0  0  0  0  0  0
    1.3120    1.1126   -3.7177 C   0  0  0  0  0  0  0  0  0  0  0  0
    1.9879    1.8270   -2.6486 C   0  0  0  0  0  0  0  0  0  0  0  0
    1.8978    0.0873   -4.4553 C   0  0  0  0  0  0  0  0  0  0  0  0
    1.2646   -0.6272   -5.4683 C   0  0  0  0  0  0  0  0  0  0  0  0
 14 15  2  0  0  0
 15  1  1  0  0  0
 15 16  1  0  0  0
  1  2  2  0  0  0
  1  5  1  0  0  0
  2  3  1  0  0  0
  3  4  1  0  0  0
  3  7  2  0  0  0
  5  6  2  0  0  0
  6 11  1  0  0  0
  6  7  1  0  0  0
 11 12  1  0  0  0
 11 13  2  0  0  0
  7  8  1  0  0  0
 16 17  2  0  0  0
 16 22  1  0  0  0
 17 18  1  0  0  0
 18 19  2  0  0  0
 19 20  1  0  0  0
 19 21  1  0  0  0
 21 22  2  0  0  0
  4  9  1  0  0  0
  8 10  1  0  0  0
M  CHG 1  11   1
M  CHG 1  12  -1
M  END
> <minimizedAffinity>
-7.56256

$$$$
4D7B_TCW_A_1126


 22 23  0  0  0  0  0  0  0  0999 V2000
    0.3469    0.4621   -5.6078 C   0  0  0  0  0  0  0  0  0  0  0  0
    1.0684    1.0219   -4.5513 C   0  0  0  0  0  0  0  0  0  0  0  0
    0.7108    0.7271   -3.2360 C   0  0  0  0  0  0  0  0  0  0  0  0
    1.4483    1.2120   -2.1881 O   0  0  0  0  0  0  0  0  0  0  0  0
   -0.7538   -0.3531   -5.3392 C   0  0  0  0  0  0  0  0  0  0  0  0
   -1.0929   -0.6802   -4.0149 C   0  0  0  0  0  0  0  0  0  0  0  0
   -0.3523   -0.1416   -2.9464 C   0  0  0  0  0  0  0  0  0  0  0  0
   -0.6840   -0.4387   -1.6772 O   0  0  0  0  0  0  0  0  0  0  0  0
    2.1647    1.7941   -2.3491 H   0  0  0  0  0  0  0  0  0  0  0  0
   -0.1895   -0.0789   -0.9673 H   0  0  0  0  0  0  0  0  0  0  0  0
   -2.2591   -1.6032   -3.8005 N   0  0  0  0  0  0  0  0  0  0  0  0
   -2.3457   -2.6200   -4.4044 O   0  0  0  0  0  0  0  0  0  0  0  0
   -3.0825   -1.2640   -3.0331 O   0  0  0  0  0  0  0  0  0  0  0  0
    1.7134    1.5204   -7.2298 O   0  0  0  0  0  0  0  0  0  0  0  0
    0.7167    0.8217   -7.0145 C   0  0  0  0  0  0  0  0  0  0  0  0
   -0.0900    0.3380   -8.1882 C   0  0  0  0  0  0  0  0  0  0  0  0
   -1.2658    0.9919   -8.5582 C   0  0  0  0  0  0  0  0  0  0  0  0
   -2.0444    0.6101   -9.6413 C   0  0  0  0  0  0  0  0  0  0  0  0
   -1.7103   -0.5019  -10.3833 C   0  0  0  0  0  0  0  0  0  0  0  0
   -2.5531   -0.9126  -11.4928 C   0  0  0  0  0  0  0  0  0  0  0  0
   -0.5570   -1.1783   -9.9951 C   0  0  0  0  0  0  0  0  0  0  0  0
    0.2791   -0.7928   -8.9510 C   0  0  0  0  0  0  0  0  0  0  0  0
 14 15  2  0  0  0
 15  1  1  0  0  0
 15 16  1  0  0  0
  1  2  2  0  0  0
  1  5  1  0  0  0
  2  3  1  0  0  0
  3  4  1  0  0  0
  3  7  2  0  0  0
  5  6  2  0  0  0
  6 11  1  0  0  0
  6  7  1  0  0  0
 11 12  1  0  0  0
 11 13  2  0  0  0
  7  8  1  0  0  0
 16 17  2  0  0  0
 16 22  1  0  0  0
 17 18  1  0  0  0
 18 19  2  0  0  0
 19 20  1  0  0  0
 19 21  1  0  0  0
 21 22  2  0  0  0
  4  9  1  0  0  0
  8 10  1  0  0  0
M  CHG 1  11   1
M  CHG 1  12  -1
M  END
> <minimizedAffinity>
-7.53245

$$$$
4D7B_TCW_A_1126


 22 23  0  0  0  0  0  0  0  0999 V2000
    0.0343   -0.5085   -8.0121 C   0  0  0  0  0  0  0  0  0  0  0  0
    1.4143   -0.5801   -8.2139 C   0  0  0  0  0  0  0  0  0  0  0  0
    1.9332   -0.4496   -9.5017 C   0  0  0  0  0  0  0  0  0  0  0  0
    3.2872   -0.4489   -9.7106 O   0  0  0  0  0  0  0  0  0  0  0  0
   -0.8181   -0.3507   -9.1062 C   0  0  0  0  0  0  0  0  0  0  0  0
   -0.2946   -0.1826  -10.3999 C   0  0  0  0  0  0  0  0  0  0  0  0
    1.0968   -0.2258  -10.6059 C   0  0  0  0  0  0  0  0  0  0  0  0
    1.6009   -0.0822  -11.8446 O   0  0  0  0  0  0  0  0  0  0  0  0
    3.8719   -0.5954   -8.9932 H   0  0  0  0  0  0  0  0  0  0  0  0
    2.5277   -0.1113  -11.9796 H   0  0  0  0  0  0  0  0  0  0  0  0
   -1.2678    0.0325  -11.5243 N   0  0  0  0  0  0  0  0  0  0  0  0
   -0.8848    0.3049  -12.6130 O   0  0  0  0  0  0  0  0  0  0  0  0
   -2.4125   -0.0581  -11.2727 O   0  0  0  0  0  0  0  0  0  0  0  0
   -1.4933   -1.4200   -6.4457 O   0  0  0  0  0  0  0  0  0  0  0  0
   -0.5107   -0.6926   -6.6288 C   0  0  0  0  0  0  0  0  0  0  0  0
    0.1203   -0.0231   -5.4389 C   0  0  0  0  0  0  0  0  0  0  0  0
    1.0145    1.0341   -5.6116 C   0  0  0  0  0  0  0  0  0  0  0  0
    1.6147    1.7075   -4.5574 C   0  0  0  0  0  0  0  0  0  0  0  0
    1.3920    1.3086   -3.2574 C   0  0  0  0  0  0  0  0  0  0  0  0
    2.0544    1.9988   -2.1643 C   0  0  0  0  0  0  0  0  0  0  0  0
    0.5280    0.2309   -3.0828 C   0  0  0  0  0  0  0  0  0  0  0  0
   -0.1359   -0.4324   -4.1108 C   0  0  0  0  0  0  0  0  0  0  0  0
 14 15  2  0  0  0
 15  1  1  0  0  0
 15 16  1  0  0  0
  1  2  2  0  0  0
  1  5  1  0  0  0
  2  3  1  0  0  0
  3  4  1  0  0  0
  3  7  2  0  0  0
  5  6  2  0  0  0
  6 11  1  0  0  0
  6  7  1  0  0  0
 11 12  1  0  0  0
 11 13  2  0  0  0
  7  8  1  0  0  0
 16 17  2  0  0  0
 16 22  1  0  0  0
 17 18  1  0  0  0
 18 19  2  0  0  0
 19 20  1  0  0  0
 19 21  1  0  0  0
 21 22  2  0  0  0
  4  9  1  0  0  0
  8 10  1  0  0  0
M  CHG 1  11   1
M  CHG 1  12  -1
M  END
> <minimizedAffinity>
-7.28087

$$$$
4D7B_TCW_A_1126


 22 23  0  0  0  0  0  0  0  0999 V2000
    0.3563    0.5665   -7.5012 C   0  0  0  0  0  0  0  0  0  0  0  0
   -0.9557    0.5507   -7.9792 C   0  0  0  0  0  0  0  0  0  0  0  0
   -1.1917    0.4564   -9.3504 C   0  0  0  0  0  0  0  0  0  0  0  0
   -2.4712    0.3708   -9.8328 O   0  0  0  0  0  0  0  0  0  0  0  0
    1.4219    0.5320   -8.4023 C   0  0  0  0  0  0  0  0  0  0  0  0
    1.1856    0.4002   -9.7816 C   0  0  0  0  0  0  0  0  0  0  0  0
   -0.1344    0.3556  -10.2672 C   0  0  0  0  0  0  0  0  0  0  0  0
   -0.3648    0.2465  -11.5879 O   0  0  0  0  0  0  0  0  0  0  0  0
   -3.1985    0.4345   -9.2456 H   0  0  0  0  0  0  0  0  0  0  0  0
   -1.2446    0.2169  -11.9091 H   0  0  0  0  0  0  0  0  0  0  0  0
    2.3799    0.3190  -10.6898 N   0  0  0  0  0  0  0  0  0  0  0  0
    2.4586    1.0104  -11.6500 O   0  0  0  0  0  0  0  0  0  0  0  0
    3.2108   -0.4676  -10.4206 O   0  0  0  0  0  0  0  0  0  0  0  0
    1.4305    1.5225   -5.6169 O   0  0  0  0  0  0  0  0  0  0  0  0
    0.5942    0.7108   -6.0290 C   0  0  0  0  0  0  0  0  0  0  0  0
   -0.1758   -0.1015   -5.0243 C   0  0  0  0  0  0  0  0  0  0  0  0
   -0.0226    0.1314   -3.6571 C   0  0  0  0  0  0  0  0  0  0  0  0
   -0.7174   -0.5672   -2.6801 C   0  0  0  0  0  0  0  0  0  0  0  0
   -1.5693   -1.5928   -3.0283 C   0  0  0  0  0  0  0  0  0  0  0  0
   -2.2635   -2.3405   -1.9944 C   0  0  0  0  0  0  0  0  0  0  0  0
   -1.6975   -1.8520   -4.3902 C   0  0  0  0  0  0  0  0  0  0  0  0
   -1.0613   -1.1365   -5.4006 C   0  0  0  0  0  0  0  0  0  0  0  0
 14 15  2  0  0  0
 15  1  1  0  0  0
 15 16  1  0  0  0
  1  2  2  0  0  0
  1  5  1  0  0  0
  2  3  1  0  0  0
  3  4  1  0  0  0
  3  7  2  0  0  0
  5  6  2  0  0  0
  6 11  1  0  0  0
  6  7  1  0  0  0
 11 12  1  0  0  0
 11 13  2  0  0  0
  7  8  1  0  0  0
 16 17  2  0  0  0
 16 22  1  0  0  0
 17 18  1  0  0  0
 18 19  2  0  0  0
 19 20  1  0  0  0
 19 21  1  0  0  0
 21 22  2  0  0  0
  4  9  1  0  0  0
  8 10  1  0  0  0
M  CHG 1  11   1
M  CHG 1  12  -1
M  END
> <minimizedAffinity>
-7.25630

$$$$
4D7B_TCW_A_1126


 22 23  0  0  0  0  0  0  0  0999 V2000
    0.3011    0.0584   -6.0687 C   0  0  0  0  0  0  0  0  0  0  0  0
    1.3422   -0.3064   -6.9248 C   0  0  0  0  0  0  0  0  0  0  0  0
    1.1789   -0.1845   -8.3044 C   0  0  0  0  0  0  0  0  0  0  0  0
    2.2122   -0.4727   -9.1565 O   0  0  0  0  0  0  0  0  0  0  0  0
   -0.9108    0.5009   -6.6017 C   0  0  0  0  0  0  0  0  0  0  0  0
   -1.0641    0.6587   -7.9900 C   0  0  0  0  0  0  0  0  0  0  0  0
   -0.0086    0.3192   -8.8566 C   0  0  0  0  0  0  0  0  0  0  0  0
   -0.1572    0.4528  -10.1867 O   0  0  0  0  0  0  0  0  0  0  0  0
    3.0181   -0.8104   -8.8182 H   0  0  0  0  0  0  0  0  0  0  0  0
    0.5469    0.2262  -10.7619 H   0  0  0  0  0  0  0  0  0  0  0  0
   -2.3784    1.1868   -8.4917 N   0  0  0  0  0  0  0  0  0  0  0  0
   -2.8620    0.7608   -9.4871 O   0  0  0  0  0  0  0  0  0  0  0  0
   -2.8870    2.0466   -7.8721 O   0  0  0  0  0  0  0  0  0  0  0  0
    0.2140   -1.2055   -4.0654 O   0  0  0  0  0  0  0  0  0  0  0  0
    0.4763   -0.1180   -4.5912 C   0  0  0  0  0  0  0  0  0  0  0  0
    0.9839    0.9983   -3.7203 C   0  0  0  0  0  0  0  0  0  0  0  0
    1.5524    0.7243   -2.4759 C   0  0  0  0  0  0  0  0  0  0  0  0
    2.0579    1.7045   -1.6339 C   0  0  0  0  0  0  0  0  0  0  0  0
    1.9620    3.0358   -1.9764 C   0  0  0  0  0  0  0  0  0  0  0  0
    2.4625    4.0549   -1.0702 C   0  0  0  0  0  0  0  0  0  0  0  0
    1.3629    3.3155   -3.2016 C   0  0  0  0  0  0  0  0  0  0  0  0
    0.8960    2.3575   -4.0970 C   0  0  0  0  0  0  0  0  0  0  0  0
 14 15  2  0  0  0
 15  1  1  0  0  0
 15 16  1  0  0  0
  1  2  2  0  0  0
  1  5  1  0  0  0
  2  3  1  0  0  0
  3  4  1  0  0  0
  3  7  2  0  0  0
  5  6  2  0  0  0
  6 11  1  0  0  0
  6  7  1  0  0  0
 11 12  1  0  0  0
 11 13  2  0  0  0
  7  8  1  0  0  0
 16 17  2  0  0  0
 16 22  1  0  0  0
 17 18  1  0  0  0
 18 19  2  0  0  0
 19 20  1  0  0  0
 19 21  1  0  0  0
 21 22  2  0  0  0
  4  9  1  0  0  0
  8 10  1  0  0  0
M  CHG 1  11   1
M  CHG 1  12  -1
M  END
> <minimizedAffinity>
-7.23320

$$$$
4D7B_TCW_A_1126


 22 23  0  0  0  0  0  0  0  0999 V2000
   -0.2186   -0.0754   -5.9896 C   0  0  0  0  0  0  0  0  0  0  0  0
    0.9836   -0.5665   -6.5030 C   0  0  0  0  0  0  0  0  0  0  0  0
    1.1128   -0.7850   -7.8742 C   0  0  0  0  0  0  0  0  0  0  0  0
    2.3057   -1.2014   -8.4040 O   0  0  0  0  0  0  0  0  0  0  0  0
   -1.2963    0.1516   -6.8473 C   0  0  0  0  0  0  0  0  0  0  0  0
   -1.1558   -0.0334   -8.2336 C   0  0  0  0  0  0  0  0  0  0  0  0
    0.0623   -0.5016   -8.7601 C   0  0  0  0  0  0  0  0  0  0  0  0
    0.1954   -0.6961  -10.0844 O   0  0  0  0  0  0  0  0  0  0  0  0
    3.0263   -1.3984   -7.8384 H   0  0  0  0  0  0  0  0  0  0  0  0
    1.0074   -1.0079  -10.4329 H   0  0  0  0  0  0  0  0  0  0  0  0
   -2.3412    0.2777   -9.1031 N   0  0  0  0  0  0  0  0  0  0  0  0
   -2.6984   -0.4869   -9.9362 O   0  0  0  0  0  0  0  0  0  0  0  0
   -2.8769    1.3107   -8.9367 O   0  0  0  0  0  0  0  0  0  0  0  0
   -0.0214    1.1857   -3.9924 O   0  0  0  0  0  0  0  0  0  0  0  0
   -0.3562    0.1141   -4.5098 C   0  0  0  0  0  0  0  0  0  0  0  0
   -0.9118   -0.9688   -3.6262 C   0  0  0  0  0  0  0  0  0  0  0  0
   -0.8268   -2.3083   -4.0075 C   0  0  0  0  0  0  0  0  0  0  0  0
   -1.3001   -3.3558   -3.2303 C   0  0  0  0  0  0  0  0  0  0  0  0
   -1.9477   -3.1045   -2.0402 C   0  0  0  0  0  0  0  0  0  0  0  0
   -2.4706   -4.2076   -1.2530 C   0  0  0  0  0  0  0  0  0  0  0  0
   -2.0662   -1.7667   -1.6735 C   0  0  0  0  0  0  0  0  0  0  0  0
   -1.5548   -0.6938   -2.3983 C   0  0  0  0  0  0  0  0  0  0  0  0
 14 15  2  0  0  0
 15  1  1  0  0  0
 15 16  1  0  0  0
  1  2  2  0  0  0
  1  5  1  0  0  0
  2  3  1  0  0  0
  3  4  1  0  0  0
  3  7  2  0  0  0
  5  6  2  0  0  0
  6 11  1  0  0  0
  6  7  1  0  0  0
 11 12  1  0  0  0
 11 13  2  0  0  0
  7  8  1  0  0  0
 16 17  2  0  0  0
 16 22  1  0  0  0
 17 18  1  0  0  0
 18 19  2  0  0  0
 19 20  1  0  0  0
 19 21  1  0  0  0
 21 22  2  0  0  0
  4  9  1  0  0  0
  8 10  1  0  0  0
M  CHG 1  11   1
M  CHG 1  12  -1
M  END
> <minimizedAffinity>
-7.20015

$$$$
