5FNR_XMS_A_1614


 23 25  0  0  0  0  0  0  0  0999 V2000
   17.0311   64.3059   26.7312 C   0  0  0  0  0  0  0  0  0  0  0  0
   10.9631   62.5574   24.0669 C   0  0  0  0  0  0  0  0  0  0  0  0
   12.0851   62.2230   24.9339 N   0  0  0  0  0  0  0  0  0  0  0  0
   12.1010   61.0452   25.6129 N   0  0  0  0  0  0  0  0  0  0  0  0
   13.2238   61.0086   26.3107 N   0  0  0  0  0  0  0  0  0  0  0  0
   13.9373   62.1494   26.0930 C   0  0  0  0  0  0  0  0  0  0  0  0
   15.1816   62.6122   26.5803 C   0  0  0  0  0  0  0  0  0  0  0  0
   15.6842   63.8560   26.1753 C   0  0  0  0  0  0  0  0  0  0  0  0
   14.9315   64.6269   25.2826 C   0  0  0  0  0  0  0  0  0  0  0  0
   13.7049   64.1787   24.7986 C   0  0  0  0  0  0  0  0  0  0  0  0
   13.2083   62.9342   25.2069 C   0  0  0  0  0  0  0  0  0  0  0  0
   16.9737   64.4396   28.2450 C   0  0  0  0  0  0  0  0  0  0  0  0
   18.1449   64.2870   28.9811 C   0  0  0  0  0  0  0  0  0  0  0  0
   18.1326   64.4014   30.3603 C   0  0  0  0  0  0  0  0  0  0  0  0
   16.9522   64.6669   31.0094 C   0  0  0  0  0  0  0  0  0  0  0  0
   16.9415   64.8092   32.7439 Cl  0  0  0  0  0  0  0  0  0  0  0  0
   15.7766   64.8224   30.3064 C   0  0  0  0  0  0  0  0  0  0  0  0
   15.7869   64.7087   28.9252 C   0  0  0  0  0  0  0  0  0  0  0  0
   17.6131   65.5544   26.0693 C   0  0  0  0  0  0  0  0  0  0  0  0
   18.0548   65.3133   24.6318 C   0  0  0  0  0  0  0  0  0  0  0  0
   17.8758   66.2360   23.8116 O   0  0  0  0  0  0  0  0  0  0  0  0
   18.5681   64.2091   24.3517 O   0  0  0  0  0  0  0  0  0  0  0  0
   18.6733   63.5588   25.0181 H   0  0  0  0  0  0  0  0  0  0  0  0
  2  3  1  0  0  0
  3 11  1  0  0  0
  3  4  1  0  0  0
  4  5  2  0  0  0
  6  5  1  0  0  0
 11  6  1  0  0  0
  6  7  2  0  0  0
  8  7  1  0  0  0
  9  8  2  0  0  0
  8  1  1  0  0  0
 10  9  1  0  0  0
 10 11  2  0  0  0
 19  1  1  0  0  0
  1 12  1  0  0  0
 20 19  1  0  0  0
 21 20  2  0  0  0
 22 20  1  0  0  0
 12 18  2  0  0  0
 12 13  1  0  0  0
 13 14  2  0  0  0
 14 15  1  0  0  0
 17 15  2  0  0  0
 15 16  1  0  0  0
 18 17  1  0  0  0
 22 23  1  0  0  0
M  END
> <minimizedAffinity>
-8.75341

$$$$
5FNR_XMS_A_1614


 23 25  0  0  0  0  0  0  0  0999 V2000
   15.0884   63.6477   27.0834 C   0  0  0  0  0  0  0  0  0  0  0  0
   12.9349   66.1718   33.0807 C   0  0  0  0  0  0  0  0  0  0  0  0
   12.6081   65.6075   31.7779 N   0  0  0  0  0  0  0  0  0  0  0  0
   11.3107   65.4262   31.4140 N   0  0  0  0  0  0  0  0  0  0  0  0
   11.3122   64.9059   30.1983 N   0  0  0  0  0  0  0  0  0  0  0  0
   12.5959   64.7467   29.7684 C   0  0  0  0  0  0  0  0  0  0  0  0
   13.1523   64.2443   28.5692 C   0  0  0  0  0  0  0  0  0  0  0  0
   14.5421   64.1985   28.3964 C   0  0  0  0  0  0  0  0  0  0  0  0
   15.3639   64.6582   29.4314 C   0  0  0  0  0  0  0  0  0  0  0  0
   14.8239   65.1538   30.6156 C   0  0  0  0  0  0  0  0  0  0  0  0
   13.4337   65.1974   30.7820 C   0  0  0  0  0  0  0  0  0  0  0  0
   13.9615   63.1265   26.2053 C   0  0  0  0  0  0  0  0  0  0  0  0
   13.4941   63.9225   25.1637 C   0  0  0  0  0  0  0  0  0  0  0  0
   12.4699   63.4826   24.3433 C   0  0  0  0  0  0  0  0  0  0  0  0
   11.9080   62.2488   24.5600 C   0  0  0  0  0  0  0  0  0  0  0  0
   10.6200   61.7002   23.5261 Cl  0  0  0  0  0  0  0  0  0  0  0  0
   12.3503   61.4391   25.5844 C   0  0  0  0  0  0  0  0  0  0  0  0
   13.3761   61.8774   26.4068 C   0  0  0  0  0  0  0  0  0  0  0  0
   16.2133   62.6247   27.2361 C   0  0  0  0  0  0  0  0  0  0  0  0
   17.5710   63.1664   26.8083 C   0  0  0  0  0  0  0  0  0  0  0  0
   17.7169   63.4726   25.6078 O   0  0  0  0  0  0  0  0  0  0  0  0
   18.4622   63.2725   27.6776 O   0  0  0  0  0  0  0  0  0  0  0  0
   18.2847   63.0237   28.5633 H   0  0  0  0  0  0  0  0  0  0  0  0
  2  3  1  0  0  0
  3 11  1  0  0  0
  3  4  1  0  0  0
  4  5  2  0  0  0
  6  5  1  0  0  0
 11  6  1  0  0  0
  6  7  2  0  0  0
  8  7  1  0  0  0
  9  8  2  0  0  0
  8  1  1  0  0  0
 10  9  1  0  0  0
 10 11  2  0  0  0
 19  1  1  0  0  0
  1 12  1  0  0  0
 20 19  1  0  0  0
 21 20  2  0  0  0
 22 20  1  0  0  0
 12 18  2  0  0  0
 12 13  1  0  0  0
 13 14  2  0  0  0
 14 15  1  0  0  0
 17 15  2  0  0  0
 15 16  1  0  0  0
 18 17  1  0  0  0
 22 23  1  0  0  0
M  END
> <minimizedAffinity>
-8.51734

$$$$
5FNR_XMS_A_1614


 23 25  0  0  0  0  0  0  0  0999 V2000
   17.3630   64.6309   30.7241 C   0  0  0  0  0  0  0  0  0  0  0  0
   20.3891   62.4069   36.4576 C   0  0  0  0  0  0  0  0  0  0  0  0
   20.5137   62.8508   35.0756 N   0  0  0  0  0  0  0  0  0  0  0  0
   21.7354   62.9145   34.4824 N   0  0  0  0  0  0  0  0  0  0  0  0
   21.5501   63.3438   33.2453 N   0  0  0  0  0  0  0  0  0  0  0  0
   20.2219   63.5600   33.0283 C   0  0  0  0  0  0  0  0  0  0  0  0
   19.4930   64.0111   31.9035 C   0  0  0  0  0  0  0  0  0  0  0  0
   18.0992   64.1406   31.9664 C   0  0  0  0  0  0  0  0  0  0  0  0
   17.4469   63.8156   33.1609 C   0  0  0  0  0  0  0  0  0  0  0  0
   18.1575   63.3713   34.2733 C   0  0  0  0  0  0  0  0  0  0  0  0
   19.5506   63.2436   34.2039 C   0  0  0  0  0  0  0  0  0  0  0  0
   16.0017   65.2004   31.0919 C   0  0  0  0  0  0  0  0  0  0  0  0
   14.9124   64.9310   30.2687 C   0  0  0  0  0  0  0  0  0  0  0  0
   13.6579   65.4318   30.5704 C   0  0  0  0  0  0  0  0  0  0  0  0
   13.4865   66.2037   31.6928 C   0  0  0  0  0  0  0  0  0  0  0  0
   11.9073   66.8317   32.0678 Cl  0  0  0  0  0  0  0  0  0  0  0  0
   14.5473   66.4873   32.5263 C   0  0  0  0  0  0  0  0  0  0  0  0
   15.8042   65.9864   32.2263 C   0  0  0  0  0  0  0  0  0  0  0  0
   17.2677   63.6102   29.5907 C   0  0  0  0  0  0  0  0  0  0  0  0
   18.0946   63.9973   28.3717 C   0  0  0  0  0  0  0  0  0  0  0  0
   18.5455   65.1596   28.3268 O   0  0  0  0  0  0  0  0  0  0  0  0
   18.2744   63.1353   27.4852 O   0  0  0  0  0  0  0  0  0  0  0  0
   17.9063   62.2792   27.5828 H   0  0  0  0  0  0  0  0  0  0  0  0
  2  3  1  0  0  0
  3 11  1  0  0  0
  3  4  1  0  0  0
  4  5  2  0  0  0
  6  5  1  0  0  0
 11  6  1  0  0  0
  6  7  2  0  0  0
  8  7  1  0  0  0
  9  8  2  0  0  0
  8  1  1  0  0  0
 10  9  1  0  0  0
 10 11  2  0  0  0
 19  1  1  0  0  0
  1 12  1  0  0  0
 20 19  1  0  0  0
 21 20  2  0  0  0
 22 20  1  0  0  0
 12 18  2  0  0  0
 12 13  1  0  0  0
 13 14  2  0  0  0
 14 15  1  0  0  0
 17 15  2  0  0  0
 15 16  1  0  0  0
 18 17  1  0  0  0
 22 23  1  0  0  0
M  END
> <minimizedAffinity>
-8.39110

$$$$
5FNR_XMS_A_1614


 23 25  0  0  0  0  0  0  0  0999 V2000
   13.7037   62.9481   27.0365 C   0  0  0  0  0  0  0  0  0  0  0  0
   12.8656   66.4727   32.8547 C   0  0  0  0  0  0  0  0  0  0  0  0
   12.2720   65.7111   31.7638 N   0  0  0  0  0  0  0  0  0  0  0  0
   10.9287   65.5052   31.7215 N   0  0  0  0  0  0  0  0  0  0  0  0
   10.6739   64.7930   30.6368 N   0  0  0  0  0  0  0  0  0  0  0  0
   11.8365   64.5336   29.9741 C   0  0  0  0  0  0  0  0  0  0  0  0
   12.1268   63.8280   28.7834 C   0  0  0  0  0  0  0  0  0  0  0  0
   13.4472   63.7199   28.3266 C   0  0  0  0  0  0  0  0  0  0  0  0
   14.4675   64.3221   29.0709 C   0  0  0  0  0  0  0  0  0  0  0  0
   14.1900   65.0182   30.2448 C   0  0  0  0  0  0  0  0  0  0  0  0
   12.8681   65.1231   30.6958 C   0  0  0  0  0  0  0  0  0  0  0  0
   14.9638   63.4493   26.3483 C   0  0  0  0  0  0  0  0  0  0  0  0
   14.8572   64.4591   25.3966 C   0  0  0  0  0  0  0  0  0  0  0  0
   15.9814   64.9411   24.7489 C   0  0  0  0  0  0  0  0  0  0  0  0
   17.2146   64.4166   25.0474 C   0  0  0  0  0  0  0  0  0  0  0  0
   18.6253   65.0255   24.2300 Cl  0  0  0  0  0  0  0  0  0  0  0  0
   17.3505   63.4155   25.9853 C   0  0  0  0  0  0  0  0  0  0  0  0
   16.2261   62.9317   26.6354 C   0  0  0  0  0  0  0  0  0  0  0  0
   12.5149   62.8883   26.0781 C   0  0  0  0  0  0  0  0  0  0  0  0
   12.2201   61.4778   25.5848 C   0  0  0  0  0  0  0  0  0  0  0  0
   12.8081   60.5347   26.1512 O   0  0  0  0  0  0  0  0  0  0  0  0
   11.4111   61.3416   24.6423 O   0  0  0  0  0  0  0  0  0  0  0  0
   11.0041   62.0949   24.2616 H   0  0  0  0  0  0  0  0  0  0  0  0
  2  3  1  0  0  0
  3 11  1  0  0  0
  3  4  1  0  0  0
  4  5  2  0  0  0
  6  5  1  0  0  0
 11  6  1  0  0  0
  6  7  2  0  0  0
  8  7  1  0  0  0
  9  8  2  0  0  0
  8  1  1  0  0  0
 10  9  1  0  0  0
 10 11  2  0  0  0
 19  1  1  0  0  0
  1 12  1  0  0  0
 20 19  1  0  0  0
 21 20  2  0  0  0
 22 20  1  0  0  0
 12 18  2  0  0  0
 12 13  1  0  0  0
 13 14  2  0  0  0
 14 15  1  0  0  0
 17 15  2  0  0  0
 15 16  1  0  0  0
 18 17  1  0  0  0
 22 23  1  0  0  0
M  END
> <minimizedAffinity>
-8.30742

$$$$
5FNR_XMS_A_1614


 23 25  0  0  0  0  0  0  0  0999 V2000
   13.7263   62.8526   27.2690 C   0  0  0  0  0  0  0  0  0  0  0  0
   12.6499   66.0273   33.2472 C   0  0  0  0  0  0  0  0  0  0  0  0
   13.5465   65.7336   32.1371 N   0  0  0  0  0  0  0  0  0  0  0  0
   14.8031   66.2522   32.1138 N   0  0  0  0  0  0  0  0  0  0  0  0
   15.3842   65.8253   31.0052 N   0  0  0  0  0  0  0  0  0  0  0  0
   14.5192   65.0356   30.3079 C   0  0  0  0  0  0  0  0  0  0  0  0
   14.6295   64.3383   29.0826 C   0  0  0  0  0  0  0  0  0  0  0  0
   13.5530   63.5850   28.5953 C   0  0  0  0  0  0  0  0  0  0  0  0
   12.3718   63.5382   29.3439 C   0  0  0  0  0  0  0  0  0  0  0  0
   12.2549   64.2226   30.5512 C   0  0  0  0  0  0  0  0  0  0  0  0
   13.3348   64.9734   31.0330 C   0  0  0  0  0  0  0  0  0  0  0  0
   14.9487   63.3656   26.5239 C   0  0  0  0  0  0  0  0  0  0  0  0
   14.7895   64.3778   25.5820 C   0  0  0  0  0  0  0  0  0  0  0  0
   15.8781   64.8706   24.8836 C   0  0  0  0  0  0  0  0  0  0  0  0
   17.1280   64.3546   25.1214 C   0  0  0  0  0  0  0  0  0  0  0  0
   18.4938   64.9770   24.2404 Cl  0  0  0  0  0  0  0  0  0  0  0  0
   17.3156   63.3513   26.0481 C   0  0  0  0  0  0  0  0  0  0  0  0
   16.2270   62.8568   26.7489 C   0  0  0  0  0  0  0  0  0  0  0  0
   12.4829   62.8320   26.3808 C   0  0  0  0  0  0  0  0  0  0  0  0
   12.2795   61.4980   25.6745 C   0  0  0  0  0  0  0  0  0  0  0  0
   12.8345   60.4951   26.1666 O   0  0  0  0  0  0  0  0  0  0  0  0
   11.5732   61.4801   24.6440 O   0  0  0  0  0  0  0  0  0  0  0  0
   11.1850   62.2722   24.3281 H   0  0  0  0  0  0  0  0  0  0  0  0
  2  3  1  0  0  0
  3 11  1  0  0  0
  3  4  1  0  0  0
  4  5  2  0  0  0
  6  5  1  0  0  0
 11  6  1  0  0  0
  6  7  2  0  0  0
  8  7  1  0  0  0
  9  8  2  0  0  0
  8  1  1  0  0  0
 10  9  1  0  0  0
 10 11  2  0  0  0
 19  1  1  0  0  0
  1 12  1  0  0  0
 20 19  1  0  0  0
 21 20  2  0  0  0
 22 20  1  0  0  0
 12 18  2  0  0  0
 12 13  1  0  0  0
 13 14  2  0  0  0
 14 15  1  0  0  0
 17 15  2  0  0  0
 15 16  1  0  0  0
 18 17  1  0  0  0
 22 23  1  0  0  0
M  END
> <minimizedAffinity>
-8.22977

$$$$
5FNR_XMS_A_1614


 23 25  0  0  0  0  0  0  0  0999 V2000
   17.8247   64.0341   30.6389 C   0  0  0  0  0  0  0  0  0  0  0  0
   12.0917   67.4853   32.1216 C   0  0  0  0  0  0  0  0  0  0  0  0
   12.8221   66.6196   31.2054 N   0  0  0  0  0  0  0  0  0  0  0  0
   12.2445   66.2022   30.0474 N   0  0  0  0  0  0  0  0  0  0  0  0
   13.1248   65.4392   29.4216 N   0  0  0  0  0  0  0  0  0  0  0  0
   14.2675   65.3557   30.1600 C   0  0  0  0  0  0  0  0  0  0  0  0
   15.4953   64.6838   29.9576 C   0  0  0  0  0  0  0  0  0  0  0  0
   16.5211   64.7785   30.9076 C   0  0  0  0  0  0  0  0  0  0  0  0
   16.3051   65.5484   32.0558 C   0  0  0  0  0  0  0  0  0  0  0  0
   15.0986   66.2127   32.2629 C   0  0  0  0  0  0  0  0  0  0  0  0
   14.0774   66.1145   31.3092 C   0  0  0  0  0  0  0  0  0  0  0  0
   18.5795   63.7809   31.9346 C   0  0  0  0  0  0  0  0  0  0  0  0
   19.5271   64.7090   32.3563 C   0  0  0  0  0  0  0  0  0  0  0  0
   20.2343   64.5133   33.5298 C   0  0  0  0  0  0  0  0  0  0  0  0
   19.9997   63.3911   34.2852 C   0  0  0  0  0  0  0  0  0  0  0  0
   20.8918   63.1490   35.7598 Cl  0  0  0  0  0  0  0  0  0  0  0  0
   19.0675   62.4546   33.8921 C   0  0  0  0  0  0  0  0  0  0  0  0
   18.3579   62.6489   32.7176 C   0  0  0  0  0  0  0  0  0  0  0  0
   18.7170   64.6683   29.5727 C   0  0  0  0  0  0  0  0  0  0  0  0
   18.2638   64.3514   28.1536 C   0  0  0  0  0  0  0  0  0  0  0  0
   17.9357   65.3101   27.4259 O   0  0  0  0  0  0  0  0  0  0  0  0
   18.2426   63.1542   27.7966 O   0  0  0  0  0  0  0  0  0  0  0  0
   18.5028   62.4821   28.3955 H   0  0  0  0  0  0  0  0  0  0  0  0
  2  3  1  0  0  0
  3 11  1  0  0  0
  3  4  1  0  0  0
  4  5  2  0  0  0
  6  5  1  0  0  0
 11  6  1  0  0  0
  6  7  2  0  0  0
  8  7  1  0  0  0
  9  8  2  0  0  0
  8  1  1  0  0  0
 10  9  1  0  0  0
 10 11  2  0  0  0
 19  1  1  0  0  0
  1 12  1  0  0  0
 20 19  1  0  0  0
 21 20  2  0  0  0
 22 20  1  0  0  0
 12 18  2  0  0  0
 12 13  1  0  0  0
 13 14  2  0  0  0
 14 15  1  0  0  0
 17 15  2  0  0  0
 15 16  1  0  0  0
 18 17  1  0  0  0
 22 23  1  0  0  0
M  END
> <minimizedAffinity>
-8.14446

$$$$
5FNR_XMS_A_1614


 23 25  0  0  0  0  0  0  0  0999 V2000
   17.6619   64.1196   30.6189 C   0  0  0  0  0  0  0  0  0  0  0  0
   11.4188   66.8914   31.1810 C   0  0  0  0  0  0  0  0  0  0  0  0
   12.7651   66.7368   31.7156 N   0  0  0  0  0  0  0  0  0  0  0  0
   13.1259   67.3724   32.8621 N   0  0  0  0  0  0  0  0  0  0  0  0
   14.3860   67.0554   33.1077 N   0  0  0  0  0  0  0  0  0  0  0  0
   14.8482   66.2214   32.1336 C   0  0  0  0  0  0  0  0  0  0  0  0
   16.0982   65.5964   31.9172 C   0  0  0  0  0  0  0  0  0  0  0  0
   16.2944   64.7687   30.8037 C   0  0  0  0  0  0  0  0  0  0  0  0
   15.2317   64.5749   29.9143 C   0  0  0  0  0  0  0  0  0  0  0  0
   13.9978   65.1872   30.1200 C   0  0  0  0  0  0  0  0  0  0  0  0
   13.8079   66.0131   31.2353 C   0  0  0  0  0  0  0  0  0  0  0  0
   18.3693   63.9594   31.9555 C   0  0  0  0  0  0  0  0  0  0  0  0
   19.4884   64.7417   32.2251 C   0  0  0  0  0  0  0  0  0  0  0  0
   20.1588   64.6243   33.4302 C   0  0  0  0  0  0  0  0  0  0  0  0
   19.7162   63.7257   34.3691 C   0  0  0  0  0  0  0  0  0  0  0  0
   20.5628   63.5813   35.8828 Cl  0  0  0  0  0  0  0  0  0  0  0  0
   18.6109   62.9375   34.1295 C   0  0  0  0  0  0  0  0  0  0  0  0
   17.9378   63.0537   32.9236 C   0  0  0  0  0  0  0  0  0  0  0  0
   18.5551   64.7918   29.5769 C   0  0  0  0  0  0  0  0  0  0  0  0
   18.1866   64.4163   28.1476 C   0  0  0  0  0  0  0  0  0  0  0  0
   17.7189   65.3139   27.4185 O   0  0  0  0  0  0  0  0  0  0  0  0
   18.3693   63.2348   27.7844 O   0  0  0  0  0  0  0  0  0  0  0  0
   18.7253   62.6098   28.3848 H   0  0  0  0  0  0  0  0  0  0  0  0
  2  3  1  0  0  0
  3 11  1  0  0  0
  3  4  1  0  0  0
  4  5  2  0  0  0
  6  5  1  0  0  0
 11  6  1  0  0  0
  6  7  2  0  0  0
  8  7  1  0  0  0
  9  8  2  0  0  0
  8  1  1  0  0  0
 10  9  1  0  0  0
 10 11  2  0  0  0
 19  1  1  0  0  0
  1 12  1  0  0  0
 20 19  1  0  0  0
 21 20  2  0  0  0
 22 20  1  0  0  0
 12 18  2  0  0  0
 12 13  1  0  0  0
 13 14  2  0  0  0
 14 15  1  0  0  0
 17 15  2  0  0  0
 15 16  1  0  0  0
 18 17  1  0  0  0
 22 23  1  0  0  0
M  END
> <minimizedAffinity>
-8.09434

$$$$
5FNR_XMS_A_1614


 23 25  0  0  0  0  0  0  0  0999 V2000
   16.7273   64.6966   29.3359 C   0  0  0  0  0  0  0  0  0  0  0  0
   18.6800   63.8513   35.8511 C   0  0  0  0  0  0  0  0  0  0  0  0
   18.8632   63.5224   34.4438 N   0  0  0  0  0  0  0  0  0  0  0  0
   19.8360   62.6522   34.0629 N   0  0  0  0  0  0  0  0  0  0  0  0
   19.7726   62.5430   32.7465 N   0  0  0  0  0  0  0  0  0  0  0  0
   18.7700   63.3326   32.2678 C   0  0  0  0  0  0  0  0  0  0  0  0
   18.2835   63.5829   30.9637 C   0  0  0  0  0  0  0  0  0  0  0  0
   17.2122   64.4635   30.7628 C   0  0  0  0  0  0  0  0  0  0  0  0
   16.6368   65.0873   31.8754 C   0  0  0  0  0  0  0  0  0  0  0  0
   17.1104   64.8466   33.1628 C   0  0  0  0  0  0  0  0  0  0  0  0
   18.1814   63.9649   33.3570 C   0  0  0  0  0  0  0  0  0  0  0  0
   15.2728   64.2793   29.1842 C   0  0  0  0  0  0  0  0  0  0  0  0
   14.2846   65.0377   29.8049 C   0  0  0  0  0  0  0  0  0  0  0  0
   12.9501   64.6894   29.6900 C   0  0  0  0  0  0  0  0  0  0  0  0
   12.5973   63.5833   28.9572 C   0  0  0  0  0  0  0  0  0  0  0  0
   10.9180   63.1488   28.8160 Cl  0  0  0  0  0  0  0  0  0  0  0  0
   13.5545   62.8130   28.3319 C   0  0  0  0  0  0  0  0  0  0  0  0
   14.8914   63.1603   28.4453 C   0  0  0  0  0  0  0  0  0  0  0  0
   17.6128   64.0863   28.2501 C   0  0  0  0  0  0  0  0  0  0  0  0
   18.1655   65.1237   27.2817 C   0  0  0  0  0  0  0  0  0  0  0  0
   19.4052   65.2428   27.2107 O   0  0  0  0  0  0  0  0  0  0  0  0
   17.3518   65.7983   26.6153 O   0  0  0  0  0  0  0  0  0  0  0  0
   16.4312   65.6572   26.7180 H   0  0  0  0  0  0  0  0  0  0  0  0
  2  3  1  0  0  0
  3 11  1  0  0  0
  3  4  1  0  0  0
  4  5  2  0  0  0
  6  5  1  0  0  0
 11  6  1  0  0  0
  6  7  2  0  0  0
  8  7  1  0  0  0
  9  8  2  0  0  0
  8  1  1  0  0  0
 10  9  1  0  0  0
 10 11  2  0  0  0
 19  1  1  0  0  0
  1 12  1  0  0  0
 20 19  1  0  0  0
 21 20  2  0  0  0
 22 20  1  0  0  0
 12 18  2  0  0  0
 12 13  1  0  0  0
 13 14  2  0  0  0
 14 15  1  0  0  0
 17 15  2  0  0  0
 15 16  1  0  0  0
 18 17  1  0  0  0
 22 23  1  0  0  0
M  END
> <minimizedAffinity>
-8.01036

$$$$
5FNR_XMS_A_1614


 23 25  0  0  0  0  0  0  0  0999 V2000
   15.0042   64.1690   26.3115 C   0  0  0  0  0  0  0  0  0  0  0  0
   13.2442   65.6102   32.7769 C   0  0  0  0  0  0  0  0  0  0  0  0
   14.2946   65.3664   31.7973 N   0  0  0  0  0  0  0  0  0  0  0  0
   15.6020   65.4030   32.1688 N   0  0  0  0  0  0  0  0  0  0  0  0
   16.3245   65.1488   31.0908 N   0  0  0  0  0  0  0  0  0  0  0  0
   15.5014   64.9478   30.0230 C   0  0  0  0  0  0  0  0  0  0  0  0
   15.7476   64.6488   28.6629 C   0  0  0  0  0  0  0  0  0  0  0  0
   14.6819   64.4912   27.7668 C   0  0  0  0  0  0  0  0  0  0  0  0
   13.3747   64.6358   28.2446 C   0  0  0  0  0  0  0  0  0  0  0  0
   13.1238   64.9308   29.5824 C   0  0  0  0  0  0  0  0  0  0  0  0
   14.1934   65.0866   30.4732 C   0  0  0  0  0  0  0  0  0  0  0  0
   13.8447   63.4408   25.6496 C   0  0  0  0  0  0  0  0  0  0  0  0
   13.1733   64.0565   24.5974 C   0  0  0  0  0  0  0  0  0  0  0  0
   12.1132   63.4254   23.9701 C   0  0  0  0  0  0  0  0  0  0  0  0
   11.7189   62.1795   24.3909 C   0  0  0  0  0  0  0  0  0  0  0  0
   10.3850   61.3901   23.5994 Cl  0  0  0  0  0  0  0  0  0  0  0  0
   12.3651   61.5456   25.4308 C   0  0  0  0  0  0  0  0  0  0  0  0
   13.4271   62.1756   26.0601 C   0  0  0  0  0  0  0  0  0  0  0  0
   16.3322   63.4448   26.0942 C   0  0  0  0  0  0  0  0  0  0  0  0
   17.3630   64.2995   25.3686 C   0  0  0  0  0  0  0  0  0  0  0  0
   18.0498   63.7480   24.4852 O   0  0  0  0  0  0  0  0  0  0  0  0
   17.4669   65.5006   25.6969 O   0  0  0  0  0  0  0  0  0  0  0  0
   16.9181   65.8514   26.3705 H   0  0  0  0  0  0  0  0  0  0  0  0
  2  3  1  0  0  0
  3 11  1  0  0  0
  3  4  1  0  0  0
  4  5  2  0  0  0
  6  5  1  0  0  0
 11  6  1  0  0  0
  6  7  2  0  0  0
  8  7  1  0  0  0
  9  8  2  0  0  0
  8  1  1  0  0  0
 10  9  1  0  0  0
 10 11  2  0  0  0
 19  1  1  0  0  0
  1 12  1  0  0  0
 20 19  1  0  0  0
 21 20  2  0  0  0
 22 20  1  0  0  0
 12 18  2  0  0  0
 12 13  1  0  0  0
 13 14  2  0  0  0
 14 15  1  0  0  0
 17 15  2  0  0  0
 15 16  1  0  0  0
 18 17  1  0  0  0
 22 23  1  0  0  0
M  END
> <minimizedAffinity>
-7.98543

$$$$
5FNR_XMS_A_1614


 23 25  0  0  0  0  0  0  0  0999 V2000
   16.6371   64.7409   27.0181 C   0  0  0  0  0  0  0  0  0  0  0  0
   17.7850   64.4794   33.7701 C   0  0  0  0  0  0  0  0  0  0  0  0
   16.8680   64.7582   32.6729 N   0  0  0  0  0  0  0  0  0  0  0  0
   15.5987   65.1736   32.9276 N   0  0  0  0  0  0  0  0  0  0  0  0
   15.0005   65.3483   31.7612 N   0  0  0  0  0  0  0  0  0  0  0  0
   15.8667   65.0506   30.7516 C   0  0  0  0  0  0  0  0  0  0  0  0
   15.7427   65.0676   29.3430 C   0  0  0  0  0  0  0  0  0  0  0  0
   16.8254   64.7043   28.5310 C   0  0  0  0  0  0  0  0  0  0  0  0
   18.0263   64.3258   29.1412 C   0  0  0  0  0  0  0  0  0  0  0  0
   18.1563   64.3058   30.5277 C   0  0  0  0  0  0  0  0  0  0  0  0
   17.0705   64.6705   31.3339 C   0  0  0  0  0  0  0  0  0  0  0  0
   15.4646   63.8683   26.5980 C   0  0  0  0  0  0  0  0  0  0  0  0
   14.5629   64.3564   25.6570 C   0  0  0  0  0  0  0  0  0  0  0  0
   13.4834   63.5919   25.2499 C   0  0  0  0  0  0  0  0  0  0  0  0
   13.2993   62.3392   25.7809 C   0  0  0  0  0  0  0  0  0  0  0  0
   11.9402   61.3817   25.2664 Cl  0  0  0  0  0  0  0  0  0  0  0  0
   14.1760   61.8300   26.7150 C   0  0  0  0  0  0  0  0  0  0  0  0
   15.2578   62.5937   27.1238 C   0  0  0  0  0  0  0  0  0  0  0  0
   17.8961   64.4346   26.2078 C   0  0  0  0  0  0  0  0  0  0  0  0
   17.9963   65.2595   24.9314 C   0  0  0  0  0  0  0  0  0  0  0  0
   17.4745   66.3926   24.9353 O   0  0  0  0  0  0  0  0  0  0  0  0
   18.5907   64.7590   23.9529 O   0  0  0  0  0  0  0  0  0  0  0  0
   18.9605   63.9006   24.0184 H   0  0  0  0  0  0  0  0  0  0  0  0
  2  3  1  0  0  0
  3 11  1  0  0  0
  3  4  1  0  0  0
  4  5  2  0  0  0
  6  5  1  0  0  0
 11  6  1  0  0  0
  6  7  2  0  0  0
  8  7  1  0  0  0
  9  8  2  0  0  0
  8  1  1  0  0  0
 10  9  1  0  0  0
 10 11  2  0  0  0
 19  1  1  0  0  0
  1 12  1  0  0  0
 20 19  1  0  0  0
 21 20  2  0  0  0
 22 20  1  0  0  0
 12 18  2  0  0  0
 12 13  1  0  0  0
 13 14  2  0  0  0
 14 15  1  0  0  0
 17 15  2  0  0  0
 15 16  1  0  0  0
 18 17  1  0  0  0
 22 23  1  0  0  0
M  END
> <minimizedAffinity>
-7.97136

$$$$
