2E27_AB0_H_6001


 26 28  0  0  0  0  0  0  0  0999 V2000
   -0.3969   -2.0930   23.9406 C   0  0  0  0  0  0  0  0  0  0  0  0
    0.6368   -1.1629   24.5857 C   0  0  0  0  0  0  0  0  0  0  0  0
    1.0798   -0.0799   23.5964 C   0  0  0  0  0  0  0  0  0  0  0  0
    2.1607    0.6816   24.1566 O   0  0  0  0  0  0  0  0  0  0  0  0
    2.6318    1.7515   23.3186 C   0  0  0  0  0  0  0  0  0  0  0  0
    3.6941    2.4086   24.2086 C   0  0  0  0  0  0  0  0  0  0  0  0
    4.5870    3.3116   23.6418 C   0  0  0  0  0  0  0  0  0  0  0  0
    4.8557    3.6722   22.3256 C   0  0  0  0  0  0  0  0  0  0  0  0
    4.2790    3.2439   21.1360 C   0  0  0  0  0  0  0  0  0  0  0  0
    3.1979    2.3028   21.0334 O   0  0  0  0  0  0  0  0  0  0  0  0
    3.1249    1.2204   21.9749 C   0  0  0  0  0  0  0  0  0  0  0  0
    2.0479    0.3138   21.3711 C   0  0  0  0  0  0  0  0  0  0  0  0
    2.5473   -0.2977   20.1792 O   0  0  0  0  0  0  0  0  0  0  0  0
    1.6020   -0.7742   22.3481 C   0  0  0  0  0  0  0  0  0  0  0  0
    0.5449   -1.5552   21.7702 O   0  0  0  0  0  0  0  0  0  0  0  0
    0.1860   -2.6367   22.6439 C   0  0  0  0  0  0  0  0  0  0  0  0
    3.3161   -0.8481   20.3958 H   0  0  0  0  0  0  0  0  0  0  0  0
   -0.6892   -3.2061   24.8004 O   0  0  0  0  0  0  0  0  0  0  0  0
    0.2611   -3.3120   25.8720 C   0  0  0  0  0  0  0  0  0  0  0  0
    2.4335   -4.2095   25.8719 C   0  0  0  0  0  0  0  0  0  0  0  0
    1.0404   -4.5108   25.7490 O   0  0  0  0  0  0  0  0  0  0  0  0
   -0.8315   -3.5376   21.9409 C   0  0  0  0  0  0  0  0  0  0  0  0
   -1.3777   -2.8546   20.6863 C   0  0  0  0  0  0  0  0  0  0  0  0
   -2.0196   -1.8094   20.7766 O   0  0  0  0  0  0  0  0  0  0  0  0
   -1.1867   -3.3521   19.5759 O   0  0  0  0  0  0  0  0  0  0  0  0
   -2.1703   -1.4232   21.6169 H   0  0  0  0  0  0  0  0  0  0  0  0
 20 21  1  0  0  0
 21 19  1  0  0  0
 19 18  1  0  0  0
 18  1  1  0  0  0
  1  2  1  0  0  0
  1 16  1  0  0  0
  2  3  1  0  0  0
  3  4  1  0  0  0
  3 14  1  0  0  0
  4  5  1  0  0  0
  5  6  1  0  0  0
  5 11  1  0  0  0
  6  7  1  0  0  0
  7  8  2  0  0  0
  8  9  1  0  0  0
  9 10  1  0  0  0
 10 11  1  0  0  0
 11 12  1  0  0  0
 12 14  1  0  0  0
 12 13  1  0  0  0
 14 15  1  0  0  0
 15 16  1  0  0  0
 16 22  1  0  0  0
 22 23  1  0  0  0
 23 24  1  0  0  0
 23 25  2  0  0  0
 13 17  1  0  0  0
 24 26  1  0  0  0
M  END
> <minimizedAffinity>
-9.21102

$$$$
2E27_AB0_H_6001


 26 28  0  0  0  0  0  0  0  0999 V2000
   -0.2061   -2.4399   22.1688 C   0  0  0  0  0  0  0  0  0  0  0  0
    0.1059   -1.2184   21.2967 C   0  0  0  0  0  0  0  0  0  0  0  0
    1.3900   -0.5304   21.7717 C   0  0  0  0  0  0  0  0  0  0  0  0
    1.5816    0.6977   21.0524 O   0  0  0  0  0  0  0  0  0  0  0  0
    2.7823    1.4095   21.3994 C   0  0  0  0  0  0  0  0  0  0  0  0
    2.7427    2.5939   20.4257 C   0  0  0  0  0  0  0  0  0  0  0  0
    3.5894    3.6757   20.6418 C   0  0  0  0  0  0  0  0  0  0  0  0
    4.4215    4.0255   21.7000 C   0  0  0  0  0  0  0  0  0  0  0  0
    4.6884    3.3678   22.8948 C   0  0  0  0  0  0  0  0  0  0  0  0
    4.1404    2.0960   23.2785 O   0  0  0  0  0  0  0  0  0  0  0  0
    2.7989    1.7679   22.8833 C   0  0  0  0  0  0  0  0  0  0  0  0
    2.4986    0.5097   23.7038 C   0  0  0  0  0  0  0  0  0  0  0  0
    2.3774    0.8548   25.0860 O   0  0  0  0  0  0  0  0  0  0  0  0
    1.2161   -0.1823   23.2419 C   0  0  0  0  0  0  0  0  0  0  0  0
    1.0101   -1.3917   23.9878 O   0  0  0  0  0  0  0  0  0  0  0  0
   -0.2401   -1.9973   23.6247 C   0  0  0  0  0  0  0  0  0  0  0  0
    1.6380    1.4720   25.2015 H   0  0  0  0  0  0  0  0  0  0  0  0
   -1.4921   -2.9882   21.8382 O   0  0  0  0  0  0  0  0  0  0  0  0
   -1.3726   -4.1748   21.0379 C   0  0  0  0  0  0  0  0  0  0  0  0
   -2.1233   -3.1557   19.0573 C   0  0  0  0  0  0  0  0  0  0  0  0
   -1.0373   -3.8464   19.6818 O   0  0  0  0  0  0  0  0  0  0  0  0
   -0.5049   -3.1960   24.5380 C   0  0  0  0  0  0  0  0  0  0  0  0
    0.5972   -3.3234   25.5908 C   0  0  0  0  0  0  0  0  0  0  0  0
    0.7340   -2.4597   26.4556 O   0  0  0  0  0  0  0  0  0  0  0  0
    1.3625   -4.2882   25.5744 O   0  0  0  0  0  0  0  0  0  0  0  0
    0.1567   -1.7219   26.4764 H   0  0  0  0  0  0  0  0  0  0  0  0
 20 21  1  0  0  0
 21 19  1  0  0  0
 19 18  1  0  0  0
 18  1  1  0  0  0
  1  2  1  0  0  0
  1 16  1  0  0  0
  2  3  1  0  0  0
  3  4  1  0  0  0
  3 14  1  0  0  0
  4  5  1  0  0  0
  5  6  1  0  0  0
  5 11  1  0  0  0
  6  7  1  0  0  0
  7  8  2  0  0  0
  8  9  1  0  0  0
  9 10  1  0  0  0
 10 11  1  0  0  0
 11 12  1  0  0  0
 12 14  1  0  0  0
 12 13  1  0  0  0
 14 15  1  0  0  0
 15 16  1  0  0  0
 16 22  1  0  0  0
 22 23  1  0  0  0
 23 24  1  0  0  0
 23 25  2  0  0  0
 13 17  1  0  0  0
 24 26  1  0  0  0
M  END
> <minimizedAffinity>
-9.09161

$$$$
2E27_AB0_H_6001


 26 28  0  0  0  0  0  0  0  0999 V2000
    3.9021    2.4530   24.2623 C   0  0  0  0  0  0  0  0  0  0  0  0
    2.7703    1.6056   24.8544 C   0  0  0  0  0  0  0  0  0  0  0  0
    2.5269    0.3576   23.9994 C   0  0  0  0  0  0  0  0  0  0  0  0
    1.3637   -0.3397   24.4718 O   0  0  0  0  0  0  0  0  0  0  0  0
    1.0642   -1.5507   23.7560 C   0  0  0  0  0  0  0  0  0  0  0  0
   -0.1433   -2.0894   24.5333 C   0  0  0  0  0  0  0  0  0  0  0  0
   -0.9090   -3.1065   23.9737 C   0  0  0  0  0  0  0  0  0  0  0  0
   -0.9234   -3.6907   22.7115 C   0  0  0  0  0  0  0  0  0  0  0  0
   -0.1355   -3.4450   21.5934 C   0  0  0  0  0  0  0  0  0  0  0  0
    0.9409   -2.4949   21.5333 O   0  0  0  0  0  0  0  0  0  0  0  0
    0.8299   -1.2690   22.2739 C   0  0  0  0  0  0  0  0  0  0  0  0
    1.9966   -0.4362   21.7338 C   0  0  0  0  0  0  0  0  0  0  0  0
    1.7272   -0.0503   20.3838 O   0  0  0  0  0  0  0  0  0  0  0  0
    2.2452    0.8148   22.5766 C   0  0  0  0  0  0  0  0  0  0  0  0
    3.3881    1.5274   22.0792 O   0  0  0  0  0  0  0  0  0  0  0  0
    3.5708    2.7516   22.8070 C   0  0  0  0  0  0  0  0  0  0  0  0
    0.9287    0.4997   20.3579 H   0  0  0  0  0  0  0  0  0  0  0  0
    4.0218    3.7036   24.9590 O   0  0  0  0  0  0  0  0  0  0  0  0
    3.9198    3.5301   26.3810 C   0  0  0  0  0  0  0  0  0  0  0  0
    2.3070    4.0742   28.0020 C   0  0  0  0  0  0  0  0  0  0  0  0
    3.1558    4.5910   26.9730 O   0  0  0  0  0  0  0  0  0  0  0  0
    4.6978    3.5601   22.1609 C   0  0  0  0  0  0  0  0  0  0  0  0
    4.5496    3.5675   20.6387 C   0  0  0  0  0  0  0  0  0  0  0  0
    5.3087    2.9015   19.9367 O   0  0  0  0  0  0  0  0  0  0  0  0
    3.6740    4.2488   20.1038 O   0  0  0  0  0  0  0  0  0  0  0  0
    5.9780    2.3800   20.3343 H   0  0  0  0  0  0  0  0  0  0  0  0
 20 21  1  0  0  0
 21 19  1  0  0  0
 19 18  1  0  0  0
 18  1  1  0  0  0
  1  2  1  0  0  0
  1 16  1  0  0  0
  2  3  1  0  0  0
  3  4  1  0  0  0
  3 14  1  0  0  0
  4  5  1  0  0  0
  5  6  1  0  0  0
  5 11  1  0  0  0
  6  7  1  0  0  0
  7  8  2  0  0  0
  8  9  1  0  0  0
  9 10  1  0  0  0
 10 11  1  0  0  0
 11 12  1  0  0  0
 12 14  1  0  0  0
 12 13  1  0  0  0
 14 15  1  0  0  0
 15 16  1  0  0  0
 16 22  1  0  0  0
 22 23  1  0  0  0
 23 24  1  0  0  0
 23 25  2  0  0  0
 13 17  1  0  0  0
 24 26  1  0  0  0
M  END
> <minimizedAffinity>
-8.79035

$$$$
2E27_AB0_H_6001


 26 28  0  0  0  0  0  0  0  0999 V2000
    1.1896   -1.5804   25.6373 C   0  0  0  0  0  0  0  0  0  0  0  0
    2.2594   -0.4924   25.4900 C   0  0  0  0  0  0  0  0  0  0  0  0
    2.0072    0.3452   24.2319 C   0  0  0  0  0  0  0  0  0  0  0  0
    3.1011    1.2512   24.0202 O   0  0  0  0  0  0  0  0  0  0  0  0
    2.9482    2.1122   22.8782 C   0  0  0  0  0  0  0  0  0  0  0  0
    4.2004    2.9926   22.9736 C   0  0  0  0  0  0  0  0  0  0  0  0
    4.5670    3.7682   21.8790 C   0  0  0  0  0  0  0  0  0  0  0  0
    4.1108    3.8220   20.5661 C   0  0  0  0  0  0  0  0  0  0  0  0
    3.1001    3.1103   19.9312 C   0  0  0  0  0  0  0  0  0  0  0  0
    2.2531    2.1361   20.5624 O   0  0  0  0  0  0  0  0  0  0  0  0
    2.8016    1.3001   21.5938 C   0  0  0  0  0  0  0  0  0  0  0  0
    1.7111    0.2431   21.7935 C   0  0  0  0  0  0  0  0  0  0  0  0
    1.6549   -0.6117   20.6489 O   0  0  0  0  0  0  0  0  0  0  0  0
    1.9555   -0.6024   23.0436 C   0  0  0  0  0  0  0  0  0  0  0  0
    0.8765   -1.5306   23.2319 O   0  0  0  0  0  0  0  0  0  0  0  0
    1.1451   -2.3908   24.3497 C   0  0  0  0  0  0  0  0  0  0  0  0
    2.5030   -1.0712   20.5465 H   0  0  0  0  0  0  0  0  0  0  0  0
    1.5137   -2.4724   26.7158 O   0  0  0  0  0  0  0  0  0  0  0  0
    2.8496   -2.9859   26.5957 C   0  0  0  0  0  0  0  0  0  0  0  0
    2.3380   -5.2602   26.8971 C   0  0  0  0  0  0  0  0  0  0  0  0
    3.0348   -4.1336   27.4372 O   0  0  0  0  0  0  0  0  0  0  0  0
    0.0573   -3.4634   24.4347 C   0  0  0  0  0  0  0  0  0  0  0  0
   -0.9373   -3.3128   23.2826 C   0  0  0  0  0  0  0  0  0  0  0  0
   -1.7358   -2.3775   23.2686 O   0  0  0  0  0  0  0  0  0  0  0  0
   -0.9520   -4.1334   22.3643 O   0  0  0  0  0  0  0  0  0  0  0  0
   -1.7324   -1.7481   23.9627 H   0  0  0  0  0  0  0  0  0  0  0  0
 20 21  1  0  0  0
 21 19  1  0  0  0
 19 18  1  0  0  0
 18  1  1  0  0  0
  1  2  1  0  0  0
  1 16  1  0  0  0
  2  3  1  0  0  0
  3  4  1  0  0  0
  3 14  1  0  0  0
  4  5  1  0  0  0
  5  6  1  0  0  0
  5 11  1  0  0  0
  6  7  1  0  0  0
  7  8  2  0  0  0
  8  9  1  0  0  0
  9 10  1  0  0  0
 10 11  1  0  0  0
 11 12  1  0  0  0
 12 14  1  0  0  0
 12 13  1  0  0  0
 14 15  1  0  0  0
 15 16  1  0  0  0
 16 22  1  0  0  0
 22 23  1  0  0  0
 23 24  1  0  0  0
 23 25  2  0  0  0
 13 17  1  0  0  0
 24 26  1  0  0  0
M  END
> <minimizedAffinity>
-8.26930

$$$$
2E27_AB0_H_6001


 26 28  0  0  0  0  0  0  0  0999 V2000
    1.1024   -1.5222   25.6248 C   0  0  0  0  0  0  0  0  0  0  0  0
    2.1746   -0.4350   25.4900 C   0  0  0  0  0  0  0  0  0  0  0  0
    1.9542    0.3849   24.2145 C   0  0  0  0  0  0  0  0  0  0  0  0
    3.0523    1.2892   24.0185 O   0  0  0  0  0  0  0  0  0  0  0  0
    2.9281    2.1342   22.8612 C   0  0  0  0  0  0  0  0  0  0  0  0
    4.1768    3.0174   22.9765 C   0  0  0  0  0  0  0  0  0  0  0  0
    4.5706    3.7783   21.8812 C   0  0  0  0  0  0  0  0  0  0  0  0
    4.1483    3.8134   20.5564 C   0  0  0  0  0  0  0  0  0  0  0  0
    3.1548    3.0919   19.9055 C   0  0  0  0  0  0  0  0  0  0  0  0
    2.2927    2.1254   20.5282 O   0  0  0  0  0  0  0  0  0  0  0  0
    2.8153    1.3044   21.5847 C   0  0  0  0  0  0  0  0  0  0  0  0
    1.7208    0.2489   21.7709 C   0  0  0  0  0  0  0  0  0  0  0  0
    1.6948   -0.6216   20.6371 O   0  0  0  0  0  0  0  0  0  0  0  0
    1.9338   -0.5790   23.0383 C   0  0  0  0  0  0  0  0  0  0  0  0
    0.8511   -1.5058   23.2117 O   0  0  0  0  0  0  0  0  0  0  0  0
    1.0916   -2.3503   24.3477 C   0  0  0  0  0  0  0  0  0  0  0  0
    2.5456   -1.0814   20.5628 H   0  0  0  0  0  0  0  0  0  0  0  0
    1.3994   -2.3989   26.7234 O   0  0  0  0  0  0  0  0  0  0  0  0
    0.5176   -2.1738   27.8345 C   0  0  0  0  0  0  0  0  0  0  0  0
   -1.8192   -2.0763   28.0685 C   0  0  0  0  0  0  0  0  0  0  0  0
   -0.6821   -1.5104   27.4103 O   0  0  0  0  0  0  0  0  0  0  0  0
    0.0028   -3.4229   24.4196 C   0  0  0  0  0  0  0  0  0  0  0  0
   -0.9625   -3.2887   23.2409 C   0  0  0  0  0  0  0  0  0  0  0  0
   -1.7764   -2.3673   23.2054 O   0  0  0  0  0  0  0  0  0  0  0  0
   -0.9382   -4.1088   22.3224 O   0  0  0  0  0  0  0  0  0  0  0  0
   -1.8026   -1.7383   23.8995 H   0  0  0  0  0  0  0  0  0  0  0  0
 20 21  1  0  0  0
 21 19  1  0  0  0
 19 18  1  0  0  0
 18  1  1  0  0  0
  1  2  1  0  0  0
  1 16  1  0  0  0
  2  3  1  0  0  0
  3  4  1  0  0  0
  3 14  1  0  0  0
  4  5  1  0  0  0
  5  6  1  0  0  0
  5 11  1  0  0  0
  6  7  1  0  0  0
  7  8  2  0  0  0
  8  9  1  0  0  0
  9 10  1  0  0  0
 10 11  1  0  0  0
 11 12  1  0  0  0
 12 14  1  0  0  0
 12 13  1  0  0  0
 14 15  1  0  0  0
 15 16  1  0  0  0
 16 22  1  0  0  0
 22 23  1  0  0  0
 23 24  1  0  0  0
 23 25  2  0  0  0
 13 17  1  0  0  0
 24 26  1  0  0  0
M  END
> <minimizedAffinity>
-8.15006

$$$$
2E27_AB0_H_6001


 26 28  0  0  0  0  0  0  0  0999 V2000
    1.7657   -0.5503   22.3246 C   0  0  0  0  0  0  0  0  0  0  0  0
    2.0703    0.3973   23.4904 C   0  0  0  0  0  0  0  0  0  0  0  0
    1.4003   -0.0971   24.7766 C   0  0  0  0  0  0  0  0  0  0  0  0
    1.5587    0.8797   25.8172 O   0  0  0  0  0  0  0  0  0  0  0  0
    0.9925    0.4978   27.0831 C   0  0  0  0  0  0  0  0  0  0  0  0
    1.3926    1.6765   27.9792 C   0  0  0  0  0  0  0  0  0  0  0  0
    0.7816    1.8207   29.2201 C   0  0  0  0  0  0  0  0  0  0  0  0
   -0.2971    1.1799   29.8203 C   0  0  0  0  0  0  0  0  0  0  0  0
   -1.1068    0.1494   29.3581 C   0  0  0  0  0  0  0  0  0  0  0  0
   -0.9540   -0.5188   28.0952 O   0  0  0  0  0  0  0  0  0  0  0  0
   -0.5062    0.2357   26.9577 C   0  0  0  0  0  0  0  0  0  0  0  0
   -0.7484   -0.7275   25.7915 C   0  0  0  0  0  0  0  0  0  0  0  0
   -2.1538   -0.8772   25.5757 O   0  0  0  0  0  0  0  0  0  0  0  0
   -0.0884   -0.2412   24.5010 C   0  0  0  0  0  0  0  0  0  0  0  0
   -0.2793   -1.2049   23.4541 O   0  0  0  0  0  0  0  0  0  0  0  0
    0.2561   -0.7123   22.2162 C   0  0  0  0  0  0  0  0  0  0  0  0
   -2.5381   -0.0183   25.3403 H   0  0  0  0  0  0  0  0  0  0  0  0
    2.2468   -0.0061   21.0851 O   0  0  0  0  0  0  0  0  0  0  0  0
    2.6760    1.3562   21.2354 C   0  0  0  0  0  0  0  0  0  0  0  0
    2.9317    3.3635   20.0394 C   0  0  0  0  0  0  0  0  0  0  0  0
    2.1419    2.1801   20.1888 O   0  0  0  0  0  0  0  0  0  0  0  0
   -0.0937   -1.6879   21.0906 C   0  0  0  0  0  0  0  0  0  0  0  0
   -1.5968   -1.6666   20.8086 C   0  0  0  0  0  0  0  0  0  0  0  0
   -2.3370   -0.9127   21.4383 O   0  0  0  0  0  0  0  0  0  0  0  0
   -2.0785   -2.4119   19.9547 O   0  0  0  0  0  0  0  0  0  0  0  0
   -1.9800   -0.3420   22.0899 H   0  0  0  0  0  0  0  0  0  0  0  0
 20 21  1  0  0  0
 21 19  1  0  0  0
 19 18  1  0  0  0
 18  1  1  0  0  0
  1  2  1  0  0  0
  1 16  1  0  0  0
  2  3  1  0  0  0
  3  4  1  0  0  0
  3 14  1  0  0  0
  4  5  1  0  0  0
  5  6  1  0  0  0
  5 11  1  0  0  0
  6  7  1  0  0  0
  7  8  2  0  0  0
  8  9  1  0  0  0
  9 10  1  0  0  0
 10 11  1  0  0  0
 11 12  1  0  0  0
 12 14  1  0  0  0
 12 13  1  0  0  0
 14 15  1  0  0  0
 15 16  1  0  0  0
 16 22  1  0  0  0
 22 23  1  0  0  0
 23 24  1  0  0  0
 23 25  2  0  0  0
 13 17  1  0  0  0
 24 26  1  0  0  0
M  END
> <minimizedAffinity>
-7.66057

$$$$
2E27_AB0_H_6001


 26 28  0  0  0  0  0  0  0  0999 V2000
    0.9776   -2.6996   23.9405 C   0  0  0  0  0  0  0  0  0  0  0  0
    0.8818   -1.7011   22.7814 C   0  0  0  0  0  0  0  0  0  0  0  0
    2.0645   -0.7273   22.8092 C   0  0  0  0  0  0  0  0  0  0  0  0
    1.8780    0.2971   21.8202 O   0  0  0  0  0  0  0  0  0  0  0  0
    2.9533    1.2489   21.7392 C   0  0  0  0  0  0  0  0  0  0  0  0
    2.5083    2.1326   20.5672 C   0  0  0  0  0  0  0  0  0  0  0  0
    3.1454    3.3511   20.3589 C   0  0  0  0  0  0  0  0  0  0  0  0
    4.0616    4.0773   21.1124 C   0  0  0  0  0  0  0  0  0  0  0  0
    4.6586    3.7873   22.3334 C   0  0  0  0  0  0  0  0  0  0  0  0
    4.4519    2.5826   23.0890 O   0  0  0  0  0  0  0  0  0  0  0  0
    3.1555    1.9640   23.0728 C   0  0  0  0  0  0  0  0  0  0  0  0
    3.2609    0.9193   24.1881 C   0  0  0  0  0  0  0  0  0  0  0  0
    3.3153    1.5752   25.4573 O   0  0  0  0  0  0  0  0  0  0  0  0
    2.0828   -0.0548   24.1731 C   0  0  0  0  0  0  0  0  0  0  0  0
    2.2564   -1.0569   25.1865 O   0  0  0  0  0  0  0  0  0  0  0  0
    1.1093   -1.9188   25.2404 C   0  0  0  0  0  0  0  0  0  0  0  0
    2.4988    2.0803   25.5955 H   0  0  0  0  0  0  0  0  0  0  0  0
   -0.2099   -3.5041   24.0208 O   0  0  0  0  0  0  0  0  0  0  0  0
   -1.3942   -2.7261   23.7863 C   0  0  0  0  0  0  0  0  0  0  0  0
   -2.5167   -1.1121   25.0746 C   0  0  0  0  0  0  0  0  0  0  0  0
   -2.0954   -2.4778   25.0135 O   0  0  0  0  0  0  0  0  0  0  0  0
    1.2532   -2.8780   26.4237 C   0  0  0  0  0  0  0  0  0  0  0  0
    2.4956   -3.7543   26.2573 C   0  0  0  0  0  0  0  0  0  0  0  0
    3.6174   -3.2833   26.4370 O   0  0  0  0  0  0  0  0  0  0  0  0
    2.3818   -4.9368   25.9326 O   0  0  0  0  0  0  0  0  0  0  0  0
    3.7142   -2.3847   26.6842 H   0  0  0  0  0  0  0  0  0  0  0  0
 20 21  1  0  0  0
 21 19  1  0  0  0
 19 18  1  0  0  0
 18  1  1  0  0  0
  1  2  1  0  0  0
  1 16  1  0  0  0
  2  3  1  0  0  0
  3  4  1  0  0  0
  3 14  1  0  0  0
  4  5  1  0  0  0
  5  6  1  0  0  0
  5 11  1  0  0  0
  6  7  1  0  0  0
  7  8  2  0  0  0
  8  9  1  0  0  0
  9 10  1  0  0  0
 10 11  1  0  0  0
 11 12  1  0  0  0
 12 14  1  0  0  0
 12 13  1  0  0  0
 14 15  1  0  0  0
 15 16  1  0  0  0
 16 22  1  0  0  0
 22 23  1  0  0  0
 23 24  1  0  0  0
 23 25  2  0  0  0
 13 17  1  0  0  0
 24 26  1  0  0  0
M  END
> <minimizedAffinity>
-7.57585

$$$$
2E27_AB0_H_6001


 26 28  0  0  0  0  0  0  0  0999 V2000
    2.7328    0.7380   21.8737 C   0  0  0  0  0  0  0  0  0  0  0  0
    2.9899    1.9473   22.7800 C   0  0  0  0  0  0  0  0  0  0  0  0
    3.2114    1.4986   24.2283 C   0  0  0  0  0  0  0  0  0  0  0  0
    3.2898    2.6454   25.0890 O   0  0  0  0  0  0  0  0  0  0  0  0
    3.5316    2.3355   26.4726 C   0  0  0  0  0  0  0  0  0  0  0  0
    3.6465    3.7321   27.0960 C   0  0  0  0  0  0  0  0  0  0  0  0
    3.5944    3.8616   28.4797 C   0  0  0  0  0  0  0  0  0  0  0  0
    3.2900    2.9665   29.4999 C   0  0  0  0  0  0  0  0  0  0  0  0
    2.9567    1.6183   29.4491 C   0  0  0  0  0  0  0  0  0  0  0  0
    2.8880    0.8285   28.2507 O   0  0  0  0  0  0  0  0  0  0  0  0
    2.4284    1.4435   27.0366 C   0  0  0  0  0  0  0  0  0  0  0  0
    2.2275    0.2469   26.1016 C   0  0  0  0  0  0  0  0  0  0  0  0
    1.1084   -0.5256   26.5432 O   0  0  0  0  0  0  0  0  0  0  0  0
    2.0003    0.6832   24.6542 C   0  0  0  0  0  0  0  0  0  0  0  0
    1.8876   -0.4671   23.8025 O   0  0  0  0  0  0  0  0  0  0  0  0
    1.5806   -0.0668   22.4581 C   0  0  0  0  0  0  0  0  0  0  0  0
    0.3064    0.0190   26.5101 H   0  0  0  0  0  0  0  0  0  0  0  0
    2.3581    1.1604   20.5527 O   0  0  0  0  0  0  0  0  0  0  0  0
    2.5162    2.5779   20.3847 C   0  0  0  0  0  0  0  0  0  0  0  0
    4.5990    3.6668   20.3500 C   0  0  0  0  0  0  0  0  0  0  0  0
    3.6778    2.8738   19.5956 O   0  0  0  0  0  0  0  0  0  0  0  0
    1.3173   -1.3115   21.6081 C   0  0  0  0  0  0  0  0  0  0  0  0
    2.5755   -2.1762   21.5171 C   0  0  0  0  0  0  0  0  0  0  0  0
    3.0915   -2.6327   22.5359 O   0  0  0  0  0  0  0  0  0  0  0  0
    3.0871   -2.4141   20.4223 O   0  0  0  0  0  0  0  0  0  0  0  0
    2.7097   -2.4573   23.3734 H   0  0  0  0  0  0  0  0  0  0  0  0
 20 21  1  0  0  0
 21 19  1  0  0  0
 19 18  1  0  0  0
 18  1  1  0  0  0
  1  2  1  0  0  0
  1 16  1  0  0  0
  2  3  1  0  0  0
  3  4  1  0  0  0
  3 14  1  0  0  0
  4  5  1  0  0  0
  5  6  1  0  0  0
  5 11  1  0  0  0
  6  7  1  0  0  0
  7  8  2  0  0  0
  8  9  1  0  0  0
  9 10  1  0  0  0
 10 11  1  0  0  0
 11 12  1  0  0  0
 12 14  1  0  0  0
 12 13  1  0  0  0
 14 15  1  0  0  0
 15 16  1  0  0  0
 16 22  1  0  0  0
 22 23  1  0  0  0
 23 24  1  0  0  0
 23 25  2  0  0  0
 13 17  1  0  0  0
 24 26  1  0  0  0
M  END
> <minimizedAffinity>
-7.32532

$$$$
2E27_AB0_H_6001


 26 28  0  0  0  0  0  0  0  0999 V2000
    2.3331    1.2646   22.3060 C   0  0  0  0  0  0  0  0  0  0  0  0
    1.6057    0.6280   21.1163 C   0  0  0  0  0  0  0  0  0  0  0  0
    0.6235   -0.4457   21.5963 C   0  0  0  0  0  0  0  0  0  0  0  0
    0.0706   -1.1420   20.4686 O   0  0  0  0  0  0  0  0  0  0  0  0
   -0.8939   -2.1535   20.8083 C   0  0  0  0  0  0  0  0  0  0  0  0
   -1.3482   -2.6371   19.4255 C   0  0  0  0  0  0  0  0  0  0  0  0
   -2.0722   -3.8204   19.3270 C   0  0  0  0  0  0  0  0  0  0  0  0
   -2.3753   -4.8199   20.2455 C   0  0  0  0  0  0  0  0  0  0  0  0
   -2.0567   -4.9349   21.5933 C   0  0  0  0  0  0  0  0  0  0  0  0
   -1.3283   -3.9594   22.3566 O   0  0  0  0  0  0  0  0  0  0  0  0
   -0.2791   -3.2158   21.7163 C   0  0  0  0  0  0  0  0  0  0  0  0
    0.4173   -2.5245   22.8925 C   0  0  0  0  0  0  0  0  0  0  0  0
    1.1119   -3.4962   23.6782 O   0  0  0  0  0  0  0  0  0  0  0  0
    1.4039   -1.4544   22.4248 C   0  0  0  0  0  0  0  0  0  0  0  0
    1.9803   -0.7845   23.5563 O   0  0  0  0  0  0  0  0  0  0  0  0
    2.9766    0.1563   23.1273 C   0  0  0  0  0  0  0  0  0  0  0  0
    1.7928   -3.9239   23.1356 H   0  0  0  0  0  0  0  0  0  0  0  0
    3.3726    2.1480   21.8556 O   0  0  0  0  0  0  0  0  0  0  0  0
    3.1445    2.5918   20.5088 C   0  0  0  0  0  0  0  0  0  0  0  0
    4.7749    4.0960   21.2862 C   0  0  0  0  0  0  0  0  0  0  0  0
    4.1034    3.5897   20.1290 O   0  0  0  0  0  0  0  0  0  0  0  0
    3.6784    0.7434   24.3536 C   0  0  0  0  0  0  0  0  0  0  0  0
    2.6540    1.2900   25.3489 C   0  0  0  0  0  0  0  0  0  0  0  0
    1.6225    0.6637   25.5870 O   0  0  0  0  0  0  0  0  0  0  0  0
    2.8502    2.3672   25.9127 O   0  0  0  0  0  0  0  0  0  0  0  0
    1.4642   -0.1568   25.1630 H   0  0  0  0  0  0  0  0  0  0  0  0
 20 21  1  0  0  0
 21 19  1  0  0  0
 19 18  1  0  0  0
 18  1  1  0  0  0
  1  2  1  0  0  0
  1 16  1  0  0  0
  2  3  1  0  0  0
  3  4  1  0  0  0
  3 14  1  0  0  0
  4  5  1  0  0  0
  5  6  1  0  0  0
  5 11  1  0  0  0
  6  7  1  0  0  0
  7  8  2  0  0  0
  8  9  1  0  0  0
  9 10  1  0  0  0
 10 11  1  0  0  0
 11 12  1  0  0  0
 12 14  1  0  0  0
 12 13  1  0  0  0
 14 15  1  0  0  0
 15 16  1  0  0  0
 16 22  1  0  0  0
 22 23  1  0  0  0
 23 24  1  0  0  0
 23 25  2  0  0  0
 13 17  1  0  0  0
 24 26  1  0  0  0
M  END
> <minimizedAffinity>
-7.28452

$$$$
2E27_AB0_H_6001


 26 28  0  0  0  0  0  0  0  0999 V2000
    1.1078   -1.4157   25.4103 C   0  0  0  0  0  0  0  0  0  0  0  0
    0.9268   -0.7706   24.0316 C   0  0  0  0  0  0  0  0  0  0  0  0
    2.1590    0.0605   23.6590 C   0  0  0  0  0  0  0  0  0  0  0  0
    1.9109    0.7855   22.4445 O   0  0  0  0  0  0  0  0  0  0  0  0
    3.0218    1.5754   21.9855 C   0  0  0  0  0  0  0  0  0  0  0  0
    2.4866    2.1391   20.6633 C   0  0  0  0  0  0  0  0  0  0  0  0
    3.1633    3.1893   20.0525 C   0  0  0  0  0  0  0  0  0  0  0  0
    4.2077    4.0077   20.4695 C   0  0  0  0  0  0  0  0  0  0  0  0
    4.9346    4.0117   21.6540 C   0  0  0  0  0  0  0  0  0  0  0  0
    4.7534    3.0860   22.7380 O   0  0  0  0  0  0  0  0  0  0  0  0
    3.4310    2.6084   23.0324 C   0  0  0  0  0  0  0  0  0  0  0  0
    3.6133    1.9062   24.3815 C   0  0  0  0  0  0  0  0  0  0  0  0
    3.8645    2.8784   25.3993 O   0  0  0  0  0  0  0  0  0  0  0  0
    2.3872    1.0779   24.7660 C   0  0  0  0  0  0  0  0  0  0  0  0
    2.6269    0.3822   25.9988 O   0  0  0  0  0  0  0  0  0  0  0  0
    1.4467   -0.3226   26.4138 C   0  0  0  0  0  0  0  0  0  0  0  0
    3.1029    3.4747   25.4719 H   0  0  0  0  0  0  0  0  0  0  0  0
   -0.1057   -2.0546   25.8384 O   0  0  0  0  0  0  0  0  0  0  0  0
   -0.7240   -2.7883   24.7697 C   0  0  0  0  0  0  0  0  0  0  0  0
   -2.5478   -1.6544   25.7251 C   0  0  0  0  0  0  0  0  0  0  0  0
   -2.0801   -2.3621   24.5732 O   0  0  0  0  0  0  0  0  0  0  0  0
    1.6807   -0.9278   27.7995 C   0  0  0  0  0  0  0  0  0  0  0  0
    2.3760    0.0801   28.7159 C   0  0  0  0  0  0  0  0  0  0  0  0
    2.0941    1.2756   28.6529 O   0  0  0  0  0  0  0  0  0  0  0  0
    3.2312   -0.2974   29.5177 O   0  0  0  0  0  0  0  0  0  0  0  0
    1.4448    1.5725   28.0460 H   0  0  0  0  0  0  0  0  0  0  0  0
 20 21  1  0  0  0
 21 19  1  0  0  0
 19 18  1  0  0  0
 18  1  1  0  0  0
  1  2  1  0  0  0
  1 16  1  0  0  0
  2  3  1  0  0  0
  3  4  1  0  0  0
  3 14  1  0  0  0
  4  5  1  0  0  0
  5  6  1  0  0  0
  5 11  1  0  0  0
  6  7  1  0  0  0
  7  8  2  0  0  0
  8  9  1  0  0  0
  9 10  1  0  0  0
 10 11  1  0  0  0
 11 12  1  0  0  0
 12 14  1  0  0  0
 12 13  1  0  0  0
 14 15  1  0  0  0
 15 16  1  0  0  0
 16 22  1  0  0  0
 22 23  1  0  0  0
 23 24  1  0  0  0
 23 25  2  0  0  0
 13 17  1  0  0  0
 24 26  1  0  0  0
M  END
> <minimizedAffinity>
-7.24103

$$$$
