1F8D_9AM_A_0


 27 27  0  0  0  0  0  0  0  0999 V2000
   24.9139   16.0934   61.6797 C   0  0  0  0  0  0  0  0  0  0  0  0
   23.9568   16.3215   62.6222 C   0  0  0  0  0  0  0  0  0  0  0  0
   24.2009   17.2839   63.8106 C   0  0  0  0  0  0  0  0  0  0  0  0
   25.1420   18.4160   63.4014 C   0  0  0  0  0  0  0  0  0  0  0  0
   26.4025   17.7910   62.7617 C   0  0  0  0  0  0  0  0  0  0  0  0
   22.9605   17.7944   64.1537 O   0  0  0  0  0  0  0  0  0  0  0  0
   26.0035   16.9509   61.6224 O   0  0  0  0  0  0  0  0  0  0  0  0
   22.5749   18.2487   63.3883 H   0  0  0  0  0  0  0  0  0  0  0  0
   24.8686   20.3168   64.9603 C   0  0  0  0  0  0  0  0  0  0  0  0
   25.3476   21.0245   66.2418 C   0  0  0  0  0  0  0  0  0  0  0  0
   25.5050   19.2080   64.5915 N   0  0  0  0  0  0  0  0  0  0  0  0
   23.9283   20.7919   64.3235 O   0  0  0  0  0  0  0  0  0  0  0  0
   26.2596   18.8993   65.1432 H   0  0  0  0  0  0  0  0  0  0  0  0
   24.8684   15.1026   60.7053 C   0  0  0  0  0  0  0  0  0  0  0  0
   25.8815   14.9895   59.9777 O   0  0  0  0  0  0  0  0  0  0  0  0
   23.8658   14.3664   60.5657 O   0  0  0  0  0  0  0  0  0  0  0  0
   23.1227   14.4755   61.1259 H   0  0  0  0  0  0  0  0  0  0  0  0
   27.4394   18.8393   62.2031 C   0  0  0  0  0  0  0  0  0  0  0  0
   26.6596   19.9594   61.7205 O   0  0  0  0  0  0  0  0  0  0  0  0
   26.0268   19.6495   61.0539 H   0  0  0  0  0  0  0  0  0  0  0  0
   28.2015   18.1818   61.0648 C   0  0  0  0  0  0  0  0  0  0  0  0
   29.5366   18.4622   61.2404 O   0  0  0  0  0  0  0  0  0  0  0  0
   29.6729   19.4219   61.2047 H   0  0  0  0  0  0  0  0  0  0  0  0
   27.7707   18.6633   59.6899 C   0  0  0  0  0  0  0  0  0  0  0  0
   26.9755   17.6467   58.9498 N   0  0  0  0  0  0  0  0  0  0  0  0
   27.5435   16.8125   58.8020 H   0  0  0  0  0  0  0  0  0  0  0  0
   26.6909   18.0285   58.0478 H   0  0  0  0  0  0  0  0  0  0  0  0
 14  1  1  0  0  0
 14 15  2  0  0  0
 14 16  1  0  0  0
  1  2  2  0  0  0
  1  7  1  0  0  0
  2  3  1  0  0  0
  3  4  1  0  0  0
  3  6  1  0  0  0
  4  5  1  0  0  0
  4 11  1  0  0  0
  5 18  1  0  0  0
  5  7  1  0  0  0
 18 21  1  0  0  0
 18 19  1  0  0  0
 21 24  1  0  0  0
 21 22  1  0  0  0
 24 25  1  0  0  0
  9 10  1  0  0  0
  9 11  1  0  0  0
  9 12  2  0  0  0
 11 13  1  0  0  0
 16 17  1  0  0  0
  6  8  1  0  0  0
 19 20  1  0  0  0
 22 23  1  0  0  0
 25 26  1  0  0  0
 25 27  1  0  0  0
M  END
> <minimizedAffinity>
-8.08466

$$$$
1F8D_9AM_A_0


 27 27  0  0  0  0  0  0  0  0999 V2000
   25.9708   16.5140   60.5027 C   0  0  0  0  0  0  0  0  0  0  0  0
   25.0816   15.8588   61.3005 C   0  0  0  0  0  0  0  0  0  0  0  0
   24.9084   16.2257   62.7950 C   0  0  0  0  0  0  0  0  0  0  0  0
   25.1656   17.7154   63.0164 C   0  0  0  0  0  0  0  0  0  0  0  0
   26.5292   18.0714   62.3818 C   0  0  0  0  0  0  0  0  0  0  0  0
   23.5989   15.9137   63.1187 O   0  0  0  0  0  0  0  0  0  0  0  0
   26.5112   17.7088   60.9566 O   0  0  0  0  0  0  0  0  0  0  0  0
   22.9964   16.4146   62.5469 H   0  0  0  0  0  0  0  0  0  0  0  0
   24.1178   18.4424   65.1358 C   0  0  0  0  0  0  0  0  0  0  0  0
   24.2769   18.6758   66.6499 C   0  0  0  0  0  0  0  0  0  0  0  0
   25.1782   18.0025   64.4630 N   0  0  0  0  0  0  0  0  0  0  0  0
   23.0327   18.6691   64.6004 O   0  0  0  0  0  0  0  0  0  0  0  0
   26.0173   17.8609   64.9581 H   0  0  0  0  0  0  0  0  0  0  0  0
   26.3448   16.1259   59.2210 C   0  0  0  0  0  0  0  0  0  0  0  0
   26.5326   14.9006   59.0422 O   0  0  0  0  0  0  0  0  0  0  0  0
   26.4863   16.9602   58.2988 O   0  0  0  0  0  0  0  0  0  0  0  0
   26.3384   17.8707   58.4639 H   0  0  0  0  0  0  0  0  0  0  0  0
   26.9011   19.6022   62.4494 C   0  0  0  0  0  0  0  0  0  0  0  0
   27.0156   20.0499   61.0776 O   0  0  0  0  0  0  0  0  0  0  0  0
   27.6777   19.5118   60.6160 H   0  0  0  0  0  0  0  0  0  0  0  0
   28.2323   19.7282   63.1712 C   0  0  0  0  0  0  0  0  0  0  0  0
   28.7994   20.9233   62.7941 O   0  0  0  0  0  0  0  0  0  0  0  0
   28.9535   20.9201   61.8364 H   0  0  0  0  0  0  0  0  0  0  0  0
   29.2000   18.5998   62.8583 C   0  0  0  0  0  0  0  0  0  0  0  0
   29.6836   18.6330   61.4517 N   0  0  0  0  0  0  0  0  0  0  0  0
   28.8923   18.5229   60.8174 H   0  0  0  0  0  0  0  0  0  0  0  0
   30.3473   17.8730   61.3023 H   0  0  0  0  0  0  0  0  0  0  0  0
 14  1  1  0  0  0
 14 15  2  0  0  0
 14 16  1  0  0  0
  1  2  2  0  0  0
  1  7  1  0  0  0
  2  3  1  0  0  0
  3  4  1  0  0  0
  3  6  1  0  0  0
  4  5  1  0  0  0
  4 11  1  0  0  0
  5 18  1  0  0  0
  5  7  1  0  0  0
 18 21  1  0  0  0
 18 19  1  0  0  0
 21 24  1  0  0  0
 21 22  1  0  0  0
 24 25  1  0  0  0
  9 10  1  0  0  0
  9 11  1  0  0  0
  9 12  2  0  0  0
 11 13  1  0  0  0
 16 17  1  0  0  0
  6  8  1  0  0  0
 19 20  1  0  0  0
 22 23  1  0  0  0
 25 26  1  0  0  0
 25 27  1  0  0  0
M  END
> <minimizedAffinity>
-8.08463

$$$$
1F8D_9AM_A_0


 27 27  0  0  0  0  0  0  0  0999 V2000
   25.9612   15.4062   61.3766 C   0  0  0  0  0  0  0  0  0  0  0  0
   24.6733   15.7430   61.6675 C   0  0  0  0  0  0  0  0  0  0  0  0
   24.3110   16.5364   62.9471 C   0  0  0  0  0  0  0  0  0  0  0  0
   25.4444   17.4872   63.3294 C   0  0  0  0  0  0  0  0  0  0  0  0
   26.7599   16.6775   63.3802 C   0  0  0  0  0  0  0  0  0  0  0  0
   23.1669   17.2546   62.6437 O   0  0  0  0  0  0  0  0  0  0  0  0
   26.9827   16.0304   62.0784 O   0  0  0  0  0  0  0  0  0  0  0  0
   23.3421   17.8380   61.8889 H   0  0  0  0  0  0  0  0  0  0  0  0
   24.9970   19.3972   64.8360 C   0  0  0  0  0  0  0  0  0  0  0  0
   24.6784   19.8776   66.2643 C   0  0  0  0  0  0  0  0  0  0  0  0
   25.1577   18.0903   64.6445 N   0  0  0  0  0  0  0  0  0  0  0  0
   25.0953   20.2234   63.9287 O   0  0  0  0  0  0  0  0  0  0  0  0
   25.0809   17.4931   65.4234 H   0  0  0  0  0  0  0  0  0  0  0  0
   26.3601   14.5279   60.3754 C   0  0  0  0  0  0  0  0  0  0  0  0
   27.5903   14.4609   60.1504 O   0  0  0  0  0  0  0  0  0  0  0  0
   25.5304   13.8438   59.7349 O   0  0  0  0  0  0  0  0  0  0  0  0
   24.6161   13.9162   59.9265 H   0  0  0  0  0  0  0  0  0  0  0  0
   28.0462   17.5396   63.6774 C   0  0  0  0  0  0  0  0  0  0  0  0
   27.7751   18.8614   63.1533 O   0  0  0  0  0  0  0  0  0  0  0  0
   27.5630   18.7976   62.2089 H   0  0  0  0  0  0  0  0  0  0  0  0
   29.2162   16.8996   62.9492 C   0  0  0  0  0  0  0  0  0  0  0  0
   29.4852   15.6999   63.5659 O   0  0  0  0  0  0  0  0  0  0  0  0
   29.7321   15.8597   64.4902 H   0  0  0  0  0  0  0  0  0  0  0  0
   30.4731   17.7527   62.9553 C   0  0  0  0  0  0  0  0  0  0  0  0
   30.5964   18.6005   61.7389 N   0  0  0  0  0  0  0  0  0  0  0  0
   30.6526   18.0042   60.9132 H   0  0  0  0  0  0  0  0  0  0  0  0
   31.4402   19.1697   61.8053 H   0  0  0  0  0  0  0  0  0  0  0  0
 14  1  1  0  0  0
 14 15  2  0  0  0
 14 16  1  0  0  0
  1  2  2  0  0  0
  1  7  1  0  0  0
  2  3  1  0  0  0
  3  4  1  0  0  0
  3  6  1  0  0  0
  4  5  1  0  0  0
  4 11  1  0  0  0
  5 18  1  0  0  0
  5  7  1  0  0  0
 18 21  1  0  0  0
 18 19  1  0  0  0
 21 24  1  0  0  0
 21 22  1  0  0  0
 24 25  1  0  0  0
  9 10  1  0  0  0
  9 11  1  0  0  0
  9 12  2  0  0  0
 11 13  1  0  0  0
 16 17  1  0  0  0
  6  8  1  0  0  0
 19 20  1  0  0  0
 22 23  1  0  0  0
 25 26  1  0  0  0
 25 27  1  0  0  0
M  END
> <minimizedAffinity>
-7.64671

$$$$
1F8D_9AM_A_0


 27 27  0  0  0  0  0  0  0  0999 V2000
   25.3271   16.5614   61.6272 C   0  0  0  0  0  0  0  0  0  0  0  0
   26.2031   15.5178   61.6352 C   0  0  0  0  0  0  0  0  0  0  0  0
   27.7327   15.7412   61.5421 C   0  0  0  0  0  0  0  0  0  0  0  0
   28.1248   17.0607   62.2051 C   0  0  0  0  0  0  0  0  0  0  0  0
   27.2364   18.1809   61.6181 C   0  0  0  0  0  0  0  0  0  0  0  0
   28.3182   14.6788   62.2093 O   0  0  0  0  0  0  0  0  0  0  0  0
   25.8215   17.8416   61.8328 O   0  0  0  0  0  0  0  0  0  0  0  0
   28.0062   14.6622   63.1276 H   0  0  0  0  0  0  0  0  0  0  0  0
   30.5249   17.0646   62.8034 C   0  0  0  0  0  0  0  0  0  0  0  0
   31.9687   17.3914   62.3779 C   0  0  0  0  0  0  0  0  0  0  0  0
   29.5490   17.3392   61.9415 N   0  0  0  0  0  0  0  0  0  0  0  0
   30.3191   16.5699   63.9117 O   0  0  0  0  0  0  0  0  0  0  0  0
   29.7910   17.7509   61.0805 H   0  0  0  0  0  0  0  0  0  0  0  0
   23.9468   16.4566   61.4974 C   0  0  0  0  0  0  0  0  0  0  0  0
   23.5272   15.6221   60.6629 O   0  0  0  0  0  0  0  0  0  0  0  0
   23.1691   17.1615   62.1792 O   0  0  0  0  0  0  0  0  0  0  0  0
   23.5136   17.7772   62.7957 H   0  0  0  0  0  0  0  0  0  0  0  0
   27.4598   19.5998   62.2684 C   0  0  0  0  0  0  0  0  0  0  0  0
   28.8060   19.9976   61.9147 O   0  0  0  0  0  0  0  0  0  0  0  0
   29.4337   19.3270   62.2264 H   0  0  0  0  0  0  0  0  0  0  0  0
   27.3188   19.4513   63.7740 C   0  0  0  0  0  0  0  0  0  0  0  0
   26.2587   20.2320   64.1724 O   0  0  0  0  0  0  0  0  0  0  0  0
   26.4420   21.1600   63.9580 H   0  0  0  0  0  0  0  0  0  0  0  0
   28.5599   19.8712   64.5428 C   0  0  0  0  0  0  0  0  0  0  0  0
   28.7648   21.3448   64.5399 N   0  0  0  0  0  0  0  0  0  0  0  0
   28.8922   21.6684   63.5810 H   0  0  0  0  0  0  0  0  0  0  0  0
   29.5932   21.5739   65.0890 H   0  0  0  0  0  0  0  0  0  0  0  0
 14  1  1  0  0  0
 14 15  2  0  0  0
 14 16  1  0  0  0
  1  2  2  0  0  0
  1  7  1  0  0  0
  2  3  1  0  0  0
  3  4  1  0  0  0
  3  6  1  0  0  0
  4  5  1  0  0  0
  4 11  1  0  0  0
  5 18  1  0  0  0
  5  7  1  0  0  0
 18 21  1  0  0  0
 18 19  1  0  0  0
 21 24  1  0  0  0
 21 22  1  0  0  0
 24 25  1  0  0  0
  9 10  1  0  0  0
  9 11  1  0  0  0
  9 12  2  0  0  0
 11 13  1  0  0  0
 16 17  1  0  0  0
  6  8  1  0  0  0
 19 20  1  0  0  0
 22 23  1  0  0  0
 25 26  1  0  0  0
 25 27  1  0  0  0
M  END
> <minimizedAffinity>
-7.58635

$$$$
1F8D_9AM_A_0


 27 27  0  0  0  0  0  0  0  0999 V2000
   24.2727   18.7087   64.1248 C   0  0  0  0  0  0  0  0  0  0  0  0
   23.5302   17.5993   63.8518 C   0  0  0  0  0  0  0  0  0  0  0  0
   23.9448   16.5967   62.7468 C   0  0  0  0  0  0  0  0  0  0  0  0
   25.4662   16.5370   62.6182 C   0  0  0  0  0  0  0  0  0  0  0  0
   25.9964   17.9802   62.4615 C   0  0  0  0  0  0  0  0  0  0  0  0
   23.4499   15.3648   63.1394 O   0  0  0  0  0  0  0  0  0  0  0  0
   25.5598   18.7858   63.6119 O   0  0  0  0  0  0  0  0  0  0  0  0
   23.8192   15.1288   64.0048 H   0  0  0  0  0  0  0  0  0  0  0  0
   26.6802   14.7014   61.4890 C   0  0  0  0  0  0  0  0  0  0  0  0
   26.9427   13.9289   60.1826 C   0  0  0  0  0  0  0  0  0  0  0  0
   25.8286   15.7228   61.4430 N   0  0  0  0  0  0  0  0  0  0  0  0
   27.2589   14.3588   62.5200 O   0  0  0  0  0  0  0  0  0  0  0  0
   25.4179   15.9474   60.5769 H   0  0  0  0  0  0  0  0  0  0  0  0
   23.8799   19.7629   64.9418 C   0  0  0  0  0  0  0  0  0  0  0  0
   24.3338   20.8931   64.6503 O   0  0  0  0  0  0  0  0  0  0  0  0
   23.1144   19.5867   65.9163 O   0  0  0  0  0  0  0  0  0  0  0  0
   22.7912   18.7286   66.1090 H   0  0  0  0  0  0  0  0  0  0  0  0
   27.5679   18.0960   62.4048 C   0  0  0  0  0  0  0  0  0  0  0  0
   28.0753   17.1865   63.4102 O   0  0  0  0  0  0  0  0  0  0  0  0
   27.7021   17.4193   64.2747 H   0  0  0  0  0  0  0  0  0  0  0  0
   27.9430   19.5307   62.7361 C   0  0  0  0  0  0  0  0  0  0  0  0
   27.3933   20.3393   61.7686 O   0  0  0  0  0  0  0  0  0  0  0  0
   27.7618   20.1037   60.9027 H   0  0  0  0  0  0  0  0  0  0  0  0
   29.4426   19.7681   62.7871 C   0  0  0  0  0  0  0  0  0  0  0  0
   30.1963   18.8724   61.8689 N   0  0  0  0  0  0  0  0  0  0  0  0
   30.0453   17.9012   62.1415 H   0  0  0  0  0  0  0  0  0  0  0  0
   31.1914   19.0899   61.9228 H   0  0  0  0  0  0  0  0  0  0  0  0
 14  1  1  0  0  0
 14 15  2  0  0  0
 14 16  1  0  0  0
  1  2  2  0  0  0
  1  7  1  0  0  0
  2  3  1  0  0  0
  3  4  1  0  0  0
  3  6  1  0  0  0
  4  5  1  0  0  0
  4 11  1  0  0  0
  5 18  1  0  0  0
  5  7  1  0  0  0
 18 21  1  0  0  0
 18 19  1  0  0  0
 21 24  1  0  0  0
 21 22  1  0  0  0
 24 25  1  0  0  0
  9 10  1  0  0  0
  9 11  1  0  0  0
  9 12  2  0  0  0
 11 13  1  0  0  0
 16 17  1  0  0  0
  6  8  1  0  0  0
 19 20  1  0  0  0
 22 23  1  0  0  0
 25 26  1  0  0  0
 25 27  1  0  0  0
M  END
> <minimizedAffinity>
-7.54624

$$$$
1F8D_9AM_A_0


 27 27  0  0  0  0  0  0  0  0999 V2000
   24.9508   14.8571   61.7247 C   0  0  0  0  0  0  0  0  0  0  0  0
   26.2239   14.3717   61.7371 C   0  0  0  0  0  0  0  0  0  0  0  0
   27.4520   15.3147   61.7578 C   0  0  0  0  0  0  0  0  0  0  0  0
   27.1282   16.6030   62.5129 C   0  0  0  0  0  0  0  0  0  0  0  0
   25.8260   17.1941   61.9267 C   0  0  0  0  0  0  0  0  0  0  0  0
   28.4591   14.6210   62.4068 O   0  0  0  0  0  0  0  0  0  0  0  0
   24.7505   16.1962   62.0287 O   0  0  0  0  0  0  0  0  0  0  0  0
   28.1648   14.3840   63.3002 H   0  0  0  0  0  0  0  0  0  0  0  0
   29.2257   17.6892   63.2471 C   0  0  0  0  0  0  0  0  0  0  0  0
   30.3355   18.7116   62.9386 C   0  0  0  0  0  0  0  0  0  0  0  0
   28.2432   17.5562   62.3596 N   0  0  0  0  0  0  0  0  0  0  0  0
   29.2775   17.0378   64.2904 O   0  0  0  0  0  0  0  0  0  0  0  0
   28.2616   18.1253   61.5565 H   0  0  0  0  0  0  0  0  0  0  0  0
   23.8023   14.1070   61.4979 C   0  0  0  0  0  0  0  0  0  0  0  0
   23.1259   14.4143   60.4896 O   0  0  0  0  0  0  0  0  0  0  0  0
   23.4656   13.1762   62.2639 O   0  0  0  0  0  0  0  0  0  0  0  0
   23.9927   12.9701   63.0107 H   0  0  0  0  0  0  0  0  0  0  0  0
   25.3070   18.4882   62.6629 C   0  0  0  0  0  0  0  0  0  0  0  0
   26.1209   19.5821   62.1767 O   0  0  0  0  0  0  0  0  0  0  0  0
   27.0562   19.3899   62.3472 H   0  0  0  0  0  0  0  0  0  0  0  0
   25.5073   18.2885   64.1559 C   0  0  0  0  0  0  0  0  0  0  0  0
   24.4239   17.5871   64.6317 O   0  0  0  0  0  0  0  0  0  0  0  0
   23.6151   18.1016   64.4831 H   0  0  0  0  0  0  0  0  0  0  0  0
   25.6337   19.5898   64.9293 C   0  0  0  0  0  0  0  0  0  0  0  0
   24.6221   20.6008   64.5194 N   0  0  0  0  0  0  0  0  0  0  0  0
   24.7528   20.8328   63.5348 H   0  0  0  0  0  0  0  0  0  0  0  0
   24.7340   21.4424   65.0848 H   0  0  0  0  0  0  0  0  0  0  0  0
 14  1  1  0  0  0
 14 15  2  0  0  0
 14 16  1  0  0  0
  1  2  2  0  0  0
  1  7  1  0  0  0
  2  3  1  0  0  0
  3  4  1  0  0  0
  3  6  1  0  0  0
  4  5  1  0  0  0
  4 11  1  0  0  0
  5 18  1  0  0  0
  5  7  1  0  0  0
 18 21  1  0  0  0
 18 19  1  0  0  0
 21 24  1  0  0  0
 21 22  1  0  0  0
 24 25  1  0  0  0
  9 10  1  0  0  0
  9 11  1  0  0  0
  9 12  2  0  0  0
 11 13  1  0  0  0
 16 17  1  0  0  0
  6  8  1  0  0  0
 19 20  1  0  0  0
 22 23  1  0  0  0
 25 26  1  0  0  0
 25 27  1  0  0  0
M  END
> <minimizedAffinity>
-7.43827

$$$$
1F8D_9AM_A_0


 27 27  0  0  0  0  0  0  0  0999 V2000
   28.1330   19.1879   62.5946 C   0  0  0  0  0  0  0  0  0  0  0  0
   28.0647   18.5760   61.3791 C   0  0  0  0  0  0  0  0  0  0  0  0
   27.1747   17.3302   61.1463 C   0  0  0  0  0  0  0  0  0  0  0  0
   25.9334   17.3822   62.0357 C   0  0  0  0  0  0  0  0  0  0  0  0
   26.3902   17.6300   63.4913 C   0  0  0  0  0  0  0  0  0  0  0  0
   26.8078   17.3632   59.8117 O   0  0  0  0  0  0  0  0  0  0  0  0
   27.1767   18.8714   63.5491 O   0  0  0  0  0  0  0  0  0  0  0  0
   26.3355   18.1900   59.6266 H   0  0  0  0  0  0  0  0  0  0  0  0
   24.1756   15.9087   61.1101 C   0  0  0  0  0  0  0  0  0  0  0  0
   23.5252   14.5126   61.0979 C   0  0  0  0  0  0  0  0  0  0  0  0
   25.2018   16.1057   61.9339 N   0  0  0  0  0  0  0  0  0  0  0  0
   23.7321   16.7881   60.3716 O   0  0  0  0  0  0  0  0  0  0  0  0
   25.4884   15.3582   62.5069 H   0  0  0  0  0  0  0  0  0  0  0  0
   29.0487   20.1704   62.9542 C   0  0  0  0  0  0  0  0  0  0  0  0
   28.7697   21.3433   62.6151 O   0  0  0  0  0  0  0  0  0  0  0  0
   30.0951   19.8926   63.5822 O   0  0  0  0  0  0  0  0  0  0  0  0
   30.2760   19.0050   63.8219 H   0  0  0  0  0  0  0  0  0  0  0  0
   25.2121   17.7981   64.5257 C   0  0  0  0  0  0  0  0  0  0  0  0
   24.0530   18.1957   63.7550 O   0  0  0  0  0  0  0  0  0  0  0  0
   24.2542   19.0075   63.2638 H   0  0  0  0  0  0  0  0  0  0  0  0
   25.6058   18.8873   65.5093 C   0  0  0  0  0  0  0  0  0  0  0  0
   25.7658   18.2979   66.7418 O   0  0  0  0  0  0  0  0  0  0  0  0
   24.9260   17.9015   67.0222 H   0  0  0  0  0  0  0  0  0  0  0  0
   24.5791   20.0012   65.6223 C   0  0  0  0  0  0  0  0  0  0  0  0
   24.5557   20.8829   64.4241 N   0  0  0  0  0  0  0  0  0  0  0  0
   25.4643   21.3336   64.3159 H   0  0  0  0  0  0  0  0  0  0  0  0
   23.8346   21.5949   64.5400 H   0  0  0  0  0  0  0  0  0  0  0  0
 14  1  1  0  0  0
 14 15  2  0  0  0
 14 16  1  0  0  0
  1  2  2  0  0  0
  1  7  1  0  0  0
  2  3  1  0  0  0
  3  4  1  0  0  0
  3  6  1  0  0  0
  4  5  1  0  0  0
  4 11  1  0  0  0
  5 18  1  0  0  0
  5  7  1  0  0  0
 18 21  1  0  0  0
 18 19  1  0  0  0
 21 24  1  0  0  0
 21 22  1  0  0  0
 24 25  1  0  0  0
  9 10  1  0  0  0
  9 11  1  0  0  0
  9 12  2  0  0  0
 11 13  1  0  0  0
 16 17  1  0  0  0
  6  8  1  0  0  0
 19 20  1  0  0  0
 22 23  1  0  0  0
 25 26  1  0  0  0
 25 27  1  0  0  0
M  END
> <minimizedAffinity>
-7.35370

$$$$
1F8D_9AM_A_0


 27 27  0  0  0  0  0  0  0  0999 V2000
   29.1922   17.5612   62.2201 C   0  0  0  0  0  0  0  0  0  0  0  0
   29.1504   16.2576   61.8258 C   0  0  0  0  0  0  0  0  0  0  0  0
   27.8988   15.3773   62.0638 C   0  0  0  0  0  0  0  0  0  0  0  0
   26.6277   16.2234   62.0087 C   0  0  0  0  0  0  0  0  0  0  0  0
   26.8048   17.4267   62.9624 C   0  0  0  0  0  0  0  0  0  0  0  0
   27.8908   14.4367   61.0480 O   0  0  0  0  0  0  0  0  0  0  0  0
   28.0031   18.1845   62.5711 O   0  0  0  0  0  0  0  0  0  0  0  0
   27.8629   14.8879   60.1898 H   0  0  0  0  0  0  0  0  0  0  0  0
   24.7019   14.7357   61.5659 C   0  0  0  0  0  0  0  0  0  0  0  0
   23.5445   13.9020   62.1470 C   0  0  0  0  0  0  0  0  0  0  0  0
   25.4729   15.4034   62.4204 N   0  0  0  0  0  0  0  0  0  0  0  0
   24.8748   14.7621   60.3474 O   0  0  0  0  0  0  0  0  0  0  0  0
   25.2610   15.3470   63.3801 H   0  0  0  0  0  0  0  0  0  0  0  0
   30.3277   18.3632   62.2399 C   0  0  0  0  0  0  0  0  0  0  0  0
   31.4144   17.7974   61.9800 O   0  0  0  0  0  0  0  0  0  0  0  0
   30.2626   19.5847   62.5052 O   0  0  0  0  0  0  0  0  0  0  0  0
   29.4344   19.9793   62.6956 H   0  0  0  0  0  0  0  0  0  0  0  0
   25.6053   18.4500   62.9522 C   0  0  0  0  0  0  0  0  0  0  0  0
   26.1848   19.7474   62.6760 O   0  0  0  0  0  0  0  0  0  0  0  0
   26.8588   19.9493   63.3438 H   0  0  0  0  0  0  0  0  0  0  0  0
   24.9610   18.4285   64.3282 C   0  0  0  0  0  0  0  0  0  0  0  0
   23.6267   18.1401   64.1593 O   0  0  0  0  0  0  0  0  0  0  0  0
   23.2117   18.8330   63.6222 H   0  0  0  0  0  0  0  0  0  0  0  0
   25.0929   19.7424   65.0792 C   0  0  0  0  0  0  0  0  0  0  0  0
   24.3036   20.8397   64.4575 N   0  0  0  0  0  0  0  0  0  0  0  0
   24.6439   21.0092   63.5110 H   0  0  0  0  0  0  0  0  0  0  0  0
   24.4060   21.6890   65.0129 H   0  0  0  0  0  0  0  0  0  0  0  0
 14  1  1  0  0  0
 14 15  2  0  0  0
 14 16  1  0  0  0
  1  2  2  0  0  0
  1  7  1  0  0  0
  2  3  1  0  0  0
  3  4  1  0  0  0
  3  6  1  0  0  0
  4  5  1  0  0  0
  4 11  1  0  0  0
  5 18  1  0  0  0
  5  7  1  0  0  0
 18 21  1  0  0  0
 18 19  1  0  0  0
 21 24  1  0  0  0
 21 22  1  0  0  0
 24 25  1  0  0  0
  9 10  1  0  0  0
  9 11  1  0  0  0
  9 12  2  0  0  0
 11 13  1  0  0  0
 16 17  1  0  0  0
  6  8  1  0  0  0
 19 20  1  0  0  0
 22 23  1  0  0  0
 25 26  1  0  0  0
 25 27  1  0  0  0
M  END
> <minimizedAffinity>
-7.32102

$$$$
1F8D_9AM_A_0


 27 27  0  0  0  0  0  0  0  0999 V2000
   29.1577   20.5544   64.4417 C   0  0  0  0  0  0  0  0  0  0  0  0
   29.9818   19.9790   63.5217 C   0  0  0  0  0  0  0  0  0  0  0  0
   29.5974   18.6658   62.7965 C   0  0  0  0  0  0  0  0  0  0  0  0
   28.0830   18.5754   62.6143 C   0  0  0  0  0  0  0  0  0  0  0  0
   27.4145   18.8158   63.9868 C   0  0  0  0  0  0  0  0  0  0  0  0
   30.2252   18.7090   61.5634 O   0  0  0  0  0  0  0  0  0  0  0  0
   27.8414   20.1211   64.5132 O   0  0  0  0  0  0  0  0  0  0  0  0
   29.9300   19.4950   61.0776 H   0  0  0  0  0  0  0  0  0  0  0  0
   27.1935   17.0381   60.8928 C   0  0  0  0  0  0  0  0  0  0  0  0
   26.8990   15.5846   60.4772 C   0  0  0  0  0  0  0  0  0  0  0  0
   27.7292   17.2416   62.0936 N   0  0  0  0  0  0  0  0  0  0  0  0
   26.9259   17.9545   60.1156 O   0  0  0  0  0  0  0  0  0  0  0  0
   27.8987   16.4588   62.6661 H   0  0  0  0  0  0  0  0  0  0  0  0
   29.4990   21.6038   65.2875 C   0  0  0  0  0  0  0  0  0  0  0  0
   28.5771   22.3935   65.5958 O   0  0  0  0  0  0  0  0  0  0  0  0
   30.6666   21.7482   65.7145 O   0  0  0  0  0  0  0  0  0  0  0  0
   31.3350   21.1404   65.4658 H   0  0  0  0  0  0  0  0  0  0  0  0
   25.8384   18.8421   63.9498 C   0  0  0  0  0  0  0  0  0  0  0  0
   25.4739   19.9550   63.0988 O   0  0  0  0  0  0  0  0  0  0  0  0
   25.8655   20.7708   63.4480 H   0  0  0  0  0  0  0  0  0  0  0  0
   25.3412   19.0621   65.3687 C   0  0  0  0  0  0  0  0  0  0  0  0
   26.0836   18.2562   66.2002 O   0  0  0  0  0  0  0  0  0  0  0  0
   25.9498   17.3275   65.9544 H   0  0  0  0  0  0  0  0  0  0  0  0
   23.8681   18.7391   65.5511 C   0  0  0  0  0  0  0  0  0  0  0  0
   22.9770   19.7633   64.9424 N   0  0  0  0  0  0  0  0  0  0  0  0
   23.1362   20.6640   65.3939 H   0  0  0  0  0  0  0  0  0  0  0  0
   22.0037   19.4863   65.0701 H   0  0  0  0  0  0  0  0  0  0  0  0
 14  1  1  0  0  0
 14 15  2  0  0  0
 14 16  1  0  0  0
  1  2  2  0  0  0
  1  7  1  0  0  0
  2  3  1  0  0  0
  3  4  1  0  0  0
  3  6  1  0  0  0
  4  5  1  0  0  0
  4 11  1  0  0  0
  5 18  1  0  0  0
  5  7  1  0  0  0
 18 21  1  0  0  0
 18 19  1  0  0  0
 21 24  1  0  0  0
 21 22  1  0  0  0
 24 25  1  0  0  0
  9 10  1  0  0  0
  9 11  1  0  0  0
  9 12  2  0  0  0
 11 13  1  0  0  0
 16 17  1  0  0  0
  6  8  1  0  0  0
 19 20  1  0  0  0
 22 23  1  0  0  0
 25 26  1  0  0  0
 25 27  1  0  0  0
M  END
> <minimizedAffinity>
-7.30359

$$$$
1F8D_9AM_A_0


 27 27  0  0  0  0  0  0  0  0999 V2000
   25.0116   14.7827   61.6159 C   0  0  0  0  0  0  0  0  0  0  0  0
   26.0749   14.1819   61.0118 C   0  0  0  0  0  0  0  0  0  0  0  0
   27.4575   14.8740   60.9260 C   0  0  0  0  0  0  0  0  0  0  0  0
   27.6876   15.7685   62.1432 C   0  0  0  0  0  0  0  0  0  0  0  0
   26.4665   16.7037   62.2951 C   0  0  0  0  0  0  0  0  0  0  0  0
   28.3961   13.8567   60.8966 O   0  0  0  0  0  0  0  0  0  0  0  0
   25.2454   15.8929   62.4151 O   0  0  0  0  0  0  0  0  0  0  0  0
   28.3083   13.3126   61.6948 H   0  0  0  0  0  0  0  0  0  0  0  0
   29.9251   16.5761   62.8211 C   0  0  0  0  0  0  0  0  0  0  0  0
   31.1595   17.4278   62.4701 C   0  0  0  0  0  0  0  0  0  0  0  0
   28.9201   16.5551   61.9493 N   0  0  0  0  0  0  0  0  0  0  0  0
   29.9035   15.9524   63.8822 O   0  0  0  0  0  0  0  0  0  0  0  0
   29.0037   17.0943   61.1299 H   0  0  0  0  0  0  0  0  0  0  0  0
   23.6949   14.3397   61.5614 C   0  0  0  0  0  0  0  0  0  0  0  0
   23.1456   14.0879   62.6584 O   0  0  0  0  0  0  0  0  0  0  0  0
   23.0950   14.2001   60.4717 O   0  0  0  0  0  0  0  0  0  0  0  0
   23.5332   14.3968   59.6672 H   0  0  0  0  0  0  0  0  0  0  0  0
   26.5117   17.6353   63.5665 C   0  0  0  0  0  0  0  0  0  0  0  0
   25.2239   17.4972   64.2130 O   0  0  0  0  0  0  0  0  0  0  0  0
   24.5210   17.7321   63.5872 H   0  0  0  0  0  0  0  0  0  0  0  0
   26.7274   19.0628   63.0924 C   0  0  0  0  0  0  0  0  0  0  0  0
   25.6145   19.7910   63.4431 O   0  0  0  0  0  0  0  0  0  0  0  0
   24.8339   19.4215   63.0015 H   0  0  0  0  0  0  0  0  0  0  0  0
   26.9422   19.1770   61.5930 C   0  0  0  0  0  0  0  0  0  0  0  0
   28.3511   19.4975   61.2385 N   0  0  0  0  0  0  0  0  0  0  0  0
   28.6056   20.4003   61.6392 H   0  0  0  0  0  0  0  0  0  0  0  0
   28.4458   19.5371   60.2236 H   0  0  0  0  0  0  0  0  0  0  0  0
 14  1  1  0  0  0
 14 15  2  0  0  0
 14 16  1  0  0  0
  1  2  2  0  0  0
  1  7  1  0  0  0
  2  3  1  0  0  0
  3  4  1  0  0  0
  3  6  1  0  0  0
  4  5  1  0  0  0
  4 11  1  0  0  0
  5 18  1  0  0  0
  5  7  1  0  0  0
 18 21  1  0  0  0
 18 19  1  0  0  0
 21 24  1  0  0  0
 21 22  1  0  0  0
 24 25  1  0  0  0
  9 10  1  0  0  0
  9 11  1  0  0  0
  9 12  2  0  0  0
 11 13  1  0  0  0
 16 17  1  0  0  0
  6  8  1  0  0  0
 19 20  1  0  0  0
 22 23  1  0  0  0
 25 26  1  0  0  0
 25 27  1  0  0  0
M  END
> <minimizedAffinity>
-7.07267

$$$$
