2WOR_2AN_A_1098


 23 25  0  0  0  0  0  0  0  0999 V2000
    2.8615    5.3961    7.0415 C   0  0  0  0  0  0  0  0  0  0  0  0
    4.1841    5.5719    7.5198 C   0  0  0  0  0  0  0  0  0  0  0  0
    5.3318    5.7614    6.6639 C   0  0  0  0  0  0  0  0  0  0  0  0
    5.0772    5.7531    5.3098 C   0  0  0  0  0  0  0  0  0  0  0  0
    3.8020    5.6088    4.7613 C   0  0  0  0  0  0  0  0  0  0  0  0
    3.6073    5.6433    3.3519 C   0  0  0  0  0  0  0  0  0  0  0  0
    2.3234    5.4740    2.8083 C   0  0  0  0  0  0  0  0  0  0  0  0
    1.0960    5.3237    3.5701 C   0  0  0  0  0  0  0  0  0  0  0  0
    1.2031    5.3412    4.9637 C   0  0  0  0  0  0  0  0  0  0  0  0
    2.5727    5.4180    5.6029 C   0  0  0  0  0  0  0  0  0  0  0  0
   -0.2816    5.3509    5.7964 S   0  0  0  0  0  0  0  0  0  0  0  0
   -1.3928    5.4438    4.7885 O   0  0  0  0  0  0  0  0  0  0  0  0
   -0.2943    6.6122    6.4900 O   0  0  0  0  0  0  0  0  0  0  0  0
   -0.4677    4.1887    6.6974 O   0  0  0  0  0  0  0  0  0  0  0  0
   -0.4505    3.3702    6.1772 H   0  0  0  0  0  0  0  0  0  0  0  0
    1.8127    5.1030    7.9582 N   0  0  0  0  0  0  0  0  0  0  0  0
    1.2463    4.3278    7.7403 H   0  0  0  0  0  0  0  0  0  0  0  0
    1.5075    5.7666    9.0904 C   0  0  0  0  0  0  0  0  0  0  0  0
    0.9114    4.9373   10.1097 C   0  0  0  0  0  0  0  0  0  0  0  0
    0.6274    5.6187   11.3642 C   0  0  0  0  0  0  0  0  0  0  0  0
    0.8273    6.9758   11.4435 C   0  0  0  0  0  0  0  0  0  0  0  0
    1.3972    7.7907   10.3994 C   0  0  0  0  0  0  0  0  0  0  0  0
    1.7576    7.1291    9.1922 C   0  0  0  0  0  0  0  0  0  0  0  0
  1  2  2  0  0  0
  1 16  1  0  0  0
  1 10  1  0  0  0
  2  3  1  0  0  0
  3  4  2  0  0  0
  4  5  1  0  0  0
  5  6  2  0  0  0
  5 10  1  0  0  0
  6  7  1  0  0  0
  7  8  2  0  0  0
  8  9  1  0  0  0
 16 18  1  0  0  0
 11  9  1  0  0  0
 11 12  2  0  0  0
 11 13  2  0  0  0
 11 14  1  0  0  0
  9 10  2  0  0  0
 18 19  2  0  0  0
 18 23  1  0  0  0
 19 20  1  0  0  0
 20 21  2  0  0  0
 21 22  1  0  0  0
 22 23  2  0  0  0
 16 17  1  0  0  0
 14 15  1  0  0  0
M  END
> <minimizedAffinity>
-6.73918

$$$$
2WOR_2AN_A_1098


 23 25  0  0  0  0  0  0  0  0999 V2000
    2.8038    5.3835    7.0511 C   0  0  0  0  0  0  0  0  0  0  0  0
    4.1223    5.5657    7.5380 C   0  0  0  0  0  0  0  0  0  0  0  0
    5.2749    5.7597    6.6896 C   0  0  0  0  0  0  0  0  0  0  0  0
    5.0294    5.7490    5.3339 C   0  0  0  0  0  0  0  0  0  0  0  0
    3.7585    5.5984    4.7770 C   0  0  0  0  0  0  0  0  0  0  0  0
    3.5731    5.6307    3.3663 C   0  0  0  0  0  0  0  0  0  0  0  0
    2.2937    5.4550    2.8143 C   0  0  0  0  0  0  0  0  0  0  0  0
    1.0619    5.2998    3.5680 C   0  0  0  0  0  0  0  0  0  0  0  0
    1.1596    5.3190    4.9622 C   0  0  0  0  0  0  0  0  0  0  0  0
    2.5245    5.4028    5.6106 C   0  0  0  0  0  0  0  0  0  0  0  0
   -0.3307    5.3228    5.7850 S   0  0  0  0  0  0  0  0  0  0  0  0
   -1.4361    5.3883    4.7687 O   0  0  0  0  0  0  0  0  0  0  0  0
   -0.3629    6.5934    6.4608 O   0  0  0  0  0  0  0  0  0  0  0  0
   -0.5091    4.1711    6.7010 O   0  0  0  0  0  0  0  0  0  0  0  0
   -0.4787    3.3457    6.1925 H   0  0  0  0  0  0  0  0  0  0  0  0
    1.7502    5.0864    7.9610 N   0  0  0  0  0  0  0  0  0  0  0  0
    1.1773    4.3198    7.7303 H   0  0  0  0  0  0  0  0  0  0  0  0
    1.4486    5.7357    9.1023 C   0  0  0  0  0  0  0  0  0  0  0  0
    1.6992    7.1557    9.0492 C   0  0  0  0  0  0  0  0  0  0  0  0
    1.3251    7.8885   10.2499 C   0  0  0  0  0  0  0  0  0  0  0  0
    0.8906    7.1868   11.3484 C   0  0  0  0  0  0  0  0  0  0  0  0
    0.6760    5.7615   11.3882 C   0  0  0  0  0  0  0  0  0  0  0  0
    0.9588    5.0355   10.1975 C   0  0  0  0  0  0  0  0  0  0  0  0
  1  2  2  0  0  0
  1 16  1  0  0  0
  1 10  1  0  0  0
  2  3  1  0  0  0
  3  4  2  0  0  0
  4  5  1  0  0  0
  5  6  2  0  0  0
  5 10  1  0  0  0
  6  7  1  0  0  0
  7  8  2  0  0  0
  8  9  1  0  0  0
 16 18  1  0  0  0
 11  9  1  0  0  0
 11 12  2  0  0  0
 11 13  2  0  0  0
 11 14  1  0  0  0
  9 10  2  0  0  0
 18 19  2  0  0  0
 18 23  1  0  0  0
 19 20  1  0  0  0
 20 21  2  0  0  0
 21 22  1  0  0  0
 22 23  2  0  0  0
 16 17  1  0  0  0
 14 15  1  0  0  0
M  END
> <minimizedAffinity>
-6.67536

$$$$
2WOR_2AN_A_1098


 23 25  0  0  0  0  0  0  0  0999 V2000
    0.2881    5.6624    2.8960 C   0  0  0  0  0  0  0  0  0  0  0  0
   -1.0804    5.9476    2.6615 C   0  0  0  0  0  0  0  0  0  0  0  0
   -2.0490    6.1663    3.7102 C   0  0  0  0  0  0  0  0  0  0  0  0
   -1.5691    6.0717    4.9982 C   0  0  0  0  0  0  0  0  0  0  0  0
   -0.2329    5.8173    5.3113 C   0  0  0  0  0  0  0  0  0  0  0  0
    0.2006    5.7664    6.6659 C   0  0  0  0  0  0  0  0  0  0  0  0
    1.5426    5.4868    6.9717 C   0  0  0  0  0  0  0  0  0  0  0  0
    2.6084    5.2972    6.0033 C   0  0  0  0  0  0  0  0  0  0  0  0
    2.2674    5.3934    4.6513 C   0  0  0  0  0  0  0  0  0  0  0  0
    0.8182    5.5914    4.2625 C   0  0  0  0  0  0  0  0  0  0  0  0
    3.5855    5.3504    3.5750 S   0  0  0  0  0  0  0  0  0  0  0  0
    3.5723    4.0297    2.8577 O   0  0  0  0  0  0  0  0  0  0  0  0
    4.7433    5.3048    4.4292 O   0  0  0  0  0  0  0  0  0  0  0  0
    3.6116    6.4824    2.6183 O   0  0  0  0  0  0  0  0  0  0  0  0
    2.8106    6.4624    2.0717 H   0  0  0  0  0  0  0  0  0  0  0  0
    1.1416    5.3500    1.8006 N   0  0  0  0  0  0  0  0  0  0  0  0
    1.9737    5.8719    1.7327 H   0  0  0  0  0  0  0  0  0  0  0  0
    0.9396    4.4209    0.8461 C   0  0  0  0  0  0  0  0  0  0  0  0
    1.9501    4.4136   -0.1839 C   0  0  0  0  0  0  0  0  0  0  0  0
    1.7863    3.3790   -1.1946 C   0  0  0  0  0  0  0  0  0  0  0  0
    0.6599    2.5927   -1.1643 C   0  0  0  0  0  0  0  0  0  0  0  0
   -0.3538    2.6383   -0.1400 C   0  0  0  0  0  0  0  0  0  0  0  0
   -0.1712    3.5888    0.9031 C   0  0  0  0  0  0  0  0  0  0  0  0
  1  2  2  0  0  0
  1 16  1  0  0  0
  1 10  1  0  0  0
  2  3  1  0  0  0
  3  4  2  0  0  0
  4  5  1  0  0  0
  5  6  2  0  0  0
  5 10  1  0  0  0
  6  7  1  0  0  0
  7  8  2  0  0  0
  8  9  1  0  0  0
 16 18  1  0  0  0
 11  9  1  0  0  0
 11 12  2  0  0  0
 11 13  2  0  0  0
 11 14  1  0  0  0
  9 10  2  0  0  0
 18 19  2  0  0  0
 18 23  1  0  0  0
 19 20  1  0  0  0
 20 21  2  0  0  0
 21 22  1  0  0  0
 22 23  2  0  0  0
 16 17  1  0  0  0
 14 15  1  0  0  0
M  END
> <minimizedAffinity>
-6.47746

$$$$
2WOR_2AN_A_1098


 23 25  0  0  0  0  0  0  0  0999 V2000
    1.6534    5.3961    5.2421 C   0  0  0  0  0  0  0  0  0  0  0  0
    2.4668    5.3873    4.0814 C   0  0  0  0  0  0  0  0  0  0  0  0
    3.9086    5.4663    4.1073 C   0  0  0  0  0  0  0  0  0  0  0  0
    4.4808    5.5649    5.3568 C   0  0  0  0  0  0  0  0  0  0  0  0
    3.7513    5.5571    6.5466 C   0  0  0  0  0  0  0  0  0  0  0  0
    4.4110    5.6286    7.8057 C   0  0  0  0  0  0  0  0  0  0  0  0
    3.6672    5.6435    8.9969 C   0  0  0  0  0  0  0  0  0  0  0  0
    2.2230    5.5224    9.0933 C   0  0  0  0  0  0  0  0  0  0  0  0
    1.5122    5.3875    7.8974 C   0  0  0  0  0  0  0  0  0  0  0  0
    2.2524    5.4678    6.5798 C   0  0  0  0  0  0  0  0  0  0  0  0
   -0.1481    5.0614    8.0835 S   0  0  0  0  0  0  0  0  0  0  0  0
   -0.9223    6.2855    7.6816 O   0  0  0  0  0  0  0  0  0  0  0  0
   -0.3330    4.9478    9.5066 O   0  0  0  0  0  0  0  0  0  0  0  0
   -0.6082    3.8650    7.3391 O   0  0  0  0  0  0  0  0  0  0  0  0
   -0.4595    3.9979    6.3898 H   0  0  0  0  0  0  0  0  0  0  0  0
    0.2365    5.4287    5.1106 N   0  0  0  0  0  0  0  0  0  0  0  0
   -0.2769    4.9423    5.7955 H   0  0  0  0  0  0  0  0  0  0  0  0
   -0.4816    6.0501    4.1549 C   0  0  0  0  0  0  0  0  0  0  0  0
   -0.6154    7.4725    4.3579 C   0  0  0  0  0  0  0  0  0  0  0  0
   -1.3365    8.1755    3.3070 C   0  0  0  0  0  0  0  0  0  0  0  0
   -1.9195    7.4465    2.2988 C   0  0  0  0  0  0  0  0  0  0  0  0
   -1.7976    6.0194    2.1324 C   0  0  0  0  0  0  0  0  0  0  0  0
   -1.0278    5.3224    3.1053 C   0  0  0  0  0  0  0  0  0  0  0  0
  1  2  2  0  0  0
  1 16  1  0  0  0
  1 10  1  0  0  0
  2  3  1  0  0  0
  3  4  2  0  0  0
  4  5  1  0  0  0
  5  6  2  0  0  0
  5 10  1  0  0  0
  6  7  1  0  0  0
  7  8  2  0  0  0
  8  9  1  0  0  0
 16 18  1  0  0  0
 11  9  1  0  0  0
 11 12  2  0  0  0
 11 13  2  0  0  0
 11 14  1  0  0  0
  9 10  2  0  0  0
 18 19  2  0  0  0
 18 23  1  0  0  0
 19 20  1  0  0  0
 20 21  2  0  0  0
 21 22  1  0  0  0
 22 23  2  0  0  0
 16 17  1  0  0  0
 14 15  1  0  0  0
M  END
> <minimizedAffinity>
-6.38483

$$$$
2WOR_2AN_A_1098


 23 25  0  0  0  0  0  0  0  0999 V2000
    2.6839    5.2874    3.8688 C   0  0  0  0  0  0  0  0  0  0  0  0
    4.0867    5.3310    4.0669 C   0  0  0  0  0  0  0  0  0  0  0  0
    4.7126    5.5719    5.3460 C   0  0  0  0  0  0  0  0  0  0  0  0
    3.8540    5.7758    6.4041 C   0  0  0  0  0  0  0  0  0  0  0  0
    2.4634    5.7261    6.2952 C   0  0  0  0  0  0  0  0  0  0  0  0
    1.6364    5.9132    7.4383 C   0  0  0  0  0  0  0  0  0  0  0  0
    0.2377    5.8845    7.3148 C   0  0  0  0  0  0  0  0  0  0  0  0
   -0.4975    5.6056    6.0936 C   0  0  0  0  0  0  0  0  0  0  0  0
    0.2515    5.3519    4.9410 C   0  0  0  0  0  0  0  0  0  0  0  0
    1.7593    5.4705    4.9935 C   0  0  0  0  0  0  0  0  0  0  0  0
   -0.6571    4.8482    3.5925 S   0  0  0  0  0  0  0  0  0  0  0  0
   -0.5395    5.8952    2.5206 O   0  0  0  0  0  0  0  0  0  0  0  0
   -2.0245    4.9148    4.0374 O   0  0  0  0  0  0  0  0  0  0  0  0
   -0.2751    3.5099    3.0821 O   0  0  0  0  0  0  0  0  0  0  0  0
    0.6522    3.5248    2.7980 H   0  0  0  0  0  0  0  0  0  0  0  0
    2.1611    5.1566    2.5513 N   0  0  0  0  0  0  0  0  0  0  0  0
    1.5112    5.8404    2.2696 H   0  0  0  0  0  0  0  0  0  0  0  0
    2.4550    4.2028    1.6463 C   0  0  0  0  0  0  0  0  0  0  0  0
    2.0726    4.5417    0.2968 C   0  0  0  0  0  0  0  0  0  0  0  0
    2.4336    3.5525   -0.7082 C   0  0  0  0  0  0  0  0  0  0  0  0
    2.9819    2.3604   -0.3006 C   0  0  0  0  0  0  0  0  0  0  0  0
    3.3282    2.0311    1.0598 C   0  0  0  0  0  0  0  0  0  0  0  0
    3.0579    3.0179    2.0487 C   0  0  0  0  0  0  0  0  0  0  0  0
  1  2  2  0  0  0
  1 16  1  0  0  0
  1 10  1  0  0  0
  2  3  1  0  0  0
  3  4  2  0  0  0
  4  5  1  0  0  0
  5  6  2  0  0  0
  5 10  1  0  0  0
  6  7  1  0  0  0
  7  8  2  0  0  0
  8  9  1  0  0  0
 16 18  1  0  0  0
 11  9  1  0  0  0
 11 12  2  0  0  0
 11 13  2  0  0  0
 11 14  1  0  0  0
  9 10  2  0  0  0
 18 19  2  0  0  0
 18 23  1  0  0  0
 19 20  1  0  0  0
 20 21  2  0  0  0
 21 22  1  0  0  0
 22 23  2  0  0  0
 16 17  1  0  0  0
 14 15  1  0  0  0
M  END
> <minimizedAffinity>
-6.34283

$$$$
2WOR_2AN_A_1098


 23 25  0  0  0  0  0  0  0  0999 V2000
    0.5772    5.2519    3.1849 C   0  0  0  0  0  0  0  0  0  0  0  0
    0.8527    4.9464    1.8285 C   0  0  0  0  0  0  0  0  0  0  0  0
    2.1837    4.7695    1.2967 C   0  0  0  0  0  0  0  0  0  0  0  0
    3.2144    4.9271    2.1973 C   0  0  0  0  0  0  0  0  0  0  0  0
    3.0251    5.2053    3.5519 C   0  0  0  0  0  0  0  0  0  0  0  0
    4.1362    5.3221    4.4335 C   0  0  0  0  0  0  0  0  0  0  0  0
    3.9369    5.6252    5.7903 C   0  0  0  0  0  0  0  0  0  0  0  0
    2.6479    5.7773    6.4420 C   0  0  0  0  0  0  0  0  0  0  0  0
    1.5083    5.6161    5.6489 C   0  0  0  0  0  0  0  0  0  0  0  0
    1.6645    5.3900    4.1606 C   0  0  0  0  0  0  0  0  0  0  0  0
    0.0353    5.6188    6.5020 S   0  0  0  0  0  0  0  0  0  0  0  0
   -0.6660    6.9217    6.2382 O   0  0  0  0  0  0  0  0  0  0  0  0
    0.4242    5.6726    7.8869 O   0  0  0  0  0  0  0  0  0  0  0  0
   -0.8386    4.4636    6.1869 O   0  0  0  0  0  0  0  0  0  0  0  0
   -1.0675    4.4790    5.2444 H   0  0  0  0  0  0  0  0  0  0  0  0
   -0.7608    5.5194    3.5904 N   0  0  0  0  0  0  0  0  0  0  0  0
   -1.0723    5.0556    4.4009 H   0  0  0  0  0  0  0  0  0  0  0  0
   -1.6490    6.3356    2.9903 C   0  0  0  0  0  0  0  0  0  0  0  0
   -1.2110    7.7073    2.8981 C   0  0  0  0  0  0  0  0  0  0  0  0
   -2.1278    8.5969    2.2004 C   0  0  0  0  0  0  0  0  0  0  0  0
   -3.3502    8.1122    1.8022 C   0  0  0  0  0  0  0  0  0  0  0  0
   -3.7793    6.7418    1.9321 C   0  0  0  0  0  0  0  0  0  0  0  0
   -2.8643    5.8367    2.5390 C   0  0  0  0  0  0  0  0  0  0  0  0
  1  2  2  0  0  0
  1 16  1  0  0  0
  1 10  1  0  0  0
  2  3  1  0  0  0
  3  4  2  0  0  0
  4  5  1  0  0  0
  5  6  2  0  0  0
  5 10  1  0  0  0
  6  7  1  0  0  0
  7  8  2  0  0  0
  8  9  1  0  0  0
 16 18  1  0  0  0
 11  9  1  0  0  0
 11 12  2  0  0  0
 11 13  2  0  0  0
 11 14  1  0  0  0
  9 10  2  0  0  0
 18 19  2  0  0  0
 18 23  1  0  0  0
 19 20  1  0  0  0
 20 21  2  0  0  0
 21 22  1  0  0  0
 22 23  2  0  0  0
 16 17  1  0  0  0
 14 15  1  0  0  0
M  END
> <minimizedAffinity>
-6.23491

$$$$
2WOR_2AN_A_1098


 23 25  0  0  0  0  0  0  0  0999 V2000
    1.2395    5.4471    5.3443 C   0  0  0  0  0  0  0  0  0  0  0  0
    0.9291    5.2337    3.9779 C   0  0  0  0  0  0  0  0  0  0  0  0
    1.9190    5.1576    2.9291 C   0  0  0  0  0  0  0  0  0  0  0  0
    3.2279    5.3183    3.3281 C   0  0  0  0  0  0  0  0  0  0  0  0
    3.6165    5.5090    4.6550 C   0  0  0  0  0  0  0  0  0  0  0  0
    4.9914    5.6342    5.0003 C   0  0  0  0  0  0  0  0  0  0  0  0
    5.3713    5.8492    6.3353 C   0  0  0  0  0  0  0  0  0  0  0  0
    4.4703    5.8961    7.4734 C   0  0  0  0  0  0  0  0  0  0  0  0
    3.1076    5.7201    7.2169 C   0  0  0  0  0  0  0  0  0  0  0  0
    2.6318    5.5870    5.7864 C   0  0  0  0  0  0  0  0  0  0  0  0
    2.1275    5.5967    8.6032 S   0  0  0  0  0  0  0  0  0  0  0  0
    1.2687    6.8271    8.6908 O   0  0  0  0  0  0  0  0  0  0  0  0
    3.0498    5.7006    9.7036 O   0  0  0  0  0  0  0  0  0  0  0  0
    1.3067    4.3631    8.6456 O   0  0  0  0  0  0  0  0  0  0  0  0
    0.7069    4.3475    7.8834 H   0  0  0  0  0  0  0  0  0  0  0  0
    0.1882    5.6202    6.2881 N   0  0  0  0  0  0  0  0  0  0  0  0
    0.3985    5.3925    7.2226 H   0  0  0  0  0  0  0  0  0  0  0  0
   -1.0622    6.0605    6.0473 C   0  0  0  0  0  0  0  0  0  0  0  0
   -1.1621    7.4948    5.9253 C   0  0  0  0  0  0  0  0  0  0  0  0
   -2.4928    7.9905    5.6057 C   0  0  0  0  0  0  0  0  0  0  0  0
   -3.5406    7.1027    5.5645 C   0  0  0  0  0  0  0  0  0  0  0  0
   -3.4215    5.6742    5.7198 C   0  0  0  0  0  0  0  0  0  0  0  0
   -2.1153    5.1598    5.9526 C   0  0  0  0  0  0  0  0  0  0  0  0
  1  2  2  0  0  0
  1 16  1  0  0  0
  1 10  1  0  0  0
  2  3  1  0  0  0
  3  4  2  0  0  0
  4  5  1  0  0  0
  5  6  2  0  0  0
  5 10  1  0  0  0
  6  7  1  0  0  0
  7  8  2  0  0  0
  8  9  1  0  0  0
 16 18  1  0  0  0
 11  9  1  0  0  0
 11 12  2  0  0  0
 11 13  2  0  0  0
 11 14  1  0  0  0
  9 10  2  0  0  0
 18 19  2  0  0  0
 18 23  1  0  0  0
 19 20  1  0  0  0
 20 21  2  0  0  0
 21 22  1  0  0  0
 22 23  2  0  0  0
 16 17  1  0  0  0
 14 15  1  0  0  0
M  END
> <minimizedAffinity>
-6.07638

$$$$
2WOR_2AN_A_1098


 23 25  0  0  0  0  0  0  0  0999 V2000
    3.1500    5.6520    6.9432 C   0  0  0  0  0  0  0  0  0  0  0  0
    4.5322    5.9055    7.1277 C   0  0  0  0  0  0  0  0  0  0  0  0
    5.4859    5.9966    6.0470 C   0  0  0  0  0  0  0  0  0  0  0  0
    4.9762    5.8087    4.7808 C   0  0  0  0  0  0  0  0  0  0  0  0
    3.6257    5.5778    4.5148 C   0  0  0  0  0  0  0  0  0  0  0  0
    3.1625    5.4258    3.1777 C   0  0  0  0  0  0  0  0  0  0  0  0
    1.8054    5.1707    2.9213 C   0  0  0  0  0  0  0  0  0  0  0  0
    0.7539    5.1053    3.9212 C   0  0  0  0  0  0  0  0  0  0  0  0
    1.1262    5.3055    5.2535 C   0  0  0  0  0  0  0  0  0  0  0  0
    2.5893    5.4826    5.5977 C   0  0  0  0  0  0  0  0  0  0  0  0
   -0.1699    5.4047    6.3525 S   0  0  0  0  0  0  0  0  0  0  0  0
   -1.4463    5.5498    5.5724 O   0  0  0  0  0  0  0  0  0  0  0  0
    0.0162    6.6708    7.0116 O   0  0  0  0  0  0  0  0  0  0  0  0
   -0.2416    4.2625    7.2947 O   0  0  0  0  0  0  0  0  0  0  0  0
   -0.3669    3.4397    6.7965 H   0  0  0  0  0  0  0  0  0  0  0  0
    2.3090    5.4674    8.0767 N   0  0  0  0  0  0  0  0  0  0  0  0
    1.4625    5.9701    8.0787 H   0  0  0  0  0  0  0  0  0  0  0  0
    2.5403    4.6826    9.1470 C   0  0  0  0  0  0  0  0  0  0  0  0
    1.6014    4.8754   10.2256 C   0  0  0  0  0  0  0  0  0  0  0  0
    1.7946    3.9965   11.3696 C   0  0  0  0  0  0  0  0  0  0  0  0
    2.8870    3.1633   11.3907 C   0  0  0  0  0  0  0  0  0  0  0  0
    3.8309    3.0090   10.3117 C   0  0  0  0  0  0  0  0  0  0  0  0
    3.6137    3.8009    9.1495 C   0  0  0  0  0  0  0  0  0  0  0  0
  1  2  2  0  0  0
  1 16  1  0  0  0
  1 10  1  0  0  0
  2  3  1  0  0  0
  3  4  2  0  0  0
  4  5  1  0  0  0
  5  6  2  0  0  0
  5 10  1  0  0  0
  6  7  1  0  0  0
  7  8  2  0  0  0
  8  9  1  0  0  0
 16 18  1  0  0  0
 11  9  1  0  0  0
 11 12  2  0  0  0
 11 13  2  0  0  0
 11 14  1  0  0  0
  9 10  2  0  0  0
 18 19  2  0  0  0
 18 23  1  0  0  0
 19 20  1  0  0  0
 20 21  2  0  0  0
 21 22  1  0  0  0
 22 23  2  0  0  0
 16 17  1  0  0  0
 14 15  1  0  0  0
M  END
> <minimizedAffinity>
-5.91354

$$$$
2WOR_2AN_A_1098


 23 25  0  0  0  0  0  0  0  0999 V2000
    1.0340    5.5058    6.5158 C   0  0  0  0  0  0  0  0  0  0  0  0
    0.8784    5.7618    7.9011 C   0  0  0  0  0  0  0  0  0  0  0  0
    1.9751    6.0513    8.7951 C   0  0  0  0  0  0  0  0  0  0  0  0
    3.2285    6.0576    8.2232 C   0  0  0  0  0  0  0  0  0  0  0  0
    3.4623    5.8379    6.8648 C   0  0  0  0  0  0  0  0  0  0  0  0
    4.7821    5.8923    6.3350 C   0  0  0  0  0  0  0  0  0  0  0  0
    5.0101    5.6469    4.9710 C   0  0  0  0  0  0  0  0  0  0  0  0
    3.9841    5.3933    3.9747 C   0  0  0  0  0  0  0  0  0  0  0  0
    2.6568    5.3849    4.4127 C   0  0  0  0  0  0  0  0  0  0  0  0
    2.3601    5.5418    5.8885 C   0  0  0  0  0  0  0  0  0  0  0  0
    1.4943    5.2713    3.1744 S   0  0  0  0  0  0  0  0  0  0  0  0
    0.7962    3.9459    3.2962 O   0  0  0  0  0  0  0  0  0  0  0  0
    2.2686    5.1806    1.9642 O   0  0  0  0  0  0  0  0  0  0  0  0
    0.5240    6.3918    3.1625 O   0  0  0  0  0  0  0  0  0  0  0  0
    0.0332    6.4035    3.9991 H   0  0  0  0  0  0  0  0  0  0  0  0
   -0.0939    5.1185    5.7386 N   0  0  0  0  0  0  0  0  0  0  0  0
    0.0825    4.8874    4.7980 H   0  0  0  0  0  0  0  0  0  0  0  0
   -1.3756    5.0323    6.1447 C   0  0  0  0  0  0  0  0  0  0  0  0
   -2.1491    6.2238    5.8914 C   0  0  0  0  0  0  0  0  0  0  0  0
   -3.5524    6.1339    6.2671 C   0  0  0  0  0  0  0  0  0  0  0  0
   -3.9946    5.0093    6.9211 C   0  0  0  0  0  0  0  0  0  0  0  0
   -3.1945    3.8406    7.1910 C   0  0  0  0  0  0  0  0  0  0  0  0
   -1.8391    3.8758    6.7589 C   0  0  0  0  0  0  0  0  0  0  0  0
  1  2  2  0  0  0
  1 16  1  0  0  0
  1 10  1  0  0  0
  2  3  1  0  0  0
  3  4  2  0  0  0
  4  5  1  0  0  0
  5  6  2  0  0  0
  5 10  1  0  0  0
  6  7  1  0  0  0
  7  8  2  0  0  0
  8  9  1  0  0  0
 16 18  1  0  0  0
 11  9  1  0  0  0
 11 12  2  0  0  0
 11 13  2  0  0  0
 11 14  1  0  0  0
  9 10  2  0  0  0
 18 19  2  0  0  0
 18 23  1  0  0  0
 19 20  1  0  0  0
 20 21  2  0  0  0
 21 22  1  0  0  0
 22 23  2  0  0  0
 16 17  1  0  0  0
 14 15  1  0  0  0
M  END
> <minimizedAffinity>
-5.89762

$$$$
2WOR_2AN_A_1098


 23 25  0  0  0  0  0  0  0  0999 V2000
    1.1227    4.6786    1.9862 C   0  0  0  0  0  0  0  0  0  0  0  0
    2.1481    3.9650    1.3167 C   0  0  0  0  0  0  0  0  0  0  0  0
    1.9100    2.8302    0.4558 C   0  0  0  0  0  0  0  0  0  0  0  0
    0.5930    2.4499    0.3165 C   0  0  0  0  0  0  0  0  0  0  0  0
   -0.4743    3.1138    0.9233 C   0  0  0  0  0  0  0  0  0  0  0  0
   -1.8146    2.6862    0.7084 C   0  0  0  0  0  0  0  0  0  0  0  0
   -2.8804    3.3462    1.3418 C   0  0  0  0  0  0  0  0  0  0  0  0
   -2.7641    4.5215    2.1872 C   0  0  0  0  0  0  0  0  0  0  0  0
   -1.4806    5.0347    2.3944 C   0  0  0  0  0  0  0  0  0  0  0  0
   -0.2862    4.3038    1.8201 C   0  0  0  0  0  0  0  0  0  0  0  0
   -1.4275    6.5146    3.2339 S   0  0  0  0  0  0  0  0  0  0  0  0
   -0.9287    6.2544    4.6276 O   0  0  0  0  0  0  0  0  0  0  0  0
   -2.8093    6.8868    3.3904 O   0  0  0  0  0  0  0  0  0  0  0  0
   -0.6170    7.5553    2.5576 O   0  0  0  0  0  0  0  0  0  0  0  0
    0.3007    7.2508    2.4802 H   0  0  0  0  0  0  0  0  0  0  0  0
    1.4652    5.7123    2.9029 N   0  0  0  0  0  0  0  0  0  0  0  0
    0.9411    6.5433    2.8396 H   0  0  0  0  0  0  0  0  0  0  0  0
    2.4255    5.6821    3.8474 C   0  0  0  0  0  0  0  0  0  0  0  0
    3.7314    6.0601    3.3638 C   0  0  0  0  0  0  0  0  0  0  0  0
    4.7740    6.0929    4.3789 C   0  0  0  0  0  0  0  0  0  0  0  0
    4.4784    5.6616    5.6495 C   0  0  0  0  0  0  0  0  0  0  0  0
    3.1704    5.2588    6.1033 C   0  0  0  0  0  0  0  0  0  0  0  0
    2.1181    5.2970    5.1462 C   0  0  0  0  0  0  0  0  0  0  0  0
  1  2  2  0  0  0
  1 16  1  0  0  0
  1 10  1  0  0  0
  2  3  1  0  0  0
  3  4  2  0  0  0
  4  5  1  0  0  0
  5  6  2  0  0  0
  5 10  1  0  0  0
  6  7  1  0  0  0
  7  8  2  0  0  0
  8  9  1  0  0  0
 16 18  1  0  0  0
 11  9  1  0  0  0
 11 12  2  0  0  0
 11 13  2  0  0  0
 11 14  1  0  0  0
  9 10  2  0  0  0
 18 19  2  0  0  0
 18 23  1  0  0  0
 19 20  1  0  0  0
 20 21  2  0  0  0
 21 22  1  0  0  0
 22 23  2  0  0  0
 16 17  1  0  0  0
 14 15  1  0  0  0
M  END
> <minimizedAffinity>
-5.80287

$$$$
