4MSS_2CZ_A_401


 19 19  0  0  0  0  0  0  0  0999 V2000
   68.2544   -9.0692    2.4506 N   0  0  0  0  0  0  0  0  0  0  0  0
   67.5737   -7.7933    2.4084 C   0  0  0  0  0  0  0  0  0  0  0  0
   67.7936   -6.8874    3.5705 C   0  0  0  0  0  0  0  0  0  0  0  0
   67.8002   -7.6054    4.9230 C   0  0  0  0  0  0  0  0  0  0  0  0
   67.6962   -6.6617    5.9674 O   0  0  0  0  0  0  0  0  0  0  0  0
   66.6310   -8.5317    5.1204 C   0  0  0  0  0  0  0  0  0  0  0  0
   66.6402   -8.7976    6.5263 O   0  0  0  0  0  0  0  0  0  0  0  0
   66.5888   -9.8197    4.2987 C   0  0  0  0  0  0  0  0  0  0  0  0
   65.4879   -9.7696    3.3806 O   0  0  0  0  0  0  0  0  0  0  0  0
   67.7423  -10.1033    3.3723 C   0  0  0  0  0  0  0  0  0  0  0  0
   69.2238   -8.8864    2.7098 H   0  0  0  0  0  0  0  0  0  0  0  0
   66.8494   -6.1938    5.8973 H   0  0  0  0  0  0  0  0  0  0  0  0
   67.4727   -9.2331    6.7676 H   0  0  0  0  0  0  0  0  0  0  0  0
   65.6359   -9.0593    2.7367 H   0  0  0  0  0  0  0  0  0  0  0  0
   69.0852   -6.2511    3.4670 N   0  0  0  0  0  0  0  0  0  0  0  0
   69.2275   -4.8229    3.4000 C   0  0  0  0  0  0  0  0  0  0  0  0
   68.2490   -4.1061    3.3627 O   0  0  0  0  0  0  0  0  0  0  0  0
   70.6242   -4.2208    3.3282 C   0  0  0  0  0  0  0  0  0  0  0  0
   69.8932   -6.8129    3.4414 H   0  0  0  0  0  0  0  0  0  0  0  0
  2  1  1  0  0  0
  2  3  1  0  0  0
  1 10  1  0  0  0
 18 16  1  0  0  0
 17 16  2  0  0  0
 16 15  1  0  0  0
 15  3  1  0  0  0
  9  8  1  0  0  0
 10  8  1  0  0  0
  3  4  1  0  0  0
  8  6  1  0  0  0
  4  6  1  0  0  0
  4  5  1  0  0  0
  6  7  1  0  0  0
  1 11  1  0  0  0
 15 19  1  0  0  0
  5 12  1  0  0  0
  7 13  1  0  0  0
  9 14  1  0  0  0
M  END
> <minimizedAffinity>
-7.10207

$$$$
4MSS_2CZ_A_401


 19 19  0  0  0  0  0  0  0  0999 V2000
   65.2219   -8.4204    3.4289 N   0  0  0  0  0  0  0  0  0  0  0  0
   64.7479   -7.1679    3.9766 C   0  0  0  0  0  0  0  0  0  0  0  0
   65.4181   -5.9332    3.4806 C   0  0  0  0  0  0  0  0  0  0  0  0
   66.9352   -6.0718    3.3251 C   0  0  0  0  0  0  0  0  0  0  0  0
   67.5189   -4.7971    3.1625 O   0  0  0  0  0  0  0  0  0  0  0  0
   67.6147   -6.6576    4.5330 C   0  0  0  0  0  0  0  0  0  0  0  0
   68.9991   -6.3644    4.3211 O   0  0  0  0  0  0  0  0  0  0  0  0
   67.3875   -8.1380    4.8371 C   0  0  0  0  0  0  0  0  0  0  0  0
   66.6540   -8.2711    6.0625 O   0  0  0  0  0  0  0  0  0  0  0  0
   66.5309   -8.9304    3.8844 C   0  0  0  0  0  0  0  0  0  0  0  0
   65.2773   -8.3062    2.4169 H   0  0  0  0  0  0  0  0  0  0  0  0
   67.3614   -4.2654    3.9584 H   0  0  0  0  0  0  0  0  0  0  0  0
   69.3009   -6.7989    3.5081 H   0  0  0  0  0  0  0  0  0  0  0  0
   65.7676   -7.8931    5.9514 H   0  0  0  0  0  0  0  0  0  0  0  0
   64.9264   -5.5949    2.1662 N   0  0  0  0  0  0  0  0  0  0  0  0
   64.6224   -4.2414    1.7918 C   0  0  0  0  0  0  0  0  0  0  0  0
   64.7102   -3.3422    2.6021 O   0  0  0  0  0  0  0  0  0  0  0  0
   64.1418   -3.9553    0.3756 C   0  0  0  0  0  0  0  0  0  0  0  0
   64.7954   -6.3135    1.5062 H   0  0  0  0  0  0  0  0  0  0  0  0
  2  1  1  0  0  0
  2  3  1  0  0  0
  1 10  1  0  0  0
 18 16  1  0  0  0
 17 16  2  0  0  0
 16 15  1  0  0  0
 15  3  1  0  0  0
  9  8  1  0  0  0
 10  8  1  0  0  0
  3  4  1  0  0  0
  8  6  1  0  0  0
  4  6  1  0  0  0
  4  5  1  0  0  0
  6  7  1  0  0  0
  1 11  1  0  0  0
 15 19  1  0  0  0
  5 12  1  0  0  0
  7 13  1  0  0  0
  9 14  1  0  0  0
M  END
> <minimizedAffinity>
-6.04280

$$$$
4MSS_2CZ_A_401


 19 19  0  0  0  0  0  0  0  0999 V2000
   66.6192   -7.1398    3.7106 N   0  0  0  0  0  0  0  0  0  0  0  0
   67.5244   -7.9503    2.9252 C   0  0  0  0  0  0  0  0  0  0  0  0
   67.1683   -9.3897    2.7813 C   0  0  0  0  0  0  0  0  0  0  0  0
   66.6332  -10.0268    4.0668 C   0  0  0  0  0  0  0  0  0  0  0  0
   66.6218  -11.4322    3.9368 O   0  0  0  0  0  0  0  0  0  0  0  0
   67.4879   -9.7568    5.2753 C   0  0  0  0  0  0  0  0  0  0  0  0
   67.0255  -10.7079    6.2393 O   0  0  0  0  0  0  0  0  0  0  0  0
   67.5041   -8.3369    5.8405 C   0  0  0  0  0  0  0  0  0  0  0  0
   68.8078   -7.7643    5.6673 O   0  0  0  0  0  0  0  0  0  0  0  0
   66.6300   -7.3042    5.1782 C   0  0  0  0  0  0  0  0  0  0  0  0
   65.6731   -7.3461    3.3901 H   0  0  0  0  0  0  0  0  0  0  0  0
   67.5291  -11.7531    3.8159 H   0  0  0  0  0  0  0  0  0  0  0  0
   66.0893  -10.5434    6.4325 H   0  0  0  0  0  0  0  0  0  0  0  0
   68.9944   -7.6657    4.7206 H   0  0  0  0  0  0  0  0  0  0  0  0
   66.1141   -9.5457    1.8075 N   0  0  0  0  0  0  0  0  0  0  0  0
   66.3850   -9.6339    0.3992 C   0  0  0  0  0  0  0  0  0  0  0  0
   67.5173   -9.5127   -0.0204 O   0  0  0  0  0  0  0  0  0  0  0  0
   65.2251   -9.8342   -0.5666 C   0  0  0  0  0  0  0  0  0  0  0  0
   65.1810   -9.5932    2.1178 H   0  0  0  0  0  0  0  0  0  0  0  0
  2  1  1  0  0  0
  2  3  1  0  0  0
  1 10  1  0  0  0
 18 16  1  0  0  0
 17 16  2  0  0  0
 16 15  1  0  0  0
 15  3  1  0  0  0
  9  8  1  0  0  0
 10  8  1  0  0  0
  3  4  1  0  0  0
  8  6  1  0  0  0
  4  6  1  0  0  0
  4  5  1  0  0  0
  6  7  1  0  0  0
  1 11  1  0  0  0
 15 19  1  0  0  0
  5 12  1  0  0  0
  7 13  1  0  0  0
  9 14  1  0  0  0
M  END
> <minimizedAffinity>
-6.03260

$$$$
4MSS_2CZ_A_401


 19 19  0  0  0  0  0  0  0  0999 V2000
   68.3557   -7.4600    2.5630 N   0  0  0  0  0  0  0  0  0  0  0  0
   67.6619   -8.7121    2.7729 C   0  0  0  0  0  0  0  0  0  0  0  0
   66.1768   -8.6383    2.8651 C   0  0  0  0  0  0  0  0  0  0  0  0
   65.6650   -7.4392    3.6684 C   0  0  0  0  0  0  0  0  0  0  0  0
   64.2977   -7.6137    3.9718 O   0  0  0  0  0  0  0  0  0  0  0  0
   66.3398   -7.2745    5.0030 C   0  0  0  0  0  0  0  0  0  0  0  0
   65.4895   -6.3623    5.7048 O   0  0  0  0  0  0  0  0  0  0  0  0
   67.7984   -6.8182    5.0186 C   0  0  0  0  0  0  0  0  0  0  0  0
   68.6281   -7.8737    5.5233 O   0  0  0  0  0  0  0  0  0  0  0  0
   68.4583   -6.5202    3.6977 C   0  0  0  0  0  0  0  0  0  0  0  0
   67.8752   -6.9709    1.8078 H   0  0  0  0  0  0  0  0  0  0  0  0
   64.1882   -8.3989    4.5307 H   0  0  0  0  0  0  0  0  0  0  0  0
   65.4553   -5.5191    5.2266 H   0  0  0  0  0  0  0  0  0  0  0  0
   68.6013   -8.6264    4.9120 H   0  0  0  0  0  0  0  0  0  0  0  0
   65.6040   -8.4913    1.5482 N   0  0  0  0  0  0  0  0  0  0  0  0
   65.4090   -9.6139    0.6728 C   0  0  0  0  0  0  0  0  0  0  0  0
   65.7855  -10.7214    0.9960 O   0  0  0  0  0  0  0  0  0  0  0  0
   64.7655   -9.3879   -0.6885 C   0  0  0  0  0  0  0  0  0  0  0  0
   65.3389   -7.5945    1.2405 H   0  0  0  0  0  0  0  0  0  0  0  0
  2  1  1  0  0  0
  2  3  1  0  0  0
  1 10  1  0  0  0
 18 16  1  0  0  0
 17 16  2  0  0  0
 16 15  1  0  0  0
 15  3  1  0  0  0
  9  8  1  0  0  0
 10  8  1  0  0  0
  3  4  1  0  0  0
  8  6  1  0  0  0
  4  6  1  0  0  0
  4  5  1  0  0  0
  6  7  1  0  0  0
  1 11  1  0  0  0
 15 19  1  0  0  0
  5 12  1  0  0  0
  7 13  1  0  0  0
  9 14  1  0  0  0
M  END
> <minimizedAffinity>
-6.02074

$$$$
4MSS_2CZ_A_401


 19 19  0  0  0  0  0  0  0  0999 V2000
   64.8993   -7.8515    3.7171 N   0  0  0  0  0  0  0  0  0  0  0  0
   65.8811   -8.3751    2.7924 C   0  0  0  0  0  0  0  0  0  0  0  0
   67.2994   -8.3476    3.2476 C   0  0  0  0  0  0  0  0  0  0  0  0
   67.6867   -7.0658    3.9904 C   0  0  0  0  0  0  0  0  0  0  0  0
   69.0911   -6.9830    4.1037 O   0  0  0  0  0  0  0  0  0  0  0  0
   67.2813   -5.8067    3.2734 C   0  0  0  0  0  0  0  0  0  0  0  0
   68.0340   -4.7825    3.9306 O   0  0  0  0  0  0  0  0  0  0  0  0
   65.7930   -5.4651    3.2083 C   0  0  0  0  0  0  0  0  0  0  0  0
   65.3396   -5.5432    1.8498 O   0  0  0  0  0  0  0  0  0  0  0  0
   64.8265   -6.3882    3.9032 C   0  0  0  0  0  0  0  0  0  0  0  0
   65.0938   -8.2631    4.6299 H   0  0  0  0  0  0  0  0  0  0  0  0
   69.4843   -6.9294    3.2186 H   0  0  0  0  0  0  0  0  0  0  0  0
   67.7815   -4.7458    4.8664 H   0  0  0  0  0  0  0  0  0  0  0  0
   65.4062   -6.4597    1.5390 H   0  0  0  0  0  0  0  0  0  0  0  0
   67.5423   -9.4212    4.1816 N   0  0  0  0  0  0  0  0  0  0  0  0
   67.1968   -9.3140    5.5721 C   0  0  0  0  0  0  0  0  0  0  0  0
   66.7450   -8.2796    6.0179 O   0  0  0  0  0  0  0  0  0  0  0  0
   67.4495  -10.5012    6.4914 C   0  0  0  0  0  0  0  0  0  0  0  0
   67.9573  -10.2524    3.8557 H   0  0  0  0  0  0  0  0  0  0  0  0
  2  1  1  0  0  0
  2  3  1  0  0  0
  1 10  1  0  0  0
 18 16  1  0  0  0
 17 16  2  0  0  0
 16 15  1  0  0  0
 15  3  1  0  0  0
  9  8  1  0  0  0
 10  8  1  0  0  0
  3  4  1  0  0  0
  8  6  1  0  0  0
  4  6  1  0  0  0
  4  5  1  0  0  0
  6  7  1  0  0  0
  1 11  1  0  0  0
 15 19  1  0  0  0
  5 12  1  0  0  0
  7 13  1  0  0  0
  9 14  1  0  0  0
M  END
> <minimizedAffinity>
-6.01479

$$$$
4MSS_2CZ_A_401


 19 19  0  0  0  0  0  0  0  0999 V2000
   66.8013   -8.3641    1.9326 N   0  0  0  0  0  0  0  0  0  0  0  0
   65.4365   -8.0842    2.3226 C   0  0  0  0  0  0  0  0  0  0  0  0
   65.2513   -7.0820    3.4093 C   0  0  0  0  0  0  0  0  0  0  0  0
   66.2672   -7.2083    4.5481 C   0  0  0  0  0  0  0  0  0  0  0  0
   65.8382   -6.4514    5.6595 O   0  0  0  0  0  0  0  0  0  0  0  0
   66.4174   -8.6114    5.0700 C   0  0  0  0  0  0  0  0  0  0  0  0
   67.1045   -8.4409    6.3136 O   0  0  0  0  0  0  0  0  0  0  0  0
   67.1085   -9.6400    4.1754 C   0  0  0  0  0  0  0  0  0  0  0  0
   66.1646  -10.6442    3.7778 O   0  0  0  0  0  0  0  0  0  0  0  0
   67.6349   -9.1752    2.8427 C   0  0  0  0  0  0  0  0  0  0  0  0
   67.2712   -7.4669    1.8111 H   0  0  0  0  0  0  0  0  0  0  0  0
   64.9971   -6.8064    5.9872 H   0  0  0  0  0  0  0  0  0  0  0  0
   67.9709   -8.0361    6.1514 H   0  0  0  0  0  0  0  0  0  0  0  0
   65.4785  -10.2413    3.2228 H   0  0  0  0  0  0  0  0  0  0  0  0
   65.4223   -5.7467    2.8880 N   0  0  0  0  0  0  0  0  0  0  0  0
   64.3191   -4.9819    2.3757 C   0  0  0  0  0  0  0  0  0  0  0  0
   63.2097   -5.4688    2.3065 O   0  0  0  0  0  0  0  0  0  0  0  0
   64.5692   -3.5658    1.8753 C   0  0  0  0  0  0  0  0  0  0  0  0
   66.3224   -5.3479    2.8835 H   0  0  0  0  0  0  0  0  0  0  0  0
  2  1  1  0  0  0
  2  3  1  0  0  0
  1 10  1  0  0  0
 18 16  1  0  0  0
 17 16  2  0  0  0
 16 15  1  0  0  0
 15  3  1  0  0  0
  9  8  1  0  0  0
 10  8  1  0  0  0
  3  4  1  0  0  0
  8  6  1  0  0  0
  4  6  1  0  0  0
  4  5  1  0  0  0
  6  7  1  0  0  0
  1 11  1  0  0  0
 15 19  1  0  0  0
  5 12  1  0  0  0
  7 13  1  0  0  0
  9 14  1  0  0  0
M  END
> <minimizedAffinity>
-5.96289

$$$$
4MSS_2CZ_A_401


 19 19  0  0  0  0  0  0  0  0999 V2000
   67.9502  -10.6300    4.8542 N   0  0  0  0  0  0  0  0  0  0  0  0
   66.5875  -10.3721    4.4425 C   0  0  0  0  0  0  0  0  0  0  0  0
   66.3808   -9.2160    3.5258 C   0  0  0  0  0  0  0  0  0  0  0  0
   67.2243   -7.9875    3.8785 C   0  0  0  0  0  0  0  0  0  0  0  0
   66.7467   -6.8603    3.1761 O   0  0  0  0  0  0  0  0  0  0  0  0
   67.1484   -7.5998    5.3303 C   0  0  0  0  0  0  0  0  0  0  0  0
   67.6880   -6.2748    5.3580 O   0  0  0  0  0  0  0  0  0  0  0  0
   67.8263   -8.5109    6.3531 C   0  0  0  0  0  0  0  0  0  0  0  0
   66.8330   -9.1158    7.1925 O   0  0  0  0  0  0  0  0  0  0  0  0
   68.5656   -9.7192    5.8406 C   0  0  0  0  0  0  0  0  0  0  0  0
   68.5298  -10.6034    4.0153 H   0  0  0  0  0  0  0  0  0  0  0  0
   65.8364   -6.6696    3.4515 H   0  0  0  0  0  0  0  0  0  0  0  0
   68.6080   -6.2939    5.0513 H   0  0  0  0  0  0  0  0  0  0  0  0
   66.2722   -9.7010    6.6597 H   0  0  0  0  0  0  0  0  0  0  0  0
   66.7657   -9.5732    2.1812 N   0  0  0  0  0  0  0  0  0  0  0  0
   65.8565   -9.4630    1.0740 C   0  0  0  0  0  0  0  0  0  0  0  0
   64.7051   -9.1236    1.2522 O   0  0  0  0  0  0  0  0  0  0  0  0
   66.3438   -9.8238   -0.3227 C   0  0  0  0  0  0  0  0  0  0  0  0
   67.6790   -9.9025    2.0177 H   0  0  0  0  0  0  0  0  0  0  0  0
  2  1  1  0  0  0
  2  3  1  0  0  0
  1 10  1  0  0  0
 18 16  1  0  0  0
 17 16  2  0  0  0
 16 15  1  0  0  0
 15  3  1  0  0  0
  9  8  1  0  0  0
 10  8  1  0  0  0
  3  4  1  0  0  0
  8  6  1  0  0  0
  4  6  1  0  0  0
  4  5  1  0  0  0
  6  7  1  0  0  0
  1 11  1  0  0  0
 15 19  1  0  0  0
  5 12  1  0  0  0
  7 13  1  0  0  0
  9 14  1  0  0  0
M  END
> <minimizedAffinity>
-5.66734

$$$$
4MSS_2CZ_A_401


 19 19  0  0  0  0  0  0  0  0999 V2000
   66.4008  -10.3431    4.2144 N   0  0  0  0  0  0  0  0  0  0  0  0
   65.6529   -9.3542    3.4688 C   0  0  0  0  0  0  0  0  0  0  0  0
   66.4278   -8.5334    2.4965 C   0  0  0  0  0  0  0  0  0  0  0  0
   67.8011   -8.0945    3.0125 C   0  0  0  0  0  0  0  0  0  0  0  0
   68.3243   -7.0811    2.1809 O   0  0  0  0  0  0  0  0  0  0  0  0
   67.7627   -7.4853    4.3877 C   0  0  0  0  0  0  0  0  0  0  0  0
   69.0342   -6.8405    4.5106 O   0  0  0  0  0  0  0  0  0  0  0  0
   67.4756   -8.4063    5.5731 C   0  0  0  0  0  0  0  0  0  0  0  0
   66.2110   -8.0618    6.1557 O   0  0  0  0  0  0  0  0  0  0  0  0
   67.2908   -9.8754    5.2962 C   0  0  0  0  0  0  0  0  0  0  0  0
   66.9790  -10.8523    3.5460 H   0  0  0  0  0  0  0  0  0  0  0  0
   67.7452   -6.3037    2.2151 H   0  0  0  0  0  0  0  0  0  0  0  0
   69.7402   -7.5024    4.4436 H   0  0  0  0  0  0  0  0  0  0  0  0
   65.5023   -8.2373    5.5171 H   0  0  0  0  0  0  0  0  0  0  0  0
   66.6928   -9.2979    1.3011 N   0  0  0  0  0  0  0  0  0  0  0  0
   65.9284   -9.1194    0.0976 C   0  0  0  0  0  0  0  0  0  0  0  0
   64.9846   -8.3570    0.0732 O   0  0  0  0  0  0  0  0  0  0  0  0
   66.2886   -9.9359   -1.1361 C   0  0  0  0  0  0  0  0  0  0  0  0
   67.4195   -9.9620    1.3107 H   0  0  0  0  0  0  0  0  0  0  0  0
  2  1  1  0  0  0
  2  3  1  0  0  0
  1 10  1  0  0  0
 18 16  1  0  0  0
 17 16  2  0  0  0
 16 15  1  0  0  0
 15  3  1  0  0  0
  9  8  1  0  0  0
 10  8  1  0  0  0
  3  4  1  0  0  0
  8  6  1  0  0  0
  4  6  1  0  0  0
  4  5  1  0  0  0
  6  7  1  0  0  0
  1 11  1  0  0  0
 15 19  1  0  0  0
  5 12  1  0  0  0
  7 13  1  0  0  0
  9 14  1  0  0  0
M  END
> <minimizedAffinity>
-5.54160

$$$$
4MSS_2CZ_A_401


 19 19  0  0  0  0  0  0  0  0999 V2000
   66.7447   -8.2777    1.6456 N   0  0  0  0  0  0  0  0  0  0  0  0
   65.3102   -8.3012    1.8321 C   0  0  0  0  0  0  0  0  0  0  0  0
   64.7037   -7.0903    2.4529 C   0  0  0  0  0  0  0  0  0  0  0  0
   65.5257   -6.5080    3.6063 C   0  0  0  0  0  0  0  0  0  0  0  0
   64.7465   -5.5796    4.3295 O   0  0  0  0  0  0  0  0  0  0  0  0
   65.9496   -7.5329    4.6230 C   0  0  0  0  0  0  0  0  0  0  0  0
   66.3649   -6.7483    5.7453 O   0  0  0  0  0  0  0  0  0  0  0  0
   67.0147   -8.5504    4.2157 C   0  0  0  0  0  0  0  0  0  0  0  0
   66.4371   -9.8627    4.1758 O   0  0  0  0  0  0  0  0  0  0  0  0
   67.6058   -8.4381    2.8347 C   0  0  0  0  0  0  0  0  0  0  0  0
   66.9797   -7.3806    1.2208 H   0  0  0  0  0  0  0  0  0  0  0  0
   63.9850   -6.0337    4.7230 H   0  0  0  0  0  0  0  0  0  0  0  0
   67.1116   -6.1853    5.4876 H   0  0  0  0  0  0  0  0  0  0  0  0
   65.7663   -9.8996    3.4761 H   0  0  0  0  0  0  0  0  0  0  0  0
   64.6035   -6.0298    1.4787 N   0  0  0  0  0  0  0  0  0  0  0  0
   63.4454   -5.1840    1.3898 C   0  0  0  0  0  0  0  0  0  0  0  0
   62.4802   -5.3827    2.0980 O   0  0  0  0  0  0  0  0  0  0  0  0
   63.4254   -4.0621    0.3606 C   0  0  0  0  0  0  0  0  0  0  0  0
   65.3516   -5.8815    0.8561 H   0  0  0  0  0  0  0  0  0  0  0  0
  2  1  1  0  0  0
  2  3  1  0  0  0
  1 10  1  0  0  0
 18 16  1  0  0  0
 17 16  2  0  0  0
 16 15  1  0  0  0
 15  3  1  0  0  0
  9  8  1  0  0  0
 10  8  1  0  0  0
  3  4  1  0  0  0
  8  6  1  0  0  0
  4  6  1  0  0  0
  4  5  1  0  0  0
  6  7  1  0  0  0
  1 11  1  0  0  0
 15 19  1  0  0  0
  5 12  1  0  0  0
  7 13  1  0  0  0
  9 14  1  0  0  0
M  END
> <minimizedAffinity>
-5.45227

$$$$
4MSS_2CZ_A_401


 19 19  0  0  0  0  0  0  0  0999 V2000
   66.2657   -9.3033    4.8349 N   0  0  0  0  0  0  0  0  0  0  0  0
   67.0810   -8.3601    4.1008 C   0  0  0  0  0  0  0  0  0  0  0  0
   66.6104   -8.0031    2.7331 C   0  0  0  0  0  0  0  0  0  0  0  0
   66.0676   -9.1918    1.9349 C   0  0  0  0  0  0  0  0  0  0  0  0
   65.9436   -8.8391    0.5739 O   0  0  0  0  0  0  0  0  0  0  0  0
   66.9774  -10.3901    1.9429 C   0  0  0  0  0  0  0  0  0  0  0  0
   66.4729  -11.2084    0.8829 O   0  0  0  0  0  0  0  0  0  0  0  0
   67.1207  -11.1741    3.2470 C   0  0  0  0  0  0  0  0  0  0  0  0
   68.4587  -11.0391    3.7458 O   0  0  0  0  0  0  0  0  0  0  0  0
   66.3089  -10.7239    4.4334 C   0  0  0  0  0  0  0  0  0  0  0  0
   65.2970   -8.9948    4.7515 H   0  0  0  0  0  0  0  0  0  0  0  0
   66.8193   -8.6295    0.2131 H   0  0  0  0  0  0  0  0  0  0  0  0
   65.5586  -11.4654    1.0800 H   0  0  0  0  0  0  0  0  0  0  0  0
   68.6232  -10.1132    3.9837 H   0  0  0  0  0  0  0  0  0  0  0  0
   65.5178   -7.0630    2.8133 N   0  0  0  0  0  0  0  0  0  0  0  0
   65.7354   -5.6585    3.0242 C   0  0  0  0  0  0  0  0  0  0  0  0
   66.8550   -5.2281    3.2080 O   0  0  0  0  0  0  0  0  0  0  0  0
   64.5361   -4.7211    3.0617 C   0  0  0  0  0  0  0  0  0  0  0  0
   64.5954   -7.3944    2.7205 H   0  0  0  0  0  0  0  0  0  0  0  0
  2  1  1  0  0  0
  2  3  1  0  0  0
  1 10  1  0  0  0
 18 16  1  0  0  0
 17 16  2  0  0  0
 16 15  1  0  0  0
 15  3  1  0  0  0
  9  8  1  0  0  0
 10  8  1  0  0  0
  3  4  1  0  0  0
  8  6  1  0  0  0
  4  6  1  0  0  0
  4  5  1  0  0  0
  6  7  1  0  0  0
  1 11  1  0  0  0
 15 19  1  0  0  0
  5 12  1  0  0  0
  7 13  1  0  0  0
  9 14  1  0  0  0
M  END
> <minimizedAffinity>
-5.42536

$$$$
