5EN3_7LU_A_201


 24 26  0  0  0  0  0  0  0  0999 V2000
    2.7261   -2.4779   30.6184 Cl  0  0  0  0  0  0  0  0  0  0  0  0
    1.6213   -1.3834   29.8587 C   0  0  0  0  0  0  0  0  0  0  0  0
    1.6400   -1.2679   28.4854 C   0  0  0  0  0  0  0  0  0  0  0  0
    0.7287   -0.6851   30.6425 C   0  0  0  0  0  0  0  0  0  0  0  0
   -0.1940    0.1444   30.0378 C   0  0  0  0  0  0  0  0  0  0  0  0
   -1.0780    0.8113   30.8246 O   0  0  0  0  0  0  0  0  0  0  0  0
   -0.2212    0.2840   28.6379 C   0  0  0  0  0  0  0  0  0  0  0  0
   -1.1776    1.1250   27.9608 C   0  0  0  0  0  0  0  0  0  0  0  0
   -2.0456    1.7598   28.5756 O   0  0  0  0  0  0  0  0  0  0  0  0
    0.7154   -0.4397   27.8937 C   0  0  0  0  0  0  0  0  0  0  0  0
    0.7414   -0.3772   26.5135 O   0  0  0  0  0  0  0  0  0  0  0  0
   -0.1636    0.4045   25.8608 C   0  0  0  0  0  0  0  0  0  0  0  0
   -1.0725    1.1420   26.5241 C   0  0  0  0  0  0  0  0  0  0  0  0
   -1.7138    1.3802   30.4370 H   0  0  0  0  0  0  0  0  0  0  0  0
   -0.0575    0.2598   24.4036 C   0  0  0  0  0  0  0  0  0  0  0  0
   -0.0041   -1.0107   23.8342 C   0  0  0  0  0  0  0  0  0  0  0  0
    0.0292   -1.1528   22.4542 C   0  0  0  0  0  0  0  0  0  0  0  0
    0.0501   -2.3830   21.8784 O   0  0  0  0  0  0  0  0  0  0  0  0
    0.0204   -0.0222   21.6351 C   0  0  0  0  0  0  0  0  0  0  0  0
    0.0492   -0.1774   20.2847 O   0  0  0  0  0  0  0  0  0  0  0  0
   -0.0236    1.2405   22.2069 C   0  0  0  0  0  0  0  0  0  0  0  0
   -0.0618    1.3785   23.5803 C   0  0  0  0  0  0  0  0  0  0  0  0
    0.0724   -2.4631   20.9451 H   0  0  0  0  0  0  0  0  0  0  0  0
    0.0789   -1.0368   19.9124 H   0  0  0  0  0  0  0  0  0  0  0  0
 20 19  1  0  0  0
 18 17  1  0  0  0
 19 17  2  0  0  0
 19 21  1  0  0  0
 17 16  1  0  0  0
 21 22  2  0  0  0
 16 15  2  0  0  0
 22 15  1  0  0  0
 15 12  1  0  0  0
 12 13  2  0  0  0
 12 11  1  0  0  0
 13  8  1  0  0  0
 11 10  1  0  0  0
  8  9  2  0  0  0
  8  7  1  0  0  0
 10  3  2  0  0  0
 10  7  1  0  0  0
  3  2  1  0  0  0
  7  5  2  0  0  0
  2  4  2  0  0  0
  2  1  1  0  0  0
  5  4  1  0  0  0
  5  6  1  0  0  0
  6 14  1  0  0  0
 18 23  1  0  0  0
 20 24  1  0  0  0
M  END
> <minimizedAffinity>
-8.44218

$$$$
5EN3_7LU_A_201


 24 26  0  0  0  0  0  0  0  0999 V2000
   -3.0860    2.3601   30.5754 Cl  0  0  0  0  0  0  0  0  0  0  0  0
   -1.8837    1.3453   29.8541 C   0  0  0  0  0  0  0  0  0  0  0  0
   -1.8631    1.2124   28.4825 C   0  0  0  0  0  0  0  0  0  0  0  0
   -0.9574    0.7277   30.6660 C   0  0  0  0  0  0  0  0  0  0  0  0
    0.0396   -0.0351   30.0922 C   0  0  0  0  0  0  0  0  0  0  0  0
    0.9549   -0.6222   30.9065 O   0  0  0  0  0  0  0  0  0  0  0  0
    0.1083   -0.1890   28.6952 C   0  0  0  0  0  0  0  0  0  0  0  0
    1.1414   -0.9616   28.0499 C   0  0  0  0  0  0  0  0  0  0  0  0
    2.0419   -1.5199   28.6914 O   0  0  0  0  0  0  0  0  0  0  0  0
   -0.8647    0.4511   27.9217 C   0  0  0  0  0  0  0  0  0  0  0  0
   -0.8554    0.3702   26.5422 O   0  0  0  0  0  0  0  0  0  0  0  0
    0.1213   -0.3469   25.9195 C   0  0  0  0  0  0  0  0  0  0  0  0
    1.0695   -1.0039   26.6117 C   0  0  0  0  0  0  0  0  0  0  0  0
    1.6410   -1.1448   30.5401 H   0  0  0  0  0  0  0  0  0  0  0  0
    0.0364   -0.2283   24.4585 C   0  0  0  0  0  0  0  0  0  0  0  0
    0.0024    1.0317   23.8651 C   0  0  0  0  0  0  0  0  0  0  0  0
   -0.0107    1.1486   22.4824 C   0  0  0  0  0  0  0  0  0  0  0  0
   -0.0124    2.3680   21.8837 O   0  0  0  0  0  0  0  0  0  0  0  0
   -0.0011    0.0029   21.6844 C   0  0  0  0  0  0  0  0  0  0  0  0
   -0.0100    0.1332   20.3312 O   0  0  0  0  0  0  0  0  0  0  0  0
    0.0236   -1.2494   22.2800 C   0  0  0  0  0  0  0  0  0  0  0  0
    0.0418   -1.3621   23.6561 C   0  0  0  0  0  0  0  0  0  0  0  0
   -0.0213    2.4309   20.9489 H   0  0  0  0  0  0  0  0  0  0  0  0
   -0.0267    0.9858   19.9427 H   0  0  0  0  0  0  0  0  0  0  0  0
 20 19  1  0  0  0
 18 17  1  0  0  0
 19 17  2  0  0  0
 19 21  1  0  0  0
 17 16  1  0  0  0
 21 22  2  0  0  0
 16 15  2  0  0  0
 22 15  1  0  0  0
 15 12  1  0  0  0
 12 13  2  0  0  0
 12 11  1  0  0  0
 13  8  1  0  0  0
 11 10  1  0  0  0
  8  9  2  0  0  0
  8  7  1  0  0  0
 10  3  2  0  0  0
 10  7  1  0  0  0
  3  2  1  0  0  0
  7  5  2  0  0  0
  2  4  2  0  0  0
  2  1  1  0  0  0
  5  4  1  0  0  0
  5  6  1  0  0  0
  6 14  1  0  0  0
 18 23  1  0  0  0
 20 24  1  0  0  0
M  END
> <minimizedAffinity>
-8.43650

$$$$
5EN3_7LU_A_201


 24 26  0  0  0  0  0  0  0  0999 V2000
   -4.3036    2.4003   30.8882 Cl  0  0  0  0  0  0  0  0  0  0  0  0
   -2.8643    1.5797   30.3873 C   0  0  0  0  0  0  0  0  0  0  0  0
   -2.6939    1.2949   29.0497 C   0  0  0  0  0  0  0  0  0  0  0  0
   -1.9117    1.2664   31.3323 C   0  0  0  0  0  0  0  0  0  0  0  0
   -0.7360    0.6651   30.9306 C   0  0  0  0  0  0  0  0  0  0  0  0
    0.1996    0.3794   31.8732 O   0  0  0  0  0  0  0  0  0  0  0  0
   -0.5121    0.3670   29.5738 C   0  0  0  0  0  0  0  0  0  0  0  0
    0.7072   -0.2445   29.1050 C   0  0  0  0  0  0  0  0  0  0  0  0
    1.6384   -0.5254   29.8720 O   0  0  0  0  0  0  0  0  0  0  0  0
   -1.5183    0.6970   28.6607 C   0  0  0  0  0  0  0  0  0  0  0  0
   -1.3683    0.4596   27.3077 O   0  0  0  0  0  0  0  0  0  0  0  0
   -0.2170   -0.1072   26.8502 C   0  0  0  0  0  0  0  0  0  0  0  0
    0.7756   -0.4681   27.6835 C   0  0  0  0  0  0  0  0  0  0  0  0
    1.0056   -0.0287   31.6247 H   0  0  0  0  0  0  0  0  0  0  0  0
   -0.1910   -0.1798   25.3840 C   0  0  0  0  0  0  0  0  0  0  0  0
    0.2907   -1.3253   24.7541 C   0  0  0  0  0  0  0  0  0  0  0  0
    0.2553   -1.4245   23.3704 C   0  0  0  0  0  0  0  0  0  0  0  0
    0.6912   -2.5452   22.7384 O   0  0  0  0  0  0  0  0  0  0  0  0
   -0.2531   -0.3716   22.6073 C   0  0  0  0  0  0  0  0  0  0  0  0
   -0.2851   -0.4849   21.2529 O   0  0  0  0  0  0  0  0  0  0  0  0
   -0.7230    0.7704   23.2386 C   0  0  0  0  0  0  0  0  0  0  0  0
   -0.6911    0.8639   24.6159 C   0  0  0  0  0  0  0  0  0  0  0  0
    0.6611   -2.5975   21.8034 H   0  0  0  0  0  0  0  0  0  0  0  0
    0.0360   -1.2624   20.8401 H   0  0  0  0  0  0  0  0  0  0  0  0
 20 19  1  0  0  0
 18 17  1  0  0  0
 19 17  2  0  0  0
 19 21  1  0  0  0
 17 16  1  0  0  0
 21 22  2  0  0  0
 16 15  2  0  0  0
 22 15  1  0  0  0
 15 12  1  0  0  0
 12 13  2  0  0  0
 12 11  1  0  0  0
 13  8  1  0  0  0
 11 10  1  0  0  0
  8  9  2  0  0  0
  8  7  1  0  0  0
 10  3  2  0  0  0
 10  7  1  0  0  0
  3  2  1  0  0  0
  7  5  2  0  0  0
  2  4  2  0  0  0
  2  1  1  0  0  0
  5  4  1  0  0  0
  5  6  1  0  0  0
  6 14  1  0  0  0
 18 23  1  0  0  0
 20 24  1  0  0  0
M  END
> <minimizedAffinity>
-7.86773

$$$$
5EN3_7LU_A_201


 24 26  0  0  0  0  0  0  0  0999 V2000
   -0.1870   -2.3698   22.3415 Cl  0  0  0  0  0  0  0  0  0  0  0  0
    0.1597   -1.0564   23.4142 C   0  0  0  0  0  0  0  0  0  0  0  0
    0.1051   -1.2774   24.7735 C   0  0  0  0  0  0  0  0  0  0  0  0
    0.5165    0.1634   22.8820 C   0  0  0  0  0  0  0  0  0  0  0  0
    0.8514    1.1978   23.7323 C   0  0  0  0  0  0  0  0  0  0  0  0
    1.2179    2.3883   23.1901 O   0  0  0  0  0  0  0  0  0  0  0  0
    0.8227    1.0151   25.1272 C   0  0  0  0  0  0  0  0  0  0  0  0
    1.1809    2.0608   26.0538 C   0  0  0  0  0  0  0  0  0  0  0  0
    1.5544    3.1782   25.6714 O   0  0  0  0  0  0  0  0  0  0  0  0
    0.4420   -0.2402   25.6111 C   0  0  0  0  0  0  0  0  0  0  0  0
    0.4102   -0.5098   26.9660 O   0  0  0  0  0  0  0  0  0  0  0  0
    0.7570    0.4655   27.8518 C   0  0  0  0  0  0  0  0  0  0  0  0
    1.1083    1.6993   27.4465 C   0  0  0  0  0  0  0  0  0  0  0  0
    1.4496    3.1052   23.7471 H   0  0  0  0  0  0  0  0  0  0  0  0
    0.7717   -0.0332   29.2326 C   0  0  0  0  0  0  0  0  0  0  0  0
   -0.1629    0.4394   30.1514 C   0  0  0  0  0  0  0  0  0  0  0  0
   -0.1948   -0.0779   31.4387 C   0  0  0  0  0  0  0  0  0  0  0  0
   -1.1180    0.3468   32.3402 O   0  0  0  0  0  0  0  0  0  0  0  0
    0.7171   -1.0649   31.8178 C   0  0  0  0  0  0  0  0  0  0  0  0
    0.6709   -1.5650   33.0812 O   0  0  0  0  0  0  0  0  0  0  0  0
    1.6515   -1.5256   30.9023 C   0  0  0  0  0  0  0  0  0  0  0  0
    1.6773   -1.0124   29.6206 C   0  0  0  0  0  0  0  0  0  0  0  0
   -1.1272   -0.0118   33.2058 H   0  0  0  0  0  0  0  0  0  0  0  0
    0.0342   -1.2441   33.6891 H   0  0  0  0  0  0  0  0  0  0  0  0
 20 19  1  0  0  0
 18 17  1  0  0  0
 19 17  2  0  0  0
 19 21  1  0  0  0
 17 16  1  0  0  0
 21 22  2  0  0  0
 16 15  2  0  0  0
 22 15  1  0  0  0
 15 12  1  0  0  0
 12 13  2  0  0  0
 12 11  1  0  0  0
 13  8  1  0  0  0
 11 10  1  0  0  0
  8  9  2  0  0  0
  8  7  1  0  0  0
 10  3  2  0  0  0
 10  7  1  0  0  0
  3  2  1  0  0  0
  7  5  2  0  0  0
  2  4  2  0  0  0
  2  1  1  0  0  0
  5  4  1  0  0  0
  5  6  1  0  0  0
  6 14  1  0  0  0
 18 23  1  0  0  0
 20 24  1  0  0  0
M  END
> <minimizedAffinity>
-7.71889

$$$$
5EN3_7LU_A_201


 24 26  0  0  0  0  0  0  0  0999 V2000
    0.3572    2.2084   22.2930 Cl  0  0  0  0  0  0  0  0  0  0  0  0
   -0.0490    0.9497   23.4094 C   0  0  0  0  0  0  0  0  0  0  0  0
   -0.0321    1.2285   24.7591 C   0  0  0  0  0  0  0  0  0  0  0  0
   -0.4138   -0.2852   22.9189 C   0  0  0  0  0  0  0  0  0  0  0  0
   -0.7957   -1.2751   23.8017 C   0  0  0  0  0  0  0  0  0  0  0  0
   -1.1693   -2.4809   23.2997 O   0  0  0  0  0  0  0  0  0  0  0  0
   -0.8065   -1.0325   25.1878 C   0  0  0  0  0  0  0  0  0  0  0  0
   -1.2143   -2.0300   26.1465 C   0  0  0  0  0  0  0  0  0  0  0  0
   -1.5983   -3.1557   25.8006 O   0  0  0  0  0  0  0  0  0  0  0  0
   -0.4157    0.2352   25.6292 C   0  0  0  0  0  0  0  0  0  0  0  0
   -0.4204    0.5629   26.9717 O   0  0  0  0  0  0  0  0  0  0  0  0
   -0.8141   -0.3663   27.8870 C   0  0  0  0  0  0  0  0  0  0  0  0
   -1.1775   -1.6097   27.5240 C   0  0  0  0  0  0  0  0  0  0  0  0
   -1.4326   -3.1685   23.8793 H   0  0  0  0  0  0  0  0  0  0  0  0
   -0.8614    0.1922   29.2440 C   0  0  0  0  0  0  0  0  0  0  0  0
    0.0205   -0.2727   30.2172 C   0  0  0  0  0  0  0  0  0  0  0  0
    0.0239    0.2987   31.4818 C   0  0  0  0  0  0  0  0  0  0  0  0
    0.8969   -0.1188   32.4353 O   0  0  0  0  0  0  0  0  0  0  0  0
   -0.8644    1.3327   31.7836 C   0  0  0  0  0  0  0  0  0  0  0  0
   -0.8466    1.8853   33.0257 O   0  0  0  0  0  0  0  0  0  0  0  0
   -1.7467    1.7858   30.8142 C   0  0  0  0  0  0  0  0  0  0  0  0
   -1.7440    1.2186   29.5553 C   0  0  0  0  0  0  0  0  0  0  0  0
    0.8873    0.2766   33.2847 H   0  0  0  0  0  0  0  0  0  0  0  0
   -0.2450    1.5689   33.6706 H   0  0  0  0  0  0  0  0  0  0  0  0
 20 19  1  0  0  0
 18 17  1  0  0  0
 19 17  2  0  0  0
 19 21  1  0  0  0
 17 16  1  0  0  0
 21 22  2  0  0  0
 16 15  2  0  0  0
 22 15  1  0  0  0
 15 12  1  0  0  0
 12 13  2  0  0  0
 12 11  1  0  0  0
 13  8  1  0  0  0
 11 10  1  0  0  0
  8  9  2  0  0  0
  8  7  1  0  0  0
 10  3  2  0  0  0
 10  7  1  0  0  0
  3  2  1  0  0  0
  7  5  2  0  0  0
  2  4  2  0  0  0
  2  1  1  0  0  0
  5  4  1  0  0  0
  5  6  1  0  0  0
  6 14  1  0  0  0
 18 23  1  0  0  0
 20 24  1  0  0  0
M  END
> <minimizedAffinity>
-7.69287

$$$$
5EN3_7LU_A_201


 24 26  0  0  0  0  0  0  0  0999 V2000
   -0.1958   -2.4125   22.3680 Cl  0  0  0  0  0  0  0  0  0  0  0  0
    0.1547   -1.1052   23.4468 C   0  0  0  0  0  0  0  0  0  0  0  0
    0.0591   -1.3212   24.8047 C   0  0  0  0  0  0  0  0  0  0  0  0
    0.5552    0.1042   22.9218 C   0  0  0  0  0  0  0  0  0  0  0  0
    0.8929    1.1323   23.7785 C   0  0  0  0  0  0  0  0  0  0  0  0
    1.3027    2.3120   23.2438 O   0  0  0  0  0  0  0  0  0  0  0  0
    0.8232    0.9540   25.1726 C   0  0  0  0  0  0  0  0  0  0  0  0
    1.1826    1.9930   26.1062 C   0  0  0  0  0  0  0  0  0  0  0  0
    1.5933    3.0999   25.7315 O   0  0  0  0  0  0  0  0  0  0  0  0
    0.3993   -0.2903   25.6487 C   0  0  0  0  0  0  0  0  0  0  0  0
    0.3254   -0.5556   27.0029 O   0  0  0  0  0  0  0  0  0  0  0  0
    0.6727    0.4133   27.8956 C   0  0  0  0  0  0  0  0  0  0  0  0
    1.0646    1.6370   27.4972 C   0  0  0  0  0  0  0  0  0  0  0  0
    1.5373    3.0245   23.8053 H   0  0  0  0  0  0  0  0  0  0  0  0
    0.6389   -0.0820   29.2773 C   0  0  0  0  0  0  0  0  0  0  0  0
    1.5333   -1.0704   29.6826 C   0  0  0  0  0  0  0  0  0  0  0  0
    1.5492   -1.4937   31.0040 C   0  0  0  0  0  0  0  0  0  0  0  0
    2.4342   -2.4337   31.4264 O   0  0  0  0  0  0  0  0  0  0  0  0
    0.6611   -0.9373   31.9265 C   0  0  0  0  0  0  0  0  0  0  0  0
    0.6912   -1.3593   33.2186 O   0  0  0  0  0  0  0  0  0  0  0  0
   -0.2336    0.0398   31.5162 C   0  0  0  0  0  0  0  0  0  0  0  0
   -0.2434    0.4625   30.2017 C   0  0  0  0  0  0  0  0  0  0  0  0
    2.4330   -2.7095   32.3219 H   0  0  0  0  0  0  0  0  0  0  0  0
    1.3011   -2.0202   33.4815 H   0  0  0  0  0  0  0  0  0  0  0  0
 20 19  1  0  0  0
 18 17  1  0  0  0
 19 17  2  0  0  0
 19 21  1  0  0  0
 17 16  1  0  0  0
 21 22  2  0  0  0
 16 15  2  0  0  0
 22 15  1  0  0  0
 15 12  1  0  0  0
 12 13  2  0  0  0
 12 11  1  0  0  0
 13  8  1  0  0  0
 11 10  1  0  0  0
  8  9  2  0  0  0
  8  7  1  0  0  0
 10  3  2  0  0  0
 10  7  1  0  0  0
  3  2  1  0  0  0
  7  5  2  0  0  0
  2  4  2  0  0  0
  2  1  1  0  0  0
  5  4  1  0  0  0
  5  6  1  0  0  0
  6 14  1  0  0  0
 18 23  1  0  0  0
 20 24  1  0  0  0
M  END
> <minimizedAffinity>
-7.62819

$$$$
5EN3_7LU_A_201


 24 26  0  0  0  0  0  0  0  0999 V2000
    1.0351   -1.3670   22.4366 Cl  0  0  0  0  0  0  0  0  0  0  0  0
    0.5192   -0.7755   23.9792 C   0  0  0  0  0  0  0  0  0  0  0  0
    1.1352   -1.2564   25.1145 C   0  0  0  0  0  0  0  0  0  0  0  0
   -0.4664    0.1861   24.0295 C   0  0  0  0  0  0  0  0  0  0  0  0
   -0.8406    0.7045   25.2528 C   0  0  0  0  0  0  0  0  0  0  0  0
   -1.8012    1.6646   25.2822 O   0  0  0  0  0  0  0  0  0  0  0  0
   -0.2304    0.2535   26.4378 C   0  0  0  0  0  0  0  0  0  0  0  0
   -0.5760    0.7778   27.7363 C   0  0  0  0  0  0  0  0  0  0  0  0
   -1.4200    1.6730   27.8800 O   0  0  0  0  0  0  0  0  0  0  0  0
    0.7554   -0.7319   26.3275 C   0  0  0  0  0  0  0  0  0  0  0  0
    1.4201   -1.2126   27.4396 O   0  0  0  0  0  0  0  0  0  0  0  0
    1.1112   -0.7178   28.6708 C   0  0  0  0  0  0  0  0  0  0  0  0
    0.1552    0.2132   28.8417 C   0  0  0  0  0  0  0  0  0  0  0  0
   -2.0718    2.0316   26.1008 H   0  0  0  0  0  0  0  0  0  0  0  0
    1.9912   -1.2618   29.7127 C   0  0  0  0  0  0  0  0  0  0  0  0
    1.4849   -1.5175   30.9852 C   0  0  0  0  0  0  0  0  0  0  0  0
    2.2958   -2.0934   31.9529 C   0  0  0  0  0  0  0  0  0  0  0  0
    1.8129   -2.3794   33.1899 O   0  0  0  0  0  0  0  0  0  0  0  0
    3.6235   -2.4070   31.6556 C   0  0  0  0  0  0  0  0  0  0  0  0
    4.4046   -2.9746   32.6126 O   0  0  0  0  0  0  0  0  0  0  0  0
    4.1254   -2.1421   30.3901 C   0  0  0  0  0  0  0  0  0  0  0  0
    3.3145   -1.5737   29.4279 C   0  0  0  0  0  0  0  0  0  0  0  0
    2.3725   -2.7683   33.8330 H   0  0  0  0  0  0  0  0  0  0  0  0
    4.0519   -3.1478   33.4633 H   0  0  0  0  0  0  0  0  0  0  0  0
 20 19  1  0  0  0
 18 17  1  0  0  0
 19 17  2  0  0  0
 19 21  1  0  0  0
 17 16  1  0  0  0
 21 22  2  0  0  0
 16 15  2  0  0  0
 22 15  1  0  0  0
 15 12  1  0  0  0
 12 13  2  0  0  0
 12 11  1  0  0  0
 13  8  1  0  0  0
 11 10  1  0  0  0
  8  9  2  0  0  0
  8  7  1  0  0  0
 10  3  2  0  0  0
 10  7  1  0  0  0
  3  2  1  0  0  0
  7  5  2  0  0  0
  2  4  2  0  0  0
  2  1  1  0  0  0
  5  4  1  0  0  0
  5  6  1  0  0  0
  6 14  1  0  0  0
 18 23  1  0  0  0
 20 24  1  0  0  0
M  END
> <minimizedAffinity>
-7.36914

$$$$
5EN3_7LU_A_201


 24 26  0  0  0  0  0  0  0  0999 V2000
   -0.4083   -2.5585   22.9994 Cl  0  0  0  0  0  0  0  0  0  0  0  0
   -0.0112   -1.1550   23.9311 C   0  0  0  0  0  0  0  0  0  0  0  0
   -0.6836   -0.9308   25.1131 C   0  0  0  0  0  0  0  0  0  0  0  0
    0.9905   -0.3201   23.4861 C   0  0  0  0  0  0  0  0  0  0  0  0
    1.3520    0.7681   24.2543 C   0  0  0  0  0  0  0  0  0  0  0  0
    2.3537    1.5705   23.8090 O   0  0  0  0  0  0  0  0  0  0  0  0
    0.7025    1.0297   25.4748 C   0  0  0  0  0  0  0  0  0  0  0  0
    1.0576    2.1439   26.3191 C   0  0  0  0  0  0  0  0  0  0  0  0
    1.9720    2.9260   26.0250 O   0  0  0  0  0  0  0  0  0  0  0  0
   -0.3143    0.1555   25.8709 C   0  0  0  0  0  0  0  0  0  0  0  0
   -0.9861    0.3275   27.0662 O   0  0  0  0  0  0  0  0  0  0  0  0
   -0.6529    1.3693   27.8784 C   0  0  0  0  0  0  0  0  0  0  0  0
    0.2997    2.2566   27.5392 C   0  0  0  0  0  0  0  0  0  0  0  0
    2.6168    2.3152   24.3132 H   0  0  0  0  0  0  0  0  0  0  0  0
   -1.3902    1.3278   29.1474 C   0  0  0  0  0  0  0  0  0  0  0  0
   -0.7060    1.1078   30.3410 C   0  0  0  0  0  0  0  0  0  0  0  0
   -1.3891    1.1340   31.5486 C   0  0  0  0  0  0  0  0  0  0  0  0
   -0.7356    0.9529   32.7256 O   0  0  0  0  0  0  0  0  0  0  0  0
   -2.7651    1.3697   31.5678 C   0  0  0  0  0  0  0  0  0  0  0  0
   -3.4201    1.3964   32.7589 O   0  0  0  0  0  0  0  0  0  0  0  0
   -3.4433    1.5790   30.3763 C   0  0  0  0  0  0  0  0  0  0  0  0
   -2.7598    1.5575   29.1768 C   0  0  0  0  0  0  0  0  0  0  0  0
   -1.2104    0.9732   33.5331 H   0  0  0  0  0  0  0  0  0  0  0  0
   -2.9488    1.2533   33.5560 H   0  0  0  0  0  0  0  0  0  0  0  0
 20 19  1  0  0  0
 18 17  1  0  0  0
 19 17  2  0  0  0
 19 21  1  0  0  0
 17 16  1  0  0  0
 21 22  2  0  0  0
 16 15  2  0  0  0
 22 15  1  0  0  0
 15 12  1  0  0  0
 12 13  2  0  0  0
 12 11  1  0  0  0
 13  8  1  0  0  0
 11 10  1  0  0  0
  8  9  2  0  0  0
  8  7  1  0  0  0
 10  3  2  0  0  0
 10  7  1  0  0  0
  3  2  1  0  0  0
  7  5  2  0  0  0
  2  4  2  0  0  0
  2  1  1  0  0  0
  5  4  1  0  0  0
  5  6  1  0  0  0
  6 14  1  0  0  0
 18 23  1  0  0  0
 20 24  1  0  0  0
M  END
> <minimizedAffinity>
-7.23133

$$$$
5EN3_7LU_A_201


 24 26  0  0  0  0  0  0  0  0999 V2000
    0.5979    2.7300   23.2106 Cl  0  0  0  0  0  0  0  0  0  0  0  0
    0.1376    1.2999   24.0700 C   0  0  0  0  0  0  0  0  0  0  0  0
    0.7601    1.0149   25.2662 C   0  0  0  0  0  0  0  0  0  0  0  0
   -0.8631    0.5049   23.5549 C   0  0  0  0  0  0  0  0  0  0  0  0
   -1.2752   -0.6046   24.2650 C   0  0  0  0  0  0  0  0  0  0  0  0
   -2.2753   -1.3670   23.7510 O   0  0  0  0  0  0  0  0  0  0  0  0
   -0.6778   -0.9280   25.4973 C   0  0  0  0  0  0  0  0  0  0  0  0
   -1.0870   -2.0665   26.2825 C   0  0  0  0  0  0  0  0  0  0  0  0
   -2.0052   -2.8165   25.9236 O   0  0  0  0  0  0  0  0  0  0  0  0
    0.3405   -0.0922   25.9656 C   0  0  0  0  0  0  0  0  0  0  0  0
    0.9629   -0.3254   27.1771 O   0  0  0  0  0  0  0  0  0  0  0  0
    0.5784   -1.3909   27.9340 C   0  0  0  0  0  0  0  0  0  0  0  0
   -0.3784   -2.2434   27.5244 C   0  0  0  0  0  0  0  0  0  0  0  0
   -2.5721   -2.1251   24.2149 H   0  0  0  0  0  0  0  0  0  0  0  0
    1.2676   -1.4152   29.2301 C   0  0  0  0  0  0  0  0  0  0  0  0
    2.6318   -1.6927   29.2859 C   0  0  0  0  0  0  0  0  0  0  0  0
    3.3002   -1.6512   30.5013 C   0  0  0  0  0  0  0  0  0  0  0  0
    4.6360   -1.8879   30.5730 O   0  0  0  0  0  0  0  0  0  0  0  0
    2.6039   -1.3422   31.6713 C   0  0  0  0  0  0  0  0  0  0  0  0
    3.2732   -1.3014   32.8540 O   0  0  0  0  0  0  0  0  0  0  0  0
    1.2442   -1.0757   31.6119 C   0  0  0  0  0  0  0  0  0  0  0  0
    0.5830   -1.1127   30.4003 C   0  0  0  0  0  0  0  0  0  0  0  0
    5.0736   -1.8564   31.4009 H   0  0  0  0  0  0  0  0  0  0  0  0
    4.1919   -1.4837   32.8790 H   0  0  0  0  0  0  0  0  0  0  0  0
 20 19  1  0  0  0
 18 17  1  0  0  0
 19 17  2  0  0  0
 19 21  1  0  0  0
 17 16  1  0  0  0
 21 22  2  0  0  0
 16 15  2  0  0  0
 22 15  1  0  0  0
 15 12  1  0  0  0
 12 13  2  0  0  0
 12 11  1  0  0  0
 13  8  1  0  0  0
 11 10  1  0  0  0
  8  9  2  0  0  0
  8  7  1  0  0  0
 10  3  2  0  0  0
 10  7  1  0  0  0
  3  2  1  0  0  0
  7  5  2  0  0  0
  2  4  2  0  0  0
  2  1  1  0  0  0
  5  4  1  0  0  0
  5  6  1  0  0  0
  6 14  1  0  0  0
 18 23  1  0  0  0
 20 24  1  0  0  0
M  END
> <minimizedAffinity>
-7.16415

$$$$
5EN3_7LU_A_201


 24 26  0  0  0  0  0  0  0  0999 V2000
   -1.5354    2.4776   21.1591 Cl  0  0  0  0  0  0  0  0  0  0  0  0
   -0.7649    1.5203   22.3779 C   0  0  0  0  0  0  0  0  0  0  0  0
   -1.0486    1.7774   23.7019 C   0  0  0  0  0  0  0  0  0  0  0  0
    0.0818    0.5040   21.9920 C   0  0  0  0  0  0  0  0  0  0  0  0
    0.6530   -0.3005   22.9571 C   0  0  0  0  0  0  0  0  0  0  0  0
    1.4711   -1.3089   22.5578 O   0  0  0  0  0  0  0  0  0  0  0  0
    0.3824   -0.0840   24.3209 C   0  0  0  0  0  0  0  0  0  0  0  0
    0.9420   -0.9092   25.3632 C   0  0  0  0  0  0  0  0  0  0  0  0
    1.6807   -1.8717   25.1139 O   0  0  0  0  0  0  0  0  0  0  0  0
   -0.4750    0.9688   24.6548 C   0  0  0  0  0  0  0  0  0  0  0  0
   -0.8109    1.2343   25.9686 O   0  0  0  0  0  0  0  0  0  0  0  0
   -0.2983    0.4556   26.9620 C   0  0  0  0  0  0  0  0  0  0  0  0
    0.5504   -0.5558   26.7038 C   0  0  0  0  0  0  0  0  0  0  0  0
    1.8704   -1.8683   23.1947 H   0  0  0  0  0  0  0  0  0  0  0  0
   -0.8504    0.8138   28.2744 C   0  0  0  0  0  0  0  0  0  0  0  0
   -2.0714    1.4799   28.3557 C   0  0  0  0  0  0  0  0  0  0  0  0
   -2.6285    1.7611   29.5952 C   0  0  0  0  0  0  0  0  0  0  0  0
   -3.8325    2.3818   29.6959 O   0  0  0  0  0  0  0  0  0  0  0  0
   -1.9603    1.3866   30.7625 C   0  0  0  0  0  0  0  0  0  0  0  0
   -2.5205    1.6652   31.9695 O   0  0  0  0  0  0  0  0  0  0  0  0
   -0.7408    0.7318   30.6766 C   0  0  0  0  0  0  0  0  0  0  0  0
   -0.1916    0.4489   29.4416 C   0  0  0  0  0  0  0  0  0  0  0  0
   -4.1960    2.5651   30.5399 H   0  0  0  0  0  0  0  0  0  0  0  0
   -3.3451    2.1082   32.0123 H   0  0  0  0  0  0  0  0  0  0  0  0
 20 19  1  0  0  0
 18 17  1  0  0  0
 19 17  2  0  0  0
 19 21  1  0  0  0
 17 16  1  0  0  0
 21 22  2  0  0  0
 16 15  2  0  0  0
 22 15  1  0  0  0
 15 12  1  0  0  0
 12 13  2  0  0  0
 12 11  1  0  0  0
 13  8  1  0  0  0
 11 10  1  0  0  0
  8  9  2  0  0  0
  8  7  1  0  0  0
 10  3  2  0  0  0
 10  7  1  0  0  0
  3  2  1  0  0  0
  7  5  2  0  0  0
  2  4  2  0  0  0
  2  1  1  0  0  0
  5  4  1  0  0  0
  5  6  1  0  0  0
  6 14  1  0  0  0
 18 23  1  0  0  0
 20 24  1  0  0  0
M  END
> <minimizedAffinity>
-6.96806

$$$$
