3FEE_QUS_A_741


 17 17  0  0  0  0  0  0  0  0999 V2000
   16.7990   42.2091   18.7165 C   0  0  0  0  0  0  0  0  0  0  0  0
   16.6713   41.8794   16.2780 C   0  0  0  0  0  0  0  0  0  0  0  0
   15.1608   40.3587   16.2827 C   0  0  0  0  0  0  0  0  0  0  0  0
   15.9883   42.0570   17.4967 N   0  0  0  0  0  0  0  0  0  0  0  0
   16.0932   40.9389   15.5173 N   0  0  0  0  0  0  0  0  0  0  0  0
   17.6419   42.5450   15.9936 O   0  0  0  0  0  0  0  0  0  0  0  0
   14.3849   39.4465   16.0331 O   0  0  0  0  0  0  0  0  0  0  0  0
   15.0852   40.9328   17.5979 O   0  0  0  0  0  0  0  0  0  0  0  0
   16.3109   40.7189   14.5827 H   0  0  0  0  0  0  0  0  0  0  0  0
   17.7047   40.9628   18.8391 C   0  0  0  0  0  0  0  0  0  0  0  0
   17.3363   40.1853   20.0428 N   0  0  0  0  0  0  0  0  0  0  0  0
   17.4800   40.7579   20.8746 H   0  0  0  0  0  0  0  0  0  0  0  0
   17.9194   39.3504   20.0999 H   0  0  0  0  0  0  0  0  0  0  0  0
   19.1644   41.3350   18.8589 C   0  0  0  0  0  0  0  0  0  0  0  0
   19.9871   40.4912   18.4796 O   0  0  0  0  0  0  0  0  0  0  0  0
   19.4430   42.4812   19.2978 O   0  0  0  0  0  0  0  0  0  0  0  0
   18.7565   43.0603   19.5648 H   0  0  0  0  0  0  0  0  0  0  0  0
 14 10  1  0  0  0
 14 15  2  0  0  0
 14 16  1  0  0  0
 10  1  1  0  0  0
 10 11  1  0  0  0
  1  4  1  0  0  0
  2  4  1  0  0  0
  2  5  1  0  0  0
  2  6  2  0  0  0
  3  5  1  0  0  0
  3  7  2  0  0  0
  3  8  1  0  0  0
  4  8  1  0  0  0
 11 12  1  0  0  0
 11 13  1  0  0  0
  5  9  1  0  0  0
 16 17  1  0  0  0
M  END
> <minimizedAffinity>
-7.76287

$$$$
3FEE_QUS_A_741


 17 17  0  0  0  0  0  0  0  0999 V2000
   17.6082   42.1623   18.1712 C   0  0  0  0  0  0  0  0  0  0  0  0
   15.7233   41.3598   16.8019 C   0  0  0  0  0  0  0  0  0  0  0  0
   16.4163   42.1020   14.9143 C   0  0  0  0  0  0  0  0  0  0  0  0
   17.1171   41.4882   16.9576 N   0  0  0  0  0  0  0  0  0  0  0  0
   15.3381   41.6203   15.5445 N   0  0  0  0  0  0  0  0  0  0  0  0
   15.0120   41.0240   17.7222 O   0  0  0  0  0  0  0  0  0  0  0  0
   16.5555   42.4859   13.7612 O   0  0  0  0  0  0  0  0  0  0  0  0
   17.5774   42.1531   15.7594 O   0  0  0  0  0  0  0  0  0  0  0  0
   14.4415   41.4844   15.1612 H   0  0  0  0  0  0  0  0  0  0  0  0
   19.1518   42.1930   18.1014 C   0  0  0  0  0  0  0  0  0  0  0  0
   19.7069   40.9155   18.6003 N   0  0  0  0  0  0  0  0  0  0  0  0
   19.4416   40.7879   19.5769 H   0  0  0  0  0  0  0  0  0  0  0  0
   20.7239   40.9338   18.5239 H   0  0  0  0  0  0  0  0  0  0  0  0
   19.7202   43.3646   18.8589 C   0  0  0  0  0  0  0  0  0  0  0  0
   20.9011   43.6749   18.6536 O   0  0  0  0  0  0  0  0  0  0  0  0
   18.9494   43.9265   19.6799 O   0  0  0  0  0  0  0  0  0  0  0  0
   18.0663   43.6277   19.7734 H   0  0  0  0  0  0  0  0  0  0  0  0
 14 10  1  0  0  0
 14 15  2  0  0  0
 14 16  1  0  0  0
 10  1  1  0  0  0
 10 11  1  0  0  0
  1  4  1  0  0  0
  2  4  1  0  0  0
  2  5  1  0  0  0
  2  6  2  0  0  0
  3  5  1  0  0  0
  3  7  2  0  0  0
  3  8  1  0  0  0
  4  8  1  0  0  0
 11 12  1  0  0  0
 11 13  1  0  0  0
  5  9  1  0  0  0
 16 17  1  0  0  0
M  END
> <minimizedAffinity>
-7.63561

$$$$
3FEE_QUS_A_741


 17 17  0  0  0  0  0  0  0  0999 V2000
   21.3060   45.6217   17.7019 C   0  0  0  0  0  0  0  0  0  0  0  0
   19.8165   44.4281   19.2602 C   0  0  0  0  0  0  0  0  0  0  0  0
   19.8408   42.5289   18.2670 C   0  0  0  0  0  0  0  0  0  0  0  0
   21.0110   44.4294   18.5143 N   0  0  0  0  0  0  0  0  0  0  0  0
   19.1896   43.2450   19.1916 N   0  0  0  0  0  0  0  0  0  0  0  0
   19.4631   45.3993   19.8910 O   0  0  0  0  0  0  0  0  0  0  0  0
   19.6358   41.3969   17.8511 O   0  0  0  0  0  0  0  0  0  0  0  0
   20.9575   43.2350   17.7018 O   0  0  0  0  0  0  0  0  0  0  0  0
   18.4069   42.9599   19.7163 H   0  0  0  0  0  0  0  0  0  0  0  0
   22.7397   46.0842   18.0468 C   0  0  0  0  0  0  0  0  0  0  0  0
   23.6285   44.9107   18.1955 N   0  0  0  0  0  0  0  0  0  0  0  0
   23.2961   44.3274   18.9634 H   0  0  0  0  0  0  0  0  0  0  0  0
   24.5778   45.2263   18.3946 H   0  0  0  0  0  0  0  0  0  0  0  0
   22.7649   46.9444   19.2834 C   0  0  0  0  0  0  0  0  0  0  0  0
   23.8160   46.9986   19.9354 O   0  0  0  0  0  0  0  0  0  0  0  0
   21.6890   47.5249   19.5825 O   0  0  0  0  0  0  0  0  0  0  0  0
   20.9369   47.4306   19.0316 H   0  0  0  0  0  0  0  0  0  0  0  0
 14 10  1  0  0  0
 14 15  2  0  0  0
 14 16  1  0  0  0
 10  1  1  0  0  0
 10 11  1  0  0  0
  1  4  1  0  0  0
  2  4  1  0  0  0
  2  5  1  0  0  0
  2  6  2  0  0  0
  3  5  1  0  0  0
  3  7  2  0  0  0
  3  8  1  0  0  0
  4  8  1  0  0  0
 11 12  1  0  0  0
 11 13  1  0  0  0
  5  9  1  0  0  0
 16 17  1  0  0  0
M  END
> <minimizedAffinity>
-7.59278

$$$$
3FEE_QUS_A_741


 17 17  0  0  0  0  0  0  0  0999 V2000
   19.3250   43.1418   19.2080 C   0  0  0  0  0  0  0  0  0  0  0  0
   20.7245   45.0632   18.5590 C   0  0  0  0  0  0  0  0  0  0  0  0
   22.1593   43.9794   17.3923 C   0  0  0  0  0  0  0  0  0  0  0  0
   20.0541   43.8878   18.1687 N   0  0  0  0  0  0  0  0  0  0  0  0
   21.9367   45.1545   17.9935 N   0  0  0  0  0  0  0  0  0  0  0  0
   20.2071   45.8715   19.2970 O   0  0  0  0  0  0  0  0  0  0  0  0
   23.1265   43.5847   16.7558 O   0  0  0  0  0  0  0  0  0  0  0  0
   21.0591   43.0657   17.5333 O   0  0  0  0  0  0  0  0  0  0  0  0
   22.5421   45.9305   18.0159 H   0  0  0  0  0  0  0  0  0  0  0  0
   18.2453   42.2880   18.5055 C   0  0  0  0  0  0  0  0  0  0  0  0
   16.9209   42.5464   19.1124 N   0  0  0  0  0  0  0  0  0  0  0  0
   16.9394   42.2776   20.0962 H   0  0  0  0  0  0  0  0  0  0  0  0
   16.2108   42.0008   18.6242 H   0  0  0  0  0  0  0  0  0  0  0  0
   18.5833   40.8204   18.5447 C   0  0  0  0  0  0  0  0  0  0  0  0
   17.6618   40.0138   18.7268 O   0  0  0  0  0  0  0  0  0  0  0  0
   19.8001   40.5235   18.4208 O   0  0  0  0  0  0  0  0  0  0  0  0
   20.4355   41.1986   18.2851 H   0  0  0  0  0  0  0  0  0  0  0  0
 14 10  1  0  0  0
 14 15  2  0  0  0
 14 16  1  0  0  0
 10  1  1  0  0  0
 10 11  1  0  0  0
  1  4  1  0  0  0
  2  4  1  0  0  0
  2  5  1  0  0  0
  2  6  2  0  0  0
  3  5  1  0  0  0
  3  7  2  0  0  0
  3  8  1  0  0  0
  4  8  1  0  0  0
 11 12  1  0  0  0
 11 13  1  0  0  0
  5  9  1  0  0  0
 16 17  1  0  0  0
M  END
> <minimizedAffinity>
-7.49001

$$$$
3FEE_QUS_A_741


 17 17  0  0  0  0  0  0  0  0999 V2000
   17.1104   42.6207   18.1625 C   0  0  0  0  0  0  0  0  0  0  0  0
   15.5574   41.3580   16.7255 C   0  0  0  0  0  0  0  0  0  0  0  0
   16.2210   42.1420   14.8442 C   0  0  0  0  0  0  0  0  0  0  0  0
   16.8738   41.7971   16.9649 N   0  0  0  0  0  0  0  0  0  0  0  0
   15.2257   41.4661   15.4309 N   0  0  0  0  0  0  0  0  0  0  0  0
   14.8647   40.9189   17.6161 O   0  0  0  0  0  0  0  0  0  0  0  0
   16.3648   42.4908   13.6805 O   0  0  0  0  0  0  0  0  0  0  0  0
   17.2732   42.4881   15.7597 O   0  0  0  0  0  0  0  0  0  0  0  0
   14.4127   41.1180   14.9984 H   0  0  0  0  0  0  0  0  0  0  0  0
   18.5968   42.4646   18.5557 C   0  0  0  0  0  0  0  0  0  0  0  0
   19.4646   42.9326   17.4525 N   0  0  0  0  0  0  0  0  0  0  0  0
   19.2996   42.3606   16.6242 H   0  0  0  0  0  0  0  0  0  0  0  0
   20.4423   42.8527   17.7317 H   0  0  0  0  0  0  0  0  0  0  0  0
   18.9251   41.0454   18.9400 C   0  0  0  0  0  0  0  0  0  0  0  0
   19.8742   40.4910   18.3701 O   0  0  0  0  0  0  0  0  0  0  0  0
   18.1771   40.5119   19.8002 O   0  0  0  0  0  0  0  0  0  0  0  0
   17.4785   41.0046   20.1837 H   0  0  0  0  0  0  0  0  0  0  0  0
 14 10  1  0  0  0
 14 15  2  0  0  0
 14 16  1  0  0  0
 10  1  1  0  0  0
 10 11  1  0  0  0
  1  4  1  0  0  0
  2  4  1  0  0  0
  2  5  1  0  0  0
  2  6  2  0  0  0
  3  5  1  0  0  0
  3  7  2  0  0  0
  3  8  1  0  0  0
  4  8  1  0  0  0
 11 12  1  0  0  0
 11 13  1  0  0  0
  5  9  1  0  0  0
 16 17  1  0  0  0
M  END
> <minimizedAffinity>
-7.29498

$$$$
3FEE_QUS_A_741


 17 17  0  0  0  0  0  0  0  0999 V2000
   16.2178   42.1048   17.9624 C   0  0  0  0  0  0  0  0  0  0  0  0
   18.2235   40.9707   18.8358 C   0  0  0  0  0  0  0  0  0  0  0  0
   19.6791   42.3209   18.0282 C   0  0  0  0  0  0  0  0  0  0  0  0
   17.5233   42.1768   18.6399 N   0  0  0  0  0  0  0  0  0  0  0  0
   19.5312   41.1077   18.5741 N   0  0  0  0  0  0  0  0  0  0  0  0
   17.6635   39.9694   19.2225 O   0  0  0  0  0  0  0  0  0  0  0  0
   20.6818   42.8894   17.6185 O   0  0  0  0  0  0  0  0  0  0  0  0
   18.4399   43.0423   17.9327 O   0  0  0  0  0  0  0  0  0  0  0  0
   20.2409   40.4480   18.7486 H   0  0  0  0  0  0  0  0  0  0  0  0
   16.4421   41.4641   16.5740 C   0  0  0  0  0  0  0  0  0  0  0  0
   16.9006   42.4896   15.6110 N   0  0  0  0  0  0  0  0  0  0  0  0
   16.1825   43.2071   15.5108 H   0  0  0  0  0  0  0  0  0  0  0  0
   17.0734   42.0527   14.7056 H   0  0  0  0  0  0  0  0  0  0  0  0
   15.2031   40.7669   16.0757 C   0  0  0  0  0  0  0  0  0  0  0  0
   14.5233   41.3328   15.2094 O   0  0  0  0  0  0  0  0  0  0  0  0
   14.9311   39.6605   16.6104 O   0  0  0  0  0  0  0  0  0  0  0  0
   15.5019   39.3016   17.2610 H   0  0  0  0  0  0  0  0  0  0  0  0
 14 10  1  0  0  0
 14 15  2  0  0  0
 14 16  1  0  0  0
 10  1  1  0  0  0
 10 11  1  0  0  0
  1  4  1  0  0  0
  2  4  1  0  0  0
  2  5  1  0  0  0
  2  6  2  0  0  0
  3  5  1  0  0  0
  3  7  2  0  0  0
  3  8  1  0  0  0
  4  8  1  0  0  0
 11 12  1  0  0  0
 11 13  1  0  0  0
  5  9  1  0  0  0
 16 17  1  0  0  0
M  END
> <minimizedAffinity>
-7.14823

$$$$
3FEE_QUS_A_741


 17 17  0  0  0  0  0  0  0  0999 V2000
   22.4938   45.5214   18.9884 C   0  0  0  0  0  0  0  0  0  0  0  0
   23.3074   44.4759   16.9108 C   0  0  0  0  0  0  0  0  0  0  0  0
   23.5462   46.2750   15.7703 C   0  0  0  0  0  0  0  0  0  0  0  0
   23.4553   45.4932   17.8734 N   0  0  0  0  0  0  0  0  0  0  0  0
   23.4785   44.9423   15.6655 N   0  0  0  0  0  0  0  0  0  0  0  0
   23.0813   43.3303   17.2302 O   0  0  0  0  0  0  0  0  0  0  0  0
   23.6881   47.1321   14.9091 O   0  0  0  0  0  0  0  0  0  0  0  0
   23.4390   46.7319   17.1286 O   0  0  0  0  0  0  0  0  0  0  0  0
   23.5416   44.4108   14.8392 H   0  0  0  0  0  0  0  0  0  0  0  0
   21.0744   45.3969   18.3900 C   0  0  0  0  0  0  0  0  0  0  0  0
   20.5422   46.7386   18.0647 N   0  0  0  0  0  0  0  0  0  0  0  0
   20.4730   47.2929   18.9181 H   0  0  0  0  0  0  0  0  0  0  0  0
   19.6176   46.6448   17.6443 H   0  0  0  0  0  0  0  0  0  0  0  0
   20.1444   44.6530   19.3127 C   0  0  0  0  0  0  0  0  0  0  0  0
   20.1627   43.4153   19.2864 O   0  0  0  0  0  0  0  0  0  0  0  0
   19.3843   45.3573   20.0271 O   0  0  0  0  0  0  0  0  0  0  0  0
   19.4360   46.2920   19.9859 H   0  0  0  0  0  0  0  0  0  0  0  0
 14 10  1  0  0  0
 14 15  2  0  0  0
 14 16  1  0  0  0
 10  1  1  0  0  0
 10 11  1  0  0  0
  1  4  1  0  0  0
  2  4  1  0  0  0
  2  5  1  0  0  0
  2  6  2  0  0  0
  3  5  1  0  0  0
  3  7  2  0  0  0
  3  8  1  0  0  0
  4  8  1  0  0  0
 11 12  1  0  0  0
 11 13  1  0  0  0
  5  9  1  0  0  0
 16 17  1  0  0  0
M  END
> <minimizedAffinity>
-7.12267

$$$$
3FEE_QUS_A_741


 17 17  0  0  0  0  0  0  0  0999 V2000
   17.2850   42.2495   16.7040 C   0  0  0  0  0  0  0  0  0  0  0  0
   19.1338   41.7904   18.2669 C   0  0  0  0  0  0  0  0  0  0  0  0
   18.0981   40.3918   19.5181 C   0  0  0  0  0  0  0  0  0  0  0  0
   18.1007   41.2815   17.4563 N   0  0  0  0  0  0  0  0  0  0  0  0
   19.1877   41.1665   19.4524 N   0  0  0  0  0  0  0  0  0  0  0  0
   19.8714   42.6672   17.8760 O   0  0  0  0  0  0  0  0  0  0  0  0
   17.7083   39.6449   20.4050 O   0  0  0  0  0  0  0  0  0  0  0  0
   17.2864   40.4726   18.3350 O   0  0  0  0  0  0  0  0  0  0  0  0
   19.8885   41.2596   20.1376 H   0  0  0  0  0  0  0  0  0  0  0  0
   16.4021   41.4544   15.7158 C   0  0  0  0  0  0  0  0  0  0  0  0
   16.3753   42.1332   14.4014 N   0  0  0  0  0  0  0  0  0  0  0  0
   15.9667   43.0619   14.5065 H   0  0  0  0  0  0  0  0  0  0  0  0
   15.8141   41.5869   13.7479 H   0  0  0  0  0  0  0  0  0  0  0  0
   15.0084   41.2537   16.2516 C   0  0  0  0  0  0  0  0  0  0  0  0
   14.1141   40.9478   15.4520 O   0  0  0  0  0  0  0  0  0  0  0  0
   14.8504   41.4480   17.4850 O   0  0  0  0  0  0  0  0  0  0  0  0
   15.5841   41.6773   18.0209 H   0  0  0  0  0  0  0  0  0  0  0  0
 14 10  1  0  0  0
 14 15  2  0  0  0
 14 16  1  0  0  0
 10  1  1  0  0  0
 10 11  1  0  0  0
  1  4  1  0  0  0
  2  4  1  0  0  0
  2  5  1  0  0  0
  2  6  2  0  0  0
  3  5  1  0  0  0
  3  7  2  0  0  0
  3  8  1  0  0  0
  4  8  1  0  0  0
 11 12  1  0  0  0
 11 13  1  0  0  0
  5  9  1  0  0  0
 16 17  1  0  0  0
M  END
> <minimizedAffinity>
-7.07957

$$$$
3FEE_QUS_A_741


 17 17  0  0  0  0  0  0  0  0999 V2000
   19.8510   43.3749   17.9356 C   0  0  0  0  0  0  0  0  0  0  0  0
   17.6821   42.2824   17.5185 C   0  0  0  0  0  0  0  0  0  0  0  0
   17.8123   40.8073   19.0682 C   0  0  0  0  0  0  0  0  0  0  0  0
   18.5873   42.8229   18.4522 N   0  0  0  0  0  0  0  0  0  0  0  0
   17.1436   41.1351   17.9559 N   0  0  0  0  0  0  0  0  0  0  0  0
   17.4379   42.8452   16.4748 O   0  0  0  0  0  0  0  0  0  0  0  0
   17.6887   39.8451   19.8134 O   0  0  0  0  0  0  0  0  0  0  0  0
   18.8234   41.7687   19.4126 O   0  0  0  0  0  0  0  0  0  0  0  0
   16.4043   40.6340   17.5418 H   0  0  0  0  0  0  0  0  0  0  0  0
   20.3969   44.3669   18.9874 C   0  0  0  0  0  0  0  0  0  0  0  0
   19.2967   44.8410   19.8556 N   0  0  0  0  0  0  0  0  0  0  0  0
   18.6062   45.3350   19.2903 H   0  0  0  0  0  0  0  0  0  0  0  0
   19.6706   45.4724   20.5641 H   0  0  0  0  0  0  0  0  0  0  0  0
   21.1159   45.5229   18.3422 C   0  0  0  0  0  0  0  0  0  0  0  0
   21.8546   45.2856   17.3773 O   0  0  0  0  0  0  0  0  0  0  0  0
   20.9341   46.6546   18.8620 O   0  0  0  0  0  0  0  0  0  0  0  0
   20.3555   46.7468   19.5932 H   0  0  0  0  0  0  0  0  0  0  0  0
 14 10  1  0  0  0
 14 15  2  0  0  0
 14 16  1  0  0  0
 10  1  1  0  0  0
 10 11  1  0  0  0
  1  4  1  0  0  0
  2  4  1  0  0  0
  2  5  1  0  0  0
  2  6  2  0  0  0
  3  5  1  0  0  0
  3  7  2  0  0  0
  3  8  1  0  0  0
  4  8  1  0  0  0
 11 12  1  0  0  0
 11 13  1  0  0  0
  5  9  1  0  0  0
 16 17  1  0  0  0
M  END
> <minimizedAffinity>
-7.04793

$$$$
3FEE_QUS_A_741


 17 17  0  0  0  0  0  0  0  0999 V2000
   19.1232   42.7487   18.9696 C   0  0  0  0  0  0  0  0  0  0  0  0
   17.3769   41.1782   18.2243 C   0  0  0  0  0  0  0  0  0  0  0  0
   17.2694   41.8305   16.1854 C   0  0  0  0  0  0  0  0  0  0  0  0
   18.6239   41.7835   17.9758 N   0  0  0  0  0  0  0  0  0  0  0  0
   16.6268   41.1130   17.1150 N   0  0  0  0  0  0  0  0  0  0  0  0
   17.0838   40.7602   19.3221 O   0  0  0  0  0  0  0  0  0  0  0  0
   16.9728   42.0697   15.0230 O   0  0  0  0  0  0  0  0  0  0  0  0
   18.5046   42.3850   16.6668 O   0  0  0  0  0  0  0  0  0  0  0  0
   15.7739   40.6335   17.0059 H   0  0  0  0  0  0  0  0  0  0  0  0
   19.9326   43.8269   18.2141 C   0  0  0  0  0  0  0  0  0  0  0  0
   21.2096   43.2563   17.7316 N   0  0  0  0  0  0  0  0  0  0  0  0
   21.7674   42.9491   18.5284 H   0  0  0  0  0  0  0  0  0  0  0  0
   21.7237   43.9663   17.2101 H   0  0  0  0  0  0  0  0  0  0  0  0
   20.1707   45.0448   19.0684 C   0  0  0  0  0  0  0  0  0  0  0  0
   21.1141   45.7900   18.7724 O   0  0  0  0  0  0  0  0  0  0  0  0
   19.4011   45.1963   20.0526 O   0  0  0  0  0  0  0  0  0  0  0  0
   18.7090   44.5833   20.2049 H   0  0  0  0  0  0  0  0  0  0  0  0
 14 10  1  0  0  0
 14 15  2  0  0  0
 14 16  1  0  0  0
 10  1  1  0  0  0
 10 11  1  0  0  0
  1  4  1  0  0  0
  2  4  1  0  0  0
  2  5  1  0  0  0
  2  6  2  0  0  0
  3  5  1  0  0  0
  3  7  2  0  0  0
  3  8  1  0  0  0
  4  8  1  0  0  0
 11 12  1  0  0  0
 11 13  1  0  0  0
  5  9  1  0  0  0
 16 17  1  0  0  0
M  END
> <minimizedAffinity>
-6.99086

$$$$
