4K3H_1OM_A_201


 27 29  0  0  0  0  0  0  0  0999 V2000
    2.0893    7.7271   -1.9796 C   0  0  0  0  0  0  0  0  0  0  0  0
    1.5728    3.2172    1.6181 O   0  0  0  0  0  0  0  0  0  0  0  0
    1.6787    4.3373    0.7473 C   0  0  0  0  0  0  0  0  0  0  0  0
    2.1144    5.6088    1.2141 C   0  0  0  0  0  0  0  0  0  0  0  0
    2.2548    6.7219    0.3103 C   0  0  0  0  0  0  0  0  0  0  0  0
    1.9779    6.5806   -1.0481 C   0  0  0  0  0  0  0  0  0  0  0  0
    1.5206    5.2980   -1.5197 C   0  0  0  0  0  0  0  0  0  0  0  0
    1.3901    4.1955   -0.6202 C   0  0  0  0  0  0  0  0  0  0  0  0
    1.7656    3.3128    2.5301 H   0  0  0  0  0  0  0  0  0  0  0  0
    2.8645    7.5836   -3.1698 C   0  0  0  0  0  0  0  0  0  0  0  0
    2.5278    8.2281   -4.3880 C   0  0  0  0  0  0  0  0  0  0  0  0
    3.3777    8.1782   -5.5192 C   0  0  0  0  0  0  0  0  0  0  0  0
    4.6212    7.4357   -5.4765 C   0  0  0  0  0  0  0  0  0  0  0  0
    4.9474    6.8129   -4.2562 C   0  0  0  0  0  0  0  0  0  0  0  0
    4.1046    6.8658   -3.1221 C   0  0  0  0  0  0  0  0  0  0  0  0
    5.6041    7.4871   -6.5347 N   0  0  0  0  0  0  0  0  0  0  0  0
    5.1580    7.9341   -7.8399 C   0  0  0  0  0  0  0  0  0  0  0  0
    6.9645    6.9957   -6.2955 C   0  0  0  0  0  0  0  0  0  0  0  0
    1.4301    8.9750   -1.6965 C   0  0  0  0  0  0  0  0  0  0  0  0
    2.0363   10.2435   -2.0117 C   0  0  0  0  0  0  0  0  0  0  0  0
    1.4002   11.4689   -1.7788 C   0  0  0  0  0  0  0  0  0  0  0  0
    0.1258   11.4818   -1.2046 C   0  0  0  0  0  0  0  0  0  0  0  0
   -0.4864   10.2502   -0.8879 C   0  0  0  0  0  0  0  0  0  0  0  0
    0.1699    9.0008   -1.1352 C   0  0  0  0  0  0  0  0  0  0  0  0
   -0.5297   12.6392   -1.0544 N   0  0  0  0  0  0  0  0  0  0  0  0
   -1.9665   12.6312   -0.6840 C   0  0  0  0  0  0  0  0  0  0  0  0
    0.1483   13.9127   -1.1602 C   0  0  0  0  0  0  0  0  0  0  0  0
 26 25  1  0  0  0
 25 27  1  0  0  0
 25 22  1  0  0  0
 21 22  2  0  0  0
 21 20  1  0  0  0
 22 23  1  0  0  0
 20 19  2  0  0  0
 23 24  2  0  0  0
 19 24  1  0  0  0
 19  1  1  0  0  0
 11 12  2  0  0  0
 11 10  1  0  0  0
  1 10  1  0  0  0
  1  6  1  0  0  0
 12 13  1  0  0  0
 10 15  2  0  0  0
  5  6  2  0  0  0
  5  4  1  0  0  0
 18 16  1  0  0  0
 13 16  1  0  0  0
 13 14  2  0  0  0
 16 17  1  0  0  0
  6  7  1  0  0  0
 15 14  1  0  0  0
  4  3  2  0  0  0
  7  8  2  0  0  0
  3  8  1  0  0  0
  3  2  1  0  0  0
  2  9  1  0  0  0
M  END
> <minimizedAffinity>
-11.75819

$$$$
4K3H_1OM_A_201


 27 29  0  0  0  0  0  0  0  0999 V2000
    2.1621    7.6838   -1.9186 C   0  0  0  0  0  0  0  0  0  0  0  0
    1.2564    3.1405    1.5582 O   0  0  0  0  0  0  0  0  0  0  0  0
    1.5000    4.2431    0.6926 C   0  0  0  0  0  0  0  0  0  0  0  0
    1.2744    4.1571   -0.7095 C   0  0  0  0  0  0  0  0  0  0  0  0
    1.4875    5.2959   -1.5658 C   0  0  0  0  0  0  0  0  0  0  0  0
    1.9103    6.5162   -1.0423 C   0  0  0  0  0  0  0  0  0  0  0  0
    2.1552    6.6005    0.3752 C   0  0  0  0  0  0  0  0  0  0  0  0
    1.9353    5.4699    1.2208 C   0  0  0  0  0  0  0  0  0  0  0  0
    0.9661    2.3227    1.2049 H   0  0  0  0  0  0  0  0  0  0  0  0
    1.5677    8.9399   -1.5917 C   0  0  0  0  0  0  0  0  0  0  0  0
    2.2026   10.1814   -1.8537 C   0  0  0  0  0  0  0  0  0  0  0  0
    1.5439   11.4165   -1.6419 C   0  0  0  0  0  0  0  0  0  0  0  0
    0.1931   11.4530   -1.1191 C   0  0  0  0  0  0  0  0  0  0  0  0
   -0.4280   10.2124   -0.8770 C   0  0  0  0  0  0  0  0  0  0  0  0
    0.2240    8.9765   -1.0934 C   0  0  0  0  0  0  0  0  0  0  0  0
   -0.5873   12.6669   -1.0416 N   0  0  0  0  0  0  0  0  0  0  0  0
   -1.9952   12.5368   -0.7197 C   0  0  0  0  0  0  0  0  0  0  0  0
    0.0234   13.9540   -1.3879 C   0  0  0  0  0  0  0  0  0  0  0  0
    2.9922    7.5635   -3.0885 C   0  0  0  0  0  0  0  0  0  0  0  0
    2.6671    8.2310   -4.3231 C   0  0  0  0  0  0  0  0  0  0  0  0
    3.4770    8.1581   -5.4630 C   0  0  0  0  0  0  0  0  0  0  0  0
    4.6500    7.3989   -5.4233 C   0  0  0  0  0  0  0  0  0  0  0  0
    4.9873    6.7366   -4.2236 C   0  0  0  0  0  0  0  0  0  0  0  0
    4.1553    6.8216   -3.0602 C   0  0  0  0  0  0  0  0  0  0  0  0
    5.4772    7.3884   -6.4758 N   0  0  0  0  0  0  0  0  0  0  0  0
    4.9969    7.8629   -7.7970 C   0  0  0  0  0  0  0  0  0  0  0  0
    6.8655    7.0040   -6.3439 C   0  0  0  0  0  0  0  0  0  0  0  0
 26 25  1  0  0  0
 25 27  1  0  0  0
 25 22  1  0  0  0
 21 22  2  0  0  0
 21 20  1  0  0  0
 22 23  1  0  0  0
 20 19  2  0  0  0
 23 24  2  0  0  0
 19 24  1  0  0  0
 19  1  1  0  0  0
 11 12  2  0  0  0
 11 10  1  0  0  0
  1 10  1  0  0  0
  1  6  1  0  0  0
 12 13  1  0  0  0
 10 15  2  0  0  0
  5  6  2  0  0  0
  5  4  1  0  0  0
 18 16  1  0  0  0
 13 16  1  0  0  0
 13 14  2  0  0  0
 16 17  1  0  0  0
  6  7  1  0  0  0
 15 14  1  0  0  0
  4  3  2  0  0  0
  7  8  2  0  0  0
  3  8  1  0  0  0
  3  2  1  0  0  0
  2  9  1  0  0  0
M  END
> <minimizedAffinity>
-11.75705

$$$$
4K3H_1OM_A_201


 27 29  0  0  0  0  0  0  0  0999 V2000
    2.2423    7.8636   -2.0749 C   0  0  0  0  0  0  0  0  0  0  0  0
    5.5540    7.5164   -6.8142 O   0  0  0  0  0  0  0  0  0  0  0  0
    4.7385    7.5742   -5.6498 C   0  0  0  0  0  0  0  0  0  0  0  0
    5.1971    7.0949   -4.3911 C   0  0  0  0  0  0  0  0  0  0  0  0
    4.3735    7.1984   -3.2137 C   0  0  0  0  0  0  0  0  0  0  0  0
    3.1089    7.7808   -3.2735 C   0  0  0  0  0  0  0  0  0  0  0  0
    2.6362    8.2518   -4.5507 C   0  0  0  0  0  0  0  0  0  0  0  0
    3.4601    8.1531   -5.7138 C   0  0  0  0  0  0  0  0  0  0  0  0
    6.4065    7.1301   -6.7705 H   0  0  0  0  0  0  0  0  0  0  0  0
    2.1179    6.7224   -1.2262 C   0  0  0  0  0  0  0  0  0  0  0  0
    2.2499    6.7963    0.1844 C   0  0  0  0  0  0  0  0  0  0  0  0
    1.9954    5.6806    1.0179 C   0  0  0  0  0  0  0  0  0  0  0  0
    1.6132    4.4046    0.4476 C   0  0  0  0  0  0  0  0  0  0  0  0
    1.4734    4.3512   -0.9527 C   0  0  0  0  0  0  0  0  0  0  0  0
    1.7203    5.4650   -1.7882 C   0  0  0  0  0  0  0  0  0  0  0  0
    1.1790    3.2835    1.2496 N   0  0  0  0  0  0  0  0  0  0  0  0
    0.7960    3.5524    2.6221 C   0  0  0  0  0  0  0  0  0  0  0  0
    1.2392    1.9245    0.7029 C   0  0  0  0  0  0  0  0  0  0  0  0
    1.5285    9.0739   -1.7621 C   0  0  0  0  0  0  0  0  0  0  0  0
    2.1059   10.3754   -1.9819 C   0  0  0  0  0  0  0  0  0  0  0  0
    1.4183   11.5664   -1.7191 C   0  0  0  0  0  0  0  0  0  0  0  0
    0.1181   11.5095   -1.2092 C   0  0  0  0  0  0  0  0  0  0  0  0
   -0.4667   10.2444   -0.9862 C   0  0  0  0  0  0  0  0  0  0  0  0
    0.2425    9.0308   -1.2636 C   0  0  0  0  0  0  0  0  0  0  0  0
   -0.5826   12.6364   -1.0333 N   0  0  0  0  0  0  0  0  0  0  0  0
    0.0575   13.9509   -1.2865 C   0  0  0  0  0  0  0  0  0  0  0  0
   -1.9856   12.6087   -0.6818 C   0  0  0  0  0  0  0  0  0  0  0  0
 26 25  1  0  0  0
 25 27  1  0  0  0
 25 22  1  0  0  0
 21 22  2  0  0  0
 21 20  1  0  0  0
 22 23  1  0  0  0
 20 19  2  0  0  0
 23 24  2  0  0  0
 19 24  1  0  0  0
 19  1  1  0  0  0
 11 12  2  0  0  0
 11 10  1  0  0  0
  1 10  1  0  0  0
  1  6  1  0  0  0
 12 13  1  0  0  0
 10 15  2  0  0  0
  5  6  2  0  0  0
  5  4  1  0  0  0
 18 16  1  0  0  0
 13 16  1  0  0  0
 13 14  2  0  0  0
 16 17  1  0  0  0
  6  7  1  0  0  0
 15 14  1  0  0  0
  4  3  2  0  0  0
  7  8  2  0  0  0
  3  8  1  0  0  0
  3  2  1  0  0  0
  2  9  1  0  0  0
M  END
> <minimizedAffinity>
-11.56245

$$$$
4K3H_1OM_A_201


 27 29  0  0  0  0  0  0  0  0999 V2000
    2.1677    7.8287   -2.0063 C   0  0  0  0  0  0  0  0  0  0  0  0
    5.4655    7.5261   -6.7584 O   0  0  0  0  0  0  0  0  0  0  0  0
    4.6592    7.6277   -5.5906 C   0  0  0  0  0  0  0  0  0  0  0  0
    3.3891    8.2685   -5.6121 C   0  0  0  0  0  0  0  0  0  0  0  0
    2.5680    8.3266   -4.4298 C   0  0  0  0  0  0  0  0  0  0  0  0
    2.9910    7.7471   -3.2351 C   0  0  0  0  0  0  0  0  0  0  0  0
    4.2843    7.1122   -3.2071 C   0  0  0  0  0  0  0  0  0  0  0  0
    5.0914    7.0512   -4.3845 C   0  0  0  0  0  0  0  0  0  0  0  0
    5.1763    7.9110   -7.5623 H   0  0  0  0  0  0  0  0  0  0  0  0
    1.5610    9.0729   -1.6568 C   0  0  0  0  0  0  0  0  0  0  0  0
    2.1947   10.3238   -1.8725 C   0  0  0  0  0  0  0  0  0  0  0  0
    1.5261   11.5498   -1.6398 C   0  0  0  0  0  0  0  0  0  0  0  0
    0.1653   11.5661   -1.1424 C   0  0  0  0  0  0  0  0  0  0  0  0
   -0.4542   10.3167   -0.9463 C   0  0  0  0  0  0  0  0  0  0  0  0
    0.2079    9.0900   -1.1837 C   0  0  0  0  0  0  0  0  0  0  0  0
   -0.6223   12.7740   -1.0468 N   0  0  0  0  0  0  0  0  0  0  0  0
   -2.0255   12.6318   -0.7102 C   0  0  0  0  0  0  0  0  0  0  0  0
   -0.0242   14.0678   -1.3902 C   0  0  0  0  0  0  0  0  0  0  0  0
    1.9773    6.6748   -1.1672 C   0  0  0  0  0  0  0  0  0  0  0  0
    1.5981    5.3949   -1.7092 C   0  0  0  0  0  0  0  0  0  0  0  0
    1.4419    4.2503   -0.9180 C   0  0  0  0  0  0  0  0  0  0  0  0
    1.6467    4.3373    0.4619 C   0  0  0  0  0  0  0  0  0  0  0  0
    2.0187    5.5819    1.0138 C   0  0  0  0  0  0  0  0  0  0  0  0
    2.1820    6.7466    0.1955 C   0  0  0  0  0  0  0  0  0  0  0  0
    1.5847    3.2352    1.2193 N   0  0  0  0  0  0  0  0  0  0  0  0
    1.6197    1.8969    0.5796 C   0  0  0  0  0  0  0  0  0  0  0  0
    1.5700    3.3091    2.6639 C   0  0  0  0  0  0  0  0  0  0  0  0
 26 25  1  0  0  0
 25 27  1  0  0  0
 25 22  1  0  0  0
 21 22  2  0  0  0
 21 20  1  0  0  0
 22 23  1  0  0  0
 20 19  2  0  0  0
 23 24  2  0  0  0
 19 24  1  0  0  0
 19  1  1  0  0  0
 11 12  2  0  0  0
 11 10  1  0  0  0
  1 10  1  0  0  0
  1  6  1  0  0  0
 12 13  1  0  0  0
 10 15  2  0  0  0
  5  6  2  0  0  0
  5  4  1  0  0  0
 18 16  1  0  0  0
 13 16  1  0  0  0
 13 14  2  0  0  0
 16 17  1  0  0  0
  6  7  1  0  0  0
 15 14  1  0  0  0
  4  3  2  0  0  0
  7  8  2  0  0  0
  3  8  1  0  0  0
  3  2  1  0  0  0
  2  9  1  0  0  0
M  END
> <minimizedAffinity>
-11.37013

$$$$
4K3H_1OM_A_201


 27 29  0  0  0  0  0  0  0  0999 V2000
    2.0535    7.8739   -2.0228 C   0  0  0  0  0  0  0  0  0  0  0  0
   -0.5144   12.9549   -0.9557 O   0  0  0  0  0  0  0  0  0  0  0  0
    0.1150   11.7009   -1.1910 C   0  0  0  0  0  0  0  0  0  0  0  0
   -0.5828   10.4717   -1.0286 C   0  0  0  0  0  0  0  0  0  0  0  0
    0.0580    9.2126   -1.3105 C   0  0  0  0  0  0  0  0  0  0  0  0
    1.3761    9.1649   -1.7603 C   0  0  0  0  0  0  0  0  0  0  0  0
    2.0897   10.4079   -1.9094 C   0  0  0  0  0  0  0  0  0  0  0  0
    1.4470   11.6542   -1.6353 C   0  0  0  0  0  0  0  0  0  0  0  0
   -1.4028   12.9849   -0.6594 H   0  0  0  0  0  0  0  0  0  0  0  0
    1.8426    6.7828   -1.1267 C   0  0  0  0  0  0  0  0  0  0  0  0
    1.4917    5.4816   -1.5701 C   0  0  0  0  0  0  0  0  0  0  0  0
    1.4141    4.3844   -0.6789 C   0  0  0  0  0  0  0  0  0  0  0  0
    1.6675    4.5632    0.7365 C   0  0  0  0  0  0  0  0  0  0  0  0
    2.0276    5.8576    1.1586 C   0  0  0  0  0  0  0  0  0  0  0  0
    2.1127    6.9548    0.2706 C   0  0  0  0  0  0  0  0  0  0  0  0
    1.7688    3.4585    1.6627 N   0  0  0  0  0  0  0  0  0  0  0  0
    2.2019    2.1800    1.1330 C   0  0  0  0  0  0  0  0  0  0  0  0
    1.3383    3.6270    3.0540 C   0  0  0  0  0  0  0  0  0  0  0  0
    2.9172    7.7118   -3.1629 C   0  0  0  0  0  0  0  0  0  0  0  0
    2.6352    8.3444   -4.4262 C   0  0  0  0  0  0  0  0  0  0  0  0
    3.4784    8.2307   -5.5383 C   0  0  0  0  0  0  0  0  0  0  0  0
    4.6429    7.4638   -5.4405 C   0  0  0  0  0  0  0  0  0  0  0  0
    4.9382    6.8353   -4.2118 C   0  0  0  0  0  0  0  0  0  0  0  0
    4.0724    6.9620   -3.0773 C   0  0  0  0  0  0  0  0  0  0  0  0
    5.5012    7.4150   -6.4666 N   0  0  0  0  0  0  0  0  0  0  0  0
    5.0680    7.8625   -7.8133 C   0  0  0  0  0  0  0  0  0  0  0  0
    6.8791    7.0147   -6.2829 C   0  0  0  0  0  0  0  0  0  0  0  0
 26 25  1  0  0  0
 25 27  1  0  0  0
 25 22  1  0  0  0
 21 22  2  0  0  0
 21 20  1  0  0  0
 22 23  1  0  0  0
 20 19  2  0  0  0
 23 24  2  0  0  0
 19 24  1  0  0  0
 19  1  1  0  0  0
 11 12  2  0  0  0
 11 10  1  0  0  0
  1 10  1  0  0  0
  1  6  1  0  0  0
 12 13  1  0  0  0
 10 15  2  0  0  0
  5  6  2  0  0  0
  5  4  1  0  0  0
 18 16  1  0  0  0
 13 16  1  0  0  0
 13 14  2  0  0  0
 16 17  1  0  0  0
  6  7  1  0  0  0
 15 14  1  0  0  0
  4  3  2  0  0  0
  7  8  2  0  0  0
  3  8  1  0  0  0
  3  2  1  0  0  0
  2  9  1  0  0  0
M  END
> <minimizedAffinity>
-11.33473

$$$$
4K3H_1OM_A_201


 27 29  0  0  0  0  0  0  0  0999 V2000
    2.0532    7.8368   -2.0180 C   0  0  0  0  0  0  0  0  0  0  0  0
   -0.4013   12.9769   -0.9677 O   0  0  0  0  0  0  0  0  0  0  0  0
    0.2013   11.7090   -1.1987 C   0  0  0  0  0  0  0  0  0  0  0  0
   -0.5054   10.4939   -0.9788 C   0  0  0  0  0  0  0  0  0  0  0  0
    0.1066    9.2196   -1.2566 C   0  0  0  0  0  0  0  0  0  0  0  0
    1.4043    9.1429   -1.7587 C   0  0  0  0  0  0  0  0  0  0  0  0
    2.1275   10.3719   -1.9664 C   0  0  0  0  0  0  0  0  0  0  0  0
    1.5130   11.6332   -1.6959 C   0  0  0  0  0  0  0  0  0  0  0  0
   -1.2763   13.0263   -0.6361 H   0  0  0  0  0  0  0  0  0  0  0  0
    2.8350    7.6711   -3.2010 C   0  0  0  0  0  0  0  0  0  0  0  0
    2.5133    8.3042   -4.4292 C   0  0  0  0  0  0  0  0  0  0  0  0
    3.3702    8.2320   -5.5538 C   0  0  0  0  0  0  0  0  0  0  0  0
    4.6058    7.4775   -5.4935 C   0  0  0  0  0  0  0  0  0  0  0  0
    4.9174    6.8663   -4.2636 C   0  0  0  0  0  0  0  0  0  0  0  0
    4.0673    6.9415   -3.1361 C   0  0  0  0  0  0  0  0  0  0  0  0
    5.5964    7.5061   -6.5454 N   0  0  0  0  0  0  0  0  0  0  0  0
    5.1635    7.9406   -7.8593 C   0  0  0  0  0  0  0  0  0  0  0  0
    6.9505    7.0051   -6.2905 C   0  0  0  0  0  0  0  0  0  0  0  0
    1.9019    6.7413   -1.0965 C   0  0  0  0  0  0  0  0  0  0  0  0
    1.5102    5.4265   -1.5364 C   0  0  0  0  0  0  0  0  0  0  0  0
    1.3912    4.3373   -0.6646 C   0  0  0  0  0  0  0  0  0  0  0  0
    1.6477    4.5178    0.6975 C   0  0  0  0  0  0  0  0  0  0  0  0
    2.0328    5.7981    1.1498 C   0  0  0  0  0  0  0  0  0  0  0  0
    2.1577    6.9056    0.2495 C   0  0  0  0  0  0  0  0  0  0  0  0
    1.6212    3.4691    1.5291 N   0  0  0  0  0  0  0  0  0  0  0  0
    2.6497    3.3430    2.5911 C   0  0  0  0  0  0  0  0  0  0  0  0
    0.5591    2.4884    1.4775 C   0  0  0  0  0  0  0  0  0  0  0  0
 26 25  1  0  0  0
 25 27  1  0  0  0
 25 22  1  0  0  0
 21 22  2  0  0  0
 21 20  1  0  0  0
 22 23  1  0  0  0
 20 19  2  0  0  0
 23 24  2  0  0  0
 19 24  1  0  0  0
 19  1  1  0  0  0
 11 12  2  0  0  0
 11 10  1  0  0  0
  1 10  1  0  0  0
  1  6  1  0  0  0
 12 13  1  0  0  0
 10 15  2  0  0  0
  5  6  2  0  0  0
  5  4  1  0  0  0
 18 16  1  0  0  0
 13 16  1  0  0  0
 13 14  2  0  0  0
 16 17  1  0  0  0
  6  7  1  0  0  0
 15 14  1  0  0  0
  4  3  2  0  0  0
  7  8  2  0  0  0
  3  8  1  0  0  0
  3  2  1  0  0  0
  2  9  1  0  0  0
M  END
> <minimizedAffinity>
-11.17506

$$$$
4K3H_1OM_A_201


 27 29  0  0  0  0  0  0  0  0999 V2000
    2.3137    7.4006   -1.8917 C   0  0  0  0  0  0  0  0  0  0  0  0
    4.8550    6.6268   -7.0387 O   0  0  0  0  0  0  0  0  0  0  0  0
    4.2214    6.7910   -5.7755 C   0  0  0  0  0  0  0  0  0  0  0  0
    4.6696    6.0954   -4.6181 C   0  0  0  0  0  0  0  0  0  0  0  0
    4.0421    6.3045   -3.3382 C   0  0  0  0  0  0  0  0  0  0  0  0
    2.9856    7.2021   -3.1969 C   0  0  0  0  0  0  0  0  0  0  0  0
    2.5195    7.8951   -4.3713 C   0  0  0  0  0  0  0  0  0  0  0  0
    3.1503    7.6893   -5.6367 C   0  0  0  0  0  0  0  0  0  0  0  0
    5.5694    6.0274   -7.1302 H   0  0  0  0  0  0  0  0  0  0  0  0
    2.1097    6.2761   -1.0362 C   0  0  0  0  0  0  0  0  0  0  0  0
    2.3483    6.3212    0.3617 C   0  0  0  0  0  0  0  0  0  0  0  0
    2.0176    5.2382    1.2112 C   0  0  0  0  0  0  0  0  0  0  0  0
    1.4423    4.0236    0.6696 C   0  0  0  0  0  0  0  0  0  0  0  0
    1.1991    3.9997   -0.7174 C   0  0  0  0  0  0  0  0  0  0  0  0
    1.5219    5.0818   -1.5684 C   0  0  0  0  0  0  0  0  0  0  0  0
    0.9308    2.9575    1.5005 N   0  0  0  0  0  0  0  0  0  0  0  0
    1.8816    1.9803    1.9941 C   0  0  0  0  0  0  0  0  0  0  0  0
   -0.5124    2.8330    1.7268 C   0  0  0  0  0  0  0  0  0  0  0  0
    1.8663    8.7062   -1.4826 C   0  0  0  0  0  0  0  0  0  0  0  0
    2.2248    9.8957   -2.2122 C   0  0  0  0  0  0  0  0  0  0  0  0
    1.7730   11.1719   -1.8548 C   0  0  0  0  0  0  0  0  0  0  0  0
    0.9470   11.3188   -0.7367 C   0  0  0  0  0  0  0  0  0  0  0  0
    0.5837   10.1663   -0.0076 C   0  0  0  0  0  0  0  0  0  0  0  0
    1.0461    8.8636   -0.3842 C   0  0  0  0  0  0  0  0  0  0  0  0
    0.4383   12.5191   -0.4325 N   0  0  0  0  0  0  0  0  0  0  0  0
   -0.0103   13.4271   -1.5169 C   0  0  0  0  0  0  0  0  0  0  0  0
    0.2317   12.9283    0.9395 C   0  0  0  0  0  0  0  0  0  0  0  0
 26 25  1  0  0  0
 25 27  1  0  0  0
 25 22  1  0  0  0
 21 22  2  0  0  0
 21 20  1  0  0  0
 22 23  1  0  0  0
 20 19  2  0  0  0
 23 24  2  0  0  0
 19 24  1  0  0  0
 19  1  1  0  0  0
 11 12  2  0  0  0
 11 10  1  0  0  0
  1 10  1  0  0  0
  1  6  1  0  0  0
 12 13  1  0  0  0
 10 15  2  0  0  0
  5  6  2  0  0  0
  5  4  1  0  0  0
 18 16  1  0  0  0
 13 16  1  0  0  0
 13 14  2  0  0  0
 16 17  1  0  0  0
  6  7  1  0  0  0
 15 14  1  0  0  0
  4  3  2  0  0  0
  7  8  2  0  0  0
  3  8  1  0  0  0
  3  2  1  0  0  0
  2  9  1  0  0  0
M  END
> <minimizedAffinity>
-8.88834

$$$$
