1B8O_IMH_A_600


 25 27  0  0  0  0  0  0  0  0999 V2000
   20.1438   88.4747   75.6607 C   0  0  0  0  0  0  0  0  0  0  0  0
   19.9863   89.6156   74.7529 N   0  0  0  0  0  0  0  0  0  0  0  0
   20.0346   87.2418   74.7243 C   0  0  0  0  0  0  0  0  0  0  0  0
   18.6819   86.7128   74.6066 O   0  0  0  0  0  0  0  0  0  0  0  0
   20.5028   87.7658   73.3077 C   0  0  0  0  0  0  0  0  0  0  0  0
   19.6370   87.3410   72.2317 O   0  0  0  0  0  0  0  0  0  0  0  0
   20.4706   89.3039   73.4148 C   0  0  0  0  0  0  0  0  0  0  0  0
   20.5144   90.4071   75.1205 H   0  0  0  0  0  0  0  0  0  0  0  0
   18.0956   87.4000   74.2530 H   0  0  0  0  0  0  0  0  0  0  0  0
   18.7387   87.6707   72.3902 H   0  0  0  0  0  0  0  0  0  0  0  0
   21.9176   90.0272   73.2090 C   0  0  0  0  0  0  0  0  0  0  0  0
   22.1880   91.3203   73.4665 C   0  0  0  0  0  0  0  0  0  0  0  0
   23.5684   91.5915   73.1751 N   0  0  0  0  0  0  0  0  0  0  0  0
   24.0736   90.3518   72.7417 C   0  0  0  0  0  0  0  0  0  0  0  0
   25.4551   90.0780   72.3101 C   0  0  0  0  0  0  0  0  0  0  0  0
   26.4266   90.8460   72.3157 O   0  0  0  0  0  0  0  0  0  0  0  0
   25.5572   88.7257   71.9225 N   0  0  0  0  0  0  0  0  0  0  0  0
   24.5093   87.7701   71.9324 C   0  0  0  0  0  0  0  0  0  0  0  0
   23.2971   88.1122   72.3402 N   0  0  0  0  0  0  0  0  0  0  0  0
   23.1225   89.4008   72.7305 C   0  0  0  0  0  0  0  0  0  0  0  0
   24.0493   92.4464   73.2591 H   0  0  0  0  0  0  0  0  0  0  0  0
   26.3170   91.7382   72.5802 H   0  0  0  0  0  0  0  0  0  0  0  0
   21.7811   90.1294   76.7327 O   0  0  0  0  0  0  0  0  0  0  0  0
   21.5018   88.7653   76.3750 C   0  0  0  0  0  0  0  0  0  0  0  0
   22.6473   90.1790   77.1663 H   0  0  0  0  0  0  0  0  0  0  0  0
 23 24  1  0  0  0
 24  1  1  0  0  0
  1  2  1  0  0  0
  1  3  1  0  0  0
  2  7  1  0  0  0
  3  4  1  0  0  0
  3  5  1  0  0  0
  5  6  1  0  0  0
  5  7  1  0  0  0
  7 11  1  0  0  0
 11 12  2  0  0  0
 11 20  1  0  0  0
 12 13  1  0  0  0
 13 14  1  0  0  0
 14 15  1  0  0  0
 14 20  2  0  0  0
 15 16  1  0  0  0
 15 17  2  0  0  0
 17 18  1  0  0  0
 18 19  2  0  0  0
 19 20  1  0  0  0
 23 25  1  0  0  0
  2  8  1  0  0  0
  4  9  1  0  0  0
  6 10  1  0  0  0
 13 21  1  0  0  0
 16 22  1  0  0  0
M  END
> <minimizedAffinity>
-9.73840

$$$$
1B8O_IMH_A_600


 25 27  0  0  0  0  0  0  0  0999 V2000
   19.4162   87.5452   73.1053 C   0  0  0  0  0  0  0  0  0  0  0  0
   20.6973   87.3024   73.7765 N   0  0  0  0  0  0  0  0  0  0  0  0
   18.5923   88.3323   74.1590 C   0  0  0  0  0  0  0  0  0  0  0  0
   17.7651   87.4852   75.0088 O   0  0  0  0  0  0  0  0  0  0  0  0
   19.6717   89.0582   75.0583 C   0  0  0  0  0  0  0  0  0  0  0  0
   19.3997   88.9452   76.4728 O   0  0  0  0  0  0  0  0  0  0  0  0
   21.0057   88.3553   74.7349 C   0  0  0  0  0  0  0  0  0  0  0  0
   21.4371   87.2653   73.0753 H   0  0  0  0  0  0  0  0  0  0  0  0
   18.3297   86.8592   75.4887 H   0  0  0  0  0  0  0  0  0  0  0  0
   19.3820   88.0087   76.7249 H   0  0  0  0  0  0  0  0  0  0  0  0
   22.1426   89.3270   74.0848 C   0  0  0  0  0  0  0  0  0  0  0  0
   22.2442   90.6539   74.2865 C   0  0  0  0  0  0  0  0  0  0  0  0
   23.3729   91.1669   73.5607 N   0  0  0  0  0  0  0  0  0  0  0  0
   23.9195   90.0307   72.9360 C   0  0  0  0  0  0  0  0  0  0  0  0
   25.1012   90.0048   72.0569 C   0  0  0  0  0  0  0  0  0  0  0  0
   25.8615   90.9383   71.7667 O   0  0  0  0  0  0  0  0  0  0  0  0
   25.3110   88.6850   71.6059 N   0  0  0  0  0  0  0  0  0  0  0  0
   24.5193   87.5536   71.9291 C   0  0  0  0  0  0  0  0  0  0  0  0
   23.4738   87.6771   72.7317 N   0  0  0  0  0  0  0  0  0  0  0  0
   23.2094   88.9210   73.2071 C   0  0  0  0  0  0  0  0  0  0  0  0
   23.6903   92.0975   73.5118 H   0  0  0  0  0  0  0  0  0  0  0  0
   25.6869   91.8015   72.0867 H   0  0  0  0  0  0  0  0  0  0  0  0
   19.0128   88.0303   70.6214 O   0  0  0  0  0  0  0  0  0  0  0  0
   19.8315   88.2603   71.7806 C   0  0  0  0  0  0  0  0  0  0  0  0
   19.3717   88.5257   69.8686 H   0  0  0  0  0  0  0  0  0  0  0  0
 23 24  1  0  0  0
 24  1  1  0  0  0
  1  2  1  0  0  0
  1  3  1  0  0  0
  2  7  1  0  0  0
  3  4  1  0  0  0
  3  5  1  0  0  0
  5  6  1  0  0  0
  5  7  1  0  0  0
  7 11  1  0  0  0
 11 12  2  0  0  0
 11 20  1  0  0  0
 12 13  1  0  0  0
 13 14  1  0  0  0
 14 15  1  0  0  0
 14 20  2  0  0  0
 15 16  1  0  0  0
 15 17  2  0  0  0
 17 18  1  0  0  0
 18 19  2  0  0  0
 19 20  1  0  0  0
 23 25  1  0  0  0
  2  8  1  0  0  0
  4  9  1  0  0  0
  6 10  1  0  0  0
 13 21  1  0  0  0
 16 22  1  0  0  0
M  END
> <minimizedAffinity>
-9.10735

$$$$
1B8O_IMH_A_600


 25 27  0  0  0  0  0  0  0  0999 V2000
   19.8495   88.9365   75.3685 C   0  0  0  0  0  0  0  0  0  0  0  0
   20.0734   89.4935   74.0305 N   0  0  0  0  0  0  0  0  0  0  0  0
   19.2557   87.5305   75.0869 C   0  0  0  0  0  0  0  0  0  0  0  0
   17.7992   87.5068   75.0453 O   0  0  0  0  0  0  0  0  0  0  0  0
   19.8135   87.1326   73.6617 C   0  0  0  0  0  0  0  0  0  0  0  0
   18.8021   86.5778   72.7918 O   0  0  0  0  0  0  0  0  0  0  0  0
   20.3469   88.4464   73.0553 C   0  0  0  0  0  0  0  0  0  0  0  0
   20.8697   90.1300   74.0655 H   0  0  0  0  0  0  0  0  0  0  0  0
   17.4860   88.1008   74.3453 H   0  0  0  0  0  0  0  0  0  0  0  0
   18.0933   87.2277   72.6643 H   0  0  0  0  0  0  0  0  0  0  0  0
   21.9460   88.4444   72.7360 C   0  0  0  0  0  0  0  0  0  0  0  0
   22.6671   87.3701   72.3651 C   0  0  0  0  0  0  0  0  0  0  0  0
   24.0361   87.7551   72.1618 N   0  0  0  0  0  0  0  0  0  0  0  0
   24.0441   89.1359   72.4327 C   0  0  0  0  0  0  0  0  0  0  0  0
   25.2157   90.0270   72.3763 C   0  0  0  0  0  0  0  0  0  0  0  0
   26.3696   89.7546   72.0187 O   0  0  0  0  0  0  0  0  0  0  0  0
   24.8214   91.3302   72.7444 N   0  0  0  0  0  0  0  0  0  0  0  0
   23.5150   91.7357   73.1188 C   0  0  0  0  0  0  0  0  0  0  0  0
   22.5232   90.8590   73.1380 N   0  0  0  0  0  0  0  0  0  0  0  0
   22.8275   89.5814   72.7938 C   0  0  0  0  0  0  0  0  0  0  0  0
   24.7931   87.1851   71.8949 H   0  0  0  0  0  0  0  0  0  0  0  0
   26.5916   88.8756   71.7819 H   0  0  0  0  0  0  0  0  0  0  0  0
   21.7992   90.3615   76.2265 O   0  0  0  0  0  0  0  0  0  0  0  0
   21.2530   89.0441   76.0449 C   0  0  0  0  0  0  0  0  0  0  0  0
   22.6676   90.2955   76.6535 H   0  0  0  0  0  0  0  0  0  0  0  0
 23 24  1  0  0  0
 24  1  1  0  0  0
  1  2  1  0  0  0
  1  3  1  0  0  0
  2  7  1  0  0  0
  3  4  1  0  0  0
  3  5  1  0  0  0
  5  6  1  0  0  0
  5  7  1  0  0  0
  7 11  1  0  0  0
 11 12  2  0  0  0
 11 20  1  0  0  0
 12 13  1  0  0  0
 13 14  1  0  0  0
 14 15  1  0  0  0
 14 20  2  0  0  0
 15 16  1  0  0  0
 15 17  2  0  0  0
 17 18  1  0  0  0
 18 19  2  0  0  0
 19 20  1  0  0  0
 23 25  1  0  0  0
  2  8  1  0  0  0
  4  9  1  0  0  0
  6 10  1  0  0  0
 13 21  1  0  0  0
 16 22  1  0  0  0
M  END
> <minimizedAffinity>
-8.69479

$$$$
1B8O_IMH_A_600


 25 27  0  0  0  0  0  0  0  0999 V2000
   24.0707   90.4456   73.0786 C   0  0  0  0  0  0  0  0  0  0  0  0
   23.5108   89.4245   73.9699 N   0  0  0  0  0  0  0  0  0  0  0  0
   24.6818   89.6219   71.9137 C   0  0  0  0  0  0  0  0  0  0  0  0
   26.0889   89.2933   72.1029 O   0  0  0  0  0  0  0  0  0  0  0  0
   23.8443   88.2809   71.8822 C   0  0  0  0  0  0  0  0  0  0  0  0
   24.6682   87.1010   71.7531 O   0  0  0  0  0  0  0  0  0  0  0  0
   23.0970   88.2394   73.2306 C   0  0  0  0  0  0  0  0  0  0  0  0
   22.7009   89.8137   74.4524 H   0  0  0  0  0  0  0  0  0  0  0  0
   26.1929   88.7719   72.9142 H   0  0  0  0  0  0  0  0  0  0  0  0
   25.2825   87.0520   72.5022 H   0  0  0  0  0  0  0  0  0  0  0  0
   21.4713   88.2525   73.1042 C   0  0  0  0  0  0  0  0  0  0  0  0
   20.7780   88.3544   71.9549 C   0  0  0  0  0  0  0  0  0  0  0  0
   19.3698   88.3201   72.2367 N   0  0  0  0  0  0  0  0  0  0  0  0
   19.3069   88.1783   73.6353 C   0  0  0  0  0  0  0  0  0  0  0  0
   18.0807   88.0976   74.4475 C   0  0  0  0  0  0  0  0  0  0  0  0
   16.9049   88.0657   74.0598 O   0  0  0  0  0  0  0  0  0  0  0  0
   18.4357   87.9909   75.8083 N   0  0  0  0  0  0  0  0  0  0  0  0
   19.7540   87.9705   76.3310 C   0  0  0  0  0  0  0  0  0  0  0  0
   20.7961   88.0473   75.5181 N   0  0  0  0  0  0  0  0  0  0  0  0
   20.5316   88.1515   74.1905 C   0  0  0  0  0  0  0  0  0  0  0  0
   18.6221   88.3814   71.5992 H   0  0  0  0  0  0  0  0  0  0  0  0
   16.7107   88.1399   73.1462 H   0  0  0  0  0  0  0  0  0  0  0  0
   21.8418   91.4810   73.8050 O   0  0  0  0  0  0  0  0  0  0  0  0
   22.8533   91.3796   72.7884 C   0  0  0  0  0  0  0  0  0  0  0  0
   21.1444   92.0863   73.5079 H   0  0  0  0  0  0  0  0  0  0  0  0
 23 24  1  0  0  0
 24  1  1  0  0  0
  1  2  1  0  0  0
  1  3  1  0  0  0
  2  7  1  0  0  0
  3  4  1  0  0  0
  3  5  1  0  0  0
  5  6  1  0  0  0
  5  7  1  0  0  0
  7 11  1  0  0  0
 11 12  2  0  0  0
 11 20  1  0  0  0
 12 13  1  0  0  0
 13 14  1  0  0  0
 14 15  1  0  0  0
 14 20  2  0  0  0
 15 16  1  0  0  0
 15 17  2  0  0  0
 17 18  1  0  0  0
 18 19  2  0  0  0
 19 20  1  0  0  0
 23 25  1  0  0  0
  2  8  1  0  0  0
  4  9  1  0  0  0
  6 10  1  0  0  0
 13 21  1  0  0  0
 16 22  1  0  0  0
M  END
> <minimizedAffinity>
-7.95658

$$$$
1B8O_IMH_A_600


 25 27  0  0  0  0  0  0  0  0999 V2000
   23.1737   90.3002   73.6872 C   0  0  0  0  0  0  0  0  0  0  0  0
   22.8191   89.2276   74.6223 N   0  0  0  0  0  0  0  0  0  0  0  0
   23.4324   89.5533   72.3516 C   0  0  0  0  0  0  0  0  0  0  0  0
   24.8264   89.1801   72.1489 O   0  0  0  0  0  0  0  0  0  0  0  0
   22.5606   88.2374   72.4474 C   0  0  0  0  0  0  0  0  0  0  0  0
   23.2751   87.0525   72.0313 O   0  0  0  0  0  0  0  0  0  0  0  0
   22.1819   88.1111   73.9370 C   0  0  0  0  0  0  0  0  0  0  0  0
   22.1761   89.5973   75.3225 H   0  0  0  0  0  0  0  0  0  0  0  0
   25.1130   88.5969   72.8690 H   0  0  0  0  0  0  0  0  0  0  0  0
   24.0580   86.9336   72.5915 H   0  0  0  0  0  0  0  0  0  0  0  0
   20.5798   88.1698   74.2356 C   0  0  0  0  0  0  0  0  0  0  0  0
   20.0139   88.2160   75.4559 C   0  0  0  0  0  0  0  0  0  0  0  0
   18.5845   88.2705   75.3228 N   0  0  0  0  0  0  0  0  0  0  0  0
   18.3728   88.2643   73.9317 C   0  0  0  0  0  0  0  0  0  0  0  0
   17.0676   88.3018   73.2499 C   0  0  0  0  0  0  0  0  0  0  0  0
   15.9423   88.4169   73.7540 O   0  0  0  0  0  0  0  0  0  0  0  0
   17.2745   88.2499   71.8557 N   0  0  0  0  0  0  0  0  0  0  0  0
   18.5279   88.1672   71.1974 C   0  0  0  0  0  0  0  0  0  0  0  0
   19.6504   88.1403   71.8989 N   0  0  0  0  0  0  0  0  0  0  0  0
   19.5300   88.1879   73.2504 C   0  0  0  0  0  0  0  0  0  0  0  0
   17.9096   88.3043   76.0387 H   0  0  0  0  0  0  0  0  0  0  0  0
   15.8472   88.4477   74.6857 H   0  0  0  0  0  0  0  0  0  0  0  0
   21.8973   92.3479   72.8237 O   0  0  0  0  0  0  0  0  0  0  0  0
   21.9618   91.2803   73.7844 C   0  0  0  0  0  0  0  0  0  0  0  0
   21.1050   92.8830   72.9876 H   0  0  0  0  0  0  0  0  0  0  0  0
 23 24  1  0  0  0
 24  1  1  0  0  0
  1  2  1  0  0  0
  1  3  1  0  0  0
  2  7  1  0  0  0
  3  4  1  0  0  0
  3  5  1  0  0  0
  5  6  1  0  0  0
  5  7  1  0  0  0
  7 11  1  0  0  0
 11 12  2  0  0  0
 11 20  1  0  0  0
 12 13  1  0  0  0
 13 14  1  0  0  0
 14 15  1  0  0  0
 14 20  2  0  0  0
 15 16  1  0  0  0
 15 17  2  0  0  0
 17 18  1  0  0  0
 18 19  2  0  0  0
 19 20  1  0  0  0
 23 25  1  0  0  0
  2  8  1  0  0  0
  4  9  1  0  0  0
  6 10  1  0  0  0
 13 21  1  0  0  0
 16 22  1  0  0  0
M  END
> <minimizedAffinity>
-7.77289

$$$$
1B8O_IMH_A_600


 25 27  0  0  0  0  0  0  0  0999 V2000
   17.9658   88.7838   72.7640 C   0  0  0  0  0  0  0  0  0  0  0  0
   18.8809   89.5349   73.6296 N   0  0  0  0  0  0  0  0  0  0  0  0
   18.8936   87.7760   72.0346 C   0  0  0  0  0  0  0  0  0  0  0  0
   19.3957   88.2610   70.7553 O   0  0  0  0  0  0  0  0  0  0  0  0
   20.1158   87.5662   73.0159 C   0  0  0  0  0  0  0  0  0  0  0  0
   21.3952   87.6155   72.3465 O   0  0  0  0  0  0  0  0  0  0  0  0
   20.0228   88.7240   74.0304 C   0  0  0  0  0  0  0  0  0  0  0  0
   18.3770   89.8335   74.4647 H   0  0  0  0  0  0  0  0  0  0  0  0
   19.9033   89.0757   70.8951 H   0  0  0  0  0  0  0  0  0  0  0  0
   21.5022   88.4785   71.9166 H   0  0  0  0  0  0  0  0  0  0  0  0
   19.8036   88.2535   75.5763 C   0  0  0  0  0  0  0  0  0  0  0  0
   18.6310   88.2635   76.2369 C   0  0  0  0  0  0  0  0  0  0  0  0
   18.8256   87.7701   77.5721 N   0  0  0  0  0  0  0  0  0  0  0  0
   20.1981   87.4643   77.6241 C   0  0  0  0  0  0  0  0  0  0  0  0
   20.9259   86.9248   78.7856 C   0  0  0  0  0  0  0  0  0  0  0  0
   20.4691   86.5778   79.8831 O   0  0  0  0  0  0  0  0  0  0  0  0
   22.2887   86.7840   78.4504 N   0  0  0  0  0  0  0  0  0  0  0  0
   22.8829   87.1103   77.2047 C   0  0  0  0  0  0  0  0  0  0  0  0
   22.1433   87.5899   76.2170 N   0  0  0  0  0  0  0  0  0  0  0  0
   20.8186   87.7525   76.4662 C   0  0  0  0  0  0  0  0  0  0  0  0
   18.1543   87.6693   78.2852 H   0  0  0  0  0  0  0  0  0  0  0  0
   19.5570   86.6883   80.0670 H   0  0  0  0  0  0  0  0  0  0  0  0
   15.5247   88.6239   73.5276 O   0  0  0  0  0  0  0  0  0  0  0  0
   16.8910   88.2408   73.7583 C   0  0  0  0  0  0  0  0  0  0  0  0
   14.9582   88.2261   74.2071 H   0  0  0  0  0  0  0  0  0  0  0  0
 23 24  1  0  0  0
 24  1  1  0  0  0
  1  2  1  0  0  0
  1  3  1  0  0  0
  2  7  1  0  0  0
  3  4  1  0  0  0
  3  5  1  0  0  0
  5  6  1  0  0  0
  5  7  1  0  0  0
  7 11  1  0  0  0
 11 12  2  0  0  0
 11 20  1  0  0  0
 12 13  1  0  0  0
 13 14  1  0  0  0
 14 15  1  0  0  0
 14 20  2  0  0  0
 15 16  1  0  0  0
 15 17  2  0  0  0
 17 18  1  0  0  0
 18 19  2  0  0  0
 19 20  1  0  0  0
 23 25  1  0  0  0
  2  8  1  0  0  0
  4  9  1  0  0  0
  6 10  1  0  0  0
 13 21  1  0  0  0
 16 22  1  0  0  0
M  END
> <minimizedAffinity>
-7.36356

$$$$
1B8O_IMH_A_600


 25 27  0  0  0  0  0  0  0  0999 V2000
   24.1429   89.0749   71.7149 C   0  0  0  0  0  0  0  0  0  0  0  0
   22.9034   89.8582   71.7413 N   0  0  0  0  0  0  0  0  0  0  0  0
   25.1063   89.8801   72.6272 C   0  0  0  0  0  0  0  0  0  0  0  0
   25.9286   90.8434   71.9062 O   0  0  0  0  0  0  0  0  0  0  0  0
   24.1612   90.6618   73.6253 C   0  0  0  0  0  0  0  0  0  0  0  0
   24.5338   92.0480   73.7904 O   0  0  0  0  0  0  0  0  0  0  0  0
   22.7549   90.5801   72.9979 C   0  0  0  0  0  0  0  0  0  0  0  0
   22.1102   89.2275   71.6256 H   0  0  0  0  0  0  0  0  0  0  0  0
   25.3561   91.4813   71.4522 H   0  0  0  0  0  0  0  0  0  0  0  0
   24.4977   92.4971   72.9314 H   0  0  0  0  0  0  0  0  0  0  0  0
   21.6502   89.8025   73.9114 C   0  0  0  0  0  0  0  0  0  0  0  0
   21.5812   89.8412   75.2551 C   0  0  0  0  0  0  0  0  0  0  0  0
   20.4736   89.0440   75.7041 N   0  0  0  0  0  0  0  0  0  0  0  0
   19.9040   88.5539   74.5144 C   0  0  0  0  0  0  0  0  0  0  0  0
   18.7310   87.6688   74.4114 C   0  0  0  0  0  0  0  0  0  0  0  0
   17.9982   87.2581   75.3213 O   0  0  0  0  0  0  0  0  0  0  0  0
   18.4915   87.3778   73.0523 N   0  0  0  0  0  0  0  0  0  0  0  0
   19.2502   87.8455   71.9492 C   0  0  0  0  0  0  0  0  0  0  0  0
   20.2904   88.6411   72.1432 N   0  0  0  0  0  0  0  0  0  0  0  0
   20.5822   88.9663   73.4286 C   0  0  0  0  0  0  0  0  0  0  0  0
   20.1810   88.8789   76.6295 H   0  0  0  0  0  0  0  0  0  0  0  0
   18.1919   87.4738   76.2124 H   0  0  0  0  0  0  0  0  0  0  0  0
   24.3898   86.5256   71.6249 O   0  0  0  0  0  0  0  0  0  0  0  0
   23.6823   87.6532   72.1679 C   0  0  0  0  0  0  0  0  0  0  0  0
   24.0125   85.7056   71.9801 H   0  0  0  0  0  0  0  0  0  0  0  0
 23 24  1  0  0  0
 24  1  1  0  0  0
  1  2  1  0  0  0
  1  3  1  0  0  0
  2  7  1  0  0  0
  3  4  1  0  0  0
  3  5  1  0  0  0
  5  6  1  0  0  0
  5  7  1  0  0  0
  7 11  1  0  0  0
 11 12  2  0  0  0
 11 20  1  0  0  0
 12 13  1  0  0  0
 13 14  1  0  0  0
 14 15  1  0  0  0
 14 20  2  0  0  0
 15 16  1  0  0  0
 15 17  2  0  0  0
 17 18  1  0  0  0
 18 19  2  0  0  0
 19 20  1  0  0  0
 23 25  1  0  0  0
  2  8  1  0  0  0
  4  9  1  0  0  0
  6 10  1  0  0  0
 13 21  1  0  0  0
 16 22  1  0  0  0
M  END
> <minimizedAffinity>
-7.04993

$$$$
1B8O_IMH_A_600


 25 27  0  0  0  0  0  0  0  0999 V2000
   20.3013   88.5320   72.3460 C   0  0  0  0  0  0  0  0  0  0  0  0
   19.8573   89.4608   73.3905 N   0  0  0  0  0  0  0  0  0  0  0  0
   21.8495   88.6179   72.4114 C   0  0  0  0  0  0  0  0  0  0  0  0
   22.4209   89.6054   71.5047 O   0  0  0  0  0  0  0  0  0  0  0  0
   22.1695   89.0463   73.8997 C   0  0  0  0  0  0  0  0  0  0  0  0
   23.1576   90.0969   73.9871 O   0  0  0  0  0  0  0  0  0  0  0  0
   20.8299   89.5534   74.4711 C   0  0  0  0  0  0  0  0  0  0  0  0
   18.9697   89.1322   73.7707 H   0  0  0  0  0  0  0  0  0  0  0  0
   22.0710   90.4838   71.7212 H   0  0  0  0  0  0  0  0  0  0  0  0
   22.8390   90.8807   73.5126 H   0  0  0  0  0  0  0  0  0  0  0  0
   20.2701   88.6999   75.7429 C   0  0  0  0  0  0  0  0  0  0  0  0
   18.9790   88.6030   76.1110 C   0  0  0  0  0  0  0  0  0  0  0  0
   18.8698   87.7591   77.2685 N   0  0  0  0  0  0  0  0  0  0  0  0
   20.1961   87.3686   77.5301 C   0  0  0  0  0  0  0  0  0  0  0  0
   20.6455   86.4948   78.6275 C   0  0  0  0  0  0  0  0  0  0  0  0
   19.9546   85.8945   79.4617 O   0  0  0  0  0  0  0  0  0  0  0  0
   22.0490   86.3672   78.5694 N   0  0  0  0  0  0  0  0  0  0  0  0
   22.9071   86.9791   77.6205 C   0  0  0  0  0  0  0  0  0  0  0  0
   22.4073   87.7494   76.6669 N   0  0  0  0  0  0  0  0  0  0  0  0
   21.0602   87.9187   76.6585 C   0  0  0  0  0  0  0  0  0  0  0  0
   18.0558   87.5115   77.7637 H   0  0  0  0  0  0  0  0  0  0  0  0
   19.0243   86.0063   79.4671 H   0  0  0  0  0  0  0  0  0  0  0  0
   18.5238   86.7426   71.8916 O   0  0  0  0  0  0  0  0  0  0  0  0
   19.6003   87.1910   72.7323 C   0  0  0  0  0  0  0  0  0  0  0  0
   18.1736   85.9052   72.2337 H   0  0  0  0  0  0  0  0  0  0  0  0
 23 24  1  0  0  0
 24  1  1  0  0  0
  1  2  1  0  0  0
  1  3  1  0  0  0
  2  7  1  0  0  0
  3  4  1  0  0  0
  3  5  1  0  0  0
  5  6  1  0  0  0
  5  7  1  0  0  0
  7 11  1  0  0  0
 11 12  2  0  0  0
 11 20  1  0  0  0
 12 13  1  0  0  0
 13 14  1  0  0  0
 14 15  1  0  0  0
 14 20  2  0  0  0
 15 16  1  0  0  0
 15 17  2  0  0  0
 17 18  1  0  0  0
 18 19  2  0  0  0
 19 20  1  0  0  0
 23 25  1  0  0  0
  2  8  1  0  0  0
  4  9  1  0  0  0
  6 10  1  0  0  0
 13 21  1  0  0  0
 16 22  1  0  0  0
M  END
> <minimizedAffinity>
-6.91869

$$$$
