4D8Z_0J2_A_305


 24 25  0  0  0  0  0  0  0  0999 V2000
  -13.0015   24.0639    7.2339 N   0  0  0  0  0  0  0  0  0  0  0  0
  -13.8788   23.6457    6.2754 N   0  0  0  0  0  0  0  0  0  0  0  0
  -14.2436   27.9664    4.0330 O   0  0  0  0  0  0  0  0  0  0  0  0
  -16.7311   24.0614    2.4085 N   0  0  0  0  0  0  0  0  0  0  0  0
  -14.6056   26.6438    4.1533 C   0  0  0  0  0  0  0  0  0  0  0  0
  -14.0509   25.8138    5.1966 C   0  0  0  0  0  0  0  0  0  0  0  0
  -15.4995   26.0871    3.2305 N   0  0  0  0  0  0  0  0  0  0  0  0
  -14.4165   24.5027    5.2546 C   0  0  0  0  0  0  0  0  0  0  0  0
  -12.6023   25.3138    7.2638 C   0  0  0  0  0  0  0  0  0  0  0  0
  -13.1006   26.2736    6.2398 C   0  0  0  0  0  0  0  0  0  0  0  0
  -15.2845   23.9226    4.3694 N   0  0  0  0  0  0  0  0  0  0  0  0
  -12.7025   27.5886    6.3110 O   0  0  0  0  0  0  0  0  0  0  0  0
  -15.8466   24.6752    3.3328 C   0  0  0  0  0  0  0  0  0  0  0  0
  -14.1596   22.7021    6.2839 H   0  0  0  0  0  0  0  0  0  0  0  0
  -16.9509   23.1059    2.4976 H   0  0  0  0  0  0  0  0  0  0  0  0
  -17.1250   24.5911    1.6780 H   0  0  0  0  0  0  0  0  0  0  0  0
  -15.8901   26.6443    2.5190 H   0  0  0  0  0  0  0  0  0  0  0  0
  -10.4119   24.8924    8.2484 C   0  0  0  0  0  0  0  0  0  0  0  0
  -11.6020   25.7928    8.2691 C   0  0  0  0  0  0  0  0  0  0  0  0
  -12.1747   25.8202    9.6491 C   0  0  0  0  0  0  0  0  0  0  0  0
  -13.0445   27.0192    9.7929 C   0  0  0  0  0  0  0  0  0  0  0  0
  -12.6508   28.1469    9.3685 O   0  0  0  0  0  0  0  0  0  0  0  0
  -14.2359   26.8447   10.1518 O   0  0  0  0  0  0  0  0  0  0  0  0
  -11.7594   28.2628    9.1042 H   0  0  0  0  0  0  0  0  0  0  0  0
 23 21  2  0  0  0
 21 22  1  0  0  0
 21 20  1  0  0  0
 20 19  1  0  0  0
 19 18  1  0  0  0
 19  9  1  0  0  0
  1  9  2  0  0  0
  1  2  1  0  0  0
  9 10  1  0  0  0
  2  8  1  0  0  0
 10 12  2  0  0  0
 10  6  1  0  0  0
  8  6  2  0  0  0
  8 11  1  0  0  0
  6  5  1  0  0  0
 11 13  2  0  0  0
  5  3  2  0  0  0
  5  7  1  0  0  0
 13  7  1  0  0  0
 13  4  1  0  0  0
 22 24  1  0  0  0
  2 14  1  0  0  0
  4 15  1  0  0  0
  4 16  1  0  0  0
  7 17  1  0  0  0
M  END
> <minimizedAffinity>
-7.90263

$$$$
4D8Z_0J2_A_305


 24 25  0  0  0  0  0  0  0  0999 V2000
  -13.0235   23.9812    7.1882 N   0  0  0  0  0  0  0  0  0  0  0  0
  -13.9006   23.5766    6.2236 N   0  0  0  0  0  0  0  0  0  0  0  0
  -14.2732   27.9314    4.0493 O   0  0  0  0  0  0  0  0  0  0  0  0
  -16.7551   24.0484    2.3647 N   0  0  0  0  0  0  0  0  0  0  0  0
  -14.6330   26.6065    4.1490 C   0  0  0  0  0  0  0  0  0  0  0  0
  -14.0765   25.7611    5.1790 C   0  0  0  0  0  0  0  0  0  0  0  0
  -15.5264   26.0629    3.2179 N   0  0  0  0  0  0  0  0  0  0  0  0
  -14.4401   24.4487    5.2166 C   0  0  0  0  0  0  0  0  0  0  0  0
  -12.6264   25.2310    7.2375 C   0  0  0  0  0  0  0  0  0  0  0  0
  -13.1265   26.2060    6.2289 C   0  0  0  0  0  0  0  0  0  0  0  0
  -15.3075   23.8812    4.3227 N   0  0  0  0  0  0  0  0  0  0  0  0
  -12.7305   27.5203    6.3206 O   0  0  0  0  0  0  0  0  0  0  0  0
  -15.8712   24.6490    3.2982 C   0  0  0  0  0  0  0  0  0  0  0  0
  -14.1799   22.6326    6.2173 H   0  0  0  0  0  0  0  0  0  0  0  0
  -16.9733   23.0913    2.4389 H   0  0  0  0  0  0  0  0  0  0  0  0
  -17.1501   24.5888    1.6428 H   0  0  0  0  0  0  0  0  0  0  0  0
  -15.9181   26.6306    2.5154 H   0  0  0  0  0  0  0  0  0  0  0  0
  -10.6383   24.6063    8.5034 C   0  0  0  0  0  0  0  0  0  0  0  0
  -11.6264   25.6958    8.2498 C   0  0  0  0  0  0  0  0  0  0  0  0
  -12.2804   26.0771    9.5382 C   0  0  0  0  0  0  0  0  0  0  0  0
  -12.4760   24.8562   10.3664 C   0  0  0  0  0  0  0  0  0  0  0  0
  -13.3725   24.0144   10.0590 O   0  0  0  0  0  0  0  0  0  0  0  0
  -11.6109   24.5888   11.2375 O   0  0  0  0  0  0  0  0  0  0  0  0
  -14.0114   24.2272    9.4075 H   0  0  0  0  0  0  0  0  0  0  0  0
 23 21  2  0  0  0
 21 22  1  0  0  0
 21 20  1  0  0  0
 20 19  1  0  0  0
 19 18  1  0  0  0
 19  9  1  0  0  0
  1  9  2  0  0  0
  1  2  1  0  0  0
  9 10  1  0  0  0
  2  8  1  0  0  0
 10 12  2  0  0  0
 10  6  1  0  0  0
  8  6  2  0  0  0
  8 11  1  0  0  0
  6  5  1  0  0  0
 11 13  2  0  0  0
  5  3  2  0  0  0
  5  7  1  0  0  0
 13  7  1  0  0  0
 13  4  1  0  0  0
 22 24  1  0  0  0
  2 14  1  0  0  0
  4 15  1  0  0  0
  4 16  1  0  0  0
  7 17  1  0  0  0
M  END
> <minimizedAffinity>
-6.84159

$$$$
4D8Z_0J2_A_305


 24 25  0  0  0  0  0  0  0  0999 V2000
  -12.4048   26.6599    7.3566 N   0  0  0  0  0  0  0  0  0  0  0  0
  -12.7888   27.3962    6.2732 N   0  0  0  0  0  0  0  0  0  0  0  0
  -15.2315   23.7867    4.0744 O   0  0  0  0  0  0  0  0  0  0  0  0
  -14.9589   28.2485    2.0512 N   0  0  0  0  0  0  0  0  0  0  0  0
  -14.7671   25.0823    4.0932 C   0  0  0  0  0  0  0  0  0  0  0  0
  -13.9787   25.5729    5.1990 C   0  0  0  0  0  0  0  0  0  0  0  0
  -15.0919   25.9463    3.0402 N   0  0  0  0  0  0  0  0  0  0  0  0
  -13.5691   26.8722    5.1860 C   0  0  0  0  0  0  0  0  0  0  0  0
  -12.7432   25.3953    7.4492 C   0  0  0  0  0  0  0  0  0  0  0  0
  -13.5593   24.7677    6.3731 C   0  0  0  0  0  0  0  0  0  0  0  0
  -13.8691   27.7468    4.1767 N   0  0  0  0  0  0  0  0  0  0  0  0
  -13.8705   23.4310    6.4678 O   0  0  0  0  0  0  0  0  0  0  0  0
  -14.6370   27.3303    3.0840 C   0  0  0  0  0  0  0  0  0  0  0  0
  -12.5153   28.3412    6.2344 H   0  0  0  0  0  0  0  0  0  0  0  0
  -14.6404   29.1786    2.1025 H   0  0  0  0  0  0  0  0  0  0  0  0
  -15.5009   27.9554    1.2833 H   0  0  0  0  0  0  0  0  0  0  0  0
  -15.6227   25.6219    2.2772 H   0  0  0  0  0  0  0  0  0  0  0  0
  -12.4032   25.4390    9.8633 C   0  0  0  0  0  0  0  0  0  0  0  0
  -12.3827   24.5736    8.6474 C   0  0  0  0  0  0  0  0  0  0  0  0
  -11.0299   23.9545    8.5064 C   0  0  0  0  0  0  0  0  0  0  0  0
  -11.1775   22.4774    8.4018 C   0  0  0  0  0  0  0  0  0  0  0  0
  -11.4128   21.9382    7.2790 O   0  0  0  0  0  0  0  0  0  0  0  0
  -10.8645   21.7806    9.3995 O   0  0  0  0  0  0  0  0  0  0  0  0
  -11.6452   22.4701    6.5434 H   0  0  0  0  0  0  0  0  0  0  0  0
 23 21  2  0  0  0
 21 22  1  0  0  0
 21 20  1  0  0  0
 20 19  1  0  0  0
 19 18  1  0  0  0
 19  9  1  0  0  0
  1  9  2  0  0  0
  1  2  1  0  0  0
  9 10  1  0  0  0
  2  8  1  0  0  0
 10 12  2  0  0  0
 10  6  1  0  0  0
  8  6  2  0  0  0
  8 11  1  0  0  0
  6  5  1  0  0  0
 11 13  2  0  0  0
  5  3  2  0  0  0
  5  7  1  0  0  0
 13  7  1  0  0  0
 13  4  1  0  0  0
 22 24  1  0  0  0
  2 14  1  0  0  0
  4 15  1  0  0  0
  4 16  1  0  0  0
  7 17  1  0  0  0
M  END
> <minimizedAffinity>
-6.24913

$$$$
4D8Z_0J2_A_305


 24 25  0  0  0  0  0  0  0  0999 V2000
  -13.2782   27.3588    6.1408 N   0  0  0  0  0  0  0  0  0  0  0  0
  -12.7465   27.7090    7.3483 N   0  0  0  0  0  0  0  0  0  0  0  0
  -12.0693   23.1387    8.9244 O   0  0  0  0  0  0  0  0  0  0  0  0
  -10.8186   26.9803   11.7088 N   0  0  0  0  0  0  0  0  0  0  0  0
  -12.0044   24.4987    9.1269 C   0  0  0  0  0  0  0  0  0  0  0  0
  -12.4416   25.4232    8.1075 C   0  0  0  0  0  0  0  0  0  0  0  0
  -11.4761   24.9926   10.3259 N   0  0  0  0  0  0  0  0  0  0  0  0
  -12.3277   26.7602    8.3433 C   0  0  0  0  0  0  0  0  0  0  0  0
  -13.4369   26.0933    5.8312 C   0  0  0  0  0  0  0  0  0  0  0  0
  -13.0234   25.0383    6.7975 C   0  0  0  0  0  0  0  0  0  0  0  0
  -11.8142   27.2802    9.5006 N   0  0  0  0  0  0  0  0  0  0  0  0
  -13.2344   23.7183    6.4721 O   0  0  0  0  0  0  0  0  0  0  0  0
  -11.3667   26.4330   10.5199 C   0  0  0  0  0  0  0  0  0  0  0  0
  -12.6440   28.6673    7.5493 H   0  0  0  0  0  0  0  0  0  0  0  0
  -10.7548   27.9568   11.8174 H   0  0  0  0  0  0  0  0  0  0  0  0
  -10.5021   26.3837   12.4251 H   0  0  0  0  0  0  0  0  0  0  0  0
  -11.1813   24.3726   11.0315 H   0  0  0  0  0  0  0  0  0  0  0  0
  -14.3493   26.8873    3.7140 C   0  0  0  0  0  0  0  0  0  0  0  0
  -13.9686   25.6744    4.4960 C   0  0  0  0  0  0  0  0  0  0  0  0
  -15.1593   24.7815    4.6305 C   0  0  0  0  0  0  0  0  0  0  0  0
  -15.5806   24.3227    3.2790 C   0  0  0  0  0  0  0  0  0  0  0  0
  -14.8537   23.5166    2.6242 O   0  0  0  0  0  0  0  0  0  0  0  0
  -16.7492   24.5898    2.9025 O   0  0  0  0  0  0  0  0  0  0  0  0
  -13.9840   23.3266    2.9166 H   0  0  0  0  0  0  0  0  0  0  0  0
 23 21  2  0  0  0
 21 22  1  0  0  0
 21 20  1  0  0  0
 20 19  1  0  0  0
 19 18  1  0  0  0
 19  9  1  0  0  0
  1  9  2  0  0  0
  1  2  1  0  0  0
  9 10  1  0  0  0
  2  8  1  0  0  0
 10 12  2  0  0  0
 10  6  1  0  0  0
  8  6  2  0  0  0
  8 11  1  0  0  0
  6  5  1  0  0  0
 11 13  2  0  0  0
  5  3  2  0  0  0
  5  7  1  0  0  0
 13  7  1  0  0  0
 13  4  1  0  0  0
 22 24  1  0  0  0
  2 14  1  0  0  0
  4 15  1  0  0  0
  4 16  1  0  0  0
  7 17  1  0  0  0
M  END
> <minimizedAffinity>
-5.65839

$$$$
4D8Z_0J2_A_305


 24 25  0  0  0  0  0  0  0  0999 V2000
  -13.0500   28.5034   11.4925 N   0  0  0  0  0  0  0  0  0  0  0  0
  -13.0621   27.5245   12.4438 N   0  0  0  0  0  0  0  0  0  0  0  0
  -13.1129   23.7917    9.2982 O   0  0  0  0  0  0  0  0  0  0  0  0
  -13.1063   23.0107   14.1423 N   0  0  0  0  0  0  0  0  0  0  0  0
  -13.1319   24.2733   10.5876 C   0  0  0  0  0  0  0  0  0  0  0  0
  -13.1063   25.6929   10.8508 C   0  0  0  0  0  0  0  0  0  0  0  0
  -13.1430   23.3727   11.6597 N   0  0  0  0  0  0  0  0  0  0  0  0
  -13.0945   26.1191   12.1448 C   0  0  0  0  0  0  0  0  0  0  0  0
  -13.0720   28.1870   10.2190 C   0  0  0  0  0  0  0  0  0  0  0  0
  -13.0978   26.7543    9.8135 C   0  0  0  0  0  0  0  0  0  0  0  0
  -13.1017   25.2696   13.2180 N   0  0  0  0  0  0  0  0  0  0  0  0
  -13.1610   26.4426    8.4750 O   0  0  0  0  0  0  0  0  0  0  0  0
  -13.1176   23.8842   13.0242 C   0  0  0  0  0  0  0  0  0  0  0  0
  -13.0478   27.7970   13.3897 H   0  0  0  0  0  0  0  0  0  0  0  0
  -13.0891   23.3794   15.0550 H   0  0  0  0  0  0  0  0  0  0  0  0
  -13.1156   22.0358   14.0054 H   0  0  0  0  0  0  0  0  0  0  0  0
  -13.1677   22.4026   11.4933 H   0  0  0  0  0  0  0  0  0  0  0  0
  -12.0693   30.3141    9.5746 C   0  0  0  0  0  0  0  0  0  0  0  0
  -13.0076   29.2336    9.1507 C   0  0  0  0  0  0  0  0  0  0  0  0
  -14.3512   29.8277    8.8770 C   0  0  0  0  0  0  0  0  0  0  0  0
  -14.6678   29.6735    7.4311 C   0  0  0  0  0  0  0  0  0  0  0  0
  -14.2119   28.6857    6.7806 O   0  0  0  0  0  0  0  0  0  0  0  0
  -15.5480   30.4213    6.9364 O   0  0  0  0  0  0  0  0  0  0  0  0
  -13.5556   28.1363    7.1618 H   0  0  0  0  0  0  0  0  0  0  0  0
 23 21  2  0  0  0
 21 22  1  0  0  0
 21 20  1  0  0  0
 20 19  1  0  0  0
 19 18  1  0  0  0
 19  9  1  0  0  0
  1  9  2  0  0  0
  1  2  1  0  0  0
  9 10  1  0  0  0
  2  8  1  0  0  0
 10 12  2  0  0  0
 10  6  1  0  0  0
  8  6  2  0  0  0
  8 11  1  0  0  0
  6  5  1  0  0  0
 11 13  2  0  0  0
  5  3  2  0  0  0
  5  7  1  0  0  0
 13  7  1  0  0  0
 13  4  1  0  0  0
 22 24  1  0  0  0
  2 14  1  0  0  0
  4 15  1  0  0  0
  4 16  1  0  0  0
  7 17  1  0  0  0
M  END
> <minimizedAffinity>
-5.46695

$$$$
4D8Z_0J2_A_305


 24 25  0  0  0  0  0  0  0  0999 V2000
  -12.4519   27.1819    7.3848 N   0  0  0  0  0  0  0  0  0  0  0  0
  -12.3669   28.1957    8.2950 N   0  0  0  0  0  0  0  0  0  0  0  0
  -13.1635   25.3969   12.2144 O   0  0  0  0  0  0  0  0  0  0  0  0
  -12.4067   30.2233   12.6709 N   0  0  0  0  0  0  0  0  0  0  0  0
  -12.9404   26.6316   11.6483 C   0  0  0  0  0  0  0  0  0  0  0  0
  -12.7849   26.7768   10.2201 C   0  0  0  0  0  0  0  0  0  0  0  0
  -12.8297   27.7581   12.4726 N   0  0  0  0  0  0  0  0  0  0  0  0
  -12.5341   28.0153    9.7110 C   0  0  0  0  0  0  0  0  0  0  0  0
  -12.7026   25.9567    7.7825 C   0  0  0  0  0  0  0  0  0  0  0  0
  -12.8825   25.6725    9.2333 C   0  0  0  0  0  0  0  0  0  0  0  0
  -12.4163   29.1383   10.4846 N   0  0  0  0  0  0  0  0  0  0  0  0
  -13.1843   24.3895    9.6276 O   0  0  0  0  0  0  0  0  0  0  0  0
  -12.5486   29.0573   11.8749 C   0  0  0  0  0  0  0  0  0  0  0  0
  -12.1803   29.1033    7.9620 H   0  0  0  0  0  0  0  0  0  0  0  0
  -12.2169   31.0902   12.2446 H   0  0  0  0  0  0  0  0  0  0  0  0
  -12.4981   30.1654   13.6494 H   0  0  0  0  0  0  0  0  0  0  0  0
  -12.9408   27.6733   13.4472 H   0  0  0  0  0  0  0  0  0  0  0  0
  -11.3827   24.2380    6.6647 C   0  0  0  0  0  0  0  0  0  0  0  0
  -12.7512   24.8141    6.8165 C   0  0  0  0  0  0  0  0  0  0  0  0
  -13.2559   25.2436    5.4772 C   0  0  0  0  0  0  0  0  0  0  0  0
  -14.5310   24.5339    5.1854 C   0  0  0  0  0  0  0  0  0  0  0  0
  -15.1511   24.7565    4.1024 O   0  0  0  0  0  0  0  0  0  0  0  0
  -14.8592   23.5784    5.9324 O   0  0  0  0  0  0  0  0  0  0  0  0
  -14.8956   25.4727    3.5550 H   0  0  0  0  0  0  0  0  0  0  0  0
 23 21  2  0  0  0
 21 22  1  0  0  0
 21 20  1  0  0  0
 20 19  1  0  0  0
 19 18  1  0  0  0
 19  9  1  0  0  0
  1  9  2  0  0  0
  1  2  1  0  0  0
  9 10  1  0  0  0
  2  8  1  0  0  0
 10 12  2  0  0  0
 10  6  1  0  0  0
  8  6  2  0  0  0
  8 11  1  0  0  0
  6  5  1  0  0  0
 11 13  2  0  0  0
  5  3  2  0  0  0
  5  7  1  0  0  0
 13  7  1  0  0  0
 13  4  1  0  0  0
 22 24  1  0  0  0
  2 14  1  0  0  0
  4 15  1  0  0  0
  4 16  1  0  0  0
  7 17  1  0  0  0
M  END
> <minimizedAffinity>
-5.22628

$$$$
4D8Z_0J2_A_305


 24 25  0  0  0  0  0  0  0  0999 V2000
  -12.4259   27.6833    9.8229 N   0  0  0  0  0  0  0  0  0  0  0  0
  -12.0593   26.3794    9.9924 N   0  0  0  0  0  0  0  0  0  0  0  0
  -13.0926   24.9878    5.4288 O   0  0  0  0  0  0  0  0  0  0  0  0
  -11.3212   21.7910    8.7026 N   0  0  0  0  0  0  0  0  0  0  0  0
  -12.6666   24.6940    6.7043 C   0  0  0  0  0  0  0  0  0  0  0  0
  -12.6020   25.7181    7.7203 C   0  0  0  0  0  0  0  0  0  0  0  0
  -12.2587   23.3903    7.0117 N   0  0  0  0  0  0  0  0  0  0  0  0
  -12.1435   25.3841    8.9589 C   0  0  0  0  0  0  0  0  0  0  0  0
  -12.8907   28.0937    8.6662 C   0  0  0  0  0  0  0  0  0  0  0  0
  -13.0059   27.1340    7.5332 C   0  0  0  0  0  0  0  0  0  0  0  0
  -11.7336   24.1224    9.2957 N   0  0  0  0  0  0  0  0  0  0  0  0
  -13.5327   27.5728    6.3405 O   0  0  0  0  0  0  0  0  0  0  0  0
  -11.7655   23.0917    8.3503 C   0  0  0  0  0  0  0  0  0  0  0  0
  -11.7173   26.1047   10.8738 H   0  0  0  0  0  0  0  0  0  0  0  0
  -10.9921   21.6130    9.6133 H   0  0  0  0  0  0  0  0  0  0  0  0
  -11.3421   21.0664    8.0364 H   0  0  0  0  0  0  0  0  0  0  0  0
  -12.3047   22.6816    6.3298 H   0  0  0  0  0  0  0  0  0  0  0  0
  -12.3581   30.4015    9.2452 C   0  0  0  0  0  0  0  0  0  0  0  0
  -13.2530   29.5270    8.4316 C   0  0  0  0  0  0  0  0  0  0  0  0
  -14.6757   29.8043    8.7951 C   0  0  0  0  0  0  0  0  0  0  0  0
  -15.4557   30.0607    7.5540 C   0  0  0  0  0  0  0  0  0  0  0  0
  -16.6508   29.6497    7.4559 O   0  0  0  0  0  0  0  0  0  0  0  0
  -14.9754   30.8566    6.7086 O   0  0  0  0  0  0  0  0  0  0  0  0
  -16.9959   29.0562    8.0935 H   0  0  0  0  0  0  0  0  0  0  0  0
 23 21  2  0  0  0
 21 22  1  0  0  0
 21 20  1  0  0  0
 20 19  1  0  0  0
 19 18  1  0  0  0
 19  9  1  0  0  0
  1  9  2  0  0  0
  1  2  1  0  0  0
  9 10  1  0  0  0
  2  8  1  0  0  0
 10 12  2  0  0  0
 10  6  1  0  0  0
  8  6  2  0  0  0
  8 11  1  0  0  0
  6  5  1  0  0  0
 11 13  2  0  0  0
  5  3  2  0  0  0
  5  7  1  0  0  0
 13  7  1  0  0  0
 13  4  1  0  0  0
 22 24  1  0  0  0
  2 14  1  0  0  0
  4 15  1  0  0  0
  4 16  1  0  0  0
  7 17  1  0  0  0
M  END
> <minimizedAffinity>
-5.18690

$$$$
4D8Z_0J2_A_305


 24 25  0  0  0  0  0  0  0  0999 V2000
  -11.7165   24.5076    6.5957 N   0  0  0  0  0  0  0  0  0  0  0  0
  -10.5833   24.6945    7.3334 N   0  0  0  0  0  0  0  0  0  0  0  0
  -11.7223   29.1958    8.8406 O   0  0  0  0  0  0  0  0  0  0  0  0
   -7.5311   27.0545   10.2275 N   0  0  0  0  0  0  0  0  0  0  0  0
  -10.8509   28.1312    8.7957 C   0  0  0  0  0  0  0  0  0  0  0  0
  -11.1732   26.9385    8.0482 C   0  0  0  0  0  0  0  0  0  0  0  0
   -9.6496   28.1930    9.5123 N   0  0  0  0  0  0  0  0  0  0  0  0
  -10.2920   25.8995    8.0605 C   0  0  0  0  0  0  0  0  0  0  0  0
  -12.6169   25.4591    6.5158 C   0  0  0  0  0  0  0  0  0  0  0  0
  -12.4045   26.7410    7.2435 C   0  0  0  0  0  0  0  0  0  0  0  0
   -9.1103   25.9219    8.7509 N   0  0  0  0  0  0  0  0  0  0  0  0
  -13.3400   27.7416    7.1156 O   0  0  0  0  0  0  0  0  0  0  0  0
   -8.7492   27.0469    9.4999 C   0  0  0  0  0  0  0  0  0  0  0  0
   -9.9274   23.9612    7.3695 H   0  0  0  0  0  0  0  0  0  0  0  0
   -6.9387   26.2685   10.2040 H   0  0  0  0  0  0  0  0  0  0  0  0
   -7.2782   27.8458   10.7559 H   0  0  0  0  0  0  0  0  0  0  0  0
   -9.4152   29.0033   10.0200 H   0  0  0  0  0  0  0  0  0  0  0  0
  -14.1905   23.8087    5.6524 C   0  0  0  0  0  0  0  0  0  0  0  0
  -13.8937   25.2676    5.7581 C   0  0  0  0  0  0  0  0  0  0  0  0
  -13.8157   25.8549    4.3862 C   0  0  0  0  0  0  0  0  0  0  0  0
  -14.9203   26.8368    4.2120 C   0  0  0  0  0  0  0  0  0  0  0  0
  -14.9716   27.8740    4.9389 O   0  0  0  0  0  0  0  0  0  0  0  0
  -15.6664   26.7144    3.2085 O   0  0  0  0  0  0  0  0  0  0  0  0
  -14.4093   27.9520    5.6844 H   0  0  0  0  0  0  0  0  0  0  0  0
 23 21  2  0  0  0
 21 22  1  0  0  0
 21 20  1  0  0  0
 20 19  1  0  0  0
 19 18  1  0  0  0
 19  9  1  0  0  0
  1  9  2  0  0  0
  1  2  1  0  0  0
  9 10  1  0  0  0
  2  8  1  0  0  0
 10 12  2  0  0  0
 10  6  1  0  0  0
  8  6  2  0  0  0
  8 11  1  0  0  0
  6  5  1  0  0  0
 11 13  2  0  0  0
  5  3  2  0  0  0
  5  7  1  0  0  0
 13  7  1  0  0  0
 13  4  1  0  0  0
 22 24  1  0  0  0
  2 14  1  0  0  0
  4 15  1  0  0  0
  4 16  1  0  0  0
  7 17  1  0  0  0
M  END
> <minimizedAffinity>
-5.07045

$$$$
4D8Z_0J2_A_305


 24 25  0  0  0  0  0  0  0  0999 V2000
  -12.2612   23.2750    7.5979 N   0  0  0  0  0  0  0  0  0  0  0  0
  -12.9859   23.5080    6.4648 N   0  0  0  0  0  0  0  0  0  0  0  0
  -13.1566   28.3587    6.9870 O   0  0  0  0  0  0  0  0  0  0  0  0
  -15.2873   26.1559    3.1551 N   0  0  0  0  0  0  0  0  0  0  0  0
  -13.4952   27.2141    6.3015 C   0  0  0  0  0  0  0  0  0  0  0  0
  -13.0671   25.9157    6.7664 C   0  0  0  0  0  0  0  0  0  0  0  0
  -14.2374   27.3133    5.1183 N   0  0  0  0  0  0  0  0  0  0  0  0
  -13.4010   24.8154    6.0356 C   0  0  0  0  0  0  0  0  0  0  0  0
  -11.9046   24.2739    8.3709 C   0  0  0  0  0  0  0  0  0  0  0  0
  -12.2830   25.6661    8.0015 C   0  0  0  0  0  0  0  0  0  0  0  0
  -14.1221   24.8729    4.8736 N   0  0  0  0  0  0  0  0  0  0  0  0
  -11.9349   26.6961    8.8446 O   0  0  0  0  0  0  0  0  0  0  0  0
  -14.5562   26.1038    4.3701 C   0  0  0  0  0  0  0  0  0  0  0  0
  -13.2391   22.7357    5.9093 H   0  0  0  0  0  0  0  0  0  0  0  0
  -15.4909   25.3255    2.6671 H   0  0  0  0  0  0  0  0  0  0  0  0
  -15.5910   27.0226    2.8002 H   0  0  0  0  0  0  0  0  0  0  0  0
  -14.5412   28.1920    4.7947 H   0  0  0  0  0  0  0  0  0  0  0  0
   -9.8056   23.3581    9.2079 C   0  0  0  0  0  0  0  0  0  0  0  0
  -11.0663   24.0586    9.5922 C   0  0  0  0  0  0  0  0  0  0  0  0
  -11.7860   23.2481   10.6209 C   0  0  0  0  0  0  0  0  0  0  0  0
  -13.0095   23.9788   11.0497 C   0  0  0  0  0  0  0  0  0  0  0  0
  -12.9270   25.1764   11.4566 O   0  0  0  0  0  0  0  0  0  0  0  0
  -14.1255   23.4550   10.8068 O   0  0  0  0  0  0  0  0  0  0  0  0
  -12.0881   25.5543   11.6338 H   0  0  0  0  0  0  0  0  0  0  0  0
 23 21  2  0  0  0
 21 22  1  0  0  0
 21 20  1  0  0  0
 20 19  1  0  0  0
 19 18  1  0  0  0
 19  9  1  0  0  0
  1  9  2  0  0  0
  1  2  1  0  0  0
  9 10  1  0  0  0
  2  8  1  0  0  0
 10 12  2  0  0  0
 10  6  1  0  0  0
  8  6  2  0  0  0
  8 11  1  0  0  0
  6  5  1  0  0  0
 11 13  2  0  0  0
  5  3  2  0  0  0
  5  7  1  0  0  0
 13  7  1  0  0  0
 13  4  1  0  0  0
 22 24  1  0  0  0
  2 14  1  0  0  0
  4 15  1  0  0  0
  4 16  1  0  0  0
  7 17  1  0  0  0
M  END
> <minimizedAffinity>
-4.94057

$$$$
