4F2W_TDI_A_301


 24 26  0  0  0  0  0  0  0  0999 V2000
    2.7849  -21.9815  -11.0621 C   0  0  0  0  0  0  0  0  0  0  0  0
    3.7989  -20.5624  -12.6551 C   0  0  0  0  0  0  0  0  0  0  0  0
    4.1491  -21.6611  -13.3601 C   0  0  0  0  0  0  0  0  0  0  0  0
    3.8605  -22.9150  -12.9149 C   0  0  0  0  0  0  0  0  0  0  0  0
    4.2636  -19.4773  -13.2878 C   0  0  0  0  0  0  0  0  0  0  0  0
    4.8649  -19.8811  -14.3860 C   0  0  0  0  0  0  0  0  0  0  0  0
    4.8004  -21.2137  -14.4126 N   0  0  0  0  0  0  0  0  0  0  0  0
    4.2335  -24.0018  -13.6320 N   0  0  0  0  0  0  0  0  0  0  0  0
    3.1924  -23.1083  -11.7723 N   0  0  0  0  0  0  0  0  0  0  0  0
    3.0902  -20.7214  -11.5283 N   0  0  0  0  0  0  0  0  0  0  0  0
    5.1851  -21.7814  -15.1189 H   0  0  0  0  0  0  0  0  0  0  0  0
    4.7263  -23.8888  -14.4768 H   0  0  0  0  0  0  0  0  0  0  0  0
    4.0118  -24.9048  -13.3085 H   0  0  0  0  0  0  0  0  0  0  0  0
    4.0696  -17.9921  -12.9285 C   0  0  0  0  0  0  0  0  0  0  0  0
    7.0589  -17.6267  -10.7907 C   0  0  0  0  0  0  0  0  0  0  0  0
    6.4896  -17.4977  -12.1729 C   0  0  0  0  0  0  0  0  0  0  0  0
    5.0223  -17.3316  -11.9919 N   0  0  0  0  0  0  0  0  0  0  0  0
    4.6792  -17.4842  -10.5706 C   0  0  0  0  0  0  0  0  0  0  0  0
    5.9869  -16.9723   -9.9353 C   0  0  0  0  0  0  0  0  0  0  0  0
    6.1105  -15.5278   -9.9285 O   0  0  0  0  0  0  0  0  0  0  0  0
    6.0660  -15.1952  -10.8386 H   0  0  0  0  0  0  0  0  0  0  0  0
    7.3437  -19.1195  -10.4486 C   0  0  0  0  0  0  0  0  0  0  0  0
   10.0538  -18.7075  -10.1490 C   0  0  0  0  0  0  0  0  0  0  0  0
    8.6703  -19.2865   -9.2141 S   0  0  0  0  0  0  0  0  0  0  0  0
  1  9  2  0  0  0
  1 10  1  0  0  0
  2  3  1  0  0  0
  2  5  1  0  0  0
  2 10  2  0  0  0
  3  4  2  0  0  0
  3  7  1  0  0  0
  4  8  1  0  0  0
  4  9  1  0  0  0
 23 24  1  0  0  0
 24 22  1  0  0  0
 22 15  1  0  0  0
 15 16  1  0  0  0
 15 19  1  0  0  0
 16 17  1  0  0  0
 17 14  1  0  0  0
 17 18  1  0  0  0
 14  5  1  0  0  0
  5  6  2  0  0  0
  6  7  1  0  0  0
 18 19  1  0  0  0
 19 20  1  0  0  0
  7 11  1  0  0  0
  8 12  1  0  0  0
  8 13  1  0  0  0
 20 21  1  0  0  0
M  END
> <minimizedAffinity>
-9.54474

$$$$
