3MHL_J71_A_265


 26 27  0  0  0  0  0  0  0  0999 V2000
   -3.3875    4.9289   12.1981 N   0  0  0  0  0  0  0  0  0  0  0  0
   -4.0005    5.2677   11.5062 H   0  0  0  0  0  0  0  0  0  0  0  0
   -0.3691    2.2845   11.1159 N   0  0  0  0  0  0  0  0  0  0  0  0
   -0.0953    3.4813   11.6800 C   0  0  0  0  0  0  0  0  0  0  0  0
   -1.0739    4.3416   12.0259 N   0  0  0  0  0  0  0  0  0  0  0  0
   -2.3765    4.0010   11.8252 C   0  0  0  0  0  0  0  0  0  0  0  0
   -2.7055    2.7204   11.2557 C   0  0  0  0  0  0  0  0  0  0  0  0
   -1.6232    1.8292   10.8876 C   0  0  0  0  0  0  0  0  0  0  0  0
   -4.1876    2.4490   11.0984 N   0  0  0  0  0  0  0  0  0  0  0  0
   -4.7469    2.6285   10.0846 O   0  0  0  0  0  0  0  0  0  0  0  0
   -4.9372    2.0258   12.1067 O   0  0  0  0  0  0  0  0  0  0  0  0
   -1.6497    0.4423   10.2819 O   0  0  0  0  0  0  0  0  0  0  0  0
   -2.4462   -0.6556   10.7388 C   0  0  0  0  0  0  0  0  0  0  0  0
   -3.5418    5.3796   13.5232 C   0  0  0  0  0  0  0  0  0  0  0  0
   -4.2864    4.3829   14.3947 C   0  0  0  0  0  0  0  0  0  0  0  0
   -5.6725    4.4076   14.6796 C   0  0  0  0  0  0  0  0  0  0  0  0
   -6.1762    3.3736   15.5492 C   0  0  0  0  0  0  0  0  0  0  0  0
   -5.3150    2.3312   15.9890 C   0  0  0  0  0  0  0  0  0  0  0  0
   -3.9536    2.3343   15.7107 C   0  0  0  0  0  0  0  0  0  0  0  0
   -3.4572    3.3464   14.8759 C   0  0  0  0  0  0  0  0  0  0  0  0
   -6.0012    1.1414   17.0361 S   0  0  0  0  0  0  0  0  0  0  0  0
   -7.3876    0.9828   16.7961 O   0  0  0  0  0  0  0  0  0  0  0  0
   -5.1321   -0.0383   16.9440 O   0  0  0  0  0  0  0  0  0  0  0  0
   -5.8847    1.8888   18.5312 N   0  0  0  0  0  0  0  0  0  0  0  0
   -6.5016    2.7008   18.5544 H   0  0  0  0  0  0  0  0  0  0  0  0
   -4.9223    2.1884   18.6875 H   0  0  0  0  0  0  0  0  0  0  0  0
  3  4  2  0  0  0
  3  8  1  0  0  0
  4  5  1  0  0  0
  5  6  2  0  0  0
  6  7  1  0  0  0
  6  1  1  0  0  0
  7  8  2  0  0  0
  7  9  1  0  0  0
  8 12  1  0  0  0
  1 14  1  0  0  0
 15 16  2  0  0  0
 15 20  1  0  0  0
 15 14  1  0  0  0
 16 17  1  0  0  0
 17 18  2  0  0  0
 18 19  1  0  0  0
 18 21  1  0  0  0
 19 20  2  0  0  0
 21 22  2  0  0  0
 21 23  2  0  0  0
 21 24  1  0  0  0
  9 10  1  0  0  0
  9 11  2  0  0  0
 12 13  1  0  0  0
  1  2  1  0  0  0
 24 25  1  0  0  0
 24 26  1  0  0  0
M  CHG 1   9   1
M  CHG 1  10  -1
M  END
> <minimizedAffinity>
-8.12151

$$$$
3MHL_J71_A_265


 26 27  0  0  0  0  0  0  0  0999 V2000
   -3.5937    5.4635   12.4103 N   0  0  0  0  0  0  0  0  0  0  0  0
   -4.4285    5.5727   11.9000 H   0  0  0  0  0  0  0  0  0  0  0  0
   -0.0840    4.4263   10.4403 N   0  0  0  0  0  0  0  0  0  0  0  0
   -0.0674    5.0835   11.6205 C   0  0  0  0  0  0  0  0  0  0  0  0
   -1.2057    5.4252   12.2570 N   0  0  0  0  0  0  0  0  0  0  0  0
   -2.4095    5.0887   11.7178 C   0  0  0  0  0  0  0  0  0  0  0  0
   -2.4637    4.3602   10.4773 C   0  0  0  0  0  0  0  0  0  0  0  0
   -1.2170    4.0218    9.8197 C   0  0  0  0  0  0  0  0  0  0  0  0
   -3.8583    4.0278    9.9878 N   0  0  0  0  0  0  0  0  0  0  0  0
   -4.2351    2.9226    9.8920 O   0  0  0  0  0  0  0  0  0  0  0  0
   -4.7148    4.9668    9.6108 O   0  0  0  0  0  0  0  0  0  0  0  0
   -0.9526    3.2729    8.5312 O   0  0  0  0  0  0  0  0  0  0  0  0
    0.0791    3.5724    7.5855 C   0  0  0  0  0  0  0  0  0  0  0  0
   -3.6129    5.6838   13.8010 C   0  0  0  0  0  0  0  0  0  0  0  0
   -4.3048    4.5638   14.5588 C   0  0  0  0  0  0  0  0  0  0  0  0
   -5.6673    4.5429   14.9412 C   0  0  0  0  0  0  0  0  0  0  0  0
   -6.1193    3.3866   15.6744 C   0  0  0  0  0  0  0  0  0  0  0  0
   -5.2400    2.2895   15.8863 C   0  0  0  0  0  0  0  0  0  0  0  0
   -3.9014    2.3368   15.5166 C   0  0  0  0  0  0  0  0  0  0  0  0
   -3.4544    3.4662   14.8148 C   0  0  0  0  0  0  0  0  0  0  0  0
   -5.8632    0.9517   16.7833 S   0  0  0  0  0  0  0  0  0  0  0  0
   -7.2789    0.9329   16.7626 O   0  0  0  0  0  0  0  0  0  0  0  0
   -5.1373   -0.2340   16.3117 O   0  0  0  0  0  0  0  0  0  0  0  0
   -5.4403    1.3608   18.3522 N   0  0  0  0  0  0  0  0  0  0  0  0
   -5.9647    2.1866   18.6413 H   0  0  0  0  0  0  0  0  0  0  0  0
   -4.4410    1.5609   18.3938 H   0  0  0  0  0  0  0  0  0  0  0  0
  3  4  2  0  0  0
  3  8  1  0  0  0
  4  5  1  0  0  0
  5  6  2  0  0  0
  6  7  1  0  0  0
  6  1  1  0  0  0
  7  8  2  0  0  0
  7  9  1  0  0  0
  8 12  1  0  0  0
  1 14  1  0  0  0
 15 16  2  0  0  0
 15 20  1  0  0  0
 15 14  1  0  0  0
 16 17  1  0  0  0
 17 18  2  0  0  0
 18 19  1  0  0  0
 18 21  1  0  0  0
 19 20  2  0  0  0
 21 22  2  0  0  0
 21 23  2  0  0  0
 21 24  1  0  0  0
  9 10  1  0  0  0
  9 11  2  0  0  0
 12 13  1  0  0  0
  1  2  1  0  0  0
 24 25  1  0  0  0
 24 26  1  0  0  0
M  CHG 1   9   1
M  CHG 1  10  -1
M  END
> <minimizedAffinity>
-7.47462

$$$$
3MHL_J71_A_265


 26 27  0  0  0  0  0  0  0  0999 V2000
   -2.0394    4.3695   13.0101 N   0  0  0  0  0  0  0  0  0  0  0  0
   -1.3390    4.5395   13.6807 H   0  0  0  0  0  0  0  0  0  0  0  0
   -1.0995    2.0819    9.6697 N   0  0  0  0  0  0  0  0  0  0  0  0
   -1.7618    1.5585   10.7245 C   0  0  0  0  0  0  0  0  0  0  0  0
   -2.0618    2.2988   11.8106 N   0  0  0  0  0  0  0  0  0  0  0  0
   -1.7116    3.6136   11.8511 C   0  0  0  0  0  0  0  0  0  0  0  0
   -1.0331    4.2120   10.7312 C   0  0  0  0  0  0  0  0  0  0  0  0
   -0.7194    3.3785    9.5875 C   0  0  0  0  0  0  0  0  0  0  0  0
   -0.7124    5.6844   10.8865 N   0  0  0  0  0  0  0  0  0  0  0  0
   -1.3778    6.5186   10.4025 O   0  0  0  0  0  0  0  0  0  0  0  0
    0.3551    6.1067   11.5495 O   0  0  0  0  0  0  0  0  0  0  0  0
   -0.0284    3.7126    8.2829 O   0  0  0  0  0  0  0  0  0  0  0  0
   -0.5598    4.5386    7.2418 C   0  0  0  0  0  0  0  0  0  0  0  0
   -3.3317    4.8833   13.2312 C   0  0  0  0  0  0  0  0  0  0  0  0
   -4.1308    4.0464   14.2154 C   0  0  0  0  0  0  0  0  0  0  0  0
   -5.5065    4.2037   14.5080 C   0  0  0  0  0  0  0  0  0  0  0  0
   -6.0681    3.3121   15.4924 C   0  0  0  0  0  0  0  0  0  0  0  0
   -5.2763    2.2649   16.0383 C   0  0  0  0  0  0  0  0  0  0  0  0
   -3.9231    2.1377   15.7494 C   0  0  0  0  0  0  0  0  0  0  0  0
   -3.3698    3.0121   14.8022 C   0  0  0  0  0  0  0  0  0  0  0  0
   -6.0280    1.2519   17.2181 S   0  0  0  0  0  0  0  0  0  0  0  0
   -7.3836    1.0028   16.8938 O   0  0  0  0  0  0  0  0  0  0  0  0
   -5.1291    0.1072   17.4103 O   0  0  0  0  0  0  0  0  0  0  0  0
   -6.0620    2.2529   18.5614 N   0  0  0  0  0  0  0  0  0  0  0  0
   -6.6957    3.0332   18.3880 H   0  0  0  0  0  0  0  0  0  0  0  0
   -5.1241    2.6105   18.7428 H   0  0  0  0  0  0  0  0  0  0  0  0
  3  4  2  0  0  0
  3  8  1  0  0  0
  4  5  1  0  0  0
  5  6  2  0  0  0
  6  7  1  0  0  0
  6  1  1  0  0  0
  7  8  2  0  0  0
  7  9  1  0  0  0
  8 12  1  0  0  0
  1 14  1  0  0  0
 15 16  2  0  0  0
 15 20  1  0  0  0
 15 14  1  0  0  0
 16 17  1  0  0  0
 17 18  2  0  0  0
 18 19  1  0  0  0
 18 21  1  0  0  0
 19 20  2  0  0  0
 21 22  2  0  0  0
 21 23  2  0  0  0
 21 24  1  0  0  0
  9 10  1  0  0  0
  9 11  2  0  0  0
 12 13  1  0  0  0
  1  2  1  0  0  0
 24 25  1  0  0  0
 24 26  1  0  0  0
M  CHG 1   9   1
M  CHG 1  10  -1
M  END
> <minimizedAffinity>
-7.21757

$$$$
3MHL_J71_A_265


 26 27  0  0  0  0  0  0  0  0999 V2000
   -3.5200    5.3079   12.1728 N   0  0  0  0  0  0  0  0  0  0  0  0
   -4.2077    5.1160   11.4949 H   0  0  0  0  0  0  0  0  0  0  0  0
    0.5046    5.1374   11.1491 N   0  0  0  0  0  0  0  0  0  0  0  0
    0.0751    5.8323   12.2252 C   0  0  0  0  0  0  0  0  0  0  0  0
   -1.2309    5.8925   12.5542 N   0  0  0  0  0  0  0  0  0  0  0  0
   -2.1494    5.2251   11.8032 C   0  0  0  0  0  0  0  0  0  0  0  0
   -1.7232    4.4486   10.6683 C   0  0  0  0  0  0  0  0  0  0  0  0
   -0.3111    4.4191   10.3422 C   0  0  0  0  0  0  0  0  0  0  0  0
   -2.8338    3.7373    9.9230 N   0  0  0  0  0  0  0  0  0  0  0  0
   -3.3598    4.2141    8.9909 O   0  0  0  0  0  0  0  0  0  0  0  0
   -3.2923    2.5533   10.3045 O   0  0  0  0  0  0  0  0  0  0  0  0
    0.4308    3.7046    9.2331 O   0  0  0  0  0  0  0  0  0  0  0  0
    0.0657    3.7004    7.8492 C   0  0  0  0  0  0  0  0  0  0  0  0
   -3.9273    5.6550   13.4753 C   0  0  0  0  0  0  0  0  0  0  0  0
   -4.2312    4.4394   14.3341 C   0  0  0  0  0  0  0  0  0  0  0  0
   -3.2988    3.4485   14.7238 C   0  0  0  0  0  0  0  0  0  0  0  0
   -3.8019    2.3627   15.5282 C   0  0  0  0  0  0  0  0  0  0  0  0
   -5.1488    2.3786   15.9834 C   0  0  0  0  0  0  0  0  0  0  0  0
   -6.0521    3.3528   15.5763 C   0  0  0  0  0  0  0  0  0  0  0  0
   -5.5695    4.4038   14.7823 C   0  0  0  0  0  0  0  0  0  0  0  0
   -5.6678    1.0324   16.9327 S   0  0  0  0  0  0  0  0  0  0  0  0
   -5.2486   -0.1930   16.3604 O   0  0  0  0  0  0  0  0  0  0  0  0
   -5.2801    1.3310   18.3169 O   0  0  0  0  0  0  0  0  0  0  0  0
   -7.3295    1.0828   16.7239 N   0  0  0  0  0  0  0  0  0  0  0  0
   -7.5567    0.8705   15.7524 H   0  0  0  0  0  0  0  0  0  0  0  0
   -7.6735    2.0141   16.9578 H   0  0  0  0  0  0  0  0  0  0  0  0
  3  4  2  0  0  0
  3  8  1  0  0  0
  4  5  1  0  0  0
  5  6  2  0  0  0
  6  7  1  0  0  0
  6  1  1  0  0  0
  7  8  2  0  0  0
  7  9  1  0  0  0
  8 12  1  0  0  0
  1 14  1  0  0  0
 15 16  2  0  0  0
 15 20  1  0  0  0
 15 14  1  0  0  0
 16 17  1  0  0  0
 17 18  2  0  0  0
 18 19  1  0  0  0
 18 21  1  0  0  0
 19 20  2  0  0  0
 21 22  2  0  0  0
 21 23  2  0  0  0
 21 24  1  0  0  0
  9 10  1  0  0  0
  9 11  2  0  0  0
 12 13  1  0  0  0
  1  2  1  0  0  0
 24 25  1  0  0  0
 24 26  1  0  0  0
M  CHG 1   9   1
M  CHG 1  10  -1
M  END
> <minimizedAffinity>
-7.12921

$$$$
3MHL_J71_A_265


 26 27  0  0  0  0  0  0  0  0999 V2000
   -3.1635    4.0677   12.0257 N   0  0  0  0  0  0  0  0  0  0  0  0
   -3.1363    3.0982   12.1949 H   0  0  0  0  0  0  0  0  0  0  0  0
   -1.8261    5.5790    8.3922 N   0  0  0  0  0  0  0  0  0  0  0  0
   -2.6180    6.3028    9.2133 C   0  0  0  0  0  0  0  0  0  0  0  0
   -3.0567    5.8107   10.3893 N   0  0  0  0  0  0  0  0  0  0  0  0
   -2.6843    4.5614   10.7811 C   0  0  0  0  0  0  0  0  0  0  0  0
   -1.8154    3.7746    9.9455 C   0  0  0  0  0  0  0  0  0  0  0  0
   -1.3752    4.3364    8.6838 C   0  0  0  0  0  0  0  0  0  0  0  0
   -1.4570    2.4097   10.4965 N   0  0  0  0  0  0  0  0  0  0  0  0
   -0.7702    2.2812   11.4370 O   0  0  0  0  0  0  0  0  0  0  0  0
   -1.8736    1.2881    9.9256 O   0  0  0  0  0  0  0  0  0  0  0  0
   -0.4735    3.7655    7.6105 O   0  0  0  0  0  0  0  0  0  0  0  0
    0.0787    4.4917    6.5076 C   0  0  0  0  0  0  0  0  0  0  0  0
   -3.6757    4.9182   13.0243 C   0  0  0  0  0  0  0  0  0  0  0  0
   -4.4105    4.1589   14.1156 C   0  0  0  0  0  0  0  0  0  0  0  0
   -5.6399    4.5404   14.7039 C   0  0  0  0  0  0  0  0  0  0  0  0
   -6.1576    3.6838   15.7418 C   0  0  0  0  0  0  0  0  0  0  0  0
   -5.4966    2.4644   16.0541 C   0  0  0  0  0  0  0  0  0  0  0  0
   -4.2822    2.1161   15.4757 C   0  0  0  0  0  0  0  0  0  0  0  0
   -3.7682    2.9541   14.4750 C   0  0  0  0  0  0  0  0  0  0  0  0
   -6.1816    1.5066   17.3176 S   0  0  0  0  0  0  0  0  0  0  0  0
   -6.0967    2.1666   18.5674 O   0  0  0  0  0  0  0  0  0  0  0  0
   -7.5006    1.0754   16.8382 O   0  0  0  0  0  0  0  0  0  0  0  0
   -5.1006    0.2295   17.4075 N   0  0  0  0  0  0  0  0  0  0  0  0
   -4.1996    0.5696   17.7434 H   0  0  0  0  0  0  0  0  0  0  0  0
   -4.9846   -0.1835   16.4821 H   0  0  0  0  0  0  0  0  0  0  0  0
  3  4  2  0  0  0
  3  8  1  0  0  0
  4  5  1  0  0  0
  5  6  2  0  0  0
  6  7  1  0  0  0
  6  1  1  0  0  0
  7  8  2  0  0  0
  7  9  1  0  0  0
  8 12  1  0  0  0
  1 14  1  0  0  0
 15 16  2  0  0  0
 15 20  1  0  0  0
 15 14  1  0  0  0
 16 17  1  0  0  0
 17 18  2  0  0  0
 18 19  1  0  0  0
 18 21  1  0  0  0
 19 20  2  0  0  0
 21 22  2  0  0  0
 21 23  2  0  0  0
 21 24  1  0  0  0
  9 10  1  0  0  0
  9 11  2  0  0  0
 12 13  1  0  0  0
  1  2  1  0  0  0
 24 25  1  0  0  0
 24 26  1  0  0  0
M  CHG 1   9   1
M  CHG 1  10  -1
M  END
> <minimizedAffinity>
-7.06528

$$$$
3MHL_J71_A_265


 26 27  0  0  0  0  0  0  0  0999 V2000
   -4.4395    5.2695   11.9088 N   0  0  0  0  0  0  0  0  0  0  0  0
   -5.4104    5.3589   11.7719 H   0  0  0  0  0  0  0  0  0  0  0  0
   -1.9613    4.3567    8.6994 N   0  0  0  0  0  0  0  0  0  0  0  0
   -1.7731    3.8079    9.9195 C   0  0  0  0  0  0  0  0  0  0  0  0
   -2.5734    4.1082   10.9622 N   0  0  0  0  0  0  0  0  0  0  0  0
   -3.6131    4.9699   10.7910 C   0  0  0  0  0  0  0  0  0  0  0  0
   -3.8620    5.5486    9.4965 C   0  0  0  0  0  0  0  0  0  0  0  0
   -2.9715    5.2081    8.4046 C   0  0  0  0  0  0  0  0  0  0  0  0
   -5.0572    6.4768    9.4268 N   0  0  0  0  0  0  0  0  0  0  0  0
   -4.9375    7.6314    9.2673 O   0  0  0  0  0  0  0  0  0  0  0  0
   -6.2994    6.0382    9.5753 O   0  0  0  0  0  0  0  0  0  0  0  0
   -2.9756    5.6445    6.9552 O   0  0  0  0  0  0  0  0  0  0  0  0
   -1.9083    5.4543    6.0207 C   0  0  0  0  0  0  0  0  0  0  0  0
   -3.9166    5.4426   13.2047 C   0  0  0  0  0  0  0  0  0  0  0  0
   -4.3063    4.3156   14.1456 C   0  0  0  0  0  0  0  0  0  0  0  0
   -3.4566    3.2706   14.5805 C   0  0  0  0  0  0  0  0  0  0  0  0
   -4.0344    2.2872   15.4625 C   0  0  0  0  0  0  0  0  0  0  0  0
   -5.3628    2.4533   15.9413 C   0  0  0  0  0  0  0  0  0  0  0  0
   -6.1855    3.4779   15.4896 C   0  0  0  0  0  0  0  0  0  0  0  0
   -5.6310    4.4293   14.6205 C   0  0  0  0  0  0  0  0  0  0  0  0
   -5.9761    1.2215   16.9851 S   0  0  0  0  0  0  0  0  0  0  0  0
   -7.3557    0.9960   16.7600 O   0  0  0  0  0  0  0  0  0  0  0  0
   -5.0505    0.0875   16.8716 O   0  0  0  0  0  0  0  0  0  0  0  0
   -5.8787    1.9605   18.4858 N   0  0  0  0  0  0  0  0  0  0  0  0
   -6.5350    2.7404   18.5239 H   0  0  0  0  0  0  0  0  0  0  0  0
   -4.9306    2.3063   18.6336 H   0  0  0  0  0  0  0  0  0  0  0  0
  3  4  2  0  0  0
  3  8  1  0  0  0
  4  5  1  0  0  0
  5  6  2  0  0  0
  6  7  1  0  0  0
  6  1  1  0  0  0
  7  8  2  0  0  0
  7  9  1  0  0  0
  8 12  1  0  0  0
  1 14  1  0  0  0
 15 16  2  0  0  0
 15 20  1  0  0  0
 15 14  1  0  0  0
 16 17  1  0  0  0
 17 18  2  0  0  0
 18 19  1  0  0  0
 18 21  1  0  0  0
 19 20  2  0  0  0
 21 22  2  0  0  0
 21 23  2  0  0  0
 21 24  1  0  0  0
  9 10  1  0  0  0
  9 11  2  0  0  0
 12 13  1  0  0  0
  1  2  1  0  0  0
 24 25  1  0  0  0
 24 26  1  0  0  0
M  CHG 1   9   1
M  CHG 1  10  -1
M  END
> <minimizedAffinity>
-6.87391

$$$$
3MHL_J71_A_265


 26 27  0  0  0  0  0  0  0  0999 V2000
   -3.4665    4.9038   12.1717 N   0  0  0  0  0  0  0  0  0  0  0  0
   -3.4384    5.6105   11.4868 H   0  0  0  0  0  0  0  0  0  0  0  0
   -3.8976    0.9434   10.9868 N   0  0  0  0  0  0  0  0  0  0  0  0
   -4.9660    1.7161   11.2811 C   0  0  0  0  0  0  0  0  0  0  0  0
   -4.8262    2.9991   11.6709 N   0  0  0  0  0  0  0  0  0  0  0  0
   -3.5838    3.5489   11.7561 C   0  0  0  0  0  0  0  0  0  0  0  0
   -2.4252    2.7637   11.4192 C   0  0  0  0  0  0  0  0  0  0  0  0
   -2.6184    1.3851   11.0152 C   0  0  0  0  0  0  0  0  0  0  0  0
   -1.1009    3.4902   11.5353 N   0  0  0  0  0  0  0  0  0  0  0  0
   -0.3989    3.3558   12.4636 O   0  0  0  0  0  0  0  0  0  0  0  0
   -0.6809    4.3413   10.6096 O   0  0  0  0  0  0  0  0  0  0  0  0
   -1.6163    0.3275   10.6045 O   0  0  0  0  0  0  0  0  0  0  0  0
   -1.7061   -1.0702   10.8995 C   0  0  0  0  0  0  0  0  0  0  0  0
   -3.3892    5.2691   13.5294 C   0  0  0  0  0  0  0  0  0  0  0  0
   -4.1047    4.2854   14.4392 C   0  0  0  0  0  0  0  0  0  0  0  0
   -5.4793    4.3185   14.7742 C   0  0  0  0  0  0  0  0  0  0  0  0
   -5.9542    3.2966   15.6738 C   0  0  0  0  0  0  0  0  0  0  0  0
   -5.0809    2.2562   16.0940 C   0  0  0  0  0  0  0  0  0  0  0  0
   -3.7307    2.2510   15.7662 C   0  0  0  0  0  0  0  0  0  0  0  0
   -3.2618    3.2516   14.9020 C   0  0  0  0  0  0  0  0  0  0  0  0
   -5.7323    1.0812   17.1794 S   0  0  0  0  0  0  0  0  0  0  0  0
   -5.2796   -0.2217   16.8595 O   0  0  0  0  0  0  0  0  0  0  0  0
   -5.4945    1.5955   18.5338 O   0  0  0  0  0  0  0  0  0  0  0  0
   -7.3590    1.1048   16.7782 N   0  0  0  0  0  0  0  0  0  0  0  0
   -7.4814    0.7410   15.8331 H   0  0  0  0  0  0  0  0  0  0  0  0
   -7.7059    2.0630   16.8212 H   0  0  0  0  0  0  0  0  0  0  0  0
  3  4  2  0  0  0
  3  8  1  0  0  0
  4  5  1  0  0  0
  5  6  2  0  0  0
  6  7  1  0  0  0
  6  1  1  0  0  0
  7  8  2  0  0  0
  7  9  1  0  0  0
  8 12  1  0  0  0
  1 14  1  0  0  0
 15 16  2  0  0  0
 15 20  1  0  0  0
 15 14  1  0  0  0
 16 17  1  0  0  0
 17 18  2  0  0  0
 18 19  1  0  0  0
 18 21  1  0  0  0
 19 20  2  0  0  0
 21 22  2  0  0  0
 21 23  2  0  0  0
 21 24  1  0  0  0
  9 10  1  0  0  0
  9 11  2  0  0  0
 12 13  1  0  0  0
  1  2  1  0  0  0
 24 25  1  0  0  0
 24 26  1  0  0  0
M  CHG 1   9   1
M  CHG 1  10  -1
M  END
> <minimizedAffinity>
-6.70902

$$$$
3MHL_J71_A_265


 26 27  0  0  0  0  0  0  0  0999 V2000
   -4.0041    6.1916   12.8806 N   0  0  0  0  0  0  0  0  0  0  0  0
   -4.7954    6.4472   13.4076 H   0  0  0  0  0  0  0  0  0  0  0  0
   -2.6031    8.7760    9.9424 N   0  0  0  0  0  0  0  0  0  0  0  0
   -1.8372    8.4179   10.9962 C   0  0  0  0  0  0  0  0  0  0  0  0
   -2.2934    7.5841   11.9524 N   0  0  0  0  0  0  0  0  0  0  0  0
   -3.5489    7.0670   11.8565 C   0  0  0  0  0  0  0  0  0  0  0  0
   -4.3808    7.4022   10.7304 C   0  0  0  0  0  0  0  0  0  0  0  0
   -3.8564    8.3108    9.7301 C   0  0  0  0  0  0  0  0  0  0  0  0
   -5.7487    6.7512   10.7259 N   0  0  0  0  0  0  0  0  0  0  0  0
   -6.1813    6.2232    9.7737 O   0  0  0  0  0  0  0  0  0  0  0  0
   -6.5425    6.7727   11.7875 O   0  0  0  0  0  0  0  0  0  0  0  0
   -4.4777    8.8404    8.4555 O   0  0  0  0  0  0  0  0  0  0  0  0
   -4.6648    8.0999    7.2450 C   0  0  0  0  0  0  0  0  0  0  0  0
   -3.3616    4.9716   13.1665 C   0  0  0  0  0  0  0  0  0  0  0  0
   -4.1430    4.1183   14.1507 C   0  0  0  0  0  0  0  0  0  0  0  0
   -5.5096    4.2795   14.4815 C   0  0  0  0  0  0  0  0  0  0  0  0
   -6.0539    3.3696   15.4586 C   0  0  0  0  0  0  0  0  0  0  0  0
   -5.2576    2.3037   15.9601 C   0  0  0  0  0  0  0  0  0  0  0  0
   -3.9132    2.1727   15.6344 C   0  0  0  0  0  0  0  0  0  0  0  0
   -3.3763    3.0645   14.6941 C   0  0  0  0  0  0  0  0  0  0  0  0
   -5.9882    1.2693   17.1345 S   0  0  0  0  0  0  0  0  0  0  0  0
   -7.3453    1.0137   16.8220 O   0  0  0  0  0  0  0  0  0  0  0  0
   -5.0783    0.1293   17.3017 O   0  0  0  0  0  0  0  0  0  0  0  0
   -6.0150    2.2522   18.4913 N   0  0  0  0  0  0  0  0  0  0  0  0
   -6.6567    3.0296   18.3352 H   0  0  0  0  0  0  0  0  0  0  0  0
   -5.0780    2.6149   18.6670 H   0  0  0  0  0  0  0  0  0  0  0  0
  3  4  2  0  0  0
  3  8  1  0  0  0
  4  5  1  0  0  0
  5  6  2  0  0  0
  6  7  1  0  0  0
  6  1  1  0  0  0
  7  8  2  0  0  0
  7  9  1  0  0  0
  8 12  1  0  0  0
  1 14  1  0  0  0
 15 16  2  0  0  0
 15 20  1  0  0  0
 15 14  1  0  0  0
 16 17  1  0  0  0
 17 18  2  0  0  0
 18 19  1  0  0  0
 18 21  1  0  0  0
 19 20  2  0  0  0
 21 22  2  0  0  0
 21 23  2  0  0  0
 21 24  1  0  0  0
  9 10  1  0  0  0
  9 11  2  0  0  0
 12 13  1  0  0  0
  1  2  1  0  0  0
 24 25  1  0  0  0
 24 26  1  0  0  0
M  CHG 1   9   1
M  CHG 1  10  -1
M  END
> <minimizedAffinity>
-6.61575

$$$$
3MHL_J71_A_265


 26 27  0  0  0  0  0  0  0  0999 V2000
   -4.6194    5.1343   12.0650 N   0  0  0  0  0  0  0  0  0  0  0  0
   -5.2941    4.4203   12.0001 H   0  0  0  0  0  0  0  0  0  0  0  0
   -4.4686    8.0346    9.0917 N   0  0  0  0  0  0  0  0  0  0  0  0
   -4.9447    8.3082   10.3261 C   0  0  0  0  0  0  0  0  0  0  0  0
   -4.9990    7.3661   11.2890 N   0  0  0  0  0  0  0  0  0  0  0  0
   -4.5483    6.1079   11.0309 C   0  0  0  0  0  0  0  0  0  0  0  0
   -4.0050    5.7900    9.7362 C   0  0  0  0  0  0  0  0  0  0  0  0
   -3.9748    6.8286    8.7255 C   0  0  0  0  0  0  0  0  0  0  0  0
   -3.5196    4.3639    9.5758 N   0  0  0  0  0  0  0  0  0  0  0  0
   -2.4959    4.1109    9.0650 O   0  0  0  0  0  0  0  0  0  0  0  0
   -4.2407    3.3253    9.9743 O   0  0  0  0  0  0  0  0  0  0  0  0
   -3.4712    6.8023    7.2983 O   0  0  0  0  0  0  0  0  0  0  0  0
   -3.6519    7.8385    6.3277 C   0  0  0  0  0  0  0  0  0  0  0  0
   -3.7578    5.1568   13.1785 C   0  0  0  0  0  0  0  0  0  0  0  0
   -4.1478    4.1400   14.2376 C   0  0  0  0  0  0  0  0  0  0  0  0
   -3.2919    3.1644   14.8019 C   0  0  0  0  0  0  0  0  0  0  0  0
   -3.8709    2.2807   15.7832 C   0  0  0  0  0  0  0  0  0  0  0  0
   -5.2086    2.4818   16.2210 C   0  0  0  0  0  0  0  0  0  0  0  0
   -6.0370    3.4357   15.6427 C   0  0  0  0  0  0  0  0  0  0  0  0
   -5.4811    4.2886   14.6776 C   0  0  0  0  0  0  0  0  0  0  0  0
   -5.8224    1.3696   17.3912 S   0  0  0  0  0  0  0  0  0  0  0  0
   -5.0970    0.1537   17.3756 O   0  0  0  0  0  0  0  0  0  0  0  0
   -5.9217    2.1131   18.6532 O   0  0  0  0  0  0  0  0  0  0  0  0
   -7.3310    1.0029   16.7609 N   0  0  0  0  0  0  0  0  0  0  0  0
   -7.2187    0.4883   15.8875 H   0  0  0  0  0  0  0  0  0  0  0  0
   -7.8442    1.8663   16.5832 H   0  0  0  0  0  0  0  0  0  0  0  0
  3  4  2  0  0  0
  3  8  1  0  0  0
  4  5  1  0  0  0
  5  6  2  0  0  0
  6  7  1  0  0  0
  6  1  1  0  0  0
  7  8  2  0  0  0
  7  9  1  0  0  0
  8 12  1  0  0  0
  1 14  1  0  0  0
 15 16  2  0  0  0
 15 20  1  0  0  0
 15 14  1  0  0  0
 16 17  1  0  0  0
 17 18  2  0  0  0
 18 19  1  0  0  0
 18 21  1  0  0  0
 19 20  2  0  0  0
 21 22  2  0  0  0
 21 23  2  0  0  0
 21 24  1  0  0  0
  9 10  1  0  0  0
  9 11  2  0  0  0
 12 13  1  0  0  0
  1  2  1  0  0  0
 24 25  1  0  0  0
 24 26  1  0  0  0
M  CHG 1   9   1
M  CHG 1  10  -1
M  END
> <minimizedAffinity>
-6.56487

$$$$
3MHL_J71_A_265


 26 27  0  0  0  0  0  0  0  0999 V2000
   -4.3428    5.9249   12.6015 N   0  0  0  0  0  0  0  0  0  0  0  0
   -4.0413    6.2800   13.4688 H   0  0  0  0  0  0  0  0  0  0  0  0
   -6.2150    8.4634    9.8949 N   0  0  0  0  0  0  0  0  0  0  0  0
   -6.9194    7.6178   10.6785 C   0  0  0  0  0  0  0  0  0  0  0  0
   -6.3121    6.7902   11.5525 N   0  0  0  0  0  0  0  0  0  0  0  0
   -4.9563    6.8100   11.6729 C   0  0  0  0  0  0  0  0  0  0  0  0
   -4.1767    7.7212   10.8763 C   0  0  0  0  0  0  0  0  0  0  0  0
   -4.8678    8.5864    9.9409 C   0  0  0  0  0  0  0  0  0  0  0  0
   -2.6814    7.6631   11.1122 N   0  0  0  0  0  0  0  0  0  0  0  0
   -1.9773    6.9853   10.4659 O   0  0  0  0  0  0  0  0  0  0  0  0
   -2.0942    8.3496   12.0825 O   0  0  0  0  0  0  0  0  0  0  0  0
   -4.3347    9.6328    8.9859 O   0  0  0  0  0  0  0  0  0  0  0  0
   -5.1264   10.5258    8.1956 C   0  0  0  0  0  0  0  0  0  0  0  0
   -4.1519    4.5579   12.3228 C   0  0  0  0  0  0  0  0  0  0  0  0
   -4.5477    3.6652   13.4864 C   0  0  0  0  0  0  0  0  0  0  0  0
   -3.9310    2.4402   13.8356 C   0  0  0  0  0  0  0  0  0  0  0  0
   -4.4767    1.7377   14.9704 C   0  0  0  0  0  0  0  0  0  0  0  0
   -5.5103    2.3314   15.7455 C   0  0  0  0  0  0  0  0  0  0  0  0
   -6.1127    3.5279   15.3762 C   0  0  0  0  0  0  0  0  0  0  0  0
   -5.5934    4.2078   14.2645 C   0  0  0  0  0  0  0  0  0  0  0  0
   -6.1102    1.4140   17.0801 S   0  0  0  0  0  0  0  0  0  0  0  0
   -5.7887    2.0298   18.3139 O   0  0  0  0  0  0  0  0  0  0  0  0
   -7.5192    1.1282   16.7829 O   0  0  0  0  0  0  0  0  0  0  0  0
   -5.1627    0.0340   17.0042 N   0  0  0  0  0  0  0  0  0  0  0  0
   -4.1944    0.2744   17.2162 H   0  0  0  0  0  0  0  0  0  0  0  0
   -5.2168   -0.3643   16.0668 H   0  0  0  0  0  0  0  0  0  0  0  0
  3  4  2  0  0  0
  3  8  1  0  0  0
  4  5  1  0  0  0
  5  6  2  0  0  0
  6  7  1  0  0  0
  6  1  1  0  0  0
  7  8  2  0  0  0
  7  9  1  0  0  0
  8 12  1  0  0  0
  1 14  1  0  0  0
 15 16  2  0  0  0
 15 20  1  0  0  0
 15 14  1  0  0  0
 16 17  1  0  0  0
 17 18  2  0  0  0
 18 19  1  0  0  0
 18 21  1  0  0  0
 19 20  2  0  0  0
 21 22  2  0  0  0
 21 23  2  0  0  0
 21 24  1  0  0  0
  9 10  1  0  0  0
  9 11  2  0  0  0
 12 13  1  0  0  0
  1  2  1  0  0  0
 24 25  1  0  0  0
 24 26  1  0  0  0
M  CHG 1   9   1
M  CHG 1  10  -1
M  END
> <minimizedAffinity>
-6.47233

$$$$
