1Q8U_H52_A_961


 23 25  0  0  0  0  0  0  0  0999 V2000
    8.8999   11.3803    4.9812 O   0  0  0  0  0  0  0  0  0  0  0  0
    8.7710    9.9862    4.4776 S   0  0  0  0  0  0  0  0  0  0  0  0
    8.4555    8.9358    5.4539 O   0  0  0  0  0  0  0  0  0  0  0  0
    7.4316    9.9224    3.3006 C   0  0  0  0  0  0  0  0  0  0  0  0
    5.9918    9.9410    3.6078 C   0  0  0  0  0  0  0  0  0  0  0  0
    5.2975   10.0852    4.8774 C   0  0  0  0  0  0  0  0  0  0  0  0
    5.9126   10.3120    6.2247 C   0  0  0  0  0  0  0  0  0  0  0  0
    5.1064    9.7878    2.4989 C   0  0  0  0  0  0  0  0  0  0  0  0
    5.6077    9.6376    1.1759 C   0  0  0  0  0  0  0  0  0  0  0  0
    6.9521    9.6228    0.9315 C   0  0  0  0  0  0  0  0  0  0  0  0
    7.8683    9.7380    2.0056 C   0  0  0  0  0  0  0  0  0  0  0  0
    3.6911    9.7691    2.6843 C   0  0  0  0  0  0  0  0  0  0  0  0
    3.1485    9.8594    3.8740 N   0  0  0  0  0  0  0  0  0  0  0  0
    3.9226   10.0427    4.9630 C   0  0  0  0  0  0  0  0  0  0  0  0
   10.1616    9.3999    3.6669 N   0  0  0  0  0  0  0  0  0  0  0  0
   10.4969    7.9299    3.8751 C   0  0  0  0  0  0  0  0  0  0  0  0
    9.5798    6.9826    3.1214 C   0  0  0  0  0  0  0  0  0  0  0  0
   11.9567    7.5219    3.6422 C   0  0  0  0  0  0  0  0  0  0  0  0
   12.8049    8.1832    4.7103 N   0  0  0  0  0  0  0  0  0  0  0  0
   13.3465    9.4954    4.1674 C   0  0  0  0  0  0  0  0  0  0  0  0
   12.2975   10.6207    4.1082 C   0  0  0  0  0  0  0  0  0  0  0  0
   11.1988   10.3033    3.1022 C   0  0  0  0  0  0  0  0  0  0  0  0
   13.5807    7.5698    4.9598 H   0  0  0  0  0  0  0  0  0  0  0  0
  1  2  2  0  0  0
  2  3  2  0  0  0
  2 15  1  0  0  0
  2  4  1  0  0  0
 15 16  1  0  0  0
 15 22  1  0  0  0
 16 17  1  0  0  0
 16 18  1  0  0  0
 18 19  1  0  0  0
 19 20  1  0  0  0
 20 21  1  0  0  0
 21 22  1  0  0  0
  4  5  2  0  0  0
  4 11  1  0  0  0
  5  6  1  0  0  0
  5  8  1  0  0  0
  6  7  1  0  0  0
  6 14  2  0  0  0
  8  9  2  0  0  0
  8 12  1  0  0  0
  9 10  1  0  0  0
 10 11  2  0  0  0
 12 13  2  0  0  0
 13 14  1  0  0  0
 19 23  1  0  0  0
M  END
> <minimizedAffinity>
-8.78422

$$$$
1Q8U_H52_A_961


 23 25  0  0  0  0  0  0  0  0999 V2000
    9.6286    6.9615    2.6742 O   0  0  0  0  0  0  0  0  0  0  0  0
    9.7198    8.1400    1.7706 S   0  0  0  0  0  0  0  0  0  0  0  0
    9.7555    7.8882    0.3244 O   0  0  0  0  0  0  0  0  0  0  0  0
    8.2779    9.1624    2.0130 C   0  0  0  0  0  0  0  0  0  0  0  0
    7.6151    9.4550    3.2948 C   0  0  0  0  0  0  0  0  0  0  0  0
    7.9733    9.0772    4.6526 C   0  0  0  0  0  0  0  0  0  0  0  0
    9.1850    8.3116    5.0892 C   0  0  0  0  0  0  0  0  0  0  0  0
    6.4180   10.2293    3.2256 C   0  0  0  0  0  0  0  0  0  0  0  0
    5.9156   10.6923    1.9776 C   0  0  0  0  0  0  0  0  0  0  0  0
    6.5586   10.3975    0.8084 C   0  0  0  0  0  0  0  0  0  0  0  0
    7.7316    9.6037    0.8262 C   0  0  0  0  0  0  0  0  0  0  0  0
    5.6818   10.5531    4.4049 C   0  0  0  0  0  0  0  0  0  0  0  0
    6.0527   10.1308    5.5891 N   0  0  0  0  0  0  0  0  0  0  0  0
    7.1930    9.4256    5.7338 C   0  0  0  0  0  0  0  0  0  0  0  0
   11.0811    9.1404    2.0547 N   0  0  0  0  0  0  0  0  0  0  0  0
   11.7397    9.7520    0.8264 C   0  0  0  0  0  0  0  0  0  0  0  0
   10.9476   10.8946    0.2150 C   0  0  0  0  0  0  0  0  0  0  0  0
   13.2080   10.1691    0.9741 C   0  0  0  0  0  0  0  0  0  0  0  0
   14.0348    8.9140    1.1713 N   0  0  0  0  0  0  0  0  0  0  0  0
   14.2141    8.6708    2.6609 C   0  0  0  0  0  0  0  0  0  0  0  0
   12.9555    8.1170    3.3533 C   0  0  0  0  0  0  0  0  0  0  0  0
   11.8227    9.1352    3.3435 C   0  0  0  0  0  0  0  0  0  0  0  0
   14.9475    9.0328    0.7316 H   0  0  0  0  0  0  0  0  0  0  0  0
  1  2  2  0  0  0
  2  3  2  0  0  0
  2 15  1  0  0  0
  2  4  1  0  0  0
 15 16  1  0  0  0
 15 22  1  0  0  0
 16 17  1  0  0  0
 16 18  1  0  0  0
 18 19  1  0  0  0
 19 20  1  0  0  0
 20 21  1  0  0  0
 21 22  1  0  0  0
  4  5  2  0  0  0
  4 11  1  0  0  0
  5  6  1  0  0  0
  5  8  1  0  0  0
  6  7  1  0  0  0
  6 14  2  0  0  0
  8  9  2  0  0  0
  8 12  1  0  0  0
  9 10  1  0  0  0
 10 11  2  0  0  0
 12 13  2  0  0  0
 13 14  1  0  0  0
 19 23  1  0  0  0
M  END
> <minimizedAffinity>
-8.27820

$$$$
1Q8U_H52_A_961


 23 25  0  0  0  0  0  0  0  0999 V2000
   10.0663   11.2568    4.2763 O   0  0  0  0  0  0  0  0  0  0  0  0
    9.7932    9.9480    3.6234 S   0  0  0  0  0  0  0  0  0  0  0  0
    9.8177    8.7472    4.4682 O   0  0  0  0  0  0  0  0  0  0  0  0
    8.1466    9.9810    2.9373 C   0  0  0  0  0  0  0  0  0  0  0  0
    6.8840   10.0660    3.6898 C   0  0  0  0  0  0  0  0  0  0  0  0
    6.6411   10.2152    5.1158 C   0  0  0  0  0  0  0  0  0  0  0  0
    7.6663   10.3780    6.1963 C   0  0  0  0  0  0  0  0  0  0  0  0
    5.6834    9.9849    2.9221 C   0  0  0  0  0  0  0  0  0  0  0  0
    5.7263    9.8408    1.5073 C   0  0  0  0  0  0  0  0  0  0  0  0
    6.9190    9.7630    0.8449 C   0  0  0  0  0  0  0  0  0  0  0  0
    8.1354    9.8055    1.5696 C   0  0  0  0  0  0  0  0  0  0  0  0
    4.4029   10.0342    3.5511 C   0  0  0  0  0  0  0  0  0  0  0  0
    4.2751   10.1239    4.8525 N   0  0  0  0  0  0  0  0  0  0  0  0
    5.3656   10.2411    5.6371 C   0  0  0  0  0  0  0  0  0  0  0  0
   10.8531    9.5720    2.3311 N   0  0  0  0  0  0  0  0  0  0  0  0
   11.5465    8.2186    2.3964 C   0  0  0  0  0  0  0  0  0  0  0  0
   10.6333    7.0493    2.0719 C   0  0  0  0  0  0  0  0  0  0  0  0
   12.8537    8.0812    1.6064 C   0  0  0  0  0  0  0  0  0  0  0  0
   13.8871    8.9855    2.2482 N   0  0  0  0  0  0  0  0  0  0  0  0
   13.8853   10.3245    1.5290 C   0  0  0  0  0  0  0  0  0  0  0  0
   12.6819   11.2163    1.8848 C   0  0  0  0  0  0  0  0  0  0  0  0
   11.3744   10.6052    1.3976 C   0  0  0  0  0  0  0  0  0  0  0  0
   14.8101    8.5579    2.1730 H   0  0  0  0  0  0  0  0  0  0  0  0
  1  2  2  0  0  0
  2  3  2  0  0  0
  2 15  1  0  0  0
  2  4  1  0  0  0
 15 16  1  0  0  0
 15 22  1  0  0  0
 16 17  1  0  0  0
 16 18  1  0  0  0
 18 19  1  0  0  0
 19 20  1  0  0  0
 20 21  1  0  0  0
 21 22  1  0  0  0
  4  5  2  0  0  0
  4 11  1  0  0  0
  5  6  1  0  0  0
  5  8  1  0  0  0
  6  7  1  0  0  0
  6 14  2  0  0  0
  8  9  2  0  0  0
  8 12  1  0  0  0
  9 10  1  0  0  0
 10 11  2  0  0  0
 12 13  2  0  0  0
 13 14  1  0  0  0
 19 23  1  0  0  0
M  END
> <minimizedAffinity>
-8.20189

$$$$
1Q8U_H52_A_961


 23 25  0  0  0  0  0  0  0  0999 V2000
    9.0070   11.4286    5.0661 O   0  0  0  0  0  0  0  0  0  0  0  0
    8.8911   10.0283    4.5768 S   0  0  0  0  0  0  0  0  0  0  0  0
    8.5389    8.9918    5.5554 O   0  0  0  0  0  0  0  0  0  0  0  0
    7.5928    9.9525    3.3553 C   0  0  0  0  0  0  0  0  0  0  0  0
    6.1434    9.9583    3.6138 C   0  0  0  0  0  0  0  0  0  0  0  0
    5.4054   10.0964    4.8592 C   0  0  0  0  0  0  0  0  0  0  0  0
    5.9727   10.3287    6.2263 C   0  0  0  0  0  0  0  0  0  0  0  0
    5.2972    9.7971    2.4756 C   0  0  0  0  0  0  0  0  0  0  0  0
    5.8442    9.6513    1.1704 C   0  0  0  0  0  0  0  0  0  0  0  0
    7.1962    9.6485    0.9715 C   0  0  0  0  0  0  0  0  0  0  0  0
    8.0746    9.7719    2.0759 C   0  0  0  0  0  0  0  0  0  0  0  0
    3.8768    9.7658    2.6132 C   0  0  0  0  0  0  0  0  0  0  0  0
    3.2936    9.8514    3.7839 N   0  0  0  0  0  0  0  0  0  0  0  0
    4.0288   10.0415    4.8983 C   0  0  0  0  0  0  0  0  0  0  0  0
   10.3069    9.4275    3.8223 N   0  0  0  0  0  0  0  0  0  0  0  0
   10.9711   10.3425    2.8033 C   0  0  0  0  0  0  0  0  0  0  0  0
   11.7205   11.5071    3.4268 C   0  0  0  0  0  0  0  0  0  0  0  0
   11.8604    9.6654    1.7535 C   0  0  0  0  0  0  0  0  0  0  0  0
   10.9740    8.8131    0.8670 N   0  0  0  0  0  0  0  0  0  0  0  0
   10.9580    7.3921    1.4063 C   0  0  0  0  0  0  0  0  0  0  0  0
   10.0957    7.2196    2.6700 C   0  0  0  0  0  0  0  0  0  0  0  0
   10.6784    7.9880    3.8491 C   0  0  0  0  0  0  0  0  0  0  0  0
   11.3401    8.8137   -0.0850 H   0  0  0  0  0  0  0  0  0  0  0  0
  1  2  2  0  0  0
  2  3  2  0  0  0
  2 15  1  0  0  0
  2  4  1  0  0  0
 15 16  1  0  0  0
 15 22  1  0  0  0
 16 17  1  0  0  0
 16 18  1  0  0  0
 18 19  1  0  0  0
 19 20  1  0  0  0
 20 21  1  0  0  0
 21 22  1  0  0  0
  4  5  2  0  0  0
  4 11  1  0  0  0
  5  6  1  0  0  0
  5  8  1  0  0  0
  6  7  1  0  0  0
  6 14  2  0  0  0
  8  9  2  0  0  0
  8 12  1  0  0  0
  9 10  1  0  0  0
 10 11  2  0  0  0
 12 13  2  0  0  0
 13 14  1  0  0  0
 19 23  1  0  0  0
M  END
> <minimizedAffinity>
-8.10979

$$$$
1Q8U_H52_A_961


 23 25  0  0  0  0  0  0  0  0999 V2000
    9.7694    7.6900    1.7395 O   0  0  0  0  0  0  0  0  0  0  0  0
   10.1616    9.0545    2.1845 S   0  0  0  0  0  0  0  0  0  0  0  0
    9.8734   10.1749    1.2802 O   0  0  0  0  0  0  0  0  0  0  0  0
    9.2754    9.4469    3.6825 C   0  0  0  0  0  0  0  0  0  0  0  0
    7.8427    9.7661    3.7965 C   0  0  0  0  0  0  0  0  0  0  0  0
    6.7930    9.7759    2.7901 C   0  0  0  0  0  0  0  0  0  0  0  0
    6.9196    9.3947    1.3466 C   0  0  0  0  0  0  0  0  0  0  0  0
    7.3785   10.1371    5.0942 C   0  0  0  0  0  0  0  0  0  0  0  0
    8.2658   10.1794    6.2056 C   0  0  0  0  0  0  0  0  0  0  0  0
    9.5906    9.8783    6.0588 C   0  0  0  0  0  0  0  0  0  0  0  0
   10.1020    9.5373    4.7827 C   0  0  0  0  0  0  0  0  0  0  0  0
    6.0126   10.4882    5.3148 C   0  0  0  0  0  0  0  0  0  0  0  0
    5.1394   10.5153    4.3375 N   0  0  0  0  0  0  0  0  0  0  0  0
    5.4992   10.1417    3.0927 C   0  0  0  0  0  0  0  0  0  0  0  0
   11.8279    9.2251    2.5441 N   0  0  0  0  0  0  0  0  0  0  0  0
   12.5316   10.4298    1.9357 C   0  0  0  0  0  0  0  0  0  0  0  0
   12.1855   11.7444    2.6130 C   0  0  0  0  0  0  0  0  0  0  0  0
   14.0528   10.3231    1.7734 C   0  0  0  0  0  0  0  0  0  0  0  0
   14.3405    9.2487    0.7435 N   0  0  0  0  0  0  0  0  0  0  0  0
   14.5755    7.9291    1.4603 C   0  0  0  0  0  0  0  0  0  0  0  0
   13.2862    7.2731    1.9872 C   0  0  0  0  0  0  0  0  0  0  0  0
   12.6472    8.1099    3.0879 C   0  0  0  0  0  0  0  0  0  0  0  0
   15.1720    9.5007    0.2091 H   0  0  0  0  0  0  0  0  0  0  0  0
  1  2  2  0  0  0
  2  3  2  0  0  0
  2 15  1  0  0  0
  2  4  1  0  0  0
 15 16  1  0  0  0
 15 22  1  0  0  0
 16 17  1  0  0  0
 16 18  1  0  0  0
 18 19  1  0  0  0
 19 20  1  0  0  0
 20 21  1  0  0  0
 21 22  1  0  0  0
  4  5  2  0  0  0
  4 11  1  0  0  0
  5  6  1  0  0  0
  5  8  1  0  0  0
  6  7  1  0  0  0
  6 14  2  0  0  0
  8  9  2  0  0  0
  8 12  1  0  0  0
  9 10  1  0  0  0
 10 11  2  0  0  0
 12 13  2  0  0  0
 13 14  1  0  0  0
 19 23  1  0  0  0
M  END
> <minimizedAffinity>
-7.82241

$$$$
1Q8U_H52_A_961


 23 25  0  0  0  0  0  0  0  0999 V2000
    9.5787    7.9966    0.4401 O   0  0  0  0  0  0  0  0  0  0  0  0
    9.8446    8.1896    1.8912 S   0  0  0  0  0  0  0  0  0  0  0  0
    9.4935    7.0910    2.7999 O   0  0  0  0  0  0  0  0  0  0  0  0
   11.5973    8.4251    2.1275 C   0  0  0  0  0  0  0  0  0  0  0  0
   12.4534    9.3999    1.4314 C   0  0  0  0  0  0  0  0  0  0  0  0
   12.1169   10.4357    0.4677 C   0  0  0  0  0  0  0  0  0  0  0  0
   10.7506   10.8045   -0.0244 C   0  0  0  0  0  0  0  0  0  0  0  0
   13.8490    9.3390    1.7246 C   0  0  0  0  0  0  0  0  0  0  0  0
   14.3628    8.3882    2.6498 C   0  0  0  0  0  0  0  0  0  0  0  0
   13.5356    7.4976    3.2743 C   0  0  0  0  0  0  0  0  0  0  0  0
   12.1483    7.4996    2.9886 C   0  0  0  0  0  0  0  0  0  0  0  0
   14.7735   10.2223    1.0900 C   0  0  0  0  0  0  0  0  0  0  0  0
   14.3887   11.0992    0.1949 N   0  0  0  0  0  0  0  0  0  0  0  0
   13.0811   11.2370   -0.1046 C   0  0  0  0  0  0  0  0  0  0  0  0
    9.0719    9.5587    2.5719 N   0  0  0  0  0  0  0  0  0  0  0  0
    9.3187    9.8086    4.0528 C   0  0  0  0  0  0  0  0  0  0  0  0
   10.7015   10.3586    4.3562 C   0  0  0  0  0  0  0  0  0  0  0  0
    8.2637   10.6416    4.7909 C   0  0  0  0  0  0  0  0  0  0  0  0
    6.9757    9.8430    4.8261 N   0  0  0  0  0  0  0  0  0  0  0  0
    6.1102   10.2512    3.6452 C   0  0  0  0  0  0  0  0  0  0  0  0
    6.5903    9.6791    2.2990 C   0  0  0  0  0  0  0  0  0  0  0  0
    7.9428   10.2558    1.9012 C   0  0  0  0  0  0  0  0  0  0  0  0
    6.4790   10.0329    5.6964 H   0  0  0  0  0  0  0  0  0  0  0  0
  1  2  2  0  0  0
  2  3  2  0  0  0
  2 15  1  0  0  0
  2  4  1  0  0  0
 15 16  1  0  0  0
 15 22  1  0  0  0
 16 17  1  0  0  0
 16 18  1  0  0  0
 18 19  1  0  0  0
 19 20  1  0  0  0
 20 21  1  0  0  0
 21 22  1  0  0  0
  4  5  2  0  0  0
  4 11  1  0  0  0
  5  6  1  0  0  0
  5  8  1  0  0  0
  6  7  1  0  0  0
  6 14  2  0  0  0
  8  9  2  0  0  0
  8 12  1  0  0  0
  9 10  1  0  0  0
 10 11  2  0  0  0
 12 13  2  0  0  0
 13 14  1  0  0  0
 19 23  1  0  0  0
M  END
> <minimizedAffinity>
-7.70854

$$$$
1Q8U_H52_A_961


 23 25  0  0  0  0  0  0  0  0999 V2000
    9.8382    6.6409    2.8469 O   0  0  0  0  0  0  0  0  0  0  0  0
   10.1092    7.6941    1.8315 S   0  0  0  0  0  0  0  0  0  0  0  0
   10.2110    7.2764    0.4275 O   0  0  0  0  0  0  0  0  0  0  0  0
    8.7691    8.8717    1.8538 C   0  0  0  0  0  0  0  0  0  0  0  0
    7.9992    9.3027    3.0325 C   0  0  0  0  0  0  0  0  0  0  0  0
    8.1556    8.9670    4.4388 C   0  0  0  0  0  0  0  0  0  0  0  0
    9.2183    8.1064    5.0510 C   0  0  0  0  0  0  0  0  0  0  0  0
    6.9095   10.1910    2.7860 C   0  0  0  0  0  0  0  0  0  0  0  0
    6.6073   10.6324    1.4676 C   0  0  0  0  0  0  0  0  0  0  0  0
    7.3445   10.2075    0.3983 C   0  0  0  0  0  0  0  0  0  0  0  0
    8.4142    9.2994    0.5918 C   0  0  0  0  0  0  0  0  0  0  0  0
    6.0823   10.6548    3.8529 C   0  0  0  0  0  0  0  0  0  0  0  0
    6.2664   10.2639    5.0904 N   0  0  0  0  0  0  0  0  0  0  0  0
    7.2988    9.4542    5.4020 C   0  0  0  0  0  0  0  0  0  0  0  0
   11.5463    8.5846    2.1083 N   0  0  0  0  0  0  0  0  0  0  0  0
   12.1081    8.5405    3.5222 C   0  0  0  0  0  0  0  0  0  0  0  0
   12.7810    7.2241    3.8701 C   0  0  0  0  0  0  0  0  0  0  0  0
   13.0182    9.7043    3.9330 C   0  0  0  0  0  0  0  0  0  0  0  0
   12.1771   10.9646    3.9775 N   0  0  0  0  0  0  0  0  0  0  0  0
   12.2875   11.6784    2.6401 C   0  0  0  0  0  0  0  0  0  0  0  0
   11.4768   11.0114    1.5140 C   0  0  0  0  0  0  0  0  0  0  0  0
   12.0300    9.6339    1.1725 C   0  0  0  0  0  0  0  0  0  0  0  0
   12.5155   11.5759    4.7206 H   0  0  0  0  0  0  0  0  0  0  0  0
  1  2  2  0  0  0
  2  3  2  0  0  0
  2 15  1  0  0  0
  2  4  1  0  0  0
 15 16  1  0  0  0
 15 22  1  0  0  0
 16 17  1  0  0  0
 16 18  1  0  0  0
 18 19  1  0  0  0
 19 20  1  0  0  0
 20 21  1  0  0  0
 21 22  1  0  0  0
  4  5  2  0  0  0
  4 11  1  0  0  0
  5  6  1  0  0  0
  5  8  1  0  0  0
  6  7  1  0  0  0
  6 14  2  0  0  0
  8  9  2  0  0  0
  8 12  1  0  0  0
  9 10  1  0  0  0
 10 11  2  0  0  0
 12 13  2  0  0  0
 13 14  1  0  0  0
 19 23  1  0  0  0
M  END
> <minimizedAffinity>
-7.64589

$$$$
1Q8U_H52_A_961


 23 25  0  0  0  0  0  0  0  0999 V2000
    7.8200    8.6445    1.1210 O   0  0  0  0  0  0  0  0  0  0  0  0
    8.4873    9.7132    1.9124 S   0  0  0  0  0  0  0  0  0  0  0  0
    8.5133   11.0665    1.3433 O   0  0  0  0  0  0  0  0  0  0  0  0
    7.6311    9.8961    3.4670 C   0  0  0  0  0  0  0  0  0  0  0  0
    6.1728    9.9064    3.6698 C   0  0  0  0  0  0  0  0  0  0  0  0
    5.0853    9.7055    2.7255 C   0  0  0  0  0  0  0  0  0  0  0  0
    5.2011    9.3736    1.2691 C   0  0  0  0  0  0  0  0  0  0  0  0
    5.7209   10.1589    5.0000 C   0  0  0  0  0  0  0  0  0  0  0  0
    6.6454   10.3755    6.0595 C   0  0  0  0  0  0  0  0  0  0  0  0
    7.9925   10.3607    5.8305 C   0  0  0  0  0  0  0  0  0  0  0  0
    8.4856   10.1472    4.5199 C   0  0  0  0  0  0  0  0  0  0  0  0
    4.3277   10.2133    5.3060 C   0  0  0  0  0  0  0  0  0  0  0  0
    3.4106   10.0661    4.3811 N   0  0  0  0  0  0  0  0  0  0  0  0
    3.7644    9.7887    3.1098 C   0  0  0  0  0  0  0  0  0  0  0  0
   10.1256    9.3877    2.2928 N   0  0  0  0  0  0  0  0  0  0  0  0
   10.3957    8.1233    3.0958 C   0  0  0  0  0  0  0  0  0  0  0  0
   10.2637    6.8460    2.2848 C   0  0  0  0  0  0  0  0  0  0  0  0
   11.7031    8.0879    3.8965 C   0  0  0  0  0  0  0  0  0  0  0  0
   11.6111    9.1319    4.9917 N   0  0  0  0  0  0  0  0  0  0  0  0
   12.2414   10.4231    4.4961 C   0  0  0  0  0  0  0  0  0  0  0  0
   11.3635   11.1959    3.4951 C   0  0  0  0  0  0  0  0  0  0  0  0
   11.1901   10.4213    2.1951 C   0  0  0  0  0  0  0  0  0  0  0  0
   12.1083    8.8040    5.8197 H   0  0  0  0  0  0  0  0  0  0  0  0
  1  2  2  0  0  0
  2  3  2  0  0  0
  2 15  1  0  0  0
  2  4  1  0  0  0
 15 16  1  0  0  0
 15 22  1  0  0  0
 16 17  1  0  0  0
 16 18  1  0  0  0
 18 19  1  0  0  0
 19 20  1  0  0  0
 20 21  1  0  0  0
 21 22  1  0  0  0
  4  5  2  0  0  0
  4 11  1  0  0  0
  5  6  1  0  0  0
  5  8  1  0  0  0
  6  7  1  0  0  0
  6 14  2  0  0  0
  8  9  2  0  0  0
  8 12  1  0  0  0
  9 10  1  0  0  0
 10 11  2  0  0  0
 12 13  2  0  0  0
 13 14  1  0  0  0
 19 23  1  0  0  0
M  END
> <minimizedAffinity>
-7.63031

$$$$
1Q8U_H52_A_961


 23 25  0  0  0  0  0  0  0  0999 V2000
   12.0037   11.6821    1.8186 O   0  0  0  0  0  0  0  0  0  0  0  0
   11.8282   10.6875    2.9112 S   0  0  0  0  0  0  0  0  0  0  0  0
   12.3571   11.0318    4.2370 O   0  0  0  0  0  0  0  0  0  0  0  0
   10.0831   10.4285    3.1771 C   0  0  0  0  0  0  0  0  0  0  0  0
    9.0755   10.1176    2.1495 C   0  0  0  0  0  0  0  0  0  0  0  0
    9.2232    9.8732    0.7236 C   0  0  0  0  0  0  0  0  0  0  0  0
   10.5000    9.8262   -0.0590 C   0  0  0  0  0  0  0  0  0  0  0  0
    7.7210   10.0438    2.5936 C   0  0  0  0  0  0  0  0  0  0  0  0
    7.3854   10.2518    3.9605 C   0  0  0  0  0  0  0  0  0  0  0  0
    8.3497   10.5410    4.8845 C   0  0  0  0  0  0  0  0  0  0  0  0
    9.7031   10.6572    4.4829 C   0  0  0  0  0  0  0  0  0  0  0  0
    6.6603    9.7705    1.6783 C   0  0  0  0  0  0  0  0  0  0  0  0
    6.8784    9.6079    0.3961 N   0  0  0  0  0  0  0  0  0  0  0  0
    8.1368    9.6283   -0.0882 C   0  0  0  0  0  0  0  0  0  0  0  0
   12.5047    9.1494    2.5774 N   0  0  0  0  0  0  0  0  0  0  0  0
   12.3523    8.0931    3.6626 C   0  0  0  0  0  0  0  0  0  0  0  0
   10.9480    7.5238    3.7663 C   0  0  0  0  0  0  0  0  0  0  0  0
   13.3695    6.9456    3.6476 C   0  0  0  0  0  0  0  0  0  0  0  0
   14.7329    7.5230    3.9724 N   0  0  0  0  0  0  0  0  0  0  0  0
   15.4536    7.8461    2.6738 C   0  0  0  0  0  0  0  0  0  0  0  0
   14.9301    9.1139    1.9746 C   0  0  0  0  0  0  0  0  0  0  0  0
   13.4971    8.9304    1.4920 C   0  0  0  0  0  0  0  0  0  0  0  0
   15.2750    6.8422    4.5045 H   0  0  0  0  0  0  0  0  0  0  0  0
  1  2  2  0  0  0
  2  3  2  0  0  0
  2 15  1  0  0  0
  2  4  1  0  0  0
 15 16  1  0  0  0
 15 22  1  0  0  0
 16 17  1  0  0  0
 16 18  1  0  0  0
 18 19  1  0  0  0
 19 20  1  0  0  0
 20 21  1  0  0  0
 21 22  1  0  0  0
  4  5  2  0  0  0
  4 11  1  0  0  0
  5  6  1  0  0  0
  5  8  1  0  0  0
  6  7  1  0  0  0
  6 14  2  0  0  0
  8  9  2  0  0  0
  8 12  1  0  0  0
  9 10  1  0  0  0
 10 11  2  0  0  0
 12 13  2  0  0  0
 13 14  1  0  0  0
 19 23  1  0  0  0
M  END
> <minimizedAffinity>
-7.58770

$$$$
1Q8U_H52_A_961


 23 25  0  0  0  0  0  0  0  0999 V2000
   11.1097   11.3236    3.8916 O   0  0  0  0  0  0  0  0  0  0  0  0
   10.5781   10.1715    4.6687 S   0  0  0  0  0  0  0  0  0  0  0  0
   10.7948   10.1714    6.1210 O   0  0  0  0  0  0  0  0  0  0  0  0
    8.8048   10.1202    4.4792 C   0  0  0  0  0  0  0  0  0  0  0  0
    8.0525   10.2552    3.2207 C   0  0  0  0  0  0  0  0  0  0  0  0
    8.5188   10.3840    1.8494 C   0  0  0  0  0  0  0  0  0  0  0  0
    9.9379   10.3550    1.3695 C   0  0  0  0  0  0  0  0  0  0  0  0
    6.6297   10.2723    3.3331 C   0  0  0  0  0  0  0  0  0  0  0  0
    5.9929   10.1533    4.5998 C   0  0  0  0  0  0  0  0  0  0  0  0
    6.7265   10.0322    5.7463 C   0  0  0  0  0  0  0  0  0  0  0  0
    8.1417   10.0441    5.6859 C   0  0  0  0  0  0  0  0  0  0  0  0
    5.8022   10.4209    2.1795 C   0  0  0  0  0  0  0  0  0  0  0  0
    6.3089   10.5782    0.9809 N   0  0  0  0  0  0  0  0  0  0  0  0
    7.6439   10.5357    0.7954 C   0  0  0  0  0  0  0  0  0  0  0  0
   11.1680    8.6464    4.1577 N   0  0  0  0  0  0  0  0  0  0  0  0
   12.5299    8.6407    3.4781 C   0  0  0  0  0  0  0  0  0  0  0  0
   13.6907    8.8398    4.4371 C   0  0  0  0  0  0  0  0  0  0  0  0
   12.8279    7.4538    2.5539 C   0  0  0  0  0  0  0  0  0  0  0  0
   11.8928    7.5395    1.3639 N   0  0  0  0  0  0  0  0  0  0  0  0
   10.6620    6.6921    1.6421 C   0  0  0  0  0  0  0  0  0  0  0  0
    9.6790    7.3365    2.6364 C   0  0  0  0  0  0  0  0  0  0  0  0
   10.2913    7.4527    4.0263 C   0  0  0  0  0  0  0  0  0  0  0  0
   12.3667    7.1914    0.5304 H   0  0  0  0  0  0  0  0  0  0  0  0
  1  2  2  0  0  0
  2  3  2  0  0  0
  2 15  1  0  0  0
  2  4  1  0  0  0
 15 16  1  0  0  0
 15 22  1  0  0  0
 16 17  1  0  0  0
 16 18  1  0  0  0
 18 19  1  0  0  0
 19 20  1  0  0  0
 20 21  1  0  0  0
 21 22  1  0  0  0
  4  5  2  0  0  0
  4 11  1  0  0  0
  5  6  1  0  0  0
  5  8  1  0  0  0
  6  7  1  0  0  0
  6 14  2  0  0  0
  8  9  2  0  0  0
  8 12  1  0  0  0
  9 10  1  0  0  0
 10 11  2  0  0  0
 12 13  2  0  0  0
 13 14  1  0  0  0
 19 23  1  0  0  0
M  END
> <minimizedAffinity>
-7.40910

$$$$
