3ED0_EMO_A_163


 23 25  0  0  0  0  0  0  0  0999 V2000
  -54.4049  -10.9810  -11.9247 C   0  0  0  0  0  0  0  0  0  0  0  0
  -53.2733  -10.2930  -11.6241 O   0  0  0  0  0  0  0  0  0  0  0  0
  -55.5712  -10.2948  -12.2187 C   0  0  0  0  0  0  0  0  0  0  0  0
  -56.7259  -10.9926  -12.5149 C   0  0  0  0  0  0  0  0  0  0  0  0
  -57.8686  -10.3217  -12.7973 O   0  0  0  0  0  0  0  0  0  0  0  0
  -56.7111  -12.3803  -12.5215 C   0  0  0  0  0  0  0  0  0  0  0  0
  -55.5433  -13.0768  -12.2265 C   0  0  0  0  0  0  0  0  0  0  0  0
  -55.5133  -14.4655  -12.2375 C   0  0  0  0  0  0  0  0  0  0  0  0
  -56.5333  -15.0975  -12.5041 O   0  0  0  0  0  0  0  0  0  0  0  0
  -54.3352  -15.1444  -11.9472 C   0  0  0  0  0  0  0  0  0  0  0  0
  -54.3043  -16.5293  -11.9613 C   0  0  0  0  0  0  0  0  0  0  0  0
  -53.1378  -17.2167  -11.6652 C   0  0  0  0  0  0  0  0  0  0  0  0
  -53.1434  -18.7392  -11.6855 C   0  0  0  0  0  0  0  0  0  0  0  0
  -51.9834  -16.5283  -11.3503 C   0  0  0  0  0  0  0  0  0  0  0  0
  -52.0120  -15.1418  -11.3453 C   0  0  0  0  0  0  0  0  0  0  0  0
  -50.8757  -14.4645  -11.0479 O   0  0  0  0  0  0  0  0  0  0  0  0
  -53.1855  -14.4453  -11.6413 C   0  0  0  0  0  0  0  0  0  0  0  0
  -53.2282  -13.0604  -11.6322 C   0  0  0  0  0  0  0  0  0  0  0  0
  -52.2285  -12.4058  -11.3727 O   0  0  0  0  0  0  0  0  0  0  0  0
  -54.3926  -12.3767  -11.9258 C   0  0  0  0  0  0  0  0  0  0  0  0
  -53.2809   -9.3560  -11.6232 H   0  0  0  0  0  0  0  0  0  0  0  0
  -57.8753   -9.3848  -12.7921 H   0  0  0  0  0  0  0  0  0  0  0  0
  -50.0892  -14.9335  -10.8495 H   0  0  0  0  0  0  0  0  0  0  0  0
  1  2  1  0  0  0
  1  3  2  0  0  0
  1 20  1  0  0  0
  3  4  1  0  0  0
  4  5  1  0  0  0
  4  6  2  0  0  0
  6  7  1  0  0  0
  7  8  1  0  0  0
  7 20  2  0  0  0
  8  9  2  0  0  0
  8 10  1  0  0  0
 10 11  2  0  0  0
 10 17  1  0  0  0
 11 12  1  0  0  0
 12 13  1  0  0  0
 12 14  2  0  0  0
 14 15  1  0  0  0
 15 16  1  0  0  0
 15 17  2  0  0  0
 17 18  1  0  0  0
 18 19  2  0  0  0
 18 20  1  0  0  0
  2 21  1  0  0  0
  5 22  1  0  0  0
 16 23  1  0  0  0
M  END
> <minimizedAffinity>
-9.80468

$$$$
3ED0_EMO_A_163


 23 25  0  0  0  0  0  0  0  0999 V2000
  -55.1694  -12.2309  -10.9629 C   0  0  0  0  0  0  0  0  0  0  0  0
  -56.3443  -12.5823  -11.5463 O   0  0  0  0  0  0  0  0  0  0  0  0
  -55.1071  -11.1013  -10.1643 C   0  0  0  0  0  0  0  0  0  0  0  0
  -53.9108  -10.7363   -9.5780 C   0  0  0  0  0  0  0  0  0  0  0  0
  -53.8480   -9.6282   -8.8011 O   0  0  0  0  0  0  0  0  0  0  0  0
  -52.7760  -11.5070   -9.7882 C   0  0  0  0  0  0  0  0  0  0  0  0
  -52.8305  -12.6429  -10.5898 C   0  0  0  0  0  0  0  0  0  0  0  0
  -51.7037  -13.4271  -10.8015 C   0  0  0  0  0  0  0  0  0  0  0  0
  -50.6345  -13.1150  -10.2815 O   0  0  0  0  0  0  0  0  0  0  0  0
  -51.7789  -14.5629  -11.5999 C   0  0  0  0  0  0  0  0  0  0  0  0
  -50.6560  -15.3468  -11.8085 C   0  0  0  0  0  0  0  0  0  0  0  0
  -50.7173  -16.4764  -12.6093 C   0  0  0  0  0  0  0  0  0  0  0  0
  -49.4611  -17.3107  -12.8198 C   0  0  0  0  0  0  0  0  0  0  0  0
  -51.9040  -16.8392  -13.2140 C   0  0  0  0  0  0  0  0  0  0  0  0
  -53.0304  -16.0595  -12.9976 C   0  0  0  0  0  0  0  0  0  0  0  0
  -54.1993  -16.4215  -13.5813 O   0  0  0  0  0  0  0  0  0  0  0  0
  -52.9727  -14.9197  -12.1930 C   0  0  0  0  0  0  0  0  0  0  0  0
  -54.0894  -14.1289  -11.9755 C   0  0  0  0  0  0  0  0  0  0  0  0
  -55.1665  -14.4161  -12.4781 O   0  0  0  0  0  0  0  0  0  0  0  0
  -54.0260  -13.0020  -11.1783 C   0  0  0  0  0  0  0  0  0  0  0  0
  -57.1122  -12.0651  -11.4020 H   0  0  0  0  0  0  0  0  0  0  0  0
  -54.6161   -9.1100   -8.6611 H   0  0  0  0  0  0  0  0  0  0  0  0
  -54.2362  -17.1866  -14.1210 H   0  0  0  0  0  0  0  0  0  0  0  0
  1  2  1  0  0  0
  1  3  2  0  0  0
  1 20  1  0  0  0
  3  4  1  0  0  0
  4  5  1  0  0  0
  4  6  2  0  0  0
  6  7  1  0  0  0
  7  8  1  0  0  0
  7 20  2  0  0  0
  8  9  2  0  0  0
  8 10  1  0  0  0
 10 11  2  0  0  0
 10 17  1  0  0  0
 11 12  1  0  0  0
 12 13  1  0  0  0
 12 14  2  0  0  0
 14 15  1  0  0  0
 15 16  1  0  0  0
 15 17  2  0  0  0
 17 18  1  0  0  0
 18 19  2  0  0  0
 18 20  1  0  0  0
  2 21  1  0  0  0
  5 22  1  0  0  0
 16 23  1  0  0  0
M  END
> <minimizedAffinity>
-9.67199

$$$$
3ED0_EMO_A_163


 23 25  0  0  0  0  0  0  0  0999 V2000
  -52.2767  -10.6052   -8.6008 C   0  0  0  0  0  0  0  0  0  0  0  0
  -53.2219   -9.6489   -8.7908 O   0  0  0  0  0  0  0  0  0  0  0  0
  -51.3040  -10.4299   -7.6308 C   0  0  0  0  0  0  0  0  0  0  0  0
  -50.3355  -11.3966   -7.4427 C   0  0  0  0  0  0  0  0  0  0  0  0
  -49.3804  -11.2231   -6.4975 O   0  0  0  0  0  0  0  0  0  0  0  0
  -50.3442  -12.5434   -8.2242 C   0  0  0  0  0  0  0  0  0  0  0  0
  -51.3178  -12.7265   -9.2012 C   0  0  0  0  0  0  0  0  0  0  0  0
  -51.3422  -13.8733   -9.9846 C   0  0  0  0  0  0  0  0  0  0  0  0
  -50.4884  -14.7428   -9.8233 O   0  0  0  0  0  0  0  0  0  0  0  0
  -52.3273  -14.0422  -10.9512 C   0  0  0  0  0  0  0  0  0  0  0  0
  -52.3536  -15.1872  -11.7303 C   0  0  0  0  0  0  0  0  0  0  0  0
  -53.3257  -15.3624  -12.7027 C   0  0  0  0  0  0  0  0  0  0  0  0
  -53.3197  -16.6320  -13.5433 C   0  0  0  0  0  0  0  0  0  0  0  0
  -54.2870  -14.3937  -12.9104 C   0  0  0  0  0  0  0  0  0  0  0  0
  -54.2660  -13.2515  -12.1240 C   0  0  0  0  0  0  0  0  0  0  0  0
  -55.2169  -12.3049  -12.3190 O   0  0  0  0  0  0  0  0  0  0  0  0
  -53.2875  -13.0702  -11.1445 C   0  0  0  0  0  0  0  0  0  0  0  0
  -53.2519  -11.9301  -10.3580 C   0  0  0  0  0  0  0  0  0  0  0  0
  -54.0895  -11.0498  -10.4947 O   0  0  0  0  0  0  0  0  0  0  0  0
  -52.2809  -11.7563   -9.3903 C   0  0  0  0  0  0  0  0  0  0  0  0
  -53.2196   -8.8760   -8.2611 H   0  0  0  0  0  0  0  0  0  0  0  0
  -49.3773  -10.4477   -5.9715 H   0  0  0  0  0  0  0  0  0  0  0  0
  -55.8727  -12.4282  -12.9767 H   0  0  0  0  0  0  0  0  0  0  0  0
  1  2  1  0  0  0
  1  3  2  0  0  0
  1 20  1  0  0  0
  3  4  1  0  0  0
  4  5  1  0  0  0
  4  6  2  0  0  0
  6  7  1  0  0  0
  7  8  1  0  0  0
  7 20  2  0  0  0
  8  9  2  0  0  0
  8 10  1  0  0  0
 10 11  2  0  0  0
 10 17  1  0  0  0
 11 12  1  0  0  0
 12 13  1  0  0  0
 12 14  2  0  0  0
 14 15  1  0  0  0
 15 16  1  0  0  0
 15 17  2  0  0  0
 17 18  1  0  0  0
 18 19  2  0  0  0
 18 20  1  0  0  0
  2 21  1  0  0  0
  5 22  1  0  0  0
 16 23  1  0  0  0
M  END
> <minimizedAffinity>
-9.44525

$$$$
3ED0_EMO_A_163


 23 25  0  0  0  0  0  0  0  0999 V2000
  -56.1593  -13.1191  -11.0243 C   0  0  0  0  0  0  0  0  0  0  0  0
  -55.7421  -11.8783  -10.6629 O   0  0  0  0  0  0  0  0  0  0  0  0
  -57.5131  -13.4085  -11.0581 C   0  0  0  0  0  0  0  0  0  0  0  0
  -57.9393  -14.6727  -11.4156 C   0  0  0  0  0  0  0  0  0  0  0  0
  -59.2635  -14.9580  -11.4435 O   0  0  0  0  0  0  0  0  0  0  0  0
  -57.0080  -15.6476  -11.7446 C   0  0  0  0  0  0  0  0  0  0  0  0
  -55.6461  -15.3647  -11.7123 C   0  0  0  0  0  0  0  0  0  0  0  0
  -54.7042  -16.3293  -12.0471 C   0  0  0  0  0  0  0  0  0  0  0  0
  -55.0715  -17.4566  -12.3713 O   0  0  0  0  0  0  0  0  0  0  0  0
  -53.3476  -16.0261  -12.0161 C   0  0  0  0  0  0  0  0  0  0  0  0
  -52.4084  -16.9869  -12.3530 C   0  0  0  0  0  0  0  0  0  0  0  0
  -51.0532  -16.6985  -12.3174 C   0  0  0  0  0  0  0  0  0  0  0  0
  -50.0499  -17.7818  -12.6894 C   0  0  0  0  0  0  0  0  0  0  0  0
  -50.6168  -15.4432  -11.9440 C   0  0  0  0  0  0  0  0  0  0  0  0
  -51.5576  -14.4786  -11.6157 C   0  0  0  0  0  0  0  0  0  0  0  0
  -51.1305  -13.2418  -11.2604 O   0  0  0  0  0  0  0  0  0  0  0  0
  -52.9238  -14.7654  -11.6485 C   0  0  0  0  0  0  0  0  0  0  0  0
  -53.8725  -13.8122  -11.3154 C   0  0  0  0  0  0  0  0  0  0  0  0
  -53.5365  -12.6821  -10.9913 O   0  0  0  0  0  0  0  0  0  0  0  0
  -55.2232  -14.1021  -11.3497 C   0  0  0  0  0  0  0  0  0  0  0  0
  -56.3700  -11.2180  -10.4444 H   0  0  0  0  0  0  0  0  0  0  0  0
  -59.8898  -14.2976  -11.2208 H   0  0  0  0  0  0  0  0  0  0  0  0
  -50.2134  -13.0511  -11.2389 H   0  0  0  0  0  0  0  0  0  0  0  0
  1  2  1  0  0  0
  1  3  2  0  0  0
  1 20  1  0  0  0
  3  4  1  0  0  0
  4  5  1  0  0  0
  4  6  2  0  0  0
  6  7  1  0  0  0
  7  8  1  0  0  0
  7 20  2  0  0  0
  8  9  2  0  0  0
  8 10  1  0  0  0
 10 11  2  0  0  0
 10 17  1  0  0  0
 11 12  1  0  0  0
 12 13  1  0  0  0
 12 14  2  0  0  0
 14 15  1  0  0  0
 15 16  1  0  0  0
 15 17  2  0  0  0
 17 18  1  0  0  0
 18 19  2  0  0  0
 18 20  1  0  0  0
  2 21  1  0  0  0
  5 22  1  0  0  0
 16 23  1  0  0  0
M  END
> <minimizedAffinity>
-9.39980

$$$$
3ED0_EMO_A_163


 23 25  0  0  0  0  0  0  0  0999 V2000
  -56.3836  -11.6791  -12.2528 C   0  0  0  0  0  0  0  0  0  0  0  0
  -57.6742  -11.2848  -12.4044 O   0  0  0  0  0  0  0  0  0  0  0  0
  -55.3814  -10.7301  -12.1411 C   0  0  0  0  0  0  0  0  0  0  0  0
  -54.0669  -11.1289  -11.9970 C   0  0  0  0  0  0  0  0  0  0  0  0
  -53.0854  -10.2008  -11.8931 O   0  0  0  0  0  0  0  0  0  0  0  0
  -53.7561  -12.4810  -11.9599 C   0  0  0  0  0  0  0  0  0  0  0  0
  -54.7574  -13.4405  -12.0722 C   0  0  0  0  0  0  0  0  0  0  0  0
  -54.4603  -14.7967  -12.0285 C   0  0  0  0  0  0  0  0  0  0  0  0
  -53.2948  -15.1639  -11.8961 O   0  0  0  0  0  0  0  0  0  0  0  0
  -55.4751  -15.7412  -12.1351 C   0  0  0  0  0  0  0  0  0  0  0  0
  -55.1794  -17.0937  -12.0884 C   0  0  0  0  0  0  0  0  0  0  0  0
  -56.1817  -18.0442  -12.2023 C   0  0  0  0  0  0  0  0  0  0  0  0
  -55.8180  -19.5219  -12.1516 C   0  0  0  0  0  0  0  0  0  0  0  0
  -57.4964  -17.6555  -12.3646 C   0  0  0  0  0  0  0  0  0  0  0  0
  -57.7934  -16.3013  -12.4021 C   0  0  0  0  0  0  0  0  0  0  0  0
  -59.0856  -15.9183  -12.5495 O   0  0  0  0  0  0  0  0  0  0  0  0
  -56.7865  -15.3404  -12.2895 C   0  0  0  0  0  0  0  0  0  0  0  0
  -57.0701  -13.9849  -12.3331 C   0  0  0  0  0  0  0  0  0  0  0  0
  -58.2204  -13.5906  -12.4619 O   0  0  0  0  0  0  0  0  0  0  0  0
  -56.0692  -13.0387  -12.2213 C   0  0  0  0  0  0  0  0  0  0  0  0
  -57.8859  -10.3722  -12.4256 H   0  0  0  0  0  0  0  0  0  0  0  0
  -53.2985   -9.2887  -11.9185 H   0  0  0  0  0  0  0  0  0  0  0  0
  -59.7600  -16.5644  -12.6249 H   0  0  0  0  0  0  0  0  0  0  0  0
  1  2  1  0  0  0
  1  3  2  0  0  0
  1 20  1  0  0  0
  3  4  1  0  0  0
  4  5  1  0  0  0
  4  6  2  0  0  0
  6  7  1  0  0  0
  7  8  1  0  0  0
  7 20  2  0  0  0
  8  9  2  0  0  0
  8 10  1  0  0  0
 10 11  2  0  0  0
 10 17  1  0  0  0
 11 12  1  0  0  0
 12 13  1  0  0  0
 12 14  2  0  0  0
 14 15  1  0  0  0
 15 16  1  0  0  0
 15 17  2  0  0  0
 17 18  1  0  0  0
 18 19  2  0  0  0
 18 20  1  0  0  0
  2 21  1  0  0  0
  5 22  1  0  0  0
 16 23  1  0  0  0
M  END
> <minimizedAffinity>
-9.39673

$$$$
3ED0_EMO_A_163


 23 25  0  0  0  0  0  0  0  0999 V2000
  -55.7275  -14.6449  -11.4113 C   0  0  0  0  0  0  0  0  0  0  0  0
  -56.6968  -15.5755  -11.6081 O   0  0  0  0  0  0  0  0  0  0  0  0
  -56.0736  -13.3587  -11.0325 C   0  0  0  0  0  0  0  0  0  0  0  0
  -55.0901  -12.4078  -10.8416 C   0  0  0  0  0  0  0  0  0  0  0  0
  -55.4285  -11.1478  -10.4762 O   0  0  0  0  0  0  0  0  0  0  0  0
  -53.7571  -12.7472  -11.0258 C   0  0  0  0  0  0  0  0  0  0  0  0
  -53.4015  -14.0372  -11.4071 C   0  0  0  0  0  0  0  0  0  0  0  0
  -52.0705  -14.3916  -11.5869 C   0  0  0  0  0  0  0  0  0  0  0  0
  -51.1861  -13.5554  -11.4155 O   0  0  0  0  0  0  0  0  0  0  0  0
  -51.7338  -15.6877  -11.9611 C   0  0  0  0  0  0  0  0  0  0  0  0
  -50.4063  -16.0422  -12.1374 C   0  0  0  0  0  0  0  0  0  0  0  0
  -50.0594  -17.3288  -12.5185 C   0  0  0  0  0  0  0  0  0  0  0  0
  -48.5900  -17.6802  -12.7077 C   0  0  0  0  0  0  0  0  0  0  0  0
  -51.0362  -18.2812  -12.7292 C   0  0  0  0  0  0  0  0  0  0  0  0
  -52.3647  -17.9286  -12.5436 C   0  0  0  0  0  0  0  0  0  0  0  0
  -53.3242  -18.8664  -12.7386 O   0  0  0  0  0  0  0  0  0  0  0  0
  -52.7187  -16.6332  -12.1614 C   0  0  0  0  0  0  0  0  0  0  0  0
  -54.0427  -16.2673  -11.9803 C   0  0  0  0  0  0  0  0  0  0  0  0
  -54.9433  -17.0786  -12.1416 O   0  0  0  0  0  0  0  0  0  0  0  0
  -54.3869  -14.9835  -11.6021 C   0  0  0  0  0  0  0  0  0  0  0  0
  -57.5969  -15.3488  -11.4802 H   0  0  0  0  0  0  0  0  0  0  0  0
  -56.3294  -10.9219  -10.3526 H   0  0  0  0  0  0  0  0  0  0  0  0
  -53.0849  -19.7353  -12.9951 H   0  0  0  0  0  0  0  0  0  0  0  0
  1  2  1  0  0  0
  1  3  2  0  0  0
  1 20  1  0  0  0
  3  4  1  0  0  0
  4  5  1  0  0  0
  4  6  2  0  0  0
  6  7  1  0  0  0
  7  8  1  0  0  0
  7 20  2  0  0  0
  8  9  2  0  0  0
  8 10  1  0  0  0
 10 11  2  0  0  0
 10 17  1  0  0  0
 11 12  1  0  0  0
 12 13  1  0  0  0
 12 14  2  0  0  0
 14 15  1  0  0  0
 15 16  1  0  0  0
 15 17  2  0  0  0
 17 18  1  0  0  0
 18 19  2  0  0  0
 18 20  1  0  0  0
  2 21  1  0  0  0
  5 22  1  0  0  0
 16 23  1  0  0  0
M  END
> <minimizedAffinity>
-9.31585

$$$$
3ED0_EMO_A_163


 23 25  0  0  0  0  0  0  0  0999 V2000
  -56.8057  -12.7193  -12.2624 C   0  0  0  0  0  0  0  0  0  0  0  0
  -58.1581  -12.8342  -12.3061 O   0  0  0  0  0  0  0  0  0  0  0  0
  -56.2205  -11.4643  -12.2516 C   0  0  0  0  0  0  0  0  0  0  0  0
  -54.8448  -11.3451  -12.2174 C   0  0  0  0  0  0  0  0  0  0  0  0
  -54.2716  -10.1175  -12.2125 O   0  0  0  0  0  0  0  0  0  0  0  0
  -54.0539  -12.4851  -12.1891 C   0  0  0  0  0  0  0  0  0  0  0  0
  -54.6344  -13.7495  -12.2003 C   0  0  0  0  0  0  0  0  0  0  0  0
  -53.8542  -14.8982  -12.1640 C   0  0  0  0  0  0  0  0  0  0  0  0
  -52.6291  -14.8049  -12.1289 O   0  0  0  0  0  0  0  0  0  0  0  0
  -54.4524  -16.1534  -12.1686 C   0  0  0  0  0  0  0  0  0  0  0  0
  -53.6745  -17.2989  -12.1293 C   0  0  0  0  0  0  0  0  0  0  0  0
  -54.2595  -18.5553  -12.1420 C   0  0  0  0  0  0  0  0  0  0  0  0
  -53.3720  -19.7920  -12.1030 C   0  0  0  0  0  0  0  0  0  0  0  0
  -55.6329  -18.6848  -12.1943 C   0  0  0  0  0  0  0  0  0  0  0  0
  -56.4119  -17.5377  -12.2243 C   0  0  0  0  0  0  0  0  0  0  0  0
  -57.7613  -17.6636  -12.2636 O   0  0  0  0  0  0  0  0  0  0  0  0
  -55.8266  -16.2700  -12.2134 C   0  0  0  0  0  0  0  0  0  0  0  0
  -56.5941  -15.1171  -12.2507 C   0  0  0  0  0  0  0  0  0  0  0  0
  -57.8149  -15.1794  -12.2839 O   0  0  0  0  0  0  0  0  0  0  0  0
  -56.0090  -13.8653  -12.2398 C   0  0  0  0  0  0  0  0  0  0  0  0
  -58.6934  -12.0653  -12.3213 H   0  0  0  0  0  0  0  0  0  0  0  0
  -54.8084   -9.3497  -12.2317 H   0  0  0  0  0  0  0  0  0  0  0  0
  -58.1524  -18.5150  -12.2709 H   0  0  0  0  0  0  0  0  0  0  0  0
  1  2  1  0  0  0
  1  3  2  0  0  0
  1 20  1  0  0  0
  3  4  1  0  0  0
  4  5  1  0  0  0
  4  6  2  0  0  0
  6  7  1  0  0  0
  7  8  1  0  0  0
  7 20  2  0  0  0
  8  9  2  0  0  0
  8 10  1  0  0  0
 10 11  2  0  0  0
 10 17  1  0  0  0
 11 12  1  0  0  0
 12 13  1  0  0  0
 12 14  2  0  0  0
 14 15  1  0  0  0
 15 16  1  0  0  0
 15 17  2  0  0  0
 17 18  1  0  0  0
 18 19  2  0  0  0
 18 20  1  0  0  0
  2 21  1  0  0  0
  5 22  1  0  0  0
 16 23  1  0  0  0
M  END
> <minimizedAffinity>
-9.19524

$$$$
3ED0_EMO_A_163


 23 25  0  0  0  0  0  0  0  0999 V2000
  -52.2172  -12.2989  -10.6243 C   0  0  0  0  0  0  0  0  0  0  0  0
  -50.9861  -12.6389  -11.0858 O   0  0  0  0  0  0  0  0  0  0  0  0
  -52.3832  -11.1309   -9.8991 C   0  0  0  0  0  0  0  0  0  0  0  0
  -53.6326  -10.7882   -9.4200 C   0  0  0  0  0  0  0  0  0  0  0  0
  -53.7945   -9.6484   -8.7058 O   0  0  0  0  0  0  0  0  0  0  0  0
  -54.7187  -11.6146   -9.6720 C   0  0  0  0  0  0  0  0  0  0  0  0
  -54.5598  -12.7900  -10.3993 C   0  0  0  0  0  0  0  0  0  0  0  0
  -55.6403  -13.6215  -10.6651 C   0  0  0  0  0  0  0  0  0  0  0  0
  -56.7579  -13.3249  -10.2479 O   0  0  0  0  0  0  0  0  0  0  0  0
  -55.4637  -14.7886  -11.3998 C   0  0  0  0  0  0  0  0  0  0  0  0
  -56.5416  -15.6164  -11.6676 C   0  0  0  0  0  0  0  0  0  0  0  0
  -56.3759  -16.7865  -12.3917 C   0  0  0  0  0  0  0  0  0  0  0  0
  -57.5833  -17.6740  -12.6621 C   0  0  0  0  0  0  0  0  0  0  0  0
  -55.1279  -17.1466  -12.8592 C   0  0  0  0  0  0  0  0  0  0  0  0
  -54.0504  -16.3131  -12.5989 C   0  0  0  0  0  0  0  0  0  0  0  0
  -52.8264  -16.6597  -13.0678 O   0  0  0  0  0  0  0  0  0  0  0  0
  -54.2126  -15.1342  -11.8684 C   0  0  0  0  0  0  0  0  0  0  0  0
  -53.1424  -14.2976  -11.5957 C   0  0  0  0  0  0  0  0  0  0  0  0
  -52.0200  -14.5662  -11.9997 O   0  0  0  0  0  0  0  0  0  0  0  0
  -53.3093  -13.1322  -10.8720 C   0  0  0  0  0  0  0  0  0  0  0  0
  -50.2527  -12.0798  -10.9198 H   0  0  0  0  0  0  0  0  0  0  0  0
  -53.0592   -9.0926   -8.5374 H   0  0  0  0  0  0  0  0  0  0  0  0
  -52.7192  -17.4512  -13.5579 H   0  0  0  0  0  0  0  0  0  0  0  0
  1  2  1  0  0  0
  1  3  2  0  0  0
  1 20  1  0  0  0
  3  4  1  0  0  0
  4  5  1  0  0  0
  4  6  2  0  0  0
  6  7  1  0  0  0
  7  8  1  0  0  0
  7 20  2  0  0  0
  8  9  2  0  0  0
  8 10  1  0  0  0
 10 11  2  0  0  0
 10 17  1  0  0  0
 11 12  1  0  0  0
 12 13  1  0  0  0
 12 14  2  0  0  0
 14 15  1  0  0  0
 15 16  1  0  0  0
 15 17  2  0  0  0
 17 18  1  0  0  0
 18 19  2  0  0  0
 18 20  1  0  0  0
  2 21  1  0  0  0
  5 22  1  0  0  0
 16 23  1  0  0  0
M  END
> <minimizedAffinity>
-9.18557

$$$$
3ED0_EMO_A_163


 23 25  0  0  0  0  0  0  0  0999 V2000
  -52.6815  -15.6370  -12.7858 C   0  0  0  0  0  0  0  0  0  0  0  0
  -53.7465  -15.7361  -13.6225 O   0  0  0  0  0  0  0  0  0  0  0  0
  -51.6397  -16.5438  -12.8856 C   0  0  0  0  0  0  0  0  0  0  0  0
  -50.5602  -16.4510  -12.0289 C   0  0  0  0  0  0  0  0  0  0  0  0
  -49.5432  -17.3412  -12.1226 O   0  0  0  0  0  0  0  0  0  0  0  0
  -50.5218  -15.4450  -11.0736 C   0  0  0  0  0  0  0  0  0  0  0  0
  -51.5650  -14.5306  -10.9667 C   0  0  0  0  0  0  0  0  0  0  0  0
  -51.5349  -13.5143  -10.0202 C   0  0  0  0  0  0  0  0  0  0  0  0
  -50.5774  -13.4188   -9.2553 O   0  0  0  0  0  0  0  0  0  0  0  0
  -52.5832  -12.6052   -9.9330 C   0  0  0  0  0  0  0  0  0  0  0  0
  -52.5519  -11.5898   -8.9912 C   0  0  0  0  0  0  0  0  0  0  0  0
  -53.5952  -10.6831   -8.8895 C   0  0  0  0  0  0  0  0  0  0  0  0
  -53.5280   -9.5834   -7.8385 C   0  0  0  0  0  0  0  0  0  0  0  0
  -54.6867  -10.7786   -9.7292 C   0  0  0  0  0  0  0  0  0  0  0  0
  -54.7137  -11.7897  -10.6782 C   0  0  0  0  0  0  0  0  0  0  0  0
  -55.7797  -11.8772  -11.5114 O   0  0  0  0  0  0  0  0  0  0  0  0
  -53.6656  -12.7063  -10.7830 C   0  0  0  0  0  0  0  0  0  0  0  0
  -53.6848  -13.7249  -11.7219 C   0  0  0  0  0  0  0  0  0  0  0  0
  -54.6231  -13.8431  -12.4972 O   0  0  0  0  0  0  0  0  0  0  0  0
  -52.6446  -14.6292  -11.8207 C   0  0  0  0  0  0  0  0  0  0  0  0
  -53.7718  -16.4124  -14.2706 H   0  0  0  0  0  0  0  0  0  0  0  0
  -49.5721  -18.0193  -12.7686 H   0  0  0  0  0  0  0  0  0  0  0  0
  -56.4821  -11.2612  -11.4397 H   0  0  0  0  0  0  0  0  0  0  0  0
  1  2  1  0  0  0
  1  3  2  0  0  0
  1 20  1  0  0  0
  3  4  1  0  0  0
  4  5  1  0  0  0
  4  6  2  0  0  0
  6  7  1  0  0  0
  7  8  1  0  0  0
  7 20  2  0  0  0
  8  9  2  0  0  0
  8 10  1  0  0  0
 10 11  2  0  0  0
 10 17  1  0  0  0
 11 12  1  0  0  0
 12 13  1  0  0  0
 12 14  2  0  0  0
 14 15  1  0  0  0
 15 16  1  0  0  0
 15 17  2  0  0  0
 17 18  1  0  0  0
 18 19  2  0  0  0
 18 20  1  0  0  0
  2 21  1  0  0  0
  5 22  1  0  0  0
 16 23  1  0  0  0
M  END
> <minimizedAffinity>
-9.18106

$$$$
3ED0_EMO_A_163


 23 25  0  0  0  0  0  0  0  0999 V2000
  -51.8634  -16.4366  -11.3597 C   0  0  0  0  0  0  0  0  0  0  0  0
  -50.6154  -16.0720  -10.9677 O   0  0  0  0  0  0  0  0  0  0  0  0
  -52.1712  -17.7771  -11.5210 C   0  0  0  0  0  0  0  0  0  0  0  0
  -53.4370  -18.1497  -11.9294 C   0  0  0  0  0  0  0  0  0  0  0  0
  -53.7370  -19.4608  -12.0927 O   0  0  0  0  0  0  0  0  0  0  0  0
  -54.3978  -17.1781  -12.1721 C   0  0  0  0  0  0  0  0  0  0  0  0
  -54.0959  -15.8293  -12.0129 C   0  0  0  0  0  0  0  0  0  0  0  0
  -55.0509  -14.8476  -12.2448 C   0  0  0  0  0  0  0  0  0  0  0  0
  -56.1821  -15.1671  -12.6042 O   0  0  0  0  0  0  0  0  0  0  0  0
  -54.7331  -13.5049  -12.0735 C   0  0  0  0  0  0  0  0  0  0  0  0
  -55.6863  -12.5259  -12.3017 C   0  0  0  0  0  0  0  0  0  0  0  0
  -55.3783  -11.1840  -12.1424 C   0  0  0  0  0  0  0  0  0  0  0  0
  -56.4506  -10.1359  -12.4074 C   0  0  0  0  0  0  0  0  0  0  0  0
  -54.1109  -10.8008  -11.7520 C   0  0  0  0  0  0  0  0  0  0  0  0
  -53.1593  -11.7815  -11.5146 C   0  0  0  0  0  0  0  0  0  0  0  0
  -51.9176  -11.4068  -11.1195 O   0  0  0  0  0  0  0  0  0  0  0  0
  -53.4648  -13.1344  -11.6755 C   0  0  0  0  0  0  0  0  0  0  0  0
  -52.5205  -14.1226  -11.4487 C   0  0  0  0  0  0  0  0  0  0  0  0
  -51.3881  -13.8344  -11.0884 O   0  0  0  0  0  0  0  0  0  0  0  0
  -52.8288  -15.4599  -11.6098 C   0  0  0  0  0  0  0  0  0  0  0  0
  -49.9669  -16.7271  -10.7997 H   0  0  0  0  0  0  0  0  0  0  0  0
  -53.0861  -20.1144  -11.9280 H   0  0  0  0  0  0  0  0  0  0  0  0
  -51.7143  -10.4985  -11.0120 H   0  0  0  0  0  0  0  0  0  0  0  0
  1  2  1  0  0  0
  1  3  2  0  0  0
  1 20  1  0  0  0
  3  4  1  0  0  0
  4  5  1  0  0  0
  4  6  2  0  0  0
  6  7  1  0  0  0
  7  8  1  0  0  0
  7 20  2  0  0  0
  8  9  2  0  0  0
  8 10  1  0  0  0
 10 11  2  0  0  0
 10 17  1  0  0  0
 11 12  1  0  0  0
 12 13  1  0  0  0
 12 14  2  0  0  0
 14 15  1  0  0  0
 15 16  1  0  0  0
 15 17  2  0  0  0
 17 18  1  0  0  0
 18 19  2  0  0  0
 18 20  1  0  0  0
  2 21  1  0  0  0
  5 22  1  0  0  0
 16 23  1  0  0  0
M  END
> <minimizedAffinity>
-9.07011

$$$$
