5N9R_8RN_A_1003


 31 34  0  0  0  0  0  0  0  0999 V2000
   26.4008   13.9373  -11.5671 O   0  0  0  0  0  0  0  0  0  0  0  0
   27.5758   13.8901  -11.8570 C   0  0  0  0  0  0  0  0  0  0  0  0
   28.4858   13.8162  -10.8216 N   0  0  0  0  0  0  0  0  0  0  0  0
   29.8473   14.3857  -10.9047 C   0  0  0  0  0  0  0  0  0  0  0  0
   30.8371   13.4883  -10.1419 C   0  0  0  0  0  0  0  0  0  0  0  0
   28.0564   13.7355   -9.4014 C   0  0  0  0  0  0  0  0  0  0  0  0
   28.9502   12.7709   -8.5956 C   0  0  0  0  0  0  0  0  0  0  0  0
   30.4223   13.2308   -8.6618 C   0  0  0  0  0  0  0  0  0  0  0  0
   30.5325   14.4860   -7.9860 O   0  0  0  0  0  0  0  0  0  0  0  0
   29.9471   15.1335   -8.4090 H   0  0  0  0  0  0  0  0  0  0  0  0
   27.9551   13.8445  -13.3491 C   0  0  0  0  0  0  0  0  0  0  0  0
   27.7895   12.4461  -14.0066 C   0  0  0  0  0  0  0  0  0  0  0  0
   28.2512   12.5113  -15.4790 C   0  0  0  0  0  0  0  0  0  0  0  0
   28.4762   11.3360  -13.1982 C   0  0  0  0  0  0  0  0  0  0  0  0
   29.8225   11.0779  -13.4423 C   0  0  0  0  0  0  0  0  0  0  0  0
   30.4887   10.0779  -12.7594 C   0  0  0  0  0  0  0  0  0  0  0  0
   29.8274    9.3217  -11.8062 C   0  0  0  0  0  0  0  0  0  0  0  0
   28.4869    9.5638  -11.5512 C   0  0  0  0  0  0  0  0  0  0  0  0
   27.8212   10.5562  -12.2487 C   0  0  0  0  0  0  0  0  0  0  0  0
   31.3528   12.1842   -7.9968 C   0  0  0  0  0  0  0  0  0  0  0  0
   34.1488   14.2462   -6.7517 N   0  0  0  0  0  0  0  0  0  0  0  0
   34.9475   13.1174   -8.7899 C   0  0  0  0  0  0  0  0  0  0  0  0
   33.4325   11.7097   -9.8261 O   0  0  0  0  0  0  0  0  0  0  0  0
   32.7124   12.7529   -7.9251 N   0  0  0  0  0  0  0  0  0  0  0  0
   32.9928   13.6450   -6.8852 C   0  0  0  0  0  0  0  0  0  0  0  0
   33.6598   12.4616   -8.9097 C   0  0  0  0  0  0  0  0  0  0  0  0
   36.2521   13.0289   -9.7112 S   0  0  0  0  0  0  0  0  0  0  0  0
   37.1987   14.0392   -8.8637 C   0  0  0  0  0  0  0  0  0  0  0  0
   36.4576   14.5124   -7.7789 C   0  0  0  0  0  0  0  0  0  0  0  0
   35.1824   13.9717   -7.7492 C   0  0  0  0  0  0  0  0  0  0  0  0
   37.0400   15.7372   -6.4597 Br  0  0  0  0  0  0  0  0  0  0  0  0
 13 12  1  0  0  0
 12 11  1  0  0  0
 12 14  1  0  0  0
 11  2  1  0  0  0
 19 14  2  0  0  0
 19 18  1  0  0  0
 14 15  1  0  0  0
 18 17  2  0  0  0
 15 16  2  0  0  0
  2  1  2  0  0  0
  2  3  1  0  0  0
 17 16  1  0  0  0
  4  3  1  0  0  0
  4  5  1  0  0  0
  3  6  1  0  0  0
  5  8  1  0  0  0
 23 26  2  0  0  0
 27 28  1  0  0  0
 27 22  1  0  0  0
  6  7  1  0  0  0
 26 22  1  0  0  0
 26 24  1  0  0  0
  8  7  1  0  0  0
  8 20  1  0  0  0
  8  9  1  0  0  0
 28 29  2  0  0  0
 22 30  2  0  0  0
 20 24  1  0  0  0
 24 25  1  0  0  0
 29 30  1  0  0  0
 29 31  1  0  0  0
 30 21  1  0  0  0
 25 21  2  0  0  0
  9 10  1  0  0  0
M  END
> <minimizedAffinity>
-12.57270

$$$$
5N9R_8RN_A_1003


 31 34  0  0  0  0  0  0  0  0999 V2000
   26.5437   13.4707  -10.7342 O   0  0  0  0  0  0  0  0  0  0  0  0
   27.6554   13.6757  -11.1687 C   0  0  0  0  0  0  0  0  0  0  0  0
   28.7075   13.6303  -10.2761 N   0  0  0  0  0  0  0  0  0  0  0  0
   29.9324   14.4425  -10.4340 C   0  0  0  0  0  0  0  0  0  0  0  0
   31.1549   13.6454   -9.9473 C   0  0  0  0  0  0  0  0  0  0  0  0
   28.5100   13.2850   -8.8445 C   0  0  0  0  0  0  0  0  0  0  0  0
   29.6559   12.3992   -8.3144 C   0  0  0  0  0  0  0  0  0  0  0  0
   31.0088   13.1223   -8.4863 C   0  0  0  0  0  0  0  0  0  0  0  0
   31.0136   14.2754   -7.6409 O   0  0  0  0  0  0  0  0  0  0  0  0
   30.2759   14.8569   -7.8830 H   0  0  0  0  0  0  0  0  0  0  0  0
   27.8139   13.8987  -12.6845 C   0  0  0  0  0  0  0  0  0  0  0  0
   27.6397   12.6127  -13.5396 C   0  0  0  0  0  0  0  0  0  0  0  0
   27.9326   12.9358  -15.0212 C   0  0  0  0  0  0  0  0  0  0  0  0
   28.4605   11.4346  -12.9960 C   0  0  0  0  0  0  0  0  0  0  0  0
   27.8278   10.5199  -12.1582 C   0  0  0  0  0  0  0  0  0  0  0  0
   28.5206    9.4504  -11.6230 C   0  0  0  0  0  0  0  0  0  0  0  0
   29.8591    9.2628  -11.9245 C   0  0  0  0  0  0  0  0  0  0  0  0
   30.5054   10.1640  -12.7557 C   0  0  0  0  0  0  0  0  0  0  0  0
   29.8106   11.2413  -13.2764 C   0  0  0  0  0  0  0  0  0  0  0  0
   32.1832   12.1821   -8.1116 C   0  0  0  0  0  0  0  0  0  0  0  0
   35.1775   13.3726   -9.9106 N   0  0  0  0  0  0  0  0  0  0  0  0
   35.3420   14.2288   -7.6070 C   0  0  0  0  0  0  0  0  0  0  0  0
   33.5925   13.6802   -6.1967 O   0  0  0  0  0  0  0  0  0  0  0  0
   33.4477   12.9065   -8.3418 N   0  0  0  0  0  0  0  0  0  0  0  0
   34.0332   12.8115   -9.6084 C   0  0  0  0  0  0  0  0  0  0  0  0
   34.0706   13.6016   -7.3022 C   0  0  0  0  0  0  0  0  0  0  0  0
   36.3257   15.0917   -6.6871 S   0  0  0  0  0  0  0  0  0  0  0  0
   37.4671   15.3991   -7.7996 C   0  0  0  0  0  0  0  0  0  0  0  0
   37.0851   14.7758   -8.9893 C   0  0  0  0  0  0  0  0  0  0  0  0
   35.8706   14.1215   -8.8629 C   0  0  0  0  0  0  0  0  0  0  0  0
   38.0403   14.7746  -10.6226 Br  0  0  0  0  0  0  0  0  0  0  0  0
 13 12  1  0  0  0
 12 11  1  0  0  0
 12 14  1  0  0  0
 11  2  1  0  0  0
 19 14  2  0  0  0
 19 18  1  0  0  0
 14 15  1  0  0  0
 18 17  2  0  0  0
 15 16  2  0  0  0
  2  1  2  0  0  0
  2  3  1  0  0  0
 17 16  1  0  0  0
  4  3  1  0  0  0
  4  5  1  0  0  0
  3  6  1  0  0  0
  5  8  1  0  0  0
 23 26  2  0  0  0
 27 28  1  0  0  0
 27 22  1  0  0  0
  6  7  1  0  0  0
 26 22  1  0  0  0
 26 24  1  0  0  0
  8  7  1  0  0  0
  8 20  1  0  0  0
  8  9  1  0  0  0
 28 29  2  0  0  0
 22 30  2  0  0  0
 20 24  1  0  0  0
 24 25  1  0  0  0
 29 30  1  0  0  0
 29 31  1  0  0  0
 30 21  1  0  0  0
 25 21  2  0  0  0
  9 10  1  0  0  0
M  END
> <minimizedAffinity>
-11.13380

$$$$
5N9R_8RN_A_1003


 31 34  0  0  0  0  0  0  0  0999 V2000
   26.9460   12.8356   -9.2600 O   0  0  0  0  0  0  0  0  0  0  0  0
   27.9366   12.9754   -9.9426 C   0  0  0  0  0  0  0  0  0  0  0  0
   29.1482   13.0937   -9.2917 N   0  0  0  0  0  0  0  0  0  0  0  0
   30.2779   13.8800   -9.8307 C   0  0  0  0  0  0  0  0  0  0  0  0
   31.6084   13.1903   -9.4830 C   0  0  0  0  0  0  0  0  0  0  0  0
   29.2598   12.9950   -7.8134 C   0  0  0  0  0  0  0  0  0  0  0  0
   30.5282   12.2246   -7.3933 C   0  0  0  0  0  0  0  0  0  0  0  0
   31.7842   12.9221   -7.9577 C   0  0  0  0  0  0  0  0  0  0  0  0
   31.9073   14.2022   -7.3328 O   0  0  0  0  0  0  0  0  0  0  0  0
   31.1103   14.7262   -7.5094 H   0  0  0  0  0  0  0  0  0  0  0  0
   27.7755   12.9387  -11.4740 C   0  0  0  0  0  0  0  0  0  0  0  0
   28.5508   11.7850  -12.1691 C   0  0  0  0  0  0  0  0  0  0  0  0
   27.9804   10.4273  -11.7035 C   0  0  0  0  0  0  0  0  0  0  0  0
   28.5868   11.9428  -13.6959 C   0  0  0  0  0  0  0  0  0  0  0  0
   28.2699   13.1852  -14.2389 C   0  0  0  0  0  0  0  0  0  0  0  0
   28.2666   13.3819  -15.6069 C   0  0  0  0  0  0  0  0  0  0  0  0
   28.5937   12.3441  -16.4635 C   0  0  0  0  0  0  0  0  0  0  0  0
   28.9104   11.1003  -15.9407 C   0  0  0  0  0  0  0  0  0  0  0  0
   28.8974   10.9052  -14.5709 C   0  0  0  0  0  0  0  0  0  0  0  0
   33.0515   12.0718   -7.6844 C   0  0  0  0  0  0  0  0  0  0  0  0
   35.8081   13.4337   -9.7255 N   0  0  0  0  0  0  0  0  0  0  0  0
   36.0675   14.3687   -7.4616 C   0  0  0  0  0  0  0  0  0  0  0  0
   34.4708   13.7302   -5.9146 O   0  0  0  0  0  0  0  0  0  0  0  0
   34.2357   12.8838   -8.0239 N   0  0  0  0  0  0  0  0  0  0  0  0
   34.7358   12.7959   -9.3271 C   0  0  0  0  0  0  0  0  0  0  0  0
   34.8741   13.6554   -7.0498 C   0  0  0  0  0  0  0  0  0  0  0  0
   37.0430   15.3317   -6.6373 S   0  0  0  0  0  0  0  0  0  0  0  0
   38.0752   15.6920   -7.8372 C   0  0  0  0  0  0  0  0  0  0  0  0
   37.6600   15.0059   -8.9803 C   0  0  0  0  0  0  0  0  0  0  0  0
   36.5127   14.2646   -8.7497 C   0  0  0  0  0  0  0  0  0  0  0  0
   38.4942   15.0288  -10.6784 Br  0  0  0  0  0  0  0  0  0  0  0  0
 13 12  1  0  0  0
 12 11  1  0  0  0
 12 14  1  0  0  0
 11  2  1  0  0  0
 19 14  2  0  0  0
 19 18  1  0  0  0
 14 15  1  0  0  0
 18 17  2  0  0  0
 15 16  2  0  0  0
  2  1  2  0  0  0
  2  3  1  0  0  0
 17 16  1  0  0  0
  4  3  1  0  0  0
  4  5  1  0  0  0
  3  6  1  0  0  0
  5  8  1  0  0  0
 23 26  2  0  0  0
 27 28  1  0  0  0
 27 22  1  0  0  0
  6  7  1  0  0  0
 26 22  1  0  0  0
 26 24  1  0  0  0
  8  7  1  0  0  0
  8 20  1  0  0  0
  8  9  1  0  0  0
 28 29  2  0  0  0
 22 30  2  0  0  0
 20 24  1  0  0  0
 24 25  1  0  0  0
 29 30  1  0  0  0
 29 31  1  0  0  0
 30 21  1  0  0  0
 25 21  2  0  0  0
  9 10  1  0  0  0
M  END
> <minimizedAffinity>
-10.20662

$$$$
