3HP9_CF1_A_501


 25 26  0  0  0  0  0  0  0  0999 V2000
   34.2267    0.1649   54.5757 N   0  0  0  0  0  0  0  0  0  0  0  0
   34.7415   -0.1046   55.3705 H   0  0  0  0  0  0  0  0  0  0  0  0
   33.4369    1.2721   54.7122 C   0  0  0  0  0  0  0  0  0  0  0  0
   34.0837    2.4911   54.8421 C   0  0  0  0  0  0  0  0  0  0  0  0
   35.8567    2.5249   54.8295 Cl  0  0  0  0  0  0  0  0  0  0  0  0
   33.3803    3.6811   54.9745 C   0  0  0  0  0  0  0  0  0  0  0  0
   31.9966    3.6590   54.9873 C   0  0  0  0  0  0  0  0  0  0  0  0
   32.0367    1.2436   54.7102 C   0  0  0  0  0  0  0  0  0  0  0  0
   31.3222    2.4406   54.8488 C   0  0  0  0  0  0  0  0  0  0  0  0
   29.8245    2.4597   54.8657 C   0  0  0  0  0  0  0  0  0  0  0  0
   29.4297    2.8652   56.0512 F   0  0  0  0  0  0  0  0  0  0  0  0
   29.3990    3.3024   53.9529 F   0  0  0  0  0  0  0  0  0  0  0  0
   29.3163    1.2661   54.6114 F   0  0  0  0  0  0  0  0  0  0  0  0
   33.8576   -1.9079   53.4653 C   0  0  0  0  0  0  0  0  0  0  0  0
   34.0709   -2.7348   52.3584 C   0  0  0  0  0  0  0  0  0  0  0  0
   34.7829   -2.2585   51.2532 C   0  0  0  0  0  0  0  0  0  0  0  0
   35.2911   -0.9606   51.2556 C   0  0  0  0  0  0  0  0  0  0  0  0
   35.0800   -0.1293   52.3544 C   0  0  0  0  0  0  0  0  0  0  0  0
   34.3820   -0.6055   53.4681 C   0  0  0  0  0  0  0  0  0  0  0  0
   32.0147   -3.0495   54.4702 O   0  0  0  0  0  0  0  0  0  0  0  0
   33.0837   -2.4323   54.6550 C   0  0  0  0  0  0  0  0  0  0  0  0
   33.5153   -2.2474   55.8123 O   0  0  0  0  0  0  0  0  0  0  0  0
   31.6964   -3.1848   53.5994 H   0  0  0  0  0  0  0  0  0  0  0  0
   34.9958   -3.0690   50.1612 O   0  0  0  0  0  0  0  0  0  0  0  0
   34.1394   -4.1876   49.8923 C   0  0  0  0  0  0  0  0  0  0  0  0
 21 20  1  0  0  0
 22 21  2  0  0  0
 21 14  1  0  0  0
 15 14  2  0  0  0
 14 19  1  0  0  0
 15 16  1  0  0  0
 24 16  1  0  0  0
 16 17  2  0  0  0
 24 25  1  0  0  0
 17 18  1  0  0  0
 19 18  2  0  0  0
 19  1  1  0  0  0
  1  3  1  0  0  0
  3  8  2  0  0  0
  3  4  1  0  0  0
  5  4  1  0  0  0
  4  6  2  0  0  0
  6  7  1  0  0  0
  9  7  2  0  0  0
  8  9  1  0  0  0
  9 10  1  0  0  0
 12 10  1  0  0  0
 13 10  1  0  0  0
 10 11  1  0  0  0
 20 23  1  0  0  0
  1  2  1  0  0  0
M  END
> <minimizedAffinity>
-7.20413

$$$$
3HP9_CF1_A_501


 25 26  0  0  0  0  0  0  0  0999 V2000
   34.5884    0.4505   54.4232 N   0  0  0  0  0  0  0  0  0  0  0  0
   35.4724    0.5262   54.8498 H   0  0  0  0  0  0  0  0  0  0  0  0
   33.7304    1.4966   54.6174 C   0  0  0  0  0  0  0  0  0  0  0  0
   34.2989    2.7471   54.8029 C   0  0  0  0  0  0  0  0  0  0  0  0
   36.0659    2.8956   54.7828 Cl  0  0  0  0  0  0  0  0  0  0  0  0
   33.5218    3.8816   54.9966 C   0  0  0  0  0  0  0  0  0  0  0  0
   32.1425    3.7699   55.0154 C   0  0  0  0  0  0  0  0  0  0  0  0
   32.3350    1.3782   54.6212 C   0  0  0  0  0  0  0  0  0  0  0  0
   31.5464    2.5187   54.8215 C   0  0  0  0  0  0  0  0  0  0  0  0
   30.0508    2.4404   54.8470 C   0  0  0  0  0  0  0  0  0  0  0  0
   29.5828    3.1462   53.8427 F   0  0  0  0  0  0  0  0  0  0  0  0
   29.6874    1.1865   54.7052 F   0  0  0  0  0  0  0  0  0  0  0  0
   29.5553    2.9001   55.9832 F   0  0  0  0  0  0  0  0  0  0  0  0
   35.0345   -0.8665   52.4912 C   0  0  0  0  0  0  0  0  0  0  0  0
   34.7560   -1.9939   51.7129 C   0  0  0  0  0  0  0  0  0  0  0  0
   33.8278   -2.9411   52.1560 C   0  0  0  0  0  0  0  0  0  0  0  0
   33.1696   -2.7593   53.3712 C   0  0  0  0  0  0  0  0  0  0  0  0
   33.4440   -1.6392   54.1541 C   0  0  0  0  0  0  0  0  0  0  0  0
   34.3598   -0.6815   53.7085 C   0  0  0  0  0  0  0  0  0  0  0  0
   37.0368    0.4191   52.7086 O   0  0  0  0  0  0  0  0  0  0  0  0
   36.0424    0.1512   52.0035 C   0  0  0  0  0  0  0  0  0  0  0  0
   35.8772    0.7164   50.9022 O   0  0  0  0  0  0  0  0  0  0  0  0
   37.1548   -0.0086   53.5340 H   0  0  0  0  0  0  0  0  0  0  0  0
   33.5502   -4.0526   51.3930 O   0  0  0  0  0  0  0  0  0  0  0  0
   33.9882   -4.1425   50.0304 C   0  0  0  0  0  0  0  0  0  0  0  0
 21 20  1  0  0  0
 22 21  2  0  0  0
 21 14  1  0  0  0
 15 14  2  0  0  0
 14 19  1  0  0  0
 15 16  1  0  0  0
 24 16  1  0  0  0
 16 17  2  0  0  0
 24 25  1  0  0  0
 17 18  1  0  0  0
 19 18  2  0  0  0
 19  1  1  0  0  0
  1  3  1  0  0  0
  3  8  2  0  0  0
  3  4  1  0  0  0
  5  4  1  0  0  0
  4  6  2  0  0  0
  6  7  1  0  0  0
  9  7  2  0  0  0
  8  9  1  0  0  0
  9 10  1  0  0  0
 12 10  1  0  0  0
 13 10  1  0  0  0
 10 11  1  0  0  0
 20 23  1  0  0  0
  1  2  1  0  0  0
M  END
> <minimizedAffinity>
-7.03382

$$$$
3HP9_CF1_A_501


 25 26  0  0  0  0  0  0  0  0999 V2000
   33.8509    0.7157   53.7280 N   0  0  0  0  0  0  0  0  0  0  0  0
   34.1767    0.8986   52.8172 H   0  0  0  0  0  0  0  0  0  0  0  0
   33.1364    1.7146   54.3280 C   0  0  0  0  0  0  0  0  0  0  0  0
   33.8552    2.7993   54.8054 C   0  0  0  0  0  0  0  0  0  0  0  0
   35.6181    2.8094   54.6135 Cl  0  0  0  0  0  0  0  0  0  0  0  0
   33.2305    3.8760   55.4212 C   0  0  0  0  0  0  0  0  0  0  0  0
   31.8552    3.8711   55.5751 C   0  0  0  0  0  0  0  0  0  0  0  0
   31.7430    1.7092   54.4677 C   0  0  0  0  0  0  0  0  0  0  0  0
   31.1082    2.7903   55.0929 C   0  0  0  0  0  0  0  0  0  0  0  0
   29.6221    2.8242   55.2775 C   0  0  0  0  0  0  0  0  0  0  0  0
   29.1688    1.5932   55.2074 F   0  0  0  0  0  0  0  0  0  0  0  0
   29.3514    3.3215   56.4624 F   0  0  0  0  0  0  0  0  0  0  0  0
   29.0311    3.5693   54.3593 F   0  0  0  0  0  0  0  0  0  0  0  0
   34.7877   -1.4512   53.4234 C   0  0  0  0  0  0  0  0  0  0  0  0
   35.0505   -2.7299   53.9239 C   0  0  0  0  0  0  0  0  0  0  0  0
   34.7125   -3.0508   55.2422 C   0  0  0  0  0  0  0  0  0  0  0  0
   34.1031   -2.0997   56.0589 C   0  0  0  0  0  0  0  0  0  0  0  0
   33.8404   -0.8219   55.5678 C   0  0  0  0  0  0  0  0  0  0  0  0
   34.1625   -0.5006   54.2459 C   0  0  0  0  0  0  0  0  0  0  0  0
   35.8953   -0.1315   51.7679 O   0  0  0  0  0  0  0  0  0  0  0  0
   35.1597   -1.1136   51.9961 C   0  0  0  0  0  0  0  0  0  0  0  0
   34.7321   -1.8156   51.0558 O   0  0  0  0  0  0  0  0  0  0  0  0
   36.2127    0.3912   52.4779 H   0  0  0  0  0  0  0  0  0  0  0  0
   34.9691   -4.3084   55.7394 O   0  0  0  0  0  0  0  0  0  0  0  0
   36.1353   -4.5660   56.5333 C   0  0  0  0  0  0  0  0  0  0  0  0
 21 20  1  0  0  0
 22 21  2  0  0  0
 21 14  1  0  0  0
 15 14  2  0  0  0
 14 19  1  0  0  0
 15 16  1  0  0  0
 24 16  1  0  0  0
 16 17  2  0  0  0
 24 25  1  0  0  0
 17 18  1  0  0  0
 19 18  2  0  0  0
 19  1  1  0  0  0
  1  3  1  0  0  0
  3  8  2  0  0  0
  3  4  1  0  0  0
  5  4  1  0  0  0
  4  6  2  0  0  0
  6  7  1  0  0  0
  9  7  2  0  0  0
  8  9  1  0  0  0
  9 10  1  0  0  0
 12 10  1  0  0  0
 13 10  1  0  0  0
 10 11  1  0  0  0
 20 23  1  0  0  0
  1  2  1  0  0  0
M  END
> <minimizedAffinity>
-6.18509

$$$$
3HP9_CF1_A_501


 25 26  0  0  0  0  0  0  0  0999 V2000
   33.9721   -0.9226   54.3890 N   0  0  0  0  0  0  0  0  0  0  0  0
   33.8197   -1.7666   54.8724 H   0  0  0  0  0  0  0  0  0  0  0  0
   33.5336    0.2161   55.0049 C   0  0  0  0  0  0  0  0  0  0  0  0
   34.1913    0.5941   56.1649 C   0  0  0  0  0  0  0  0  0  0  0  0
   35.5249   -0.4124   56.7595 Cl  0  0  0  0  0  0  0  0  0  0  0  0
   33.8373    1.7397   56.8655 C   0  0  0  0  0  0  0  0  0  0  0  0
   32.7957    2.5267   56.4064 C   0  0  0  0  0  0  0  0  0  0  0  0
   32.4877    1.0153   54.5267 C   0  0  0  0  0  0  0  0  0  0  0  0
   32.1230    2.1692   55.2324 C   0  0  0  0  0  0  0  0  0  0  0  0
   31.0027    3.0484   54.7681 C   0  0  0  0  0  0  0  0  0  0  0  0
   31.2498    3.4137   53.5306 F   0  0  0  0  0  0  0  0  0  0  0  0
   29.8818    2.3652   54.8051 F   0  0  0  0  0  0  0  0  0  0  0  0
   30.8722    4.1200   55.5310 F   0  0  0  0  0  0  0  0  0  0  0  0
   34.3485   -2.1469   52.3827 C   0  0  0  0  0  0  0  0  0  0  0  0
   35.0353   -2.2946   51.1740 C   0  0  0  0  0  0  0  0  0  0  0  0
   35.9439   -1.3162   50.7588 C   0  0  0  0  0  0  0  0  0  0  0  0
   36.1753   -0.1949   51.5537 C   0  0  0  0  0  0  0  0  0  0  0  0
   35.4923   -0.0393   52.7588 C   0  0  0  0  0  0  0  0  0  0  0  0
   34.5942   -1.0218   53.1858 C   0  0  0  0  0  0  0  0  0  0  0  0
   33.6890   -4.4137   52.7512 O   0  0  0  0  0  0  0  0  0  0  0  0
   33.3656   -3.2103   52.8215 C   0  0  0  0  0  0  0  0  0  0  0  0
   32.2398   -2.8820   53.2511 O   0  0  0  0  0  0  0  0  0  0  0  0
   34.5352   -4.6533   52.4280 H   0  0  0  0  0  0  0  0  0  0  0  0
   36.6226   -1.4573   49.5696 O   0  0  0  0  0  0  0  0  0  0  0  0
   37.9598   -0.9617   49.4180 C   0  0  0  0  0  0  0  0  0  0  0  0
 21 20  1  0  0  0
 22 21  2  0  0  0
 21 14  1  0  0  0
 15 14  2  0  0  0
 14 19  1  0  0  0
 15 16  1  0  0  0
 24 16  1  0  0  0
 16 17  2  0  0  0
 24 25  1  0  0  0
 17 18  1  0  0  0
 19 18  2  0  0  0
 19  1  1  0  0  0
  1  3  1  0  0  0
  3  8  2  0  0  0
  3  4  1  0  0  0
  5  4  1  0  0  0
  4  6  2  0  0  0
  6  7  1  0  0  0
  9  7  2  0  0  0
  8  9  1  0  0  0
  9 10  1  0  0  0
 12 10  1  0  0  0
 13 10  1  0  0  0
 10 11  1  0  0  0
 20 23  1  0  0  0
  1  2  1  0  0  0
M  END
> <minimizedAffinity>
-6.01242

$$$$
3HP9_CF1_A_501


 25 26  0  0  0  0  0  0  0  0999 V2000
   34.3239    0.1537   54.6032 N   0  0  0  0  0  0  0  0  0  0  0  0
   34.2822   -0.5017   55.3366 H   0  0  0  0  0  0  0  0  0  0  0  0
   33.5202    1.2525   54.7261 C   0  0  0  0  0  0  0  0  0  0  0  0
   34.1516    2.4749   54.8944 C   0  0  0  0  0  0  0  0  0  0  0  0
   35.9236    2.5234   54.9447 Cl  0  0  0  0  0  0  0  0  0  0  0  0
   33.4338    3.6573   55.0174 C   0  0  0  0  0  0  0  0  0  0  0  0
   32.0507    3.6237   54.9811 C   0  0  0  0  0  0  0  0  0  0  0  0
   32.1214    1.2126   54.6744 C   0  0  0  0  0  0  0  0  0  0  0  0
   31.3921    2.4018   54.8032 C   0  0  0  0  0  0  0  0  0  0  0  0
   29.8947    2.4085   54.7676 C   0  0  0  0  0  0  0  0  0  0  0  0
   29.4554    2.8293   55.9320 F   0  0  0  0  0  0  0  0  0  0  0  0
   29.4947    3.2330   53.8271 F   0  0  0  0  0  0  0  0  0  0  0  0
   29.4051    1.2068   54.5150 F   0  0  0  0  0  0  0  0  0  0  0  0
   36.3746   -0.8057   53.8682 C   0  0  0  0  0  0  0  0  0  0  0  0
   37.2890   -1.0482   52.8388 C   0  0  0  0  0  0  0  0  0  0  0  0
   36.9976   -0.6460   51.5317 C   0  0  0  0  0  0  0  0  0  0  0  0
   35.7983    0.0072   51.2524 C   0  0  0  0  0  0  0  0  0  0  0  0
   34.8804    0.2500   52.2729 C   0  0  0  0  0  0  0  0  0  0  0  0
   35.1736   -0.1364   53.5841 C   0  0  0  0  0  0  0  0  0  0  0  0
   37.3502   -0.4892   56.0262 O   0  0  0  0  0  0  0  0  0  0  0  0
   36.6988   -1.2472   55.2786 C   0  0  0  0  0  0  0  0  0  0  0  0
   36.3146   -2.3627   55.6884 O   0  0  0  0  0  0  0  0  0  0  0  0
   37.6355    0.3464   55.7127 H   0  0  0  0  0  0  0  0  0  0  0  0
   37.8948   -0.8824   50.5150 O   0  0  0  0  0  0  0  0  0  0  0  0
   37.7645   -0.2264   49.2464 C   0  0  0  0  0  0  0  0  0  0  0  0
 21 20  1  0  0  0
 22 21  2  0  0  0
 21 14  1  0  0  0
 15 14  2  0  0  0
 14 19  1  0  0  0
 15 16  1  0  0  0
 24 16  1  0  0  0
 16 17  2  0  0  0
 24 25  1  0  0  0
 17 18  1  0  0  0
 19 18  2  0  0  0
 19  1  1  0  0  0
  1  3  1  0  0  0
  3  8  2  0  0  0
  3  4  1  0  0  0
  5  4  1  0  0  0
  4  6  2  0  0  0
  6  7  1  0  0  0
  9  7  2  0  0  0
  8  9  1  0  0  0
  9 10  1  0  0  0
 12 10  1  0  0  0
 13 10  1  0  0  0
 10 11  1  0  0  0
 20 23  1  0  0  0
  1  2  1  0  0  0
M  END
> <minimizedAffinity>
-5.96648

$$$$
3HP9_CF1_A_501


 25 26  0  0  0  0  0  0  0  0999 V2000
   35.9239    0.7463   54.1477 N   0  0  0  0  0  0  0  0  0  0  0  0
   36.4729    0.7796   54.9642 H   0  0  0  0  0  0  0  0  0  0  0  0
   34.5689    0.7504   54.3281 C   0  0  0  0  0  0  0  0  0  0  0  0
   33.9569   -0.4803   54.5068 C   0  0  0  0  0  0  0  0  0  0  0  0
   34.9563   -1.9450   54.4816 Cl  0  0  0  0  0  0  0  0  0  0  0  0
   32.5879   -0.5928   54.7107 C   0  0  0  0  0  0  0  0  0  0  0  0
   31.8039    0.5474   54.7286 C   0  0  0  0  0  0  0  0  0  0  0  0
   33.7839    1.9096   54.3591 C   0  0  0  0  0  0  0  0  0  0  0  0
   32.4015    1.8015   54.5591 C   0  0  0  0  0  0  0  0  0  0  0  0
   31.5185    3.0111   54.5869 C   0  0  0  0  0  0  0  0  0  0  0  0
   31.2332    3.3430   53.3483 F   0  0  0  0  0  0  0  0  0  0  0  0
   30.4098    2.7144   55.2250 F   0  0  0  0  0  0  0  0  0  0  0  0
   32.1005    4.0288   55.1978 F   0  0  0  0  0  0  0  0  0  0  0  0
   38.0023    0.7237   52.9878 C   0  0  0  0  0  0  0  0  0  0  0  0
   38.7070    0.7481   51.7806 C   0  0  0  0  0  0  0  0  0  0  0  0
   38.0172    0.7279   50.5645 C   0  0  0  0  0  0  0  0  0  0  0  0
   36.6238    0.6933   50.5519 C   0  0  0  0  0  0  0  0  0  0  0  0
   35.9143    0.6660   51.7514 C   0  0  0  0  0  0  0  0  0  0  0  0
   36.5986    0.7014   52.9699 C   0  0  0  0  0  0  0  0  0  0  0  0
   39.5801    1.6563   54.5208 O   0  0  0  0  0  0  0  0  0  0  0  0
   38.7586    0.7434   54.2981 C   0  0  0  0  0  0  0  0  0  0  0  0
   38.5588   -0.1490   55.1487 O   0  0  0  0  0  0  0  0  0  0  0  0
   39.7253    2.3228   53.8784 H   0  0  0  0  0  0  0  0  0  0  0  0
   38.7066    0.7521   49.3734 O   0  0  0  0  0  0  0  0  0  0  0  0
   38.6615   -0.3609   48.4701 C   0  0  0  0  0  0  0  0  0  0  0  0
 21 20  1  0  0  0
 22 21  2  0  0  0
 21 14  1  0  0  0
 15 14  2  0  0  0
 14 19  1  0  0  0
 15 16  1  0  0  0
 24 16  1  0  0  0
 16 17  2  0  0  0
 24 25  1  0  0  0
 17 18  1  0  0  0
 19 18  2  0  0  0
 19  1  1  0  0  0
  1  3  1  0  0  0
  3  8  2  0  0  0
  3  4  1  0  0  0
  5  4  1  0  0  0
  4  6  2  0  0  0
  6  7  1  0  0  0
  9  7  2  0  0  0
  8  9  1  0  0  0
  9 10  1  0  0  0
 12 10  1  0  0  0
 13 10  1  0  0  0
 10 11  1  0  0  0
 20 23  1  0  0  0
  1  2  1  0  0  0
M  END
> <minimizedAffinity>
-5.49931

$$$$
3HP9_CF1_A_501


 25 26  0  0  0  0  0  0  0  0999 V2000
   35.1239    0.0616   54.5578 N   0  0  0  0  0  0  0  0  0  0  0  0
   35.4626   -0.3620   53.7362 H   0  0  0  0  0  0  0  0  0  0  0  0
   33.7869    0.3440   54.5870 C   0  0  0  0  0  0  0  0  0  0  0  0
   32.9210   -0.7336   54.6878 C   0  0  0  0  0  0  0  0  0  0  0  0
   33.5973   -2.3711   54.7628 Cl  0  0  0  0  0  0  0  0  0  0  0  0
   31.5438   -0.5621   54.7380 C   0  0  0  0  0  0  0  0  0  0  0  0
   31.0115    0.7139   54.6773 C   0  0  0  0  0  0  0  0  0  0  0  0
   33.2560    1.6391   54.5393 C   0  0  0  0  0  0  0  0  0  0  0  0
   31.8672    1.8174   54.5842 C   0  0  0  0  0  0  0  0  0  0  0  0
   31.2517    3.1816   54.5229 C   0  0  0  0  0  0  0  0  0  0  0  0
   32.2179    4.0673   54.4338 F   0  0  0  0  0  0  0  0  0  0  0  0
   30.4908    3.2579   53.4553 F   0  0  0  0  0  0  0  0  0  0  0  0
   30.5130    3.4344   55.5896 F   0  0  0  0  0  0  0  0  0  0  0  0
   36.7668    1.4989   55.5070 C   0  0  0  0  0  0  0  0  0  0  0  0
   37.7593    1.7244   56.4655 C   0  0  0  0  0  0  0  0  0  0  0  0
   38.0077    0.7700   57.4567 C   0  0  0  0  0  0  0  0  0  0  0  0
   37.2732   -0.4143   57.4864 C   0  0  0  0  0  0  0  0  0  0  0  0
   36.2802   -0.6450   56.5359 C   0  0  0  0  0  0  0  0  0  0  0  0
   36.0382    0.2991   55.5337 C   0  0  0  0  0  0  0  0  0  0  0  0
   36.7374    2.2671   53.2447 O   0  0  0  0  0  0  0  0  0  0  0  0
   36.5044    2.5393   54.4402 C   0  0  0  0  0  0  0  0  0  0  0  0
   36.0569    3.6612   54.7578 O   0  0  0  0  0  0  0  0  0  0  0  0
   37.0731    1.4235   53.0131 H   0  0  0  0  0  0  0  0  0  0  0  0
   38.9840    0.9874   58.4024 O   0  0  0  0  0  0  0  0  0  0  0  0
   38.6483    1.4391   59.7214 C   0  0  0  0  0  0  0  0  0  0  0  0
 21 20  1  0  0  0
 22 21  2  0  0  0
 21 14  1  0  0  0
 15 14  2  0  0  0
 14 19  1  0  0  0
 15 16  1  0  0  0
 24 16  1  0  0  0
 16 17  2  0  0  0
 24 25  1  0  0  0
 17 18  1  0  0  0
 19 18  2  0  0  0
 19  1  1  0  0  0
  1  3  1  0  0  0
  3  8  2  0  0  0
  3  4  1  0  0  0
  5  4  1  0  0  0
  4  6  2  0  0  0
  6  7  1  0  0  0
  9  7  2  0  0  0
  8  9  1  0  0  0
  9 10  1  0  0  0
 12 10  1  0  0  0
 13 10  1  0  0  0
 10 11  1  0  0  0
 20 23  1  0  0  0
  1  2  1  0  0  0
M  END
> <minimizedAffinity>
-4.83100

$$$$
3HP9_CF1_A_501


 25 26  0  0  0  0  0  0  0  0999 V2000
   35.4743   -1.6131   54.0479 N   0  0  0  0  0  0  0  0  0  0  0  0
   35.8347   -2.1462   54.7930 H   0  0  0  0  0  0  0  0  0  0  0  0
   35.0721   -0.3424   54.3510 C   0  0  0  0  0  0  0  0  0  0  0  0
   36.0647    0.5669   54.6814 C   0  0  0  0  0  0  0  0  0  0  0  0
   37.7530    0.0242   54.6941 Cl  0  0  0  0  0  0  0  0  0  0  0  0
   35.7710    1.8875   54.9947 C   0  0  0  0  0  0  0  0  0  0  0  0
   34.4547    2.3146   54.9884 C   0  0  0  0  0  0  0  0  0  0  0  0
   33.7391    0.0863   54.3289 C   0  0  0  0  0  0  0  0  0  0  0  0
   33.4367    1.4161   54.6492 C   0  0  0  0  0  0  0  0  0  0  0  0
   32.0255    1.9181   54.6523 C   0  0  0  0  0  0  0  0  0  0  0  0
   31.8540    2.6758   53.5929 F   0  0  0  0  0  0  0  0  0  0  0  0
   31.2083    0.8920   54.5910 F   0  0  0  0  0  0  0  0  0  0  0  0
   31.7545    2.6119   55.7444 F   0  0  0  0  0  0  0  0  0  0  0  0
   34.4337   -3.1779   52.5869 C   0  0  0  0  0  0  0  0  0  0  0  0
   34.4226   -3.8635   51.3686 C   0  0  0  0  0  0  0  0  0  0  0  0
   35.3879   -3.5834   50.3966 C   0  0  0  0  0  0  0  0  0  0  0  0
   36.3709   -2.6264   50.6432 C   0  0  0  0  0  0  0  0  0  0  0  0
   36.3868   -1.9367   51.8544 C   0  0  0  0  0  0  0  0  0  0  0  0
   35.4332   -2.2237   52.8355 C   0  0  0  0  0  0  0  0  0  0  0  0
   32.2118   -3.0904   53.4613 O   0  0  0  0  0  0  0  0  0  0  0  0
   33.3830   -3.4869   53.6309 C   0  0  0  0  0  0  0  0  0  0  0  0
   33.6895   -4.1351   54.6535 O   0  0  0  0  0  0  0  0  0  0  0  0
   31.9884   -2.6045   52.6919 H   0  0  0  0  0  0  0  0  0  0  0  0
   35.3812   -4.2560   49.1957 O   0  0  0  0  0  0  0  0  0  0  0  0
   36.4338   -5.1677   48.8527 C   0  0  0  0  0  0  0  0  0  0  0  0
 21 20  1  0  0  0
 22 21  2  0  0  0
 21 14  1  0  0  0
 15 14  2  0  0  0
 14 19  1  0  0  0
 15 16  1  0  0  0
 24 16  1  0  0  0
 16 17  2  0  0  0
 24 25  1  0  0  0
 17 18  1  0  0  0
 19 18  2  0  0  0
 19  1  1  0  0  0
  1  3  1  0  0  0
  3  8  2  0  0  0
  3  4  1  0  0  0
  5  4  1  0  0  0
  4  6  2  0  0  0
  6  7  1  0  0  0
  9  7  2  0  0  0
  8  9  1  0  0  0
  9 10  1  0  0  0
 12 10  1  0  0  0
 13 10  1  0  0  0
 10 11  1  0  0  0
 20 23  1  0  0  0
  1  2  1  0  0  0
M  END
> <minimizedAffinity>
-4.83082

$$$$
3HP9_CF1_A_501


 25 26  0  0  0  0  0  0  0  0999 V2000
   33.6908   -2.4009   55.6598 N   0  0  0  0  0  0  0  0  0  0  0  0
   34.5023   -2.8022   55.2729 H   0  0  0  0  0  0  0  0  0  0  0  0
   32.7285   -3.2724   56.0873 C   0  0  0  0  0  0  0  0  0  0  0  0
   33.1489   -4.5437   56.4451 C   0  0  0  0  0  0  0  0  0  0  0  0
   34.8720   -4.9430   56.3177 Cl  0  0  0  0  0  0  0  0  0  0  0  0
   32.2587   -5.5054   56.9048 C   0  0  0  0  0  0  0  0  0  0  0  0
   30.9128   -5.1988   57.0035 C   0  0  0  0  0  0  0  0  0  0  0  0
   31.3700   -2.9506   56.1978 C   0  0  0  0  0  0  0  0  0  0  0  0
   30.4669   -3.9186   56.6560 C   0  0  0  0  0  0  0  0  0  0  0  0
   29.0030   -3.6262   56.7787 C   0  0  0  0  0  0  0  0  0  0  0  0
   28.3698   -4.2818   55.8325 F   0  0  0  0  0  0  0  0  0  0  0  0
   28.5828   -4.0406   57.9519 F   0  0  0  0  0  0  0  0  0  0  0  0
   28.7506   -2.3332   56.6699 F   0  0  0  0  0  0  0  0  0  0  0  0
   34.2770   -0.3837   56.7793 C   0  0  0  0  0  0  0  0  0  0  0  0
   34.1871    1.0080   56.8774 C   0  0  0  0  0  0  0  0  0  0  0  0
   33.5004    1.7376   55.9020 C   0  0  0  0  0  0  0  0  0  0  0  0
   32.8945    1.0786   54.8337 C   0  0  0  0  0  0  0  0  0  0  0  0
   32.9821   -0.3085   54.7276 C   0  0  0  0  0  0  0  0  0  0  0  0
   33.6545   -1.0440   55.7081 C   0  0  0  0  0  0  0  0  0  0  0  0
   36.2717   -1.1253   57.8656 O   0  0  0  0  0  0  0  0  0  0  0  0
   35.0245   -1.1634   57.8388 C   0  0  0  0  0  0  0  0  0  0  0  0
   34.3941   -1.8386   58.6794 O   0  0  0  0  0  0  0  0  0  0  0  0
   36.7386   -0.6168   57.2321 H   0  0  0  0  0  0  0  0  0  0  0  0
   33.4091    3.1079   55.9944 O   0  0  0  0  0  0  0  0  0  0  0  0
   32.1603    3.7815   55.7861 C   0  0  0  0  0  0  0  0  0  0  0  0
 21 20  1  0  0  0
 22 21  2  0  0  0
 21 14  1  0  0  0
 15 14  2  0  0  0
 14 19  1  0  0  0
 15 16  1  0  0  0
 24 16  1  0  0  0
 16 17  2  0  0  0
 24 25  1  0  0  0
 17 18  1  0  0  0
 19 18  2  0  0  0
 19  1  1  0  0  0
  1  3  1  0  0  0
  3  8  2  0  0  0
  3  4  1  0  0  0
  5  4  1  0  0  0
  4  6  2  0  0  0
  6  7  1  0  0  0
  9  7  2  0  0  0
  8  9  1  0  0  0
  9 10  1  0  0  0
 12 10  1  0  0  0
 13 10  1  0  0  0
 10 11  1  0  0  0
 20 23  1  0  0  0
  1  2  1  0  0  0
M  END
> <minimizedAffinity>
-4.74453

$$$$
3HP9_CF1_A_501


 25 26  0  0  0  0  0  0  0  0999 V2000
   35.3396   -0.4539   53.5177 N   0  0  0  0  0  0  0  0  0  0  0  0
   36.2716   -0.2258   53.7381 H   0  0  0  0  0  0  0  0  0  0  0  0
   35.1547   -1.5637   52.7415 C   0  0  0  0  0  0  0  0  0  0  0  0
   35.1020   -1.3677   51.3704 C   0  0  0  0  0  0  0  0  0  0  0  0
   35.2676    0.2793   50.7342 Cl  0  0  0  0  0  0  0  0  0  0  0  0
   34.9301   -2.4254   50.4871 C   0  0  0  0  0  0  0  0  0  0  0  0
   34.7980   -3.7120   50.9794 C   0  0  0  0  0  0  0  0  0  0  0  0
   35.0358   -2.8646   53.2461 C   0  0  0  0  0  0  0  0  0  0  0  0
   34.8569   -3.9347   52.3598 C   0  0  0  0  0  0  0  0  0  0  0  0
   34.7116   -5.3418   52.8522 C   0  0  0  0  0  0  0  0  0  0  0  0
   35.2654   -5.4231   54.0407 F   0  0  0  0  0  0  0  0  0  0  0  0
   33.4339   -5.6303   52.9462 F   0  0  0  0  0  0  0  0  0  0  0  0
   35.2835   -6.2088   52.0343 F   0  0  0  0  0  0  0  0  0  0  0  0
   34.7443    1.6645   54.4256 C   0  0  0  0  0  0  0  0  0  0  0  0
   33.7841    2.4974   55.0075 C   0  0  0  0  0  0  0  0  0  0  0  0
   32.4684    2.0505   55.1626 C   0  0  0  0  0  0  0  0  0  0  0  0
   32.1119    0.7689   54.7464 C   0  0  0  0  0  0  0  0  0  0  0  0
   33.0630   -0.0664   54.1627 C   0  0  0  0  0  0  0  0  0  0  0  0
   34.3834    0.3700   54.0193 C   0  0  0  0  0  0  0  0  0  0  0  0
   36.6909    2.1520   53.1284 O   0  0  0  0  0  0  0  0  0  0  0  0
   36.1648    2.1588   54.2602 C   0  0  0  0  0  0  0  0  0  0  0  0
   36.8028    2.5707   55.2517 O   0  0  0  0  0  0  0  0  0  0  0  0
   36.2068    1.8416   52.3886 H   0  0  0  0  0  0  0  0  0  0  0  0
   31.5195    2.8669   55.7352 O   0  0  0  0  0  0  0  0  0  0  0  0
   31.8591    4.1783   56.2059 C   0  0  0  0  0  0  0  0  0  0  0  0
 21 20  1  0  0  0
 22 21  2  0  0  0
 21 14  1  0  0  0
 15 14  2  0  0  0
 14 19  1  0  0  0
 15 16  1  0  0  0
 24 16  1  0  0  0
 16 17  2  0  0  0
 24 25  1  0  0  0
 17 18  1  0  0  0
 19 18  2  0  0  0
 19  1  1  0  0  0
  1  3  1  0  0  0
  3  8  2  0  0  0
  3  4  1  0  0  0
  5  4  1  0  0  0
  4  6  2  0  0  0
  6  7  1  0  0  0
  9  7  2  0  0  0
  8  9  1  0  0  0
  9 10  1  0  0  0
 12 10  1  0  0  0
 13 10  1  0  0  0
 10 11  1  0  0  0
 20 23  1  0  0  0
  1  2  1  0  0  0
M  END
> <minimizedAffinity>
-4.60720

$$$$
