4OVH_2VE_A_405


 28 30  0  0  0  0  0  0  0  0999 V2000
  -29.5639   -5.3400  -12.3767 N   0  0  0  0  0  0  0  0  0  0  0  0
  -29.0474   -5.8310  -11.2344 C   0  0  0  0  0  0  0  0  0  0  0  0
  -28.0592   -6.8117  -11.0564 C   0  0  0  0  0  0  0  0  0  0  0  0
  -27.5819   -6.8571   -9.5717 C   0  0  0  0  0  0  0  0  0  0  0  0
  -28.7716   -6.7775   -8.6564 C   0  0  0  0  0  0  0  0  0  0  0  0
  -29.4139   -5.4346   -8.8627 C   0  0  0  0  0  0  0  0  0  0  0  0
  -29.6796   -5.1977  -10.2192 C   0  0  0  0  0  0  0  0  0  0  0  0
  -30.5606   -4.3390  -10.7343 C   0  0  0  0  0  0  0  0  0  0  0  0
  -30.4798   -4.4314  -12.0694 C   0  0  0  0  0  0  0  0  0  0  0  0
  -31.2558   -3.6874  -12.8625 C   0  0  0  0  0  0  0  0  0  0  0  0
  -32.1532   -2.8025  -12.3140 C   0  0  0  0  0  0  0  0  0  0  0  0
  -32.2501   -2.6893  -10.9509 C   0  0  0  0  0  0  0  0  0  0  0  0
  -33.5064   -1.4689  -10.3442 Br  0  0  0  0  0  0  0  0  0  0  0  0
  -31.4258   -3.4853  -10.1483 C   0  0  0  0  0  0  0  0  0  0  0  0
  -26.7754   -8.1278   -9.2134 C   0  0  0  0  0  0  0  0  0  0  0  0
  -27.3502   -9.0349   -8.5617 O   0  0  0  0  0  0  0  0  0  0  0  0
  -25.5841   -8.1565   -9.6075 O   0  0  0  0  0  0  0  0  0  0  0  0
  -25.2327   -7.4341  -10.0900 H   0  0  0  0  0  0  0  0  0  0  0  0
  -29.2724   -5.6421  -13.8436 C   0  0  0  0  0  0  0  0  0  0  0  0
  -26.8972   -5.4081  -14.4138 N   0  0  0  0  0  0  0  0  0  0  0  0
  -28.0973   -4.8311  -14.2942 C   0  0  0  0  0  0  0  0  0  0  0  0
  -28.2780   -3.6689  -14.6197 O   0  0  0  0  0  0  0  0  0  0  0  0
  -26.7931   -6.3821  -14.3149 H   0  0  0  0  0  0  0  0  0  0  0  0
  -25.7357   -4.5495  -14.6974 C   0  0  0  0  0  0  0  0  0  0  0  0
  -24.0431   -4.7105  -13.0938 O   0  0  0  0  0  0  0  0  0  0  0  0
  -25.0801   -4.1156  -13.4532 C   0  0  0  0  0  0  0  0  0  0  0  0
  -25.5564   -3.0812  -12.9477 O   0  0  0  0  0  0  0  0  0  0  0  0
  -26.3448   -2.7111  -13.2933 H   0  0  0  0  0  0  0  0  0  0  0  0
 22 21  2  0  0  0
 19 21  1  0  0  0
 19  1  1  0  0  0
 21 20  1  0  0  0
 10 11  2  0  0  0
 10  9  1  0  0  0
  1  9  1  0  0  0
  1  2  1  0  0  0
 11 12  1  0  0  0
  9  8  2  0  0  0
 20 24  1  0  0  0
  2  3  1  0  0  0
  2  7  2  0  0  0
  3  4  1  0  0  0
 24 26  1  0  0  0
 12 14  2  0  0  0
 12 13  1  0  0  0
  8  7  1  0  0  0
  8 14  1  0  0  0
  7  6  1  0  0  0
  4 15  1  0  0  0
  4  5  1  0  0  0
 16 15  2  0  0  0
 15 17  1  0  0  0
 26 25  2  0  0  0
 26 27  1  0  0  0
  6  5  1  0  0  0
 27 28  1  0  0  0
 20 23  1  0  0  0
 17 18  1  0  0  0
M  END
> <minimizedAffinity>
-7.46319

$$$$
4OVH_2VE_A_405


 28 30  0  0  0  0  0  0  0  0999 V2000
  -29.9260   -4.8815  -11.9634 N   0  0  0  0  0  0  0  0  0  0  0  0
  -30.0033   -4.1066  -13.0617 C   0  0  0  0  0  0  0  0  0  0  0  0
  -31.0470   -3.2694  -13.4858 C   0  0  0  0  0  0  0  0  0  0  0  0
  -30.5839   -2.3564  -14.6632 C   0  0  0  0  0  0  0  0  0  0  0  0
  -29.7889   -3.1673  -15.6481 C   0  0  0  0  0  0  0  0  0  0  0  0
  -28.5436   -3.6361  -14.9496 C   0  0  0  0  0  0  0  0  0  0  0  0
  -28.8468   -4.2819  -13.7422 C   0  0  0  0  0  0  0  0  0  0  0  0
  -28.0826   -5.1441  -13.0703 C   0  0  0  0  0  0  0  0  0  0  0  0
  -28.7567   -5.5071  -11.9698 C   0  0  0  0  0  0  0  0  0  0  0  0
  -28.2396   -6.3765  -11.0972 C   0  0  0  0  0  0  0  0  0  0  0  0
  -26.9924   -6.9116  -11.3152 C   0  0  0  0  0  0  0  0  0  0  0  0
  -26.2839   -6.5516  -12.4326 C   0  0  0  0  0  0  0  0  0  0  0  0
  -24.6228   -7.3545  -12.6107 Br  0  0  0  0  0  0  0  0  0  0  0  0
  -26.8551   -5.6417  -13.3286 C   0  0  0  0  0  0  0  0  0  0  0  0
  -31.7482   -1.6747  -15.4203 C   0  0  0  0  0  0  0  0  0  0  0  0
  -31.9162   -1.9553  -16.6332 O   0  0  0  0  0  0  0  0  0  0  0  0
  -32.4499   -0.8763  -14.7529 O   0  0  0  0  0  0  0  0  0  0  0  0
  -32.2549   -0.7239  -13.8491 H   0  0  0  0  0  0  0  0  0  0  0  0
  -30.8960   -5.1203  -10.8100 C   0  0  0  0  0  0  0  0  0  0  0  0
  -32.5259   -3.3850  -10.2151 N   0  0  0  0  0  0  0  0  0  0  0  0
  -31.2582   -3.8086  -10.1855 C   0  0  0  0  0  0  0  0  0  0  0  0
  -30.3945   -3.1853   -9.5896 O   0  0  0  0  0  0  0  0  0  0  0  0
  -33.2460   -3.9695  -10.5453 H   0  0  0  0  0  0  0  0  0  0  0  0
  -32.8170   -2.0222   -9.7411 C   0  0  0  0  0  0  0  0  0  0  0  0
  -33.3756   -1.2719  -11.8829 O   0  0  0  0  0  0  0  0  0  0  0  0
  -33.7018   -1.3119  -10.6787 C   0  0  0  0  0  0  0  0  0  0  0  0
  -34.7841   -0.9363  -10.1890 O   0  0  0  0  0  0  0  0  0  0  0  0
  -34.9314   -1.0092   -9.2665 H   0  0  0  0  0  0  0  0  0  0  0  0
 22 21  2  0  0  0
 19 21  1  0  0  0
 19  1  1  0  0  0
 21 20  1  0  0  0
 10 11  2  0  0  0
 10  9  1  0  0  0
  1  9  1  0  0  0
  1  2  1  0  0  0
 11 12  1  0  0  0
  9  8  2  0  0  0
 20 24  1  0  0  0
  2  3  1  0  0  0
  2  7  2  0  0  0
  3  4  1  0  0  0
 24 26  1  0  0  0
 12 14  2  0  0  0
 12 13  1  0  0  0
  8  7  1  0  0  0
  8 14  1  0  0  0
  7  6  1  0  0  0
  4 15  1  0  0  0
  4  5  1  0  0  0
 16 15  2  0  0  0
 15 17  1  0  0  0
 26 25  2  0  0  0
 26 27  1  0  0  0
  6  5  1  0  0  0
 27 28  1  0  0  0
 20 23  1  0  0  0
 17 18  1  0  0  0
M  END
> <minimizedAffinity>
-7.26711

$$$$
4OVH_2VE_A_405


 28 30  0  0  0  0  0  0  0  0999 V2000
  -30.7131   -6.3256  -11.8581 N   0  0  0  0  0  0  0  0  0  0  0  0
  -29.7657   -6.4510  -10.9098 C   0  0  0  0  0  0  0  0  0  0  0  0
  -28.8080   -7.4630  -10.7399 C   0  0  0  0  0  0  0  0  0  0  0  0
  -27.7447   -7.0493   -9.6757 C   0  0  0  0  0  0  0  0  0  0  0  0
  -28.4306   -6.4221   -8.4943 C   0  0  0  0  0  0  0  0  0  0  0  0
  -29.0827   -5.1540   -8.9687 C   0  0  0  0  0  0  0  0  0  0  0  0
  -29.8977   -5.3851  -10.0864 C   0  0  0  0  0  0  0  0  0  0  0  0
  -30.9033   -4.6276  -10.5265 C   0  0  0  0  0  0  0  0  0  0  0  0
  -31.3996   -5.2152  -11.6246 C   0  0  0  0  0  0  0  0  0  0  0  0
  -32.4300   -4.6834  -12.2880 C   0  0  0  0  0  0  0  0  0  0  0  0
  -32.9975   -3.5097  -11.8522 C   0  0  0  0  0  0  0  0  0  0  0  0
  -32.5035   -2.8899  -10.7333 C   0  0  0  0  0  0  0  0  0  0  0  0
  -33.3666   -1.3227  -10.2490 Br  0  0  0  0  0  0  0  0  0  0  0  0
  -31.4260   -3.4746  -10.0593 C   0  0  0  0  0  0  0  0  0  0  0  0
  -26.8784   -8.2264   -9.1681 C   0  0  0  0  0  0  0  0  0  0  0  0
  -25.6942   -8.3153   -9.5777 O   0  0  0  0  0  0  0  0  0  0  0  0
  -27.4354   -9.0197   -8.3708 O   0  0  0  0  0  0  0  0  0  0  0  0
  -28.3261   -8.8794   -8.1159 H   0  0  0  0  0  0  0  0  0  0  0  0
  -31.0777   -7.1917  -13.0603 C   0  0  0  0  0  0  0  0  0  0  0  0
  -32.7976   -8.5406  -11.9451 N   0  0  0  0  0  0  0  0  0  0  0  0
  -31.6229   -8.5016  -12.5821 C   0  0  0  0  0  0  0  0  0  0  0  0
  -31.0147   -9.5238  -12.8551 O   0  0  0  0  0  0  0  0  0  0  0  0
  -33.3632   -7.7375  -11.8790 H   0  0  0  0  0  0  0  0  0  0  0  0
  -33.2235   -9.8155  -11.3450 C   0  0  0  0  0  0  0  0  0  0  0  0
  -33.2073  -10.0034   -9.0154 O   0  0  0  0  0  0  0  0  0  0  0  0
  -33.8294   -9.6025  -10.0207 C   0  0  0  0  0  0  0  0  0  0  0  0
  -34.8584   -8.9001  -10.0265 O   0  0  0  0  0  0  0  0  0  0  0  0
  -35.2513   -8.6512  -10.8400 H   0  0  0  0  0  0  0  0  0  0  0  0
 22 21  2  0  0  0
 19 21  1  0  0  0
 19  1  1  0  0  0
 21 20  1  0  0  0
 10 11  2  0  0  0
 10  9  1  0  0  0
  1  9  1  0  0  0
  1  2  1  0  0  0
 11 12  1  0  0  0
  9  8  2  0  0  0
 20 24  1  0  0  0
  2  3  1  0  0  0
  2  7  2  0  0  0
  3  4  1  0  0  0
 24 26  1  0  0  0
 12 14  2  0  0  0
 12 13  1  0  0  0
  8  7  1  0  0  0
  8 14  1  0  0  0
  7  6  1  0  0  0
  4 15  1  0  0  0
  4  5  1  0  0  0
 16 15  2  0  0  0
 15 17  1  0  0  0
 26 25  2  0  0  0
 26 27  1  0  0  0
  6  5  1  0  0  0
 27 28  1  0  0  0
 20 23  1  0  0  0
 17 18  1  0  0  0
M  END
> <minimizedAffinity>
-6.90912

$$$$
4OVH_2VE_A_405


 28 30  0  0  0  0  0  0  0  0999 V2000
  -30.4533   -6.1161  -12.0590 N   0  0  0  0  0  0  0  0  0  0  0  0
  -29.6050   -6.3270  -11.0350 C   0  0  0  0  0  0  0  0  0  0  0  0
  -28.6398   -7.3333  -10.8746 C   0  0  0  0  0  0  0  0  0  0  0  0
  -27.7045   -7.0192   -9.6660 C   0  0  0  0  0  0  0  0  0  0  0  0
  -28.5267   -6.5385   -8.5030 C   0  0  0  0  0  0  0  0  0  0  0  0
  -29.1646   -5.2384   -8.9048 C   0  0  0  0  0  0  0  0  0  0  0  0
  -29.8530   -5.3606  -10.1205 C   0  0  0  0  0  0  0  0  0  0  0  0
  -30.8304   -4.5784  -10.5804 C   0  0  0  0  0  0  0  0  0  0  0  0
  -31.1933   -5.0511  -11.7814 C   0  0  0  0  0  0  0  0  0  0  0  0
  -32.1657   -4.4691  -12.4888 C   0  0  0  0  0  0  0  0  0  0  0  0
  -32.8100   -3.3612  -11.9920 C   0  0  0  0  0  0  0  0  0  0  0  0
  -32.4526   -2.8589  -10.7672 C   0  0  0  0  0  0  0  0  0  0  0  0
  -33.4077   -1.3708  -10.2114 Br  0  0  0  0  0  0  0  0  0  0  0  0
  -31.4329   -3.4937  -10.0500 C   0  0  0  0  0  0  0  0  0  0  0  0
  -26.8598   -8.2284   -9.1990 C   0  0  0  0  0  0  0  0  0  0  0  0
  -25.6753   -8.3214   -9.6068 O   0  0  0  0  0  0  0  0  0  0  0  0
  -27.4334   -9.0416   -8.4342 O   0  0  0  0  0  0  0  0  0  0  0  0
  -28.3229   -8.8962   -8.1779 H   0  0  0  0  0  0  0  0  0  0  0  0
  -30.6661   -6.8516  -13.3788 C   0  0  0  0  0  0  0  0  0  0  0  0
  -29.7442   -5.2858  -15.0280 N   0  0  0  0  0  0  0  0  0  0  0  0
  -29.6115   -6.4340  -14.3561 C   0  0  0  0  0  0  0  0  0  0  0  0
  -28.6070   -7.1190  -14.4621 O   0  0  0  0  0  0  0  0  0  0  0  0
  -30.4698   -4.6560  -14.8133 H   0  0  0  0  0  0  0  0  0  0  0  0
  -28.7772   -4.9876  -16.0971 C   0  0  0  0  0  0  0  0  0  0  0  0
  -27.8993   -3.2537  -14.7990 O   0  0  0  0  0  0  0  0  0  0  0  0
  -28.2174   -3.6351  -15.9443 C   0  0  0  0  0  0  0  0  0  0  0  0
  -27.9788   -3.0469  -17.0164 O   0  0  0  0  0  0  0  0  0  0  0  0
  -28.2621   -3.4193  -17.8282 H   0  0  0  0  0  0  0  0  0  0  0  0
 22 21  2  0  0  0
 19 21  1  0  0  0
 19  1  1  0  0  0
 21 20  1  0  0  0
 10 11  2  0  0  0
 10  9  1  0  0  0
  1  9  1  0  0  0
  1  2  1  0  0  0
 11 12  1  0  0  0
  9  8  2  0  0  0
 20 24  1  0  0  0
  2  3  1  0  0  0
  2  7  2  0  0  0
  3  4  1  0  0  0
 24 26  1  0  0  0
 12 14  2  0  0  0
 12 13  1  0  0  0
  8  7  1  0  0  0
  8 14  1  0  0  0
  7  6  1  0  0  0
  4 15  1  0  0  0
  4  5  1  0  0  0
 16 15  2  0  0  0
 15 17  1  0  0  0
 26 25  2  0  0  0
 26 27  1  0  0  0
  6  5  1  0  0  0
 27 28  1  0  0  0
 20 23  1  0  0  0
 17 18  1  0  0  0
M  END
> <minimizedAffinity>
-6.82694

$$$$
4OVH_2VE_A_405


 28 30  0  0  0  0  0  0  0  0999 V2000
  -30.5396   -6.2405  -11.9904 N   0  0  0  0  0  0  0  0  0  0  0  0
  -29.6546   -6.4127  -10.9904 C   0  0  0  0  0  0  0  0  0  0  0  0
  -28.6900   -7.4183  -10.8219 C   0  0  0  0  0  0  0  0  0  0  0  0
  -27.7081   -7.0584   -9.6641 C   0  0  0  0  0  0  0  0  0  0  0  0
  -28.4831   -6.5209   -8.4936 C   0  0  0  0  0  0  0  0  0  0  0  0
  -29.1280   -5.2350   -8.9284 C   0  0  0  0  0  0  0  0  0  0  0  0
  -29.8623   -5.4053  -10.1109 C   0  0  0  0  0  0  0  0  0  0  0  0
  -30.8518   -4.6366  -10.5681 C   0  0  0  0  0  0  0  0  0  0  0  0
  -31.2624   -5.1588  -11.7326 C   0  0  0  0  0  0  0  0  0  0  0  0
  -32.2572   -4.6011  -12.4283 C   0  0  0  0  0  0  0  0  0  0  0  0
  -32.8759   -3.4677  -11.9571 C   0  0  0  0  0  0  0  0  0  0  0  0
  -32.4697   -2.9148  -10.7700 C   0  0  0  0  0  0  0  0  0  0  0  0
  -33.3944   -1.3966  -10.2451 Br  0  0  0  0  0  0  0  0  0  0  0  0
  -31.4275   -3.5252  -10.0640 C   0  0  0  0  0  0  0  0  0  0  0  0
  -26.8536   -8.2523   -9.1761 C   0  0  0  0  0  0  0  0  0  0  0  0
  -25.6792   -8.3613   -9.6085 O   0  0  0  0  0  0  0  0  0  0  0  0
  -27.4095   -9.0378   -8.3703 O   0  0  0  0  0  0  0  0  0  0  0  0
  -28.2925   -8.8822   -8.0981 H   0  0  0  0  0  0  0  0  0  0  0  0
  -30.8062   -7.0316  -13.2675 C   0  0  0  0  0  0  0  0  0  0  0  0
  -28.6978   -7.4031  -14.4668 N   0  0  0  0  0  0  0  0  0  0  0  0
  -29.7946   -6.6558  -14.3054 C   0  0  0  0  0  0  0  0  0  0  0  0
  -30.0328   -5.7112  -15.0405 O   0  0  0  0  0  0  0  0  0  0  0  0
  -28.5943   -8.2578  -13.9893 H   0  0  0  0  0  0  0  0  0  0  0  0
  -27.6490   -6.9148  -15.3769 C   0  0  0  0  0  0  0  0  0  0  0  0
  -26.3544   -6.6644  -13.4472 O   0  0  0  0  0  0  0  0  0  0  0  0
  -26.5385   -6.3044  -14.6282 C   0  0  0  0  0  0  0  0  0  0  0  0
  -25.7890   -5.5786  -15.3092 O   0  0  0  0  0  0  0  0  0  0  0  0
  -26.0190   -5.3654  -16.1922 H   0  0  0  0  0  0  0  0  0  0  0  0
 22 21  2  0  0  0
 19 21  1  0  0  0
 19  1  1  0  0  0
 21 20  1  0  0  0
 10 11  2  0  0  0
 10  9  1  0  0  0
  1  9  1  0  0  0
  1  2  1  0  0  0
 11 12  1  0  0  0
  9  8  2  0  0  0
 20 24  1  0  0  0
  2  3  1  0  0  0
  2  7  2  0  0  0
  3  4  1  0  0  0
 24 26  1  0  0  0
 12 14  2  0  0  0
 12 13  1  0  0  0
  8  7  1  0  0  0
  8 14  1  0  0  0
  7  6  1  0  0  0
  4 15  1  0  0  0
  4  5  1  0  0  0
 16 15  2  0  0  0
 15 17  1  0  0  0
 26 25  2  0  0  0
 26 27  1  0  0  0
  6  5  1  0  0  0
 27 28  1  0  0  0
 20 23  1  0  0  0
 17 18  1  0  0  0
M  END
> <minimizedAffinity>
-6.41363

$$$$
4OVH_2VE_A_405


 28 30  0  0  0  0  0  0  0  0999 V2000
  -30.1120   -5.8015  -12.2325 N   0  0  0  0  0  0  0  0  0  0  0  0
  -29.4045   -6.1345  -11.1365 C   0  0  0  0  0  0  0  0  0  0  0  0
  -28.4406   -7.1418  -10.9741 C   0  0  0  0  0  0  0  0  0  0  0  0
  -27.6875   -6.9773   -9.6176 C   0  0  0  0  0  0  0  0  0  0  0  0
  -28.6738   -6.6624   -8.5277 C   0  0  0  0  0  0  0  0  0  0  0  0
  -29.2894   -5.3286   -8.8444 C   0  0  0  0  0  0  0  0  0  0  0  0
  -29.8027   -5.2989  -10.1492 C   0  0  0  0  0  0  0  0  0  0  0  0
  -30.7314   -4.4748  -10.6360 C   0  0  0  0  0  0  0  0  0  0  0  0
  -30.9140   -4.7908  -11.9261 C   0  0  0  0  0  0  0  0  0  0  0  0
  -31.7982   -4.1327  -12.6810 C   0  0  0  0  0  0  0  0  0  0  0  0
  -32.5365   -3.1069  -12.1405 C   0  0  0  0  0  0  0  0  0  0  0  0
  -32.3635   -2.7648  -10.8240 C   0  0  0  0  0  0  0  0  0  0  0  0
  -33.4288   -1.3734  -10.2200 Br  0  0  0  0  0  0  0  0  0  0  0  0
  -31.4322   -3.4759  -10.0597 C   0  0  0  0  0  0  0  0  0  0  0  0
  -26.8786   -8.2272   -9.1968 C   0  0  0  0  0  0  0  0  0  0  0  0
  -25.7699   -8.4340   -9.7500 O   0  0  0  0  0  0  0  0  0  0  0  0
  -27.4019   -8.9550   -8.3183 O   0  0  0  0  0  0  0  0  0  0  0  0
  -28.2356   -8.7268   -7.9566 H   0  0  0  0  0  0  0  0  0  0  0  0
  -30.1219   -6.3607  -13.6521 C   0  0  0  0  0  0  0  0  0  0  0  0
  -32.0905   -7.8107  -13.4428 N   0  0  0  0  0  0  0  0  0  0  0  0
  -30.7738   -7.7086  -13.6509 C   0  0  0  0  0  0  0  0  0  0  0  0
  -30.0959   -8.6873  -13.9193 O   0  0  0  0  0  0  0  0  0  0  0  0
  -32.6583   -7.0078  -13.3972 H   0  0  0  0  0  0  0  0  0  0  0  0
  -32.6692   -9.1548  -13.2835 C   0  0  0  0  0  0  0  0  0  0  0  0
  -32.6961   -8.8410  -10.9676 O   0  0  0  0  0  0  0  0  0  0  0  0
  -33.2916   -9.3112  -11.9590 C   0  0  0  0  0  0  0  0  0  0  0  0
  -34.4450   -9.7818  -11.9787 O   0  0  0  0  0  0  0  0  0  0  0  0
  -34.8028  -10.1117  -12.7794 H   0  0  0  0  0  0  0  0  0  0  0  0
 22 21  2  0  0  0
 19 21  1  0  0  0
 19  1  1  0  0  0
 21 20  1  0  0  0
 10 11  2  0  0  0
 10  9  1  0  0  0
  1  9  1  0  0  0
  1  2  1  0  0  0
 11 12  1  0  0  0
  9  8  2  0  0  0
 20 24  1  0  0  0
  2  3  1  0  0  0
  2  7  2  0  0  0
  3  4  1  0  0  0
 24 26  1  0  0  0
 12 14  2  0  0  0
 12 13  1  0  0  0
  8  7  1  0  0  0
  8 14  1  0  0  0
  7  6  1  0  0  0
  4 15  1  0  0  0
  4  5  1  0  0  0
 16 15  2  0  0  0
 15 17  1  0  0  0
 26 25  2  0  0  0
 26 27  1  0  0  0
  6  5  1  0  0  0
 27 28  1  0  0  0
 20 23  1  0  0  0
 17 18  1  0  0  0
M  END
> <minimizedAffinity>
-6.26813

$$$$
4OVH_2VE_A_405


 28 30  0  0  0  0  0  0  0  0999 V2000
  -30.1617   -4.6189  -12.5883 N   0  0  0  0  0  0  0  0  0  0  0  0
  -28.8851   -4.9106  -12.9011 C   0  0  0  0  0  0  0  0  0  0  0  0
  -27.9669   -5.7228  -12.2175 C   0  0  0  0  0  0  0  0  0  0  0  0
  -26.7041   -5.9931  -13.0930 C   0  0  0  0  0  0  0  0  0  0  0  0
  -26.2685   -4.7173  -13.7581 C   0  0  0  0  0  0  0  0  0  0  0  0
  -27.3640   -4.2985  -14.6978 C   0  0  0  0  0  0  0  0  0  0  0  0
  -28.6046   -4.2457  -14.0459 C   0  0  0  0  0  0  0  0  0  0  0  0
  -29.6888   -3.5657  -14.4213 C   0  0  0  0  0  0  0  0  0  0  0  0
  -30.6480   -3.8050  -13.5156 C   0  0  0  0  0  0  0  0  0  0  0  0
  -31.8574   -3.2482  -13.6253 C   0  0  0  0  0  0  0  0  0  0  0  0
  -32.1397   -2.4180  -14.6838 C   0  0  0  0  0  0  0  0  0  0  0  0
  -31.1746   -2.1620  -15.6235 C   0  0  0  0  0  0  0  0  0  0  0  0
  -31.6829   -1.0182  -16.9906 Br  0  0  0  0  0  0  0  0  0  0  0  0
  -29.9173   -2.7579  -15.4778 C   0  0  0  0  0  0  0  0  0  0  0  0
  -25.5045   -6.5635  -12.2998 C   0  0  0  0  0  0  0  0  0  0  0  0
  -24.3485   -6.1835  -12.6118 O   0  0  0  0  0  0  0  0  0  0  0  0
  -25.7822   -7.3797  -11.3877 O   0  0  0  0  0  0  0  0  0  0  0  0
  -26.6750   -7.6094  -11.2204 H   0  0  0  0  0  0  0  0  0  0  0  0
  -31.0558   -5.0533  -11.4307 C   0  0  0  0  0  0  0  0  0  0  0  0
  -32.6526   -3.4477  -10.4853 N   0  0  0  0  0  0  0  0  0  0  0  0
  -31.3858   -3.8634  -10.5839 C   0  0  0  0  0  0  0  0  0  0  0  0
  -30.4941   -3.3411   -9.9347 O   0  0  0  0  0  0  0  0  0  0  0  0
  -33.3886   -3.9743  -10.8731 H   0  0  0  0  0  0  0  0  0  0  0  0
  -32.9186   -2.1823   -9.7818 C   0  0  0  0  0  0  0  0  0  0  0  0
  -33.4406   -1.0866  -11.7792 O   0  0  0  0  0  0  0  0  0  0  0  0
  -33.7664   -1.2928  -10.5919 C   0  0  0  0  0  0  0  0  0  0  0  0
  -34.8268   -0.9408  -10.0405 O   0  0  0  0  0  0  0  0  0  0  0  0
  -34.9762   -1.1458   -9.1385 H   0  0  0  0  0  0  0  0  0  0  0  0
 22 21  2  0  0  0
 19 21  1  0  0  0
 19  1  1  0  0  0
 21 20  1  0  0  0
 10 11  2  0  0  0
 10  9  1  0  0  0
  1  9  1  0  0  0
  1  2  1  0  0  0
 11 12  1  0  0  0
  9  8  2  0  0  0
 20 24  1  0  0  0
  2  3  1  0  0  0
  2  7  2  0  0  0
  3  4  1  0  0  0
 24 26  1  0  0  0
 12 14  2  0  0  0
 12 13  1  0  0  0
  8  7  1  0  0  0
  8 14  1  0  0  0
  7  6  1  0  0  0
  4 15  1  0  0  0
  4  5  1  0  0  0
 16 15  2  0  0  0
 15 17  1  0  0  0
 26 25  2  0  0  0
 26 27  1  0  0  0
  6  5  1  0  0  0
 27 28  1  0  0  0
 20 23  1  0  0  0
 17 18  1  0  0  0
M  END
> <minimizedAffinity>
-5.98352

$$$$
4OVH_2VE_A_405


 28 30  0  0  0  0  0  0  0  0999 V2000
  -29.6531   -5.2436  -13.6144 N   0  0  0  0  0  0  0  0  0  0  0  0
  -29.9972   -4.7997  -12.3907 C   0  0  0  0  0  0  0  0  0  0  0  0
  -31.1546   -4.1158  -11.9874 C   0  0  0  0  0  0  0  0  0  0  0  0
  -31.2491   -4.0522  -10.4314 C   0  0  0  0  0  0  0  0  0  0  0  0
  -29.9031   -3.7076   -9.8576 C   0  0  0  0  0  0  0  0  0  0  0  0
  -28.9668   -4.8359  -10.1877 C   0  0  0  0  0  0  0  0  0  0  0  0
  -28.9810   -5.1277  -11.5593 C   0  0  0  0  0  0  0  0  0  0  0  0
  -28.0402   -5.7589  -12.2632 C   0  0  0  0  0  0  0  0  0  0  0  0
  -28.4660   -5.8290  -13.5326 C   0  0  0  0  0  0  0  0  0  0  0  0
  -27.7232   -6.4078  -14.4802 C   0  0  0  0  0  0  0  0  0  0  0  0
  -26.5014   -6.9510  -14.1616 C   0  0  0  0  0  0  0  0  0  0  0  0
  -26.0480   -6.8934  -12.8688 C   0  0  0  0  0  0  0  0  0  0  0  0
  -24.3822   -7.6527  -12.5786 Br  0  0  0  0  0  0  0  0  0  0  0  0
  -26.8483   -6.2773  -11.9008 C   0  0  0  0  0  0  0  0  0  0  0  0
  -32.2794   -3.0226   -9.9098 C   0  0  0  0  0  0  0  0  0  0  0  0
  -32.8599   -2.2847  -10.7443 O   0  0  0  0  0  0  0  0  0  0  0  0
  -32.4599   -3.0011   -8.6679 O   0  0  0  0  0  0  0  0  0  0  0  0
  -31.9834   -3.5885   -8.1149 H   0  0  0  0  0  0  0  0  0  0  0  0
  -30.3670   -5.1847  -14.9616 C   0  0  0  0  0  0  0  0  0  0  0  0
  -31.4677   -3.1300  -15.7285 N   0  0  0  0  0  0  0  0  0  0  0  0
  -30.3265   -3.7824  -15.4847 C   0  0  0  0  0  0  0  0  0  0  0  0
  -29.2434   -3.2331  -15.6047 O   0  0  0  0  0  0  0  0  0  0  0  0
  -32.3354   -3.5159  -15.4687 H   0  0  0  0  0  0  0  0  0  0  0  0
  -31.3933   -1.8198  -16.3953 C   0  0  0  0  0  0  0  0  0  0  0  0
  -33.2257   -0.3924  -16.6544 O   0  0  0  0  0  0  0  0  0  0  0  0
  -32.4037   -0.8934  -15.8596 C   0  0  0  0  0  0  0  0  0  0  0  0
  -32.4273   -0.8118  -14.6166 O   0  0  0  0  0  0  0  0  0  0  0  0
  -31.7590   -1.2263  -14.1071 H   0  0  0  0  0  0  0  0  0  0  0  0
 22 21  2  0  0  0
 19 21  1  0  0  0
 19  1  1  0  0  0
 21 20  1  0  0  0
 10 11  2  0  0  0
 10  9  1  0  0  0
  1  9  1  0  0  0
  1  2  1  0  0  0
 11 12  1  0  0  0
  9  8  2  0  0  0
 20 24  1  0  0  0
  2  3  1  0  0  0
  2  7  2  0  0  0
  3  4  1  0  0  0
 24 26  1  0  0  0
 12 14  2  0  0  0
 12 13  1  0  0  0
  8  7  1  0  0  0
  8 14  1  0  0  0
  7  6  1  0  0  0
  4 15  1  0  0  0
  4  5  1  0  0  0
 16 15  2  0  0  0
 15 17  1  0  0  0
 26 25  2  0  0  0
 26 27  1  0  0  0
  6  5  1  0  0  0
 27 28  1  0  0  0
 20 23  1  0  0  0
 17 18  1  0  0  0
M  END
> <minimizedAffinity>
-5.97964

$$$$
4OVH_2VE_A_405


 28 30  0  0  0  0  0  0  0  0999 V2000
  -29.4878   -4.6381  -11.3128 N   0  0  0  0  0  0  0  0  0  0  0  0
  -29.3208   -4.6157  -12.6486 C   0  0  0  0  0  0  0  0  0  0  0  0
  -28.3343   -5.2365  -13.4305 C   0  0  0  0  0  0  0  0  0  0  0  0
  -28.6990   -5.1647  -14.9457 C   0  0  0  0  0  0  0  0  0  0  0  0
  -29.2026   -3.7881  -15.2790 C   0  0  0  0  0  0  0  0  0  0  0  0
  -30.4802   -3.5755  -14.5168 C   0  0  0  0  0  0  0  0  0  0  0  0
  -30.3108   -3.8412  -13.1502 C   0  0  0  0  0  0  0  0  0  0  0  0
  -31.0641   -3.4039  -12.1402 C   0  0  0  0  0  0  0  0  0  0  0  0
  -30.5496   -3.9044  -11.0078 C   0  0  0  0  0  0  0  0  0  0  0  0
  -31.0953   -3.6300   -9.8197 C   0  0  0  0  0  0  0  0  0  0  0  0
  -32.2081   -2.8268   -9.7420 C   0  0  0  0  0  0  0  0  0  0  0  0
  -32.7528   -2.3069  -10.8880 C   0  0  0  0  0  0  0  0  0  0  0  0
  -34.2427   -1.2325  -10.6407 Br  0  0  0  0  0  0  0  0  0  0  0  0
  -32.1553   -2.6104  -12.1160 C   0  0  0  0  0  0  0  0  0  0  0  0
  -27.5173   -5.4929  -15.8889 C   0  0  0  0  0  0  0  0  0  0  0  0
  -26.6093   -4.6360  -16.0277 O   0  0  0  0  0  0  0  0  0  0  0  0
  -27.5564   -6.6119  -16.4561 O   0  0  0  0  0  0  0  0  0  0  0  0
  -28.2735   -7.1934  -16.2960 H   0  0  0  0  0  0  0  0  0  0  0  0
  -28.7093   -5.3278  -10.1963 C   0  0  0  0  0  0  0  0  0  0  0  0
  -27.4008   -7.3799  -10.5094 N   0  0  0  0  0  0  0  0  0  0  0  0
  -28.6008   -6.7907  -10.4964 C   0  0  0  0  0  0  0  0  0  0  0  0
  -29.6260   -7.4352  -10.6475 O   0  0  0  0  0  0  0  0  0  0  0  0
  -26.5959   -6.8929  -10.2193 H   0  0  0  0  0  0  0  0  0  0  0  0
  -27.3143   -8.7758  -10.9687 C   0  0  0  0  0  0  0  0  0  0  0  0
  -27.2892   -9.5090   -8.7497 O   0  0  0  0  0  0  0  0  0  0  0  0
  -27.7164   -9.7104   -9.9052 C   0  0  0  0  0  0  0  0  0  0  0  0
  -28.5773  -10.5447  -10.2443 O   0  0  0  0  0  0  0  0  0  0  0  0
  -28.8303  -10.6178  -11.1436 H   0  0  0  0  0  0  0  0  0  0  0  0
 22 21  2  0  0  0
 19 21  1  0  0  0
 19  1  1  0  0  0
 21 20  1  0  0  0
 10 11  2  0  0  0
 10  9  1  0  0  0
  1  9  1  0  0  0
  1  2  1  0  0  0
 11 12  1  0  0  0
  9  8  2  0  0  0
 20 24  1  0  0  0
  2  3  1  0  0  0
  2  7  2  0  0  0
  3  4  1  0  0  0
 24 26  1  0  0  0
 12 14  2  0  0  0
 12 13  1  0  0  0
  8  7  1  0  0  0
  8 14  1  0  0  0
  7  6  1  0  0  0
  4 15  1  0  0  0
  4  5  1  0  0  0
 16 15  2  0  0  0
 15 17  1  0  0  0
 26 25  2  0  0  0
 26 27  1  0  0  0
  6  5  1  0  0  0
 27 28  1  0  0  0
 20 23  1  0  0  0
 17 18  1  0  0  0
M  END
> <minimizedAffinity>
-5.56554

$$$$
4OVH_2VE_A_405


 28 30  0  0  0  0  0  0  0  0999 V2000
  -28.7664   -6.2047  -13.1519 N   0  0  0  0  0  0  0  0  0  0  0  0
  -27.5340   -5.6844  -13.3038 C   0  0  0  0  0  0  0  0  0  0  0  0
  -26.2844   -6.2774  -13.0652 C   0  0  0  0  0  0  0  0  0  0  0  0
  -25.1324   -5.3991  -13.6446 C   0  0  0  0  0  0  0  0  0  0  0  0
  -25.3832   -3.9546  -13.3127 C   0  0  0  0  0  0  0  0  0  0  0  0
  -26.6416   -3.5382  -14.0208 C   0  0  0  0  0  0  0  0  0  0  0  0
  -27.7003   -4.4142  -13.7400 C   0  0  0  0  0  0  0  0  0  0  0  0
  -29.0064   -4.1688  -13.8521 C   0  0  0  0  0  0  0  0  0  0  0  0
  -29.6582   -5.2829  -13.4894 C   0  0  0  0  0  0  0  0  0  0  0  0
  -30.9930   -5.3360  -13.4942 C   0  0  0  0  0  0  0  0  0  0  0  0
  -31.7244   -4.2385  -13.8816 C   0  0  0  0  0  0  0  0  0  0  0  0
  -31.0783   -3.0897  -14.2597 C   0  0  0  0  0  0  0  0  0  0  0  0
  -32.1825   -1.6831  -14.7472 Br  0  0  0  0  0  0  0  0  0  0  0  0
  -29.6796   -3.0655  -14.2401 C   0  0  0  0  0  0  0  0  0  0  0  0
  -23.7290   -5.7835  -13.1188 C   0  0  0  0  0  0  0  0  0  0  0  0
  -22.8525   -4.8864  -13.0478 O   0  0  0  0  0  0  0  0  0  0  0  0
  -23.5687   -6.9862  -12.7978 O   0  0  0  0  0  0  0  0  0  0  0  0
  -24.2783   -7.5922  -12.8824 H   0  0  0  0  0  0  0  0  0  0  0  0
  -29.2472   -7.5791  -12.6959 C   0  0  0  0  0  0  0  0  0  0  0  0
  -28.3671   -6.8484  -10.5250 N   0  0  0  0  0  0  0  0  0  0  0  0
  -29.1914   -7.6547  -11.2016 C   0  0  0  0  0  0  0  0  0  0  0  0
  -29.9628   -8.4033  -10.6239 O   0  0  0  0  0  0  0  0  0  0  0  0
  -27.8740   -6.1302  -10.9836 H   0  0  0  0  0  0  0  0  0  0  0  0
  -28.2159   -7.0624   -9.0765 C   0  0  0  0  0  0  0  0  0  0  0  0
  -27.4129   -9.0618   -8.1711 O   0  0  0  0  0  0  0  0  0  0  0  0
  -27.1314   -8.0156   -8.7911 C   0  0  0  0  0  0  0  0  0  0  0  0
  -26.0436   -7.7436   -9.3344 O   0  0  0  0  0  0  0  0  0  0  0  0
  -25.9330   -6.9256   -9.7778 H   0  0  0  0  0  0  0  0  0  0  0  0
 22 21  2  0  0  0
 19 21  1  0  0  0
 19  1  1  0  0  0
 21 20  1  0  0  0
 10 11  2  0  0  0
 10  9  1  0  0  0
  1  9  1  0  0  0
  1  2  1  0  0  0
 11 12  1  0  0  0
  9  8  2  0  0  0
 20 24  1  0  0  0
  2  3  1  0  0  0
  2  7  2  0  0  0
  3  4  1  0  0  0
 24 26  1  0  0  0
 12 14  2  0  0  0
 12 13  1  0  0  0
  8  7  1  0  0  0
  8 14  1  0  0  0
  7  6  1  0  0  0
  4 15  1  0  0  0
  4  5  1  0  0  0
 16 15  2  0  0  0
 15 17  1  0  0  0
 26 25  2  0  0  0
 26 27  1  0  0  0
  6  5  1  0  0  0
 27 28  1  0  0  0
 20 23  1  0  0  0
 17 18  1  0  0  0
M  END
> <minimizedAffinity>
-5.40172

$$$$
