1HK4_T44_A_1008


 28 29  0  0  0  0  0  0  0  0999 V2000
   20.6699    9.5856   28.0376 C   0  0  0  0  0  0  0  0  0  0  0  0
   19.7196   10.4671   27.4954 C   0  0  0  0  0  0  0  0  0  0  0  0
   19.7562   10.8749   26.1457 C   0  0  0  0  0  0  0  0  0  0  0  0
   20.7958   10.3769   25.2804 C   0  0  0  0  0  0  0  0  0  0  0  0
   21.7342    9.5064   25.8165 C   0  0  0  0  0  0  0  0  0  0  0  0
   21.6987    9.0922   27.1771 C   0  0  0  0  0  0  0  0  0  0  0  0
   18.2914   12.1811   25.4314 I   0  0  0  0  0  0  0  0  0  0  0  0
   23.2688    8.7519   24.5829 I   0  0  0  0  0  0  0  0  0  0  0  0
   20.5647    9.1767   29.5073 C   0  0  0  0  0  0  0  0  0  0  0  0
   20.2895   10.2676   30.5325 C   0  0  0  0  0  0  0  0  0  0  0  0
   21.4244   10.2867   31.5179 N   0  0  0  0  0  0  0  0  0  0  0  0
   21.4587    9.3963   32.0143 H   0  0  0  0  0  0  0  0  0  0  0  0
   21.2814   11.0435   32.1866 H   0  0  0  0  0  0  0  0  0  0  0  0
   18.9683   10.1030   31.3403 C   0  0  0  0  0  0  0  0  0  0  0  0
   19.0665    9.9158   32.5644 O   0  0  0  0  0  0  0  0  0  0  0  0
   17.9096   10.1730   30.7076 O   0  0  0  0  0  0  0  0  0  0  0  0
   17.9256   10.3169   29.7818 H   0  0  0  0  0  0  0  0  0  0  0  0
   20.8267   10.7807   23.9498 O   0  0  0  0  0  0  0  0  0  0  0  0
   21.4112   11.9922   23.5243 C   0  0  0  0  0  0  0  0  0  0  0  0
   21.6167   12.1115   22.1343 C   0  0  0  0  0  0  0  0  0  0  0  0
   22.1982   13.2986   21.6423 C   0  0  0  0  0  0  0  0  0  0  0  0
   22.5959   14.4201   22.4990 C   0  0  0  0  0  0  0  0  0  0  0  0
   22.3491   14.2014   23.8769 C   0  0  0  0  0  0  0  0  0  0  0  0
   21.7736   13.0399   24.4124 C   0  0  0  0  0  0  0  0  0  0  0  0
   23.1308   15.5118   22.0143 O   0  0  0  0  0  0  0  0  0  0  0  0
   22.5083   13.5144   19.5843 I   0  0  0  0  0  0  0  0  0  0  0  0
   22.8613   15.7040   25.2193 I   0  0  0  0  0  0  0  0  0  0  0  0
   23.2686   15.5961   21.0913 H   0  0  0  0  0  0  0  0  0  0  0  0
  1  2  2  0  0  0
  1  6  1  0  0  0
  1  9  1  0  0  0
  2  3  1  0  0  0
  3  4  2  0  0  0
  3  7  1  0  0  0
  4  5  1  0  0  0
  4 18  1  0  0  0
  5  6  2  0  0  0
  5  8  1  0  0  0
  9 10  1  0  0  0
 10 14  1  0  0  0
 10 11  1  0  0  0
 14 15  2  0  0  0
 14 16  1  0  0  0
 19 20  2  0  0  0
 19 24  1  0  0  0
 19 18  1  0  0  0
 20 21  1  0  0  0
 21 22  2  0  0  0
 21 26  1  0  0  0
 22 23  1  0  0  0
 22 25  1  0  0  0
 23 24  2  0  0  0
 23 27  1  0  0  0
 11 12  1  0  0  0
 11 13  1  0  0  0
 25 28  1  0  0  0
 16 17  1  0  0  0
M  END
> <minimizedAffinity>
-6.21306

$$$$
1HK4_T44_A_1008


 28 29  0  0  0  0  0  0  0  0999 V2000
   20.6578    9.6906   28.1545 C   0  0  0  0  0  0  0  0  0  0  0  0
   21.6779    9.2050   27.3192 C   0  0  0  0  0  0  0  0  0  0  0  0
   21.7675    9.5602   25.9572 C   0  0  0  0  0  0  0  0  0  0  0  0
   20.7885   10.4529   25.3894 C   0  0  0  0  0  0  0  0  0  0  0  0
   19.7812   10.9321   26.2148 C   0  0  0  0  0  0  0  0  0  0  0  0
   19.6894   10.5766   27.5893 C   0  0  0  0  0  0  0  0  0  0  0  0
   23.3279    8.7933   24.8001 I   0  0  0  0  0  0  0  0  0  0  0  0
   18.3318   12.2434   25.4239 I   0  0  0  0  0  0  0  0  0  0  0  0
   20.6266    9.2727   29.6251 C   0  0  0  0  0  0  0  0  0  0  0  0
   20.2826   10.3343   30.6603 C   0  0  0  0  0  0  0  0  0  0  0  0
   21.3933   10.3848   31.6720 N   0  0  0  0  0  0  0  0  0  0  0  0
   21.4539    9.4886   32.1553 H   0  0  0  0  0  0  0  0  0  0  0  0
   21.2034   11.1239   32.3488 H   0  0  0  0  0  0  0  0  0  0  0  0
   18.9517   10.1014   31.4346 C   0  0  0  0  0  0  0  0  0  0  0  0
   19.0360    9.7285   32.6166 O   0  0  0  0  0  0  0  0  0  0  0  0
   17.8999   10.3068   30.8201 O   0  0  0  0  0  0  0  0  0  0  0  0
   17.9265   10.5876   29.9266 H   0  0  0  0  0  0  0  0  0  0  0  0
   20.8819   10.8014   24.0462 O   0  0  0  0  0  0  0  0  0  0  0  0
   21.4502   12.0135   23.6010 C   0  0  0  0  0  0  0  0  0  0  0  0
   21.6357   12.1210   22.2073 C   0  0  0  0  0  0  0  0  0  0  0  0
   22.2002   13.3082   21.6959 C   0  0  0  0  0  0  0  0  0  0  0  0
   22.6000   14.4412   22.5362 C   0  0  0  0  0  0  0  0  0  0  0  0
   22.3739   14.2339   23.9194 C   0  0  0  0  0  0  0  0  0  0  0  0
   21.8157   13.0729   24.4739 C   0  0  0  0  0  0  0  0  0  0  0  0
   23.1188   15.5326   22.0337 O   0  0  0  0  0  0  0  0  0  0  0  0
   22.4803   13.5065   19.6318 I   0  0  0  0  0  0  0  0  0  0  0  0
   22.8916   15.7537   25.2401 I   0  0  0  0  0  0  0  0  0  0  0  0
   23.2434   15.6091   21.1082 H   0  0  0  0  0  0  0  0  0  0  0  0
  1  2  2  0  0  0
  1  6  1  0  0  0
  1  9  1  0  0  0
  2  3  1  0  0  0
  3  4  2  0  0  0
  3  7  1  0  0  0
  4  5  1  0  0  0
  4 18  1  0  0  0
  5  6  2  0  0  0
  5  8  1  0  0  0
  9 10  1  0  0  0
 10 14  1  0  0  0
 10 11  1  0  0  0
 14 15  2  0  0  0
 14 16  1  0  0  0
 19 20  2  0  0  0
 19 24  1  0  0  0
 19 18  1  0  0  0
 20 21  1  0  0  0
 21 22  2  0  0  0
 21 26  1  0  0  0
 22 23  1  0  0  0
 22 25  1  0  0  0
 23 24  2  0  0  0
 23 27  1  0  0  0
 11 12  1  0  0  0
 11 13  1  0  0  0
 25 28  1  0  0  0
 16 17  1  0  0  0
M  END
> <minimizedAffinity>
-6.17154

$$$$
1HK4_T44_A_1008


 28 29  0  0  0  0  0  0  0  0999 V2000
   20.7220    9.6426   27.9928 C   0  0  0  0  0  0  0  0  0  0  0  0
   21.7167    9.1540   27.1291 C   0  0  0  0  0  0  0  0  0  0  0  0
   21.7485    9.4808   25.7575 C   0  0  0  0  0  0  0  0  0  0  0  0
   20.7348   10.3466   25.2092 C   0  0  0  0  0  0  0  0  0  0  0  0
   19.7526   10.8287   26.0626 C   0  0  0  0  0  0  0  0  0  0  0  0
   19.7190   10.5018   27.4468 C   0  0  0  0  0  0  0  0  0  0  0  0
   23.2751    8.7120   24.5574 I   0  0  0  0  0  0  0  0  0  0  0  0
   18.2538   12.1013   25.3008 I   0  0  0  0  0  0  0  0  0  0  0  0
   20.7535    9.2562   29.4720 C   0  0  0  0  0  0  0  0  0  0  0  0
   20.2352   10.2683   30.4839 C   0  0  0  0  0  0  0  0  0  0  0  0
   21.2531   10.4020   31.5819 N   0  0  0  0  0  0  0  0  0  0  0  0
   21.3548    9.5078   32.0620 H   0  0  0  0  0  0  0  0  0  0  0  0
   20.9449   11.1116   32.2466 H   0  0  0  0  0  0  0  0  0  0  0  0
   18.8731    9.9076   31.1470 C   0  0  0  0  0  0  0  0  0  0  0  0
   18.3668   10.7498   31.9070 O   0  0  0  0  0  0  0  0  0  0  0  0
   18.3859    8.8070   30.8690 O   0  0  0  0  0  0  0  0  0  0  0  0
   18.8358    8.2297   30.2840 H   0  0  0  0  0  0  0  0  0  0  0  0
   20.7714   10.6673   23.8563 O   0  0  0  0  0  0  0  0  0  0  0  0
   21.3455   11.8566   23.3603 C   0  0  0  0  0  0  0  0  0  0  0  0
   21.6603   12.8295   24.3313 C   0  0  0  0  0  0  0  0  0  0  0  0
   22.2369   14.0430   23.9018 C   0  0  0  0  0  0  0  0  0  0  0  0
   22.5330   14.3459   22.4982 C   0  0  0  0  0  0  0  0  0  0  0  0
   22.1792   13.3063   21.6029 C   0  0  0  0  0  0  0  0  0  0  0  0
   21.6050   12.0842   21.9824 C   0  0  0  0  0  0  0  0  0  0  0  0
   23.0717   15.4798   22.1285 O   0  0  0  0  0  0  0  0  0  0  0  0
   22.7265   15.5052   25.3163 I   0  0  0  0  0  0  0  0  0  0  0  0
   22.5381   13.5890   19.5748 I   0  0  0  0  0  0  0  0  0  0  0  0
   23.2834   16.1291   22.7701 H   0  0  0  0  0  0  0  0  0  0  0  0
  1  2  2  0  0  0
  1  6  1  0  0  0
  1  9  1  0  0  0
  2  3  1  0  0  0
  3  4  2  0  0  0
  3  7  1  0  0  0
  4  5  1  0  0  0
  4 18  1  0  0  0
  5  6  2  0  0  0
  5  8  1  0  0  0
  9 10  1  0  0  0
 10 14  1  0  0  0
 10 11  1  0  0  0
 14 15  2  0  0  0
 14 16  1  0  0  0
 19 20  2  0  0  0
 19 24  1  0  0  0
 19 18  1  0  0  0
 20 21  1  0  0  0
 21 22  2  0  0  0
 21 26  1  0  0  0
 22 23  1  0  0  0
 22 25  1  0  0  0
 23 24  2  0  0  0
 23 27  1  0  0  0
 11 12  1  0  0  0
 11 13  1  0  0  0
 25 28  1  0  0  0
 16 17  1  0  0  0
M  END
> <minimizedAffinity>
-6.15207

$$$$
1HK4_T44_A_1008


 28 29  0  0  0  0  0  0  0  0999 V2000
   20.4164    9.9048   27.7992 C   0  0  0  0  0  0  0  0  0  0  0  0
   19.5084   10.7543   27.1451 C   0  0  0  0  0  0  0  0  0  0  0  0
   19.6219   11.0634   25.7737 C   0  0  0  0  0  0  0  0  0  0  0  0
   20.6988   10.4940   25.0032 C   0  0  0  0  0  0  0  0  0  0  0  0
   21.5955    9.6552   25.6498 C   0  0  0  0  0  0  0  0  0  0  0  0
   21.4824    9.3405   27.0327 C   0  0  0  0  0  0  0  0  0  0  0  0
   18.2151   12.3292   24.8901 I   0  0  0  0  0  0  0  0  0  0  0  0
   23.1827    8.7985   24.5576 I   0  0  0  0  0  0  0  0  0  0  0  0
   20.2280    9.6039   29.2866 C   0  0  0  0  0  0  0  0  0  0  0  0
   20.4625    8.1765   29.7600 C   0  0  0  0  0  0  0  0  0  0  0  0
   19.4608    7.2836   29.0825 N   0  0  0  0  0  0  0  0  0  0  0  0
   18.5188    7.5533   29.3657 H   0  0  0  0  0  0  0  0  0  0  0  0
   19.6324    6.3148   29.3513 H   0  0  0  0  0  0  0  0  0  0  0  0
   20.3273    7.9545   31.2955 C   0  0  0  0  0  0  0  0  0  0  0  0
   21.2403    8.3874   32.0180 O   0  0  0  0  0  0  0  0  0  0  0  0
   19.3170    7.3642   31.6918 O   0  0  0  0  0  0  0  0  0  0  0  0
   18.6748    7.0697   31.0764 H   0  0  0  0  0  0  0  0  0  0  0  0
   20.8057   10.8006   23.6509 O   0  0  0  0  0  0  0  0  0  0  0  0
   21.3877   11.9938   23.1736 C   0  0  0  0  0  0  0  0  0  0  0  0
   21.7263   12.9413   24.1615 C   0  0  0  0  0  0  0  0  0  0  0  0
   22.3119   14.1572   23.7513 C   0  0  0  0  0  0  0  0  0  0  0  0
   22.5937   14.4874   22.3508 C   0  0  0  0  0  0  0  0  0  0  0  0
   22.2162   13.4720   21.4377 C   0  0  0  0  0  0  0  0  0  0  0  0
   21.6323   12.2487   21.7977 C   0  0  0  0  0  0  0  0  0  0  0  0
   23.1412   15.6229   21.9991 O   0  0  0  0  0  0  0  0  0  0  0  0
   22.8368   15.5820   25.1909 I   0  0  0  0  0  0  0  0  0  0  0  0
   22.5527   13.7952   19.4118 I   0  0  0  0  0  0  0  0  0  0  0  0
   23.3687   16.2554   22.6520 H   0  0  0  0  0  0  0  0  0  0  0  0
  1  2  2  0  0  0
  1  6  1  0  0  0
  1  9  1  0  0  0
  2  3  1  0  0  0
  3  4  2  0  0  0
  3  7  1  0  0  0
  4  5  1  0  0  0
  4 18  1  0  0  0
  5  6  2  0  0  0
  5  8  1  0  0  0
  9 10  1  0  0  0
 10 14  1  0  0  0
 10 11  1  0  0  0
 14 15  2  0  0  0
 14 16  1  0  0  0
 19 20  2  0  0  0
 19 24  1  0  0  0
 19 18  1  0  0  0
 20 21  1  0  0  0
 21 22  2  0  0  0
 21 26  1  0  0  0
 22 23  1  0  0  0
 22 25  1  0  0  0
 23 24  2  0  0  0
 23 27  1  0  0  0
 11 12  1  0  0  0
 11 13  1  0  0  0
 25 28  1  0  0  0
 16 17  1  0  0  0
M  END
> <minimizedAffinity>
-6.12792

$$$$
1HK4_T44_A_1008


 28 29  0  0  0  0  0  0  0  0999 V2000
   20.5751   11.7351   26.2391 C   0  0  0  0  0  0  0  0  0  0  0  0
   20.6307   10.6217   25.3840 C   0  0  0  0  0  0  0  0  0  0  0  0
   20.5612    9.2984   25.8667 C   0  0  0  0  0  0  0  0  0  0  0  0
   20.4254    9.0642   27.2825 C   0  0  0  0  0  0  0  0  0  0  0  0
   20.3707   10.1642   28.1267 C   0  0  0  0  0  0  0  0  0  0  0  0
   20.4390   11.5001   27.6422 C   0  0  0  0  0  0  0  0  0  0  0  0
   20.6423    7.7097   24.5134 I   0  0  0  0  0  0  0  0  0  0  0  0
   20.1682    9.8648   30.2041 I   0  0  0  0  0  0  0  0  0  0  0  0
   20.6457   13.1432   25.6471 C   0  0  0  0  0  0  0  0  0  0  0  0
   19.7179   14.2047   26.2208 C   0  0  0  0  0  0  0  0  0  0  0  0
   18.8219   14.6948   25.1179 N   0  0  0  0  0  0  0  0  0  0  0  0
   19.3864   15.1361   24.3920 H   0  0  0  0  0  0  0  0  0  0  0  0
   18.1602   15.3739   25.4938 H   0  0  0  0  0  0  0  0  0  0  0  0
   20.4282   15.4464   26.8362 C   0  0  0  0  0  0  0  0  0  0  0  0
   21.3266   15.9815   26.1656 O   0  0  0  0  0  0  0  0  0  0  0  0
   20.0469   15.8178   27.9510 O   0  0  0  0  0  0  0  0  0  0  0  0
   19.3600   15.3551   28.3893 H   0  0  0  0  0  0  0  0  0  0  0  0
   20.3557    7.7575   27.7536 O   0  0  0  0  0  0  0  0  0  0  0  0
   21.4922    7.0106   28.1288 C   0  0  0  0  0  0  0  0  0  0  0  0
   21.4576    6.4646   29.4285 C   0  0  0  0  0  0  0  0  0  0  0  0
   22.5636    5.7067   29.8666 C   0  0  0  0  0  0  0  0  0  0  0  0
   23.7471    5.4502   29.0400 C   0  0  0  0  0  0  0  0  0  0  0  0
   23.6845    6.0418   27.7542 C   0  0  0  0  0  0  0  0  0  0  0  0
   22.6078    6.8021   27.2745 C   0  0  0  0  0  0  0  0  0  0  0  0
   24.7581    4.7401   29.4717 O   0  0  0  0  0  0  0  0  0  0  0  0
   22.5421    4.8726   31.7855 I   0  0  0  0  0  0  0  0  0  0  0  0
   25.2918    5.7668   26.4646 I   0  0  0  0  0  0  0  0  0  0  0  0
   24.7395    4.3745   30.3342 H   0  0  0  0  0  0  0  0  0  0  0  0
  1  2  2  0  0  0
  1  6  1  0  0  0
  1  9  1  0  0  0
  2  3  1  0  0  0
  3  4  2  0  0  0
  3  7  1  0  0  0
  4  5  1  0  0  0
  4 18  1  0  0  0
  5  6  2  0  0  0
  5  8  1  0  0  0
  9 10  1  0  0  0
 10 14  1  0  0  0
 10 11  1  0  0  0
 14 15  2  0  0  0
 14 16  1  0  0  0
 19 20  2  0  0  0
 19 24  1  0  0  0
 19 18  1  0  0  0
 20 21  1  0  0  0
 21 22  2  0  0  0
 21 26  1  0  0  0
 22 23  1  0  0  0
 22 25  1  0  0  0
 23 24  2  0  0  0
 23 27  1  0  0  0
 11 12  1  0  0  0
 11 13  1  0  0  0
 25 28  1  0  0  0
 16 17  1  0  0  0
M  END
> <minimizedAffinity>
-6.02787

$$$$
1HK4_T44_A_1008


 28 29  0  0  0  0  0  0  0  0999 V2000
   20.6577   11.7583   26.3119 C   0  0  0  0  0  0  0  0  0  0  0  0
   20.5206   11.4911   27.6845 C   0  0  0  0  0  0  0  0  0  0  0  0
   20.4238   10.1776   28.1890 C   0  0  0  0  0  0  0  0  0  0  0  0
   20.4685    9.0612   27.2784 C   0  0  0  0  0  0  0  0  0  0  0  0
   20.6038    9.3256   25.9228 C   0  0  0  0  0  0  0  0  0  0  0  0
   20.7031   10.6495   25.4115 C   0  0  0  0  0  0  0  0  0  0  0  0
   20.2326    9.8837   30.2479 I   0  0  0  0  0  0  0  0  0  0  0  0
   20.6773    7.7201   24.5580 I   0  0  0  0  0  0  0  0  0  0  0  0
   20.7676   13.2068   25.8344 C   0  0  0  0  0  0  0  0  0  0  0  0
   19.6981   14.1899   26.2888 C   0  0  0  0  0  0  0  0  0  0  0  0
   18.9430   14.6597   25.0769 N   0  0  0  0  0  0  0  0  0  0  0  0
   19.5776   15.1584   24.4531 H   0  0  0  0  0  0  0  0  0  0  0  0
   18.1903   15.2842   25.3663 H   0  0  0  0  0  0  0  0  0  0  0  0
   20.2276   15.4523   27.0313 C   0  0  0  0  0  0  0  0  0  0  0  0
   20.8951   16.2657   26.3710 O   0  0  0  0  0  0  0  0  0  0  0  0
   19.9445   15.5607   28.2289 O   0  0  0  0  0  0  0  0  0  0  0  0
   19.4342   14.8982   28.6516 H   0  0  0  0  0  0  0  0  0  0  0  0
   20.3742    7.7677   27.7808 O   0  0  0  0  0  0  0  0  0  0  0  0
   21.4977    7.0033   28.1603 C   0  0  0  0  0  0  0  0  0  0  0  0
   21.4417    6.4430   29.4531 C   0  0  0  0  0  0  0  0  0  0  0  0
   22.5337    5.6672   29.8951 C   0  0  0  0  0  0  0  0  0  0  0  0
   23.7236    5.4064   29.0792 C   0  0  0  0  0  0  0  0  0  0  0  0
   23.6828    6.0133   27.7996 C   0  0  0  0  0  0  0  0  0  0  0  0
   22.6206    6.7915   27.3165 C   0  0  0  0  0  0  0  0  0  0  0  0
   24.7213    4.6796   29.5142 O   0  0  0  0  0  0  0  0  0  0  0  0
   22.4804    4.8116   31.8038 I   0  0  0  0  0  0  0  0  0  0  0  0
   25.3016    5.7343   26.5255 I   0  0  0  0  0  0  0  0  0  0  0  0
   24.6885    4.3045   30.3722 H   0  0  0  0  0  0  0  0  0  0  0  0
  1  2  2  0  0  0
  1  6  1  0  0  0
  1  9  1  0  0  0
  2  3  1  0  0  0
  3  4  2  0  0  0
  3  7  1  0  0  0
  4  5  1  0  0  0
  4 18  1  0  0  0
  5  6  2  0  0  0
  5  8  1  0  0  0
  9 10  1  0  0  0
 10 14  1  0  0  0
 10 11  1  0  0  0
 14 15  2  0  0  0
 14 16  1  0  0  0
 19 20  2  0  0  0
 19 24  1  0  0  0
 19 18  1  0  0  0
 20 21  1  0  0  0
 21 22  2  0  0  0
 21 26  1  0  0  0
 22 23  1  0  0  0
 22 25  1  0  0  0
 23 24  2  0  0  0
 23 27  1  0  0  0
 11 12  1  0  0  0
 11 13  1  0  0  0
 25 28  1  0  0  0
 16 17  1  0  0  0
M  END
> <minimizedAffinity>
-6.01945

$$$$
1HK4_T44_A_1008


 28 29  0  0  0  0  0  0  0  0999 V2000
   20.7739   11.5034   26.1912 C   0  0  0  0  0  0  0  0  0  0  0  0
   20.8593   10.4043   25.3203 C   0  0  0  0  0  0  0  0  0  0  0  0
   20.7837    9.0730   25.7797 C   0  0  0  0  0  0  0  0  0  0  0  0
   20.6100    8.8154   27.1873 C   0  0  0  0  0  0  0  0  0  0  0  0
   20.5257    9.9013   28.0471 C   0  0  0  0  0  0  0  0  0  0  0  0
   20.6002   11.2452   27.5861 C   0  0  0  0  0  0  0  0  0  0  0  0
   20.9112    7.5068   24.4040 I   0  0  0  0  0  0  0  0  0  0  0  0
   20.2674    9.5675   30.1130 I   0  0  0  0  0  0  0  0  0  0  0  0
   20.8531   12.9212   25.6239 C   0  0  0  0  0  0  0  0  0  0  0  0
   19.8530   13.9494   26.1333 C   0  0  0  0  0  0  0  0  0  0  0  0
   18.8919   14.2646   25.0214 N   0  0  0  0  0  0  0  0  0  0  0  0
   19.3990   14.6848   24.2425 H   0  0  0  0  0  0  0  0  0  0  0  0
   18.1845   14.9176   25.3583 H   0  0  0  0  0  0  0  0  0  0  0  0
   20.4705   15.2949   26.6165 C   0  0  0  0  0  0  0  0  0  0  0  0
   21.2061   15.9039   25.8221 O   0  0  0  0  0  0  0  0  0  0  0  0
   20.1834   15.6677   27.7588 O   0  0  0  0  0  0  0  0  0  0  0  0
   19.6187   15.1456   28.2940 H   0  0  0  0  0  0  0  0  0  0  0  0
   20.5344    7.5009   27.6353 O   0  0  0  0  0  0  0  0  0  0  0  0
   21.6432    6.7953   28.1482 C   0  0  0  0  0  0  0  0  0  0  0  0
   22.7311    6.6483   27.2631 C   0  0  0  0  0  0  0  0  0  0  0  0
   23.8722    5.9520   27.7135 C   0  0  0  0  0  0  0  0  0  0  0  0
   23.9909    5.3768   29.0569 C   0  0  0  0  0  0  0  0  0  0  0  0
   22.8461    5.5775   29.8671 C   0  0  0  0  0  0  0  0  0  0  0  0
   21.6905    6.2625   29.4641 C   0  0  0  0  0  0  0  0  0  0  0  0
   25.0637    4.7381   29.4491 O   0  0  0  0  0  0  0  0  0  0  0  0
   25.5093    5.7238   26.4306 I   0  0  0  0  0  0  0  0  0  0  0  0
   22.8640    4.8173   31.8020 I   0  0  0  0  0  0  0  0  0  0  0  0
   25.7895    4.6384   28.8650 H   0  0  0  0  0  0  0  0  0  0  0  0
  1  2  2  0  0  0
  1  6  1  0  0  0
  1  9  1  0  0  0
  2  3  1  0  0  0
  3  4  2  0  0  0
  3  7  1  0  0  0
  4  5  1  0  0  0
  4 18  1  0  0  0
  5  6  2  0  0  0
  5  8  1  0  0  0
  9 10  1  0  0  0
 10 14  1  0  0  0
 10 11  1  0  0  0
 14 15  2  0  0  0
 14 16  1  0  0  0
 19 20  2  0  0  0
 19 24  1  0  0  0
 19 18  1  0  0  0
 20 21  1  0  0  0
 21 22  2  0  0  0
 21 26  1  0  0  0
 22 23  1  0  0  0
 22 25  1  0  0  0
 23 24  2  0  0  0
 23 27  1  0  0  0
 11 12  1  0  0  0
 11 13  1  0  0  0
 25 28  1  0  0  0
 16 17  1  0  0  0
M  END
> <minimizedAffinity>
-5.86161

$$$$
1HK4_T44_A_1008


 28 29  0  0  0  0  0  0  0  0999 V2000
   21.0584   11.3054   25.7885 C   0  0  0  0  0  0  0  0  0  0  0  0
   21.1966   10.1459   25.0071 C   0  0  0  0  0  0  0  0  0  0  0  0
   21.1161    8.8515   25.5613 C   0  0  0  0  0  0  0  0  0  0  0  0
   20.8815    8.6967   26.9750 C   0  0  0  0  0  0  0  0  0  0  0  0
   20.7453    9.8421   27.7464 C   0  0  0  0  0  0  0  0  0  0  0  0
   20.8246   11.1490   27.1897 C   0  0  0  0  0  0  0  0  0  0  0  0
   21.3246    7.1894   24.3139 I   0  0  0  0  0  0  0  0  0  0  0  0
   20.3971    9.6590   29.8180 I   0  0  0  0  0  0  0  0  0  0  0  0
   21.1465   12.6781   25.1206 C   0  0  0  0  0  0  0  0  0  0  0  0
   19.8468   13.3539   24.7072 C   0  0  0  0  0  0  0  0  0  0  0  0
   19.4621   14.3340   25.7800 N   0  0  0  0  0  0  0  0  0  0  0  0
   19.2877   13.8332   26.6513 H   0  0  0  0  0  0  0  0  0  0  0  0
   18.6174   14.8317   25.4989 H   0  0  0  0  0  0  0  0  0  0  0  0
   18.6385   12.3956   24.4908 C   0  0  0  0  0  0  0  0  0  0  0  0
   18.5312   11.8535   23.3782 O   0  0  0  0  0  0  0  0  0  0  0  0
   17.8687   12.2367   25.4438 O   0  0  0  0  0  0  0  0  0  0  0  0
   18.0238   12.6860   26.2513 H   0  0  0  0  0  0  0  0  0  0  0  0
   20.8013    7.4182   27.5166 O   0  0  0  0  0  0  0  0  0  0  0  0
   21.9221    6.7167   28.0087 C   0  0  0  0  0  0  0  0  0  0  0  0
   21.8059    6.2375   29.3299 C   0  0  0  0  0  0  0  0  0  0  0  0
   22.8919    5.5276   29.8832 C   0  0  0  0  0  0  0  0  0  0  0  0
   24.1353    5.2551   29.1555 C   0  0  0  0  0  0  0  0  0  0  0  0
   24.1527    5.7784   27.8390 C   0  0  0  0  0  0  0  0  0  0  0  0
   23.0988    6.4891   27.2463 C   0  0  0  0  0  0  0  0  0  0  0  0
   25.1261    4.5905   29.6933 O   0  0  0  0  0  0  0  0  0  0  0  0
   22.7504    4.7929   31.8373 I   0  0  0  0  0  0  0  0  0  0  0  0
   25.8518    5.4730   26.6806 I   0  0  0  0  0  0  0  0  0  0  0  0
   25.0534    4.2694   30.5706 H   0  0  0  0  0  0  0  0  0  0  0  0
  1  2  2  0  0  0
  1  6  1  0  0  0
  1  9  1  0  0  0
  2  3  1  0  0  0
  3  4  2  0  0  0
  3  7  1  0  0  0
  4  5  1  0  0  0
  4 18  1  0  0  0
  5  6  2  0  0  0
  5  8  1  0  0  0
  9 10  1  0  0  0
 10 14  1  0  0  0
 10 11  1  0  0  0
 14 15  2  0  0  0
 14 16  1  0  0  0
 19 20  2  0  0  0
 19 24  1  0  0  0
 19 18  1  0  0  0
 20 21  1  0  0  0
 21 22  2  0  0  0
 21 26  1  0  0  0
 22 23  1  0  0  0
 22 25  1  0  0  0
 23 24  2  0  0  0
 23 27  1  0  0  0
 11 12  1  0  0  0
 11 13  1  0  0  0
 25 28  1  0  0  0
 16 17  1  0  0  0
M  END
> <minimizedAffinity>
-5.66067

$$$$
1HK4_T44_A_1008


 28 29  0  0  0  0  0  0  0  0999 V2000
   21.9731   10.9155   25.5270 C   0  0  0  0  0  0  0  0  0  0  0  0
   22.2326    9.7612   24.7693 C   0  0  0  0  0  0  0  0  0  0  0  0
   22.0965    8.4636   25.3050 C   0  0  0  0  0  0  0  0  0  0  0  0
   21.6750    8.3001   26.6737 C   0  0  0  0  0  0  0  0  0  0  0  0
   21.4189    9.4405   27.4217 C   0  0  0  0  0  0  0  0  0  0  0  0
   21.5540   10.7505   26.8833 C   0  0  0  0  0  0  0  0  0  0  0  0
   22.4961    6.8094   24.0942 I   0  0  0  0  0  0  0  0  0  0  0  0
   20.7962    9.2445   29.4266 I   0  0  0  0  0  0  0  0  0  0  0  0
   22.1309   12.2919   24.8797 C   0  0  0  0  0  0  0  0  0  0  0  0
   20.8892   12.9517   24.2970 C   0  0  0  0  0  0  0  0  0  0  0  0
   20.3199   13.8827   25.3307 N   0  0  0  0  0  0  0  0  0  0  0  0
   20.0310   13.3465   26.1489 H   0  0  0  0  0  0  0  0  0  0  0  0
   19.5130   14.3704   24.9416 H   0  0  0  0  0  0  0  0  0  0  0  0
   19.7551   11.9739   23.8696 C   0  0  0  0  0  0  0  0  0  0  0  0
   19.8549   11.4354   22.7546 O   0  0  0  0  0  0  0  0  0  0  0  0
   18.8324   11.7973   24.6718 O   0  0  0  0  0  0  0  0  0  0  0  0
   18.8349   12.2452   25.4948 H   0  0  0  0  0  0  0  0  0  0  0  0
   21.5407    7.0185   27.1970 O   0  0  0  0  0  0  0  0  0  0  0  0
   22.5707    6.3607   27.9017 C   0  0  0  0  0  0  0  0  0  0  0  0
   23.7808    6.1982   27.1962 C   0  0  0  0  0  0  0  0  0  0  0  0
   24.8519    5.5476   27.8436 C   0  0  0  0  0  0  0  0  0  0  0  0
   24.7770    5.0355   29.2154 C   0  0  0  0  0  0  0  0  0  0  0  0
   23.5210    5.2470   29.8360 C   0  0  0  0  0  0  0  0  0  0  0  0
   22.4286    5.8881   29.2337 C   0  0  0  0  0  0  0  0  0  0  0  0
   25.7885    4.4384   29.7926 O   0  0  0  0  0  0  0  0  0  0  0  0
   26.6657    5.2983   26.8307 I   0  0  0  0  0  0  0  0  0  0  0  0
   23.2606    4.5742   31.7858 I   0  0  0  0  0  0  0  0  0  0  0  0
   26.5949    4.3287   29.3282 H   0  0  0  0  0  0  0  0  0  0  0  0
  1  2  2  0  0  0
  1  6  1  0  0  0
  1  9  1  0  0  0
  2  3  1  0  0  0
  3  4  2  0  0  0
  3  7  1  0  0  0
  4  5  1  0  0  0
  4 18  1  0  0  0
  5  6  2  0  0  0
  5  8  1  0  0  0
  9 10  1  0  0  0
 10 14  1  0  0  0
 10 11  1  0  0  0
 14 15  2  0  0  0
 14 16  1  0  0  0
 19 20  2  0  0  0
 19 24  1  0  0  0
 19 18  1  0  0  0
 20 21  1  0  0  0
 21 22  2  0  0  0
 21 26  1  0  0  0
 22 23  1  0  0  0
 22 25  1  0  0  0
 23 24  2  0  0  0
 23 27  1  0  0  0
 11 12  1  0  0  0
 11 13  1  0  0  0
 25 28  1  0  0  0
 16 17  1  0  0  0
M  END
> <minimizedAffinity>
-5.46732

$$$$
1HK4_T44_A_1008


 28 29  0  0  0  0  0  0  0  0999 V2000
   20.1704   10.9829   27.8542 C   0  0  0  0  0  0  0  0  0  0  0  0
   21.1243   10.3036   27.0779 C   0  0  0  0  0  0  0  0  0  0  0  0
   21.5179   10.7586   25.8023 C   0  0  0  0  0  0  0  0  0  0  0  0
   20.9328   11.9612   25.2646 C   0  0  0  0  0  0  0  0  0  0  0  0
   19.9906   12.6317   26.0317 C   0  0  0  0  0  0  0  0  0  0  0  0
   19.5930   12.1757   27.3193 C   0  0  0  0  0  0  0  0  0  0  0  0
   22.9519    9.6837   24.7298 I   0  0  0  0  0  0  0  0  0  0  0  0
   19.1138   14.3972   25.2831 I   0  0  0  0  0  0  0  0  0  0  0  0
   19.7976   10.4393   29.2340 C   0  0  0  0  0  0  0  0  0  0  0  0
   20.4558    9.1454   29.6916 C   0  0  0  0  0  0  0  0  0  0  0  0
   19.4373    8.0429   29.6100 N   0  0  0  0  0  0  0  0  0  0  0  0
   18.6681    8.2425   30.2495 H   0  0  0  0  0  0  0  0  0  0  0  0
   19.8731    7.1576   29.8682 H   0  0  0  0  0  0  0  0  0  0  0  0
   21.0153    9.1618   31.1449 C   0  0  0  0  0  0  0  0  0  0  0  0
   20.9765    8.0974   31.7842 O   0  0  0  0  0  0  0  0  0  0  0  0
   21.4636   10.2343   31.5631 O   0  0  0  0  0  0  0  0  0  0  0  0
   21.4546   10.9924   31.0125 H   0  0  0  0  0  0  0  0  0  0  0  0
   21.3253   12.4068   24.0069 O   0  0  0  0  0  0  0  0  0  0  0  0
   22.0313   13.6105   23.8002 C   0  0  0  0  0  0  0  0  0  0  0  0
   22.4310   13.8589   22.4708 C   0  0  0  0  0  0  0  0  0  0  0  0
   23.1418   15.0457   22.1954 C   0  0  0  0  0  0  0  0  0  0  0  0
   23.4831   16.0400   23.2175 C   0  0  0  0  0  0  0  0  0  0  0  0
   23.0385   15.6973   24.5184 C   0  0  0  0  0  0  0  0  0  0  0  0
   22.3292   14.5310   24.8403 C   0  0  0  0  0  0  0  0  0  0  0  0
   24.1412   17.1347   22.9325 O   0  0  0  0  0  0  0  0  0  0  0  0
   23.7417   15.4520   20.2325 I   0  0  0  0  0  0  0  0  0  0  0  0
   23.4487   17.0107   26.0768 I   0  0  0  0  0  0  0  0  0  0  0  0
   24.4083   17.3047   22.0506 H   0  0  0  0  0  0  0  0  0  0  0  0
  1  2  2  0  0  0
  1  6  1  0  0  0
  1  9  1  0  0  0
  2  3  1  0  0  0
  3  4  2  0  0  0
  3  7  1  0  0  0
  4  5  1  0  0  0
  4 18  1  0  0  0
  5  6  2  0  0  0
  5  8  1  0  0  0
  9 10  1  0  0  0
 10 14  1  0  0  0
 10 11  1  0  0  0
 14 15  2  0  0  0
 14 16  1  0  0  0
 19 20  2  0  0  0
 19 24  1  0  0  0
 19 18  1  0  0  0
 20 21  1  0  0  0
 21 22  2  0  0  0
 21 26  1  0  0  0
 22 23  1  0  0  0
 22 25  1  0  0  0
 23 24  2  0  0  0
 23 27  1  0  0  0
 11 12  1  0  0  0
 11 13  1  0  0  0
 25 28  1  0  0  0
 16 17  1  0  0  0
M  END
> <minimizedAffinity>
-4.76973

$$$$
