3WTM_N1Y_A_301


 18 19  0  0  0  0  0  0  0  0999 V2000
   58.0480  -12.8033  -25.8481 N   0  0  0  0  0  0  0  0  0  0  0  0
   58.0814  -13.8397  -24.8971 C   0  0  0  0  0  0  0  0  0  0  0  0
   58.4973  -15.1076  -25.1234 C   0  0  0  0  0  0  0  0  0  0  0  0
   57.6233  -13.3252  -23.7136 N   0  0  0  0  0  0  0  0  0  0  0  0
   57.2520  -11.9288  -23.7773 C   0  0  0  0  0  0  0  0  0  0  0  0
   57.5390  -11.5505  -25.2500 C   0  0  0  0  0  0  0  0  0  0  0  0
   57.5527  -13.8600  -22.8901 H   0  0  0  0  0  0  0  0  0  0  0  0
   58.5192  -16.1650  -24.1289 N   0  0  0  0  0  0  0  0  0  0  0  0
   58.1182  -15.9719  -22.9654 O   0  0  0  0  0  0  0  0  0  0  0  0
   58.9610  -17.2459  -24.5428 O   0  0  0  0  0  0  0  0  0  0  0  0
   58.4262  -12.7929  -27.2585 C   0  0  0  0  0  0  0  0  0  0  0  0
   53.9270  -14.0208  -31.0326 Cl  0  0  0  0  0  0  0  0  0  0  0  0
   55.2377  -13.7196  -30.0086 C   0  0  0  0  0  0  0  0  0  0  0  0
   54.9352  -12.9867  -28.8903 N   0  0  0  0  0  0  0  0  0  0  0  0
   55.9635  -12.7066  -28.0274 C   0  0  0  0  0  0  0  0  0  0  0  0
   57.3035  -13.1322  -28.2299 C   0  0  0  0  0  0  0  0  0  0  0  0
   57.5639  -13.8942  -29.4071 C   0  0  0  0  0  0  0  0  0  0  0  0
   56.5222  -14.1995  -30.3183 C   0  0  0  0  0  0  0  0  0  0  0  0
 12 13  1  0  0  0
 18 13  2  0  0  0
 18 17  1  0  0  0
 13 14  1  0  0  0
 17 16  2  0  0  0
 14 15  2  0  0  0
 15 16  1  0  0  0
 16 11  1  0  0  0
 11  1  1  0  0  0
  1  2  1  0  0  0
  1  6  1  0  0  0
 10  8  1  0  0  0
  3  2  2  0  0  0
  3  8  1  0  0  0
  2  4  1  0  0  0
  8  9  2  0  0  0
  6  5  1  0  0  0
  4  5  1  0  0  0
  4  7  1  0  0  0
M  CHG 1   8   1
M  CHG 1  10  -1
M  END
> <minimizedAffinity>
-7.80503

$$$$
3WTM_N1Y_A_301


 18 19  0  0  0  0  0  0  0  0999 V2000
   57.5702  -13.1788  -28.7707 N   0  0  0  0  0  0  0  0  0  0  0  0
   56.3777  -13.4422  -29.4692 C   0  0  0  0  0  0  0  0  0  0  0  0
   55.1406  -13.0314  -29.1052 C   0  0  0  0  0  0  0  0  0  0  0  0
   56.7049  -14.1799  -30.5756 N   0  0  0  0  0  0  0  0  0  0  0  0
   58.1171  -14.4650  -30.7027 C   0  0  0  0  0  0  0  0  0  0  0  0
   58.7325  -13.7793  -29.4595 C   0  0  0  0  0  0  0  0  0  0  0  0
   56.0362  -14.4896  -31.2284 H   0  0  0  0  0  0  0  0  0  0  0  0
   53.9205  -13.3185  -29.8378 N   0  0  0  0  0  0  0  0  0  0  0  0
   52.9317  -12.5634  -29.7759 O   0  0  0  0  0  0  0  0  0  0  0  0
   53.9624  -14.3572  -30.5119 O   0  0  0  0  0  0  0  0  0  0  0  0
   57.8057  -12.4364  -27.5353 C   0  0  0  0  0  0  0  0  0  0  0  0
   58.2044  -15.8728  -22.6336 Cl  0  0  0  0  0  0  0  0  0  0  0  0
   58.0534  -14.8559  -23.9754 C   0  0  0  0  0  0  0  0  0  0  0  0
   58.5101  -15.3888  -25.1531 N   0  0  0  0  0  0  0  0  0  0  0  0
   58.4183  -14.6035  -26.2735 C   0  0  0  0  0  0  0  0  0  0  0  0
   57.8813  -13.2885  -26.2753 C   0  0  0  0  0  0  0  0  0  0  0  0
   57.4176  -12.7828  -25.0249 C   0  0  0  0  0  0  0  0  0  0  0  0
   57.4992  -13.5701  -23.8493 C   0  0  0  0  0  0  0  0  0  0  0  0
 12 13  1  0  0  0
 18 13  2  0  0  0
 18 17  1  0  0  0
 13 14  1  0  0  0
 17 16  2  0  0  0
 14 15  2  0  0  0
 15 16  1  0  0  0
 16 11  1  0  0  0
 11  1  1  0  0  0
  1  2  1  0  0  0
  1  6  1  0  0  0
 10  8  1  0  0  0
  3  2  2  0  0  0
  3  8  1  0  0  0
  2  4  1  0  0  0
  8  9  2  0  0  0
  6  5  1  0  0  0
  4  5  1  0  0  0
  4  7  1  0  0  0
M  CHG 1   8   1
M  CHG 1  10  -1
M  END
> <minimizedAffinity>
-6.73807

$$$$
3WTM_N1Y_A_301


 18 19  0  0  0  0  0  0  0  0999 V2000
   58.0331  -13.4170  -26.0217 N   0  0  0  0  0  0  0  0  0  0  0  0
   57.0251  -13.1467  -26.9654 C   0  0  0  0  0  0  0  0  0  0  0  0
   56.6764  -13.9454  -28.0009 C   0  0  0  0  0  0  0  0  0  0  0  0
   56.4690  -11.9393  -26.6368 N   0  0  0  0  0  0  0  0  0  0  0  0
   57.0508  -11.3156  -25.4688 C   0  0  0  0  0  0  0  0  0  0  0  0
   58.1376  -12.3258  -25.0295 C   0  0  0  0  0  0  0  0  0  0  0  0
   55.7359  -11.5307  -27.1516 H   0  0  0  0  0  0  0  0  0  0  0  0
   55.6358  -13.6456  -28.9678 N   0  0  0  0  0  0  0  0  0  0  0  0
   54.7933  -12.7518  -28.7604 O   0  0  0  0  0  0  0  0  0  0  0  0
   55.6714  -14.3456  -29.9894 O   0  0  0  0  0  0  0  0  0  0  0  0
   58.9343  -14.5587  -25.8921 C   0  0  0  0  0  0  0  0  0  0  0  0
   57.3532  -18.7541  -21.9054 Cl  0  0  0  0  0  0  0  0  0  0  0  0
   57.7736  -17.5209  -22.9823 C   0  0  0  0  0  0  0  0  0  0  0  0
   58.1964  -17.9532  -24.2126 N   0  0  0  0  0  0  0  0  0  0  0  0
   58.5572  -16.9943  -25.1240 C   0  0  0  0  0  0  0  0  0  0  0  0
   58.5138  -15.5988  -24.8621 C   0  0  0  0  0  0  0  0  0  0  0  0
   58.0637  -15.2022  -23.5681 C   0  0  0  0  0  0  0  0  0  0  0  0
   57.6844  -16.1697  -22.6045 C   0  0  0  0  0  0  0  0  0  0  0  0
 12 13  1  0  0  0
 18 13  2  0  0  0
 18 17  1  0  0  0
 13 14  1  0  0  0
 17 16  2  0  0  0
 14 15  2  0  0  0
 15 16  1  0  0  0
 16 11  1  0  0  0
 11  1  1  0  0  0
  1  2  1  0  0  0
  1  6  1  0  0  0
 10  8  1  0  0  0
  3  2  2  0  0  0
  3  8  1  0  0  0
  2  4  1  0  0  0
  8  9  2  0  0  0
  6  5  1  0  0  0
  4  5  1  0  0  0
  4  7  1  0  0  0
M  CHG 1   8   1
M  CHG 1  10  -1
M  END
> <minimizedAffinity>
-6.57675

$$$$
3WTM_N1Y_A_301


 18 19  0  0  0  0  0  0  0  0999 V2000
   57.0517  -12.9095  -28.1516 N   0  0  0  0  0  0  0  0  0  0  0  0
   57.3909  -13.4474  -29.4066 C   0  0  0  0  0  0  0  0  0  0  0  0
   58.6473  -13.6574  -29.8637 C   0  0  0  0  0  0  0  0  0  0  0  0
   56.2218  -13.7185  -30.0661 N   0  0  0  0  0  0  0  0  0  0  0  0
   55.0282  -13.3883  -29.3189 C   0  0  0  0  0  0  0  0  0  0  0  0
   55.5845  -12.8253  -27.9892 C   0  0  0  0  0  0  0  0  0  0  0  0
   56.1959  -14.1050  -30.9712 H   0  0  0  0  0  0  0  0  0  0  0  0
   58.9767  -14.2093  -31.1655 N   0  0  0  0  0  0  0  0  0  0  0  0
   59.7906  -13.6476  -31.9230 O   0  0  0  0  0  0  0  0  0  0  0  0
   58.3862  -15.2642  -31.4368 O   0  0  0  0  0  0  0  0  0  0  0  0
   57.8969  -12.4530  -27.0517 C   0  0  0  0  0  0  0  0  0  0  0  0
   58.2607  -16.2344  -22.4080 Cl  0  0  0  0  0  0  0  0  0  0  0  0
   58.1192  -15.1233  -23.6741 C   0  0  0  0  0  0  0  0  0  0  0  0
   58.5857  -15.5694  -24.8835 N   0  0  0  0  0  0  0  0  0  0  0  0
   58.5020  -14.7053  -25.9449 C   0  0  0  0  0  0  0  0  0  0  0  0
   57.9635  -13.3938  -25.8560 C   0  0  0  0  0  0  0  0  0  0  0  0
   57.4894  -12.9801  -24.5760 C   0  0  0  0  0  0  0  0  0  0  0  0
   57.5627  -13.8502  -23.4598 C   0  0  0  0  0  0  0  0  0  0  0  0
 12 13  1  0  0  0
 18 13  2  0  0  0
 18 17  1  0  0  0
 13 14  1  0  0  0
 17 16  2  0  0  0
 14 15  2  0  0  0
 15 16  1  0  0  0
 16 11  1  0  0  0
 11  1  1  0  0  0
  1  2  1  0  0  0
  1  6  1  0  0  0
 10  8  1  0  0  0
  3  2  2  0  0  0
  3  8  1  0  0  0
  2  4  1  0  0  0
  8  9  2  0  0  0
  6  5  1  0  0  0
  4  5  1  0  0  0
  4  7  1  0  0  0
M  CHG 1   8   1
M  CHG 1  10  -1
M  END
> <minimizedAffinity>
-6.42935

$$$$
3WTM_N1Y_A_301


 18 19  0  0  0  0  0  0  0  0999 V2000
   57.6500  -14.3510  -29.3615 N   0  0  0  0  0  0  0  0  0  0  0  0
   56.4899  -13.9325  -30.0388 C   0  0  0  0  0  0  0  0  0  0  0  0
   55.2204  -14.0649  -29.5890 C   0  0  0  0  0  0  0  0  0  0  0  0
   56.8867  -13.3691  -31.2221 N   0  0  0  0  0  0  0  0  0  0  0  0
   58.3183  -13.3667  -31.4281 C   0  0  0  0  0  0  0  0  0  0  0  0
   58.8637  -14.0444  -30.1484 C   0  0  0  0  0  0  0  0  0  0  0  0
   56.2520  -12.9975  -31.8765 H   0  0  0  0  0  0  0  0  0  0  0  0
   54.0351  -13.6308  -30.3062 N   0  0  0  0  0  0  0  0  0  0  0  0
   53.7859  -14.0375  -31.4570 O   0  0  0  0  0  0  0  0  0  0  0  0
   53.3177  -12.8414  -29.6760 O   0  0  0  0  0  0  0  0  0  0  0  0
   57.8123  -15.0042  -28.0655 C   0  0  0  0  0  0  0  0  0  0  0  0
   57.2753  -11.2982  -23.3781 Cl  0  0  0  0  0  0  0  0  0  0  0  0
   57.4703  -12.3850  -24.6580 C   0  0  0  0  0  0  0  0  0  0  0  0
   56.9354  -11.9694  -25.8498 N   0  0  0  0  0  0  0  0  0  0  0  0
   57.0588  -12.8163  -26.9213 C   0  0  0  0  0  0  0  0  0  0  0  0
   57.7036  -14.0805  -26.8596 C   0  0  0  0  0  0  0  0  0  0  0  0
   58.2454  -14.4637  -25.5971 C   0  0  0  0  0  0  0  0  0  0  0  0
   58.1336  -13.6104  -24.4711 C   0  0  0  0  0  0  0  0  0  0  0  0
 12 13  1  0  0  0
 18 13  2  0  0  0
 18 17  1  0  0  0
 13 14  1  0  0  0
 17 16  2  0  0  0
 14 15  2  0  0  0
 15 16  1  0  0  0
 16 11  1  0  0  0
 11  1  1  0  0  0
  1  2  1  0  0  0
  1  6  1  0  0  0
 10  8  1  0  0  0
  3  2  2  0  0  0
  3  8  1  0  0  0
  2  4  1  0  0  0
  8  9  2  0  0  0
  6  5  1  0  0  0
  4  5  1  0  0  0
  4  7  1  0  0  0
M  CHG 1   8   1
M  CHG 1  10  -1
M  END
> <minimizedAffinity>
-6.41288

$$$$
3WTM_N1Y_A_301


 18 19  0  0  0  0  0  0  0  0999 V2000
   57.7900  -13.7496  -26.5795 N   0  0  0  0  0  0  0  0  0  0  0  0
   57.4836  -13.7662  -27.9526 C   0  0  0  0  0  0  0  0  0  0  0  0
   58.2066  -14.3819  -28.9169 C   0  0  0  0  0  0  0  0  0  0  0  0
   56.3268  -13.0535  -28.1232 N   0  0  0  0  0  0  0  0  0  0  0  0
   55.7772  -12.5117  -26.9000 C   0  0  0  0  0  0  0  0  0  0  0  0
   56.7791  -12.9836  -25.8194 C   0  0  0  0  0  0  0  0  0  0  0  0
   55.9053  -12.9213  -29.0031 H   0  0  0  0  0  0  0  0  0  0  0  0
   57.8759  -14.3828  -30.3305 N   0  0  0  0  0  0  0  0  0  0  0  0
   56.7057  -14.5470  -30.7247 O   0  0  0  0  0  0  0  0  0  0  0  0
   58.8455  -14.2065  -31.0815 O   0  0  0  0  0  0  0  0  0  0  0  0
   58.8996  -14.3504  -25.8444 C   0  0  0  0  0  0  0  0  0  0  0  0
   57.4249  -18.7752  -22.0708 Cl  0  0  0  0  0  0  0  0  0  0  0  0
   57.8146  -17.4803  -23.0850 C   0  0  0  0  0  0  0  0  0  0  0  0
   58.2381  -17.8405  -24.3381 N   0  0  0  0  0  0  0  0  0  0  0  0
   58.5746  -16.8290  -25.2007 C   0  0  0  0  0  0  0  0  0  0  0  0
   58.5057  -15.4500  -24.8672 C   0  0  0  0  0  0  0  0  0  0  0  0
   58.0560  -15.1293  -23.5522 C   0  0  0  0  0  0  0  0  0  0  0  0
   57.7015  -16.1524  -22.6377 C   0  0  0  0  0  0  0  0  0  0  0  0
 12 13  1  0  0  0
 18 13  2  0  0  0
 18 17  1  0  0  0
 13 14  1  0  0  0
 17 16  2  0  0  0
 14 15  2  0  0  0
 15 16  1  0  0  0
 16 11  1  0  0  0
 11  1  1  0  0  0
  1  2  1  0  0  0
  1  6  1  0  0  0
 10  8  1  0  0  0
  3  2  2  0  0  0
  3  8  1  0  0  0
  2  4  1  0  0  0
  8  9  2  0  0  0
  6  5  1  0  0  0
  4  5  1  0  0  0
  4  7  1  0  0  0
M  CHG 1   8   1
M  CHG 1  10  -1
M  END
> <minimizedAffinity>
-6.25464

$$$$
3WTM_N1Y_A_301


 18 19  0  0  0  0  0  0  0  0999 V2000
   58.5854  -14.4796  -26.0200 N   0  0  0  0  0  0  0  0  0  0  0  0
   58.0394  -13.7891  -24.9223 C   0  0  0  0  0  0  0  0  0  0  0  0
   57.6855  -12.4830  -24.9062 C   0  0  0  0  0  0  0  0  0  0  0  0
   57.9319  -14.6813  -23.8890 N   0  0  0  0  0  0  0  0  0  0  0  0
   58.3904  -16.0158  -24.2065 C   0  0  0  0  0  0  0  0  0  0  0  0
   58.8479  -15.8943  -25.6798 C   0  0  0  0  0  0  0  0  0  0  0  0
   57.5733  -14.4354  -23.0057 H   0  0  0  0  0  0  0  0  0  0  0  0
   57.1280  -11.7872  -23.7604 N   0  0  0  0  0  0  0  0  0  0  0  0
   57.7624  -10.8911  -23.1718 O   0  0  0  0  0  0  0  0  0  0  0  0
   55.9915  -12.1617  -23.4393 O   0  0  0  0  0  0  0  0  0  0  0  0
   58.9067  -14.0211  -27.3687 C   0  0  0  0  0  0  0  0  0  0  0  0
   54.3379  -14.0141  -31.2572 Cl  0  0  0  0  0  0  0  0  0  0  0  0
   55.5852  -13.9736  -30.1170 C   0  0  0  0  0  0  0  0  0  0  0  0
   56.7619  -14.5401  -30.5338 N   0  0  0  0  0  0  0  0  0  0  0  0
   57.8063  -14.5411  -29.6452 C   0  0  0  0  0  0  0  0  0  0  0  0
   57.7318  -13.9922  -28.3372 C   0  0  0  0  0  0  0  0  0  0  0  0
   56.4862  -13.4124  -27.9544 C   0  0  0  0  0  0  0  0  0  0  0  0
   55.3882  -13.3965  -28.8503 C   0  0  0  0  0  0  0  0  0  0  0  0
 12 13  1  0  0  0
 18 13  2  0  0  0
 18 17  1  0  0  0
 13 14  1  0  0  0
 17 16  2  0  0  0
 14 15  2  0  0  0
 15 16  1  0  0  0
 16 11  1  0  0  0
 11  1  1  0  0  0
  1  2  1  0  0  0
  1  6  1  0  0  0
 10  8  1  0  0  0
  3  2  2  0  0  0
  3  8  1  0  0  0
  2  4  1  0  0  0
  8  9  2  0  0  0
  6  5  1  0  0  0
  4  5  1  0  0  0
  4  7  1  0  0  0
M  CHG 1   8   1
M  CHG 1  10  -1
M  END
> <minimizedAffinity>
-5.21850

$$$$
