5FOG_VRT_A_1542


 33 35  0  0  0  0  0  0  0  0999 V2000
  -21.3638    6.9229   25.6705 C   0  0  0  0  0  0  0  0  0  0  0  0
  -22.8051    6.3611   25.7470 C   0  0  0  0  0  0  0  0  0  0  0  0
  -22.7106    4.8908   25.2985 C   0  0  0  0  0  0  0  0  0  0  0  0
  -23.4663    3.9280   26.0626 O   0  0  0  0  0  0  0  0  0  0  0  0
  -21.2087    4.5874   25.3591 C   0  0  0  0  0  0  0  0  0  0  0  0
  -20.5096    5.8336   25.3091 O   0  0  0  0  0  0  0  0  0  0  0  0
  -23.1512    3.9243   26.9800 H   0  0  0  0  0  0  0  0  0  0  0  0
  -21.7593    8.5922   20.5654 N   0  0  0  0  0  0  0  0  0  0  0  0
  -22.1236    7.2527   21.0809 C   0  0  0  0  0  0  0  0  0  0  0  0
  -21.9256    7.0395   22.5417 N   0  0  0  0  0  0  0  0  0  0  0  0
  -21.4352    7.9963   23.3946 C   0  0  0  0  0  0  0  0  0  0  0  0
  -21.0720    9.3266   22.8401 C   0  0  0  0  0  0  0  0  0  0  0  0
  -21.2529    9.5705   21.3686 C   0  0  0  0  0  0  0  0  0  0  0  0
  -20.9188   10.7753   20.8590 N   0  0  0  0  0  0  0  0  0  0  0  0
  -20.6100   10.0571   23.8868 N   0  0  0  0  0  0  0  0  0  0  0  0
  -20.6723    9.2860   25.0027 C   0  0  0  0  0  0  0  0  0  0  0  0
  -21.1548    8.0512   24.7136 N   0  0  0  0  0  0  0  0  0  0  0  0
  -21.0313   10.9511   19.8969 H   0  0  0  0  0  0  0  0  0  0  0  0
  -20.5628   11.4779   21.4496 H   0  0  0  0  0  0  0  0  0  0  0  0
  -24.4355    6.4355   27.6640 C   0  0  0  0  0  0  0  0  0  0  0  0
  -25.4276    6.1724   26.9989 O   0  0  0  0  0  0  0  0  0  0  0  0
  -23.1999    6.5210   27.1530 N   0  0  0  0  0  0  0  0  0  0  0  0
  -22.4753    6.7124   27.7914 H   0  0  0  0  0  0  0  0  0  0  0  0
  -25.8883    6.8581   29.5384 N   0  0  0  0  0  0  0  0  0  0  0  0
  -24.4941    6.6752   29.1594 C   0  0  0  0  0  0  0  0  0  0  0  0
  -26.3043    7.5894   28.9616 H   0  0  0  0  0  0  0  0  0  0  0  0
  -25.9411    7.1285   30.5205 H   0  0  0  0  0  0  0  0  0  0  0  0
  -23.9039    5.5653   30.0516 C   0  0  0  0  0  0  0  0  0  0  0  0
  -24.7801    4.3830   32.1254 C   0  0  0  0  0  0  0  0  0  0  0  0
  -24.8635    4.5193   30.6218 C   0  0  0  0  0  0  0  0  0  0  0  0
  -20.7057    3.6972   24.2265 C   0  0  0  0  0  0  0  0  0  0  0  0
  -20.4209    4.4660   23.0473 O   0  0  0  0  0  0  0  0  0  0  0  0
  -21.2311    4.9048   22.7440 H   0  0  0  0  0  0  0  0  0  0  0  0
 20 21  2  0  0  0
 20 25  1  0  0  0
 20 22  1  0  0  0
 24 25  1  0  0  0
  8  9  2  0  0  0
  8 13  1  0  0  0
  9 10  1  0  0  0
 10 11  2  0  0  0
 11 12  1  0  0  0
 11 17  1  0  0  0
 12 13  2  0  0  0
 12 15  1  0  0  0
 13 14  1  0  0  0
 15 16  2  0  0  0
 16 17  1  0  0  0
 17  1  1  0  0  0
 25 28  1  0  0  0
 28 30  1  0  0  0
 29 30  1  0  0  0
  1  2  1  0  0  0
  1  6  1  0  0  0
 22  2  1  0  0  0
  2  3  1  0  0  0
  3  4  1  0  0  0
  3  5  1  0  0  0
  5  6  1  0  0  0
  5 31  1  0  0  0
 31 32  1  0  0  0
 24 26  1  0  0  0
 24 27  1  0  0  0
 14 18  1  0  0  0
 14 19  1  0  0  0
 22 23  1  0  0  0
  4  7  1  0  0  0
 32 33  1  0  0  0
M  END
> <minimizedAffinity>
-8.58332

$$$$
5FOG_VRT_A_1542


 33 35  0  0  0  0  0  0  0  0999 V2000
  -20.3903    8.2271   26.0167 C   0  0  0  0  0  0  0  0  0  0  0  0
  -20.8620    8.8264   24.6687 C   0  0  0  0  0  0  0  0  0  0  0  0
  -20.0928   10.1502   24.5018 C   0  0  0  0  0  0  0  0  0  0  0  0
  -19.5632   10.4335   23.1898 O   0  0  0  0  0  0  0  0  0  0  0  0
  -18.9696   10.0523   25.5411 C   0  0  0  0  0  0  0  0  0  0  0  0
  -19.3640    9.0876   26.5200 O   0  0  0  0  0  0  0  0  0  0  0  0
  -18.9237    9.7468   22.9441 H   0  0  0  0  0  0  0  0  0  0  0  0
  -25.2942    6.3104   27.1493 N   0  0  0  0  0  0  0  0  0  0  0  0
  -24.6024    6.2322   25.8425 C   0  0  0  0  0  0  0  0  0  0  0  0
  -23.2418    6.8359   25.7872 N   0  0  0  0  0  0  0  0  0  0  0  0
  -22.6294    7.4406   26.8563 C   0  0  0  0  0  0  0  0  0  0  0  0
  -23.3578    7.5081   28.1502 C   0  0  0  0  0  0  0  0  0  0  0  0
  -24.7356    6.9150   28.2361 C   0  0  0  0  0  0  0  0  0  0  0  0
  -25.4037    6.9791   29.4075 N   0  0  0  0  0  0  0  0  0  0  0  0
  -22.5355    8.1601   29.0112 N   0  0  0  0  0  0  0  0  0  0  0  0
  -21.3929    8.4766   28.3492 C   0  0  0  0  0  0  0  0  0  0  0  0
  -21.4470    8.0586   27.0595 N   0  0  0  0  0  0  0  0  0  0  0  0
  -26.3073    6.5952   29.4805 H   0  0  0  0  0  0  0  0  0  0  0  0
  -24.9872    7.4096   30.1888 H   0  0  0  0  0  0  0  0  0  0  0  0
  -21.3199    7.2813   22.7343 C   0  0  0  0  0  0  0  0  0  0  0  0
  -22.4894    7.6064   22.5845 O   0  0  0  0  0  0  0  0  0  0  0  0
  -20.5136    7.8149   23.6618 N   0  0  0  0  0  0  0  0  0  0  0  0
  -19.5832    7.4929   23.6695 H   0  0  0  0  0  0  0  0  0  0  0  0
  -21.0419    6.4746   20.4816 N   0  0  0  0  0  0  0  0  0  0  0  0
  -20.6423    6.2428   21.8627 C   0  0  0  0  0  0  0  0  0  0  0  0
  -22.0599    6.4989   20.4217 H   0  0  0  0  0  0  0  0  0  0  0  0
  -20.6846    5.7218   19.8934 H   0  0  0  0  0  0  0  0  0  0  0  0
  -19.1018    6.2132   21.9100 C   0  0  0  0  0  0  0  0  0  0  0  0
  -19.3503    4.0306   23.1908 C   0  0  0  0  0  0  0  0  0  0  0  0
  -18.4253    4.9345   22.4074 C   0  0  0  0  0  0  0  0  0  0  0  0
  -18.6568   11.3680   26.2478 C   0  0  0  0  0  0  0  0  0  0  0  0
  -18.9882   12.4946   25.4209 O   0  0  0  0  0  0  0  0  0  0  0  0
  -18.4640   12.4624   24.6054 H   0  0  0  0  0  0  0  0  0  0  0  0
 20 21  2  0  0  0
 20 25  1  0  0  0
 20 22  1  0  0  0
 24 25  1  0  0  0
  8  9  2  0  0  0
  8 13  1  0  0  0
  9 10  1  0  0  0
 10 11  2  0  0  0
 11 12  1  0  0  0
 11 17  1  0  0  0
 12 13  2  0  0  0
 12 15  1  0  0  0
 13 14  1  0  0  0
 15 16  2  0  0  0
 16 17  1  0  0  0
 17  1  1  0  0  0
 25 28  1  0  0  0
 28 30  1  0  0  0
 29 30  1  0  0  0
  1  2  1  0  0  0
  1  6  1  0  0  0
 22  2  1  0  0  0
  2  3  1  0  0  0
  3  4  1  0  0  0
  3  5  1  0  0  0
  5  6  1  0  0  0
  5 31  1  0  0  0
 31 32  1  0  0  0
 24 26  1  0  0  0
 24 27  1  0  0  0
 14 18  1  0  0  0
 14 19  1  0  0  0
 22 23  1  0  0  0
  4  7  1  0  0  0
 32 33  1  0  0  0
M  END
> <minimizedAffinity>
-7.98729

$$$$
5FOG_VRT_A_1542


 33 35  0  0  0  0  0  0  0  0999 V2000
  -21.3549    6.6079   24.4800 C   0  0  0  0  0  0  0  0  0  0  0  0
  -22.5174    5.6539   24.8504 C   0  0  0  0  0  0  0  0  0  0  0  0
  -21.9658    4.2266   24.6749 C   0  0  0  0  0  0  0  0  0  0  0  0
  -22.3054    3.2679   25.6985 O   0  0  0  0  0  0  0  0  0  0  0  0
  -20.4484    4.4304   24.5910 C   0  0  0  0  0  0  0  0  0  0  0  0
  -20.2109    5.7899   24.2174 O   0  0  0  0  0  0  0  0  0  0  0  0
  -21.9487    3.5646   26.5504 H   0  0  0  0  0  0  0  0  0  0  0  0
  -20.3866   11.4149   22.2528 N   0  0  0  0  0  0  0  0  0  0  0  0
  -19.8781   10.9345   23.5578 C   0  0  0  0  0  0  0  0  0  0  0  0
  -20.2859    9.5567   23.9502 N   0  0  0  0  0  0  0  0  0  0  0  0
  -21.0853    8.7478   23.1819 C   0  0  0  0  0  0  0  0  0  0  0  0
  -21.5843    9.2669   21.8816 C   0  0  0  0  0  0  0  0  0  0  0  0
  -21.1968   10.6563   21.4611 C   0  0  0  0  0  0  0  0  0  0  0  0
  -21.6523   11.1346   20.2836 N   0  0  0  0  0  0  0  0  0  0  0  0
  -22.3484    8.2787   21.3504 N   0  0  0  0  0  0  0  0  0  0  0  0
  -22.3415    7.2281   22.2106 C   0  0  0  0  0  0  0  0  0  0  0  0
  -21.5972    7.5058   23.3106 N   0  0  0  0  0  0  0  0  0  0  0  0
  -21.4077   12.0430   19.9935 H   0  0  0  0  0  0  0  0  0  0  0  0
  -22.2292   10.5749   19.7150 H   0  0  0  0  0  0  0  0  0  0  0  0
  -23.8627    6.7523   26.6732 C   0  0  0  0  0  0  0  0  0  0  0  0
  -24.6871    7.2677   25.9313 O   0  0  0  0  0  0  0  0  0  0  0  0
  -22.8515    5.9863   26.2419 N   0  0  0  0  0  0  0  0  0  0  0  0
  -22.2668    5.6033   26.9352 H   0  0  0  0  0  0  0  0  0  0  0  0
  -24.2398    8.2934   28.4857 N   0  0  0  0  0  0  0  0  0  0  0  0
  -23.9086    6.9086   28.1801 C   0  0  0  0  0  0  0  0  0  0  0  0
  -23.5904    8.9132   28.0013 H   0  0  0  0  0  0  0  0  0  0  0  0
  -24.1689    8.4459   29.4917 H   0  0  0  0  0  0  0  0  0  0  0  0
  -24.9101    6.0072   28.9289 C   0  0  0  0  0  0  0  0  0  0  0  0
  -24.6694    4.4074   30.8908 C   0  0  0  0  0  0  0  0  0  0  0  0
  -24.4187    4.6438   29.4185 C   0  0  0  0  0  0  0  0  0  0  0  0
  -19.7507    3.5171   23.5873 C   0  0  0  0  0  0  0  0  0  0  0  0
  -18.3327    3.4829   23.8126 O   0  0  0  0  0  0  0  0  0  0  0  0
  -17.9670    4.3752   23.7078 H   0  0  0  0  0  0  0  0  0  0  0  0
 20 21  2  0  0  0
 20 25  1  0  0  0
 20 22  1  0  0  0
 24 25  1  0  0  0
  8  9  2  0  0  0
  8 13  1  0  0  0
  9 10  1  0  0  0
 10 11  2  0  0  0
 11 12  1  0  0  0
 11 17  1  0  0  0
 12 13  2  0  0  0
 12 15  1  0  0  0
 13 14  1  0  0  0
 15 16  2  0  0  0
 16 17  1  0  0  0
 17  1  1  0  0  0
 25 28  1  0  0  0
 28 30  1  0  0  0
 29 30  1  0  0  0
  1  2  1  0  0  0
  1  6  1  0  0  0
 22  2  1  0  0  0
  2  3  1  0  0  0
  3  4  1  0  0  0
  3  5  1  0  0  0
  5  6  1  0  0  0
  5 31  1  0  0  0
 31 32  1  0  0  0
 24 26  1  0  0  0
 24 27  1  0  0  0
 14 18  1  0  0  0
 14 19  1  0  0  0
 22 23  1  0  0  0
  4  7  1  0  0  0
 32 33  1  0  0  0
M  END
> <minimizedAffinity>
-7.75063

$$$$
5FOG_VRT_A_1542


 33 35  0  0  0  0  0  0  0  0999 V2000
  -20.7177    7.5741   26.0093 C   0  0  0  0  0  0  0  0  0  0  0  0
  -22.2297    7.5752   26.3449 C   0  0  0  0  0  0  0  0  0  0  0  0
  -22.9575    7.2802   25.0201 C   0  0  0  0  0  0  0  0  0  0  0  0
  -24.0622    6.3537   25.0775 O   0  0  0  0  0  0  0  0  0  0  0  0
  -21.8458    6.7574   24.1024 C   0  0  0  0  0  0  0  0  0  0  0  0
  -20.5959    7.2065   24.6320 O   0  0  0  0  0  0  0  0  0  0  0  0
  -23.7434    5.4886   25.3789 H   0  0  0  0  0  0  0  0  0  0  0  0
  -16.0178   10.1890   25.7298 N   0  0  0  0  0  0  0  0  0  0  0  0
  -16.2599    8.7775   25.3532 C   0  0  0  0  0  0  0  0  0  0  0  0
  -17.6571    8.2884   25.5183 N   0  0  0  0  0  0  0  0  0  0  0  0
  -18.6876    9.0625   25.9898 C   0  0  0  0  0  0  0  0  0  0  0  0
  -18.4054   10.4724   26.3661 C   0  0  0  0  0  0  0  0  0  0  0  0
  -17.0039   10.9935   26.2185 C   0  0  0  0  0  0  0  0  0  0  0  0
  -16.7412   12.2718   26.5646 N   0  0  0  0  0  0  0  0  0  0  0  0
  -19.5822   10.9874   26.8047 N   0  0  0  0  0  0  0  0  0  0  0  0
  -20.5288   10.0178   26.7169 C   0  0  0  0  0  0  0  0  0  0  0  0
  -19.9987    8.8632   26.2404 N   0  0  0  0  0  0  0  0  0  0  0  0
  -15.8282   12.6286   26.4739 H   0  0  0  0  0  0  0  0  0  0  0  0
  -17.4628   12.8471   26.9077 H   0  0  0  0  0  0  0  0  0  0  0  0
  -22.5883    6.6759   28.6690 C   0  0  0  0  0  0  0  0  0  0  0  0
  -22.6858    7.7660   29.2148 O   0  0  0  0  0  0  0  0  0  0  0  0
  -22.3949    6.5189   27.3525 N   0  0  0  0  0  0  0  0  0  0  0  0
  -22.3596    5.5917   27.0235 H   0  0  0  0  0  0  0  0  0  0  0  0
  -23.7103    4.5472   28.7794 N   0  0  0  0  0  0  0  0  0  0  0  0
  -22.6982    5.3689   29.4285 C   0  0  0  0  0  0  0  0  0  0  0  0
  -24.5770    5.0784   28.6954 H   0  0  0  0  0  0  0  0  0  0  0  0
  -23.8775    3.7097   29.3372 H   0  0  0  0  0  0  0  0  0  0  0  0
  -21.4081    4.5320   29.5359 C   0  0  0  0  0  0  0  0  0  0  0  0
  -19.9255    2.9939   30.9151 C   0  0  0  0  0  0  0  0  0  0  0  0
  -20.9386    4.1162   30.9311 C   0  0  0  0  0  0  0  0  0  0  0  0
  -21.9608    7.2244   22.6543 C   0  0  0  0  0  0  0  0  0  0  0  0
  -23.0578    6.5823   21.9858 O   0  0  0  0  0  0  0  0  0  0  0  0
  -22.9154    5.6228   21.9790 H   0  0  0  0  0  0  0  0  0  0  0  0
 20 21  2  0  0  0
 20 25  1  0  0  0
 20 22  1  0  0  0
 24 25  1  0  0  0
  8  9  2  0  0  0
  8 13  1  0  0  0
  9 10  1  0  0  0
 10 11  2  0  0  0
 11 12  1  0  0  0
 11 17  1  0  0  0
 12 13  2  0  0  0
 12 15  1  0  0  0
 13 14  1  0  0  0
 15 16  2  0  0  0
 16 17  1  0  0  0
 17  1  1  0  0  0
 25 28  1  0  0  0
 28 30  1  0  0  0
 29 30  1  0  0  0
  1  2  1  0  0  0
  1  6  1  0  0  0
 22  2  1  0  0  0
  2  3  1  0  0  0
  3  4  1  0  0  0
  3  5  1  0  0  0
  5  6  1  0  0  0
  5 31  1  0  0  0
 31 32  1  0  0  0
 24 26  1  0  0  0
 24 27  1  0  0  0
 14 18  1  0  0  0
 14 19  1  0  0  0
 22 23  1  0  0  0
  4  7  1  0  0  0
 32 33  1  0  0  0
M  END
> <minimizedAffinity>
-7.71284

$$$$
5FOG_VRT_A_1542


 33 35  0  0  0  0  0  0  0  0999 V2000
  -21.8693    7.3916   24.4244 C   0  0  0  0  0  0  0  0  0  0  0  0
  -20.3598    7.1406   24.1852 C   0  0  0  0  0  0  0  0  0  0  0  0
  -20.2012    6.9286   22.6680 C   0  0  0  0  0  0  0  0  0  0  0  0
  -19.0757    7.5729   22.0356 O   0  0  0  0  0  0  0  0  0  0  0  0
  -21.5262    7.4384   22.0886 C   0  0  0  0  0  0  0  0  0  0  0  0
  -22.4963    7.4224   23.1388 O   0  0  0  0  0  0  0  0  0  0  0  0
  -19.1521    8.5341   22.1412 H   0  0  0  0  0  0  0  0  0  0  0  0
  -24.1002    6.4119   29.2273 N   0  0  0  0  0  0  0  0  0  0  0  0
  -23.4724    7.6811   28.7944 C   0  0  0  0  0  0  0  0  0  0  0  0
  -22.9298    7.7012   27.4074 N   0  0  0  0  0  0  0  0  0  0  0  0
  -22.9838    6.6312   26.5496 C   0  0  0  0  0  0  0  0  0  0  0  0
  -23.6138    5.3704   27.0217 C   0  0  0  0  0  0  0  0  0  0  0  0
  -24.1636    5.3160   28.4189 C   0  0  0  0  0  0  0  0  0  0  0  0
  -24.7316    4.1712   28.8544 N   0  0  0  0  0  0  0  0  0  0  0  0
  -23.5171    4.4927   25.9908 N   0  0  0  0  0  0  0  0  0  0  0  0
  -22.8963    5.1181   24.9577 C   0  0  0  0  0  0  0  0  0  0  0  0
  -22.5665    6.3920   25.2886 N   0  0  0  0  0  0  0  0  0  0  0  0
  -25.0966    4.1190   29.7672 H   0  0  0  0  0  0  0  0  0  0  0  0
  -24.7806    3.3886   28.2591 H   0  0  0  0  0  0  0  0  0  0  0  0
  -19.3900    8.6494   25.9521 C   0  0  0  0  0  0  0  0  0  0  0  0
  -19.6171    7.9048   26.8953 O   0  0  0  0  0  0  0  0  0  0  0  0
  -19.6912    8.3512   24.6811 N   0  0  0  0  0  0  0  0  0  0  0  0
  -19.4358    9.0180   24.0034 H   0  0  0  0  0  0  0  0  0  0  0  0
  -17.3243    9.7696   26.4817 N   0  0  0  0  0  0  0  0  0  0  0  0
  -18.7162    9.9968   26.1183 C   0  0  0  0  0  0  0  0  0  0  0  0
  -17.2812    9.1558   27.2952 H   0  0  0  0  0  0  0  0  0  0  0  0
  -16.8813   10.6610   26.7045 H   0  0  0  0  0  0  0  0  0  0  0  0
  -18.7376   10.9262   24.8886 C   0  0  0  0  0  0  0  0  0  0  0  0
  -20.5463   11.2809   23.1369 C   0  0  0  0  0  0  0  0  0  0  0  0
  -20.0587   11.6088   24.5301 C   0  0  0  0  0  0  0  0  0  0  0  0
  -22.0552    6.6121   20.9199 C   0  0  0  0  0  0  0  0  0  0  0  0
  -20.9969    6.2433   20.0218 O   0  0  0  0  0  0  0  0  0  0  0  0
  -20.5868    7.0440   19.6591 H   0  0  0  0  0  0  0  0  0  0  0  0
 20 21  2  0  0  0
 20 25  1  0  0  0
 20 22  1  0  0  0
 24 25  1  0  0  0
  8  9  2  0  0  0
  8 13  1  0  0  0
  9 10  1  0  0  0
 10 11  2  0  0  0
 11 12  1  0  0  0
 11 17  1  0  0  0
 12 13  2  0  0  0
 12 15  1  0  0  0
 13 14  1  0  0  0
 15 16  2  0  0  0
 16 17  1  0  0  0
 17  1  1  0  0  0
 25 28  1  0  0  0
 28 30  1  0  0  0
 29 30  1  0  0  0
  1  2  1  0  0  0
  1  6  1  0  0  0
 22  2  1  0  0  0
  2  3  1  0  0  0
  3  4  1  0  0  0
  3  5  1  0  0  0
  5  6  1  0  0  0
  5 31  1  0  0  0
 31 32  1  0  0  0
 24 26  1  0  0  0
 24 27  1  0  0  0
 14 18  1  0  0  0
 14 19  1  0  0  0
 22 23  1  0  0  0
  4  7  1  0  0  0
 32 33  1  0  0  0
M  END
> <minimizedAffinity>
-7.62570

$$$$
5FOG_VRT_A_1542


 33 35  0  0  0  0  0  0  0  0999 V2000
  -22.5109    6.9828   26.9214 C   0  0  0  0  0  0  0  0  0  0  0  0
  -21.0753    7.3177   26.4465 C   0  0  0  0  0  0  0  0  0  0  0  0
  -20.8943    6.5909   25.1007 C   0  0  0  0  0  0  0  0  0  0  0  0
  -20.2384    7.3271   24.0472 O   0  0  0  0  0  0  0  0  0  0  0  0
  -22.3236    6.2074   24.6989 C   0  0  0  0  0  0  0  0  0  0  0  0
  -23.1265    6.2163   25.8819 O   0  0  0  0  0  0  0  0  0  0  0  0
  -20.7601    8.1157   23.8307 H   0  0  0  0  0  0  0  0  0  0  0  0
  -25.8013    4.7352   30.5445 N   0  0  0  0  0  0  0  0  0  0  0  0
  -26.2087    5.4331   29.3037 C   0  0  0  0  0  0  0  0  0  0  0  0
  -25.1020    5.9652   28.4606 N   0  0  0  0  0  0  0  0  0  0  0  0
  -23.7723    5.8420   28.7773 C   0  0  0  0  0  0  0  0  0  0  0  0
  -23.4012    5.1427   30.0352 C   0  0  0  0  0  0  0  0  0  0  0  0
  -24.4951    4.6014   30.9114 C   0  0  0  0  0  0  0  0  0  0  0  0
  -24.1633    3.9707   32.0581 N   0  0  0  0  0  0  0  0  0  0  0  0
  -22.0458    5.1799   30.1004 N   0  0  0  0  0  0  0  0  0  0  0  0
  -21.5857    5.8283   28.9996 C   0  0  0  0  0  0  0  0  0  0  0  0
  -22.6121    6.2348   28.2108 N   0  0  0  0  0  0  0  0  0  0  0  0
  -24.8682    3.6102   32.6433 H   0  0  0  0  0  0  0  0  0  0  0  0
  -23.2166    3.8712   32.3090 H   0  0  0  0  0  0  0  0  0  0  0  0
  -19.9650    9.5714   26.2821 C   0  0  0  0  0  0  0  0  0  0  0  0
  -18.8169    9.1503   26.2988 O   0  0  0  0  0  0  0  0  0  0  0  0
  -21.0465    8.7820   26.3305 N   0  0  0  0  0  0  0  0  0  0  0  0
  -21.9199    9.2338   26.2830 H   0  0  0  0  0  0  0  0  0  0  0  0
  -19.1504   11.8036   26.6775 N   0  0  0  0  0  0  0  0  0  0  0  0
  -20.2927   11.0479   26.1824 C   0  0  0  0  0  0  0  0  0  0  0  0
  -18.9022   11.4727   27.6099 H   0  0  0  0  0  0  0  0  0  0  0  0
  -19.3910   12.7939   26.7210 H   0  0  0  0  0  0  0  0  0  0  0  0
  -20.6349   11.5769   24.7755 C   0  0  0  0  0  0  0  0  0  0  0  0
  -20.7965   11.2118   22.2642 C   0  0  0  0  0  0  0  0  0  0  0  0
  -20.1984   10.7413   23.5709 C   0  0  0  0  0  0  0  0  0  0  0  0
  -22.4395    4.8369   24.0380 C   0  0  0  0  0  0  0  0  0  0  0  0
  -22.6319    3.8022   25.0152 O   0  0  0  0  0  0  0  0  0  0  0  0
  -21.8710    3.7797   25.6164 H   0  0  0  0  0  0  0  0  0  0  0  0
 20 21  2  0  0  0
 20 25  1  0  0  0
 20 22  1  0  0  0
 24 25  1  0  0  0
  8  9  2  0  0  0
  8 13  1  0  0  0
  9 10  1  0  0  0
 10 11  2  0  0  0
 11 12  1  0  0  0
 11 17  1  0  0  0
 12 13  2  0  0  0
 12 15  1  0  0  0
 13 14  1  0  0  0
 15 16  2  0  0  0
 16 17  1  0  0  0
 17  1  1  0  0  0
 25 28  1  0  0  0
 28 30  1  0  0  0
 29 30  1  0  0  0
  1  2  1  0  0  0
  1  6  1  0  0  0
 22  2  1  0  0  0
  2  3  1  0  0  0
  3  4  1  0  0  0
  3  5  1  0  0  0
  5  6  1  0  0  0
  5 31  1  0  0  0
 31 32  1  0  0  0
 24 26  1  0  0  0
 24 27  1  0  0  0
 14 18  1  0  0  0
 14 19  1  0  0  0
 22 23  1  0  0  0
  4  7  1  0  0  0
 32 33  1  0  0  0
M  END
> <minimizedAffinity>
-7.58527

$$$$
5FOG_VRT_A_1542


 33 35  0  0  0  0  0  0  0  0999 V2000
  -22.9935    6.0441   28.0422 C   0  0  0  0  0  0  0  0  0  0  0  0
  -22.5715    5.7280   29.4985 C   0  0  0  0  0  0  0  0  0  0  0  0
  -23.8746    5.4191   30.2592 C   0  0  0  0  0  0  0  0  0  0  0  0
  -23.8473    4.2982   31.1674 O   0  0  0  0  0  0  0  0  0  0  0  0
  -24.9043    5.2010   29.1440 C   0  0  0  0  0  0  0  0  0  0  0  0
  -24.4058    5.8304   27.9610 O   0  0  0  0  0  0  0  0  0  0  0  0
  -23.6547    3.4862   30.6731 H   0  0  0  0  0  0  0  0  0  0  0  0
  -20.4212    9.0024   24.3494 N   0  0  0  0  0  0  0  0  0  0  0  0
  -20.4447    7.5240   24.4277 C   0  0  0  0  0  0  0  0  0  0  0  0
  -21.2379    6.9421   25.5461 N   0  0  0  0  0  0  0  0  0  0  0  0
  -21.9184    7.6923   26.4723 C   0  0  0  0  0  0  0  0  0  0  0  0
  -21.8651    9.1739   26.3673 C   0  0  0  0  0  0  0  0  0  0  0  0
  -21.0667    9.7917   25.2544 C   0  0  0  0  0  0  0  0  0  0  0  0
  -21.0103   11.1372   25.1583 N   0  0  0  0  0  0  0  0  0  0  0  0
  -22.6026    9.6511   27.4022 N   0  0  0  0  0  0  0  0  0  0  0  0
  -23.0880    8.5928   28.1008 C   0  0  0  0  0  0  0  0  0  0  0  0
  -22.6748    7.4206   27.5564 N   0  0  0  0  0  0  0  0  0  0  0  0
  -20.4916   11.5577   24.4349 H   0  0  0  0  0  0  0  0  0  0  0  0
  -21.4880   11.6978   25.8116 H   0  0  0  0  0  0  0  0  0  0  0  0
  -20.5428    4.3559   30.0821 C   0  0  0  0  0  0  0  0  0  0  0  0
  -20.1244    5.1084   30.9506 O   0  0  0  0  0  0  0  0  0  0  0  0
  -21.6688    4.5741   29.3894 N   0  0  0  0  0  0  0  0  0  0  0  0
  -21.9193    3.8837   28.7338 H   0  0  0  0  0  0  0  0  0  0  0  0
  -19.6894    2.2600   30.9076 N   0  0  0  0  0  0  0  0  0  0  0  0
  -19.8358    3.0692   29.7056 C   0  0  0  0  0  0  0  0  0  0  0  0
  -19.2353    2.8116   31.6355 H   0  0  0  0  0  0  0  0  0  0  0  0
  -19.1206    1.4396   30.6980 H   0  0  0  0  0  0  0  0  0  0  0  0
  -20.5240    2.2016   28.6332 C   0  0  0  0  0  0  0  0  0  0  0  0
  -20.9022    3.0719   26.2740 C   0  0  0  0  0  0  0  0  0  0  0  0
  -19.9995    2.2868   27.1987 C   0  0  0  0  0  0  0  0  0  0  0  0
  -26.2881    5.7647   29.4534 C   0  0  0  0  0  0  0  0  0  0  0  0
  -26.2185    7.1584   29.7930 O   0  0  0  0  0  0  0  0  0  0  0  0
  -25.6672    7.2715   30.5831 H   0  0  0  0  0  0  0  0  0  0  0  0
 20 21  2  0  0  0
 20 25  1  0  0  0
 20 22  1  0  0  0
 24 25  1  0  0  0
  8  9  2  0  0  0
  8 13  1  0  0  0
  9 10  1  0  0  0
 10 11  2  0  0  0
 11 12  1  0  0  0
 11 17  1  0  0  0
 12 13  2  0  0  0
 12 15  1  0  0  0
 13 14  1  0  0  0
 15 16  2  0  0  0
 16 17  1  0  0  0
 17  1  1  0  0  0
 25 28  1  0  0  0
 28 30  1  0  0  0
 29 30  1  0  0  0
  1  2  1  0  0  0
  1  6  1  0  0  0
 22  2  1  0  0  0
  2  3  1  0  0  0
  3  4  1  0  0  0
  3  5  1  0  0  0
  5  6  1  0  0  0
  5 31  1  0  0  0
 31 32  1  0  0  0
 24 26  1  0  0  0
 24 27  1  0  0  0
 14 18  1  0  0  0
 14 19  1  0  0  0
 22 23  1  0  0  0
  4  7  1  0  0  0
 32 33  1  0  0  0
M  END
> <minimizedAffinity>
-7.51785

$$$$
5FOG_VRT_A_1542


 33 35  0  0  0  0  0  0  0  0999 V2000
  -21.2899    6.7634   26.5204 C   0  0  0  0  0  0  0  0  0  0  0  0
  -22.7971    6.5531   26.2326 C   0  0  0  0  0  0  0  0  0  0  0  0
  -22.8698    5.7627   24.9128 C   0  0  0  0  0  0  0  0  0  0  0  0
  -23.8282    4.6858   24.8518 O   0  0  0  0  0  0  0  0  0  0  0  0
  -21.4406    5.2412   24.7214 C   0  0  0  0  0  0  0  0  0  0  0  0
  -20.5687    6.0612   25.5036 O   0  0  0  0  0  0  0  0  0  0  0  0
  -23.6102    4.0205   25.5232 H   0  0  0  0  0  0  0  0  0  0  0  0
  -20.0823   11.1606   23.6547 N   0  0  0  0  0  0  0  0  0  0  0  0
  -20.5419    9.8607   23.1147 C   0  0  0  0  0  0  0  0  0  0  0  0
  -20.8172    8.7968   24.1202 N   0  0  0  0  0  0  0  0  0  0  0  0
  -20.6648    8.9658   25.4736 C   0  0  0  0  0  0  0  0  0  0  0  0
  -20.1933   10.2817   25.9788 C   0  0  0  0  0  0  0  0  0  0  0  0
  -19.8995   11.3731   24.9889 C   0  0  0  0  0  0  0  0  0  0  0  0
  -19.4653   12.5684   25.4424 N   0  0  0  0  0  0  0  0  0  0  0  0
  -20.1216   10.1625   27.3291 N   0  0  0  0  0  0  0  0  0  0  0  0
  -20.5108    8.9058   27.6654 C   0  0  0  0  0  0  0  0  0  0  0  0
  -20.8268    8.1833   26.5612 N   0  0  0  0  0  0  0  0  0  0  0  0
  -19.2683   13.2940   24.8069 H   0  0  0  0  0  0  0  0  0  0  0  0
  -19.3456   12.7143   26.4087 H   0  0  0  0  0  0  0  0  0  0  0  0
  -23.5940    6.2916   28.6066 C   0  0  0  0  0  0  0  0  0  0  0  0
  -23.4981    7.4738   28.9050 O   0  0  0  0  0  0  0  0  0  0  0  0
  -23.3035    5.8062   27.3920 N   0  0  0  0  0  0  0  0  0  0  0  0
  -23.4454    4.8407   27.2618 H   0  0  0  0  0  0  0  0  0  0  0  0
  -24.6971    4.1613   28.8243 N   0  0  0  0  0  0  0  0  0  0  0  0
  -24.0777    5.2387   29.5836 C   0  0  0  0  0  0  0  0  0  0  0  0
  -25.4123    4.5474   28.2079 H   0  0  0  0  0  0  0  0  0  0  0  0
  -25.1257    3.4952   29.4669 H   0  0  0  0  0  0  0  0  0  0  0  0
  -23.0063    4.6152   30.4999 C   0  0  0  0  0  0  0  0  0  0  0  0
  -20.5205    4.5247   31.0279 C   0  0  0  0  0  0  0  0  0  0  0  0
  -21.5834    4.4869   29.9531 C   0  0  0  0  0  0  0  0  0  0  0  0
  -20.9595    5.2560   23.2734 C   0  0  0  0  0  0  0  0  0  0  0  0
  -21.5818    6.3148   22.5289 O   0  0  0  0  0  0  0  0  0  0  0  0
  -22.5429    6.1839   22.5223 H   0  0  0  0  0  0  0  0  0  0  0  0
 20 21  2  0  0  0
 20 25  1  0  0  0
 20 22  1  0  0  0
 24 25  1  0  0  0
  8  9  2  0  0  0
  8 13  1  0  0  0
  9 10  1  0  0  0
 10 11  2  0  0  0
 11 12  1  0  0  0
 11 17  1  0  0  0
 12 13  2  0  0  0
 12 15  1  0  0  0
 13 14  1  0  0  0
 15 16  2  0  0  0
 16 17  1  0  0  0
 17  1  1  0  0  0
 25 28  1  0  0  0
 28 30  1  0  0  0
 29 30  1  0  0  0
  1  2  1  0  0  0
  1  6  1  0  0  0
 22  2  1  0  0  0
  2  3  1  0  0  0
  3  4  1  0  0  0
  3  5  1  0  0  0
  5  6  1  0  0  0
  5 31  1  0  0  0
 31 32  1  0  0  0
 24 26  1  0  0  0
 24 27  1  0  0  0
 14 18  1  0  0  0
 14 19  1  0  0  0
 22 23  1  0  0  0
  4  7  1  0  0  0
 32 33  1  0  0  0
M  END
> <minimizedAffinity>
-7.41208

$$$$
5FOG_VRT_A_1542


 33 35  0  0  0  0  0  0  0  0999 V2000
  -22.6636    7.5975   25.3962 C   0  0  0  0  0  0  0  0  0  0  0  0
  -21.1320    7.8035   25.4984 C   0  0  0  0  0  0  0  0  0  0  0  0
  -20.4951    6.6352   24.7230 C   0  0  0  0  0  0  0  0  0  0  0  0
  -19.3785    6.9550   23.8668 O   0  0  0  0  0  0  0  0  0  0  0  0
  -21.6621    6.0553   23.9148 C   0  0  0  0  0  0  0  0  0  0  0  0
  -22.8770    6.4661   24.5469 O   0  0  0  0  0  0  0  0  0  0  0  0
  -19.6656    7.5765   23.1797 H   0  0  0  0  0  0  0  0  0  0  0  0
  -23.2063    4.4704   29.7473 N   0  0  0  0  0  0  0  0  0  0  0  0
  -22.2716    4.2503   28.6202 C   0  0  0  0  0  0  0  0  0  0  0  0
  -22.3093    5.2676   27.5328 N   0  0  0  0  0  0  0  0  0  0  0  0
  -23.1452    6.3562   27.5326 C   0  0  0  0  0  0  0  0  0  0  0  0
  -24.0761    6.5400   28.6766 C   0  0  0  0  0  0  0  0  0  0  0  0
  -24.0676    5.5265   29.7857 C   0  0  0  0  0  0  0  0  0  0  0  0
  -24.9155    5.6859   30.8242 N   0  0  0  0  0  0  0  0  0  0  0  0
  -24.7803    7.6696   28.4107 N   0  0  0  0  0  0  0  0  0  0  0  0
  -24.3488    8.1692   27.2241 C   0  0  0  0  0  0  0  0  0  0  0  0
  -23.3795    7.3841   26.6901 N   0  0  0  0  0  0  0  0  0  0  0  0
  -24.9225    5.0307   31.5590 H   0  0  0  0  0  0  0  0  0  0  0  0
  -25.5268    6.4572   30.8467 H   0  0  0  0  0  0  0  0  0  0  0  0
  -19.7780    9.8646   24.9910 C   0  0  0  0  0  0  0  0  0  0  0  0
  -18.7810    9.5186   25.6090 O   0  0  0  0  0  0  0  0  0  0  0  0
  -20.8848    9.1166   24.8875 N   0  0  0  0  0  0  0  0  0  0  0  0
  -21.6142    9.4886   24.3408 H   0  0  0  0  0  0  0  0  0  0  0  0
  -18.5109   11.5999   23.9019 N   0  0  0  0  0  0  0  0  0  0  0  0
  -19.8627   11.1834   24.2487 C   0  0  0  0  0  0  0  0  0  0  0  0
  -17.9314   11.6069   24.7413 H   0  0  0  0  0  0  0  0  0  0  0  0
  -18.5366   12.5364   23.4987 H   0  0  0  0  0  0  0  0  0  0  0  0
  -20.7037   11.1860   22.9569 C   0  0  0  0  0  0  0  0  0  0  0  0
  -20.9489    9.2979   21.2713 C   0  0  0  0  0  0  0  0  0  0  0  0
  -20.1277   10.4832   21.7263 C   0  0  0  0  0  0  0  0  0  0  0  0
  -21.6538    4.5330   23.8110 C   0  0  0  0  0  0  0  0  0  0  0  0
  -22.5957    3.9439   24.7212 O   0  0  0  0  0  0  0  0  0  0  0  0
  -22.3582    4.1819   25.6311 H   0  0  0  0  0  0  0  0  0  0  0  0
 20 21  2  0  0  0
 20 25  1  0  0  0
 20 22  1  0  0  0
 24 25  1  0  0  0
  8  9  2  0  0  0
  8 13  1  0  0  0
  9 10  1  0  0  0
 10 11  2  0  0  0
 11 12  1  0  0  0
 11 17  1  0  0  0
 12 13  2  0  0  0
 12 15  1  0  0  0
 13 14  1  0  0  0
 15 16  2  0  0  0
 16 17  1  0  0  0
 17  1  1  0  0  0
 25 28  1  0  0  0
 28 30  1  0  0  0
 29 30  1  0  0  0
  1  2  1  0  0  0
  1  6  1  0  0  0
 22  2  1  0  0  0
  2  3  1  0  0  0
  3  4  1  0  0  0
  3  5  1  0  0  0
  5  6  1  0  0  0
  5 31  1  0  0  0
 31 32  1  0  0  0
 24 26  1  0  0  0
 24 27  1  0  0  0
 14 18  1  0  0  0
 14 19  1  0  0  0
 22 23  1  0  0  0
  4  7  1  0  0  0
 32 33  1  0  0  0
M  END
> <minimizedAffinity>
-7.19742

$$$$
5FOG_VRT_A_1542


 33 35  0  0  0  0  0  0  0  0999 V2000
  -20.1369    8.2223   25.9127 C   0  0  0  0  0  0  0  0  0  0  0  0
  -21.0397    9.2404   25.1731 C   0  0  0  0  0  0  0  0  0  0  0  0
  -20.2873   10.5835   25.2171 C   0  0  0  0  0  0  0  0  0  0  0  0
  -20.2821   11.3659   24.0048 O   0  0  0  0  0  0  0  0  0  0  0  0
  -18.8629   10.1897   25.6262 C   0  0  0  0  0  0  0  0  0  0  0  0
  -18.9285    8.9075   26.2553 O   0  0  0  0  0  0  0  0  0  0  0  0
  -19.8457   10.8646   23.2983 H   0  0  0  0  0  0  0  0  0  0  0  0
  -22.2939    3.8085   28.1197 N   0  0  0  0  0  0  0  0  0  0  0  0
  -21.8204    3.9492   26.7238 C   0  0  0  0  0  0  0  0  0  0  0  0
  -21.2554    5.2777   26.3570 N   0  0  0  0  0  0  0  0  0  0  0  0
  -21.1630    6.3358   27.2262 C   0  0  0  0  0  0  0  0  0  0  0  0
  -21.6564    6.1605   28.6173 C   0  0  0  0  0  0  0  0  0  0  0  0
  -22.2391    4.8343   29.0160 C   0  0  0  0  0  0  0  0  0  0  0  0
  -22.6942    4.6720   30.2767 N   0  0  0  0  0  0  0  0  0  0  0  0
  -21.4574    7.3503   29.2397 N   0  0  0  0  0  0  0  0  0  0  0  0
  -20.8899    8.2049   28.3500 C   0  0  0  0  0  0  0  0  0  0  0  0
  -20.7207    7.6082   27.1432 N   0  0  0  0  0  0  0  0  0  0  0  0
  -23.0789    3.8092   30.5539 H   0  0  0  0  0  0  0  0  0  0  0  0
  -22.6412    5.4164   30.9188 H   0  0  0  0  0  0  0  0  0  0  0  0
  -22.0439    7.7460   23.4131 C   0  0  0  0  0  0  0  0  0  0  0  0
  -22.8593    7.2098   24.1502 O   0  0  0  0  0  0  0  0  0  0  0  0
  -21.1908    8.6972   23.8164 N   0  0  0  0  0  0  0  0  0  0  0  0
  -20.5987    9.0744   23.1262 H   0  0  0  0  0  0  0  0  0  0  0  0
  -23.2059    6.8860   21.4863 N   0  0  0  0  0  0  0  0  0  0  0  0
  -21.9231    7.4038   21.9416 C   0  0  0  0  0  0  0  0  0  0  0  0
  -23.4967    6.1181   22.0915 H   0  0  0  0  0  0  0  0  0  0  0  0
  -23.1156    6.5483   20.5281 H   0  0  0  0  0  0  0  0  0  0  0  0
  -21.5204    8.5589   21.0036 C   0  0  0  0  0  0  0  0  0  0  0  0
  -21.9952   11.0563   20.9412 C   0  0  0  0  0  0  0  0  0  0  0  0
  -22.5477    9.6624   20.7451 C   0  0  0  0  0  0  0  0  0  0  0  0
  -18.1945   11.1720   26.5836 C   0  0  0  0  0  0  0  0  0  0  0  0
  -19.1656   12.0023   27.2395 O   0  0  0  0  0  0  0  0  0  0  0  0
  -19.6519   12.5167   26.5763 H   0  0  0  0  0  0  0  0  0  0  0  0
 20 21  2  0  0  0
 20 25  1  0  0  0
 20 22  1  0  0  0
 24 25  1  0  0  0
  8  9  2  0  0  0
  8 13  1  0  0  0
  9 10  1  0  0  0
 10 11  2  0  0  0
 11 12  1  0  0  0
 11 17  1  0  0  0
 12 13  2  0  0  0
 12 15  1  0  0  0
 13 14  1  0  0  0
 15 16  2  0  0  0
 16 17  1  0  0  0
 17  1  1  0  0  0
 25 28  1  0  0  0
 28 30  1  0  0  0
 29 30  1  0  0  0
  1  2  1  0  0  0
  1  6  1  0  0  0
 22  2  1  0  0  0
  2  3  1  0  0  0
  3  4  1  0  0  0
  3  5  1  0  0  0
  5  6  1  0  0  0
  5 31  1  0  0  0
 31 32  1  0  0  0
 24 26  1  0  0  0
 24 27  1  0  0  0
 14 18  1  0  0  0
 14 19  1  0  0  0
 22 23  1  0  0  0
  4  7  1  0  0  0
 32 33  1  0  0  0
M  END
> <minimizedAffinity>
-7.16344

$$$$
