3F37_2MY_A_2001


 10 10  0  0  0  0  0  0  0  0999 V2000
   30.8070   -0.6713   36.2112 C   0  0  0  0  0  0  0  0  0  0  0  0
   32.3339   -0.5701   36.2195 C   0  0  0  0  0  0  0  0  0  0  0  0
   33.1045   -1.2657   37.1368 C   0  0  0  0  0  0  0  0  0  0  0  0
   34.4871   -1.1632   37.0824 C   0  0  0  0  0  0  0  0  0  0  0  0
   35.1223   -0.4078   36.1093 C   0  0  0  0  0  0  0  0  0  0  0  0
   34.3558    0.2602   35.1724 C   0  0  0  0  0  0  0  0  0  0  0  0
   35.0130    1.1020   34.0792 C   0  0  0  0  0  0  0  0  0  0  0  0
   32.9751    0.1673   35.2230 C   0  0  0  0  0  0  0  0  0  0  0  0
   32.2706    0.8353   34.2805 O   0  0  0  0  0  0  0  0  0  0  0  0
   31.3343    0.7973   34.2809 H   0  0  0  0  0  0  0  0  0  0  0  0
  1  2  1  0  0  0
  2  3  2  0  0  0
  2  8  1  0  0  0
  3  4  1  0  0  0
  4  5  2  0  0  0
  5  6  1  0  0  0
  6  7  1  0  0  0
  6  8  2  0  0  0
  8  9  1  0  0  0
  9 10  1  0  0  0
M  END
> <minimizedAffinity>
-5.77258

$$$$
3F37_2MY_A_2001


 10 10  0  0  0  0  0  0  0  0999 V2000
   34.0192   -1.0836   35.0004 C   0  0  0  0  0  0  0  0  0  0  0  0
   35.1196   -0.2298   34.3664 C   0  0  0  0  0  0  0  0  0  0  0  0
   36.0820    0.4046   35.1346 C   0  0  0  0  0  0  0  0  0  0  0  0
   37.0764    1.1426   34.5086 C   0  0  0  0  0  0  0  0  0  0  0  0
   37.1533    1.2341   33.1277 C   0  0  0  0  0  0  0  0  0  0  0  0
   36.2131    0.5739   32.3584 C   0  0  0  0  0  0  0  0  0  0  0  0
   36.2609    0.6439   30.8325 C   0  0  0  0  0  0  0  0  0  0  0  0
   35.2145   -0.1603   32.9757 C   0  0  0  0  0  0  0  0  0  0  0  0
   34.3220   -0.7920   32.1786 O   0  0  0  0  0  0  0  0  0  0  0  0
   33.6314   -1.2989   32.5582 H   0  0  0  0  0  0  0  0  0  0  0  0
  1  2  1  0  0  0
  2  3  2  0  0  0
  2  8  1  0  0  0
  3  4  1  0  0  0
  4  5  2  0  0  0
  5  6  1  0  0  0
  6  7  1  0  0  0
  6  8  2  0  0  0
  8  9  1  0  0  0
  9 10  1  0  0  0
M  END
> <minimizedAffinity>
-5.76809

$$$$
3F37_2MY_A_2001


 10 10  0  0  0  0  0  0  0  0999 V2000
   36.3493    0.6021   30.8524 C   0  0  0  0  0  0  0  0  0  0  0  0
   36.2908    0.5269   32.3797 C   0  0  0  0  0  0  0  0  0  0  0  0
   37.1860    1.2209   33.1773 C   0  0  0  0  0  0  0  0  0  0  0  0
   37.0712    1.1430   34.5579 C   0  0  0  0  0  0  0  0  0  0  0  0
   36.0594    0.4143   35.1631 C   0  0  0  0  0  0  0  0  0  0  0  0
   35.1449   -0.2517   34.3683 C   0  0  0  0  0  0  0  0  0  0  0  0
   34.0109   -1.0646   34.9919 C   0  0  0  0  0  0  0  0  0  0  0  0
   35.2558   -0.1833   32.9897 C   0  0  0  0  0  0  0  0  0  0  0  0
   34.3332   -0.8482   32.2565 O   0  0  0  0  0  0  0  0  0  0  0  0
   34.3740   -0.8263   31.3207 H   0  0  0  0  0  0  0  0  0  0  0  0
  1  2  1  0  0  0
  2  3  2  0  0  0
  2  8  1  0  0  0
  3  4  1  0  0  0
  4  5  2  0  0  0
  5  6  1  0  0  0
  6  7  1  0  0  0
  6  8  2  0  0  0
  8  9  1  0  0  0
  9 10  1  0  0  0
M  END
> <minimizedAffinity>
-5.76739

$$$$
3F37_2MY_A_2001


 10 10  0  0  0  0  0  0  0  0999 V2000
   34.7444    1.2260   33.8862 C   0  0  0  0  0  0  0  0  0  0  0  0
   34.2061    0.3941   35.0523 C   0  0  0  0  0  0  0  0  0  0  0  0
   35.0463   -0.1313   36.0204 C   0  0  0  0  0  0  0  0  0  0  0  0
   34.5045   -0.8532   37.0742 C   0  0  0  0  0  0  0  0  0  0  0  0
   33.1365   -1.0344   37.2038 C   0  0  0  0  0  0  0  0  0  0  0  0
   32.2941   -0.4821   36.2567 C   0  0  0  0  0  0  0  0  0  0  0  0
   30.7791   -0.6532   36.3611 C   0  0  0  0  0  0  0  0  0  0  0  0
   32.8273    0.2353   35.1991 C   0  0  0  0  0  0  0  0  0  0  0  0
   31.9607    0.7599   34.3021 O   0  0  0  0  0  0  0  0  0  0  0  0
   32.2823    1.2519   33.5724 H   0  0  0  0  0  0  0  0  0  0  0  0
  1  2  1  0  0  0
  2  3  2  0  0  0
  2  8  1  0  0  0
  3  4  1  0  0  0
  4  5  2  0  0  0
  5  6  1  0  0  0
  6  7  1  0  0  0
  6  8  2  0  0  0
  8  9  1  0  0  0
  9 10  1  0  0  0
M  END
> <minimizedAffinity>
-5.69935

$$$$
3F37_2MY_A_2001


 10 10  0  0  0  0  0  0  0  0999 V2000
   34.6210   -1.2637   36.9709 C   0  0  0  0  0  0  0  0  0  0  0  0
   34.6266   -0.3685   35.7299 C   0  0  0  0  0  0  0  0  0  0  0  0
   33.7074    0.6551   35.5667 C   0  0  0  0  0  0  0  0  0  0  0  0
   33.7745    1.4576   34.4368 C   0  0  0  0  0  0  0  0  0  0  0  0
   34.7618    1.2843   33.4796 C   0  0  0  0  0  0  0  0  0  0  0  0
   35.7003    0.2847   33.6576 C   0  0  0  0  0  0  0  0  0  0  0  0
   36.8088    0.0593   32.6300 C   0  0  0  0  0  0  0  0  0  0  0  0
   35.6371   -0.5240   34.7799 C   0  0  0  0  0  0  0  0  0  0  0  0
   36.5816   -1.4841   34.9102 O   0  0  0  0  0  0  0  0  0  0  0  0
   36.5730   -2.0516   35.6557 H   0  0  0  0  0  0  0  0  0  0  0  0
  1  2  1  0  0  0
  2  3  2  0  0  0
  2  8  1  0  0  0
  3  4  1  0  0  0
  4  5  2  0  0  0
  5  6  1  0  0  0
  6  7  1  0  0  0
  6  8  2  0  0  0
  8  9  1  0  0  0
  9 10  1  0  0  0
M  END
> <minimizedAffinity>
-5.39638

$$$$
3F37_2MY_A_2001


 10 10  0  0  0  0  0  0  0  0999 V2000
   34.1838   -0.2690   31.4728 C   0  0  0  0  0  0  0  0  0  0  0  0
   35.1431    0.2088   32.5650 C   0  0  0  0  0  0  0  0  0  0  0  0
   36.5007    0.3523   32.3295 C   0  0  0  0  0  0  0  0  0  0  0  0
   37.3233    0.8180   33.3453 C   0  0  0  0  0  0  0  0  0  0  0  0
   36.8160    1.1780   34.5839 C   0  0  0  0  0  0  0  0  0  0  0  0
   35.4565    1.0673   34.8097 C   0  0  0  0  0  0  0  0  0  0  0  0
   34.8525    1.4559   36.1588 C   0  0  0  0  0  0  0  0  0  0  0  0
   34.6295    0.5983   33.8030 C   0  0  0  0  0  0  0  0  0  0  0  0
   33.3062    0.5134   34.0722 O   0  0  0  0  0  0  0  0  0  0  0  0
   32.7139    0.2008   33.4169 H   0  0  0  0  0  0  0  0  0  0  0  0
  1  2  1  0  0  0
  2  3  2  0  0  0
  2  8  1  0  0  0
  3  4  1  0  0  0
  4  5  2  0  0  0
  5  6  1  0  0  0
  6  7  1  0  0  0
  6  8  2  0  0  0
  8  9  1  0  0  0
  9 10  1  0  0  0
M  END
> <minimizedAffinity>
-5.39619

$$$$
3F37_2MY_A_2001


 10 10  0  0  0  0  0  0  0  0999 V2000
   32.4362   -0.2128   36.8957 C   0  0  0  0  0  0  0  0  0  0  0  0
   33.4685   -0.4147   35.7842 C   0  0  0  0  0  0  0  0  0  0  0  0
   33.2751   -1.3389   34.7706 C   0  0  0  0  0  0  0  0  0  0  0  0
   34.2279   -1.4618   33.7694 C   0  0  0  0  0  0  0  0  0  0  0  0
   35.3561   -0.6574   33.7369 C   0  0  0  0  0  0  0  0  0  0  0  0
   35.5340    0.2886   34.7294 C   0  0  0  0  0  0  0  0  0  0  0  0
   36.7610    1.1997   34.7320 C   0  0  0  0  0  0  0  0  0  0  0  0
   34.5904    0.4140   35.7350 C   0  0  0  0  0  0  0  0  0  0  0  0
   34.8080    1.3580   36.6797 O   0  0  0  0  0  0  0  0  0  0  0  0
   34.1926    1.4739   37.3767 H   0  0  0  0  0  0  0  0  0  0  0  0
  1  2  1  0  0  0
  2  3  2  0  0  0
  2  8  1  0  0  0
  3  4  1  0  0  0
  4  5  2  0  0  0
  5  6  1  0  0  0
  6  7  1  0  0  0
  6  8  2  0  0  0
  8  9  1  0  0  0
  9 10  1  0  0  0
M  END
> <minimizedAffinity>
-5.36027

$$$$
3F37_2MY_A_2001


 10 10  0  0  0  0  0  0  0  0999 V2000
   32.3686   -1.5772   35.2430 C   0  0  0  0  0  0  0  0  0  0  0  0
   33.5324   -0.5835   35.2405 C   0  0  0  0  0  0  0  0  0  0  0  0
   33.6029    0.4570   36.1523 C   0  0  0  0  0  0  0  0  0  0  0  0
   34.6949    1.3126   36.1271 C   0  0  0  0  0  0  0  0  0  0  0  0
   35.7386    1.1329   35.2329 C   0  0  0  0  0  0  0  0  0  0  0  0
   35.6859    0.0749   34.3444 C   0  0  0  0  0  0  0  0  0  0  0  0
   36.8154   -0.1640   33.3431 C   0  0  0  0  0  0  0  0  0  0  0  0
   34.5970   -0.7804   34.3596 C   0  0  0  0  0  0  0  0  0  0  0  0
   34.5954   -1.8033   33.4739 O   0  0  0  0  0  0  0  0  0  0  0  0
   33.8764   -2.4037   33.4529 H   0  0  0  0  0  0  0  0  0  0  0  0
  1  2  1  0  0  0
  2  3  2  0  0  0
  2  8  1  0  0  0
  3  4  1  0  0  0
  4  5  2  0  0  0
  5  6  1  0  0  0
  6  7  1  0  0  0
  6  8  2  0  0  0
  8  9  1  0  0  0
  9 10  1  0  0  0
M  END
> <minimizedAffinity>
-5.27380

$$$$
3F37_2MY_A_2001


 10 10  0  0  0  0  0  0  0  0999 V2000
   36.8653   -0.1352   33.3649 C   0  0  0  0  0  0  0  0  0  0  0  0
   35.7686    0.0659   34.4130 C   0  0  0  0  0  0  0  0  0  0  0  0
   35.8253    1.0962   35.3373 C   0  0  0  0  0  0  0  0  0  0  0  0
   34.7898    1.2533   36.2474 C   0  0  0  0  0  0  0  0  0  0  0  0
   33.6788    0.4247   36.2345 C   0  0  0  0  0  0  0  0  0  0  0  0
   33.6049   -0.5833   35.2910 C   0  0  0  0  0  0  0  0  0  0  0  0
   32.3974   -1.5186   35.2371 C   0  0  0  0  0  0  0  0  0  0  0  0
   34.6366   -0.7499   34.3826 C   0  0  0  0  0  0  0  0  0  0  0  0
   34.5141   -1.7472   33.4764 O   0  0  0  0  0  0  0  0  0  0  0  0
   35.1909   -1.8922   32.8448 H   0  0  0  0  0  0  0  0  0  0  0  0
  1  2  1  0  0  0
  2  3  2  0  0  0
  2  8  1  0  0  0
  3  4  1  0  0  0
  4  5  2  0  0  0
  5  6  1  0  0  0
  6  7  1  0  0  0
  6  8  2  0  0  0
  8  9  1  0  0  0
  9 10  1  0  0  0
M  END
> <minimizedAffinity>
-5.23558

$$$$
3F37_2MY_A_2001


 10 10  0  0  0  0  0  0  0  0999 V2000
   32.7134    0.4710   34.1337 C   0  0  0  0  0  0  0  0  0  0  0  0
   34.1548   -0.0414   34.1748 C   0  0  0  0  0  0  0  0  0  0  0  0
   34.5372   -1.0717   35.0181 C   0  0  0  0  0  0  0  0  0  0  0  0
   35.8502   -1.5198   34.9951 C   0  0  0  0  0  0  0  0  0  0  0  0
   36.7853   -0.9854   34.1227 C   0  0  0  0  0  0  0  0  0  0  0  0
   36.3969    0.0201   33.2568 C   0  0  0  0  0  0  0  0  0  0  0  0
   37.3931    0.6364   32.2753 C   0  0  0  0  0  0  0  0  0  0  0  0
   35.0898    0.4764   33.2772 C   0  0  0  0  0  0  0  0  0  0  0  0
   34.7586    1.4579   32.4067 O   0  0  0  0  0  0  0  0  0  0  0  0
   33.8839    1.7936   32.3897 H   0  0  0  0  0  0  0  0  0  0  0  0
  1  2  1  0  0  0
  2  3  2  0  0  0
  2  8  1  0  0  0
  3  4  1  0  0  0
  4  5  2  0  0  0
  5  6  1  0  0  0
  6  7  1  0  0  0
  6  8  2  0  0  0
  8  9  1  0  0  0
  9 10  1  0  0  0
M  END
> <minimizedAffinity>
-5.19294

$$$$
