2PU1_FSG_A_600


 14 13  0  0  0  0  0  0  0  0999 V2000
   25.6143   26.0347  -18.1088 C   0  0  0  0  0  0  0  0  0  0  0  0
   26.2752   27.0133  -18.7687 F   0  0  0  0  0  0  0  0  0  0  0  0
   27.0354   27.0895  -16.1400 O   0  0  0  0  0  0  0  0  0  0  0  0
   26.3929   25.8073  -16.4618 P   0  0  0  0  0  0  0  0  0  0  0  0
   25.2630   25.5208  -15.5725 O   0  0  0  0  0  0  0  0  0  0  0  0
   27.3152   24.6926  -16.5927 O   0  0  0  0  0  0  0  0  0  0  0  0
   25.5888   25.3854  -14.6690 H   0  0  0  0  0  0  0  0  0  0  0  0
   27.7533   24.5337  -15.7420 H   0  0  0  0  0  0  0  0  0  0  0  0
   24.1972   26.4984  -17.9873 C   0  0  0  0  0  0  0  0  0  0  0  0
   23.3378   26.0625  -18.7123 O   0  0  0  0  0  0  0  0  0  0  0  0
   23.9771   27.3817  -17.0377 N   0  0  0  0  0  0  0  0  0  0  0  0
   22.7364   27.9004  -16.8257 O   0  0  0  0  0  0  0  0  0  0  0  0
   24.7253   27.6737  -16.4684 H   0  0  0  0  0  0  0  0  0  0  0  0
   22.1125   27.5169  -17.4618 H   0  0  0  0  0  0  0  0  0  0  0  0
  3  4  2  0  0  0
  4  5  1  0  0  0
  4  6  1  0  0  0
  4  1  1  0  0  0
  1  2  1  0  0  0
  1  9  1  0  0  0
  9 10  2  0  0  0
  9 11  1  0  0  0
 11 12  1  0  0  0
  5  7  1  0  0  0
  6  8  1  0  0  0
 11 13  1  0  0  0
 12 14  1  0  0  0
M  END
> <minimizedAffinity>
-8.03629

$$$$
2PU1_FSG_A_600


 14 13  0  0  0  0  0  0  0  0999 V2000
   26.1180   26.2676  -18.2791 C   0  0  0  0  0  0  0  0  0  0  0  0
   25.9755   27.5999  -18.4647 F   0  0  0  0  0  0  0  0  0  0  0  0
   25.1723   25.7809  -15.8548 O   0  0  0  0  0  0  0  0  0  0  0  0
   26.4783   25.9565  -16.5059 P   0  0  0  0  0  0  0  0  0  0  0  0
   27.2584   24.7151  -16.5157 O   0  0  0  0  0  0  0  0  0  0  0  0
   27.2334   27.1034  -16.0318 O   0  0  0  0  0  0  0  0  0  0  0  0
   27.4943   24.4743  -15.6061 H   0  0  0  0  0  0  0  0  0  0  0  0
   27.4481   26.9837  -15.0935 H   0  0  0  0  0  0  0  0  0  0  0  0
   24.8204   25.6486  -18.6929 C   0  0  0  0  0  0  0  0  0  0  0  0
   24.7907   24.5643  -19.2198 O   0  0  0  0  0  0  0  0  0  0  0  0
   23.7489   26.3621  -18.4225 N   0  0  0  0  0  0  0  0  0  0  0  0
   22.5036   25.9261  -18.7579 O   0  0  0  0  0  0  0  0  0  0  0  0
   23.8496   27.2296  -17.9681 H   0  0  0  0  0  0  0  0  0  0  0  0
   22.5701   25.0628  -19.1951 H   0  0  0  0  0  0  0  0  0  0  0  0
  3  4  2  0  0  0
  4  5  1  0  0  0
  4  6  1  0  0  0
  4  1  1  0  0  0
  1  2  1  0  0  0
  1  9  1  0  0  0
  9 10  2  0  0  0
  9 11  1  0  0  0
 11 12  1  0  0  0
  5  7  1  0  0  0
  6  8  1  0  0  0
 11 13  1  0  0  0
 12 14  1  0  0  0
M  END
> <minimizedAffinity>
-7.73750

$$$$
2PU1_FSG_A_600


 14 13  0  0  0  0  0  0  0  0999 V2000
   26.1260   26.3331  -18.2875 C   0  0  0  0  0  0  0  0  0  0  0  0
   25.8019   27.6451  -18.3472 F   0  0  0  0  0  0  0  0  0  0  0  0
   27.2018   24.6580  -16.5425 O   0  0  0  0  0  0  0  0  0  0  0  0
   26.3653   25.8665  -16.5280 P   0  0  0  0  0  0  0  0  0  0  0  0
   27.0697   27.0151  -15.9498 O   0  0  0  0  0  0  0  0  0  0  0  0
   25.0386   25.6687  -15.9704 O   0  0  0  0  0  0  0  0  0  0  0  0
   27.2385   26.8506  -15.0089 H   0  0  0  0  0  0  0  0  0  0  0  0
   25.1144   25.4191  -15.0362 H   0  0  0  0  0  0  0  0  0  0  0  0
   24.9800   25.5929  -18.9013 C   0  0  0  0  0  0  0  0  0  0  0  0
   23.8510   26.0042  -18.8006 O   0  0  0  0  0  0  0  0  0  0  0  0
   25.3064   24.4989  -19.5547 N   0  0  0  0  0  0  0  0  0  0  0  0
   24.3616   23.7198  -20.1495 O   0  0  0  0  0  0  0  0  0  0  0  0
   26.2538   24.2379  -19.6147 H   0  0  0  0  0  0  0  0  0  0  0  0
   23.4843   24.1065  -20.0025 H   0  0  0  0  0  0  0  0  0  0  0  0
  3  4  2  0  0  0
  4  5  1  0  0  0
  4  6  1  0  0  0
  4  1  1  0  0  0
  1  2  1  0  0  0
  1  9  1  0  0  0
  9 10  2  0  0  0
  9 11  1  0  0  0
 11 12  1  0  0  0
  5  7  1  0  0  0
  6  8  1  0  0  0
 11 13  1  0  0  0
 12 14  1  0  0  0
M  END
> <minimizedAffinity>
-7.27392

$$$$
2PU1_FSG_A_600


 14 13  0  0  0  0  0  0  0  0999 V2000
   25.5831   26.6476  -17.9231 C   0  0  0  0  0  0  0  0  0  0  0  0
   25.6341   25.7778  -18.9578 F   0  0  0  0  0  0  0  0  0  0  0  0
   26.8846   24.5923  -16.8790 O   0  0  0  0  0  0  0  0  0  0  0  0
   26.1870   25.7986  -16.4114 P   0  0  0  0  0  0  0  0  0  0  0  0
   27.1079   26.7657  -15.8062 O   0  0  0  0  0  0  0  0  0  0  0  0
   25.0166   25.5330  -15.5929 O   0  0  0  0  0  0  0  0  0  0  0  0
   27.4781   26.3931  -14.9907 H   0  0  0  0  0  0  0  0  0  0  0  0
   25.2876   25.0823  -14.7778 H   0  0  0  0  0  0  0  0  0  0  0  0
   26.4671   27.7944  -18.2994 C   0  0  0  0  0  0  0  0  0  0  0  0
   27.0705   28.4139  -17.4591 O   0  0  0  0  0  0  0  0  0  0  0  0
   26.5385   28.0460  -19.5886 N   0  0  0  0  0  0  0  0  0  0  0  0
   27.2942   29.0710  -20.0700 O   0  0  0  0  0  0  0  0  0  0  0  0
   26.0350   27.4812  -20.2184 H   0  0  0  0  0  0  0  0  0  0  0  0
   27.7251   29.5295  -19.3318 H   0  0  0  0  0  0  0  0  0  0  0  0
  3  4  2  0  0  0
  4  5  1  0  0  0
  4  6  1  0  0  0
  4  1  1  0  0  0
  1  2  1  0  0  0
  1  9  1  0  0  0
  9 10  2  0  0  0
  9 11  1  0  0  0
 11 12  1  0  0  0
  5  7  1  0  0  0
  6  8  1  0  0  0
 11 13  1  0  0  0
 12 14  1  0  0  0
M  END
> <minimizedAffinity>
-6.79619

$$$$
2PU1_FSG_A_600


 14 13  0  0  0  0  0  0  0  0999 V2000
   29.4573   31.8213  -20.7877 C   0  0  0  0  0  0  0  0  0  0  0  0
   30.7410   32.0764  -21.1300 F   0  0  0  0  0  0  0  0  0  0  0  0
   29.8600   30.2410  -22.8731 O   0  0  0  0  0  0  0  0  0  0  0  0
   28.8179   30.4785  -21.8642 P   0  0  0  0  0  0  0  0  0  0  0  0
   28.6641   29.3387  -20.9547 O   0  0  0  0  0  0  0  0  0  0  0  0
   27.5564   30.9516  -22.4073 O   0  0  0  0  0  0  0  0  0  0  0  0
   28.3258   28.5750  -21.4478 H   0  0  0  0  0  0  0  0  0  0  0  0
   27.1782   30.2714  -22.9863 H   0  0  0  0  0  0  0  0  0  0  0  0
   29.4842   31.4076  -19.3504 C   0  0  0  0  0  0  0  0  0  0  0  0
   28.4959   31.4864  -18.6639 O   0  0  0  0  0  0  0  0  0  0  0  0
   30.6399   30.9480  -18.9220 N   0  0  0  0  0  0  0  0  0  0  0  0
   30.8103   30.5502  -17.6313 O   0  0  0  0  0  0  0  0  0  0  0  0
   31.3976   30.8906  -19.5480 H   0  0  0  0  0  0  0  0  0  0  0  0
   29.9794   30.6669  -17.1446 H   0  0  0  0  0  0  0  0  0  0  0  0
  3  4  2  0  0  0
  4  5  1  0  0  0
  4  6  1  0  0  0
  4  1  1  0  0  0
  1  2  1  0  0  0
  1  9  1  0  0  0
  9 10  2  0  0  0
  9 11  1  0  0  0
 11 12  1  0  0  0
  5  7  1  0  0  0
  6  8  1  0  0  0
 11 13  1  0  0  0
 12 14  1  0  0  0
M  END
> <minimizedAffinity>
-6.64478

$$$$
2PU1_FSG_A_600


 14 13  0  0  0  0  0  0  0  0999 V2000
   25.7801   25.5534  -18.1627 C   0  0  0  0  0  0  0  0  0  0  0  0
   25.2711   25.3488  -16.9262 F   0  0  0  0  0  0  0  0  0  0  0  0
   23.8999   23.9950  -19.1847 O   0  0  0  0  0  0  0  0  0  0  0  0
   24.4334   25.3485  -19.3937 P   0  0  0  0  0  0  0  0  0  0  0  0
   23.4613   26.3842  -19.0306 O   0  0  0  0  0  0  0  0  0  0  0  0
   25.0338   25.5596  -20.6996 O   0  0  0  0  0  0  0  0  0  0  0  0
   22.7065   26.3467  -19.6388 H   0  0  0  0  0  0  0  0  0  0  0  0
   24.3563   25.4608  -21.3867 H   0  0  0  0  0  0  0  0  0  0  0  0
   26.3191   26.9490  -18.1652 C   0  0  0  0  0  0  0  0  0  0  0  0
   26.2530   27.6374  -19.1530 O   0  0  0  0  0  0  0  0  0  0  0  0
   26.8379   27.3503  -17.0250 N   0  0  0  0  0  0  0  0  0  0  0  0
   27.3785   28.5925  -16.8903 O   0  0  0  0  0  0  0  0  0  0  0  0
   26.8352   26.7396  -16.2528 H   0  0  0  0  0  0  0  0  0  0  0  0
   27.3059   29.0697  -17.7316 H   0  0  0  0  0  0  0  0  0  0  0  0
  3  4  2  0  0  0
  4  5  1  0  0  0
  4  6  1  0  0  0
  4  1  1  0  0  0
  1  2  1  0  0  0
  1  9  1  0  0  0
  9 10  2  0  0  0
  9 11  1  0  0  0
 11 12  1  0  0  0
  5  7  1  0  0  0
  6  8  1  0  0  0
 11 13  1  0  0  0
 12 14  1  0  0  0
M  END
> <minimizedAffinity>
-6.43936

$$$$
2PU1_FSG_A_600


 14 13  0  0  0  0  0  0  0  0999 V2000
   25.2474   26.6227  -18.5742 C   0  0  0  0  0  0  0  0  0  0  0  0
   26.5586   26.8337  -18.8315 F   0  0  0  0  0  0  0  0  0  0  0  0
   23.2814   24.9489  -19.1587 O   0  0  0  0  0  0  0  0  0  0  0  0
   24.7085   25.1130  -19.4694 P   0  0  0  0  0  0  0  0  0  0  0  0
   24.9291   25.4410  -20.8813 O   0  0  0  0  0  0  0  0  0  0  0  0
   25.5522   24.0298  -18.9949 O   0  0  0  0  0  0  0  0  0  0  0  0
   24.6669   24.6876  -21.4331 H   0  0  0  0  0  0  0  0  0  0  0  0
   25.3031   23.2061  -19.4426 H   0  0  0  0  0  0  0  0  0  0  0  0
   25.1364   26.4517  -17.0921 C   0  0  0  0  0  0  0  0  0  0  0  0
   24.0613   26.4590  -16.5460 O   0  0  0  0  0  0  0  0  0  0  0  0
   26.2780   26.2800  -16.4617 N   0  0  0  0  0  0  0  0  0  0  0  0
   26.3254   26.1271  -15.1098 O   0  0  0  0  0  0  0  0  0  0  0  0
   27.1158   26.2617  -16.9784 H   0  0  0  0  0  0  0  0  0  0  0  0
   25.4263   26.1680  -14.7481 H   0  0  0  0  0  0  0  0  0  0  0  0
  3  4  2  0  0  0
  4  5  1  0  0  0
  4  6  1  0  0  0
  4  1  1  0  0  0
  1  2  1  0  0  0
  1  9  1  0  0  0
  9 10  2  0  0  0
  9 11  1  0  0  0
 11 12  1  0  0  0
  5  7  1  0  0  0
  6  8  1  0  0  0
 11 13  1  0  0  0
 12 14  1  0  0  0
M  END
> <minimizedAffinity>
-6.22220

$$$$
2PU1_FSG_A_600


 14 13  0  0  0  0  0  0  0  0999 V2000
   28.6253   29.8306  -20.3085 C   0  0  0  0  0  0  0  0  0  0  0  0
   27.8584   30.3407  -21.2991 F   0  0  0  0  0  0  0  0  0  0  0  0
   30.3125   31.8429  -20.6441 O   0  0  0  0  0  0  0  0  0  0  0  0
   29.5828   31.1976  -19.5434 P   0  0  0  0  0  0  0  0  0  0  0  0
   28.5546   32.0760  -18.9767 O   0  0  0  0  0  0  0  0  0  0  0  0
   30.4350   30.5899  -18.5361 O   0  0  0  0  0  0  0  0  0  0  0  0
   28.9789   32.8351  -18.5470 H   0  0  0  0  0  0  0  0  0  0  0  0
   30.9635   31.2778  -18.1019 H   0  0  0  0  0  0  0  0  0  0  0  0
   27.6808   29.2068  -19.3303 C   0  0  0  0  0  0  0  0  0  0  0  0
   27.7358   29.4772  -18.1564 O   0  0  0  0  0  0  0  0  0  0  0  0
   26.8023   28.3780  -19.8515 N   0  0  0  0  0  0  0  0  0  0  0  0
   25.8926   27.7283  -19.0745 O   0  0  0  0  0  0  0  0  0  0  0  0
   26.8026   28.2244  -20.8239 H   0  0  0  0  0  0  0  0  0  0  0  0
   26.0193   27.9827  -18.1471 H   0  0  0  0  0  0  0  0  0  0  0  0
  3  4  2  0  0  0
  4  5  1  0  0  0
  4  6  1  0  0  0
  4  1  1  0  0  0
  1  2  1  0  0  0
  1  9  1  0  0  0
  9 10  2  0  0  0
  9 11  1  0  0  0
 11 12  1  0  0  0
  5  7  1  0  0  0
  6  8  1  0  0  0
 11 13  1  0  0  0
 12 14  1  0  0  0
M  END
> <minimizedAffinity>
-6.12984

$$$$
2PU1_FSG_A_600


 14 13  0  0  0  0  0  0  0  0999 V2000
   26.0469   25.4271  -17.3459 C   0  0  0  0  0  0  0  0  0  0  0  0
   25.3583   24.6422  -16.4859 F   0  0  0  0  0  0  0  0  0  0  0  0
   25.6973   26.8703  -19.5375 O   0  0  0  0  0  0  0  0  0  0  0  0
   24.8768   26.1067  -18.5868 P   0  0  0  0  0  0  0  0  0  0  0  0
   24.2851   24.9160  -19.2048 O   0  0  0  0  0  0  0  0  0  0  0  0
   23.9143   26.9073  -17.8499 O   0  0  0  0  0  0  0  0  0  0  0  0
   23.6458   25.1870  -19.8821 H   0  0  0  0  0  0  0  0  0  0  0  0
   23.2714   27.2895  -18.4675 H   0  0  0  0  0  0  0  0  0  0  0  0
   26.6616   26.5115  -16.5187 C   0  0  0  0  0  0  0  0  0  0  0  0
   26.7902   26.3845  -15.3265 O   0  0  0  0  0  0  0  0  0  0  0  0
   27.0528   27.5732  -17.1896 N   0  0  0  0  0  0  0  0  0  0  0  0
   27.6150   28.6418  -16.5608 O   0  0  0  0  0  0  0  0  0  0  0  0
   26.9365   27.5955  -18.1669 H   0  0  0  0  0  0  0  0  0  0  0  0
   27.6603   28.4688  -15.6074 H   0  0  0  0  0  0  0  0  0  0  0  0
  3  4  2  0  0  0
  4  5  1  0  0  0
  4  6  1  0  0  0
  4  1  1  0  0  0
  1  2  1  0  0  0
  1  9  1  0  0  0
  9 10  2  0  0  0
  9 11  1  0  0  0
 11 12  1  0  0  0
  5  7  1  0  0  0
  6  8  1  0  0  0
 11 13  1  0  0  0
 12 14  1  0  0  0
M  END
> <minimizedAffinity>
-6.12463

$$$$
2PU1_FSG_A_600


 14 13  0  0  0  0  0  0  0  0999 V2000
   28.0756   30.5611  -18.3292 C   0  0  0  0  0  0  0  0  0  0  0  0
   28.1524   31.2181  -17.1493 F   0  0  0  0  0  0  0  0  0  0  0  0
   30.6277   29.8902  -18.1161 O   0  0  0  0  0  0  0  0  0  0  0  0
   29.7432   30.5352  -19.0970 P   0  0  0  0  0  0  0  0  0  0  0  0
   29.5665   29.7154  -20.2997 O   0  0  0  0  0  0  0  0  0  0  0  0
   30.0827   31.9167  -19.3908 O   0  0  0  0  0  0  0  0  0  0  0  0
   30.4109   29.6485  -20.7723 H   0  0  0  0  0  0  0  0  0  0  0  0
   30.9613   31.9537  -19.8003 H   0  0  0  0  0  0  0  0  0  0  0  0
   27.5978   29.1806  -18.0066 C   0  0  0  0  0  0  0  0  0  0  0  0
   27.0755   28.4928  -18.8481 O   0  0  0  0  0  0  0  0  0  0  0  0
   27.8084   28.7910  -16.7680 N   0  0  0  0  0  0  0  0  0  0  0  0
   27.4107   27.5636  -16.3336 O   0  0  0  0  0  0  0  0  0  0  0  0
   28.2631   29.3997  -16.1420 H   0  0  0  0  0  0  0  0  0  0  0  0
   26.9818   27.0864  -17.0611 H   0  0  0  0  0  0  0  0  0  0  0  0
  3  4  2  0  0  0
  4  5  1  0  0  0
  4  6  1  0  0  0
  4  1  1  0  0  0
  1  2  1  0  0  0
  1  9  1  0  0  0
  9 10  2  0  0  0
  9 11  1  0  0  0
 11 12  1  0  0  0
  5  7  1  0  0  0
  6  8  1  0  0  0
 11 13  1  0  0  0
 12 14  1  0  0  0
M  END
> <minimizedAffinity>
-5.99325

$$$$
