6GJR_F0W_A_201


 28 29  0  0  0  0  0  0  0  0999 V2000
   -0.1701   17.9771   -3.9829 O   0  0  0  0  0  0  0  0  0  0  0  0
   -0.9594   17.5531   -4.8041 C   0  0  0  0  0  0  0  0  0  0  0  0
   -1.7082   16.5054   -4.5112 N   0  0  0  0  0  0  0  0  0  0  0  0
   -1.0713   18.1438   -5.9868 N   0  0  0  0  0  0  0  0  0  0  0  0
   -2.4738   16.2798   -5.0875 H   0  0  0  0  0  0  0  0  0  0  0  0
   -1.4179   15.6800   -3.3493 C   0  0  0  0  0  0  0  0  0  0  0  0
   -0.5491   14.4773   -3.6515 C   0  0  0  0  0  0  0  0  0  0  0  0
    0.5886   14.4041   -3.2714 O   0  0  0  0  0  0  0  0  0  0  0  0
   -1.1013   13.3996   -4.4336 O   0  0  0  0  0  0  0  0  0  0  0  0
   -0.9909   12.0629   -4.0210 C   0  0  0  0  0  0  0  0  0  0  0  0
    0.0792   11.4237   -4.8662 C   0  0  0  0  0  0  0  0  0  0  0  0
   -0.3043   19.3316   -6.2983 C   0  0  0  0  0  0  0  0  0  0  0  0
    0.9746   18.9534   -7.0056 C   0  0  0  0  0  0  0  0  0  0  0  0
    1.8862   19.8380   -7.4404 N   0  0  0  0  0  0  0  0  0  0  0  0
    2.8530   19.0461   -8.0306 N   0  0  0  0  0  0  0  0  0  0  0  0
    4.0655   19.6092   -8.6491 C   0  0  0  0  0  0  0  0  0  0  0  0
    2.5886   17.6966   -7.9790 N   0  0  0  0  0  0  0  0  0  0  0  0
    1.3672   17.6856   -7.3095 N   0  0  0  0  0  0  0  0  0  0  0  0
   -1.9287   17.7263   -7.0791 C   0  0  0  0  0  0  0  0  0  0  0  0
   -3.1528   18.6042   -7.1651 C   0  0  0  0  0  0  0  0  0  0  0  0
   -4.2283   18.1294   -7.8546 C   0  0  0  0  0  0  0  0  0  0  0  0
   -5.3699   18.8821   -7.9367 C   0  0  0  0  0  0  0  0  0  0  0  0
   -5.4715   20.1124   -7.3532 C   0  0  0  0  0  0  0  0  0  0  0  0
   -6.6267   20.7823   -7.4734 N   0  0  0  0  0  0  0  0  0  0  0  0
   -4.3950   20.6140   -6.6532 C   0  0  0  0  0  0  0  0  0  0  0  0
   -3.2391   19.8496   -6.5660 C   0  0  0  0  0  0  0  0  0  0  0  0
   -7.3728   20.3898   -7.9819 H   0  0  0  0  0  0  0  0  0  0  0  0
   -6.7290   21.6667   -7.0530 H   0  0  0  0  0  0  0  0  0  0  0  0
 24 23  1  0  0  0
 18 17  2  0  0  0
 18 13  1  0  0  0
 17 15  1  0  0  0
 23 22  2  0  0  0
 23 25  1  0  0  0
 22 21  1  0  0  0
 25 26  2  0  0  0
 12 13  1  0  0  0
 12  4  1  0  0  0
 13 14  2  0  0  0
 21 20  2  0  0  0
 15 14  1  0  0  0
 15 16  1  0  0  0
 26 20  1  0  0  0
 20 19  1  0  0  0
  4 19  1  0  0  0
  4  2  1  0  0  0
  1  2  2  0  0  0
  2  3  1  0  0  0
  8  7  2  0  0  0
 10 11  1  0  0  0
 10  9  1  0  0  0
  3  6  1  0  0  0
  7  9  1  0  0  0
  7  6  1  0  0  0
  3  5  1  0  0  0
 24 27  1  0  0  0
 24 28  1  0  0  0
M  END
> <minimizedAffinity>
-6.95684

$$$$
6GJR_F0W_A_201


 28 29  0  0  0  0  0  0  0  0999 V2000
    1.0072   16.6516   -6.1823 O   0  0  0  0  0  0  0  0  0  0  0  0
    0.2710   17.4659   -5.6607 C   0  0  0  0  0  0  0  0  0  0  0  0
   -0.2385   17.2173   -4.4679 N   0  0  0  0  0  0  0  0  0  0  0  0
   -0.0146   18.6012   -6.2851 N   0  0  0  0  0  0  0  0  0  0  0  0
   -0.6716   17.9439   -3.9642 H   0  0  0  0  0  0  0  0  0  0  0  0
   -0.1690   15.8853   -3.8877 C   0  0  0  0  0  0  0  0  0  0  0  0
   -1.0958   14.8816   -4.5405 C   0  0  0  0  0  0  0  0  0  0  0  0
   -2.2514   15.1311   -4.7565 O   0  0  0  0  0  0  0  0  0  0  0  0
   -0.5771   13.5842   -4.8948 O   0  0  0  0  0  0  0  0  0  0  0  0
   -0.6001   12.5129   -3.9886 C   0  0  0  0  0  0  0  0  0  0  0  0
    0.0538   11.3400   -4.6701 C   0  0  0  0  0  0  0  0  0  0  0  0
    0.5872   18.9164   -7.5636 C   0  0  0  0  0  0  0  0  0  0  0  0
    1.8759   19.6753   -7.3580 C   0  0  0  0  0  0  0  0  0  0  0  0
    3.0949   19.1131   -7.3843 N   0  0  0  0  0  0  0  0  0  0  0  0
    3.9472   20.1709   -7.1300 N   0  0  0  0  0  0  0  0  0  0  0  0
    5.4100   20.0097   -7.0700 C   0  0  0  0  0  0  0  0  0  0  0  0
    3.3126   21.3789   -6.9507 N   0  0  0  0  0  0  0  0  0  0  0  0
    1.9786   21.0094   -7.1063 N   0  0  0  0  0  0  0  0  0  0  0  0
   -0.9086   19.6409   -5.8135 C   0  0  0  0  0  0  0  0  0  0  0  0
   -2.2550   19.5356   -6.4862 C   0  0  0  0  0  0  0  0  0  0  0  0
   -2.9959   20.6732   -6.6069 C   0  0  0  0  0  0  0  0  0  0  0  0
   -4.2133   20.6288   -7.2336 C   0  0  0  0  0  0  0  0  0  0  0  0
   -4.7257   19.4700   -7.7423 C   0  0  0  0  0  0  0  0  0  0  0  0
   -5.9210   19.5126   -8.3483 N   0  0  0  0  0  0  0  0  0  0  0  0
   -3.9950   18.3064   -7.6290 C   0  0  0  0  0  0  0  0  0  0  0  0
   -2.7591   18.3517   -6.9978 C   0  0  0  0  0  0  0  0  0  0  0  0
   -6.4121   20.3638   -8.4089 H   0  0  0  0  0  0  0  0  0  0  0  0
   -6.3076   18.6928   -8.7327 H   0  0  0  0  0  0  0  0  0  0  0  0
 24 23  1  0  0  0
 18 17  2  0  0  0
 18 13  1  0  0  0
 17 15  1  0  0  0
 23 22  2  0  0  0
 23 25  1  0  0  0
 22 21  1  0  0  0
 25 26  2  0  0  0
 12 13  1  0  0  0
 12  4  1  0  0  0
 13 14  2  0  0  0
 21 20  2  0  0  0
 15 14  1  0  0  0
 15 16  1  0  0  0
 26 20  1  0  0  0
 20 19  1  0  0  0
  4 19  1  0  0  0
  4  2  1  0  0  0
  1  2  2  0  0  0
  2  3  1  0  0  0
  8  7  2  0  0  0
 10 11  1  0  0  0
 10  9  1  0  0  0
  3  6  1  0  0  0
  7  9  1  0  0  0
  7  6  1  0  0  0
  3  5  1  0  0  0
 24 27  1  0  0  0
 24 28  1  0  0  0
M  END
> <minimizedAffinity>
-6.83544

$$$$
6GJR_F0W_A_201


 28 29  0  0  0  0  0  0  0  0999 V2000
   -0.7375   18.6220   -7.5335 O   0  0  0  0  0  0  0  0  0  0  0  0
   -1.1129   18.3235   -6.4167 C   0  0  0  0  0  0  0  0  0  0  0  0
   -2.3170   18.6856   -6.0131 N   0  0  0  0  0  0  0  0  0  0  0  0
   -0.3181   17.6325   -5.6098 N   0  0  0  0  0  0  0  0  0  0  0  0
   -2.6952   18.2870   -5.1961 H   0  0  0  0  0  0  0  0  0  0  0  0
   -3.0927   19.6648   -6.7582 C   0  0  0  0  0  0  0  0  0  0  0  0
   -4.1369   19.0564   -7.6703 C   0  0  0  0  0  0  0  0  0  0  0  0
   -4.2966   17.8679   -7.7488 O   0  0  0  0  0  0  0  0  0  0  0  0
   -4.9481   19.9312   -8.4793 O   0  0  0  0  0  0  0  0  0  0  0  0
   -6.3188   19.6954   -8.6663 C   0  0  0  0  0  0  0  0  0  0  0  0
   -6.5000   19.2291  -10.0867 C   0  0  0  0  0  0  0  0  0  0  0  0
    0.9787   17.1730   -6.0608 C   0  0  0  0  0  0  0  0  0  0  0  0
    2.0740   17.8834   -5.3028 C   0  0  0  0  0  0  0  0  0  0  0  0
    3.0345   17.2587   -4.6030 N   0  0  0  0  0  0  0  0  0  0  0  0
    3.7801   18.2959   -4.0754 N   0  0  0  0  0  0  0  0  0  0  0  0
    4.9616   18.0669   -3.2262 C   0  0  0  0  0  0  0  0  0  0  0  0
    3.3301   19.5497   -4.4210 N   0  0  0  0  0  0  0  0  0  0  0  0
    2.2283   19.2331   -5.2123 N   0  0  0  0  0  0  0  0  0  0  0  0
   -0.6064   17.2465   -4.2422 C   0  0  0  0  0  0  0  0  0  0  0  0
   -0.6528   15.7444   -4.1079 C   0  0  0  0  0  0  0  0  0  0  0  0
   -1.3662   15.0450   -5.0350 C   0  0  0  0  0  0  0  0  0  0  0  0
   -1.4145   13.6777   -4.9664 C   0  0  0  0  0  0  0  0  0  0  0  0
   -0.7733   12.9773   -3.9853 C   0  0  0  0  0  0  0  0  0  0  0  0
   -0.8635   11.6395   -3.9932 N   0  0  0  0  0  0  0  0  0  0  0  0
   -0.0480   13.6641   -3.0350 C   0  0  0  0  0  0  0  0  0  0  0  0
    0.0049   15.0497   -3.1067 C   0  0  0  0  0  0  0  0  0  0  0  0
   -1.3916   11.1859   -4.6893 H   0  0  0  0  0  0  0  0  0  0  0  0
   -0.4017   11.1109   -3.3029 H   0  0  0  0  0  0  0  0  0  0  0  0
 24 23  1  0  0  0
 18 17  2  0  0  0
 18 13  1  0  0  0
 17 15  1  0  0  0
 23 22  2  0  0  0
 23 25  1  0  0  0
 22 21  1  0  0  0
 25 26  2  0  0  0
 12 13  1  0  0  0
 12  4  1  0  0  0
 13 14  2  0  0  0
 21 20  2  0  0  0
 15 14  1  0  0  0
 15 16  1  0  0  0
 26 20  1  0  0  0
 20 19  1  0  0  0
  4 19  1  0  0  0
  4  2  1  0  0  0
  1  2  2  0  0  0
  2  3  1  0  0  0
  8  7  2  0  0  0
 10 11  1  0  0  0
 10  9  1  0  0  0
  3  6  1  0  0  0
  7  9  1  0  0  0
  7  6  1  0  0  0
  3  5  1  0  0  0
 24 27  1  0  0  0
 24 28  1  0  0  0
M  END
> <minimizedAffinity>
-6.68760

$$$$
6GJR_F0W_A_201


 28 29  0  0  0  0  0  0  0  0999 V2000
   -1.9778   16.3119   -6.0314 O   0  0  0  0  0  0  0  0  0  0  0  0
   -1.3886   17.1395   -5.3642 C   0  0  0  0  0  0  0  0  0  0  0  0
   -0.9737   16.8258   -4.1503 N   0  0  0  0  0  0  0  0  0  0  0  0
   -1.1592   18.3502   -5.8560 N   0  0  0  0  0  0  0  0  0  0  0  0
   -0.3368   17.4169   -3.6874 H   0  0  0  0  0  0  0  0  0  0  0  0
   -1.4440   15.6195   -3.4876 C   0  0  0  0  0  0  0  0  0  0  0  0
   -0.5063   14.4384   -3.6233 C   0  0  0  0  0  0  0  0  0  0  0  0
    0.6211   14.4717   -3.2087 O   0  0  0  0  0  0  0  0  0  0  0  0
   -0.9784   13.2485   -4.2860 O   0  0  0  0  0  0  0  0  0  0  0  0
   -0.7763   11.9735   -3.7356 C   0  0  0  0  0  0  0  0  0  0  0  0
    0.0609   11.1940   -4.7150 C   0  0  0  0  0  0  0  0  0  0  0  0
   -1.5506   18.6880   -7.2083 C   0  0  0  0  0  0  0  0  0  0  0  0
   -3.0286   18.9909   -7.2609 C   0  0  0  0  0  0  0  0  0  0  0  0
   -3.9140   18.3023   -7.9988 N   0  0  0  0  0  0  0  0  0  0  0  0
   -5.1133   18.9425   -7.7501 N   0  0  0  0  0  0  0  0  0  0  0  0
   -6.3814   18.5093   -8.3617 C   0  0  0  0  0  0  0  0  0  0  0  0
   -5.0186   20.0039   -6.8793 N   0  0  0  0  0  0  0  0  0  0  0  0
   -3.6559   19.9967   -6.5912 N   0  0  0  0  0  0  0  0  0  0  0  0
   -0.5154   19.4510   -5.1659 C   0  0  0  0  0  0  0  0  0  0  0  0
    0.5173   20.1066   -6.0493 C   0  0  0  0  0  0  0  0  0  0  0  0
    0.5295   21.4681   -6.1104 C   0  0  0  0  0  0  0  0  0  0  0  0
    1.4662   22.1061   -6.8798 C   0  0  0  0  0  0  0  0  0  0  0  0
    2.3973   21.4209   -7.6063 C   0  0  0  0  0  0  0  0  0  0  0  0
    3.2849   22.1205   -8.3279 N   0  0  0  0  0  0  0  0  0  0  0  0
    2.4020   20.0430   -7.5620 C   0  0  0  0  0  0  0  0  0  0  0  0
    1.4556   19.3960   -6.7788 C   0  0  0  0  0  0  0  0  0  0  0  0
    3.2485   23.1043   -8.3336 H   0  0  0  0  0  0  0  0  0  0  0  0
    3.9731   21.6503   -8.8520 H   0  0  0  0  0  0  0  0  0  0  0  0
 24 23  1  0  0  0
 18 17  2  0  0  0
 18 13  1  0  0  0
 17 15  1  0  0  0
 23 22  2  0  0  0
 23 25  1  0  0  0
 22 21  1  0  0  0
 25 26  2  0  0  0
 12 13  1  0  0  0
 12  4  1  0  0  0
 13 14  2  0  0  0
 21 20  2  0  0  0
 15 14  1  0  0  0
 15 16  1  0  0  0
 26 20  1  0  0  0
 20 19  1  0  0  0
  4 19  1  0  0  0
  4  2  1  0  0  0
  1  2  2  0  0  0
  2  3  1  0  0  0
  8  7  2  0  0  0
 10 11  1  0  0  0
 10  9  1  0  0  0
  3  6  1  0  0  0
  7  9  1  0  0  0
  7  6  1  0  0  0
  3  5  1  0  0  0
 24 27  1  0  0  0
 24 28  1  0  0  0
M  END
> <minimizedAffinity>
-6.68205

$$$$
6GJR_F0W_A_201


 28 29  0  0  0  0  0  0  0  0999 V2000
   -1.8005   19.5007   -5.0750 O   0  0  0  0  0  0  0  0  0  0  0  0
   -1.3303   19.3851   -6.1898 C   0  0  0  0  0  0  0  0  0  0  0  0
   -2.0110   19.8192   -7.2349 N   0  0  0  0  0  0  0  0  0  0  0  0
   -0.1364   18.8302   -6.3544 N   0  0  0  0  0  0  0  0  0  0  0  0
   -1.5606   19.9042   -8.1062 H   0  0  0  0  0  0  0  0  0  0  0  0
   -3.4168   20.1735   -7.1172 C   0  0  0  0  0  0  0  0  0  0  0  0
   -4.3655   19.0760   -7.5509 C   0  0  0  0  0  0  0  0  0  0  0  0
   -4.0352   17.9207   -7.5671 O   0  0  0  0  0  0  0  0  0  0  0  0
   -5.6965   19.4342   -7.9731 O   0  0  0  0  0  0  0  0  0  0  0  0
   -6.4605   18.5850   -8.7882 C   0  0  0  0  0  0  0  0  0  0  0  0
   -6.5774   19.2483  -10.1351 C   0  0  0  0  0  0  0  0  0  0  0  0
    0.6494   18.4087   -5.2138 C   0  0  0  0  0  0  0  0  0  0  0  0
    0.2382   17.0212   -4.7840 C   0  0  0  0  0  0  0  0  0  0  0  0
    0.1421   16.6252   -3.5048 N   0  0  0  0  0  0  0  0  0  0  0  0
   -0.2369   15.2997   -3.6016 N   0  0  0  0  0  0  0  0  0  0  0  0
   -0.4670   14.4555   -2.4167 C   0  0  0  0  0  0  0  0  0  0  0  0
   -0.3893   14.8472   -4.8923 N   0  0  0  0  0  0  0  0  0  0  0  0
   -0.0719   15.9919   -5.6196 N   0  0  0  0  0  0  0  0  0  0  0  0
    0.5299   18.5823   -7.6181 C   0  0  0  0  0  0  0  0  0  0  0  0
    1.8448   19.3195   -7.6842 C   0  0  0  0  0  0  0  0  0  0  0  0
    2.9577   18.6058   -8.0156 C   0  0  0  0  0  0  0  0  0  0  0  0
    4.1683   19.2395   -8.1124 C   0  0  0  0  0  0  0  0  0  0  0  0
    4.3079   20.5773   -7.8777 C   0  0  0  0  0  0  0  0  0  0  0  0
    5.5263   21.1232   -8.0013 N   0  0  0  0  0  0  0  0  0  0  0  0
    3.1962   21.3187   -7.5382 C   0  0  0  0  0  0  0  0  0  0  0  0
    1.9681   20.6777   -7.4443 C   0  0  0  0  0  0  0  0  0  0  0  0
    6.2957   20.5597   -8.2455 H   0  0  0  0  0  0  0  0  0  0  0  0
    5.6515   22.0876   -7.8478 H   0  0  0  0  0  0  0  0  0  0  0  0
 24 23  1  0  0  0
 18 17  2  0  0  0
 18 13  1  0  0  0
 17 15  1  0  0  0
 23 22  2  0  0  0
 23 25  1  0  0  0
 22 21  1  0  0  0
 25 26  2  0  0  0
 12 13  1  0  0  0
 12  4  1  0  0  0
 13 14  2  0  0  0
 21 20  2  0  0  0
 15 14  1  0  0  0
 15 16  1  0  0  0
 26 20  1  0  0  0
 20 19  1  0  0  0
  4 19  1  0  0  0
  4  2  1  0  0  0
  1  2  2  0  0  0
  2  3  1  0  0  0
  8  7  2  0  0  0
 10 11  1  0  0  0
 10  9  1  0  0  0
  3  6  1  0  0  0
  7  9  1  0  0  0
  7  6  1  0  0  0
  3  5  1  0  0  0
 24 27  1  0  0  0
 24 28  1  0  0  0
M  END
> <minimizedAffinity>
-6.58937

$$$$
6GJR_F0W_A_201


 28 29  0  0  0  0  0  0  0  0999 V2000
   -1.3366   15.9965   -6.1235 O   0  0  0  0  0  0  0  0  0  0  0  0
   -1.3001   16.8596   -5.2685 C   0  0  0  0  0  0  0  0  0  0  0  0
   -1.2161   16.5163   -3.9960 N   0  0  0  0  0  0  0  0  0  0  0  0
   -1.3392   18.1401   -5.6132 N   0  0  0  0  0  0  0  0  0  0  0  0
   -0.9939   17.1995   -3.3228 H   0  0  0  0  0  0  0  0  0  0  0  0
   -1.4471   15.1434   -3.5749 C   0  0  0  0  0  0  0  0  0  0  0  0
   -0.1858   14.3967   -3.1952 C   0  0  0  0  0  0  0  0  0  0  0  0
    0.8992   14.9094   -3.2586 O   0  0  0  0  0  0  0  0  0  0  0  0
   -0.2930   13.0256   -2.7630 O   0  0  0  0  0  0  0  0  0  0  0  0
   -0.9695   12.0655   -3.5311 C   0  0  0  0  0  0  0  0  0  0  0  0
    0.0286   11.4868   -4.4990 C   0  0  0  0  0  0  0  0  0  0  0  0
   -1.3660   18.5328   -7.0065 C   0  0  0  0  0  0  0  0  0  0  0  0
   -2.7580   18.9675   -7.3969 C   0  0  0  0  0  0  0  0  0  0  0  0
   -3.7944   18.1284   -7.5527 N   0  0  0  0  0  0  0  0  0  0  0  0
   -4.8335   18.9597   -7.9259 N   0  0  0  0  0  0  0  0  0  0  0  0
   -6.1893   18.4543   -8.2015 C   0  0  0  0  0  0  0  0  0  0  0  0
   -4.4932   20.2908   -8.0051 N   0  0  0  0  0  0  0  0  0  0  0  0
   -3.1455   20.2468   -7.6560 N   0  0  0  0  0  0  0  0  0  0  0  0
   -1.3518   19.2741   -4.7097 C   0  0  0  0  0  0  0  0  0  0  0  0
   -0.1169   20.1209   -4.8953 C   0  0  0  0  0  0  0  0  0  0  0  0
   -0.2855   21.4092   -5.3071 C   0  0  0  0  0  0  0  0  0  0  0  0
    0.8063   22.2215   -5.4641 C   0  0  0  0  0  0  0  0  0  0  0  0
    2.0775   21.7822   -5.2289 C   0  0  0  0  0  0  0  0  0  0  0  0
    3.0917   22.6427   -5.3982 N   0  0  0  0  0  0  0  0  0  0  0  0
    2.2722   20.4819   -4.8143 C   0  0  0  0  0  0  0  0  0  0  0  0
    1.1656   19.6593   -4.6509 C   0  0  0  0  0  0  0  0  0  0  0  0
    2.9114   23.5637   -5.6958 H   0  0  0  0  0  0  0  0  0  0  0  0
    4.0167   22.3536   -5.2250 H   0  0  0  0  0  0  0  0  0  0  0  0
 24 23  1  0  0  0
 18 17  2  0  0  0
 18 13  1  0  0  0
 17 15  1  0  0  0
 23 22  2  0  0  0
 23 25  1  0  0  0
 22 21  1  0  0  0
 25 26  2  0  0  0
 12 13  1  0  0  0
 12  4  1  0  0  0
 13 14  2  0  0  0
 21 20  2  0  0  0
 15 14  1  0  0  0
 15 16  1  0  0  0
 26 20  1  0  0  0
 20 19  1  0  0  0
  4 19  1  0  0  0
  4  2  1  0  0  0
  1  2  2  0  0  0
  2  3  1  0  0  0
  8  7  2  0  0  0
 10 11  1  0  0  0
 10  9  1  0  0  0
  3  6  1  0  0  0
  7  9  1  0  0  0
  7  6  1  0  0  0
  3  5  1  0  0  0
 24 27  1  0  0  0
 24 28  1  0  0  0
M  END
> <minimizedAffinity>
-6.55725

$$$$
6GJR_F0W_A_201


 28 29  0  0  0  0  0  0  0  0999 V2000
   -0.9189   18.4354   -3.4505 O   0  0  0  0  0  0  0  0  0  0  0  0
   -1.0168   18.4694   -4.6615 C   0  0  0  0  0  0  0  0  0  0  0  0
   -0.7597   17.3844   -5.3691 N   0  0  0  0  0  0  0  0  0  0  0  0
   -1.3855   19.5902   -5.2683 N   0  0  0  0  0  0  0  0  0  0  0  0
   -1.0206   17.3506   -6.3178 H   0  0  0  0  0  0  0  0  0  0  0  0
   -0.0966   16.2384   -4.7668 C   0  0  0  0  0  0  0  0  0  0  0  0
   -0.9516   14.9898   -4.7173 C   0  0  0  0  0  0  0  0  0  0  0  0
   -2.1512   15.0390   -4.7702 O   0  0  0  0  0  0  0  0  0  0  0  0
   -0.3042   13.7087   -4.5846 O   0  0  0  0  0  0  0  0  0  0  0  0
   -1.0347   12.5109   -4.6199 C   0  0  0  0  0  0  0  0  0  0  0  0
   -0.0494   11.3842   -4.4538 C   0  0  0  0  0  0  0  0  0  0  0  0
   -1.7331   20.7686   -4.5024 C   0  0  0  0  0  0  0  0  0  0  0  0
   -0.6184   21.7839   -4.5769 C   0  0  0  0  0  0  0  0  0  0  0  0
   -0.7036   22.9507   -5.2358 N   0  0  0  0  0  0  0  0  0  0  0  0
    0.5400   23.5233   -5.0465 N   0  0  0  0  0  0  0  0  0  0  0  0
    0.8964   24.8395   -5.6035 C   0  0  0  0  0  0  0  0  0  0  0  0
    1.4030   22.7651   -4.2888 N   0  0  0  0  0  0  0  0  0  0  0  0
    0.6122   21.6531   -4.0093 N   0  0  0  0  0  0  0  0  0  0  0  0
   -1.4995   19.7962   -6.6990 C   0  0  0  0  0  0  0  0  0  0  0  0
   -2.9418   19.7294   -7.1368 C   0  0  0  0  0  0  0  0  0  0  0  0
   -3.4500   18.5086   -7.4669 C   0  0  0  0  0  0  0  0  0  0  0  0
   -4.7619   18.3976   -7.8454 C   0  0  0  0  0  0  0  0  0  0  0  0
   -5.5912   19.4801   -7.9146 C   0  0  0  0  0  0  0  0  0  0  0  0
   -6.8647   19.2856   -8.2864 N   0  0  0  0  0  0  0  0  0  0  0  0
   -5.0980   20.7253   -7.5881 C   0  0  0  0  0  0  0  0  0  0  0  0
   -3.7695   20.8377   -7.2002 C   0  0  0  0  0  0  0  0  0  0  0  0
   -7.1789   18.3802   -8.5118 H   0  0  0  0  0  0  0  0  0  0  0  0
   -7.4856   20.0482   -8.3339 H   0  0  0  0  0  0  0  0  0  0  0  0
 24 23  1  0  0  0
 18 17  2  0  0  0
 18 13  1  0  0  0
 17 15  1  0  0  0
 23 22  2  0  0  0
 23 25  1  0  0  0
 22 21  1  0  0  0
 25 26  2  0  0  0
 12 13  1  0  0  0
 12  4  1  0  0  0
 13 14  2  0  0  0
 21 20  2  0  0  0
 15 14  1  0  0  0
 15 16  1  0  0  0
 26 20  1  0  0  0
 20 19  1  0  0  0
  4 19  1  0  0  0
  4  2  1  0  0  0
  1  2  2  0  0  0
  2  3  1  0  0  0
  8  7  2  0  0  0
 10 11  1  0  0  0
 10  9  1  0  0  0
  3  6  1  0  0  0
  7  9  1  0  0  0
  7  6  1  0  0  0
  3  5  1  0  0  0
 24 27  1  0  0  0
 24 28  1  0  0  0
M  END
> <minimizedAffinity>
-6.26263

$$$$
6GJR_F0W_A_201


 28 29  0  0  0  0  0  0  0  0999 V2000
   -0.8337   19.6335   -5.7380 O   0  0  0  0  0  0  0  0  0  0  0  0
   -1.2670   18.5045   -5.8602 C   0  0  0  0  0  0  0  0  0  0  0  0
   -2.4444   18.3138   -6.4271 N   0  0  0  0  0  0  0  0  0  0  0  0
   -0.5573   17.4691   -5.4306 N   0  0  0  0  0  0  0  0  0  0  0  0
   -2.7099   17.4060   -6.7004 H   0  0  0  0  0  0  0  0  0  0  0  0
   -3.3545   19.4256   -6.6534 C   0  0  0  0  0  0  0  0  0  0  0  0
   -4.6171   19.0445   -7.3972 C   0  0  0  0  0  0  0  0  0  0  0  0
   -4.6948   18.0314   -8.0390 O   0  0  0  0  0  0  0  0  0  0  0  0
   -5.7497   19.9346   -7.3460 O   0  0  0  0  0  0  0  0  0  0  0  0
   -6.4158   20.3415   -8.5122 C   0  0  0  0  0  0  0  0  0  0  0  0
   -5.7601   21.6149   -8.9774 C   0  0  0  0  0  0  0  0  0  0  0  0
    0.7626   17.6573   -4.8661 C   0  0  0  0  0  0  0  0  0  0  0  0
    1.7621   17.9333   -5.9632 C   0  0  0  0  0  0  0  0  0  0  0  0
    2.8195   18.7501   -5.8323 N   0  0  0  0  0  0  0  0  0  0  0  0
    3.4204   18.7072   -7.0762 N   0  0  0  0  0  0  0  0  0  0  0  0
    4.6430   19.4667   -7.3893 C   0  0  0  0  0  0  0  0  0  0  0  0
    2.7858   17.8900   -7.9837 N   0  0  0  0  0  0  0  0  0  0  0  0
    1.7223   17.4133   -7.2209 N   0  0  0  0  0  0  0  0  0  0  0  0
   -0.9607   16.0767   -5.4639 C   0  0  0  0  0  0  0  0  0  0  0  0
   -0.9885   15.4934   -4.0727 C   0  0  0  0  0  0  0  0  0  0  0  0
   -0.5742   14.2045   -3.9155 C   0  0  0  0  0  0  0  0  0  0  0  0
   -0.5586   13.6426   -2.6662 C   0  0  0  0  0  0  0  0  0  0  0  0
   -0.9563   14.3308   -1.5560 C   0  0  0  0  0  0  0  0  0  0  0  0
   -0.9034   13.7112   -0.3681 N   0  0  0  0  0  0  0  0  0  0  0  0
   -1.3820   15.6350   -1.6916 C   0  0  0  0  0  0  0  0  0  0  0  0
   -1.3938   16.2064   -2.9570 C   0  0  0  0  0  0  0  0  0  0  0  0
   -0.5933   12.7784   -0.3128 H   0  0  0  0  0  0  0  0  0  0  0  0
   -1.1745   14.1890    0.4488 H   0  0  0  0  0  0  0  0  0  0  0  0
 24 23  1  0  0  0
 18 17  2  0  0  0
 18 13  1  0  0  0
 17 15  1  0  0  0
 23 22  2  0  0  0
 23 25  1  0  0  0
 22 21  1  0  0  0
 25 26  2  0  0  0
 12 13  1  0  0  0
 12  4  1  0  0  0
 13 14  2  0  0  0
 21 20  2  0  0  0
 15 14  1  0  0  0
 15 16  1  0  0  0
 26 20  1  0  0  0
 20 19  1  0  0  0
  4 19  1  0  0  0
  4  2  1  0  0  0
  1  2  2  0  0  0
  2  3  1  0  0  0
  8  7  2  0  0  0
 10 11  1  0  0  0
 10  9  1  0  0  0
  3  6  1  0  0  0
  7  9  1  0  0  0
  7  6  1  0  0  0
  3  5  1  0  0  0
 24 27  1  0  0  0
 24 28  1  0  0  0
M  END
> <minimizedAffinity>
-6.19203

$$$$
6GJR_F0W_A_201


 28 29  0  0  0  0  0  0  0  0999 V2000
    1.4311   17.7616   -3.2256 O   0  0  0  0  0  0  0  0  0  0  0  0
    0.4887   17.0327   -2.9850 C   0  0  0  0  0  0  0  0  0  0  0  0
    0.2186   16.7042   -1.7347 N   0  0  0  0  0  0  0  0  0  0  0  0
   -0.2675   16.5741   -3.9740 N   0  0  0  0  0  0  0  0  0  0  0  0
   -0.6435   16.2800   -1.5200 H   0  0  0  0  0  0  0  0  0  0  0  0
    1.1764   16.9603   -0.6705 C   0  0  0  0  0  0  0  0  0  0  0  0
    1.8632   15.7156   -0.1494 C   0  0  0  0  0  0  0  0  0  0  0  0
    1.3070   14.9432    0.5843 O   0  0  0  0  0  0  0  0  0  0  0  0
    3.2298   15.4635   -0.5327 O   0  0  0  0  0  0  0  0  0  0  0  0
    3.5459   14.8137   -1.7357 C   0  0  0  0  0  0  0  0  0  0  0  0
    4.1863   13.4990   -1.3759 C   0  0  0  0  0  0  0  0  0  0  0  0
   -0.0232   16.9771   -5.3429 C   0  0  0  0  0  0  0  0  0  0  0  0
   -1.1544   17.8452   -5.8385 C   0  0  0  0  0  0  0  0  0  0  0  0
   -2.1300   17.4188   -6.6564 N   0  0  0  0  0  0  0  0  0  0  0  0
   -2.9084   18.5444   -6.8497 N   0  0  0  0  0  0  0  0  0  0  0  0
   -4.1156   18.5343   -7.6935 C   0  0  0  0  0  0  0  0  0  0  0  0
   -2.4642   19.6618   -6.1803 N   0  0  0  0  0  0  0  0  0  0  0  0
   -1.3310   19.1625   -5.5426 N   0  0  0  0  0  0  0  0  0  0  0  0
   -1.3892   15.6639   -3.8480 C   0  0  0  0  0  0  0  0  0  0  0  0
   -0.9344   14.2314   -3.9808 C   0  0  0  0  0  0  0  0  0  0  0  0
   -0.9940   13.6574   -5.2156 C   0  0  0  0  0  0  0  0  0  0  0  0
   -0.5673   12.3670   -5.3871 C   0  0  0  0  0  0  0  0  0  0  0  0
   -0.0853   11.6184   -4.3519 C   0  0  0  0  0  0  0  0  0  0  0  0
    0.3198   10.3655   -4.6049 N   0  0  0  0  0  0  0  0  0  0  0  0
   -0.0187   12.1775   -3.0935 C   0  0  0  0  0  0  0  0  0  0  0  0
   -0.4469   13.4868   -2.9200 C   0  0  0  0  0  0  0  0  0  0  0  0
    0.2560   10.0023   -5.5177 H   0  0  0  0  0  0  0  0  0  0  0  0
    0.6811    9.8088   -3.8777 H   0  0  0  0  0  0  0  0  0  0  0  0
 24 23  1  0  0  0
 18 17  2  0  0  0
 18 13  1  0  0  0
 17 15  1  0  0  0
 23 22  2  0  0  0
 23 25  1  0  0  0
 22 21  1  0  0  0
 25 26  2  0  0  0
 12 13  1  0  0  0
 12  4  1  0  0  0
 13 14  2  0  0  0
 21 20  2  0  0  0
 15 14  1  0  0  0
 15 16  1  0  0  0
 26 20  1  0  0  0
 20 19  1  0  0  0
  4 19  1  0  0  0
  4  2  1  0  0  0
  1  2  2  0  0  0
  2  3  1  0  0  0
  8  7  2  0  0  0
 10 11  1  0  0  0
 10  9  1  0  0  0
  3  6  1  0  0  0
  7  9  1  0  0  0
  7  6  1  0  0  0
  3  5  1  0  0  0
 24 27  1  0  0  0
 24 28  1  0  0  0
M  END
> <minimizedAffinity>
-5.98391

$$$$
6GJR_F0W_A_201


 28 29  0  0  0  0  0  0  0  0999 V2000
   -0.9188   17.8126   -3.4771 O   0  0  0  0  0  0  0  0  0  0  0  0
   -0.2222   17.2613   -4.3066 C   0  0  0  0  0  0  0  0  0  0  0  0
    0.2287   16.0418   -4.0755 N   0  0  0  0  0  0  0  0  0  0  0  0
    0.0788   17.8806   -5.4407 N   0  0  0  0  0  0  0  0  0  0  0  0
    0.6248   15.5231   -4.8126 H   0  0  0  0  0  0  0  0  0  0  0  0
    0.1486   15.4538   -2.7475 C   0  0  0  0  0  0  0  0  0  0  0  0
    0.5535   13.9957   -2.6956 C   0  0  0  0  0  0  0  0  0  0  0  0
    1.6934   13.6591   -2.5182 O   0  0  0  0  0  0  0  0  0  0  0  0
   -0.4582   12.9862   -2.8831 O   0  0  0  0  0  0  0  0  0  0  0  0
   -0.8235   12.5431   -4.1635 C   0  0  0  0  0  0  0  0  0  0  0  0
   -0.1136   11.2364   -4.4012 C   0  0  0  0  0  0  0  0  0  0  0  0
   -0.4609   19.1911   -5.7362 C   0  0  0  0  0  0  0  0  0  0  0  0
   -1.8024   19.0592   -6.4159 C   0  0  0  0  0  0  0  0  0  0  0  0
   -2.8164   19.9249   -6.2580 N   0  0  0  0  0  0  0  0  0  0  0  0
   -3.8237   19.3931   -7.0407 N   0  0  0  0  0  0  0  0  0  0  0  0
   -5.1441   20.0329   -7.1705 C   0  0  0  0  0  0  0  0  0  0  0  0
   -3.4813   18.2292   -7.6904 N   0  0  0  0  0  0  0  0  0  0  0  0
   -2.1695   18.0531   -7.2566 N   0  0  0  0  0  0  0  0  0  0  0  0
    0.9322   17.3731   -6.4974 C   0  0  0  0  0  0  0  0  0  0  0  0
    2.1720   18.2214   -6.6388 C   0  0  0  0  0  0  0  0  0  0  0  0
    3.0392   18.2597   -5.5881 C   0  0  0  0  0  0  0  0  0  0  0  0
    4.1902   18.9966   -5.6825 C   0  0  0  0  0  0  0  0  0  0  0  0
    4.5035   19.7126   -6.8021 C   0  0  0  0  0  0  0  0  0  0  0  0
    5.6536   20.4017   -6.8178 N   0  0  0  0  0  0  0  0  0  0  0  0
    3.6396   19.6909   -7.8762 C   0  0  0  0  0  0  0  0  0  0  0  0
    2.4750   18.9406   -7.7826 C   0  0  0  0  0  0  0  0  0  0  0  0
    6.2441   20.3920   -6.0301 H   0  0  0  0  0  0  0  0  0  0  0  0
    5.9076   20.9175   -7.6170 H   0  0  0  0  0  0  0  0  0  0  0  0
 24 23  1  0  0  0
 18 17  2  0  0  0
 18 13  1  0  0  0
 17 15  1  0  0  0
 23 22  2  0  0  0
 23 25  1  0  0  0
 22 21  1  0  0  0
 25 26  2  0  0  0
 12 13  1  0  0  0
 12  4  1  0  0  0
 13 14  2  0  0  0
 21 20  2  0  0  0
 15 14  1  0  0  0
 15 16  1  0  0  0
 26 20  1  0  0  0
 20 19  1  0  0  0
  4 19  1  0  0  0
  4  2  1  0  0  0
  1  2  2  0  0  0
  2  3  1  0  0  0
  8  7  2  0  0  0
 10 11  1  0  0  0
 10  9  1  0  0  0
  3  6  1  0  0  0
  7  9  1  0  0  0
  7  6  1  0  0  0
  3  5  1  0  0  0
 24 27  1  0  0  0
 24 28  1  0  0  0
M  END
> <minimizedAffinity>
-5.88180

$$$$
