1NFU_RRP_A_301


 33 36  0  0  0  0  0  0  0  0999 V2000
    5.9234    5.4933   19.9728 N   0  0  0  0  0  0  0  0  0  0  0  0
    4.9713    5.8026   20.9350 C   0  0  0  0  0  0  0  0  0  0  0  0
    3.8457    5.3083   20.9714 O   0  0  0  0  0  0  0  0  0  0  0  0
    5.3945    6.8244   21.9993 C   0  0  0  0  0  0  0  0  0  0  0  0
    6.3870    7.8278   21.5308 N   0  0  0  0  0  0  0  0  0  0  0  0
    7.6003    7.1011   21.0640 C   0  0  0  0  0  0  0  0  0  0  0  0
    7.2863    6.1029   19.9370 C   0  0  0  0  0  0  0  0  0  0  0  0
    6.6512    9.0574   22.5898 S   0  0  0  0  0  0  0  0  0  0  0  0
    6.9191   10.1954   21.7673 O   0  0  0  0  0  0  0  0  0  0  0  0
    5.4855    9.1674   23.4500 O   0  0  0  0  0  0  0  0  0  0  0  0
    8.0358    8.6794   23.5256 C   0  0  0  0  0  0  0  0  0  0  0  0
    7.9034    7.9382   24.7385 C   0  0  0  0  0  0  0  0  0  0  0  0
    9.2226    7.7494   25.3124 C   0  0  0  0  0  0  0  0  0  0  0  0
   10.2195    8.3509   24.5074 C   0  0  0  0  0  0  0  0  0  0  0  0
    9.6469    9.1144   23.1263 S   0  0  0  0  0  0  0  0  0  0  0  0
   11.5946    8.2343   24.9607 C   0  0  0  0  0  0  0  0  0  0  0  0
   11.8867    7.5415   26.1498 C   0  0  0  0  0  0  0  0  0  0  0  0
   13.5372    7.4243   26.6250 Cl  0  0  0  0  0  0  0  0  0  0  0  0
   10.8572    6.9505   26.9390 C   0  0  0  0  0  0  0  0  0  0  0  0
    9.5073    7.0652   26.4990 C   0  0  0  0  0  0  0  0  0  0  0  0
    5.6171    4.5174   18.9025 C   0  0  0  0  0  0  0  0  0  0  0  0
    8.2649    1.8175   18.1154 C   0  0  0  0  0  0  0  0  0  0  0  0
    7.4729    2.9994   18.0452 C   0  0  0  0  0  0  0  0  0  0  0  0
    6.4453    3.2507   18.9946 C   0  0  0  0  0  0  0  0  0  0  0  0
    6.2134    2.3058   20.0202 C   0  0  0  0  0  0  0  0  0  0  0  0
    6.9895    1.1378   20.0981 C   0  0  0  0  0  0  0  0  0  0  0  0
    8.0102    0.8870   19.1578 C   0  0  0  0  0  0  0  0  0  0  0  0
    9.2057    1.9560   15.8466 N   0  0  0  0  0  0  0  0  0  0  0  0
    9.3297    1.5627   17.1186 C   0  0  0  0  0  0  0  0  0  0  0  0
   10.4563    0.9251   17.5031 N   0  0  0  0  0  0  0  0  0  0  0  0
    9.9279    1.7747   15.2026 H   0  0  0  0  0  0  0  0  0  0  0  0
   11.1708    0.7504   16.8487 H   0  0  0  0  0  0  0  0  0  0  0  0
   10.5632    0.6350   18.4378 H   0  0  0  0  0  0  0  0  0  0  0  0
 28 29  2  0  0  0
 29 30  1  0  0  0
 29 22  1  0  0  0
 22 23  2  0  0  0
 22 27  1  0  0  0
 23 24  1  0  0  0
 24 25  2  0  0  0
 24 21  1  0  0  0
 25 26  1  0  0  0
 26 27  2  0  0  0
 21  1  1  0  0  0
  1  2  1  0  0  0
  1  7  1  0  0  0
  2  3  2  0  0  0
  2  4  1  0  0  0
  4  5  1  0  0  0
  5  6  1  0  0  0
  5  8  1  0  0  0
  6  7  1  0  0  0
  8  9  2  0  0  0
  8 10  2  0  0  0
  8 11  1  0  0  0
 11 12  2  0  0  0
 11 15  1  0  0  0
 12 13  1  0  0  0
 13 14  2  0  0  0
 13 20  1  0  0  0
 14 15  1  0  0  0
 14 16  1  0  0  0
 16 17  2  0  0  0
 17 18  1  0  0  0
 17 19  1  0  0  0
 19 20  2  0  0  0
 28 31  1  0  0  0
 30 32  1  0  0  0
 30 33  1  0  0  0
M  END
> <minimizedAffinity>
-10.78557

$$$$
1NFU_RRP_A_301


 33 36  0  0  0  0  0  0  0  0999 V2000
    6.8186    8.0447   22.1882 N   0  0  0  0  0  0  0  0  0  0  0  0
    7.3087    7.8223   20.9083 C   0  0  0  0  0  0  0  0  0  0  0  0
    8.1588    8.5267   20.3662 O   0  0  0  0  0  0  0  0  0  0  0  0
    6.7291    6.6111   20.1646 C   0  0  0  0  0  0  0  0  0  0  0  0
    5.3299    6.2711   20.5360 N   0  0  0  0  0  0  0  0  0  0  0  0
    5.2900    5.9916   21.9983 C   0  0  0  0  0  0  0  0  0  0  0  0
    5.7836    7.1841   22.8349 C   0  0  0  0  0  0  0  0  0  0  0  0
    4.6348    5.1363   19.5703 S   0  0  0  0  0  0  0  0  0  0  0  0
    3.6926    4.4686   20.4129 O   0  0  0  0  0  0  0  0  0  0  0  0
    4.0711    5.8140   18.4153 O   0  0  0  0  0  0  0  0  0  0  0  0
    5.8471    4.0344   19.0688 C   0  0  0  0  0  0  0  0  0  0  0  0
    6.3288    4.0581   17.7252 C   0  0  0  0  0  0  0  0  0  0  0  0
    7.3518    3.0391   17.5818 C   0  0  0  0  0  0  0  0  0  0  0  0
    7.5527    2.3438   18.7983 C   0  0  0  0  0  0  0  0  0  0  0  0
    6.5847    2.8535   20.0716 S   0  0  0  0  0  0  0  0  0  0  0  0
    8.5572    1.2945   18.8019 C   0  0  0  0  0  0  0  0  0  0  0  0
    9.2839    1.0127   17.6308 C   0  0  0  0  0  0  0  0  0  0  0  0
   10.4717   -0.2313   17.7037 Cl  0  0  0  0  0  0  0  0  0  0  0  0
    9.0534    1.7303   16.4208 C   0  0  0  0  0  0  0  0  0  0  0  0
    8.0672    2.7581   16.4128 C   0  0  0  0  0  0  0  0  0  0  0  0
    7.3137    9.1852   22.9921 C   0  0  0  0  0  0  0  0  0  0  0  0
    9.9673    7.9581   25.5164 C   0  0  0  0  0  0  0  0  0  0  0  0
    8.7179    8.2236   24.8860 C   0  0  0  0  0  0  0  0  0  0  0  0
    8.6547    8.9168   23.6466 C   0  0  0  0  0  0  0  0  0  0  0  0
    9.8568    9.3457   23.0390 C   0  0  0  0  0  0  0  0  0  0  0  0
   11.0938    9.0881   23.6525 C   0  0  0  0  0  0  0  0  0  0  0  0
   11.1587    8.3997   24.8816 C   0  0  0  0  0  0  0  0  0  0  0  0
    8.9091    6.8699   27.4523 N   0  0  0  0  0  0  0  0  0  0  0  0
   10.0221    7.2397   26.8100 C   0  0  0  0  0  0  0  0  0  0  0  0
   11.2232    6.9434   27.3513 N   0  0  0  0  0  0  0  0  0  0  0  0
    8.9719    6.3931   28.3113 H   0  0  0  0  0  0  0  0  0  0  0  0
   11.2715    6.4660   28.2109 H   0  0  0  0  0  0  0  0  0  0  0  0
   12.0507    7.2049   26.8863 H   0  0  0  0  0  0  0  0  0  0  0  0
 28 29  2  0  0  0
 29 30  1  0  0  0
 29 22  1  0  0  0
 22 23  2  0  0  0
 22 27  1  0  0  0
 23 24  1  0  0  0
 24 25  2  0  0  0
 24 21  1  0  0  0
 25 26  1  0  0  0
 26 27  2  0  0  0
 21  1  1  0  0  0
  1  2  1  0  0  0
  1  7  1  0  0  0
  2  3  2  0  0  0
  2  4  1  0  0  0
  4  5  1  0  0  0
  5  6  1  0  0  0
  5  8  1  0  0  0
  6  7  1  0  0  0
  8  9  2  0  0  0
  8 10  2  0  0  0
  8 11  1  0  0  0
 11 12  2  0  0  0
 11 15  1  0  0  0
 12 13  1  0  0  0
 13 14  2  0  0  0
 13 20  1  0  0  0
 14 15  1  0  0  0
 14 16  1  0  0  0
 16 17  2  0  0  0
 17 18  1  0  0  0
 17 19  1  0  0  0
 19 20  2  0  0  0
 28 31  1  0  0  0
 30 32  1  0  0  0
 30 33  1  0  0  0
M  END
> <minimizedAffinity>
-9.99845

$$$$
1NFU_RRP_A_301


 33 36  0  0  0  0  0  0  0  0999 V2000
    6.0838    5.3991   19.4430 N   0  0  0  0  0  0  0  0  0  0  0  0
    7.1162    5.3940   20.3714 C   0  0  0  0  0  0  0  0  0  0  0  0
    7.7593    4.3915   20.6781 O   0  0  0  0  0  0  0  0  0  0  0  0
    7.4421    6.7437   21.0258 C   0  0  0  0  0  0  0  0  0  0  0  0
    6.2809    7.6638   21.1531 N   0  0  0  0  0  0  0  0  0  0  0  0
    5.7357    7.9182   19.7907 C   0  0  0  0  0  0  0  0  0  0  0  0
    5.3076    6.6226   19.0811 C   0  0  0  0  0  0  0  0  0  0  0  0
    6.5773    8.9981   22.0670 S   0  0  0  0  0  0  0  0  0  0  0  0
    6.9471   10.0091   21.1265 O   0  0  0  0  0  0  0  0  0  0  0  0
    5.3869    9.2784   22.8515 O   0  0  0  0  0  0  0  0  0  0  0  0
    7.8975    8.6617   23.1060 C   0  0  0  0  0  0  0  0  0  0  0  0
    7.6833    7.9849   24.3446 C   0  0  0  0  0  0  0  0  0  0  0  0
    8.9625    7.8191   25.0091 C   0  0  0  0  0  0  0  0  0  0  0  0
   10.0127    8.3731   24.2385 C   0  0  0  0  0  0  0  0  0  0  0  0
    9.5339    9.0671   22.7869 S   0  0  0  0  0  0  0  0  0  0  0  0
   11.3559    8.2729   24.7827 C   0  0  0  0  0  0  0  0  0  0  0  0
   11.5672    7.6410   26.0216 C   0  0  0  0  0  0  0  0  0  0  0  0
   13.1838    7.5398   26.6050 Cl  0  0  0  0  0  0  0  0  0  0  0  0
   10.4855    7.0969   26.7740 C   0  0  0  0  0  0  0  0  0  0  0  0
    9.1667    7.1957   26.2448 C   0  0  0  0  0  0  0  0  0  0  0  0
    5.6914    4.1498   18.7522 C   0  0  0  0  0  0  0  0  0  0  0  0
    8.4006    2.2694   16.7412 C   0  0  0  0  0  0  0  0  0  0  0  0
    7.5066    2.6503   17.7826 C   0  0  0  0  0  0  0  0  0  0  0  0
    6.6373    3.7648   17.6316 C   0  0  0  0  0  0  0  0  0  0  0  0
    6.6692    4.5004   16.4248 C   0  0  0  0  0  0  0  0  0  0  0  0
    7.5468    4.1323   15.3919 C   0  0  0  0  0  0  0  0  0  0  0  0
    8.4094    3.0263   15.5394 C   0  0  0  0  0  0  0  0  0  0  0  0
   10.3841    1.1735   17.6983 N   0  0  0  0  0  0  0  0  0  0  0  0
    9.3057    1.1098   16.9104 C   0  0  0  0  0  0  0  0  0  0  0  0
    9.0328   -0.0421   16.2606 N   0  0  0  0  0  0  0  0  0  0  0  0
   10.9706    0.3886   17.7944 H   0  0  0  0  0  0  0  0  0  0  0  0
    9.6277   -0.8194   16.3658 H   0  0  0  0  0  0  0  0  0  0  0  0
    8.2390   -0.1045   15.6817 H   0  0  0  0  0  0  0  0  0  0  0  0
 28 29  2  0  0  0
 29 30  1  0  0  0
 29 22  1  0  0  0
 22 23  2  0  0  0
 22 27  1  0  0  0
 23 24  1  0  0  0
 24 25  2  0  0  0
 24 21  1  0  0  0
 25 26  1  0  0  0
 26 27  2  0  0  0
 21  1  1  0  0  0
  1  2  1  0  0  0
  1  7  1  0  0  0
  2  3  2  0  0  0
  2  4  1  0  0  0
  4  5  1  0  0  0
  5  6  1  0  0  0
  5  8  1  0  0  0
  6  7  1  0  0  0
  8  9  2  0  0  0
  8 10  2  0  0  0
  8 11  1  0  0  0
 11 12  2  0  0  0
 11 15  1  0  0  0
 12 13  1  0  0  0
 13 14  2  0  0  0
 13 20  1  0  0  0
 14 15  1  0  0  0
 14 16  1  0  0  0
 16 17  2  0  0  0
 17 18  1  0  0  0
 17 19  1  0  0  0
 19 20  2  0  0  0
 28 31  1  0  0  0
 30 32  1  0  0  0
 30 33  1  0  0  0
M  END
> <minimizedAffinity>
-9.97380

$$$$
1NFU_RRP_A_301


 33 36  0  0  0  0  0  0  0  0999 V2000
    4.9160    4.9926   18.6995 N   0  0  0  0  0  0  0  0  0  0  0  0
    5.6657    6.0285   18.1585 C   0  0  0  0  0  0  0  0  0  0  0  0
    6.3296    5.9306   17.1279 O   0  0  0  0  0  0  0  0  0  0  0  0
    5.6306    7.3584   18.9242 C   0  0  0  0  0  0  0  0  0  0  0  0
    5.4325    7.2202   20.3915 N   0  0  0  0  0  0  0  0  0  0  0  0
    4.1459    6.5069   20.6235 C   0  0  0  0  0  0  0  0  0  0  0  0
    4.1160    5.1227   19.9539 C   0  0  0  0  0  0  0  0  0  0  0  0
    5.6387    8.6180   21.2324 S   0  0  0  0  0  0  0  0  0  0  0  0
    6.0846    9.5659   20.2598 O   0  0  0  0  0  0  0  0  0  0  0  0
    4.3818    8.9375   21.8873 O   0  0  0  0  0  0  0  0  0  0  0  0
    6.8634    8.3702   22.4048 C   0  0  0  0  0  0  0  0  0  0  0  0
    8.1573    8.9460   22.2254 C   0  0  0  0  0  0  0  0  0  0  0  0
    8.9837    8.5923   23.3644 C   0  0  0  0  0  0  0  0  0  0  0  0
    8.2651    7.7953   24.2875 C   0  0  0  0  0  0  0  0  0  0  0  0
    6.6788    7.4635   23.8497 S   0  0  0  0  0  0  0  0  0  0  0  0
    8.9708    7.3709   25.4842 C   0  0  0  0  0  0  0  0  0  0  0  0
   10.3078    7.7588   25.6869 C   0  0  0  0  0  0  0  0  0  0  0  0
   11.0839    7.2374   27.1324 Cl  0  0  0  0  0  0  0  0  0  0  0  0
   11.0033    8.5593   24.7342 C   0  0  0  0  0  0  0  0  0  0  0  0
   10.3153    8.9750   23.5582 C   0  0  0  0  0  0  0  0  0  0  0  0
    4.8797    3.6690   18.0371 C   0  0  0  0  0  0  0  0  0  0  0  0
    8.2040    1.7024   18.0119 C   0  0  0  0  0  0  0  0  0  0  0  0
    7.1318    2.5555   17.6229 C   0  0  0  0  0  0  0  0  0  0  0  0
    6.0079    2.7535   18.4704 C   0  0  0  0  0  0  0  0  0  0  0  0
    5.9634    2.0877   19.7166 C   0  0  0  0  0  0  0  0  0  0  0  0
    7.0161    1.2450   20.1094 C   0  0  0  0  0  0  0  0  0  0  0  0
    8.1325    1.0480   19.2705 C   0  0  0  0  0  0  0  0  0  0  0  0
    9.3453    1.8882   15.8406 N   0  0  0  0  0  0  0  0  0  0  0  0
    9.3680    1.4989   17.1196 C   0  0  0  0  0  0  0  0  0  0  0  0
   10.4821    0.9136   17.6094 N   0  0  0  0  0  0  0  0  0  0  0  0
   10.1322    1.7417   15.2674 H   0  0  0  0  0  0  0  0  0  0  0  0
   11.2620    0.7734   17.0251 H   0  0  0  0  0  0  0  0  0  0  0  0
   10.5144    0.6272   18.5508 H   0  0  0  0  0  0  0  0  0  0  0  0
 28 29  2  0  0  0
 29 30  1  0  0  0
 29 22  1  0  0  0
 22 23  2  0  0  0
 22 27  1  0  0  0
 23 24  1  0  0  0
 24 25  2  0  0  0
 24 21  1  0  0  0
 25 26  1  0  0  0
 26 27  2  0  0  0
 21  1  1  0  0  0
  1  2  1  0  0  0
  1  7  1  0  0  0
  2  3  2  0  0  0
  2  4  1  0  0  0
  4  5  1  0  0  0
  5  6  1  0  0  0
  5  8  1  0  0  0
  6  7  1  0  0  0
  8  9  2  0  0  0
  8 10  2  0  0  0
  8 11  1  0  0  0
 11 12  2  0  0  0
 11 15  1  0  0  0
 12 13  1  0  0  0
 13 14  2  0  0  0
 13 20  1  0  0  0
 14 15  1  0  0  0
 14 16  1  0  0  0
 16 17  2  0  0  0
 17 18  1  0  0  0
 17 19  1  0  0  0
 19 20  2  0  0  0
 28 31  1  0  0  0
 30 32  1  0  0  0
 30 33  1  0  0  0
M  END
> <minimizedAffinity>
-9.88824

$$$$
1NFU_RRP_A_301


 33 36  0  0  0  0  0  0  0  0999 V2000
    5.0083    7.9822   23.2851 N   0  0  0  0  0  0  0  0  0  0  0  0
    3.9511    7.5086   24.0506 C   0  0  0  0  0  0  0  0  0  0  0  0
    3.5997    8.0061   25.1191 O   0  0  0  0  0  0  0  0  0  0  0  0
    3.2025    6.2922   23.4884 C   0  0  0  0  0  0  0  0  0  0  0  0
    4.0383    5.3818   22.6614 N   0  0  0  0  0  0  0  0  0  0  0  0
    4.5929    6.1640   21.5218 C   0  0  0  0  0  0  0  0  0  0  0  0
    5.4278    7.3676   21.9904 C   0  0  0  0  0  0  0  0  0  0  0  0
    3.3021    3.9655   22.2676 S   0  0  0  0  0  0  0  0  0  0  0  0
    3.3361    3.1909   23.4685 O   0  0  0  0  0  0  0  0  0  0  0  0
    1.9764    4.2746   21.7596 O   0  0  0  0  0  0  0  0  0  0  0  0
    4.2292    3.1917   21.0520 C   0  0  0  0  0  0  0  0  0  0  0  0
    5.4888    2.6026   21.3745 C   0  0  0  0  0  0  0  0  0  0  0  0
    6.0444    2.0100   20.1722 C   0  0  0  0  0  0  0  0  0  0  0  0
    5.1815    2.1976   19.0659 C   0  0  0  0  0  0  0  0  0  0  0  0
    3.7681    3.0367   19.4066 S   0  0  0  0  0  0  0  0  0  0  0  0
    5.6110    1.6478   17.7917 C   0  0  0  0  0  0  0  0  0  0  0  0
    6.8346    0.9597   17.6994 C   0  0  0  0  0  0  0  0  0  0  0  0
    7.2799    0.3176   16.1655 Cl  0  0  0  0  0  0  0  0  0  0  0  0
    7.6819    0.7921   18.8336 C   0  0  0  0  0  0  0  0  0  0  0  0
    7.2652    1.3324   20.0840 C   0  0  0  0  0  0  0  0  0  0  0  0
    5.7945    9.1528   23.7365 C   0  0  0  0  0  0  0  0  0  0  0  0
    9.1832    7.9067   25.1089 C   0  0  0  0  0  0  0  0  0  0  0  0
    7.7922    8.1876   24.9859 C   0  0  0  0  0  0  0  0  0  0  0  0
    7.2794    8.8676   23.8478 C   0  0  0  0  0  0  0  0  0  0  0  0
    8.1730    9.2676   22.8280 C   0  0  0  0  0  0  0  0  0  0  0  0
    9.5462    8.9947   22.9399 C   0  0  0  0  0  0  0  0  0  0  0  0
   10.0568    8.3193   24.0677 C   0  0  0  0  0  0  0  0  0  0  0  0
   10.9580    6.7290   26.3395 N   0  0  0  0  0  0  0  0  0  0  0  0
    9.7081    7.2022   26.3008 C   0  0  0  0  0  0  0  0  0  0  0  0
    8.9095    7.0397   27.3776 N   0  0  0  0  0  0  0  0  0  0  0  0
   11.2836    6.2640   27.1439 H   0  0  0  0  0  0  0  0  0  0  0  0
    9.2480    6.5729   28.1755 H   0  0  0  0  0  0  0  0  0  0  0  0
    7.9888    7.3881   27.3647 H   0  0  0  0  0  0  0  0  0  0  0  0
 28 29  2  0  0  0
 29 30  1  0  0  0
 29 22  1  0  0  0
 22 23  2  0  0  0
 22 27  1  0  0  0
 23 24  1  0  0  0
 24 25  2  0  0  0
 24 21  1  0  0  0
 25 26  1  0  0  0
 26 27  2  0  0  0
 21  1  1  0  0  0
  1  2  1  0  0  0
  1  7  1  0  0  0
  2  3  2  0  0  0
  2  4  1  0  0  0
  4  5  1  0  0  0
  5  6  1  0  0  0
  5  8  1  0  0  0
  6  7  1  0  0  0
  8  9  2  0  0  0
  8 10  2  0  0  0
  8 11  1  0  0  0
 11 12  2  0  0  0
 11 15  1  0  0  0
 12 13  1  0  0  0
 13 14  2  0  0  0
 13 20  1  0  0  0
 14 15  1  0  0  0
 14 16  1  0  0  0
 16 17  2  0  0  0
 17 18  1  0  0  0
 17 19  1  0  0  0
 19 20  2  0  0  0
 28 31  1  0  0  0
 30 32  1  0  0  0
 30 33  1  0  0  0
M  END
> <minimizedAffinity>
-9.52786

$$$$
1NFU_RRP_A_301


 33 36  0  0  0  0  0  0  0  0999 V2000
    4.9147    7.7556   22.1300 N   0  0  0  0  0  0  0  0  0  0  0  0
    4.5015    6.6824   22.9080 C   0  0  0  0  0  0  0  0  0  0  0  0
    4.6070    6.6409   24.1327 O   0  0  0  0  0  0  0  0  0  0  0  0
    3.8778    5.5012   22.1519 C   0  0  0  0  0  0  0  0  0  0  0  0
    4.3933    5.3122   20.7699 N   0  0  0  0  0  0  0  0  0  0  0  0
    4.1301    6.5591   19.9991 C   0  0  0  0  0  0  0  0  0  0  0  0
    4.7844    7.7932   20.6427 C   0  0  0  0  0  0  0  0  0  0  0  0
    3.9075    3.9127   20.0565 S   0  0  0  0  0  0  0  0  0  0  0  0
    3.3016    3.1586   21.1089 O   0  0  0  0  0  0  0  0  0  0  0  0
    3.0331    4.2541   18.9476 O   0  0  0  0  0  0  0  0  0  0  0  0
    5.2939    3.0894   19.4771 C   0  0  0  0  0  0  0  0  0  0  0  0
    5.8829    3.4621   18.2312 C   0  0  0  0  0  0  0  0  0  0  0  0
    7.0403    2.6193   17.9955 C   0  0  0  0  0  0  0  0  0  0  0  0
    7.2252    1.6993   19.0553 C   0  0  0  0  0  0  0  0  0  0  0  0
    6.0916    1.8054   20.2889 S   0  0  0  0  0  0  0  0  0  0  0  0
    8.3556    0.7926   18.9541 C   0  0  0  0  0  0  0  0  0  0  0  0
    9.2119    0.8582   17.8398 C   0  0  0  0  0  0  0  0  0  0  0  0
   10.5431   -0.2321   17.7861 Cl  0  0  0  0  0  0  0  0  0  0  0  0
    8.9943    1.7951   16.7877 C   0  0  0  0  0  0  0  0  0  0  0  0
    7.8851    2.6839   16.8822 C   0  0  0  0  0  0  0  0  0  0  0  0
    5.5271    8.9466   22.7613 C   0  0  0  0  0  0  0  0  0  0  0  0
    9.0362    8.4509   24.2975 C   0  0  0  0  0  0  0  0  0  0  0  0
    7.6230    8.5546   24.1531 C   0  0  0  0  0  0  0  0  0  0  0  0
    7.0341    8.8444   22.8922 C   0  0  0  0  0  0  0  0  0  0  0  0
    7.8737    9.0316   21.7704 C   0  0  0  0  0  0  0  0  0  0  0  0
    9.2684    8.9307   21.9026 C   0  0  0  0  0  0  0  0  0  0  0  0
    9.8545    8.6423   23.1524 C   0  0  0  0  0  0  0  0  0  0  0  0
   10.8902    8.5237   25.9128 N   0  0  0  0  0  0  0  0  0  0  0  0
    9.6400    8.1535   25.6164 C   0  0  0  0  0  0  0  0  0  0  0  0
    8.9097    7.5000   26.5455 N   0  0  0  0  0  0  0  0  0  0  0  0
   11.2691    8.3142   26.7970 H   0  0  0  0  0  0  0  0  0  0  0  0
    9.3010    7.2970   27.4258 H   0  0  0  0  0  0  0  0  0  0  0  0
    7.9860    7.2265   26.3425 H   0  0  0  0  0  0  0  0  0  0  0  0
 28 29  2  0  0  0
 29 30  1  0  0  0
 29 22  1  0  0  0
 22 23  2  0  0  0
 22 27  1  0  0  0
 23 24  1  0  0  0
 24 25  2  0  0  0
 24 21  1  0  0  0
 25 26  1  0  0  0
 26 27  2  0  0  0
 21  1  1  0  0  0
  1  2  1  0  0  0
  1  7  1  0  0  0
  2  3  2  0  0  0
  2  4  1  0  0  0
  4  5  1  0  0  0
  5  6  1  0  0  0
  5  8  1  0  0  0
  6  7  1  0  0  0
  8  9  2  0  0  0
  8 10  2  0  0  0
  8 11  1  0  0  0
 11 12  2  0  0  0
 11 15  1  0  0  0
 12 13  1  0  0  0
 13 14  2  0  0  0
 13 20  1  0  0  0
 14 15  1  0  0  0
 14 16  1  0  0  0
 16 17  2  0  0  0
 17 18  1  0  0  0
 17 19  1  0  0  0
 19 20  2  0  0  0
 28 31  1  0  0  0
 30 32  1  0  0  0
 30 33  1  0  0  0
M  END
> <minimizedAffinity>
-8.93304

$$$$
1NFU_RRP_A_301


 33 36  0  0  0  0  0  0  0  0999 V2000
    6.3782    6.2601   19.1861 N   0  0  0  0  0  0  0  0  0  0  0  0
    5.6102    7.4160   19.1437 C   0  0  0  0  0  0  0  0  0  0  0  0
    4.8824    7.7231   18.2010 O   0  0  0  0  0  0  0  0  0  0  0  0
    5.7036    8.3337   20.3706 C   0  0  0  0  0  0  0  0  0  0  0  0
    7.0124    8.2901   21.0752 N   0  0  0  0  0  0  0  0  0  0  0  0
    7.2599    6.8883   21.5133 C   0  0  0  0  0  0  0  0  0  0  0  0
    7.2611    5.8995   20.3354 C   0  0  0  0  0  0  0  0  0  0  0  0
    7.1920    9.4446   22.2320 S   0  0  0  0  0  0  0  0  0  0  0  0
    7.6126   10.6109   21.5204 O   0  0  0  0  0  0  0  0  0  0  0  0
    5.9316    9.5666   22.9441 O   0  0  0  0  0  0  0  0  0  0  0  0
    8.4274    8.9457   23.3093 C   0  0  0  0  0  0  0  0  0  0  0  0
    8.0941    8.2699   24.5218 C   0  0  0  0  0  0  0  0  0  0  0  0
    9.3214    7.9528   25.2278 C   0  0  0  0  0  0  0  0  0  0  0  0
   10.4540    8.4063   24.5100 C   0  0  0  0  0  0  0  0  0  0  0  0
   10.1090    9.1786   23.0600 S   0  0  0  0  0  0  0  0  0  0  0  0
   11.7566    8.1500   25.0998 C   0  0  0  0  0  0  0  0  0  0  0  0
   11.8509    7.4729   26.3293 C   0  0  0  0  0  0  0  0  0  0  0  0
   13.4235    7.1853   26.9681 Cl  0  0  0  0  0  0  0  0  0  0  0  0
   10.6888    7.0329   27.0280 C   0  0  0  0  0  0  0  0  0  0  0  0
    9.4096    7.2849   26.4540 C   0  0  0  0  0  0  0  0  0  0  0  0
    6.3583    5.3057   18.0544 C   0  0  0  0  0  0  0  0  0  0  0  0
    5.2760    1.9694   19.6722 C   0  0  0  0  0  0  0  0  0  0  0  0
    5.2861    3.3297   19.2499 C   0  0  0  0  0  0  0  0  0  0  0  0
    6.3706    3.8554   18.4962 C   0  0  0  0  0  0  0  0  0  0  0  0
    7.4515    3.0061   18.1664 C   0  0  0  0  0  0  0  0  0  0  0  0
    7.4504    1.6631   18.5777 C   0  0  0  0  0  0  0  0  0  0  0  0
    6.3750    1.1395   19.3248 C   0  0  0  0  0  0  0  0  0  0  0  0
    4.1689    1.4160   21.7981 N   0  0  0  0  0  0  0  0  0  0  0  0
    4.1438    1.4329   20.4613 C   0  0  0  0  0  0  0  0  0  0  0  0
    3.0566    0.9561   19.8177 N   0  0  0  0  0  0  0  0  0  0  0  0
    3.4034    1.0539   22.3003 H   0  0  0  0  0  0  0  0  0  0  0  0
    2.2980    0.5970   20.3323 H   0  0  0  0  0  0  0  0  0  0  0  0
    3.0226    0.9677   18.8338 H   0  0  0  0  0  0  0  0  0  0  0  0
 28 29  2  0  0  0
 29 30  1  0  0  0
 29 22  1  0  0  0
 22 23  2  0  0  0
 22 27  1  0  0  0
 23 24  1  0  0  0
 24 25  2  0  0  0
 24 21  1  0  0  0
 25 26  1  0  0  0
 26 27  2  0  0  0
 21  1  1  0  0  0
  1  2  1  0  0  0
  1  7  1  0  0  0
  2  3  2  0  0  0
  2  4  1  0  0  0
  4  5  1  0  0  0
  5  6  1  0  0  0
  5  8  1  0  0  0
  6  7  1  0  0  0
  8  9  2  0  0  0
  8 10  2  0  0  0
  8 11  1  0  0  0
 11 12  2  0  0  0
 11 15  1  0  0  0
 12 13  1  0  0  0
 13 14  2  0  0  0
 13 20  1  0  0  0
 14 15  1  0  0  0
 14 16  1  0  0  0
 16 17  2  0  0  0
 17 18  1  0  0  0
 17 19  1  0  0  0
 19 20  2  0  0  0
 28 31  1  0  0  0
 30 32  1  0  0  0
 30 33  1  0  0  0
M  END
> <minimizedAffinity>
-8.79544

$$$$
1NFU_RRP_A_301


 33 36  0  0  0  0  0  0  0  0999 V2000
    3.4117    6.8933   21.9235 N   0  0  0  0  0  0  0  0  0  0  0  0
    3.0374    6.0169   22.9333 C   0  0  0  0  0  0  0  0  0  0  0  0
    2.9513    6.3317   24.1191 O   0  0  0  0  0  0  0  0  0  0  0  0
    2.7173    4.5807   22.4963 C   0  0  0  0  0  0  0  0  0  0  0  0
    3.4680    4.1186   21.2986 N   0  0  0  0  0  0  0  0  0  0  0  0
    3.1555    5.0375   20.1689 C   0  0  0  0  0  0  0  0  0  0  0  0
    3.5159    6.4984   20.4870 C   0  0  0  0  0  0  0  0  0  0  0  0
    3.3069    2.5133   20.9822 S   0  0  0  0  0  0  0  0  0  0  0  0
    3.2324    1.8941   22.2685 O   0  0  0  0  0  0  0  0  0  0  0  0
    2.1402    2.3376   20.1345 O   0  0  0  0  0  0  0  0  0  0  0  0
    4.7128    1.9783   20.1617 C   0  0  0  0  0  0  0  0  0  0  0  0
    4.6519    1.6413   18.7759 C   0  0  0  0  0  0  0  0  0  0  0  0
    5.9755    1.2390   18.3384 C   0  0  0  0  0  0  0  0  0  0  0  0
    6.9052    1.3007   19.4040 C   0  0  0  0  0  0  0  0  0  0  0  0
    6.2660    1.8086   20.8708 S   0  0  0  0  0  0  0  0  0  0  0  0
    8.2776    0.9288   19.1065 C   0  0  0  0  0  0  0  0  0  0  0  0
    8.6327    0.5352   17.8034 C   0  0  0  0  0  0  0  0  0  0  0  0
   10.2781    0.1222   17.5106 Cl  0  0  0  0  0  0  0  0  0  0  0  0
    7.6696    0.4805   16.7537 C   0  0  0  0  0  0  0  0  0  0  0  0
    6.3223    0.8418   17.0425 C   0  0  0  0  0  0  0  0  0  0  0  0
    3.7393    8.3024   22.2380 C   0  0  0  0  0  0  0  0  0  0  0  0
    7.5261    8.9368   21.8168 C   0  0  0  0  0  0  0  0  0  0  0  0
    6.1465    8.7313   21.5277 C   0  0  0  0  0  0  0  0  0  0  0  0
    5.2034    8.5154   22.5691 C   0  0  0  0  0  0  0  0  0  0  0  0
    5.6525    8.5058   23.9094 C   0  0  0  0  0  0  0  0  0  0  0  0
    7.0107    8.7081   24.2047 C   0  0  0  0  0  0  0  0  0  0  0  0
    7.9478    8.9234   23.1730 C   0  0  0  0  0  0  0  0  0  0  0  0
    8.1050    9.3666   19.4648 N   0  0  0  0  0  0  0  0  0  0  0  0
    8.5013    9.1559   20.7243 C   0  0  0  0  0  0  0  0  0  0  0  0
    9.8219    9.1506   21.0063 N   0  0  0  0  0  0  0  0  0  0  0  0
    8.7730    9.5097   18.7560 H   0  0  0  0  0  0  0  0  0  0  0  0
   10.4792    9.2952   20.2878 H   0  0  0  0  0  0  0  0  0  0  0  0
   10.1274    9.0022   21.9303 H   0  0  0  0  0  0  0  0  0  0  0  0
 28 29  2  0  0  0
 29 30  1  0  0  0
 29 22  1  0  0  0
 22 23  2  0  0  0
 22 27  1  0  0  0
 23 24  1  0  0  0
 24 25  2  0  0  0
 24 21  1  0  0  0
 25 26  1  0  0  0
 26 27  2  0  0  0
 21  1  1  0  0  0
  1  2  1  0  0  0
  1  7  1  0  0  0
  2  3  2  0  0  0
  2  4  1  0  0  0
  4  5  1  0  0  0
  5  6  1  0  0  0
  5  8  1  0  0  0
  6  7  1  0  0  0
  8  9  2  0  0  0
  8 10  2  0  0  0
  8 11  1  0  0  0
 11 12  2  0  0  0
 11 15  1  0  0  0
 12 13  1  0  0  0
 13 14  2  0  0  0
 13 20  1  0  0  0
 14 15  1  0  0  0
 14 16  1  0  0  0
 16 17  2  0  0  0
 17 18  1  0  0  0
 17 19  1  0  0  0
 19 20  2  0  0  0
 28 31  1  0  0  0
 30 32  1  0  0  0
 30 33  1  0  0  0
M  END
> <minimizedAffinity>
-8.65277

$$$$
1NFU_RRP_A_301


 33 36  0  0  0  0  0  0  0  0999 V2000
    5.5614    3.0147   17.2384 N   0  0  0  0  0  0  0  0  0  0  0  0
    5.9598    4.0500   16.4033 C   0  0  0  0  0  0  0  0  0  0  0  0
    6.5698    3.8854   15.3481 O   0  0  0  0  0  0  0  0  0  0  0  0
    5.5916    5.4675   16.8628 C   0  0  0  0  0  0  0  0  0  0  0  0
    5.5173    5.6378   18.3382 N   0  0  0  0  0  0  0  0  0  0  0  0
    4.4976    4.6896   18.8666 C   0  0  0  0  0  0  0  0  0  0  0  0
    4.8238    3.2273   18.5194 C   0  0  0  0  0  0  0  0  0  0  0  0
    5.3652    7.2000   18.8280 S   0  0  0  0  0  0  0  0  0  0  0  0
    5.9509    7.9703   17.7759 O   0  0  0  0  0  0  0  0  0  0  0  0
    3.9577    7.4557   19.0821 O   0  0  0  0  0  0  0  0  0  0  0  0
    6.2675    7.4069   20.2698 C   0  0  0  0  0  0  0  0  0  0  0  0
    7.4890    8.1454   20.2536 C   0  0  0  0  0  0  0  0  0  0  0  0
    8.0299    8.1758   21.5997 C   0  0  0  0  0  0  0  0  0  0  0  0
    7.1946    7.4725   22.5005 C   0  0  0  0  0  0  0  0  0  0  0  0
    5.8231    6.7944   21.8097 S   0  0  0  0  0  0  0  0  0  0  0  0
    7.6129    7.4260   23.8908 C   0  0  0  0  0  0  0  0  0  0  0  0
    8.7993    8.0681   24.2901 C   0  0  0  0  0  0  0  0  0  0  0  0
    9.2323    7.9904   25.9544 Cl  0  0  0  0  0  0  0  0  0  0  0  0
    9.6196    8.7648   23.3553 C   0  0  0  0  0  0  0  0  0  0  0  0
    9.2139    8.8102   21.9905 C   0  0  0  0  0  0  0  0  0  0  0  0
    5.8648    1.6091   16.8860 C   0  0  0  0  0  0  0  0  0  0  0  0
    9.2003   -0.3372   16.9640 C   0  0  0  0  0  0  0  0  0  0  0  0
    7.8782    0.0720   16.6272 C   0  0  0  0  0  0  0  0  0  0  0  0
    7.2721    1.1895   17.2630 C   0  0  0  0  0  0  0  0  0  0  0  0
    8.0017    1.8987   18.2444 C   0  0  0  0  0  0  0  0  0  0  0  0
    9.3063    1.5033   18.5830 C   0  0  0  0  0  0  0  0  0  0  0  0
    9.9097    0.3955   17.9525 C   0  0  0  0  0  0  0  0  0  0  0  0
   11.0350   -1.9449   16.6466 N   0  0  0  0  0  0  0  0  0  0  0  0
    9.8207   -1.5058   16.2993 C   0  0  0  0  0  0  0  0  0  0  0  0
    9.1426   -2.1489   15.3245 N   0  0  0  0  0  0  0  0  0  0  0  0
   11.4260   -2.7242   16.1895 H   0  0  0  0  0  0  0  0  0  0  0  0
    9.5455   -2.9271   14.8757 H   0  0  0  0  0  0  0  0  0  0  0  0
    8.2454   -1.8397   15.0627 H   0  0  0  0  0  0  0  0  0  0  0  0
 28 29  2  0  0  0
 29 30  1  0  0  0
 29 22  1  0  0  0
 22 23  2  0  0  0
 22 27  1  0  0  0
 23 24  1  0  0  0
 24 25  2  0  0  0
 24 21  1  0  0  0
 25 26  1  0  0  0
 26 27  2  0  0  0
 21  1  1  0  0  0
  1  2  1  0  0  0
  1  7  1  0  0  0
  2  3  2  0  0  0
  2  4  1  0  0  0
  4  5  1  0  0  0
  5  6  1  0  0  0
  5  8  1  0  0  0
  6  7  1  0  0  0
  8  9  2  0  0  0
  8 10  2  0  0  0
  8 11  1  0  0  0
 11 12  2  0  0  0
 11 15  1  0  0  0
 12 13  1  0  0  0
 13 14  2  0  0  0
 13 20  1  0  0  0
 14 15  1  0  0  0
 14 16  1  0  0  0
 16 17  2  0  0  0
 17 18  1  0  0  0
 17 19  1  0  0  0
 19 20  2  0  0  0
 28 31  1  0  0  0
 30 32  1  0  0  0
 30 33  1  0  0  0
M  END
> <minimizedAffinity>
-8.38199

$$$$
1NFU_RRP_A_301


 33 36  0  0  0  0  0  0  0  0999 V2000
    5.8795    8.0867   22.6346 N   0  0  0  0  0  0  0  0  0  0  0  0
    6.0227    8.3292   21.2750 C   0  0  0  0  0  0  0  0  0  0  0  0
    6.5567    9.3344   20.8090 O   0  0  0  0  0  0  0  0  0  0  0  0
    5.4704    7.2489   20.3348 C   0  0  0  0  0  0  0  0  0  0  0  0
    4.3083    6.4954   20.8763 N   0  0  0  0  0  0  0  0  0  0  0  0
    4.7259    5.8457   22.1497 C   0  0  0  0  0  0  0  0  0  0  0  0
    5.2260    6.8635   23.1886 C   0  0  0  0  0  0  0  0  0  0  0  0
    3.5720    5.5161   19.7799 S   0  0  0  0  0  0  0  0  0  0  0  0
    3.6700    4.2043   20.3395 O   0  0  0  0  0  0  0  0  0  0  0  0
    2.2211    6.0092   19.5735 O   0  0  0  0  0  0  0  0  0  0  0  0
    4.4521    5.5873   18.3116 C   0  0  0  0  0  0  0  0  0  0  0  0
    5.4489    4.6071   18.0226 C   0  0  0  0  0  0  0  0  0  0  0  0
    6.0195    4.8966   16.7203 C   0  0  0  0  0  0  0  0  0  0  0  0
    5.4236    6.0454   16.1468 C   0  0  0  0  0  0  0  0  0  0  0  0
    4.2379    6.7709   17.0879 S   0  0  0  0  0  0  0  0  0  0  0  0
    5.8967    6.4501   14.8343 C   0  0  0  0  0  0  0  0  0  0  0  0
    6.9004    5.7056   14.1882 C   0  0  0  0  0  0  0  0  0  0  0  0
    7.4066    6.2267   12.6275 Cl  0  0  0  0  0  0  0  0  0  0  0  0
    7.4819    4.5549   14.7966 C   0  0  0  0  0  0  0  0  0  0  0  0
    7.0225    4.1568   16.0848 C   0  0  0  0  0  0  0  0  0  0  0  0
    6.3805    9.0648   23.6267 C   0  0  0  0  0  0  0  0  0  0  0  0
    9.6066    7.9144   25.4123 C   0  0  0  0  0  0  0  0  0  0  0  0
    8.2333    8.1033   25.0848 C   0  0  0  0  0  0  0  0  0  0  0  0
    7.8483    8.8802   23.9584 C   0  0  0  0  0  0  0  0  0  0  0  0
    8.8524    9.4708   23.1576 C   0  0  0  0  0  0  0  0  0  0  0  0
   10.2093    9.2898   23.4720 C   0  0  0  0  0  0  0  0  0  0  0  0
   10.5933    8.5186   24.5886 C   0  0  0  0  0  0  0  0  0  0  0  0
    9.1516    6.8963   27.6051 N   0  0  0  0  0  0  0  0  0  0  0  0
    9.9970    7.1075   26.5909 C   0  0  0  0  0  0  0  0  0  0  0  0
   11.2327    6.5651   26.6407 N   0  0  0  0  0  0  0  0  0  0  0  0
    9.4349    6.3560   28.3777 H   0  0  0  0  0  0  0  0  0  0  0  0
   11.5029    6.0267   27.4194 H   0  0  0  0  0  0  0  0  0  0  0  0
   11.8633    6.7080   25.8983 H   0  0  0  0  0  0  0  0  0  0  0  0
 28 29  2  0  0  0
 29 30  1  0  0  0
 29 22  1  0  0  0
 22 23  2  0  0  0
 22 27  1  0  0  0
 23 24  1  0  0  0
 24 25  2  0  0  0
 24 21  1  0  0  0
 25 26  1  0  0  0
 26 27  2  0  0  0
 21  1  1  0  0  0
  1  2  1  0  0  0
  1  7  1  0  0  0
  2  3  2  0  0  0
  2  4  1  0  0  0
  4  5  1  0  0  0
  5  6  1  0  0  0
  5  8  1  0  0  0
  6  7  1  0  0  0
  8  9  2  0  0  0
  8 10  2  0  0  0
  8 11  1  0  0  0
 11 12  2  0  0  0
 11 15  1  0  0  0
 12 13  1  0  0  0
 13 14  2  0  0  0
 13 20  1  0  0  0
 14 15  1  0  0  0
 14 16  1  0  0  0
 16 17  2  0  0  0
 17 18  1  0  0  0
 17 19  1  0  0  0
 19 20  2  0  0  0
 28 31  1  0  0  0
 30 32  1  0  0  0
 30 33  1  0  0  0
M  END
> <minimizedAffinity>
-8.19190

$$$$
