3JY0_LYG_A_1000


 24 27  0  0  0  0  0  0  0  0999 V2000
  -39.4379   -3.0589   -1.5640 S   0  0  0  0  0  0  0  0  0  0  0  0
  -45.3141   -1.8835   -1.4918 Cl  0  0  0  0  0  0  0  0  0  0  0  0
  -40.7599   -1.9127    1.8745 N   0  0  0  0  0  0  0  0  0  0  0  0
  -37.0555   -3.0258    0.5183 O   0  0  0  0  0  0  0  0  0  0  0  0
  -38.4232   -2.3397    2.1910 N   0  0  0  0  0  0  0  0  0  0  0  0
  -39.6723   -1.9513    2.5824 C   0  0  0  0  0  0  0  0  0  0  0  0
  -40.5733   -2.3009    0.5479 C   0  0  0  0  0  0  0  0  0  0  0  0
  -41.5874   -2.3384   -0.4585 C   0  0  0  0  0  0  0  0  0  0  0  0
  -42.9121   -2.0281   -0.3690 C   0  0  0  0  0  0  0  0  0  0  0  0
  -43.6189   -2.2048   -1.5446 C   0  0  0  0  0  0  0  0  0  0  0  0
  -43.1239   -2.6422   -2.7448 C   0  0  0  0  0  0  0  0  0  0  0  0
  -41.7873   -2.9309   -2.8606 C   0  0  0  0  0  0  0  0  0  0  0  0
  -41.1065   -2.7696   -1.6941 C   0  0  0  0  0  0  0  0  0  0  0  0
  -39.3367   -2.6633    0.1063 C   0  0  0  0  0  0  0  0  0  0  0  0
  -38.1670   -2.7177    0.9061 C   0  0  0  0  0  0  0  0  0  0  0  0
  -37.6922   -2.3471    2.8504 H   0  0  0  0  0  0  0  0  0  0  0  0
  -39.6851   -1.4910    3.9821 C   0  0  0  0  0  0  0  0  0  0  0  0
  -36.7847    0.2930    5.2962 C   0  0  0  0  0  0  0  0  0  0  0  0
  -38.5250   -0.9433    4.6720 N   0  0  0  0  0  0  0  0  0  0  0  0
  -37.0402    0.9036    6.5421 O   0  0  0  0  0  0  0  0  0  0  0  0
  -36.6360   -1.1881    5.7040 C   0  0  0  0  0  0  0  0  0  0  0  0
  -38.1111   -1.5396    6.0007 C   0  0  0  0  0  0  0  0  0  0  0  0
  -38.1213    0.4873    4.5710 C   0  0  0  0  0  0  0  0  0  0  0  0
  -37.8148    0.4885    6.9528 H   0  0  0  0  0  0  0  0  0  0  0  0
 23 18  1  0  0  0
 20 18  1  0  0  0
 18 21  1  0  0  0
 17 19  1  0  0  0
 23 19  1  0  0  0
 19 22  1  0  0  0
  1 13  1  0  0  0
  1 14  1  0  0  0
 10  2  1  0  0  0
 22 21  1  0  0  0
  7  3  1  0  0  0
  6  3  2  0  0  0
  4 15  2  0  0  0
 15  5  1  0  0  0
  5  6  1  0  0  0
  6 17  1  0  0  0
 14  7  2  0  0  0
  8  7  1  0  0  0
 13  8  1  0  0  0
  8  9  2  0  0  0
 10  9  1  0  0  0
 11 10  2  0  0  0
 12 11  1  0  0  0
 12 13  2  0  0  0
 15 14  1  0  0  0
 20 24  1  0  0  0
  5 16  1  0  0  0
M  END
> <minimizedAffinity>
-8.68058

$$$$
3JY0_LYG_A_1000


 24 27  0  0  0  0  0  0  0  0999 V2000
  -39.4334   -2.9127   -1.6874 S   0  0  0  0  0  0  0  0  0  0  0  0
  -45.3505   -1.9809   -1.4966 Cl  0  0  0  0  0  0  0  0  0  0  0  0
  -40.7761   -2.1117    1.8396 N   0  0  0  0  0  0  0  0  0  0  0  0
  -37.0402   -2.9600    0.3820 O   0  0  0  0  0  0  0  0  0  0  0  0
  -38.4224   -2.4710    2.1112 N   0  0  0  0  0  0  0  0  0  0  0  0
  -39.6830   -2.1664    2.5380 C   0  0  0  0  0  0  0  0  0  0  0  0
  -40.5833   -2.3798    0.4846 C   0  0  0  0  0  0  0  0  0  0  0  0
  -41.6020   -2.3730   -0.5180 C   0  0  0  0  0  0  0  0  0  0  0  0
  -42.9372   -2.1238   -0.3982 C   0  0  0  0  0  0  0  0  0  0  0  0
  -43.6444   -2.2293   -1.5820 C   0  0  0  0  0  0  0  0  0  0  0  0
  -43.1408   -2.5448   -2.8165 C   0  0  0  0  0  0  0  0  0  0  0  0
  -41.7948   -2.7697   -2.9606 C   0  0  0  0  0  0  0  0  0  0  0  0
  -41.1129   -2.6798   -1.7870 C   0  0  0  0  0  0  0  0  0  0  0  0
  -39.3365   -2.6548    0.0098 C   0  0  0  0  0  0  0  0  0  0  0  0
  -38.1602   -2.7296    0.7982 C   0  0  0  0  0  0  0  0  0  0  0  0
  -37.6872   -2.5046    2.7651 H   0  0  0  0  0  0  0  0  0  0  0  0
  -39.7044   -1.8258    3.9715 C   0  0  0  0  0  0  0  0  0  0  0  0
  -40.4021   -4.2304    6.6273 C   0  0  0  0  0  0  0  0  0  0  0  0
  -39.7514   -2.8104    5.0439 N   0  0  0  0  0  0  0  0  0  0  0  0
  -40.0709   -5.5529    6.2644 O   0  0  0  0  0  0  0  0  0  0  0  0
  -39.0081   -3.6297    6.9067 C   0  0  0  0  0  0  0  0  0  0  0  0
  -38.4712   -3.5015    5.4634 C   0  0  0  0  0  0  0  0  0  0  0  0
  -40.9411   -3.6678    5.3070 C   0  0  0  0  0  0  0  0  0  0  0  0
  -39.4496   -5.5379    5.5197 H   0  0  0  0  0  0  0  0  0  0  0  0
 23 18  1  0  0  0
 20 18  1  0  0  0
 18 21  1  0  0  0
 17 19  1  0  0  0
 23 19  1  0  0  0
 19 22  1  0  0  0
  1 13  1  0  0  0
  1 14  1  0  0  0
 10  2  1  0  0  0
 22 21  1  0  0  0
  7  3  1  0  0  0
  6  3  2  0  0  0
  4 15  2  0  0  0
 15  5  1  0  0  0
  5  6  1  0  0  0
  6 17  1  0  0  0
 14  7  2  0  0  0
  8  7  1  0  0  0
 13  8  1  0  0  0
  8  9  2  0  0  0
 10  9  1  0  0  0
 11 10  2  0  0  0
 12 11  1  0  0  0
 12 13  2  0  0  0
 15 14  1  0  0  0
 20 24  1  0  0  0
  5 16  1  0  0  0
M  END
> <minimizedAffinity>
-8.60508

$$$$
3JY0_LYG_A_1000


 24 27  0  0  0  0  0  0  0  0999 V2000
  -43.8316   -1.8401   -0.1994 S   0  0  0  0  0  0  0  0  0  0  0  0
  -39.3384   -3.7101   -3.6965 Cl  0  0  0  0  0  0  0  0  0  0  0  0
  -40.4709   -2.2371    1.6533 N   0  0  0  0  0  0  0  0  0  0  0  0
  -44.2060   -1.0342    2.8375 O   0  0  0  0  0  0  0  0  0  0  0  0
  -42.0243   -1.4444    3.2969 N   0  0  0  0  0  0  0  0  0  0  0  0
  -40.8078   -1.8793    2.8549 C   0  0  0  0  0  0  0  0  0  0  0  0
  -41.5236   -2.1776    0.7403 C   0  0  0  0  0  0  0  0  0  0  0  0
  -41.4461   -2.5286   -0.6430 C   0  0  0  0  0  0  0  0  0  0  0  0
  -40.3809   -2.9751   -1.3676 C   0  0  0  0  0  0  0  0  0  0  0  0
  -40.6546   -3.1958   -2.7052 C   0  0  0  0  0  0  0  0  0  0  0  0
  -41.8554   -3.0171   -3.3401 C   0  0  0  0  0  0  0  0  0  0  0  0
  -42.9453   -2.5965   -2.6201 C   0  0  0  0  0  0  0  0  0  0  0  0
  -42.6596   -2.3667   -1.3101 C   0  0  0  0  0  0  0  0  0  0  0  0
  -42.7624   -1.7819    1.1460 C   0  0  0  0  0  0  0  0  0  0  0  0
  -43.1001   -1.3751    2.4617 C   0  0  0  0  0  0  0  0  0  0  0  0
  -42.1269   -1.1752    4.2383 H   0  0  0  0  0  0  0  0  0  0  0  0
  -39.8296   -1.9667    3.9535 C   0  0  0  0  0  0  0  0  0  0  0  0
  -39.6249   -4.6382    6.4321 C   0  0  0  0  0  0  0  0  0  0  0  0
  -39.6321   -3.1509    4.7783 N   0  0  0  0  0  0  0  0  0  0  0  0
  -40.3829   -5.7726    6.0730 O   0  0  0  0  0  0  0  0  0  0  0  0
  -38.4006   -4.7794    5.5029 C   0  0  0  0  0  0  0  0  0  0  0  0
  -39.0385   -4.3937    4.1494 C   0  0  0  0  0  0  0  0  0  0  0  0
  -40.5134   -3.4945    5.9294 C   0  0  0  0  0  0  0  0  0  0  0  0
  -40.5597   -5.7547    5.1194 H   0  0  0  0  0  0  0  0  0  0  0  0
 23 18  1  0  0  0
 20 18  1  0  0  0
 18 21  1  0  0  0
 17 19  1  0  0  0
 23 19  1  0  0  0
 19 22  1  0  0  0
  1 13  1  0  0  0
  1 14  1  0  0  0
 10  2  1  0  0  0
 22 21  1  0  0  0
  7  3  1  0  0  0
  6  3  2  0  0  0
  4 15  2  0  0  0
 15  5  1  0  0  0
  5  6  1  0  0  0
  6 17  1  0  0  0
 14  7  2  0  0  0
  8  7  1  0  0  0
 13  8  1  0  0  0
  8  9  2  0  0  0
 10  9  1  0  0  0
 11 10  2  0  0  0
 12 11  1  0  0  0
 12 13  2  0  0  0
 15 14  1  0  0  0
 20 24  1  0  0  0
  5 16  1  0  0  0
M  END
> <minimizedAffinity>
-8.51139

$$$$
3JY0_LYG_A_1000


 24 27  0  0  0  0  0  0  0  0999 V2000
  -41.6224   -2.6856   -2.0051 S   0  0  0  0  0  0  0  0  0  0  0  0
  -46.2715   -0.9943    1.3775 Cl  0  0  0  0  0  0  0  0  0  0  0  0
  -40.7834   -2.3427    1.7450 N   0  0  0  0  0  0  0  0  0  0  0  0
  -38.5821   -3.4277   -1.5380 O   0  0  0  0  0  0  0  0  0  0  0  0
  -38.7551   -3.0658    0.6932 N   0  0  0  0  0  0  0  0  0  0  0  0
  -39.5271   -2.6704    1.7477 C   0  0  0  0  0  0  0  0  0  0  0  0
  -41.3673   -2.3912    0.4793 C   0  0  0  0  0  0  0  0  0  0  0  0
  -42.7260   -2.0669    0.1769 C   0  0  0  0  0  0  0  0  0  0  0  0
  -43.7279   -1.6608    1.0079 C   0  0  0  0  0  0  0  0  0  0  0  0
  -44.9422   -1.4569    0.3781 C   0  0  0  0  0  0  0  0  0  0  0  0
  -45.2151   -1.6158   -0.9550 C   0  0  0  0  0  0  0  0  0  0  0  0
  -44.2115   -1.9953   -1.8104 C   0  0  0  0  0  0  0  0  0  0  0  0
  -43.0268   -2.2092   -1.1770 C   0  0  0  0  0  0  0  0  0  0  0  0
  -40.6249   -2.7475   -0.6059 C   0  0  0  0  0  0  0  0  0  0  0  0
  -39.2577   -3.1221   -0.5732 C   0  0  0  0  0  0  0  0  0  0  0  0
  -37.8159   -3.3156    0.8505 H   0  0  0  0  0  0  0  0  0  0  0  0
  -38.7450   -2.5887    2.9939 C   0  0  0  0  0  0  0  0  0  0  0  0
  -39.3038   -4.5326    6.0321 C   0  0  0  0  0  0  0  0  0  0  0  0
  -38.8598   -3.5373    4.0933 N   0  0  0  0  0  0  0  0  0  0  0  0
  -40.2187   -5.5894    5.8411 O   0  0  0  0  0  0  0  0  0  0  0  0
  -38.0371   -5.0957    5.3534 C   0  0  0  0  0  0  0  0  0  0  0  0
  -38.4465   -4.9763    3.8682 C   0  0  0  0  0  0  0  0  0  0  0  0
  -39.9053   -3.4328    5.1496 C   0  0  0  0  0  0  0  0  0  0  0  0
  -40.2883   -5.7898    4.8946 H   0  0  0  0  0  0  0  0  0  0  0  0
 23 18  1  0  0  0
 20 18  1  0  0  0
 18 21  1  0  0  0
 17 19  1  0  0  0
 23 19  1  0  0  0
 19 22  1  0  0  0
  1 13  1  0  0  0
  1 14  1  0  0  0
 10  2  1  0  0  0
 22 21  1  0  0  0
  7  3  1  0  0  0
  6  3  2  0  0  0
  4 15  2  0  0  0
 15  5  1  0  0  0
  5  6  1  0  0  0
  6 17  1  0  0  0
 14  7  2  0  0  0
  8  7  1  0  0  0
 13  8  1  0  0  0
  8  9  2  0  0  0
 10  9  1  0  0  0
 11 10  2  0  0  0
 12 11  1  0  0  0
 12 13  2  0  0  0
 15 14  1  0  0  0
 20 24  1  0  0  0
  5 16  1  0  0  0
M  END
> <minimizedAffinity>
-8.28298

$$$$
3JY0_LYG_A_1000


 24 27  0  0  0  0  0  0  0  0999 V2000
  -42.8806   -1.7761    0.0248 S   0  0  0  0  0  0  0  0  0  0  0  0
  -39.0384   -3.9593   -4.0233 Cl  0  0  0  0  0  0  0  0  0  0  0  0
  -39.4419   -2.7309    1.4904 N   0  0  0  0  0  0  0  0  0  0  0  0
  -42.8491   -1.1434    3.1250 O   0  0  0  0  0  0  0  0  0  0  0  0
  -40.7087   -1.8620    3.3297 N   0  0  0  0  0  0  0  0  0  0  0  0
  -39.6103   -2.4178    2.7391 C   0  0  0  0  0  0  0  0  0  0  0  0
  -40.5598   -2.4727    0.6974 C   0  0  0  0  0  0  0  0  0  0  0  0
  -40.6637   -2.7331   -0.7041 C   0  0  0  0  0  0  0  0  0  0  0  0
  -39.7432   -3.2611   -1.5603 C   0  0  0  0  0  0  0  0  0  0  0  0
  -40.1716   -3.3506   -2.8722 C   0  0  0  0  0  0  0  0  0  0  0  0
  -41.3927   -2.9748   -3.3669 C   0  0  0  0  0  0  0  0  0  0  0  0
  -42.3415   -2.4689   -2.5142 C   0  0  0  0  0  0  0  0  0  0  0  0
  -41.9027   -2.3701   -1.2305 C   0  0  0  0  0  0  0  0  0  0  0  0
  -41.6890   -1.9504    1.2521 C   0  0  0  0  0  0  0  0  0  0  0  0
  -41.8406   -1.5966    2.6169 C   0  0  0  0  0  0  0  0  0  0  0  0
  -40.6831   -1.6484    4.2904 H   0  0  0  0  0  0  0  0  0  0  0  0
  -38.5518   -2.7071    3.7226 C   0  0  0  0  0  0  0  0  0  0  0  0
  -36.6782   -0.1829    5.5772 C   0  0  0  0  0  0  0  0  0  0  0  0
  -37.6587   -1.7007    4.2804 N   0  0  0  0  0  0  0  0  0  0  0  0
  -35.4180   -0.6483    6.0080 O   0  0  0  0  0  0  0  0  0  0  0  0
  -36.4184    0.0637    4.0759 C   0  0  0  0  0  0  0  0  0  0  0  0
  -36.3600   -1.3936    3.5654 C   0  0  0  0  0  0  0  0  0  0  0  0
  -37.5486   -1.4340    5.7422 C   0  0  0  0  0  0  0  0  0  0  0  0
  -35.1614   -1.4213    5.4811 H   0  0  0  0  0  0  0  0  0  0  0  0
 23 18  1  0  0  0
 20 18  1  0  0  0
 18 21  1  0  0  0
 17 19  1  0  0  0
 23 19  1  0  0  0
 19 22  1  0  0  0
  1 13  1  0  0  0
  1 14  1  0  0  0
 10  2  1  0  0  0
 22 21  1  0  0  0
  7  3  1  0  0  0
  6  3  2  0  0  0
  4 15  2  0  0  0
 15  5  1  0  0  0
  5  6  1  0  0  0
  6 17  1  0  0  0
 14  7  2  0  0  0
  8  7  1  0  0  0
 13  8  1  0  0  0
  8  9  2  0  0  0
 10  9  1  0  0  0
 11 10  2  0  0  0
 12 11  1  0  0  0
 12 13  2  0  0  0
 15 14  1  0  0  0
 20 24  1  0  0  0
  5 16  1  0  0  0
M  END
> <minimizedAffinity>
-8.01051

$$$$
3JY0_LYG_A_1000


 24 27  0  0  0  0  0  0  0  0999 V2000
  -41.6215   -2.4494   -1.4073 S   0  0  0  0  0  0  0  0  0  0  0  0
  -46.0776   -0.9202    2.2968 Cl  0  0  0  0  0  0  0  0  0  0  0  0
  -40.5731   -2.2518    2.3002 N   0  0  0  0  0  0  0  0  0  0  0  0
  -38.5573   -3.1926   -1.1424 O   0  0  0  0  0  0  0  0  0  0  0  0
  -38.6051   -2.9211    1.1078 N   0  0  0  0  0  0  0  0  0  0  0  0
  -39.3176   -2.5723    2.2190 C   0  0  0  0  0  0  0  0  0  0  0  0
  -41.2274   -2.2529    1.0685 C   0  0  0  0  0  0  0  0  0  0  0  0
  -42.6021   -1.9243    0.8564 C   0  0  0  0  0  0  0  0  0  0  0  0
  -43.5568   -1.5573    1.7581 C   0  0  0  0  0  0  0  0  0  0  0  0
  -44.8054   -1.3351    1.2064 C   0  0  0  0  0  0  0  0  0  0  0  0
  -45.1526   -1.4422   -0.1145 C   0  0  0  0  0  0  0  0  0  0  0  0
  -44.1977   -1.7817   -1.0396 C   0  0  0  0  0  0  0  0  0  0  0  0
  -42.9784   -2.0141   -0.4831 C   0  0  0  0  0  0  0  0  0  0  0  0
  -40.5464   -2.5615   -0.0702 C   0  0  0  0  0  0  0  0  0  0  0  0
  -39.1783   -2.9295   -0.1296 C   0  0  0  0  0  0  0  0  0  0  0  0
  -37.6577   -3.1717    1.2018 H   0  0  0  0  0  0  0  0  0  0  0  0
  -38.4666   -2.5361    3.4215 C   0  0  0  0  0  0  0  0  0  0  0  0
  -36.8441    0.3844    4.8912 C   0  0  0  0  0  0  0  0  0  0  0  0
  -38.0331   -1.3104    4.0782 N   0  0  0  0  0  0  0  0  0  0  0  0
  -37.2067    1.5880    4.2506 O   0  0  0  0  0  0  0  0  0  0  0  0
  -38.1059    0.0898    5.7298 C   0  0  0  0  0  0  0  0  0  0  0  0
  -39.0781   -0.3549    4.6141 C   0  0  0  0  0  0  0  0  0  0  0  0
  -36.7800   -0.5926    3.7115 C   0  0  0  0  0  0  0  0  0  0  0  0
  -38.0320    1.4562    3.7581 H   0  0  0  0  0  0  0  0  0  0  0  0
 23 18  1  0  0  0
 20 18  1  0  0  0
 18 21  1  0  0  0
 17 19  1  0  0  0
 23 19  1  0  0  0
 19 22  1  0  0  0
  1 13  1  0  0  0
  1 14  1  0  0  0
 10  2  1  0  0  0
 22 21  1  0  0  0
  7  3  1  0  0  0
  6  3  2  0  0  0
  4 15  2  0  0  0
 15  5  1  0  0  0
  5  6  1  0  0  0
  6 17  1  0  0  0
 14  7  2  0  0  0
  8  7  1  0  0  0
 13  8  1  0  0  0
  8  9  2  0  0  0
 10  9  1  0  0  0
 11 10  2  0  0  0
 12 11  1  0  0  0
 12 13  2  0  0  0
 15 14  1  0  0  0
 20 24  1  0  0  0
  5 16  1  0  0  0
M  END
> <minimizedAffinity>
-7.94974

$$$$
3JY0_LYG_A_1000


 24 27  0  0  0  0  0  0  0  0999 V2000
  -45.2037   -2.2725    3.5143 S   0  0  0  0  0  0  0  0  0  0  0  0
  -42.0838   -2.0213   -1.5964 Cl  0  0  0  0  0  0  0  0  0  0  0  0
  -41.5734   -3.5381    3.8361 N   0  0  0  0  0  0  0  0  0  0  0  0
  -44.6620   -3.1568    6.5037 O   0  0  0  0  0  0  0  0  0  0  0  0
  -42.5189   -3.7245    6.0302 N   0  0  0  0  0  0  0  0  0  0  0  0
  -41.5337   -3.8565    5.0941 C   0  0  0  0  0  0  0  0  0  0  0  0
  -42.8057   -3.0251    3.4316 C   0  0  0  0  0  0  0  0  0  0  0  0
  -43.1390   -2.6094    2.1054 C   0  0  0  0  0  0  0  0  0  0  0  0
  -42.3729   -2.6067    0.9774 C   0  0  0  0  0  0  0  0  0  0  0  0
  -43.0111   -2.1065   -0.1429 C   0  0  0  0  0  0  0  0  0  0  0  0
  -44.2959   -1.6367   -0.2175 C   0  0  0  0  0  0  0  0  0  0  0  0
  -45.0905   -1.6595    0.9010 C   0  0  0  0  0  0  0  0  0  0  0  0
  -44.4466   -2.1375    1.9999 C   0  0  0  0  0  0  0  0  0  0  0  0
  -43.8272   -2.9082    4.3252 C   0  0  0  0  0  0  0  0  0  0  0  0
  -43.7517   -3.2437    5.7009 C   0  0  0  0  0  0  0  0  0  0  0  0
  -42.3353   -3.9820    6.9626 H   0  0  0  0  0  0  0  0  0  0  0  0
  -40.3288   -4.4901    5.6582 C   0  0  0  0  0  0  0  0  0  0  0  0
  -37.9429   -2.4981    7.5716 C   0  0  0  0  0  0  0  0  0  0  0  0
  -39.4280   -3.8380    6.5988 N   0  0  0  0  0  0  0  0  0  0  0  0
  -38.5588   -1.7461    8.5941 O   0  0  0  0  0  0  0  0  0  0  0  0
  -37.9526   -3.9152    8.1834 C   0  0  0  0  0  0  0  0  0  0  0  0
  -39.4534   -4.2592    8.0528 C   0  0  0  0  0  0  0  0  0  0  0  0
  -38.9879   -2.4220    6.4526 C   0  0  0  0  0  0  0  0  0  0  0  0
  -39.4292   -2.1245    8.7943 H   0  0  0  0  0  0  0  0  0  0  0  0
 23 18  1  0  0  0
 20 18  1  0  0  0
 18 21  1  0  0  0
 17 19  1  0  0  0
 23 19  1  0  0  0
 19 22  1  0  0  0
  1 13  1  0  0  0
  1 14  1  0  0  0
 10  2  1  0  0  0
 22 21  1  0  0  0
  7  3  1  0  0  0
  6  3  2  0  0  0
  4 15  2  0  0  0
 15  5  1  0  0  0
  5  6  1  0  0  0
  6 17  1  0  0  0
 14  7  2  0  0  0
  8  7  1  0  0  0
 13  8  1  0  0  0
  8  9  2  0  0  0
 10  9  1  0  0  0
 11 10  2  0  0  0
 12 11  1  0  0  0
 12 13  2  0  0  0
 15 14  1  0  0  0
 20 24  1  0  0  0
  5 16  1  0  0  0
M  END
> <minimizedAffinity>
-7.76139

$$$$
3JY0_LYG_A_1000


 24 27  0  0  0  0  0  0  0  0999 V2000
  -42.4447   -2.1439   -1.3678 S   0  0  0  0  0  0  0  0  0  0  0  0
  -37.7734   -2.8103    2.3269 Cl  0  0  0  0  0  0  0  0  0  0  0  0
  -43.3265   -1.6990    2.3617 N   0  0  0  0  0  0  0  0  0  0  0  0
  -45.5250   -1.4753   -1.0905 O   0  0  0  0  0  0  0  0  0  0  0  0
  -45.3705   -1.3297    1.1666 N   0  0  0  0  0  0  0  0  0  0  0  0
  -44.5972   -1.4440    2.2860 C   0  0  0  0  0  0  0  0  0  0  0  0
  -42.7252   -1.8992    1.1192 C   0  0  0  0  0  0  0  0  0  0  0  0
  -41.3475   -2.2114    0.9023 C   0  0  0  0  0  0  0  0  0  0  0  0
  -40.3404   -2.3732    1.8072 C   0  0  0  0  0  0  0  0  0  0  0  0
  -39.1075   -2.6473    1.2437 C   0  0  0  0  0  0  0  0  0  0  0  0
  -38.8212   -2.7707   -0.0903 C   0  0  0  0  0  0  0  0  0  0  0  0
  -39.8283   -2.6403   -1.0132 C   0  0  0  0  0  0  0  0  0  0  0  0
  -41.0322   -2.3541   -0.4483 C   0  0  0  0  0  0  0  0  0  0  0  0
  -43.4666   -1.8283   -0.0214 C   0  0  0  0  0  0  0  0  0  0  0  0
  -44.8509   -1.5267   -0.0787 C   0  0  0  0  0  0  0  0  0  0  0  0
  -46.3233   -1.1003    1.2605 H   0  0  0  0  0  0  0  0  0  0  0  0
  -45.3945   -1.2906    3.5158 C   0  0  0  0  0  0  0  0  0  0  0  0
  -44.7733   -3.2689    6.5195 C   0  0  0  0  0  0  0  0  0  0  0  0
  -45.0425   -1.8883    4.7966 N   0  0  0  0  0  0  0  0  0  0  0  0
  -43.4039   -3.5468    6.7143 O   0  0  0  0  0  0  0  0  0  0  0  0
  -44.8517   -1.7895    6.9524 C   0  0  0  0  0  0  0  0  0  0  0  0
  -44.1553   -1.1152    5.7491 C   0  0  0  0  0  0  0  0  0  0  0  0
  -44.8983   -3.3580    4.9942 C   0  0  0  0  0  0  0  0  0  0  0  0
  -42.8706   -2.9181    6.2032 H   0  0  0  0  0  0  0  0  0  0  0  0
 23 18  1  0  0  0
 20 18  1  0  0  0
 18 21  1  0  0  0
 17 19  1  0  0  0
 23 19  1  0  0  0
 19 22  1  0  0  0
  1 13  1  0  0  0
  1 14  1  0  0  0
 10  2  1  0  0  0
 22 21  1  0  0  0
  7  3  1  0  0  0
  6  3  2  0  0  0
  4 15  2  0  0  0
 15  5  1  0  0  0
  5  6  1  0  0  0
  6 17  1  0  0  0
 14  7  2  0  0  0
  8  7  1  0  0  0
 13  8  1  0  0  0
  8  9  2  0  0  0
 10  9  1  0  0  0
 11 10  2  0  0  0
 12 11  1  0  0  0
 12 13  2  0  0  0
 15 14  1  0  0  0
 20 24  1  0  0  0
  5 16  1  0  0  0
M  END
> <minimizedAffinity>
-7.62026

$$$$
3JY0_LYG_A_1000


 24 27  0  0  0  0  0  0  0  0999 V2000
  -42.6304   -1.8226   -0.8279 S   0  0  0  0  0  0  0  0  0  0  0  0
  -46.3601   -0.9616    3.7834 Cl  0  0  0  0  0  0  0  0  0  0  0  0
  -40.9574   -2.2056    2.6273 N   0  0  0  0  0  0  0  0  0  0  0  0
  -39.5777   -2.5591   -1.2161 O   0  0  0  0  0  0  0  0  0  0  0  0
  -39.2340   -2.6507    1.0228 N   0  0  0  0  0  0  0  0  0  0  0  0
  -39.7395   -2.4929    2.2813 C   0  0  0  0  0  0  0  0  0  0  0  0
  -41.8137   -2.0186    1.5424 C   0  0  0  0  0  0  0  0  0  0  0  0
  -43.1993   -1.6781    1.6251 C   0  0  0  0  0  0  0  0  0  0  0  0
  -43.9792   -1.4720    2.7244 C   0  0  0  0  0  0  0  0  0  0  0  0
  -45.3006   -1.1808    2.4384 C   0  0  0  0  0  0  0  0  0  0  0  0
  -45.8713   -1.0801    1.1970 C   0  0  0  0  0  0  0  0  0  0  0  0
  -45.0948   -1.2554    0.0792 C   0  0  0  0  0  0  0  0  0  0  0  0
  -43.8016   -1.5579    0.3734 C   0  0  0  0  0  0  0  0  0  0  0  0
  -41.3432   -2.1328    0.2691 C   0  0  0  0  0  0  0  0  0  0  0  0
  -40.0113   -2.4689   -0.0828 C   0  0  0  0  0  0  0  0  0  0  0  0
  -38.2884   -2.9009    0.9112 H   0  0  0  0  0  0  0  0  0  0  0  0
  -38.6940   -2.6381    3.3095 C   0  0  0  0  0  0  0  0  0  0  0  0
  -38.9107   -4.7445    6.2824 C   0  0  0  0  0  0  0  0  0  0  0  0
  -38.7127   -3.6518    4.3552 N   0  0  0  0  0  0  0  0  0  0  0  0
  -39.9513   -5.6937    6.2017 O   0  0  0  0  0  0  0  0  0  0  0  0
  -37.8501   -5.3709    5.3523 C   0  0  0  0  0  0  0  0  0  0  0  0
  -38.4999   -5.1022    3.9763 C   0  0  0  0  0  0  0  0  0  0  0  0
  -39.5388   -3.5299    5.5892 C   0  0  0  0  0  0  0  0  0  0  0  0
  -40.2074   -5.8148    5.2740 H   0  0  0  0  0  0  0  0  0  0  0  0
 23 18  1  0  0  0
 20 18  1  0  0  0
 18 21  1  0  0  0
 17 19  1  0  0  0
 23 19  1  0  0  0
 19 22  1  0  0  0
  1 13  1  0  0  0
  1 14  1  0  0  0
 10  2  1  0  0  0
 22 21  1  0  0  0
  7  3  1  0  0  0
  6  3  2  0  0  0
  4 15  2  0  0  0
 15  5  1  0  0  0
  5  6  1  0  0  0
  6 17  1  0  0  0
 14  7  2  0  0  0
  8  7  1  0  0  0
 13  8  1  0  0  0
  8  9  2  0  0  0
 10  9  1  0  0  0
 11 10  2  0  0  0
 12 11  1  0  0  0
 12 13  2  0  0  0
 15 14  1  0  0  0
 20 24  1  0  0  0
  5 16  1  0  0  0
M  END
> <minimizedAffinity>
-7.60200

$$$$
3JY0_LYG_A_1000


 24 27  0  0  0  0  0  0  0  0999 V2000
  -45.0132   -2.2189    3.6269 S   0  0  0  0  0  0  0  0  0  0  0  0
  -42.4132   -2.0980   -1.7714 Cl  0  0  0  0  0  0  0  0  0  0  0  0
  -41.4540   -3.7068    3.5732 N   0  0  0  0  0  0  0  0  0  0  0  0
  -44.2294   -3.1697    6.5413 O   0  0  0  0  0  0  0  0  0  0  0  0
  -42.1839   -3.8612    5.8505 N   0  0  0  0  0  0  0  0  0  0  0  0
  -41.3079   -4.0418    4.8190 C   0  0  0  0  0  0  0  0  0  0  0  0
  -42.6867   -3.1151    3.2982 C   0  0  0  0  0  0  0  0  0  0  0  0
  -43.1253   -2.6643    2.0147 C   0  0  0  0  0  0  0  0  0  0  0  0
  -42.4777   -2.6949    0.8152 C   0  0  0  0  0  0  0  0  0  0  0  0
  -43.1932   -2.1437   -0.2322 C   0  0  0  0  0  0  0  0  0  0  0  0
  -44.4475   -1.5957   -0.1740 C   0  0  0  0  0  0  0  0  0  0  0  0
  -45.1256   -1.5833    1.0190 C   0  0  0  0  0  0  0  0  0  0  0  0
  -44.4053   -2.1125    2.0445 C   0  0  0  0  0  0  0  0  0  0  0  0
  -43.6040   -2.9468    4.2910 C   0  0  0  0  0  0  0  0  0  0  0  0
  -43.4116   -3.3023    5.6501 C   0  0  0  0  0  0  0  0  0  0  0  0
  -41.9237   -4.1402    6.7581 H   0  0  0  0  0  0  0  0  0  0  0  0
  -40.0938   -4.7541    5.2549 C   0  0  0  0  0  0  0  0  0  0  0  0
  -36.7429   -4.5293    3.8256 C   0  0  0  0  0  0  0  0  0  0  0  0
  -38.7524   -4.4499    4.7756 N   0  0  0  0  0  0  0  0  0  0  0  0
  -36.6622   -3.5934    2.7729 O   0  0  0  0  0  0  0  0  0  0  0  0
  -36.7788   -3.6024    5.0593 C   0  0  0  0  0  0  0  0  0  0  0  0
  -38.2147   -3.0441    4.9402 C   0  0  0  0  0  0  0  0  0  0  0  0
  -38.1348   -5.1324    3.6040 C   0  0  0  0  0  0  0  0  0  0  0  0
  -37.4098   -2.9780    2.8295 H   0  0  0  0  0  0  0  0  0  0  0  0
 23 18  1  0  0  0
 20 18  1  0  0  0
 18 21  1  0  0  0
 17 19  1  0  0  0
 23 19  1  0  0  0
 19 22  1  0  0  0
  1 13  1  0  0  0
  1 14  1  0  0  0
 10  2  1  0  0  0
 22 21  1  0  0  0
  7  3  1  0  0  0
  6  3  2  0  0  0
  4 15  2  0  0  0
 15  5  1  0  0  0
  5  6  1  0  0  0
  6 17  1  0  0  0
 14  7  2  0  0  0
  8  7  1  0  0  0
 13  8  1  0  0  0
  8  9  2  0  0  0
 10  9  1  0  0  0
 11 10  2  0  0  0
 12 11  1  0  0  0
 12 13  2  0  0  0
 15 14  1  0  0  0
 20 24  1  0  0  0
  5 16  1  0  0  0
M  END
> <minimizedAffinity>
-7.52727

$$$$
