2J7H_AZF_A_1446


 15 15  0  0  0  0  0  0  0  0999 V2000
   -1.1457   10.1340   11.2639 O   0  0  0  0  0  0  0  0  0  0  0  0
   -1.2071   10.7708    9.9784 C   0  0  0  0  0  0  0  0  0  0  0  0
    0.1588   11.3923    9.5734 C   0  0  0  0  0  0  0  0  0  0  0  0
    0.5889   12.3808   10.5092 O   0  0  0  0  0  0  0  0  0  0  0  0
    0.1856   12.0284    8.1755 C   0  0  0  0  0  0  0  0  0  0  0  0
   -0.5927   11.2214    7.2230 N   0  0  0  0  0  0  0  0  0  0  0  0
   -1.6040    9.7538    8.9110 C   0  0  0  0  0  0  0  0  0  0  0  0
   -1.7277   10.5320    7.6784 N   0  0  0  0  0  0  0  0  0  0  0  0
   -0.8931   10.7862   11.9360 H   0  0  0  0  0  0  0  0  0  0  0  0
   -0.0288   13.1286   10.4964 H   0  0  0  0  0  0  0  0  0  0  0  0
    0.0427   10.5252    6.8331 H   0  0  0  0  0  0  0  0  0  0  0  0
   -2.0096    9.8882    6.9392 H   0  0  0  0  0  0  0  0  0  0  0  0
   -2.8883    9.0021    9.2362 C   0  0  0  0  0  0  0  0  0  0  0  0
   -4.0000    9.8367    8.8875 O   0  0  0  0  0  0  0  0  0  0  0  0
   -3.9543   10.6638    9.3923 H   0  0  0  0  0  0  0  0  0  0  0  0
  1  2  1  0  0  0
  2  3  1  0  0  0
  2  7  1  0  0  0
  3  4  1  0  0  0
  3  5  1  0  0  0
  5  6  1  0  0  0
  6  8  1  0  0  0
  7 13  1  0  0  0
  7  8  1  0  0  0
 13 14  1  0  0  0
  1  9  1  0  0  0
  4 10  1  0  0  0
  6 11  1  0  0  0
 14 15  1  0  0  0
  8 12  1  0  0  0
M  END
> <minimizedAffinity>
-6.76799

$$$$
2J7H_AZF_A_1446


 15 15  0  0  0  0  0  0  0  0999 V2000
   -2.5117    8.9346    8.4136 O   0  0  0  0  0  0  0  0  0  0  0  0
   -1.4057    9.7278    8.8713 C   0  0  0  0  0  0  0  0  0  0  0  0
   -1.2470   11.0337    8.0435 C   0  0  0  0  0  0  0  0  0  0  0  0
   -1.0207   10.7598    6.6609 O   0  0  0  0  0  0  0  0  0  0  0  0
   -0.1259   11.9670    8.5251 C   0  0  0  0  0  0  0  0  0  0  0  0
   -0.0639   11.9884    9.9948 N   0  0  0  0  0  0  0  0  0  0  0  0
   -1.6100   10.1122   10.3348 C   0  0  0  0  0  0  0  0  0  0  0  0
   -0.3887   10.8247   10.7099 N   0  0  0  0  0  0  0  0  0  0  0  0
   -2.3745    8.6946    7.4838 H   0  0  0  0  0  0  0  0  0  0  0  0
   -0.1708   10.3040    6.5564 H   0  0  0  0  0  0  0  0  0  0  0  0
   -0.7016   12.7196   10.3095 H   0  0  0  0  0  0  0  0  0  0  0  0
   -0.4783   11.0860   11.6917 H   0  0  0  0  0  0  0  0  0  0  0  0
   -1.8708    8.9192   11.2453 C   0  0  0  0  0  0  0  0  0  0  0  0
   -1.0720    9.0697   12.4257 O   0  0  0  0  0  0  0  0  0  0  0  0
   -0.1348    9.1093   12.1790 H   0  0  0  0  0  0  0  0  0  0  0  0
  1  2  1  0  0  0
  2  3  1  0  0  0
  2  7  1  0  0  0
  3  4  1  0  0  0
  3  5  1  0  0  0
  5  6  1  0  0  0
  6  8  1  0  0  0
  7 13  1  0  0  0
  7  8  1  0  0  0
 13 14  1  0  0  0
  1  9  1  0  0  0
  4 10  1  0  0  0
  6 11  1  0  0  0
 14 15  1  0  0  0
  8 12  1  0  0  0
M  END
> <minimizedAffinity>
-6.70223

$$$$
2J7H_AZF_A_1446


 15 15  0  0  0  0  0  0  0  0999 V2000
   -1.0730   10.5665    7.1465 O   0  0  0  0  0  0  0  0  0  0  0  0
   -1.4324   10.5556    8.5367 C   0  0  0  0  0  0  0  0  0  0  0  0
   -2.1674    9.2453    8.9352 C   0  0  0  0  0  0  0  0  0  0  0  0
   -3.3723    9.0668    8.1908 O   0  0  0  0  0  0  0  0  0  0  0  0
   -2.5180    9.1338   10.4266 C   0  0  0  0  0  0  0  0  0  0  0  0
   -1.4320    9.6768   11.2571 N   0  0  0  0  0  0  0  0  0  0  0  0
   -0.1796   10.6817    9.4002 C   0  0  0  0  0  0  0  0  0  0  0  0
   -0.6765   10.7571   10.7741 N   0  0  0  0  0  0  0  0  0  0  0  0
   -1.8737   10.4861    6.6049 H   0  0  0  0  0  0  0  0  0  0  0  0
   -3.9990    9.7720    8.4160 H   0  0  0  0  0  0  0  0  0  0  0  0
   -0.7802    8.9121   11.4331 H   0  0  0  0  0  0  0  0  0  0  0  0
    0.1335   10.8594   11.3854 H   0  0  0  0  0  0  0  0  0  0  0  0
    0.6844   11.8848    9.0448 C   0  0  0  0  0  0  0  0  0  0  0  0
    0.7329   12.7567   10.1812 O   0  0  0  0  0  0  0  0  0  0  0  0
   -0.1661   13.0406   10.4095 H   0  0  0  0  0  0  0  0  0  0  0  0
  1  2  1  0  0  0
  2  3  1  0  0  0
  2  7  1  0  0  0
  3  4  1  0  0  0
  3  5  1  0  0  0
  5  6  1  0  0  0
  6  8  1  0  0  0
  7 13  1  0  0  0
  7  8  1  0  0  0
 13 14  1  0  0  0
  1  9  1  0  0  0
  4 10  1  0  0  0
  6 11  1  0  0  0
 14 15  1  0  0  0
  8 12  1  0  0  0
M  END
> <minimizedAffinity>
-6.55634

$$$$
2J7H_AZF_A_1446


 15 15  0  0  0  0  0  0  0  0999 V2000
    0.5724    8.8639   10.1282 O   0  0  0  0  0  0  0  0  0  0  0  0
   -0.4767    9.4836    9.3685 C   0  0  0  0  0  0  0  0  0  0  0  0
   -1.8560    8.8183    9.6349 C   0  0  0  0  0  0  0  0  0  0  0  0
   -1.8515    7.4334    9.2888 O   0  0  0  0  0  0  0  0  0  0  0  0
   -3.0380    9.4782    8.9089 C   0  0  0  0  0  0  0  0  0  0  0  0
   -2.8908   10.9419    8.9012 N   0  0  0  0  0  0  0  0  0  0  0  0
   -0.5814   10.9624    9.7335 C   0  0  0  0  0  0  0  0  0  0  0  0
   -1.6039   11.4993    8.8356 N   0  0  0  0  0  0  0  0  0  0  0  0
    0.6326    7.9254    9.8907 H   0  0  0  0  0  0  0  0  0  0  0  0
   -1.7200    7.3396    8.3323 H   0  0  0  0  0  0  0  0  0  0  0  0
   -3.3231   11.2896    9.7571 H   0  0  0  0  0  0  0  0  0  0  0  0
   -1.6931   12.4952    9.0370 H   0  0  0  0  0  0  0  0  0  0  0  0
    0.7366   11.7148    9.6035 C   0  0  0  0  0  0  0  0  0  0  0  0
    0.7438   12.7807   10.5615 O   0  0  0  0  0  0  0  0  0  0  0  0
   -0.0038   13.3745   10.3901 H   0  0  0  0  0  0  0  0  0  0  0  0
  1  2  1  0  0  0
  2  3  1  0  0  0
  2  7  1  0  0  0
  3  4  1  0  0  0
  3  5  1  0  0  0
  5  6  1  0  0  0
  6  8  1  0  0  0
  7 13  1  0  0  0
  7  8  1  0  0  0
 13 14  1  0  0  0
  1  9  1  0  0  0
  4 10  1  0  0  0
  6 11  1  0  0  0
 14 15  1  0  0  0
  8 12  1  0  0  0
M  END
> <minimizedAffinity>
-6.40027

$$$$
2J7H_AZF_A_1446


 15 15  0  0  0  0  0  0  0  0999 V2000
    0.0647   11.7572   10.6584 O   0  0  0  0  0  0  0  0  0  0  0  0
   -0.5055   10.6765    9.9041 C   0  0  0  0  0  0  0  0  0  0  0  0
   -1.5717    9.8969   10.7235 C   0  0  0  0  0  0  0  0  0  0  0  0
   -1.0170    9.3307   11.9108 O   0  0  0  0  0  0  0  0  0  0  0  0
   -2.2761    8.7701    9.9528 C   0  0  0  0  0  0  0  0  0  0  0  0
   -2.5352    9.1754    8.5626 N   0  0  0  0  0  0  0  0  0  0  0  0
   -1.1743   11.2169    8.6425 C   0  0  0  0  0  0  0  0  0  0  0  0
   -1.6253   10.0286    7.9182 N   0  0  0  0  0  0  0  0  0  0  0  0
    0.4873   11.4060   11.4577 H   0  0  0  0  0  0  0  0  0  0  0  0
   -0.3590    8.6593   11.6720 H   0  0  0  0  0  0  0  0  0  0  0  0
   -3.4415    9.6433    8.5522 H   0  0  0  0  0  0  0  0  0  0  0  0
   -2.0658   10.3473    7.0552 H   0  0  0  0  0  0  0  0  0  0  0  0
   -0.2548   12.0827    7.7910 C   0  0  0  0  0  0  0  0  0  0  0  0
    1.1011   11.7143    8.0738 O   0  0  0  0  0  0  0  0  0  0  0  0
    1.2835   11.8515    9.0166 H   0  0  0  0  0  0  0  0  0  0  0  0
  1  2  1  0  0  0
  2  3  1  0  0  0
  2  7  1  0  0  0
  3  4  1  0  0  0
  3  5  1  0  0  0
  5  6  1  0  0  0
  6  8  1  0  0  0
  7 13  1  0  0  0
  7  8  1  0  0  0
 13 14  1  0  0  0
  1  9  1  0  0  0
  4 10  1  0  0  0
  6 11  1  0  0  0
 14 15  1  0  0  0
  8 12  1  0  0  0
M  END
> <minimizedAffinity>
-6.29191

$$$$
2J7H_AZF_A_1446


 15 15  0  0  0  0  0  0  0  0999 V2000
   -0.3869    9.2680    7.6355 O   0  0  0  0  0  0  0  0  0  0  0  0
   -1.0530    9.4792    8.8899 C   0  0  0  0  0  0  0  0  0  0  0  0
   -0.8753    8.2709    9.8513 C   0  0  0  0  0  0  0  0  0  0  0  0
   -1.4056    7.0684    9.2939 O   0  0  0  0  0  0  0  0  0  0  0  0
   -1.5022    8.4585   11.2411 C   0  0  0  0  0  0  0  0  0  0  0  0
   -1.3122    9.8385   11.7142 N   0  0  0  0  0  0  0  0  0  0  0  0
   -0.4910   10.7219    9.5761 C   0  0  0  0  0  0  0  0  0  0  0  0
   -1.3053   10.8866   10.7802 N   0  0  0  0  0  0  0  0  0  0  0  0
   -0.7493    8.4774    7.2060 H   0  0  0  0  0  0  0  0  0  0  0  0
   -2.3663    7.1555    9.1921 H   0  0  0  0  0  0  0  0  0  0  0  0
   -0.4160    9.8663   12.2004 H   0  0  0  0  0  0  0  0  0  0  0  0
   -0.9708   11.7212   11.2619 H   0  0  0  0  0  0  0  0  0  0  0  0
   -0.5216   11.9665    8.6985 C   0  0  0  0  0  0  0  0  0  0  0  0
    0.5938   11.9123    7.8001 O   0  0  0  0  0  0  0  0  0  0  0  0
    1.4182   11.8773    8.3099 H   0  0  0  0  0  0  0  0  0  0  0  0
  1  2  1  0  0  0
  2  3  1  0  0  0
  2  7  1  0  0  0
  3  4  1  0  0  0
  3  5  1  0  0  0
  5  6  1  0  0  0
  6  8  1  0  0  0
  7 13  1  0  0  0
  7  8  1  0  0  0
 13 14  1  0  0  0
  1  9  1  0  0  0
  4 10  1  0  0  0
  6 11  1  0  0  0
 14 15  1  0  0  0
  8 12  1  0  0  0
M  END
> <minimizedAffinity>
-6.21549

$$$$
2J7H_AZF_A_1446


 15 15  0  0  0  0  0  0  0  0999 V2000
   -1.7190   10.8819   11.0067 O   0  0  0  0  0  0  0  0  0  0  0  0
   -0.8287    9.9121   10.4334 C   0  0  0  0  0  0  0  0  0  0  0  0
   -0.9163    8.5423   11.1626 C   0  0  0  0  0  0  0  0  0  0  0  0
   -0.5767    8.6555   12.5445 O   0  0  0  0  0  0  0  0  0  0  0  0
   -0.0423    7.4345   10.5553 C   0  0  0  0  0  0  0  0  0  0  0  0
   -0.0505    7.5136    9.0864 N   0  0  0  0  0  0  0  0  0  0  0  0
   -1.1740    9.6927    8.9624 C   0  0  0  0  0  0  0  0  0  0  0  0
   -0.1503    8.7710    8.4699 N   0  0  0  0  0  0  0  0  0  0  0  0
   -1.4933   11.0156   11.9406 H   0  0  0  0  0  0  0  0  0  0  0  0
    0.3545    8.9135   12.6285 H   0  0  0  0  0  0  0  0  0  0  0  0
   -0.8426    6.9587    8.7622 H   0  0  0  0  0  0  0  0  0  0  0  0
   -0.3363    8.6105    7.4799 H   0  0  0  0  0  0  0  0  0  0  0  0
   -1.2136   10.9802    8.1494 C   0  0  0  0  0  0  0  0  0  0  0  0
   -0.9900   10.6512    6.7725 O   0  0  0  0  0  0  0  0  0  0  0  0
   -0.1271   10.2181    6.6796 H   0  0  0  0  0  0  0  0  0  0  0  0
  1  2  1  0  0  0
  2  3  1  0  0  0
  2  7  1  0  0  0
  3  4  1  0  0  0
  3  5  1  0  0  0
  5  6  1  0  0  0
  6  8  1  0  0  0
  7 13  1  0  0  0
  7  8  1  0  0  0
 13 14  1  0  0  0
  1  9  1  0  0  0
  4 10  1  0  0  0
  6 11  1  0  0  0
 14 15  1  0  0  0
  8 12  1  0  0  0
M  END
> <minimizedAffinity>
-6.06290

$$$$
2J7H_AZF_A_1446


 15 15  0  0  0  0  0  0  0  0999 V2000
   -0.0165    7.5409    8.6231 O   0  0  0  0  0  0  0  0  0  0  0  0
   -0.2465    8.7772    9.3163 C   0  0  0  0  0  0  0  0  0  0  0  0
   -1.2172    9.7073    8.5362 C   0  0  0  0  0  0  0  0  0  0  0  0
   -0.7078   10.0407    7.2450 O   0  0  0  0  0  0  0  0  0  0  0  0
   -1.5657   11.0195    9.2548 C   0  0  0  0  0  0  0  0  0  0  0  0
   -1.7292   10.7928   10.6991 N   0  0  0  0  0  0  0  0  0  0  0  0
   -0.8519    8.5001   10.6902 C   0  0  0  0  0  0  0  0  0  0  0  0
   -0.9474    9.8121   11.3301 N   0  0  0  0  0  0  0  0  0  0  0  0
    0.3679    7.7254    7.7519 H   0  0  0  0  0  0  0  0  0  0  0  0
    0.1019   10.5659    7.3426 H   0  0  0  0  0  0  0  0  0  0  0  0
   -2.7055   10.5403   10.8527 H   0  0  0  0  0  0  0  0  0  0  0  0
   -1.3343    9.6683   12.2629 H   0  0  0  0  0  0  0  0  0  0  0  0
   -0.0376    7.5213   11.5264 C   0  0  0  0  0  0  0  0  0  0  0  0
    1.3531    7.7728   11.2880 O   0  0  0  0  0  0  0  0  0  0  0  0
    1.5459    7.6549   10.3447 H   0  0  0  0  0  0  0  0  0  0  0  0
  1  2  1  0  0  0
  2  3  1  0  0  0
  2  7  1  0  0  0
  3  4  1  0  0  0
  3  5  1  0  0  0
  5  6  1  0  0  0
  6  8  1  0  0  0
  7 13  1  0  0  0
  7  8  1  0  0  0
 13 14  1  0  0  0
  1  9  1  0  0  0
  4 10  1  0  0  0
  6 11  1  0  0  0
 14 15  1  0  0  0
  8 12  1  0  0  0
M  END
> <minimizedAffinity>
-5.59380

$$$$
2J7H_AZF_A_1446


 15 15  0  0  0  0  0  0  0  0999 V2000
    0.6977   10.6030    9.8719 O   0  0  0  0  0  0  0  0  0  0  0  0
   -0.6325   10.0677    9.7954 C   0  0  0  0  0  0  0  0  0  0  0  0
   -1.4497   10.7085    8.6390 C   0  0  0  0  0  0  0  0  0  0  0  0
   -1.5765   12.1212    8.7998 O   0  0  0  0  0  0  0  0  0  0  0  0
   -2.8607   10.1304    8.4526 C   0  0  0  0  0  0  0  0  0  0  0  0
   -2.8569    8.6743    8.6624 N   0  0  0  0  0  0  0  0  0  0  0  0
   -0.5754    8.5600    9.5612 C   0  0  0  0  0  0  0  0  0  0  0  0
   -1.9703    8.1209    9.5998 N   0  0  0  0  0  0  0  0  0  0  0  0
    0.6529   11.5604   10.0207 H   0  0  0  0  0  0  0  0  0  0  0  0
   -2.0973   12.3106    9.5959 H   0  0  0  0  0  0  0  0  0  0  0  0
   -2.6461    8.2438    7.7621 H   0  0  0  0  0  0  0  0  0  0  0  0
   -1.9749    7.1101    9.4631 H   0  0  0  0  0  0  0  0  0  0  0  0
    0.2789    7.8190   10.5816 C   0  0  0  0  0  0  0  0  0  0  0  0
    0.0091    8.3663   11.8783 O   0  0  0  0  0  0  0  0  0  0  0  0
    0.2228    9.3125   11.8807 H   0  0  0  0  0  0  0  0  0  0  0  0
  1  2  1  0  0  0
  2  3  1  0  0  0
  2  7  1  0  0  0
  3  4  1  0  0  0
  3  5  1  0  0  0
  5  6  1  0  0  0
  6  8  1  0  0  0
  7 13  1  0  0  0
  7  8  1  0  0  0
 13 14  1  0  0  0
  1  9  1  0  0  0
  4 10  1  0  0  0
  6 11  1  0  0  0
 14 15  1  0  0  0
  8 12  1  0  0  0
M  END
> <minimizedAffinity>
-5.52880

$$$$
2J7H_AZF_A_1446


 15 15  0  0  0  0  0  0  0  0999 V2000
   -2.0230   11.7727    8.9516 O   0  0  0  0  0  0  0  0  0  0  0  0
   -1.3740   10.4943    8.8712 C   0  0  0  0  0  0  0  0  0  0  0  0
   -0.0002   10.4949    9.5982 C   0  0  0  0  0  0  0  0  0  0  0  0
    0.8955   11.4542    9.0368 O   0  0  0  0  0  0  0  0  0  0  0  0
    0.7183    9.1372    9.6143 C   0  0  0  0  0  0  0  0  0  0  0  0
   -0.2444    8.0428    9.8129 N   0  0  0  0  0  0  0  0  0  0  0  0
   -2.2525    9.4223    9.5116 C   0  0  0  0  0  0  0  0  0  0  0  0
   -1.5387    8.1660    9.2829 N   0  0  0  0  0  0  0  0  0  0  0  0
   -1.4590   12.4479    8.5430 H   0  0  0  0  0  0  0  0  0  0  0  0
    1.1067   11.2037    8.1238 H   0  0  0  0  0  0  0  0  0  0  0  0
   -0.3455    7.9135   10.8197 H   0  0  0  0  0  0  0  0  0  0  0  0
   -2.1040    7.4175    9.6836 H   0  0  0  0  0  0  0  0  0  0  0  0
   -3.6668    9.3794    8.9475 C   0  0  0  0  0  0  0  0  0  0  0  0
   -3.6486    9.9650    7.6395 O   0  0  0  0  0  0  0  0  0  0  0  0
   -3.3353   10.8810    7.6997 H   0  0  0  0  0  0  0  0  0  0  0  0
  1  2  1  0  0  0
  2  3  1  0  0  0
  2  7  1  0  0  0
  3  4  1  0  0  0
  3  5  1  0  0  0
  5  6  1  0  0  0
  6  8  1  0  0  0
  7 13  1  0  0  0
  7  8  1  0  0  0
 13 14  1  0  0  0
  1  9  1  0  0  0
  4 10  1  0  0  0
  6 11  1  0  0  0
 14 15  1  0  0  0
  8 12  1  0  0  0
M  END
> <minimizedAffinity>
-5.29194

$$$$
