2BOH_IIA_B_1


 34 38  0  0  0  0  0  0  0  0999 V2000
    2.2233    7.6464   25.6375 C   0  0  0  0  0  0  0  0  0  0  0  0
    3.3932    8.1392   24.8802 C   0  0  0  0  0  0  0  0  0  0  0  0
    4.0896    7.3197   23.8527 C   0  0  0  0  0  0  0  0  0  0  0  0
    3.5641    5.9415   23.6194 C   0  0  0  0  0  0  0  0  0  0  0  0
    2.4116    5.4408   24.3712 C   0  0  0  0  0  0  0  0  0  0  0  0
    1.7452    6.2852   25.3719 C   0  0  0  0  0  0  0  0  0  0  0  0
    5.1887    7.4605   22.9544 N   0  0  0  0  0  0  0  0  0  0  0  0
    5.3183    6.3035   22.3065 C   0  0  0  0  0  0  0  0  0  0  0  0
    4.3551    5.3475   22.6451 C   0  0  0  0  0  0  0  0  0  0  0  0
    6.3649    5.9254   21.5087 C   0  0  0  0  0  0  0  0  0  0  0  0
    5.9735    5.0473   20.6084 N   0  0  0  0  0  0  0  0  0  0  0  0
    7.5164    6.3471   21.6325 O   0  0  0  0  0  0  0  0  0  0  0  0
    5.0309    4.9367   20.3469 H   0  0  0  0  0  0  0  0  0  0  0  0
    7.0171    4.2777   20.0490 C   0  0  0  0  0  0  0  0  0  0  0  0
    6.6918    2.8037   20.2581 C   0  0  0  0  0  0  0  0  0  0  0  0
    7.7169    1.8753   19.6112 C   0  0  0  0  0  0  0  0  0  0  0  0
    7.8053    2.2227   18.1481 N   0  0  0  0  0  0  0  0  0  0  0  0
    8.1785    3.6441   17.8788 C   0  0  0  0  0  0  0  0  0  0  0  0
    7.1383    4.5386   18.5502 C   0  0  0  0  0  0  0  0  0  0  0  0
    8.6821    1.2721   17.4191 C   0  0  0  0  0  0  0  0  0  0  0  0
    9.9451    0.9454   18.1934 C   0  0  0  0  0  0  0  0  0  0  0  0
    9.0575    1.8898   16.0972 C   0  0  0  0  0  0  0  0  0  0  0  0
    6.1305    8.5467   22.6065 C   0  0  0  0  0  0  0  0  0  0  0  0
    7.2218    8.8017   23.6154 C   0  0  0  0  0  0  0  0  0  0  0  0
    7.9065    9.9498   23.6027 N   0  0  0  0  0  0  0  0  0  0  0  0
    8.9125    9.8323   24.5689 O   0  0  0  0  0  0  0  0  0  0  0  0
    8.7775    8.6069   25.1532 C   0  0  0  0  0  0  0  0  0  0  0  0
    7.6253    7.8869   24.6739 C   0  0  0  0  0  0  0  0  0  0  0  0
    9.7846    8.0622   26.0457 C   0  0  0  0  0  0  0  0  0  0  0  0
   11.3527    8.5572   25.5582 S   0  0  0  0  0  0  0  0  0  0  0  0
   12.0255    7.6413   26.9124 C   0  0  0  0  0  0  0  0  0  0  0  0
   11.1119    6.9838   27.6428 C   0  0  0  0  0  0  0  0  0  0  0  0
    9.7743    7.2202   27.1036 C   0  0  0  0  0  0  0  0  0  0  0  0
   13.7088    7.6553   27.0981 Cl  0  0  0  0  0  0  0  0  0  0  0  0
  1  2  2  0  0  0
  1  6  1  0  0  0
  2  3  1  0  0  0
  3  4  2  0  0  0
  3  7  1  0  0  0
  4  5  1  0  0  0
  4  9  1  0  0  0
  5  6  2  0  0  0
  7  8  1  0  0  0
  7 23  1  0  0  0
  8  9  2  0  0  0
  8 10  1  0  0  0
 10 11  1  0  0  0
 10 12  2  0  0  0
 11 14  1  0  0  0
 14 15  1  0  0  0
 14 19  1  0  0  0
 15 16  1  0  0  0
 16 17  1  0  0  0
 17 18  1  0  0  0
 17 20  1  0  0  0
 18 19  1  0  0  0
 20 21  1  0  0  0
 20 22  1  0  0  0
 23 24  1  0  0  0
 24 25  2  0  0  0
 24 28  1  0  0  0
 25 26  1  0  0  0
 26 27  1  0  0  0
 27 28  2  0  0  0
 27 29  1  0  0  0
 29 30  1  0  0  0
 29 33  2  0  0  0
 30 31  1  0  0  0
 31 32  2  0  0  0
 31 34  1  0  0  0
 32 33  1  0  0  0
 11 13  1  0  0  0
M  END
> <minimizedAffinity>
-9.76499

$$$$
2BOH_IIA_B_1


 34 38  0  0  0  0  0  0  0  0999 V2000
   10.3087    9.1043   24.3181 C   0  0  0  0  0  0  0  0  0  0  0  0
    9.3221    8.9373   23.2302 C   0  0  0  0  0  0  0  0  0  0  0  0
    7.9466    8.4217   23.4637 C   0  0  0  0  0  0  0  0  0  0  0  0
    7.5939    8.0529   24.8672 C   0  0  0  0  0  0  0  0  0  0  0  0
    8.5673    8.2058   25.9503 C   0  0  0  0  0  0  0  0  0  0  0  0
    9.9138    8.7277   25.6798 C   0  0  0  0  0  0  0  0  0  0  0  0
    6.7736    8.1530   22.6978 N   0  0  0  0  0  0  0  0  0  0  0  0
    5.8638    7.6538   23.5333 C   0  0  0  0  0  0  0  0  0  0  0  0
    6.2866    7.5854   24.8648 C   0  0  0  0  0  0  0  0  0  0  0  0
    4.6748    7.0665   23.1922 C   0  0  0  0  0  0  0  0  0  0  0  0
    4.7525    5.7561   23.2995 N   0  0  0  0  0  0  0  0  0  0  0  0
    3.6765    7.6887   22.8244 O   0  0  0  0  0  0  0  0  0  0  0  0
    5.4376    5.3060   23.8448 H   0  0  0  0  0  0  0  0  0  0  0  0
    3.7725    5.0497   22.5680 C   0  0  0  0  0  0  0  0  0  0  0  0
    4.4793    4.1665   21.5470 C   0  0  0  0  0  0  0  0  0  0  0  0
    3.5126    3.2884   20.7561 C   0  0  0  0  0  0  0  0  0  0  0  0
    2.7121    2.4724   21.7371 N   0  0  0  0  0  0  0  0  0  0  0  0
    1.9489    3.2867   22.7304 C   0  0  0  0  0  0  0  0  0  0  0  0
    2.9473    4.1573   23.4910 C   0  0  0  0  0  0  0  0  0  0  0  0
    1.8430    1.4907   21.0410 C   0  0  0  0  0  0  0  0  0  0  0  0
    1.9109    0.1131   21.6728 C   0  0  0  0  0  0  0  0  0  0  0  0
    2.2859    1.3987   19.6039 C   0  0  0  0  0  0  0  0  0  0  0  0
    6.3817    8.3176   21.2811 C   0  0  0  0  0  0  0  0  0  0  0  0
    6.8393    7.2201   20.3537 C   0  0  0  0  0  0  0  0  0  0  0  0
    6.7295    7.3583   19.0286 N   0  0  0  0  0  0  0  0  0  0  0  0
    7.1216    6.1404   18.4605 O   0  0  0  0  0  0  0  0  0  0  0  0
    7.4817    5.3100   19.4811 C   0  0  0  0  0  0  0  0  0  0  0  0
    7.4367    5.9583   20.7670 C   0  0  0  0  0  0  0  0  0  0  0  0
    7.7335    3.8955   19.2730 C   0  0  0  0  0  0  0  0  0  0  0  0
    8.1187    3.5874   17.6304 S   0  0  0  0  0  0  0  0  0  0  0  0
    8.2819    1.8722   18.0259 C   0  0  0  0  0  0  0  0  0  0  0  0
    8.0194    1.5733   19.3074 C   0  0  0  0  0  0  0  0  0  0  0  0
    7.6676    2.7860   20.0431 C   0  0  0  0  0  0  0  0  0  0  0  0
    8.6901    0.8203   16.7627 Cl  0  0  0  0  0  0  0  0  0  0  0  0
  1  2  2  0  0  0
  1  6  1  0  0  0
  2  3  1  0  0  0
  3  4  2  0  0  0
  3  7  1  0  0  0
  4  5  1  0  0  0
  4  9  1  0  0  0
  5  6  2  0  0  0
  7  8  1  0  0  0
  7 23  1  0  0  0
  8  9  2  0  0  0
  8 10  1  0  0  0
 10 11  1  0  0  0
 10 12  2  0  0  0
 11 14  1  0  0  0
 14 15  1  0  0  0
 14 19  1  0  0  0
 15 16  1  0  0  0
 16 17  1  0  0  0
 17 18  1  0  0  0
 17 20  1  0  0  0
 18 19  1  0  0  0
 20 21  1  0  0  0
 20 22  1  0  0  0
 23 24  1  0  0  0
 24 25  2  0  0  0
 24 28  1  0  0  0
 25 26  1  0  0  0
 26 27  1  0  0  0
 27 28  2  0  0  0
 27 29  1  0  0  0
 29 30  1  0  0  0
 29 33  2  0  0  0
 30 31  1  0  0  0
 31 32  2  0  0  0
 31 34  1  0  0  0
 32 33  1  0  0  0
 11 13  1  0  0  0
M  END
> <minimizedAffinity>
-9.09149

$$$$
2BOH_IIA_B_1


 34 38  0  0  0  0  0  0  0  0999 V2000
    8.7360    3.5196   18.8740 C   0  0  0  0  0  0  0  0  0  0  0  0
    8.0880    4.8268   19.1108 C   0  0  0  0  0  0  0  0  0  0  0  0
    6.7911    4.9639   19.8260 C   0  0  0  0  0  0  0  0  0  0  0  0
    6.1416    3.7027   20.2927 C   0  0  0  0  0  0  0  0  0  0  0  0
    6.7711    2.4022   20.0546 C   0  0  0  0  0  0  0  0  0  0  0  0
    8.0580    2.3097   19.3518 C   0  0  0  0  0  0  0  0  0  0  0  0
    5.9134    6.0121   20.2332 N   0  0  0  0  0  0  0  0  0  0  0  0
    4.8658    5.4405   20.8256 C   0  0  0  0  0  0  0  0  0  0  0  0
    4.9490    4.0471   20.9144 C   0  0  0  0  0  0  0  0  0  0  0  0
    3.6922    6.0509   21.1790 C   0  0  0  0  0  0  0  0  0  0  0  0
    3.6717    6.3138   22.4695 N   0  0  0  0  0  0  0  0  0  0  0  0
    2.7798    6.3049   20.3903 O   0  0  0  0  0  0  0  0  0  0  0  0
    4.4890    6.3626   23.0162 H   0  0  0  0  0  0  0  0  0  0  0  0
    2.3811    6.5199   23.0045 C   0  0  0  0  0  0  0  0  0  0  0  0
    2.2247    5.6354   24.2354 C   0  0  0  0  0  0  0  0  0  0  0  0
    0.8902    5.8447   24.9472 C   0  0  0  0  0  0  0  0  0  0  0  0
    0.7688    7.3056   25.2937 N   0  0  0  0  0  0  0  0  0  0  0  0
    0.8566    8.2222   24.1172 C   0  0  0  0  0  0  0  0  0  0  0  0
    2.1967    7.9747   23.4273 C   0  0  0  0  0  0  0  0  0  0  0  0
   -0.4423    7.5680   26.1112 C   0  0  0  0  0  0  0  0  0  0  0  0
   -1.7230    7.2890   25.3476 C   0  0  0  0  0  0  0  0  0  0  0  0
   -0.4245    9.0132   26.5369 C   0  0  0  0  0  0  0  0  0  0  0  0
    5.9319    7.4891   20.1563 C   0  0  0  0  0  0  0  0  0  0  0  0
    6.5586    8.1884   21.3362 C   0  0  0  0  0  0  0  0  0  0  0  0
    6.4010    9.5044   21.5103 N   0  0  0  0  0  0  0  0  0  0  0  0
    7.1906    9.8651   22.6086 O   0  0  0  0  0  0  0  0  0  0  0  0
    7.7839    8.7293   23.0765 C   0  0  0  0  0  0  0  0  0  0  0  0
    7.3506    7.5472   22.3762 C   0  0  0  0  0  0  0  0  0  0  0  0
    8.8402    8.7641   24.0718 C   0  0  0  0  0  0  0  0  0  0  0  0
    8.4612    7.7328   25.3887 S   0  0  0  0  0  0  0  0  0  0  0  0
    9.9851    8.2032   26.1513 C   0  0  0  0  0  0  0  0  0  0  0  0
   10.6936    9.1079   25.4583 C   0  0  0  0  0  0  0  0  0  0  0  0
    9.9904    9.4579   24.2259 C   0  0  0  0  0  0  0  0  0  0  0  0
   10.3440    7.5153   27.6567 Cl  0  0  0  0  0  0  0  0  0  0  0  0
  1  2  2  0  0  0
  1  6  1  0  0  0
  2  3  1  0  0  0
  3  4  2  0  0  0
  3  7  1  0  0  0
  4  5  1  0  0  0
  4  9  1  0  0  0
  5  6  2  0  0  0
  7  8  1  0  0  0
  7 23  1  0  0  0
  8  9  2  0  0  0
  8 10  1  0  0  0
 10 11  1  0  0  0
 10 12  2  0  0  0
 11 14  1  0  0  0
 14 15  1  0  0  0
 14 19  1  0  0  0
 15 16  1  0  0  0
 16 17  1  0  0  0
 17 18  1  0  0  0
 17 20  1  0  0  0
 18 19  1  0  0  0
 20 21  1  0  0  0
 20 22  1  0  0  0
 23 24  1  0  0  0
 24 25  2  0  0  0
 24 28  1  0  0  0
 25 26  1  0  0  0
 26 27  1  0  0  0
 27 28  2  0  0  0
 27 29  1  0  0  0
 29 30  1  0  0  0
 29 33  2  0  0  0
 30 31  1  0  0  0
 31 32  2  0  0  0
 31 34  1  0  0  0
 32 33  1  0  0  0
 11 13  1  0  0  0
M  END
> <minimizedAffinity>
-9.03372

$$$$
2BOH_IIA_B_1


 34 38  0  0  0  0  0  0  0  0999 V2000
    8.6680    7.7486   26.0856 C   0  0  0  0  0  0  0  0  0  0  0  0
    7.6992    7.6719   24.9718 C   0  0  0  0  0  0  0  0  0  0  0  0
    7.9516    8.2890   23.6422 C   0  0  0  0  0  0  0  0  0  0  0  0
    9.2417    9.0218   23.4727 C   0  0  0  0  0  0  0  0  0  0  0  0
   10.2037    9.1114   24.5730 C   0  0  0  0  0  0  0  0  0  0  0  0
    9.9210    8.4801   25.8692 C   0  0  0  0  0  0  0  0  0  0  0  0
    7.2869    8.4016   22.3851 N   0  0  0  0  0  0  0  0  0  0  0  0
    8.0650    9.1378   21.5929 C   0  0  0  0  0  0  0  0  0  0  0  0
    9.2725    9.5287   22.1806 C   0  0  0  0  0  0  0  0  0  0  0  0
    7.7259    9.6680   20.3768 C   0  0  0  0  0  0  0  0  0  0  0  0
    6.9489   10.7210   20.5258 N   0  0  0  0  0  0  0  0  0  0  0  0
    8.0940    9.2073   19.2946 O   0  0  0  0  0  0  0  0  0  0  0  0
    6.8957   11.2289   21.3674 H   0  0  0  0  0  0  0  0  0  0  0  0
    6.1983   11.0615   19.3791 C   0  0  0  0  0  0  0  0  0  0  0  0
    4.8838   10.2917   19.4196 C   0  0  0  0  0  0  0  0  0  0  0  0
    3.9523   10.6527   18.2649 C   0  0  0  0  0  0  0  0  0  0  0  0
    3.7254   12.1415   18.2945 N   0  0  0  0  0  0  0  0  0  0  0  0
    4.9766   12.9525   18.1993 C   0  0  0  0  0  0  0  0  0  0  0  0
    5.8842   12.5549   19.3618 C   0  0  0  0  0  0  0  0  0  0  0  0
    2.7192   12.5549   17.2844 C   0  0  0  0  0  0  0  0  0  0  0  0
    2.1816   11.3775   16.4932 C   0  0  0  0  0  0  0  0  0  0  0  0
    3.3684   13.5318   16.3388 C   0  0  0  0  0  0  0  0  0  0  0  0
    6.0191    7.8944   21.8164 C   0  0  0  0  0  0  0  0  0  0  0  0
    6.0594    6.4717   21.3183 C   0  0  0  0  0  0  0  0  0  0  0  0
    5.2840    5.5340   21.8720 N   0  0  0  0  0  0  0  0  0  0  0  0
    5.6362    4.3155   21.2797 O   0  0  0  0  0  0  0  0  0  0  0  0
    6.6091    4.5742   20.3591 C   0  0  0  0  0  0  0  0  0  0  0  0
    6.8879    5.9814   20.2259 C   0  0  0  0  0  0  0  0  0  0  0  0
    7.3610    3.5142   19.7122 C   0  0  0  0  0  0  0  0  0  0  0  0
    7.7414    3.9451   18.0962 S   0  0  0  0  0  0  0  0  0  0  0  0
    8.5578    2.3883   17.9094 C   0  0  0  0  0  0  0  0  0  0  0  0
    8.4985    1.5997   18.9934 C   0  0  0  0  0  0  0  0  0  0  0  0
    7.7591    2.2700   20.0611 C   0  0  0  0  0  0  0  0  0  0  0  0
    9.2596    2.0562   16.4042 Cl  0  0  0  0  0  0  0  0  0  0  0  0
  1  2  2  0  0  0
  1  6  1  0  0  0
  2  3  1  0  0  0
  3  4  2  0  0  0
  3  7  1  0  0  0
  4  5  1  0  0  0
  4  9  1  0  0  0
  5  6  2  0  0  0
  7  8  1  0  0  0
  7 23  1  0  0  0
  8  9  2  0  0  0
  8 10  1  0  0  0
 10 11  1  0  0  0
 10 12  2  0  0  0
 11 14  1  0  0  0
 14 15  1  0  0  0
 14 19  1  0  0  0
 15 16  1  0  0  0
 16 17  1  0  0  0
 17 18  1  0  0  0
 17 20  1  0  0  0
 18 19  1  0  0  0
 20 21  1  0  0  0
 20 22  1  0  0  0
 23 24  1  0  0  0
 24 25  2  0  0  0
 24 28  1  0  0  0
 25 26  1  0  0  0
 26 27  1  0  0  0
 27 28  2  0  0  0
 27 29  1  0  0  0
 29 30  1  0  0  0
 29 33  2  0  0  0
 30 31  1  0  0  0
 31 32  2  0  0  0
 31 34  1  0  0  0
 32 33  1  0  0  0
 11 13  1  0  0  0
M  END
> <minimizedAffinity>
-8.25810

$$$$
2BOH_IIA_B_1


 34 38  0  0  0  0  0  0  0  0999 V2000
    8.2791    1.2723   18.1735 C   0  0  0  0  0  0  0  0  0  0  0  0
    6.9895    1.8287   18.6344 C   0  0  0  0  0  0  0  0  0  0  0  0
    6.8393    3.2341   19.0973 C   0  0  0  0  0  0  0  0  0  0  0  0
    8.0704    4.0795   19.0971 C   0  0  0  0  0  0  0  0  0  0  0  0
    9.3544    3.5349   18.6513 C   0  0  0  0  0  0  0  0  0  0  0  0
    9.4595    2.1431   18.1924 C   0  0  0  0  0  0  0  0  0  0  0  0
    5.7990    4.0844   19.5766 N   0  0  0  0  0  0  0  0  0  0  0  0
    6.3526    5.2628   19.8595 C   0  0  0  0  0  0  0  0  0  0  0  0
    7.7198    5.3357   19.5733 C   0  0  0  0  0  0  0  0  0  0  0  0
    5.7685    6.2995   20.5368 C   0  0  0  0  0  0  0  0  0  0  0  0
    5.7407    6.0561   21.8310 N   0  0  0  0  0  0  0  0  0  0  0  0
    5.3218    7.3137   19.9975 O   0  0  0  0  0  0  0  0  0  0  0  0
    6.3323    5.3978   22.2620 H   0  0  0  0  0  0  0  0  0  0  0  0
    4.7927    6.8172   22.5495 C   0  0  0  0  0  0  0  0  0  0  0  0
    3.4750    6.0519   22.5652 C   0  0  0  0  0  0  0  0  0  0  0  0
    2.3981    6.7473   23.3946 C   0  0  0  0  0  0  0  0  0  0  0  0
    2.9383    6.9521   24.7857 N   0  0  0  0  0  0  0  0  0  0  0  0
    4.2019    7.7474   24.8399 C   0  0  0  0  0  0  0  0  0  0  0  0
    5.2477    7.0269   23.9911 C   0  0  0  0  0  0  0  0  0  0  0  0
    1.8994    7.5003   25.6935 C   0  0  0  0  0  0  0  0  0  0  0  0
    0.4967    7.1230   25.2562 C   0  0  0  0  0  0  0  0  0  0  0  0
    2.0262    9.0016   25.7093 C   0  0  0  0  0  0  0  0  0  0  0  0
    4.3421    3.9457   19.7912 C   0  0  0  0  0  0  0  0  0  0  0  0
    3.9386    2.9628   20.8614 C   0  0  0  0  0  0  0  0  0  0  0  0
    4.6256    2.8813   22.0053 N   0  0  0  0  0  0  0  0  0  0  0  0
    4.0849    1.8107   22.7271 O   0  0  0  0  0  0  0  0  0  0  0  0
    3.0601    1.2954   21.9886 C   0  0  0  0  0  0  0  0  0  0  0  0
    2.8071    2.0495   20.7873 C   0  0  0  0  0  0  0  0  0  0  0  0
    2.4163    0.0403   22.3318 C   0  0  0  0  0  0  0  0  0  0  0  0
    2.6970   -0.3502   23.9781 S   0  0  0  0  0  0  0  0  0  0  0  0
    1.7523   -1.8275   23.7532 C   0  0  0  0  0  0  0  0  0  0  0  0
    1.3013   -2.0098   22.5027 C   0  0  0  0  0  0  0  0  0  0  0  0
    1.7233   -0.8999   21.6507 C   0  0  0  0  0  0  0  0  0  0  0  0
    1.5724   -2.8450   25.0951 Cl  0  0  0  0  0  0  0  0  0  0  0  0
  1  2  2  0  0  0
  1  6  1  0  0  0
  2  3  1  0  0  0
  3  4  2  0  0  0
  3  7  1  0  0  0
  4  5  1  0  0  0
  4  9  1  0  0  0
  5  6  2  0  0  0
  7  8  1  0  0  0
  7 23  1  0  0  0
  8  9  2  0  0  0
  8 10  1  0  0  0
 10 11  1  0  0  0
 10 12  2  0  0  0
 11 14  1  0  0  0
 14 15  1  0  0  0
 14 19  1  0  0  0
 15 16  1  0  0  0
 16 17  1  0  0  0
 17 18  1  0  0  0
 17 20  1  0  0  0
 18 19  1  0  0  0
 20 21  1  0  0  0
 20 22  1  0  0  0
 23 24  1  0  0  0
 24 25  2  0  0  0
 24 28  1  0  0  0
 25 26  1  0  0  0
 26 27  1  0  0  0
 27 28  2  0  0  0
 27 29  1  0  0  0
 29 30  1  0  0  0
 29 33  2  0  0  0
 30 31  1  0  0  0
 31 32  2  0  0  0
 31 34  1  0  0  0
 32 33  1  0  0  0
 11 13  1  0  0  0
M  END
> <minimizedAffinity>
-8.23162

$$$$
2BOH_IIA_B_1


 34 38  0  0  0  0  0  0  0  0999 V2000
    8.1717    1.7594   19.4984 C   0  0  0  0  0  0  0  0  0  0  0  0
    7.1345    2.7384   19.8863 C   0  0  0  0  0  0  0  0  0  0  0  0
    6.6223    3.7791   18.9553 C   0  0  0  0  0  0  0  0  0  0  0  0
    7.2194    3.8127   17.5869 C   0  0  0  0  0  0  0  0  0  0  0  0
    8.2541    2.8532   17.1961 C   0  0  0  0  0  0  0  0  0  0  0  0
    8.7270    1.8338   18.1426 C   0  0  0  0  0  0  0  0  0  0  0  0
    5.6616    4.8335   18.9727 N   0  0  0  0  0  0  0  0  0  0  0  0
    5.7149    5.4342   17.7846 C   0  0  0  0  0  0  0  0  0  0  0  0
    6.6211    4.8544   16.8908 C   0  0  0  0  0  0  0  0  0  0  0  0
    5.1198    6.6180   17.4392 C   0  0  0  0  0  0  0  0  0  0  0  0
    5.9246    7.6332   17.6773 N   0  0  0  0  0  0  0  0  0  0  0  0
    3.9802    6.7109   16.9792 O   0  0  0  0  0  0  0  0  0  0  0  0
    6.8988    7.5293   17.7742 H   0  0  0  0  0  0  0  0  0  0  0  0
    5.2752    8.8829   17.7822 C   0  0  0  0  0  0  0  0  0  0  0  0
    5.8770    9.6392   18.9604 C   0  0  0  0  0  0  0  0  0  0  0  0
    5.3054   11.0468   19.1124 C   0  0  0  0  0  0  0  0  0  0  0  0
    5.5174   11.7807   17.8142 N   0  0  0  0  0  0  0  0  0  0  0  0
    4.8988   11.1157   16.6279 C   0  0  0  0  0  0  0  0  0  0  0  0
    5.4864    9.7102   16.5173 C   0  0  0  0  0  0  0  0  0  0  0  0
    5.1111   13.2042   17.9257 C   0  0  0  0  0  0  0  0  0  0  0  0
    5.1311   13.6971   19.3603 C   0  0  0  0  0  0  0  0  0  0  0  0
    3.7166   13.3453   17.3731 C   0  0  0  0  0  0  0  0  0  0  0  0
    4.6813    5.3473   19.9538 C   0  0  0  0  0  0  0  0  0  0  0  0
    5.2409    6.2842   20.9945 C   0  0  0  0  0  0  0  0  0  0  0  0
    4.5122    7.3071   21.4523 N   0  0  0  0  0  0  0  0  0  0  0  0
    5.3419    8.0467   22.3033 O   0  0  0  0  0  0  0  0  0  0  0  0
    6.5511    7.4164   22.3451 C   0  0  0  0  0  0  0  0  0  0  0  0
    6.5601    6.1820   21.6022 C   0  0  0  0  0  0  0  0  0  0  0  0
    7.7182    8.0254   22.9572 C   0  0  0  0  0  0  0  0  0  0  0  0
    7.7609    7.6897   24.6386 S   0  0  0  0  0  0  0  0  0  0  0  0
    9.2570    8.6246   24.7524 C   0  0  0  0  0  0  0  0  0  0  0  0
    9.6540    9.1750   23.5949 C   0  0  0  0  0  0  0  0  0  0  0  0
    8.7147    8.8327   22.5289 C   0  0  0  0  0  0  0  0  0  0  0  0
    9.9731    8.7591   26.2813 Cl  0  0  0  0  0  0  0  0  0  0  0  0
  1  2  2  0  0  0
  1  6  1  0  0  0
  2  3  1  0  0  0
  3  4  2  0  0  0
  3  7  1  0  0  0
  4  5  1  0  0  0
  4  9  1  0  0  0
  5  6  2  0  0  0
  7  8  1  0  0  0
  7 23  1  0  0  0
  8  9  2  0  0  0
  8 10  1  0  0  0
 10 11  1  0  0  0
 10 12  2  0  0  0
 11 14  1  0  0  0
 14 15  1  0  0  0
 14 19  1  0  0  0
 15 16  1  0  0  0
 16 17  1  0  0  0
 17 18  1  0  0  0
 17 20  1  0  0  0
 18 19  1  0  0  0
 20 21  1  0  0  0
 20 22  1  0  0  0
 23 24  1  0  0  0
 24 25  2  0  0  0
 24 28  1  0  0  0
 25 26  1  0  0  0
 26 27  1  0  0  0
 27 28  2  0  0  0
 27 29  1  0  0  0
 29 30  1  0  0  0
 29 33  2  0  0  0
 30 31  1  0  0  0
 31 32  2  0  0  0
 31 34  1  0  0  0
 32 33  1  0  0  0
 11 13  1  0  0  0
M  END
> <minimizedAffinity>
-8.23108

$$$$
2BOH_IIA_B_1


 34 38  0  0  0  0  0  0  0  0999 V2000
    9.0336    2.2023   16.5614 C   0  0  0  0  0  0  0  0  0  0  0  0
    7.8621    3.0188   16.9428 C   0  0  0  0  0  0  0  0  0  0  0  0
    7.2785    2.9988   18.3108 C   0  0  0  0  0  0  0  0  0  0  0  0
    7.9222    2.0895   19.3053 C   0  0  0  0  0  0  0  0  0  0  0  0
    9.0774    1.2696   18.9346 C   0  0  0  0  0  0  0  0  0  0  0  0
    9.6302    1.3249   17.5744 C   0  0  0  0  0  0  0  0  0  0  0  0
    6.2117    3.6318   19.0150 N   0  0  0  0  0  0  0  0  0  0  0  0
    6.2033    3.1312   20.2497 C   0  0  0  0  0  0  0  0  0  0  0  0
    7.2243    2.2085   20.4996 C   0  0  0  0  0  0  0  0  0  0  0  0
    5.2257    3.2988   21.1937 C   0  0  0  0  0  0  0  0  0  0  0  0
    4.3918    2.2794   21.1897 N   0  0  0  0  0  0  0  0  0  0  0  0
    5.1402    4.2804   21.9340 O   0  0  0  0  0  0  0  0  0  0  0  0
    4.6236    1.4031   20.8055 H   0  0  0  0  0  0  0  0  0  0  0  0
    3.1378    2.5465   21.7818 C   0  0  0  0  0  0  0  0  0  0  0  0
    2.0465    2.1410   20.7987 C   0  0  0  0  0  0  0  0  0  0  0  0
    0.6420    2.3068   21.3742 C   0  0  0  0  0  0  0  0  0  0  0  0
    0.5627    1.5120   22.6513 N   0  0  0  0  0  0  0  0  0  0  0  0
    1.5734    1.9045   23.6793 C   0  0  0  0  0  0  0  0  0  0  0  0
    2.9607    1.7361   23.0629 C   0  0  0  0  0  0  0  0  0  0  0  0
   -0.8158    1.5107   23.2022 C   0  0  0  0  0  0  0  0  0  0  0  0
   -1.7264    2.4821   22.4751 C   0  0  0  0  0  0  0  0  0  0  0  0
   -0.7464    1.8921   24.6581 C   0  0  0  0  0  0  0  0  0  0  0  0
    5.2019    4.6625   18.6896 C   0  0  0  0  0  0  0  0  0  0  0  0
    5.6764    6.0892   18.8051 C   0  0  0  0  0  0  0  0  0  0  0  0
    6.2115    6.7163   17.7528 N   0  0  0  0  0  0  0  0  0  0  0  0
    6.6550    7.9639   18.2072 O   0  0  0  0  0  0  0  0  0  0  0  0
    6.3426    8.0514   19.5323 C   0  0  0  0  0  0  0  0  0  0  0  0
    5.5972    6.9121   20.0037 C   0  0  0  0  0  0  0  0  0  0  0  0
    6.8492    9.1187   20.3758 C   0  0  0  0  0  0  0  0  0  0  0  0
    7.1409   10.5321   19.4491 S   0  0  0  0  0  0  0  0  0  0  0  0
    7.6884   11.3431   20.9214 C   0  0  0  0  0  0  0  0  0  0  0  0
    7.6799   10.5666   22.0157 C   0  0  0  0  0  0  0  0  0  0  0  0
    7.1996    9.2285   21.6771 C   0  0  0  0  0  0  0  0  0  0  0  0
    8.1979   12.9519   20.7771 Cl  0  0  0  0  0  0  0  0  0  0  0  0
  1  2  2  0  0  0
  1  6  1  0  0  0
  2  3  1  0  0  0
  3  4  2  0  0  0
  3  7  1  0  0  0
  4  5  1  0  0  0
  4  9  1  0  0  0
  5  6  2  0  0  0
  7  8  1  0  0  0
  7 23  1  0  0  0
  8  9  2  0  0  0
  8 10  1  0  0  0
 10 11  1  0  0  0
 10 12  2  0  0  0
 11 14  1  0  0  0
 14 15  1  0  0  0
 14 19  1  0  0  0
 15 16  1  0  0  0
 16 17  1  0  0  0
 17 18  1  0  0  0
 17 20  1  0  0  0
 18 19  1  0  0  0
 20 21  1  0  0  0
 20 22  1  0  0  0
 23 24  1  0  0  0
 24 25  2  0  0  0
 24 28  1  0  0  0
 25 26  1  0  0  0
 26 27  1  0  0  0
 27 28  2  0  0  0
 27 29  1  0  0  0
 29 30  1  0  0  0
 29 33  2  0  0  0
 30 31  1  0  0  0
 31 32  2  0  0  0
 31 34  1  0  0  0
 32 33  1  0  0  0
 11 13  1  0  0  0
M  END
> <minimizedAffinity>
-8.20443

$$$$
2BOH_IIA_B_1


 34 38  0  0  0  0  0  0  0  0999 V2000
    9.2214    1.2971   18.9867 C   0  0  0  0  0  0  0  0  0  0  0  0
    8.0030    2.0899   19.2549 C   0  0  0  0  0  0  0  0  0  0  0  0
    7.2885    2.8502   18.1949 C   0  0  0  0  0  0  0  0  0  0  0  0
    7.8689    2.7980   16.8199 C   0  0  0  0  0  0  0  0  0  0  0  0
    9.0808    2.0231   16.5461 C   0  0  0  0  0  0  0  0  0  0  0  0
    9.7523    1.2777   17.6194 C   0  0  0  0  0  0  0  0  0  0  0  0
    6.1303    3.6754   18.0834 N   0  0  0  0  0  0  0  0  0  0  0  0
    6.0608    4.0873   16.8182 C   0  0  0  0  0  0  0  0  0  0  0  0
    7.0694    3.5772   15.9945 C   0  0  0  0  0  0  0  0  0  0  0  0
    5.2342    5.0577   16.3182 C   0  0  0  0  0  0  0  0  0  0  0  0
    5.8865    6.1907   16.1577 N   0  0  0  0  0  0  0  0  0  0  0  0
    4.0399    4.8868   16.0667 O   0  0  0  0  0  0  0  0  0  0  0  0
    6.8680    6.2361   16.0958 H   0  0  0  0  0  0  0  0  0  0  0  0
    5.0623    7.3350   16.0818 C   0  0  0  0  0  0  0  0  0  0  0  0
    5.1352    8.0685   17.4155 C   0  0  0  0  0  0  0  0  0  0  0  0
    4.3455    9.3753   17.4146 C   0  0  0  0  0  0  0  0  0  0  0  0
    4.8541   10.2287   16.2824 N   0  0  0  0  0  0  0  0  0  0  0  0
    4.7547    9.5839   14.9384 C   0  0  0  0  0  0  0  0  0  0  0  0
    5.5458    8.2781   14.9837 C   0  0  0  0  0  0  0  0  0  0  0  0
    4.2297   11.5754   16.2983 C   0  0  0  0  0  0  0  0  0  0  0  0
    4.7518   12.4379   17.4318 C   0  0  0  0  0  0  0  0  0  0  0  0
    2.7402   11.4071   16.4498 C   0  0  0  0  0  0  0  0  0  0  0  0
    5.0625    4.1197   19.0055 C   0  0  0  0  0  0  0  0  0  0  0  0
    5.5202    4.9835   20.1537 C   0  0  0  0  0  0  0  0  0  0  0  0
    4.9578    4.8661   21.3607 N   0  0  0  0  0  0  0  0  0  0  0  0
    5.5085    5.8717   22.1638 O   0  0  0  0  0  0  0  0  0  0  0  0
    6.4146    6.5519   21.4039 C   0  0  0  0  0  0  0  0  0  0  0  0
    6.5804    5.9796   20.0921 C   0  0  0  0  0  0  0  0  0  0  0  0
    7.0156    7.7963   21.8486 C   0  0  0  0  0  0  0  0  0  0  0  0
    6.6995    9.0532   20.7254 S   0  0  0  0  0  0  0  0  0  0  0  0
    7.6161   10.1587   21.7564 C   0  0  0  0  0  0  0  0  0  0  0  0
    8.1475    9.5846   22.8467 C   0  0  0  0  0  0  0  0  0  0  0  0
    7.8048    8.1644   22.8830 C   0  0  0  0  0  0  0  0  0  0  0  0
    7.7595   11.7644   21.2373 Cl  0  0  0  0  0  0  0  0  0  0  0  0
  1  2  2  0  0  0
  1  6  1  0  0  0
  2  3  1  0  0  0
  3  4  2  0  0  0
  3  7  1  0  0  0
  4  5  1  0  0  0
  4  9  1  0  0  0
  5  6  2  0  0  0
  7  8  1  0  0  0
  7 23  1  0  0  0
  8  9  2  0  0  0
  8 10  1  0  0  0
 10 11  1  0  0  0
 10 12  2  0  0  0
 11 14  1  0  0  0
 14 15  1  0  0  0
 14 19  1  0  0  0
 15 16  1  0  0  0
 16 17  1  0  0  0
 17 18  1  0  0  0
 17 20  1  0  0  0
 18 19  1  0  0  0
 20 21  1  0  0  0
 20 22  1  0  0  0
 23 24  1  0  0  0
 24 25  2  0  0  0
 24 28  1  0  0  0
 25 26  1  0  0  0
 26 27  1  0  0  0
 27 28  2  0  0  0
 27 29  1  0  0  0
 29 30  1  0  0  0
 29 33  2  0  0  0
 30 31  1  0  0  0
 31 32  2  0  0  0
 31 34  1  0  0  0
 32 33  1  0  0  0
 11 13  1  0  0  0
M  END
> <minimizedAffinity>
-8.18169

$$$$
2BOH_IIA_B_1


 34 38  0  0  0  0  0  0  0  0999 V2000
    8.1799    4.6925   19.2077 C   0  0  0  0  0  0  0  0  0  0  0  0
    7.7760    5.9416   19.8871 C   0  0  0  0  0  0  0  0  0  0  0  0
    6.6658    5.9970   20.8753 C   0  0  0  0  0  0  0  0  0  0  0  0
    5.9440    4.7191   21.1511 C   0  0  0  0  0  0  0  0  0  0  0  0
    6.3304    3.4784   20.4762 C   0  0  0  0  0  0  0  0  0  0  0  0
    7.4395    3.4634   19.5127 C   0  0  0  0  0  0  0  0  0  0  0  0
    6.0338    6.9723   21.7025 N   0  0  0  0  0  0  0  0  0  0  0  0
    5.0443    6.3580   22.3496 C   0  0  0  0  0  0  0  0  0  0  0  0
    4.9469    4.9893   22.0787 C   0  0  0  0  0  0  0  0  0  0  0  0
    4.0533    6.9532   23.0835 C   0  0  0  0  0  0  0  0  0  0  0  0
    2.9404    7.0384   22.3843 N   0  0  0  0  0  0  0  0  0  0  0  0
    4.1972    7.3610   24.2376 O   0  0  0  0  0  0  0  0  0  0  0  0
    2.7619    6.4758   21.5964 H   0  0  0  0  0  0  0  0  0  0  0  0
    2.0242    8.0033   22.8576 C   0  0  0  0  0  0  0  0  0  0  0  0
    1.6363    8.9083   21.6946 C   0  0  0  0  0  0  0  0  0  0  0  0
    0.5771    9.9394   22.0765 C   0  0  0  0  0  0  0  0  0  0  0  0
   -0.6151    9.2030   22.6291 N   0  0  0  0  0  0  0  0  0  0  0  0
   -0.3077    8.3414   23.8104 C   0  0  0  0  0  0  0  0  0  0  0  0
    0.7611    7.3337   23.3919 C   0  0  0  0  0  0  0  0  0  0  0  0
   -1.7449   10.1280   22.8972 C   0  0  0  0  0  0  0  0  0  0  0  0
   -2.0572   11.0143   21.7063 C   0  0  0  0  0  0  0  0  0  0  0  0
   -1.3818   10.9927   24.0763 C   0  0  0  0  0  0  0  0  0  0  0  0
    6.2441    8.4092   21.9830 C   0  0  0  0  0  0  0  0  0  0  0  0
    7.3684    8.7220   22.9381 C   0  0  0  0  0  0  0  0  0  0  0  0
    8.2710    9.6628   22.6429 N   0  0  0  0  0  0  0  0  0  0  0  0
    9.2363    9.6303   23.6562 O   0  0  0  0  0  0  0  0  0  0  0  0
    8.8586    8.6718   24.5505 C   0  0  0  0  0  0  0  0  0  0  0  0
    7.5827    8.0845   24.2295 C   0  0  0  0  0  0  0  0  0  0  0  0
    9.7383    8.2170   25.6120 C   0  0  0  0  0  0  0  0  0  0  0  0
   11.3728    8.5734   25.2341 S   0  0  0  0  0  0  0  0  0  0  0  0
   11.8530    7.8302   26.7646 C   0  0  0  0  0  0  0  0  0  0  0  0
   10.8349    7.3201   27.4744 C   0  0  0  0  0  0  0  0  0  0  0  0
    9.5740    7.5333   26.7669 C   0  0  0  0  0  0  0  0  0  0  0  0
   13.5070    7.8009   27.1274 Cl  0  0  0  0  0  0  0  0  0  0  0  0
  1  2  2  0  0  0
  1  6  1  0  0  0
  2  3  1  0  0  0
  3  4  2  0  0  0
  3  7  1  0  0  0
  4  5  1  0  0  0
  4  9  1  0  0  0
  5  6  2  0  0  0
  7  8  1  0  0  0
  7 23  1  0  0  0
  8  9  2  0  0  0
  8 10  1  0  0  0
 10 11  1  0  0  0
 10 12  2  0  0  0
 11 14  1  0  0  0
 14 15  1  0  0  0
 14 19  1  0  0  0
 15 16  1  0  0  0
 16 17  1  0  0  0
 17 18  1  0  0  0
 17 20  1  0  0  0
 18 19  1  0  0  0
 20 21  1  0  0  0
 20 22  1  0  0  0
 23 24  1  0  0  0
 24 25  2  0  0  0
 24 28  1  0  0  0
 25 26  1  0  0  0
 26 27  1  0  0  0
 27 28  2  0  0  0
 27 29  1  0  0  0
 29 30  1  0  0  0
 29 33  2  0  0  0
 30 31  1  0  0  0
 31 32  2  0  0  0
 31 34  1  0  0  0
 32 33  1  0  0  0
 11 13  1  0  0  0
M  END
> <minimizedAffinity>
-8.15103

$$$$
2BOH_IIA_B_1


 34 38  0  0  0  0  0  0  0  0999 V2000
    3.9370   10.2196   15.7617 C   0  0  0  0  0  0  0  0  0  0  0  0
    4.1998    8.9758   16.5159 C   0  0  0  0  0  0  0  0  0  0  0  0
    5.1306    8.9191   17.6746 C   0  0  0  0  0  0  0  0  0  0  0  0
    5.8209   10.1897   18.0479 C   0  0  0  0  0  0  0  0  0  0  0  0
    5.5745   11.4248   17.3011 C   0  0  0  0  0  0  0  0  0  0  0  0
    4.6400   11.4415   16.1674 C   0  0  0  0  0  0  0  0  0  0  0  0
    5.5991    7.9479   18.6085 N   0  0  0  0  0  0  0  0  0  0  0  0
    6.4796    8.5569   19.4015 C   0  0  0  0  0  0  0  0  0  0  0  0
    6.6461    9.9191   19.1312 C   0  0  0  0  0  0  0  0  0  0  0  0
    7.3246    7.9583   20.2973 C   0  0  0  0  0  0  0  0  0  0  0  0
    6.7666    7.8823   21.4879 N   0  0  0  0  0  0  0  0  0  0  0  0
    8.4569    7.5587   20.0194 O   0  0  0  0  0  0  0  0  0  0  0  0
    5.7937    7.9441   21.6252 H   0  0  0  0  0  0  0  0  0  0  0  0
    7.6786    7.7050   22.5516 C   0  0  0  0  0  0  0  0  0  0  0  0
    8.6859    8.8478   22.5159 C   0  0  0  0  0  0  0  0  0  0  0  0
    9.6717    8.8026   23.6810 C   0  0  0  0  0  0  0  0  0  0  0  0
    8.8810    8.7986   24.9631 N   0  0  0  0  0  0  0  0  0  0  0  0
    7.9147    7.6652   25.0819 C   0  0  0  0  0  0  0  0  0  0  0  0
    6.9558    7.7387   23.8953 C   0  0  0  0  0  0  0  0  0  0  0  0
    9.7712    8.8939   26.1472 C   0  0  0  0  0  0  0  0  0  0  0  0
   11.1785    9.3215   25.7756 C   0  0  0  0  0  0  0  0  0  0  0  0
    9.8236    7.5431   26.8126 C   0  0  0  0  0  0  0  0  0  0  0  0
    5.3183    6.5195   18.8706 C   0  0  0  0  0  0  0  0  0  0  0  0
    6.2351    5.5442   18.1762 C   0  0  0  0  0  0  0  0  0  0  0  0
    6.1044    5.2993   16.8685 N   0  0  0  0  0  0  0  0  0  0  0  0
    7.0079    4.2769   16.5555 O   0  0  0  0  0  0  0  0  0  0  0  0
    7.6766    3.9570   17.7008 C   0  0  0  0  0  0  0  0  0  0  0  0
    7.3208    4.8078   18.8078 C   0  0  0  0  0  0  0  0  0  0  0  0
    8.5338    2.7891   17.7935 C   0  0  0  0  0  0  0  0  0  0  0  0
    7.9223    1.5144   16.8226 S   0  0  0  0  0  0  0  0  0  0  0  0
    9.2813    0.5112   17.3440 C   0  0  0  0  0  0  0  0  0  0  0  0
   10.1032    1.1070   18.2214 C   0  0  0  0  0  0  0  0  0  0  0  0
    9.6361    2.4624   18.5052 C   0  0  0  0  0  0  0  0  0  0  0  0
    9.3606   -1.0662   16.7323 Cl  0  0  0  0  0  0  0  0  0  0  0  0
  1  2  2  0  0  0
  1  6  1  0  0  0
  2  3  1  0  0  0
  3  4  2  0  0  0
  3  7  1  0  0  0
  4  5  1  0  0  0
  4  9  1  0  0  0
  5  6  2  0  0  0
  7  8  1  0  0  0
  7 23  1  0  0  0
  8  9  2  0  0  0
  8 10  1  0  0  0
 10 11  1  0  0  0
 10 12  2  0  0  0
 11 14  1  0  0  0
 14 15  1  0  0  0
 14 19  1  0  0  0
 15 16  1  0  0  0
 16 17  1  0  0  0
 17 18  1  0  0  0
 17 20  1  0  0  0
 18 19  1  0  0  0
 20 21  1  0  0  0
 20 22  1  0  0  0
 23 24  1  0  0  0
 24 25  2  0  0  0
 24 28  1  0  0  0
 25 26  1  0  0  0
 26 27  1  0  0  0
 27 28  2  0  0  0
 27 29  1  0  0  0
 29 30  1  0  0  0
 29 33  2  0  0  0
 30 31  1  0  0  0
 31 32  2  0  0  0
 31 34  1  0  0  0
 32 33  1  0  0  0
 11 13  1  0  0  0
M  END
> <minimizedAffinity>
-8.07784

$$$$
