5NIH_8VE_B_303


 18 19  0  0  0  0  0  0  0  0999 V2000
  -56.8869   83.7246   29.5453 N   0  0  0  0  0  0  0  0  0  0  0  0
  -56.6103   86.4215   28.1359 N   0  0  0  0  0  0  0  0  0  0  0  0
  -58.5675   85.1727   28.6526 C   0  0  0  0  0  0  0  0  0  0  0  0
  -58.0502   86.3458   27.7910 C   0  0  0  0  0  0  0  0  0  0  0  0
  -56.6345   82.8858   30.7304 C   0  0  0  0  0  0  0  0  0  0  0  0
  -58.4645   83.8148   28.0180 C   0  0  0  0  0  0  0  0  0  0  0  0
  -57.5828   83.0523   28.5282 N   0  0  0  0  0  0  0  0  0  0  0  0
  -56.5440   86.1659   29.5835 C   0  0  0  0  0  0  0  0  0  0  0  0
  -57.5526   85.0248   29.7801 C   0  0  0  0  0  0  0  0  0  0  0  0
  -56.0826   85.7147   27.6237 H   0  0  0  0  0  0  0  0  0  0  0  0
  -59.3561   83.3312   26.9093 C   0  0  0  0  0  0  0  0  0  0  0  0
  -60.6049   83.5351   27.0678 O   0  0  0  0  0  0  0  0  0  0  0  0
  -58.8323   82.7985   25.9069 O   0  0  0  0  0  0  0  0  0  0  0  0
  -60.9174   83.9418   27.8520 H   0  0  0  0  0  0  0  0  0  0  0  0
  -58.7107   87.6913   28.1067 C   0  0  0  0  0  0  0  0  0  0  0  0
  -59.7554   87.6985   28.8068 O   0  0  0  0  0  0  0  0  0  0  0  0
  -58.1687   88.7126   27.6402 O   0  0  0  0  0  0  0  0  0  0  0  0
  -57.3897   88.6359   27.1253 H   0  0  0  0  0  0  0  0  0  0  0  0
  5  1  1  0  0  0
  7  1  1  0  0  0
  7  6  2  0  0  0
  1  9  1  0  0  0
 13 11  2  0  0  0
  8  2  1  0  0  0
  8  9  1  0  0  0
  6 11  1  0  0  0
  6  3  1  0  0  0
  2  4  1  0  0  0
 11 12  1  0  0  0
  9  3  1  0  0  0
  3  4  1  0  0  0
  4 15  1  0  0  0
 15 16  2  0  0  0
 15 17  1  0  0  0
  2 10  1  0  0  0
 12 14  1  0  0  0
 17 18  1  0  0  0
M  END
> <minimizedAffinity>
-1.13915

$$$$
5NIH_8VE_B_303


 18 19  0  0  0  0  0  0  0  0999 V2000
  -58.1958   84.0570   31.5010 N   0  0  0  0  0  0  0  0  0  0  0  0
  -57.4479   82.9550   28.7510 N   0  0  0  0  0  0  0  0  0  0  0  0
  -58.2255   85.1191   29.3587 C   0  0  0  0  0  0  0  0  0  0  0  0
  -58.0128   84.1853   28.1467 C   0  0  0  0  0  0  0  0  0  0  0  0
  -57.8135   84.3415   32.8956 C   0  0  0  0  0  0  0  0  0  0  0  0
  -59.5549   84.9874   30.0461 C   0  0  0  0  0  0  0  0  0  0  0  0
  -59.5102   84.4449   31.1962 N   0  0  0  0  0  0  0  0  0  0  0  0
  -56.5278   83.4244   29.7990 C   0  0  0  0  0  0  0  0  0  0  0  0
  -57.3017   84.5824   30.4458 C   0  0  0  0  0  0  0  0  0  0  0  0
  -58.1891   82.3832   29.1562 H   0  0  0  0  0  0  0  0  0  0  0  0
  -60.8506   85.5004   29.4839 C   0  0  0  0  0  0  0  0  0  0  0  0
  -61.0923   86.7375   29.6774 O   0  0  0  0  0  0  0  0  0  0  0  0
  -61.5832   84.7117   28.8481 O   0  0  0  0  0  0  0  0  0  0  0  0
  -60.4894   87.2617   30.1670 H   0  0  0  0  0  0  0  0  0  0  0  0
  -57.0286   84.7275   27.1057 C   0  0  0  0  0  0  0  0  0  0  0  0
  -56.5105   83.9214   26.2912 O   0  0  0  0  0  0  0  0  0  0  0  0
  -56.7928   85.9515   27.1315 O   0  0  0  0  0  0  0  0  0  0  0  0
  -57.2142   86.4965   27.7665 H   0  0  0  0  0  0  0  0  0  0  0  0
  5  1  1  0  0  0
  7  1  1  0  0  0
  7  6  2  0  0  0
  1  9  1  0  0  0
 13 11  2  0  0  0
  8  2  1  0  0  0
  8  9  1  0  0  0
  6 11  1  0  0  0
  6  3  1  0  0  0
  2  4  1  0  0  0
 11 12  1  0  0  0
  9  3  1  0  0  0
  3  4  1  0  0  0
  4 15  1  0  0  0
 15 16  2  0  0  0
 15 17  1  0  0  0
  2 10  1  0  0  0
 12 14  1  0  0  0
 17 18  1  0  0  0
M  END
> <minimizedAffinity>
-1.11315

$$$$
5NIH_8VE_B_303


 18 19  0  0  0  0  0  0  0  0999 V2000
  -57.4456   83.9076   29.1462 N   0  0  0  0  0  0  0  0  0  0  0  0
  -58.9283   86.5779   29.0593 N   0  0  0  0  0  0  0  0  0  0  0  0
  -59.5044   84.4894   28.0779 C   0  0  0  0  0  0  0  0  0  0  0  0
  -59.8347   85.9979   28.0395 C   0  0  0  0  0  0  0  0  0  0  0  0
  -56.8561   82.8142   29.9391 C   0  0  0  0  0  0  0  0  0  0  0  0
  -58.3919   84.0516   27.1680 C   0  0  0  0  0  0  0  0  0  0  0  0
  -57.3159   83.7203   27.7609 N   0  0  0  0  0  0  0  0  0  0  0  0
  -58.9146   85.6062   30.1642 C   0  0  0  0  0  0  0  0  0  0  0  0
  -58.8540   84.2553   29.4364 C   0  0  0  0  0  0  0  0  0  0  0  0
  -57.9902   86.6975   28.6770 H   0  0  0  0  0  0  0  0  0  0  0  0
  -58.5177   83.9376   25.6749 C   0  0  0  0  0  0  0  0  0  0  0  0
  -58.5766   85.0385   25.0338 O   0  0  0  0  0  0  0  0  0  0  0  0
  -58.5256   82.7992   25.1584 O   0  0  0  0  0  0  0  0  0  0  0  0
  -58.5654   85.8522   25.4982 H   0  0  0  0  0  0  0  0  0  0  0  0
  -61.2829   86.3298   28.4121 C   0  0  0  0  0  0  0  0  0  0  0  0
  -61.5796   87.5256   28.6647 O   0  0  0  0  0  0  0  0  0  0  0  0
  -62.0911   85.3812   28.4479 O   0  0  0  0  0  0  0  0  0  0  0  0
  -61.8028   84.5123   28.2479 H   0  0  0  0  0  0  0  0  0  0  0  0
  5  1  1  0  0  0
  7  1  1  0  0  0
  7  6  2  0  0  0
  1  9  1  0  0  0
 13 11  2  0  0  0
  8  2  1  0  0  0
  8  9  1  0  0  0
  6 11  1  0  0  0
  6  3  1  0  0  0
  2  4  1  0  0  0
 11 12  1  0  0  0
  9  3  1  0  0  0
  3  4  1  0  0  0
  4 15  1  0  0  0
 15 16  2  0  0  0
 15 17  1  0  0  0
  2 10  1  0  0  0
 12 14  1  0  0  0
 17 18  1  0  0  0
M  END
> <minimizedAffinity>
-1.09532

$$$$
5NIH_8VE_B_303


 18 19  0  0  0  0  0  0  0  0999 V2000
  -59.7348   83.7772   30.9216 N   0  0  0  0  0  0  0  0  0  0  0  0
  -57.9395   82.8244   28.6401 N   0  0  0  0  0  0  0  0  0  0  0  0
  -59.2445   84.8049   28.8188 C   0  0  0  0  0  0  0  0  0  0  0  0
  -58.4822   83.9229   27.8053 C   0  0  0  0  0  0  0  0  0  0  0  0
  -59.8905   84.1350   32.3427 C   0  0  0  0  0  0  0  0  0  0  0  0
  -60.6805   84.4270   29.0473 C   0  0  0  0  0  0  0  0  0  0  0  0
  -60.9220   83.9080   30.1837 N   0  0  0  0  0  0  0  0  0  0  0  0
  -57.5149   83.4641   29.8954 C   0  0  0  0  0  0  0  0  0  0  0  0
  -58.6510   84.4576   30.1791 C   0  0  0  0  0  0  0  0  0  0  0  0
  -58.6590   82.1245   28.8213 H   0  0  0  0  0  0  0  0  0  0  0  0
  -61.7876   84.6831   28.0641 C   0  0  0  0  0  0  0  0  0  0  0  0
  -61.5650   85.5910   27.1965 O   0  0  0  0  0  0  0  0  0  0  0  0
  -62.8239   83.9872   28.1324 O   0  0  0  0  0  0  0  0  0  0  0  0
  -60.7592   86.0687   27.2146 H   0  0  0  0  0  0  0  0  0  0  0  0
  -57.3224   84.6370   27.1043 C   0  0  0  0  0  0  0  0  0  0  0  0
  -57.2502   85.8898   27.1865 O   0  0  0  0  0  0  0  0  0  0  0  0
  -56.5110   83.9243   26.4814 O   0  0  0  0  0  0  0  0  0  0  0  0
  -56.6239   82.9944   26.4604 H   0  0  0  0  0  0  0  0  0  0  0  0
  5  1  1  0  0  0
  7  1  1  0  0  0
  7  6  2  0  0  0
  1  9  1  0  0  0
 13 11  2  0  0  0
  8  2  1  0  0  0
  8  9  1  0  0  0
  6 11  1  0  0  0
  6  3  1  0  0  0
  2  4  1  0  0  0
 11 12  1  0  0  0
  9  3  1  0  0  0
  3  4  1  0  0  0
  4 15  1  0  0  0
 15 16  2  0  0  0
 15 17  1  0  0  0
  2 10  1  0  0  0
 12 14  1  0  0  0
 17 18  1  0  0  0
M  END
> <minimizedAffinity>
-1.02733

$$$$
5NIH_8VE_B_303


 18 19  0  0  0  0  0  0  0  0999 V2000
  -60.4971   85.3765   26.1036 N   0  0  0  0  0  0  0  0  0  0  0  0
  -57.9834   83.7394   26.6844 N   0  0  0  0  0  0  0  0  0  0  0  0
  -59.1176   85.3173   28.0559 C   0  0  0  0  0  0  0  0  0  0  0  0
  -57.7848   84.5501   27.9097 C   0  0  0  0  0  0  0  0  0  0  0  0
  -61.9222   85.4153   25.7305 C   0  0  0  0  0  0  0  0  0  0  0  0
  -59.1832   86.6346   27.3366 C   0  0  0  0  0  0  0  0  0  0  0  0
  -59.9451   86.6495   26.3177 N   0  0  0  0  0  0  0  0  0  0  0  0
  -59.3784   83.2758   26.7475 C   0  0  0  0  0  0  0  0  0  0  0  0
  -60.1328   84.5153   27.2500 C   0  0  0  0  0  0  0  0  0  0  0  0
  -57.8333   84.3085   25.8513 H   0  0  0  0  0  0  0  0  0  0  0  0
  -58.4721   87.8792   27.7877 C   0  0  0  0  0  0  0  0  0  0  0  0
  -58.2429   87.9689   29.0390 O   0  0  0  0  0  0  0  0  0  0  0  0
  -58.1275   88.7187   26.9278 O   0  0  0  0  0  0  0  0  0  0  0  0
  -58.5361   87.2936   29.6186 H   0  0  0  0  0  0  0  0  0  0  0  0
  -57.4706   83.6149   29.0815 C   0  0  0  0  0  0  0  0  0  0  0  0
  -56.5196   82.8006   28.9625 O   0  0  0  0  0  0  0  0  0  0  0  0
  -58.1893   83.7148   30.0954 O   0  0  0  0  0  0  0  0  0  0  0  0
  -58.8828   84.3445   30.1179 H   0  0  0  0  0  0  0  0  0  0  0  0
  5  1  1  0  0  0
  7  1  1  0  0  0
  7  6  2  0  0  0
  1  9  1  0  0  0
 13 11  2  0  0  0
  8  2  1  0  0  0
  8  9  1  0  0  0
  6 11  1  0  0  0
  6  3  1  0  0  0
  2  4  1  0  0  0
 11 12  1  0  0  0
  9  3  1  0  0  0
  3  4  1  0  0  0
  4 15  1  0  0  0
 15 16  2  0  0  0
 15 17  1  0  0  0
  2 10  1  0  0  0
 12 14  1  0  0  0
 17 18  1  0  0  0
M  END
> <minimizedAffinity>
-1.02492

$$$$
5NIH_8VE_B_303


 18 19  0  0  0  0  0  0  0  0999 V2000
  -58.8442   85.0044   30.3759 N   0  0  0  0  0  0  0  0  0  0  0  0
  -57.9121   83.1765   28.1118 N   0  0  0  0  0  0  0  0  0  0  0  0
  -59.9198   84.4351   28.3175 C   0  0  0  0  0  0  0  0  0  0  0  0
  -59.2650   83.2884   27.5159 C   0  0  0  0  0  0  0  0  0  0  0  0
  -58.6018   86.1769   31.2351 C   0  0  0  0  0  0  0  0  0  0  0  0
  -60.6347   84.0166   29.5709 C   0  0  0  0  0  0  0  0  0  0  0  0
  -60.0576   84.3551   30.6533 N   0  0  0  0  0  0  0  0  0  0  0  0
  -57.4848   84.5612   28.3673 C   0  0  0  0  0  0  0  0  0  0  0  0
  -58.7586   85.2211   28.9150 C   0  0  0  0  0  0  0  0  0  0  0  0
  -57.9480   82.6472   28.9829 H   0  0  0  0  0  0  0  0  0  0  0  0
  -61.9604   83.3096   29.5907 C   0  0  0  0  0  0  0  0  0  0  0  0
  -62.3056   82.8013   30.7083 O   0  0  0  0  0  0  0  0  0  0  0  0
  -62.6450   83.2883   28.5449 O   0  0  0  0  0  0  0  0  0  0  0  0
  -61.7322   82.8607   31.4470 H   0  0  0  0  0  0  0  0  0  0  0  0
  -59.1285   83.5728   26.0169 C   0  0  0  0  0  0  0  0  0  0  0  0
  -59.7607   84.5446   25.5295 O   0  0  0  0  0  0  0  0  0  0  0  0
  -58.3926   82.8108   25.3597 O   0  0  0  0  0  0  0  0  0  0  0  0
  -57.9495   82.1041   25.7865 H   0  0  0  0  0  0  0  0  0  0  0  0
  5  1  1  0  0  0
  7  1  1  0  0  0
  7  6  2  0  0  0
  1  9  1  0  0  0
 13 11  2  0  0  0
  8  2  1  0  0  0
  8  9  1  0  0  0
  6 11  1  0  0  0
  6  3  1  0  0  0
  2  4  1  0  0  0
 11 12  1  0  0  0
  9  3  1  0  0  0
  3  4  1  0  0  0
  4 15  1  0  0  0
 15 16  2  0  0  0
 15 17  1  0  0  0
  2 10  1  0  0  0
 12 14  1  0  0  0
 17 18  1  0  0  0
M  END
> <minimizedAffinity>
-1.01829

$$$$
5NIH_8VE_B_303


 18 19  0  0  0  0  0  0  0  0999 V2000
  -59.1120   84.2047   32.0647 N   0  0  0  0  0  0  0  0  0  0  0  0
  -59.2251   86.8742   30.5825 N   0  0  0  0  0  0  0  0  0  0  0  0
  -59.8641   84.7034   29.8502 C   0  0  0  0  0  0  0  0  0  0  0  0
  -59.5519   86.1288   29.3433 C   0  0  0  0  0  0  0  0  0  0  0  0
  -59.4972   83.3881   33.2294 C   0  0  0  0  0  0  0  0  0  0  0  0
  -58.6805   83.7836   29.9514 C   0  0  0  0  0  0  0  0  0  0  0  0
  -58.3163   83.5104   31.1396 N   0  0  0  0  0  0  0  0  0  0  0  0
  -60.1727   86.3801   31.5941 C   0  0  0  0  0  0  0  0  0  0  0  0
  -60.2084   84.8686   31.3258 C   0  0  0  0  0  0  0  0  0  0  0  0
  -58.2649   86.6856   30.8702 H   0  0  0  0  0  0  0  0  0  0  0  0
  -57.9915   83.1612   28.7699 C   0  0  0  0  0  0  0  0  0  0  0  0
  -56.7464   82.9242   28.9107 O   0  0  0  0  0  0  0  0  0  0  0  0
  -58.6685   82.8900   27.7545 O   0  0  0  0  0  0  0  0  0  0  0  0
  -56.3117   83.1597   29.7067 H   0  0  0  0  0  0  0  0  0  0  0  0
  -60.7294   86.8148   28.6439 C   0  0  0  0  0  0  0  0  0  0  0  0
  -60.6858   88.0604   28.4757 O   0  0  0  0  0  0  0  0  0  0  0  0
  -61.6759   86.0883   28.2824 O   0  0  0  0  0  0  0  0  0  0  0  0
  -61.6441   85.1650   28.4391 H   0  0  0  0  0  0  0  0  0  0  0  0
  5  1  1  0  0  0
  7  1  1  0  0  0
  7  6  2  0  0  0
  1  9  1  0  0  0
 13 11  2  0  0  0
  8  2  1  0  0  0
  8  9  1  0  0  0
  6 11  1  0  0  0
  6  3  1  0  0  0
  2  4  1  0  0  0
 11 12  1  0  0  0
  9  3  1  0  0  0
  3  4  1  0  0  0
  4 15  1  0  0  0
 15 16  2  0  0  0
 15 17  1  0  0  0
  2 10  1  0  0  0
 12 14  1  0  0  0
 17 18  1  0  0  0
M  END
> <minimizedAffinity>
-0.94883

$$$$
5NIH_8VE_B_303


 18 19  0  0  0  0  0  0  0  0999 V2000
  -59.4315   86.7753   28.9563 N   0  0  0  0  0  0  0  0  0  0  0  0
  -60.7471   84.5399   30.5714 N   0  0  0  0  0  0  0  0  0  0  0  0
  -58.4426   84.9602   30.1589 C   0  0  0  0  0  0  0  0  0  0  0  0
  -59.4236   83.8776   30.6609 C   0  0  0  0  0  0  0  0  0  0  0  0
  -59.2301   88.2164   28.7235 C   0  0  0  0  0  0  0  0  0  0  0  0
  -58.2045   84.9738   28.6755 C   0  0  0  0  0  0  0  0  0  0  0  0
  -58.7163   85.9637   28.0614 N   0  0  0  0  0  0  0  0  0  0  0  0
  -60.5165   85.9279   31.0018 C   0  0  0  0  0  0  0  0  0  0  0  0
  -59.1824   86.2820   30.3287 C   0  0  0  0  0  0  0  0  0  0  0  0
  -61.0944   84.5161   29.6127 H   0  0  0  0  0  0  0  0  0  0  0  0
  -57.3788   83.9537   27.9436 C   0  0  0  0  0  0  0  0  0  0  0  0
  -56.6495   83.2005   28.6697 O   0  0  0  0  0  0  0  0  0  0  0  0
  -57.4761   83.8837   26.6992 O   0  0  0  0  0  0  0  0  0  0  0  0
  -56.6330   83.3191   29.5990 H   0  0  0  0  0  0  0  0  0  0  0  0
  -59.1818   83.4385   32.1083 C   0  0  0  0  0  0  0  0  0  0  0  0
  -58.0860   83.7328   32.6506 O   0  0  0  0  0  0  0  0  0  0  0  0
  -60.0963   82.8027   32.6685 O   0  0  0  0  0  0  0  0  0  0  0  0
  -60.8894   82.6169   32.2055 H   0  0  0  0  0  0  0  0  0  0  0  0
  5  1  1  0  0  0
  7  1  1  0  0  0
  7  6  2  0  0  0
  1  9  1  0  0  0
 13 11  2  0  0  0
  8  2  1  0  0  0
  8  9  1  0  0  0
  6 11  1  0  0  0
  6  3  1  0  0  0
  2  4  1  0  0  0
 11 12  1  0  0  0
  9  3  1  0  0  0
  3  4  1  0  0  0
  4 15  1  0  0  0
 15 16  2  0  0  0
 15 17  1  0  0  0
  2 10  1  0  0  0
 12 14  1  0  0  0
 17 18  1  0  0  0
M  END
> <minimizedAffinity>
-0.88966

$$$$
5NIH_8VE_B_303


 18 19  0  0  0  0  0  0  0  0999 V2000
  -60.5199   87.3472   28.6092 N   0  0  0  0  0  0  0  0  0  0  0  0
  -58.3103   85.4332   29.4982 N   0  0  0  0  0  0  0  0  0  0  0  0
  -60.3557   84.9730   28.3751 C   0  0  0  0  0  0  0  0  0  0  0  0
  -59.2064   84.3019   29.1593 C   0  0  0  0  0  0  0  0  0  0  0  0
  -60.9305   88.5312   27.8337 C   0  0  0  0  0  0  0  0  0  0  0  0
  -61.4983   85.4740   29.2122 C   0  0  0  0  0  0  0  0  0  0  0  0
  -61.5817   86.7407   29.2990 N   0  0  0  0  0  0  0  0  0  0  0  0
  -58.3092   86.2979   28.3076 C   0  0  0  0  0  0  0  0  0  0  0  0
  -59.7830   86.2945   27.8761 C   0  0  0  0  0  0  0  0  0  0  0  0
  -58.6664   85.9408   30.3081 H   0  0  0  0  0  0  0  0  0  0  0  0
  -62.5228   84.5862   29.8604 C   0  0  0  0  0  0  0  0  0  0  0  0
  -62.7046   83.4498   29.3110 O   0  0  0  0  0  0  0  0  0  0  0  0
  -63.1002   84.9904   30.8930 O   0  0  0  0  0  0  0  0  0  0  0  0
  -62.2301   83.2230   28.5355 H   0  0  0  0  0  0  0  0  0  0  0  0
  -58.4194   83.2666   28.3499 C   0  0  0  0  0  0  0  0  0  0  0  0
  -58.9297   82.8160   27.2925 O   0  0  0  0  0  0  0  0  0  0  0  0
  -57.3068   82.9241   28.7964 O   0  0  0  0  0  0  0  0  0  0  0  0
  -56.9853   83.3003   29.5921 H   0  0  0  0  0  0  0  0  0  0  0  0
  5  1  1  0  0  0
  7  1  1  0  0  0
  7  6  2  0  0  0
  1  9  1  0  0  0
 13 11  2  0  0  0
  8  2  1  0  0  0
  8  9  1  0  0  0
  6 11  1  0  0  0
  6  3  1  0  0  0
  2  4  1  0  0  0
 11 12  1  0  0  0
  9  3  1  0  0  0
  3  4  1  0  0  0
  4 15  1  0  0  0
 15 16  2  0  0  0
 15 17  1  0  0  0
  2 10  1  0  0  0
 12 14  1  0  0  0
 17 18  1  0  0  0
M  END
> <minimizedAffinity>
-0.85429

$$$$
5NIH_8VE_B_303


 18 19  0  0  0  0  0  0  0  0999 V2000
  -58.1446   87.2367   29.2631 N   0  0  0  0  0  0  0  0  0  0  0  0
  -59.9498   87.0528   26.8047 N   0  0  0  0  0  0  0  0  0  0  0  0
  -59.3611   85.3749   28.3843 C   0  0  0  0  0  0  0  0  0  0  0  0
  -59.9797   85.5815   26.9840 C   0  0  0  0  0  0  0  0  0  0  0  0
  -57.8306   87.8695   30.5564 C   0  0  0  0  0  0  0  0  0  0  0  0
  -57.8659   85.2300   28.4115 C   0  0  0  0  0  0  0  0  0  0  0  0
  -57.2421   86.2211   28.9091 N   0  0  0  0  0  0  0  0  0  0  0  0
  -60.2973   87.6114   28.1210 C   0  0  0  0  0  0  0  0  0  0  0  0
  -59.5185   86.7145   29.0942 C   0  0  0  0  0  0  0  0  0  0  0  0
  -59.0193   87.3594   26.5209 H   0  0  0  0  0  0  0  0  0  0  0  0
  -57.1283   84.0024   27.9568 C   0  0  0  0  0  0  0  0  0  0  0  0
  -56.6798   84.0304   26.7633 O   0  0  0  0  0  0  0  0  0  0  0  0
  -56.9738   83.0611   28.7650 O   0  0  0  0  0  0  0  0  0  0  0  0
  -56.8401   84.7768   26.2200 H   0  0  0  0  0  0  0  0  0  0  0  0
  -61.4263   85.0929   26.8620 C   0  0  0  0  0  0  0  0  0  0  0  0
  -62.1103   85.4789   25.8798 O   0  0  0  0  0  0  0  0  0  0  0  0
  -61.8466   84.3353   27.7585 O   0  0  0  0  0  0  0  0  0  0  0  0
  -61.2826   84.0862   28.4640 H   0  0  0  0  0  0  0  0  0  0  0  0
  5  1  1  0  0  0
  7  1  1  0  0  0
  7  6  2  0  0  0
  1  9  1  0  0  0
 13 11  2  0  0  0
  8  2  1  0  0  0
  8  9  1  0  0  0
  6 11  1  0  0  0
  6  3  1  0  0  0
  2  4  1  0  0  0
 11 12  1  0  0  0
  9  3  1  0  0  0
  3  4  1  0  0  0
  4 15  1  0  0  0
 15 16  2  0  0  0
 15 17  1  0  0  0
  2 10  1  0  0  0
 12 14  1  0  0  0
 17 18  1  0  0  0
M  END
> <minimizedAffinity>
-0.82845

$$$$
