4EMF_M7G_A_304


 37 39  0  0  0  0  0  0  0  0999 V2000
   -7.6713  -23.5192  -21.6981 C   0  0  0  0  0  0  0  0  0  0  0  0
   -7.5662  -24.0036  -20.3665 O   0  0  0  0  0  0  0  0  0  0  0  0
   -8.8000  -22.4861  -21.6990 C   0  0  0  0  0  0  0  0  0  0  0  0
  -10.1065  -23.1237  -21.7050 O   0  0  0  0  0  0  0  0  0  0  0  0
   -8.5935  -21.8592  -20.3517 C   0  0  0  0  0  0  0  0  0  0  0  0
   -9.8485  -21.3958  -19.8768 O   0  0  0  0  0  0  0  0  0  0  0  0
   -8.1792  -23.0457  -19.5168 C   0  0  0  0  0  0  0  0  0  0  0  0
  -10.1728  -23.7321  -20.9525 H   0  0  0  0  0  0  0  0  0  0  0  0
  -10.4858  -22.1270  -19.8810 H   0  0  0  0  0  0  0  0  0  0  0  0
   -7.2089  -22.7871  -18.4633 N   0  0  0  0  0  0  0  0  0  0  0  0
   -5.8273  -23.2109  -18.6772 C   0  0  0  0  0  0  0  0  0  0  0  0
   -5.3627  -22.7193  -17.3777 N   0  0  0  0  0  0  0  0  0  0  0  0
   -3.9035  -22.9703  -17.1906 C   0  0  0  0  0  0  0  0  0  0  0  0
   -6.3027  -22.1400  -16.6020 C   0  0  0  0  0  0  0  0  0  0  0  0
   -6.3371  -21.5047  -15.2818 C   0  0  0  0  0  0  0  0  0  0  0  0
   -5.2897  -21.4203  -14.6069 O   0  0  0  0  0  0  0  0  0  0  0  0
   -7.5412  -21.0205  -14.8822 N   0  0  0  0  0  0  0  0  0  0  0  0
   -8.6782  -21.1202  -15.6276 C   0  0  0  0  0  0  0  0  0  0  0  0
   -9.8701  -20.6321  -15.2270 N   0  0  0  0  0  0  0  0  0  0  0  0
   -8.6884  -21.6691  -16.8417 N   0  0  0  0  0  0  0  0  0  0  0  0
   -7.5529  -22.2004  -17.3423 C   0  0  0  0  0  0  0  0  0  0  0  0
   -7.5960  -20.5734  -14.0068 H   0  0  0  0  0  0  0  0  0  0  0  0
   -9.9563  -20.2082  -14.3426 H   0  0  0  0  0  0  0  0  0  0  0  0
  -10.6539  -20.6998  -15.8189 H   0  0  0  0  0  0  0  0  0  0  0  0
   -6.3302  -22.8942  -22.0457 C   0  0  0  0  0  0  0  0  0  0  0  0
   -5.6300  -23.6035  -23.0700 O   0  0  0  0  0  0  0  0  0  0  0  0
   -4.0940  -24.0874  -22.9000 P   0  0  0  0  0  0  0  0  0  0  0  0
   -3.9708  -25.3210  -23.7792 O   0  0  0  0  0  0  0  0  0  0  0  0
   -3.0771  -23.0171  -22.9677 O   0  0  0  0  0  0  0  0  0  0  0  0
   -2.1940  -23.4026  -22.8561 H   0  0  0  0  0  0  0  0  0  0  0  0
   -4.2741  -24.5995  -21.3728 O   0  0  0  0  0  0  0  0  0  0  0  0
   -3.4106  -25.5906  -20.4380 P   0  0  0  0  0  0  0  0  0  0  0  0
   -4.2449  -26.0667  -19.2663 O   0  0  0  0  0  0  0  0  0  0  0  0
   -3.0693  -26.7248  -21.3395 O   0  0  0  0  0  0  0  0  0  0  0  0
   -2.2255  -24.7519  -20.0270 O   0  0  0  0  0  0  0  0  0  0  0  0
   -3.8759  -27.2163  -21.5604 H   0  0  0  0  0  0  0  0  0  0  0  0
   -2.5226  -24.0362  -19.4435 H   0  0  0  0  0  0  0  0  0  0  0  0
 27 28  2  0  0  0
 27 29  1  0  0  0
 27 31  1  0  0  0
 27 26  1  0  0  0
 31 32  1  0  0  0
 26 25  1  0  0  0
 32 33  2  0  0  0
 32 34  1  0  0  0
 32 35  1  0  0  0
 25  1  1  0  0  0
  1  2  1  0  0  0
  1  3  1  0  0  0
  2  7  1  0  0  0
  3  4  1  0  0  0
  3  5  1  0  0  0
  5  6  1  0  0  0
  5  7  1  0  0  0
  7 10  1  0  0  0
 10 11  1  0  0  0
 10 21  1  0  0  0
 11 12  1  0  0  0
 12 13  1  0  0  0
 12 14  1  0  0  0
 14 15  1  0  0  0
 14 21  2  0  0  0
 15 16  2  0  0  0
 15 17  1  0  0  0
 17 18  1  0  0  0
 18 19  1  0  0  0
 18 20  2  0  0  0
 20 21  1  0  0  0
 29 30  1  0  0  0
 34 36  1  0  0  0
 35 37  1  0  0  0
  4  8  1  0  0  0
  6  9  1  0  0  0
 17 22  1  0  0  0
 19 23  1  0  0  0
 19 24  1  0  0  0
M  END
> <minimizedAffinity>
-9.38105

$$$$
4EMF_M7G_A_304


 37 39  0  0  0  0  0  0  0  0999 V2000
   -3.8174  -23.3177  -21.2847 C   0  0  0  0  0  0  0  0  0  0  0  0
   -4.4413  -22.6683  -20.1857 O   0  0  0  0  0  0  0  0  0  0  0  0
   -3.5199  -24.7495  -20.8343 C   0  0  0  0  0  0  0  0  0  0  0  0
   -2.3426  -24.8070  -19.9832 O   0  0  0  0  0  0  0  0  0  0  0  0
   -4.7246  -25.0205  -19.9823 C   0  0  0  0  0  0  0  0  0  0  0  0
   -4.3595  -25.9509  -18.9741 O   0  0  0  0  0  0  0  0  0  0  0  0
   -4.9522  -23.6791  -19.3298 C   0  0  0  0  0  0  0  0  0  0  0  0
   -2.4585  -24.2069  -19.2300 H   0  0  0  0  0  0  0  0  0  0  0  0
   -3.5943  -25.6123  -18.4835 H   0  0  0  0  0  0  0  0  0  0  0  0
   -6.3373  -23.3092  -19.0795 N   0  0  0  0  0  0  0  0  0  0  0  0
   -7.3438  -23.6914  -20.0669 C   0  0  0  0  0  0  0  0  0  0  0  0
   -8.4552  -23.0928  -19.3233 N   0  0  0  0  0  0  0  0  0  0  0  0
   -9.7520  -23.2804  -20.0377 C   0  0  0  0  0  0  0  0  0  0  0  0
   -8.1255  -22.4985  -18.1576 C   0  0  0  0  0  0  0  0  0  0  0  0
   -8.8444  -21.8010  -17.0879 C   0  0  0  0  0  0  0  0  0  0  0  0
  -10.0826  -21.6570  -17.1647 O   0  0  0  0  0  0  0  0  0  0  0  0
   -8.0904  -21.3636  -16.0467 N   0  0  0  0  0  0  0  0  0  0  0  0
   -6.7387  -21.5256  -15.9753 C   0  0  0  0  0  0  0  0  0  0  0  0
   -5.9962  -21.0935  -14.9353 N   0  0  0  0  0  0  0  0  0  0  0  0
   -6.0480  -22.1726  -16.9132 N   0  0  0  0  0  0  0  0  0  0  0  0
   -6.6862  -22.6413  -18.0064 C   0  0  0  0  0  0  0  0  0  0  0  0
   -8.5443  -20.9048  -15.3033 H   0  0  0  0  0  0  0  0  0  0  0  0
   -6.4233  -20.6051  -14.1948 H   0  0  0  0  0  0  0  0  0  0  0  0
   -5.0272  -21.2666  -14.9167 H   0  0  0  0  0  0  0  0  0  0  0  0
   -4.8074  -23.2800  -22.4373 C   0  0  0  0  0  0  0  0  0  0  0  0
   -4.5463  -22.2255  -23.3660 O   0  0  0  0  0  0  0  0  0  0  0  0
   -5.6695  -21.1371  -23.7861 P   0  0  0  0  0  0  0  0  0  0  0  0
   -6.4484  -21.7917  -24.9151 O   0  0  0  0  0  0  0  0  0  0  0  0
   -6.3815  -20.4902  -22.6642 O   0  0  0  0  0  0  0  0  0  0  0  0
   -7.0297  -19.8588  -23.0137 H   0  0  0  0  0  0  0  0  0  0  0  0
   -4.6200  -20.1023  -24.4607 O   0  0  0  0  0  0  0  0  0  0  0  0
   -3.5507  -20.2484  -25.6594 P   0  0  0  0  0  0  0  0  0  0  0  0
   -4.1147  -19.6671  -26.9397 O   0  0  0  0  0  0  0  0  0  0  0  0
   -2.3792  -19.4584  -25.1911 O   0  0  0  0  0  0  0  0  0  0  0  0
   -3.3008  -21.7345  -25.7361 O   0  0  0  0  0  0  0  0  0  0  0  0
   -2.6127  -18.5172  -25.1671 H   0  0  0  0  0  0  0  0  0  0  0  0
   -4.1035  -22.1817  -26.0469 H   0  0  0  0  0  0  0  0  0  0  0  0
 27 28  2  0  0  0
 27 29  1  0  0  0
 27 31  1  0  0  0
 27 26  1  0  0  0
 31 32  1  0  0  0
 26 25  1  0  0  0
 32 33  2  0  0  0
 32 34  1  0  0  0
 32 35  1  0  0  0
 25  1  1  0  0  0
  1  2  1  0  0  0
  1  3  1  0  0  0
  2  7  1  0  0  0
  3  4  1  0  0  0
  3  5  1  0  0  0
  5  6  1  0  0  0
  5  7  1  0  0  0
  7 10  1  0  0  0
 10 11  1  0  0  0
 10 21  1  0  0  0
 11 12  1  0  0  0
 12 13  1  0  0  0
 12 14  1  0  0  0
 14 15  1  0  0  0
 14 21  2  0  0  0
 15 16  2  0  0  0
 15 17  1  0  0  0
 17 18  1  0  0  0
 18 19  1  0  0  0
 18 20  2  0  0  0
 20 21  1  0  0  0
 29 30  1  0  0  0
 34 36  1  0  0  0
 35 37  1  0  0  0
  4  8  1  0  0  0
  6  9  1  0  0  0
 17 22  1  0  0  0
 19 23  1  0  0  0
 19 24  1  0  0  0
M  END
> <minimizedAffinity>
-9.24991

$$$$
4EMF_M7G_A_304


 37 39  0  0  0  0  0  0  0  0999 V2000
   -4.1403  -23.5604  -19.3254 C   0  0  0  0  0  0  0  0  0  0  0  0
   -5.2195  -22.7615  -19.7898 O   0  0  0  0  0  0  0  0  0  0  0  0
   -3.9190  -23.1852  -17.8585 C   0  0  0  0  0  0  0  0  0  0  0  0
   -3.1959  -21.9303  -17.7323 O   0  0  0  0  0  0  0  0  0  0  0  0
   -5.3355  -22.9527  -17.4225 C   0  0  0  0  0  0  0  0  0  0  0  0
   -5.3300  -21.9921  -16.3772 O   0  0  0  0  0  0  0  0  0  0  0  0
   -5.9380  -22.3146  -18.6499 C   0  0  0  0  0  0  0  0  0  0  0  0
   -3.6677  -21.2351  -18.2170 H   0  0  0  0  0  0  0  0  0  0  0  0
   -4.8701  -21.1920  -16.6759 H   0  0  0  0  0  0  0  0  0  0  0  0
   -7.3320  -22.6304  -18.9239 N   0  0  0  0  0  0  0  0  0  0  0  0
   -7.6481  -23.3511  -20.1547 C   0  0  0  0  0  0  0  0  0  0  0  0
   -9.0899  -23.3767  -19.8958 N   0  0  0  0  0  0  0  0  0  0  0  0
   -9.8270  -24.0761  -20.9888 C   0  0  0  0  0  0  0  0  0  0  0  0
   -9.4884  -22.7866  -18.7495 C   0  0  0  0  0  0  0  0  0  0  0  0
  -10.7640  -22.5714  -18.0611 C   0  0  0  0  0  0  0  0  0  0  0  0
  -11.8224  -22.9971  -18.5694 O   0  0  0  0  0  0  0  0  0  0  0  0
  -10.6993  -21.9197  -16.8715 N   0  0  0  0  0  0  0  0  0  0  0  0
   -9.5375  -21.4583  -16.3277 C   0  0  0  0  0  0  0  0  0  0  0  0
   -9.4795  -20.8164  -15.1427 N   0  0  0  0  0  0  0  0  0  0  0  0
   -8.3534  -21.6512  -16.9074 N   0  0  0  0  0  0  0  0  0  0  0  0
   -8.2906  -22.2745  -18.1032 C   0  0  0  0  0  0  0  0  0  0  0  0
  -11.5366  -21.7725  -16.3750 H   0  0  0  0  0  0  0  0  0  0  0  0
  -10.3069  -20.6305  -14.6426 H   0  0  0  0  0  0  0  0  0  0  0  0
   -8.6099  -20.5338  -14.7780 H   0  0  0  0  0  0  0  0  0  0  0  0
   -4.5678  -25.0105  -19.4814 C   0  0  0  0  0  0  0  0  0  0  0  0
   -3.7673  -25.7329  -20.4196 O   0  0  0  0  0  0  0  0  0  0  0  0
   -4.4051  -26.5304  -21.6765 P   0  0  0  0  0  0  0  0  0  0  0  0
   -3.2133  -27.1129  -22.4182 O   0  0  0  0  0  0  0  0  0  0  0  0
   -5.5780  -27.3746  -21.3671 O   0  0  0  0  0  0  0  0  0  0  0  0
   -5.8868  -27.8087  -22.1777 H   0  0  0  0  0  0  0  0  0  0  0  0
   -4.8643  -25.1960  -22.4738 O   0  0  0  0  0  0  0  0  0  0  0  0
   -4.0583  -24.1106  -23.3536 P   0  0  0  0  0  0  0  0  0  0  0  0
   -4.8796  -22.8471  -23.5097 O   0  0  0  0  0  0  0  0  0  0  0  0
   -2.8289  -23.8470  -22.5569 O   0  0  0  0  0  0  0  0  0  0  0  0
   -3.8055  -24.8251  -24.6584 O   0  0  0  0  0  0  0  0  0  0  0  0
   -3.0676  -23.3879  -21.7364 H   0  0  0  0  0  0  0  0  0  0  0  0
   -4.6474  -24.9619  -25.1205 H   0  0  0  0  0  0  0  0  0  0  0  0
 27 28  2  0  0  0
 27 29  1  0  0  0
 27 31  1  0  0  0
 27 26  1  0  0  0
 31 32  1  0  0  0
 26 25  1  0  0  0
 32 33  2  0  0  0
 32 34  1  0  0  0
 32 35  1  0  0  0
 25  1  1  0  0  0
  1  2  1  0  0  0
  1  3  1  0  0  0
  2  7  1  0  0  0
  3  4  1  0  0  0
  3  5  1  0  0  0
  5  6  1  0  0  0
  5  7  1  0  0  0
  7 10  1  0  0  0
 10 11  1  0  0  0
 10 21  1  0  0  0
 11 12  1  0  0  0
 12 13  1  0  0  0
 12 14  1  0  0  0
 14 15  1  0  0  0
 14 21  2  0  0  0
 15 16  2  0  0  0
 15 17  1  0  0  0
 17 18  1  0  0  0
 18 19  1  0  0  0
 18 20  2  0  0  0
 20 21  1  0  0  0
 29 30  1  0  0  0
 34 36  1  0  0  0
 35 37  1  0  0  0
  4  8  1  0  0  0
  6  9  1  0  0  0
 17 22  1  0  0  0
 19 23  1  0  0  0
 19 24  1  0  0  0
M  END
> <minimizedAffinity>
-9.08929

$$$$
4EMF_M7G_A_304


 37 39  0  0  0  0  0  0  0  0999 V2000
   -3.7051  -23.4006  -21.2299 C   0  0  0  0  0  0  0  0  0  0  0  0
   -4.3283  -22.7655  -20.1221 O   0  0  0  0  0  0  0  0  0  0  0  0
   -3.4579  -24.8534  -20.8178 C   0  0  0  0  0  0  0  0  0  0  0  0
   -2.2976  -24.9714  -19.9498 O   0  0  0  0  0  0  0  0  0  0  0  0
   -4.6846  -25.1130  -19.9941 C   0  0  0  0  0  0  0  0  0  0  0  0
   -4.3645  -26.0834  -19.0085 O   0  0  0  0  0  0  0  0  0  0  0  0
   -4.8836  -23.7853  -19.3055 C   0  0  0  0  0  0  0  0  0  0  0  0
   -2.4087  -24.3905  -19.1809 H   0  0  0  0  0  0  0  0  0  0  0  0
   -3.5981  -25.7826  -18.4956 H   0  0  0  0  0  0  0  0  0  0  0  0
   -6.2612  -23.3815  -19.0667 N   0  0  0  0  0  0  0  0  0  0  0  0
   -7.2705  -23.7493  -20.0568 C   0  0  0  0  0  0  0  0  0  0  0  0
   -8.3721  -23.1187  -19.3253 N   0  0  0  0  0  0  0  0  0  0  0  0
   -9.6687  -23.2829  -20.0457 C   0  0  0  0  0  0  0  0  0  0  0  0
   -8.0356  -22.5216  -18.1629 C   0  0  0  0  0  0  0  0  0  0  0  0
   -8.7445  -21.7982  -17.1038 C   0  0  0  0  0  0  0  0  0  0  0  0
   -9.9786  -21.6265  -17.1892 O   0  0  0  0  0  0  0  0  0  0  0  0
   -7.9866  -21.3689  -16.0620 N   0  0  0  0  0  0  0  0  0  0  0  0
   -6.6395  -21.5612  -15.9810 C   0  0  0  0  0  0  0  0  0  0  0  0
   -5.8933  -21.1369  -14.9404 N   0  0  0  0  0  0  0  0  0  0  0  0
   -5.9584  -22.2323  -16.9089 N   0  0  0  0  0  0  0  0  0  0  0  0
   -6.6009  -22.6961  -18.0018 C   0  0  0  0  0  0  0  0  0  0  0  0
   -8.4342  -20.8930  -15.3255 H   0  0  0  0  0  0  0  0  0  0  0  0
   -6.3134  -20.6322  -14.2069 H   0  0  0  0  0  0  0  0  0  0  0  0
   -4.9287  -21.3320  -14.9144 H   0  0  0  0  0  0  0  0  0  0  0  0
   -4.6736  -23.2992  -22.3968 C   0  0  0  0  0  0  0  0  0  0  0  0
   -5.3441  -22.0386  -22.4606 O   0  0  0  0  0  0  0  0  0  0  0  0
   -5.3403  -21.1166  -23.7920 P   0  0  0  0  0  0  0  0  0  0  0  0
   -6.1889  -19.9073  -23.4351 O   0  0  0  0  0  0  0  0  0  0  0  0
   -4.0247  -20.9407  -24.4419 O   0  0  0  0  0  0  0  0  0  0  0  0
   -4.1239  -20.3771  -25.2252 H   0  0  0  0  0  0  0  0  0  0  0  0
   -6.2706  -22.1189  -24.6621 O   0  0  0  0  0  0  0  0  0  0  0  0
   -7.8335  -22.5104  -24.5856 P   0  0  0  0  0  0  0  0  0  0  0  0
   -8.0257  -23.9731  -24.9306 O   0  0  0  0  0  0  0  0  0  0  0  0
   -8.1978  -22.2498  -23.1661 O   0  0  0  0  0  0  0  0  0  0  0  0
   -8.4855  -21.5723  -25.5714 O   0  0  0  0  0  0  0  0  0  0  0  0
   -7.7439  -22.8876  -22.5934 H   0  0  0  0  0  0  0  0  0  0  0  0
   -8.2032  -21.8011  -26.4707 H   0  0  0  0  0  0  0  0  0  0  0  0
 27 28  2  0  0  0
 27 29  1  0  0  0
 27 31  1  0  0  0
 27 26  1  0  0  0
 31 32  1  0  0  0
 26 25  1  0  0  0
 32 33  2  0  0  0
 32 34  1  0  0  0
 32 35  1  0  0  0
 25  1  1  0  0  0
  1  2  1  0  0  0
  1  3  1  0  0  0
  2  7  1  0  0  0
  3  4  1  0  0  0
  3  5  1  0  0  0
  5  6  1  0  0  0
  5  7  1  0  0  0
  7 10  1  0  0  0
 10 11  1  0  0  0
 10 21  1  0  0  0
 11 12  1  0  0  0
 12 13  1  0  0  0
 12 14  1  0  0  0
 14 15  1  0  0  0
 14 21  2  0  0  0
 15 16  2  0  0  0
 15 17  1  0  0  0
 17 18  1  0  0  0
 18 19  1  0  0  0
 18 20  2  0  0  0
 20 21  1  0  0  0
 29 30  1  0  0  0
 34 36  1  0  0  0
 35 37  1  0  0  0
  4  8  1  0  0  0
  6  9  1  0  0  0
 17 22  1  0  0  0
 19 23  1  0  0  0
 19 24  1  0  0  0
M  END
> <minimizedAffinity>
-8.99278

$$$$
4EMF_M7G_A_304


 37 39  0  0  0  0  0  0  0  0999 V2000
   -4.3307  -22.8880  -20.2475 C   0  0  0  0  0  0  0  0  0  0  0  0
   -5.4809  -22.0971  -19.9822 O   0  0  0  0  0  0  0  0  0  0  0  0
   -3.8743  -23.4593  -18.9033 C   0  0  0  0  0  0  0  0  0  0  0  0
   -3.1546  -22.4686  -18.1196 O   0  0  0  0  0  0  0  0  0  0  0  0
   -5.2018  -23.6984  -18.2466 C   0  0  0  0  0  0  0  0  0  0  0  0
   -5.0345  -23.5770  -16.8421 O   0  0  0  0  0  0  0  0  0  0  0  0
   -6.0061  -22.5177  -18.7322 C   0  0  0  0  0  0  0  0  0  0  0  0
   -3.7080  -21.6797  -18.0088 H   0  0  0  0  0  0  0  0  0  0  0  0
   -4.6395  -22.7152  -16.6368 H   0  0  0  0  0  0  0  0  0  0  0  0
   -7.4226  -22.7542  -18.9685 N   0  0  0  0  0  0  0  0  0  0  0  0
   -7.8122  -23.4488  -20.1931 C   0  0  0  0  0  0  0  0  0  0  0  0
   -9.2454  -23.3963  -19.8940 N   0  0  0  0  0  0  0  0  0  0  0  0
  -10.0503  -24.0472  -20.9690 C   0  0  0  0  0  0  0  0  0  0  0  0
   -9.5786  -22.7920  -18.7344 C   0  0  0  0  0  0  0  0  0  0  0  0
  -10.8207  -22.5108  -18.0094 C   0  0  0  0  0  0  0  0  0  0  0  0
  -11.9148  -22.8743  -18.4897 O   0  0  0  0  0  0  0  0  0  0  0  0
  -10.6870  -21.8709  -16.8192 N   0  0  0  0  0  0  0  0  0  0  0  0
   -9.4867  -21.4777  -16.3061 C   0  0  0  0  0  0  0  0  0  0  0  0
   -9.3604  -20.8473  -15.1203 N   0  0  0  0  0  0  0  0  0  0  0  0
   -8.3317  -21.7323  -16.9196 N   0  0  0  0  0  0  0  0  0  0  0  0
   -8.3368  -22.3509  -18.1195 C   0  0  0  0  0  0  0  0  0  0  0  0
  -11.5007  -21.6806  -16.2987 H   0  0  0  0  0  0  0  0  0  0  0  0
  -10.1621  -20.6190  -14.5964 H   0  0  0  0  0  0  0  0  0  0  0  0
   -8.4667  -20.6154  -14.7789 H   0  0  0  0  0  0  0  0  0  0  0  0
   -4.7616  -23.9812  -21.2113 C   0  0  0  0  0  0  0  0  0  0  0  0
   -5.2412  -23.4723  -22.4578 O   0  0  0  0  0  0  0  0  0  0  0  0
   -4.2475  -23.0174  -23.6529 P   0  0  0  0  0  0  0  0  0  0  0  0
   -2.8514  -23.1081  -23.0593 O   0  0  0  0  0  0  0  0  0  0  0  0
   -4.5352  -23.6031  -24.9790 O   0  0  0  0  0  0  0  0  0  0  0  0
   -3.8910  -23.2731  -25.6248 H   0  0  0  0  0  0  0  0  0  0  0  0
   -4.6865  -21.4575  -23.6172 O   0  0  0  0  0  0  0  0  0  0  0  0
   -6.1209  -20.7212  -23.5733 P   0  0  0  0  0  0  0  0  0  0  0  0
   -6.0134  -19.3269  -24.1560 O   0  0  0  0  0  0  0  0  0  0  0  0
   -6.9905  -21.5826  -24.4203 O   0  0  0  0  0  0  0  0  0  0  0  0
   -6.4829  -20.7313  -22.1084 O   0  0  0  0  0  0  0  0  0  0  0  0
   -6.7001  -21.5263  -25.3440 H   0  0  0  0  0  0  0  0  0  0  0  0
   -5.8770  -20.1509  -21.6216 H   0  0  0  0  0  0  0  0  0  0  0  0
 27 28  2  0  0  0
 27 29  1  0  0  0
 27 31  1  0  0  0
 27 26  1  0  0  0
 31 32  1  0  0  0
 26 25  1  0  0  0
 32 33  2  0  0  0
 32 34  1  0  0  0
 32 35  1  0  0  0
 25  1  1  0  0  0
  1  2  1  0  0  0
  1  3  1  0  0  0
  2  7  1  0  0  0
  3  4  1  0  0  0
  3  5  1  0  0  0
  5  6  1  0  0  0
  5  7  1  0  0  0
  7 10  1  0  0  0
 10 11  1  0  0  0
 10 21  1  0  0  0
 11 12  1  0  0  0
 12 13  1  0  0  0
 12 14  1  0  0  0
 14 15  1  0  0  0
 14 21  2  0  0  0
 15 16  2  0  0  0
 15 17  1  0  0  0
 17 18  1  0  0  0
 18 19  1  0  0  0
 18 20  2  0  0  0
 20 21  1  0  0  0
 29 30  1  0  0  0
 34 36  1  0  0  0
 35 37  1  0  0  0
  4  8  1  0  0  0
  6  9  1  0  0  0
 17 22  1  0  0  0
 19 23  1  0  0  0
 19 24  1  0  0  0
M  END
> <minimizedAffinity>
-8.98933

$$$$
4EMF_M7G_A_304


 37 39  0  0  0  0  0  0  0  0999 V2000
   -4.2035  -23.0182  -19.8666 C   0  0  0  0  0  0  0  0  0  0  0  0
   -5.3505  -22.1795  -19.8694 O   0  0  0  0  0  0  0  0  0  0  0  0
   -3.8417  -23.2580  -18.3993 C   0  0  0  0  0  0  0  0  0  0  0  0
   -3.1496  -22.1147  -17.8270 O   0  0  0  0  0  0  0  0  0  0  0  0
   -5.2114  -23.3261  -17.7909 C   0  0  0  0  0  0  0  0  0  0  0  0
   -5.1268  -22.8768  -16.4470 O   0  0  0  0  0  0  0  0  0  0  0  0
   -5.9593  -22.2888  -18.5916 C   0  0  0  0  0  0  0  0  0  0  0  0
   -3.6917  -21.3184  -17.9411 H   0  0  0  0  0  0  0  0  0  0  0  0
   -4.7265  -21.9935  -16.4259 H   0  0  0  0  0  0  0  0  0  0  0  0
   -7.3636  -22.5653  -18.8554 N   0  0  0  0  0  0  0  0  0  0  0  0
   -7.7141  -23.2228  -20.1120 C   0  0  0  0  0  0  0  0  0  0  0  0
   -9.1516  -23.2330  -19.8294 N   0  0  0  0  0  0  0  0  0  0  0  0
   -9.9203  -23.8677  -20.9400 C   0  0  0  0  0  0  0  0  0  0  0  0
   -9.5194  -22.6884  -18.6508 C   0  0  0  0  0  0  0  0  0  0  0  0
  -10.7790  -22.4808  -17.9312 C   0  0  0  0  0  0  0  0  0  0  0  0
  -11.8538  -22.8628  -18.4398 O   0  0  0  0  0  0  0  0  0  0  0  0
  -10.6818  -21.8854  -16.7147 N   0  0  0  0  0  0  0  0  0  0  0  0
   -9.5023  -21.4714  -16.1708 C   0  0  0  0  0  0  0  0  0  0  0  0
   -9.4122  -20.8855  -14.9591 N   0  0  0  0  0  0  0  0  0  0  0  0
   -8.3320  -21.6600  -16.7791 N   0  0  0  0  0  0  0  0  0  0  0  0
   -8.3013  -22.2291  -18.0028 C   0  0  0  0  0  0  0  0  0  0  0  0
  -11.5077  -21.7452  -16.1975 H   0  0  0  0  0  0  0  0  0  0  0  0
  -10.2274  -20.7071  -14.4367 H   0  0  0  0  0  0  0  0  0  0  0  0
   -8.5312  -20.6364  -14.5971 H   0  0  0  0  0  0  0  0  0  0  0  0
   -4.5986  -24.3057  -20.5709 C   0  0  0  0  0  0  0  0  0  0  0  0
   -3.7833  -24.5952  -21.7085 O   0  0  0  0  0  0  0  0  0  0  0  0
   -3.6828  -23.6016  -22.9834 P   0  0  0  0  0  0  0  0  0  0  0  0
   -4.9930  -22.8314  -22.9858 O   0  0  0  0  0  0  0  0  0  0  0  0
   -2.3970  -22.8891  -23.1367 O   0  0  0  0  0  0  0  0  0  0  0  0
   -2.4333  -22.3221  -23.9229 H   0  0  0  0  0  0  0  0  0  0  0  0
   -3.8124  -24.7776  -24.0912 O   0  0  0  0  0  0  0  0  0  0  0  0
   -4.2107  -26.3376  -23.9950 P   0  0  0  0  0  0  0  0  0  0  0  0
   -4.4464  -26.9056  -25.3797 O   0  0  0  0  0  0  0  0  0  0  0  0
   -3.0232  -26.9708  -23.3589 O   0  0  0  0  0  0  0  0  0  0  0  0
   -5.4469  -26.3380  -23.1297 O   0  0  0  0  0  0  0  0  0  0  0  0
   -2.2709  -26.9340  -23.9701 H   0  0  0  0  0  0  0  0  0  0  0  0
   -6.1758  -25.9119  -23.6070 H   0  0  0  0  0  0  0  0  0  0  0  0
 27 28  2  0  0  0
 27 29  1  0  0  0
 27 31  1  0  0  0
 27 26  1  0  0  0
 31 32  1  0  0  0
 26 25  1  0  0  0
 32 33  2  0  0  0
 32 34  1  0  0  0
 32 35  1  0  0  0
 25  1  1  0  0  0
  1  2  1  0  0  0
  1  3  1  0  0  0
  2  7  1  0  0  0
  3  4  1  0  0  0
  3  5  1  0  0  0
  5  6  1  0  0  0
  5  7  1  0  0  0
  7 10  1  0  0  0
 10 11  1  0  0  0
 10 21  1  0  0  0
 11 12  1  0  0  0
 12 13  1  0  0  0
 12 14  1  0  0  0
 14 15  1  0  0  0
 14 21  2  0  0  0
 15 16  2  0  0  0
 15 17  1  0  0  0
 17 18  1  0  0  0
 18 19  1  0  0  0
 18 20  2  0  0  0
 20 21  1  0  0  0
 29 30  1  0  0  0
 34 36  1  0  0  0
 35 37  1  0  0  0
  4  8  1  0  0  0
  6  9  1  0  0  0
 17 22  1  0  0  0
 19 23  1  0  0  0
 19 24  1  0  0  0
M  END
> <minimizedAffinity>
-8.76405

$$$$
4EMF_M7G_A_304


 37 39  0  0  0  0  0  0  0  0999 V2000
   -3.8407  -22.8655  -20.6707 C   0  0  0  0  0  0  0  0  0  0  0  0
   -4.4171  -22.4209  -19.4505 O   0  0  0  0  0  0  0  0  0  0  0  0
   -3.6791  -24.3823  -20.5501 C   0  0  0  0  0  0  0  0  0  0  0  0
   -2.5225  -24.7328  -19.7421 O   0  0  0  0  0  0  0  0  0  0  0  0
   -4.9139  -24.7243  -19.7697 C   0  0  0  0  0  0  0  0  0  0  0  0
   -4.6468  -25.8836  -18.9951 O   0  0  0  0  0  0  0  0  0  0  0  0
   -5.0278  -23.5452  -18.8352 C   0  0  0  0  0  0  0  0  0  0  0  0
   -2.5932  -24.3059  -18.8740 H   0  0  0  0  0  0  0  0  0  0  0  0
   -3.8603  -25.7325  -18.4477 H   0  0  0  0  0  0  0  0  0  0  0  0
   -6.3769  -23.1156  -18.4985 N   0  0  0  0  0  0  0  0  0  0  0  0
   -7.4540  -23.4222  -19.4367 C   0  0  0  0  0  0  0  0  0  0  0  0
   -8.4916  -22.7907  -18.6176 N   0  0  0  0  0  0  0  0  0  0  0  0
   -9.8335  -22.8964  -19.2621 C   0  0  0  0  0  0  0  0  0  0  0  0
   -8.0691  -22.2444  -17.4583 C   0  0  0  0  0  0  0  0  0  0  0  0
   -8.6925  -21.5418  -16.3335 C   0  0  0  0  0  0  0  0  0  0  0  0
   -9.9244  -21.3361  -16.3369 O   0  0  0  0  0  0  0  0  0  0  0  0
   -7.8615  -21.1693  -15.3262 N   0  0  0  0  0  0  0  0  0  0  0  0
   -6.5176  -21.3983  -15.3348 C   0  0  0  0  0  0  0  0  0  0  0  0
   -5.6985  -21.0304  -14.3282 N   0  0  0  0  0  0  0  0  0  0  0  0
   -5.9126  -22.0526  -16.3253 N   0  0  0  0  0  0  0  0  0  0  0  0
   -6.6326  -22.4605  -17.3919 C   0  0  0  0  0  0  0  0  0  0  0  0
   -8.2505  -20.7091  -14.5477 H   0  0  0  0  0  0  0  0  0  0  0  0
   -6.0594  -20.5419  -13.5534 H   0  0  0  0  0  0  0  0  0  0  0  0
   -4.7398  -21.2505  -14.3683 H   0  0  0  0  0  0  0  0  0  0  0  0
   -4.8088  -22.4846  -21.7787 C   0  0  0  0  0  0  0  0  0  0  0  0
   -4.9848  -23.5190  -22.7492 O   0  0  0  0  0  0  0  0  0  0  0  0
   -4.2955  -23.4656  -24.2136 P   0  0  0  0  0  0  0  0  0  0  0  0
   -5.4405  -23.6585  -25.1943 O   0  0  0  0  0  0  0  0  0  0  0  0
   -3.3127  -22.3807  -24.4166 O   0  0  0  0  0  0  0  0  0  0  0  0
   -2.9570  -22.4310  -25.3176 H   0  0  0  0  0  0  0  0  0  0  0  0
   -3.5400  -24.8921  -24.0676 O   0  0  0  0  0  0  0  0  0  0  0  0
   -4.0697  -26.3944  -23.8142 P   0  0  0  0  0  0  0  0  0  0  0  0
   -3.2091  -27.0866  -22.7772 O   0  0  0  0  0  0  0  0  0  0  0  0
   -5.4565  -26.2034  -23.3083 O   0  0  0  0  0  0  0  0  0  0  0  0
   -3.9943  -27.0347  -25.1785 O   0  0  0  0  0  0  0  0  0  0  0  0
   -5.4267  -25.7893  -22.4316 H   0  0  0  0  0  0  0  0  0  0  0  0
   -3.0652  -27.1268  -25.4415 H   0  0  0  0  0  0  0  0  0  0  0  0
 27 28  2  0  0  0
 27 29  1  0  0  0
 27 31  1  0  0  0
 27 26  1  0  0  0
 31 32  1  0  0  0
 26 25  1  0  0  0
 32 33  2  0  0  0
 32 34  1  0  0  0
 32 35  1  0  0  0
 25  1  1  0  0  0
  1  2  1  0  0  0
  1  3  1  0  0  0
  2  7  1  0  0  0
  3  4  1  0  0  0
  3  5  1  0  0  0
  5  6  1  0  0  0
  5  7  1  0  0  0
  7 10  1  0  0  0
 10 11  1  0  0  0
 10 21  1  0  0  0
 11 12  1  0  0  0
 12 13  1  0  0  0
 12 14  1  0  0  0
 14 15  1  0  0  0
 14 21  2  0  0  0
 15 16  2  0  0  0
 15 17  1  0  0  0
 17 18  1  0  0  0
 18 19  1  0  0  0
 18 20  2  0  0  0
 20 21  1  0  0  0
 29 30  1  0  0  0
 34 36  1  0  0  0
 35 37  1  0  0  0
  4  8  1  0  0  0
  6  9  1  0  0  0
 17 22  1  0  0  0
 19 23  1  0  0  0
 19 24  1  0  0  0
M  END
> <minimizedAffinity>
-8.66067

$$$$
4EMF_M7G_A_304


 37 39  0  0  0  0  0  0  0  0999 V2000
   -4.9062  -24.7722  -21.0120 C   0  0  0  0  0  0  0  0  0  0  0  0
   -5.6371  -23.5644  -20.8517 O   0  0  0  0  0  0  0  0  0  0  0  0
   -3.7881  -24.7478  -19.9676 C   0  0  0  0  0  0  0  0  0  0  0  0
   -2.6888  -23.8920  -20.3834 O   0  0  0  0  0  0  0  0  0  0  0  0
   -4.4968  -24.0759  -18.8287 C   0  0  0  0  0  0  0  0  0  0  0  0
   -3.5363  -23.3684  -18.0591 O   0  0  0  0  0  0  0  0  0  0  0  0
   -5.3607  -23.0707  -19.5497 C   0  0  0  0  0  0  0  0  0  0  0  0
   -3.0257  -23.0027  -20.5744 H   0  0  0  0  0  0  0  0  0  0  0  0
   -3.0447  -22.7614  -18.6343 H   0  0  0  0  0  0  0  0  0  0  0  0
   -6.6611  -22.7941  -18.9576 N   0  0  0  0  0  0  0  0  0  0  0  0
   -7.8543  -23.0476  -19.7614 C   0  0  0  0  0  0  0  0  0  0  0  0
   -8.7824  -22.6150  -18.7137 N   0  0  0  0  0  0  0  0  0  0  0  0
  -10.2013  -22.7306  -19.1615 C   0  0  0  0  0  0  0  0  0  0  0  0
   -8.2127  -22.2042  -17.5614 C   0  0  0  0  0  0  0  0  0  0  0  0
   -8.6882  -21.7128  -16.2653 C   0  0  0  0  0  0  0  0  0  0  0  0
   -9.9144  -21.6014  -16.0564 O   0  0  0  0  0  0  0  0  0  0  0  0
   -7.7302  -21.4221  -15.3478 N   0  0  0  0  0  0  0  0  0  0  0  0
   -6.3942  -21.5464  -15.5885 C   0  0  0  0  0  0  0  0  0  0  0  0
   -5.4479  -21.2612  -14.6706 N   0  0  0  0  0  0  0  0  0  0  0  0
   -5.9184  -22.0103  -16.7434 N   0  0  0  0  0  0  0  0  0  0  0  0
   -6.7742  -22.3194  -17.7406 C   0  0  0  0  0  0  0  0  0  0  0  0
   -8.0160  -21.1045  -14.4608 H   0  0  0  0  0  0  0  0  0  0  0  0
   -5.7080  -20.9130  -13.7872 H   0  0  0  0  0  0  0  0  0  0  0  0
   -4.4970  -21.4012  -14.8840 H   0  0  0  0  0  0  0  0  0  0  0  0
   -5.8823  -25.9120  -20.7710 C   0  0  0  0  0  0  0  0  0  0  0  0
   -7.1098  -25.7594  -21.4870 O   0  0  0  0  0  0  0  0  0  0  0  0
   -7.5318  -26.7339  -22.7096 P   0  0  0  0  0  0  0  0  0  0  0  0
   -6.4287  -26.5695  -23.7421 O   0  0  0  0  0  0  0  0  0  0  0  0
   -7.9953  -28.0820  -22.3197 O   0  0  0  0  0  0  0  0  0  0  0  0
   -8.2237  -28.5880  -23.1151 H   0  0  0  0  0  0  0  0  0  0  0  0
   -8.7834  -25.8239  -23.1918 O   0  0  0  0  0  0  0  0  0  0  0  0
   -8.9422  -24.2479  -23.4964 P   0  0  0  0  0  0  0  0  0  0  0  0
   -9.4427  -24.0344  -24.9104 O   0  0  0  0  0  0  0  0  0  0  0  0
   -9.9529  -23.7923  -22.5033 O   0  0  0  0  0  0  0  0  0  0  0  0
   -7.5568  -23.6975  -23.2625 O   0  0  0  0  0  0  0  0  0  0  0  0
  -10.8145  -24.1840  -22.7158 H   0  0  0  0  0  0  0  0  0  0  0  0
   -6.9552  -24.0355  -23.9443 H   0  0  0  0  0  0  0  0  0  0  0  0
 27 28  2  0  0  0
 27 29  1  0  0  0
 27 31  1  0  0  0
 27 26  1  0  0  0
 31 32  1  0  0  0
 26 25  1  0  0  0
 32 33  2  0  0  0
 32 34  1  0  0  0
 32 35  1  0  0  0
 25  1  1  0  0  0
  1  2  1  0  0  0
  1  3  1  0  0  0
  2  7  1  0  0  0
  3  4  1  0  0  0
  3  5  1  0  0  0
  5  6  1  0  0  0
  5  7  1  0  0  0
  7 10  1  0  0  0
 10 11  1  0  0  0
 10 21  1  0  0  0
 11 12  1  0  0  0
 12 13  1  0  0  0
 12 14  1  0  0  0
 14 15  1  0  0  0
 14 21  2  0  0  0
 15 16  2  0  0  0
 15 17  1  0  0  0
 17 18  1  0  0  0
 18 19  1  0  0  0
 18 20  2  0  0  0
 20 21  1  0  0  0
 29 30  1  0  0  0
 34 36  1  0  0  0
 35 37  1  0  0  0
  4  8  1  0  0  0
  6  9  1  0  0  0
 17 22  1  0  0  0
 19 23  1  0  0  0
 19 24  1  0  0  0
M  END
> <minimizedAffinity>
-8.30897

$$$$
4EMF_M7G_A_304


 37 39  0  0  0  0  0  0  0  0999 V2000
   -5.0388  -24.5513  -22.2704 C   0  0  0  0  0  0  0  0  0  0  0  0
   -4.9684  -23.4471  -21.3789 O   0  0  0  0  0  0  0  0  0  0  0  0
   -4.5129  -25.7662  -21.5030 C   0  0  0  0  0  0  0  0  0  0  0  0
   -3.0607  -25.7660  -21.4347 O   0  0  0  0  0  0  0  0  0  0  0  0
   -5.0442  -25.4702  -20.1316 C   0  0  0  0  0  0  0  0  0  0  0  0
   -4.1654  -26.0468  -19.1773 O   0  0  0  0  0  0  0  0  0  0  0  0
   -4.9030  -23.9697  -20.0605 C   0  0  0  0  0  0  0  0  0  0  0  0
   -2.7555  -24.9316  -21.0453 H   0  0  0  0  0  0  0  0  0  0  0  0
   -3.2637  -25.7244  -19.3320 H   0  0  0  0  0  0  0  0  0  0  0  0
   -5.9292  -23.2590  -19.3123 N   0  0  0  0  0  0  0  0  0  0  0  0
   -7.1318  -22.8320  -20.0232 C   0  0  0  0  0  0  0  0  0  0  0  0
   -7.7432  -22.2205  -18.8406 N   0  0  0  0  0  0  0  0  0  0  0  0
   -9.0773  -21.6327  -19.1597 C   0  0  0  0  0  0  0  0  0  0  0  0
   -7.0199  -22.2957  -17.7039 C   0  0  0  0  0  0  0  0  0  0  0  0
   -7.1931  -21.8698  -16.3124 C   0  0  0  0  0  0  0  0  0  0  0  0
   -8.2365  -21.2738  -15.9717 O   0  0  0  0  0  0  0  0  0  0  0  0
   -6.1817  -22.1806  -15.4614 N   0  0  0  0  0  0  0  0  0  0  0  0
   -5.0466  -22.8304  -15.8459 C   0  0  0  0  0  0  0  0  0  0  0  0
   -4.0480  -23.1411  -14.9940 N   0  0  0  0  0  0  0  0  0  0  0  0
   -4.8571  -23.2555  -17.0944 N   0  0  0  0  0  0  0  0  0  0  0  0
   -5.7874  -22.9920  -18.0364 C   0  0  0  0  0  0  0  0  0  0  0  0
   -6.2731  -21.9229  -14.5156 H   0  0  0  0  0  0  0  0  0  0  0  0
   -4.1029  -22.8668  -14.0501 H   0  0  0  0  0  0  0  0  0  0  0  0
   -3.2641  -23.6422  -15.3162 H   0  0  0  0  0  0  0  0  0  0  0  0
   -6.5002  -24.7129  -22.6554 C   0  0  0  0  0  0  0  0  0  0  0  0
   -6.7846  -24.2562  -23.9795 O   0  0  0  0  0  0  0  0  0  0  0  0
   -7.7265  -22.9723  -24.2744 P   0  0  0  0  0  0  0  0  0  0  0  0
   -8.4967  -23.3308  -25.5345 O   0  0  0  0  0  0  0  0  0  0  0  0
   -8.4314  -22.4157  -23.1007 O   0  0  0  0  0  0  0  0  0  0  0  0
   -8.9666  -21.6549  -23.3758 H   0  0  0  0  0  0  0  0  0  0  0  0
   -6.5073  -21.9992  -24.7146 O   0  0  0  0  0  0  0  0  0  0  0  0
   -5.6467  -20.8894  -23.9212 P   0  0  0  0  0  0  0  0  0  0  0  0
   -6.3560  -20.4901  -22.6433 O   0  0  0  0  0  0  0  0  0  0  0  0
   -4.3635  -21.5810  -23.6197 O   0  0  0  0  0  0  0  0  0  0  0  0
   -5.5196  -19.7595  -24.9132 O   0  0  0  0  0  0  0  0  0  0  0  0
   -4.5219  -22.2913  -22.9785 H   0  0  0  0  0  0  0  0  0  0  0  0
   -6.3905  -19.3583  -25.0597 H   0  0  0  0  0  0  0  0  0  0  0  0
 27 28  2  0  0  0
 27 29  1  0  0  0
 27 31  1  0  0  0
 27 26  1  0  0  0
 31 32  1  0  0  0
 26 25  1  0  0  0
 32 33  2  0  0  0
 32 34  1  0  0  0
 32 35  1  0  0  0
 25  1  1  0  0  0
  1  2  1  0  0  0
  1  3  1  0  0  0
  2  7  1  0  0  0
  3  4  1  0  0  0
  3  5  1  0  0  0
  5  6  1  0  0  0
  5  7  1  0  0  0
  7 10  1  0  0  0
 10 11  1  0  0  0
 10 21  1  0  0  0
 11 12  1  0  0  0
 12 13  1  0  0  0
 12 14  1  0  0  0
 14 15  1  0  0  0
 14 21  2  0  0  0
 15 16  2  0  0  0
 15 17  1  0  0  0
 17 18  1  0  0  0
 18 19  1  0  0  0
 18 20  2  0  0  0
 20 21  1  0  0  0
 29 30  1  0  0  0
 34 36  1  0  0  0
 35 37  1  0  0  0
  4  8  1  0  0  0
  6  9  1  0  0  0
 17 22  1  0  0  0
 19 23  1  0  0  0
 19 24  1  0  0  0
M  END
> <minimizedAffinity>
-8.11604

$$$$
4EMF_M7G_A_304


 37 39  0  0  0  0  0  0  0  0999 V2000
   -4.8274  -25.0413  -21.1170 C   0  0  0  0  0  0  0  0  0  0  0  0
   -5.5561  -23.8265  -21.0063 O   0  0  0  0  0  0  0  0  0  0  0  0
   -3.7585  -25.0104  -20.0224 C   0  0  0  0  0  0  0  0  0  0  0  0
   -2.6350  -24.1675  -20.3979 O   0  0  0  0  0  0  0  0  0  0  0  0
   -4.5142  -24.3188  -18.9263 C   0  0  0  0  0  0  0  0  0  0  0  0
   -3.5852  -23.6075  -18.1223 O   0  0  0  0  0  0  0  0  0  0  0  0
   -5.3366  -23.3175  -19.6994 C   0  0  0  0  0  0  0  0  0  0  0  0
   -2.9563  -23.2786  -20.6158 H   0  0  0  0  0  0  0  0  0  0  0  0
   -3.0632  -23.0115  -18.6819 H   0  0  0  0  0  0  0  0  0  0  0  0
   -6.6609  -23.0244  -19.1718 N   0  0  0  0  0  0  0  0  0  0  0  0
   -7.8208  -23.3396  -20.0021 C   0  0  0  0  0  0  0  0  0  0  0  0
   -8.7916  -22.8596  -19.0155 N   0  0  0  0  0  0  0  0  0  0  0  0
  -10.1917  -23.0196  -19.5068 C   0  0  0  0  0  0  0  0  0  0  0  0
   -8.2694  -22.3756  -17.8693 C   0  0  0  0  0  0  0  0  0  0  0  0
   -8.7976  -21.8165  -16.6219 C   0  0  0  0  0  0  0  0  0  0  0  0
  -10.0319  -21.7095  -16.4642 O   0  0  0  0  0  0  0  0  0  0  0  0
   -7.8774  -21.4607  -15.6888 N   0  0  0  0  0  0  0  0  0  0  0  0
   -6.5321  -21.5811  -15.8735 C   0  0  0  0  0  0  0  0  0  0  0  0
   -5.6235  -21.2308  -14.9401 N   0  0  0  0  0  0  0  0  0  0  0  0
   -6.0090  -22.1044  -16.9816 N   0  0  0  0  0  0  0  0  0  0  0  0
   -6.8240  -22.4818  -17.9893 C   0  0  0  0  0  0  0  0  0  0  0  0
   -8.1992  -21.0963  -14.8328 H   0  0  0  0  0  0  0  0  0  0  0  0
   -5.9199  -20.8357  -14.0885 H   0  0  0  0  0  0  0  0  0  0  0  0
   -4.6639  -21.3704  -15.1105 H   0  0  0  0  0  0  0  0  0  0  0  0
   -5.8218  -26.1713  -20.9067 C   0  0  0  0  0  0  0  0  0  0  0  0
   -6.1953  -26.8226  -22.1228 O   0  0  0  0  0  0  0  0  0  0  0  0
   -7.6128  -26.5497  -22.8570 P   0  0  0  0  0  0  0  0  0  0  0  0
   -7.8166  -27.7441  -23.7745 O   0  0  0  0  0  0  0  0  0  0  0  0
   -8.7073  -26.0871  -21.9783 O   0  0  0  0  0  0  0  0  0  0  0  0
   -9.5102  -25.9520  -22.5056 H   0  0  0  0  0  0  0  0  0  0  0  0
   -7.0670  -25.3271  -23.7707 O   0  0  0  0  0  0  0  0  0  0  0  0
   -6.1469  -25.2713  -25.0943 P   0  0  0  0  0  0  0  0  0  0  0  0
   -4.8551  -26.0298  -24.8679 O   0  0  0  0  0  0  0  0  0  0  0  0
   -6.9766  -25.9387  -26.1343 O   0  0  0  0  0  0  0  0  0  0  0  0
   -5.9412  -23.7942  -25.3243 O   0  0  0  0  0  0  0  0  0  0  0  0
   -7.0654  -26.8810  -25.9216 H   0  0  0  0  0  0  0  0  0  0  0  0
   -5.3945  -23.4290  -24.6112 H   0  0  0  0  0  0  0  0  0  0  0  0
 27 28  2  0  0  0
 27 29  1  0  0  0
 27 31  1  0  0  0
 27 26  1  0  0  0
 31 32  1  0  0  0
 26 25  1  0  0  0
 32 33  2  0  0  0
 32 34  1  0  0  0
 32 35  1  0  0  0
 25  1  1  0  0  0
  1  2  1  0  0  0
  1  3  1  0  0  0
  2  7  1  0  0  0
  3  4  1  0  0  0
  3  5  1  0  0  0
  5  6  1  0  0  0
  5  7  1  0  0  0
  7 10  1  0  0  0
 10 11  1  0  0  0
 10 21  1  0  0  0
 11 12  1  0  0  0
 12 13  1  0  0  0
 12 14  1  0  0  0
 14 15  1  0  0  0
 14 21  2  0  0  0
 15 16  2  0  0  0
 15 17  1  0  0  0
 17 18  1  0  0  0
 18 19  1  0  0  0
 18 20  2  0  0  0
 20 21  1  0  0  0
 29 30  1  0  0  0
 34 36  1  0  0  0
 35 37  1  0  0  0
  4  8  1  0  0  0
  6  9  1  0  0  0
 17 22  1  0  0  0
 19 23  1  0  0  0
 19 24  1  0  0  0
M  END
> <minimizedAffinity>
-8.01852

$$$$
