5WBM_A4G_A_301


 20 22  0  0  0  0  0  0  0  0999 V2000
  -17.8347  -27.6340  -13.1894 N   0  0  0  0  0  0  0  0  0  0  0  0
  -16.8052  -26.8974  -13.6405 C   0  0  0  0  0  0  0  0  0  0  0  0
  -19.3699  -26.3567  -14.5438 N   0  0  0  0  0  0  0  0  0  0  0  0
  -19.0402  -27.3137  -13.6691 C   0  0  0  0  0  0  0  0  0  0  0  0
  -18.3237  -25.6216  -14.9817 C   0  0  0  0  0  0  0  0  0  0  0  0
  -15.0687  -24.2595  -15.7172 C   0  0  0  0  0  0  0  0  0  0  0  0
  -15.5809  -25.3242  -14.7923 C   0  0  0  0  0  0  0  0  0  0  0  0
  -14.7684  -26.0766  -13.9556 C   0  0  0  0  0  0  0  0  0  0  0  0
  -15.4986  -27.0128  -13.2719 N   0  0  0  0  0  0  0  0  0  0  0  0
  -16.9324  -25.8184  -14.5999 C   0  0  0  0  0  0  0  0  0  0  0  0
  -15.1394  -27.6603  -12.6231 H   0  0  0  0  0  0  0  0  0  0  0  0
  -20.9679  -24.0063  -16.4737 C   0  0  0  0  0  0  0  0  0  0  0  0
  -19.8672  -23.7432  -15.4631 C   0  0  0  0  0  0  0  0  0  0  0  0
  -18.6458  -24.4954  -15.7665 N   0  0  0  0  0  0  0  0  0  0  0  0
  -20.4897  -23.6643  -17.8794 C   0  0  0  0  0  0  0  0  0  0  0  0
  -19.1944  -24.3792  -18.2463 C   0  0  0  0  0  0  0  0  0  0  0  0
  -18.1400  -24.3876  -17.1371 C   0  0  0  0  0  0  0  0  0  0  0  0
  -18.6143  -23.6338  -19.4271 C   0  0  0  0  0  0  0  0  0  0  0  0
  -17.2104  -23.7589  -19.4620 O   0  0  0  0  0  0  0  0  0  0  0  0
  -16.9713  -24.6950  -19.5483 H   0  0  0  0  0  0  0  0  0  0  0  0
 19 18  1  0  0  0
 18 16  1  0  0  0
 16 15  1  0  0  0
 16 17  1  0  0  0
 15 12  1  0  0  0
 17 14  1  0  0  0
 12 13  1  0  0  0
 14 13  1  0  0  0
 14  5  1  0  0  0
  6  7  1  0  0  0
  5  3  2  0  0  0
  5 10  1  0  0  0
  7 10  1  0  0  0
  7  8  2  0  0  0
  3  4  1  0  0  0
 10  2  2  0  0  0
  8  9  1  0  0  0
  4  1  2  0  0  0
  2  1  1  0  0  0
  2  9  1  0  0  0
  9 11  1  0  0  0
 19 20  1  0  0  0
M  END
> <minimizedAffinity>
-7.53285

$$$$
5WBM_A4G_A_301


 20 22  0  0  0  0  0  0  0  0999 V2000
  -15.3926  -22.4574  -16.8222 N   0  0  0  0  0  0  0  0  0  0  0  0
  -15.4388  -23.5415  -16.0295 C   0  0  0  0  0  0  0  0  0  0  0  0
  -17.6304  -22.9078  -17.6047 N   0  0  0  0  0  0  0  0  0  0  0  0
  -16.4859  -22.2171  -17.5523 C   0  0  0  0  0  0  0  0  0  0  0  0
  -17.6569  -23.9982  -16.8067 C   0  0  0  0  0  0  0  0  0  0  0  0
  -16.9735  -26.5793  -14.3855 C   0  0  0  0  0  0  0  0  0  0  0  0
  -16.1873  -25.4367  -14.9578 C   0  0  0  0  0  0  0  0  0  0  0  0
  -14.8841  -25.1342  -14.5881 C   0  0  0  0  0  0  0  0  0  0  0  0
  -14.4410  -24.0056  -15.2261 N   0  0  0  0  0  0  0  0  0  0  0  0
  -16.5828  -24.4250  -15.9210 C   0  0  0  0  0  0  0  0  0  0  0  0
  -13.5508  -23.5983  -15.1216 H   0  0  0  0  0  0  0  0  0  0  0  0
  -20.8301  -24.1209  -18.1269 C   0  0  0  0  0  0  0  0  0  0  0  0
  -19.4998  -24.8430  -18.2322 C   0  0  0  0  0  0  0  0  0  0  0  0
  -18.7707  -24.8489  -16.9601 N   0  0  0  0  0  0  0  0  0  0  0  0
  -21.6929  -24.7552  -17.0430 C   0  0  0  0  0  0  0  0  0  0  0  0
  -20.9783  -24.8352  -15.6990 C   0  0  0  0  0  0  0  0  0  0  0  0
  -19.5209  -25.2946  -15.7835 C   0  0  0  0  0  0  0  0  0  0  0  0
  -21.7341  -25.8514  -14.8727 C   0  0  0  0  0  0  0  0  0  0  0  0
  -22.9259  -26.2399  -15.5181 O   0  0  0  0  0  0  0  0  0  0  0  0
  -22.7133  -26.6440  -16.3739 H   0  0  0  0  0  0  0  0  0  0  0  0
 19 18  1  0  0  0
 18 16  1  0  0  0
 16 15  1  0  0  0
 16 17  1  0  0  0
 15 12  1  0  0  0
 17 14  1  0  0  0
 12 13  1  0  0  0
 14 13  1  0  0  0
 14  5  1  0  0  0
  6  7  1  0  0  0
  5  3  2  0  0  0
  5 10  1  0  0  0
  7 10  1  0  0  0
  7  8  2  0  0  0
  3  4  1  0  0  0
 10  2  2  0  0  0
  8  9  1  0  0  0
  4  1  2  0  0  0
  2  1  1  0  0  0
  2  9  1  0  0  0
  9 11  1  0  0  0
 19 20  1  0  0  0
M  END
> <minimizedAffinity>
-7.14870

$$$$
5WBM_A4G_A_301


 20 22  0  0  0  0  0  0  0  0999 V2000
  -22.1177  -28.8409  -16.9856 N   0  0  0  0  0  0  0  0  0  0  0  0
  -21.6002  -28.4663  -15.8033 C   0  0  0  0  0  0  0  0  0  0  0  0
  -21.4182  -26.7551  -17.9769 N   0  0  0  0  0  0  0  0  0  0  0  0
  -21.9924  -27.9633  -17.9857 C   0  0  0  0  0  0  0  0  0  0  0  0
  -20.9092  -26.3918  -16.7788 C   0  0  0  0  0  0  0  0  0  0  0  0
  -19.7437  -26.2472  -13.3712 C   0  0  0  0  0  0  0  0  0  0  0  0
  -20.5334  -27.2391  -14.1734 C   0  0  0  0  0  0  0  0  0  0  0  0
  -21.0033  -28.4429  -13.6668 C   0  0  0  0  0  0  0  0  0  0  0  0
  -21.6367  -29.1720  -14.6384 N   0  0  0  0  0  0  0  0  0  0  0  0
  -20.9235  -27.2056  -15.5714 C   0  0  0  0  0  0  0  0  0  0  0  0
  -22.0492  -30.0575  -14.5155 H   0  0  0  0  0  0  0  0  0  0  0  0
  -20.2536  -23.5887  -18.6602 C   0  0  0  0  0  0  0  0  0  0  0  0
  -21.1058  -24.0236  -17.4826 C   0  0  0  0  0  0  0  0  0  0  0  0
  -20.4521  -25.0617  -16.6797 N   0  0  0  0  0  0  0  0  0  0  0  0
  -18.8983  -23.0873  -18.1771 C   0  0  0  0  0  0  0  0  0  0  0  0
  -18.1797  -24.1024  -17.2958 C   0  0  0  0  0  0  0  0  0  0  0  0
  -19.0750  -24.7887  -16.2615 C   0  0  0  0  0  0  0  0  0  0  0  0
  -17.1125  -23.3376  -16.5456 C   0  0  0  0  0  0  0  0  0  0  0  0
  -16.9616  -22.0374  -17.0696 O   0  0  0  0  0  0  0  0  0  0  0  0
  -17.7981  -21.5542  -16.9817 H   0  0  0  0  0  0  0  0  0  0  0  0
 19 18  1  0  0  0
 18 16  1  0  0  0
 16 15  1  0  0  0
 16 17  1  0  0  0
 15 12  1  0  0  0
 17 14  1  0  0  0
 12 13  1  0  0  0
 14 13  1  0  0  0
 14  5  1  0  0  0
  6  7  1  0  0  0
  5  3  2  0  0  0
  5 10  1  0  0  0
  7 10  1  0  0  0
  7  8  2  0  0  0
  3  4  1  0  0  0
 10  2  2  0  0  0
  8  9  1  0  0  0
  4  1  2  0  0  0
  2  1  1  0  0  0
  2  9  1  0  0  0
  9 11  1  0  0  0
 19 20  1  0  0  0
M  END
> <minimizedAffinity>
-7.01695

$$$$
5WBM_A4G_A_301


 20 22  0  0  0  0  0  0  0  0999 V2000
  -19.2928  -23.7672  -17.2276 N   0  0  0  0  0  0  0  0  0  0  0  0
  -18.5139  -24.4428  -16.3658 C   0  0  0  0  0  0  0  0  0  0  0  0
  -21.2614  -24.8072  -16.2971 N   0  0  0  0  0  0  0  0  0  0  0  0
  -20.6063  -23.9956  -17.1348 C   0  0  0  0  0  0  0  0  0  0  0  0
  -20.4624  -25.4836  -15.4423 C   0  0  0  0  0  0  0  0  0  0  0  0
  -17.7149  -26.7666  -13.4938 C   0  0  0  0  0  0  0  0  0  0  0  0
  -17.8313  -25.8442  -14.6715 C   0  0  0  0  0  0  0  0  0  0  0  0
  -16.7455  -25.2362  -15.2863 C   0  0  0  0  0  0  0  0  0  0  0  0
  -17.1540  -24.4019  -16.2934 N   0  0  0  0  0  0  0  0  0  0  0  0
  -19.0131  -25.3653  -15.3653 C   0  0  0  0  0  0  0  0  0  0  0  0
  -16.5637  -23.8632  -16.8684 H   0  0  0  0  0  0  0  0  0  0  0  0
  -22.3090  -28.3746  -15.6849 C   0  0  0  0  0  0  0  0  0  0  0  0
  -21.0055  -27.8758  -15.0898 C   0  0  0  0  0  0  0  0  0  0  0  0
  -21.0916  -26.4758  -14.6629 N   0  0  0  0  0  0  0  0  0  0  0  0
  -23.4455  -28.2119  -14.6831 C   0  0  0  0  0  0  0  0  0  0  0  0
  -23.5648  -26.7847  -14.1611 C   0  0  0  0  0  0  0  0  0  0  0  0
  -22.2291  -26.1259  -13.8088 C   0  0  0  0  0  0  0  0  0  0  0  0
  -24.3890  -26.8599  -12.8955 C   0  0  0  0  0  0  0  0  0  0  0  0
  -24.6636  -25.5705  -12.3955 O   0  0  0  0  0  0  0  0  0  0  0  0
  -25.1674  -25.0685  -13.0551 H   0  0  0  0  0  0  0  0  0  0  0  0
 19 18  1  0  0  0
 18 16  1  0  0  0
 16 15  1  0  0  0
 16 17  1  0  0  0
 15 12  1  0  0  0
 17 14  1  0  0  0
 12 13  1  0  0  0
 14 13  1  0  0  0
 14  5  1  0  0  0
  6  7  1  0  0  0
  5  3  2  0  0  0
  5 10  1  0  0  0
  7 10  1  0  0  0
  7  8  2  0  0  0
  3  4  1  0  0  0
 10  2  2  0  0  0
  8  9  1  0  0  0
  4  1  2  0  0  0
  2  1  1  0  0  0
  2  9  1  0  0  0
  9 11  1  0  0  0
 19 20  1  0  0  0
M  END
> <minimizedAffinity>
-7.01098

$$$$
5WBM_A4G_A_301


 20 22  0  0  0  0  0  0  0  0999 V2000
  -18.8019  -23.3737  -19.2414 N   0  0  0  0  0  0  0  0  0  0  0  0
  -19.5935  -23.8428  -18.2620 C   0  0  0  0  0  0  0  0  0  0  0  0
  -16.8778  -23.5388  -17.7946 N   0  0  0  0  0  0  0  0  0  0  0  0
  -17.5051  -23.2537  -18.9412 C   0  0  0  0  0  0  0  0  0  0  0  0
  -17.6897  -24.0027  -16.8189 C   0  0  0  0  0  0  0  0  0  0  0  0
  -20.4456  -25.2496  -14.8589 C   0  0  0  0  0  0  0  0  0  0  0  0
  -20.3090  -24.6719  -16.2369 C   0  0  0  0  0  0  0  0  0  0  0  0
  -21.3715  -24.5095  -17.1150 C   0  0  0  0  0  0  0  0  0  0  0  0
  -20.9435  -24.0171  -18.3197 N   0  0  0  0  0  0  0  0  0  0  0  0
  -19.1232  -24.2251  -16.9453 C   0  0  0  0  0  0  0  0  0  0  0  0
  -21.5156  -23.8219  -19.0968 H   0  0  0  0  0  0  0  0  0  0  0  0
  -14.6605  -23.9475  -15.1916 C   0  0  0  0  0  0  0  0  0  0  0  0
  -16.0093  -23.2534  -15.1585 C   0  0  0  0  0  0  0  0  0  0  0  0
  -17.1030  -24.1500  -15.5453 N   0  0  0  0  0  0  0  0  0  0  0  0
  -14.6704  -25.1688  -14.2806 C   0  0  0  0  0  0  0  0  0  0  0  0
  -15.8135  -26.1259  -14.5982 C   0  0  0  0  0  0  0  0  0  0  0  0
  -17.1580  -25.4421  -14.8574 C   0  0  0  0  0  0  0  0  0  0  0  0
  -15.9756  -27.0155  -13.3862 C   0  0  0  0  0  0  0  0  0  0  0  0
  -14.7205  -27.3855  -12.8610 O   0  0  0  0  0  0  0  0  0  0  0  0
  -14.2363  -26.5900  -12.5896 H   0  0  0  0  0  0  0  0  0  0  0  0
 19 18  1  0  0  0
 18 16  1  0  0  0
 16 15  1  0  0  0
 16 17  1  0  0  0
 15 12  1  0  0  0
 17 14  1  0  0  0
 12 13  1  0  0  0
 14 13  1  0  0  0
 14  5  1  0  0  0
  6  7  1  0  0  0
  5  3  2  0  0  0
  5 10  1  0  0  0
  7 10  1  0  0  0
  7  8  2  0  0  0
  3  4  1  0  0  0
 10  2  2  0  0  0
  8  9  1  0  0  0
  4  1  2  0  0  0
  2  1  1  0  0  0
  2  9  1  0  0  0
  9 11  1  0  0  0
 19 20  1  0  0  0
M  END
> <minimizedAffinity>
-6.99067

$$$$
5WBM_A4G_A_301


 20 22  0  0  0  0  0  0  0  0999 V2000
  -16.3504  -24.6114  -15.2948 N   0  0  0  0  0  0  0  0  0  0  0  0
  -16.8945  -24.0037  -16.3628 C   0  0  0  0  0  0  0  0  0  0  0  0
  -18.4149  -25.7928  -14.8886 N   0  0  0  0  0  0  0  0  0  0  0  0
  -17.1447  -25.4592  -14.6341 C   0  0  0  0  0  0  0  0  0  0  0  0
  -18.9481  -25.1675  -15.9616 C   0  0  0  0  0  0  0  0  0  0  0  0
  -19.5494  -23.2261  -18.9383 C   0  0  0  0  0  0  0  0  0  0  0  0
  -18.3933  -23.3758  -17.9936 C   0  0  0  0  0  0  0  0  0  0  0  0
  -17.1872  -22.7040  -18.1367 C   0  0  0  0  0  0  0  0  0  0  0  0
  -16.2964  -23.0798  -17.1660 N   0  0  0  0  0  0  0  0  0  0  0  0
  -18.2500  -24.2258  -16.8255 C   0  0  0  0  0  0  0  0  0  0  0  0
  -15.3781  -22.7394  -17.0657 H   0  0  0  0  0  0  0  0  0  0  0  0
  -21.7608  -26.4846  -14.4849 C   0  0  0  0  0  0  0  0  0  0  0  0
  -21.2453  -25.1665  -15.0318 C   0  0  0  0  0  0  0  0  0  0  0  0
  -20.3309  -25.3558  -16.1621 N   0  0  0  0  0  0  0  0  0  0  0  0
  -22.4586  -27.2774  -15.5832 C   0  0  0  0  0  0  0  0  0  0  0  0
  -21.5781  -27.4738  -16.8119 C   0  0  0  0  0  0  0  0  0  0  0  0
  -20.8038  -26.2257  -17.2417 C   0  0  0  0  0  0  0  0  0  0  0  0
  -22.5042  -27.8540  -17.9452 C   0  0  0  0  0  0  0  0  0  0  0  0
  -21.9492  -28.8901  -18.7238 O   0  0  0  0  0  0  0  0  0  0  0  0
  -21.8127  -29.6739  -18.1689 H   0  0  0  0  0  0  0  0  0  0  0  0
 19 18  1  0  0  0
 18 16  1  0  0  0
 16 15  1  0  0  0
 16 17  1  0  0  0
 15 12  1  0  0  0
 17 14  1  0  0  0
 12 13  1  0  0  0
 14 13  1  0  0  0
 14  5  1  0  0  0
  6  7  1  0  0  0
  5  3  2  0  0  0
  5 10  1  0  0  0
  7 10  1  0  0  0
  7  8  2  0  0  0
  3  4  1  0  0  0
 10  2  2  0  0  0
  8  9  1  0  0  0
  4  1  2  0  0  0
  2  1  1  0  0  0
  2  9  1  0  0  0
  9 11  1  0  0  0
 19 20  1  0  0  0
M  END
> <minimizedAffinity>
-6.93535

$$$$
5WBM_A4G_A_301


 20 22  0  0  0  0  0  0  0  0999 V2000
  -17.8838  -26.0899  -14.6024 N   0  0  0  0  0  0  0  0  0  0  0  0
  -17.9031  -27.1220  -13.7419 C   0  0  0  0  0  0  0  0  0  0  0  0
  -20.2960  -26.0681  -14.6635 N   0  0  0  0  0  0  0  0  0  0  0  0
  -19.0758  -25.6370  -15.0026 C   0  0  0  0  0  0  0  0  0  0  0  0
  -20.2966  -27.1103  -13.8031 C   0  0  0  0  0  0  0  0  0  0  0  0
  -19.4419  -29.7256  -11.4747 C   0  0  0  0  0  0  0  0  0  0  0  0
  -18.6543  -28.7899  -12.3440 C   0  0  0  0  0  0  0  0  0  0  0  0
  -17.2674  -28.7652  -12.3938 C   0  0  0  0  0  0  0  0  0  0  0  0
  -16.8225  -27.7714  -13.2253 N   0  0  0  0  0  0  0  0  0  0  0  0
  -19.1126  -27.7378  -13.2332 C   0  0  0  0  0  0  0  0  0  0  0  0
  -15.8799  -27.5616  -13.4173 H   0  0  0  0  0  0  0  0  0  0  0  0
  -23.0171  -28.4919  -15.3895 C   0  0  0  0  0  0  0  0  0  0  0  0
  -21.9612  -28.8587  -14.3635 C   0  0  0  0  0  0  0  0  0  0  0  0
  -21.5502  -27.7062  -13.5557 N   0  0  0  0  0  0  0  0  0  0  0  0
  -24.2346  -27.8850  -14.7032 C   0  0  0  0  0  0  0  0  0  0  0  0
  -23.8736  -26.7052  -13.8081 C   0  0  0  0  0  0  0  0  0  0  0  0
  -22.6275  -26.9225  -12.9465 C   0  0  0  0  0  0  0  0  0  0  0  0
  -25.0471  -26.5004  -12.8767 C   0  0  0  0  0  0  0  0  0  0  0  0
  -24.9302  -25.2806  -12.1792 O   0  0  0  0  0  0  0  0  0  0  0  0
  -24.9151  -24.5461  -12.8126 H   0  0  0  0  0  0  0  0  0  0  0  0
 19 18  1  0  0  0
 18 16  1  0  0  0
 16 15  1  0  0  0
 16 17  1  0  0  0
 15 12  1  0  0  0
 17 14  1  0  0  0
 12 13  1  0  0  0
 14 13  1  0  0  0
 14  5  1  0  0  0
  6  7  1  0  0  0
  5  3  2  0  0  0
  5 10  1  0  0  0
  7 10  1  0  0  0
  7  8  2  0  0  0
  3  4  1  0  0  0
 10  2  2  0  0  0
  8  9  1  0  0  0
  4  1  2  0  0  0
  2  1  1  0  0  0
  2  9  1  0  0  0
  9 11  1  0  0  0
 19 20  1  0  0  0
M  END
> <minimizedAffinity>
-6.61597

$$$$
5WBM_A4G_A_301


 20 22  0  0  0  0  0  0  0  0999 V2000
  -19.0230  -26.5111  -13.9265 N   0  0  0  0  0  0  0  0  0  0  0  0
  -19.4177  -25.6425  -14.8729 C   0  0  0  0  0  0  0  0  0  0  0  0
  -21.1158  -27.6979  -14.1127 N   0  0  0  0  0  0  0  0  0  0  0  0
  -19.8955  -27.4736  -13.6125 C   0  0  0  0  0  0  0  0  0  0  0  0
  -21.4991  -26.8114  -15.0580 C   0  0  0  0  0  0  0  0  0  0  0  0
  -21.6948  -24.1764  -17.5096 C   0  0  0  0  0  0  0  0  0  0  0  0
  -20.6800  -24.5881  -16.4839 C   0  0  0  0  0  0  0  0  0  0  0  0
  -19.4703  -23.9359  -16.2894 C   0  0  0  0  0  0  0  0  0  0  0  0
  -18.7203  -24.5655  -15.3312 N   0  0  0  0  0  0  0  0  0  0  0  0
  -20.6944  -25.7049  -15.5564 C   0  0  0  0  0  0  0  0  0  0  0  0
  -17.8272  -24.2865  -15.0251 H   0  0  0  0  0  0  0  0  0  0  0  0
  -24.4412  -28.4861  -14.4525 C   0  0  0  0  0  0  0  0  0  0  0  0
  -23.8956  -27.0706  -14.4820 C   0  0  0  0  0  0  0  0  0  0  0  0
  -22.8394  -26.9051  -15.4854 N   0  0  0  0  0  0  0  0  0  0  0  0
  -24.9713  -28.8785  -15.8261 C   0  0  0  0  0  0  0  0  0  0  0  0
  -23.9360  -28.6881  -16.9285 C   0  0  0  0  0  0  0  0  0  0  0  0
  -23.1469  -27.3800  -16.8367 C   0  0  0  0  0  0  0  0  0  0  0  0
  -24.6991  -28.6746  -18.2339 C   0  0  0  0  0  0  0  0  0  0  0  0
  -23.8175  -28.7122  -19.3336 O   0  0  0  0  0  0  0  0  0  0  0  0
  -23.2919  -29.5267  -19.2990 H   0  0  0  0  0  0  0  0  0  0  0  0
 19 18  1  0  0  0
 18 16  1  0  0  0
 16 15  1  0  0  0
 16 17  1  0  0  0
 15 12  1  0  0  0
 17 14  1  0  0  0
 12 13  1  0  0  0
 14 13  1  0  0  0
 14  5  1  0  0  0
  6  7  1  0  0  0
  5  3  2  0  0  0
  5 10  1  0  0  0
  7 10  1  0  0  0
  7  8  2  0  0  0
  3  4  1  0  0  0
 10  2  2  0  0  0
  8  9  1  0  0  0
  4  1  2  0  0  0
  2  1  1  0  0  0
  2  9  1  0  0  0
  9 11  1  0  0  0
 19 20  1  0  0  0
M  END
> <minimizedAffinity>
-6.48429

$$$$
5WBM_A4G_A_301


 20 22  0  0  0  0  0  0  0  0999 V2000
  -18.5874  -24.1232  -15.1950 N   0  0  0  0  0  0  0  0  0  0  0  0
  -18.4217  -23.7790  -16.4835 C   0  0  0  0  0  0  0  0  0  0  0  0
  -20.4000  -25.5969  -15.7997 N   0  0  0  0  0  0  0  0  0  0  0  0
  -19.5611  -25.0034  -14.9432 C   0  0  0  0  0  0  0  0  0  0  0  0
  -20.2238  -25.2343  -17.0896 C   0  0  0  0  0  0  0  0  0  0  0  0
  -19.0483  -23.8656  -20.2099 C   0  0  0  0  0  0  0  0  0  0  0  0
  -18.6819  -23.6684  -18.7683 C   0  0  0  0  0  0  0  0  0  0  0  0
  -17.6782  -22.8124  -18.3368 C   0  0  0  0  0  0  0  0  0  0  0  0
  -17.5242  -22.8805  -16.9771 N   0  0  0  0  0  0  0  0  0  0  0  0
  -19.2114  -24.3084  -17.5776 C   0  0  0  0  0  0  0  0  0  0  0  0
  -16.8741  -22.3664  -16.4458 H   0  0  0  0  0  0  0  0  0  0  0  0
  -23.5616  -24.9824  -17.8785 C   0  0  0  0  0  0  0  0  0  0  0  0
  -22.1995  -24.7609  -18.5091 C   0  0  0  0  0  0  0  0  0  0  0  0
  -21.1946  -25.6995  -18.0001 N   0  0  0  0  0  0  0  0  0  0  0  0
  -24.0287  -26.4133  -18.1148 C   0  0  0  0  0  0  0  0  0  0  0  0
  -23.0087  -27.4457  -17.6487 C   0  0  0  0  0  0  0  0  0  0  0  0
  -21.5609  -27.1177  -18.0207 C   0  0  0  0  0  0  0  0  0  0  0  0
  -23.3753  -28.7459  -18.3282 C   0  0  0  0  0  0  0  0  0  0  0  0
  -24.0010  -28.5073  -19.5690 O   0  0  0  0  0  0  0  0  0  0  0  0
  -23.3933  -28.0234  -20.1499 H   0  0  0  0  0  0  0  0  0  0  0  0
 19 18  1  0  0  0
 18 16  1  0  0  0
 16 15  1  0  0  0
 16 17  1  0  0  0
 15 12  1  0  0  0
 17 14  1  0  0  0
 12 13  1  0  0  0
 14 13  1  0  0  0
 14  5  1  0  0  0
  6  7  1  0  0  0
  5  3  2  0  0  0
  5 10  1  0  0  0
  7 10  1  0  0  0
  7  8  2  0  0  0
  3  4  1  0  0  0
 10  2  2  0  0  0
  8  9  1  0  0  0
  4  1  2  0  0  0
  2  1  1  0  0  0
  2  9  1  0  0  0
  9 11  1  0  0  0
 19 20  1  0  0  0
M  END
> <minimizedAffinity>
-6.39934

$$$$
5WBM_A4G_A_301


 20 22  0  0  0  0  0  0  0  0999 V2000
  -14.6139  -23.4240  -14.7025 N   0  0  0  0  0  0  0  0  0  0  0  0
  -15.3615  -24.4525  -14.2676 C   0  0  0  0  0  0  0  0  0  0  0  0
  -16.1495  -23.0511  -16.5261 N   0  0  0  0  0  0  0  0  0  0  0  0
  -15.0568  -22.7980  -15.7970 C   0  0  0  0  0  0  0  0  0  0  0  0
  -16.8857  -24.0924  -16.0786 C   0  0  0  0  0  0  0  0  0  0  0  0
  -18.2979  -26.8318  -14.2097 C   0  0  0  0  0  0  0  0  0  0  0  0
  -17.0478  -26.0102  -14.0929 C   0  0  0  0  0  0  0  0  0  0  0  0
  -16.0981  -26.1867  -13.0963 C   0  0  0  0  0  0  0  0  0  0  0  0
  -15.0961  -25.2582  -13.2013 N   0  0  0  0  0  0  0  0  0  0  0  0
  -16.5904  -24.8921  -14.8981 C   0  0  0  0  0  0  0  0  0  0  0  0
  -14.3153  -25.1853  -12.6062 H   0  0  0  0  0  0  0  0  0  0  0  0
  -18.9322  -23.0038  -18.6190 C   0  0  0  0  0  0  0  0  0  0  0  0
  -17.9337  -24.1076  -18.3244 C   0  0  0  0  0  0  0  0  0  0  0  0
  -17.9459  -24.5028  -16.9125 N   0  0  0  0  0  0  0  0  0  0  0  0
  -20.3366  -23.4391  -18.2193 C   0  0  0  0  0  0  0  0  0  0  0  0
  -20.4135  -23.9074  -16.7708 C   0  0  0  0  0  0  0  0  0  0  0  0
  -19.2567  -24.8097  -16.3350 C   0  0  0  0  0  0  0  0  0  0  0  0
  -21.6918  -24.7056  -16.6468 C   0  0  0  0  0  0  0  0  0  0  0  0
  -22.4001  -24.7158  -17.8659 O   0  0  0  0  0  0  0  0  0  0  0  0
  -21.8532  -25.1257  -18.5541 H   0  0  0  0  0  0  0  0  0  0  0  0
 19 18  1  0  0  0
 18 16  1  0  0  0
 16 15  1  0  0  0
 16 17  1  0  0  0
 15 12  1  0  0  0
 17 14  1  0  0  0
 12 13  1  0  0  0
 14 13  1  0  0  0
 14  5  1  0  0  0
  6  7  1  0  0  0
  5  3  2  0  0  0
  5 10  1  0  0  0
  7 10  1  0  0  0
  7  8  2  0  0  0
  3  4  1  0  0  0
 10  2  2  0  0  0
  8  9  1  0  0  0
  4  1  2  0  0  0
  2  1  1  0  0  0
  2  9  1  0  0  0
  9 11  1  0  0  0
 19 20  1  0  0  0
M  END
> <minimizedAffinity>
-6.39140

$$$$
