1MH5_HAL_B_601


 37 38  0  0  0  0  0  0  0  0999 V2000
   28.4425  -47.3714   42.0306 C   0  0  0  0  0  0  0  0  0  0  0  0
   27.6802  -46.4347   41.2472 P   0  0  0  0  0  0  0  0  0  0  0  0
   27.0802  -47.2036   40.1221 O   0  0  0  0  0  0  0  0  0  0  0  0
   26.7896  -45.7193   42.1913 O   0  0  0  0  0  0  0  0  0  0  0  0
   26.2538  -45.0738   41.7042 H   0  0  0  0  0  0  0  0  0  0  0  0
   28.7278  -45.3776   40.6827 O   0  0  0  0  0  0  0  0  0  0  0  0
   29.6467  -44.7378   41.5605 C   0  0  0  0  0  0  0  0  0  0  0  0
   30.2642  -42.3610   41.3471 N   0  0  0  0  0  0  0  0  0  0  0  0
   29.3320  -43.2427   41.6944 C   0  0  0  0  0  0  0  0  0  0  0  0
   28.2236  -42.8871   42.0858 O   0  0  0  0  0  0  0  0  0  0  0  0
   31.1364  -42.6918   41.0322 H   0  0  0  0  0  0  0  0  0  0  0  0
   30.0410  -40.9182   41.4157 C   0  0  0  0  0  0  0  0  0  0  0  0
   30.7947  -40.1913   42.4921 C   0  0  0  0  0  0  0  0  0  0  0  0
   30.5862  -38.6946   42.4574 C   0  0  0  0  0  0  0  0  0  0  0  0
   30.1923  -38.0032   43.6056 C   0  0  0  0  0  0  0  0  0  0  0  0
   30.0929  -36.6104   43.6081 C   0  0  0  0  0  0  0  0  0  0  0  0
   30.3857  -35.8930   42.4572 C   0  0  0  0  0  0  0  0  0  0  0  0
   30.7718  -36.5673   41.3029 C   0  0  0  0  0  0  0  0  0  0  0  0
   30.8688  -37.9670   41.3081 C   0  0  0  0  0  0  0  0  0  0  0  0
   28.9249  -48.4934   41.2410 N   0  0  0  0  0  0  0  0  0  0  0  0
   30.2020  -48.8615   41.2474 C   0  0  0  0  0  0  0  0  0  0  0  0
   31.0645  -48.2737   41.8979 O   0  0  0  0  0  0  0  0  0  0  0  0
   28.2862  -48.9955   40.6849 H   0  0  0  0  0  0  0  0  0  0  0  0
   30.5704  -50.0482   40.3891 C   0  0  0  0  0  0  0  0  0  0  0  0
   29.7556  -50.1135   39.1241 C   0  0  0  0  0  0  0  0  0  0  0  0
   30.5052  -49.4840   37.9744 C   0  0  0  0  0  0  0  0  0  0  0  0
   29.9896  -48.1029   37.6287 C   0  0  0  0  0  0  0  0  0  0  0  0
   28.8252  -47.7984   37.9783 O   0  0  0  0  0  0  0  0  0  0  0  0
   30.7478  -47.3256   37.0091 O   0  0  0  0  0  0  0  0  0  0  0  0
   28.2976  -48.4190   38.4414 H   0  0  0  0  0  0  0  0  0  0  0  0
   27.6357  -47.9303   43.1955 C   0  0  0  0  0  0  0  0  0  0  0  0
   28.4655  -48.2366   44.4112 C   0  0  0  0  0  0  0  0  0  0  0  0
   28.2102  -49.3717   45.1772 C   0  0  0  0  0  0  0  0  0  0  0  0
   28.9796  -49.6547   46.3034 C   0  0  0  0  0  0  0  0  0  0  0  0
   30.0114  -48.7965   46.6755 C   0  0  0  0  0  0  0  0  0  0  0  0
   30.2694  -47.6613   45.9191 C   0  0  0  0  0  0  0  0  0  0  0  0
   29.4983  -47.3872   44.7977 C   0  0  0  0  0  0  0  0  0  0  0  0
 14 15  2  0  0  0
 14 19  1  0  0  0
 14 13  1  0  0  0
 15 16  1  0  0  0
 16 17  2  0  0  0
 17 18  1  0  0  0
 18 19  2  0  0  0
 13 12  1  0  0  0
 12  8  1  0  0  0
  8  9  1  0  0  0
  9 10  2  0  0  0
  9  7  1  0  0  0
  7  6  1  0  0  0
  6  2  1  0  0  0
  2  3  2  0  0  0
  2  4  1  0  0  0
  2  1  1  0  0  0
  1 31  1  0  0  0
  1 20  1  0  0  0
 31 32  1  0  0  0
 32 33  2  0  0  0
 32 37  1  0  0  0
 33 34  1  0  0  0
 34 35  2  0  0  0
 35 36  1  0  0  0
 36 37  2  0  0  0
 20 21  1  0  0  0
 21 22  2  0  0  0
 21 24  1  0  0  0
 24 25  1  0  0  0
 25 26  1  0  0  0
 26 27  1  0  0  0
 27 28  1  0  0  0
 27 29  2  0  0  0
  8 11  1  0  0  0
  4  5  1  0  0  0
 20 23  1  0  0  0
 28 30  1  0  0  0
M  END
> <minimizedAffinity>
-9.58309

$$$$
1MH5_HAL_B_601


 37 38  0  0  0  0  0  0  0  0999 V2000
   28.2409  -47.2851   42.1410 C   0  0  0  0  0  0  0  0  0  0  0  0
   27.3728  -46.2701   41.6040 P   0  0  0  0  0  0  0  0  0  0  0  0
   26.5073  -46.9365   40.5920 O   0  0  0  0  0  0  0  0  0  0  0  0
   26.7432  -45.5948   42.7631 O   0  0  0  0  0  0  0  0  0  0  0  0
   26.1462  -44.8988   42.4467 H   0  0  0  0  0  0  0  0  0  0  0  0
   28.3228  -45.2108   40.8905 O   0  0  0  0  0  0  0  0  0  0  0  0
   29.3684  -44.5783   41.6191 C   0  0  0  0  0  0  0  0  0  0  0  0
   30.1980  -42.2607   41.4911 N   0  0  0  0  0  0  0  0  0  0  0  0
   29.1547  -43.0610   41.6861 C   0  0  0  0  0  0  0  0  0  0  0  0
   28.0284  -42.6136   41.8846 O   0  0  0  0  0  0  0  0  0  0  0  0
   31.0814  -42.6637   41.3285 H   0  0  0  0  0  0  0  0  0  0  0  0
   30.0810  -40.8039   41.5094 C   0  0  0  0  0  0  0  0  0  0  0  0
   30.9496  -40.0914   42.5057 C   0  0  0  0  0  0  0  0  0  0  0  0
   30.6806  -38.6056   42.5746 C   0  0  0  0  0  0  0  0  0  0  0  0
   30.3342  -37.9994   43.7846 C   0  0  0  0  0  0  0  0  0  0  0  0
   30.1804  -36.6147   43.8774 C   0  0  0  0  0  0  0  0  0  0  0  0
   30.3703  -35.8200   42.7561 C   0  0  0  0  0  0  0  0  0  0  0  0
   30.7079  -36.4090   41.5416 C   0  0  0  0  0  0  0  0  0  0  0  0
   30.8601  -37.8012   41.4561 C   0  0  0  0  0  0  0  0  0  0  0  0
   28.6987  -48.2196   41.1250 N   0  0  0  0  0  0  0  0  0  0  0  0
   29.9902  -48.4419   40.9036 C   0  0  0  0  0  0  0  0  0  0  0  0
   30.8839  -47.8644   41.5202 O   0  0  0  0  0  0  0  0  0  0  0  0
   28.0318  -48.7021   40.5849 H   0  0  0  0  0  0  0  0  0  0  0  0
   30.3313  -49.4425   39.8251 C   0  0  0  0  0  0  0  0  0  0  0  0
   29.9316  -50.8454   40.2000 C   0  0  0  0  0  0  0  0  0  0  0  0
   30.3758  -51.1681   41.6066 C   0  0  0  0  0  0  0  0  0  0  0  0
   31.8561  -51.4743   41.6947 C   0  0  0  0  0  0  0  0  0  0  0  0
   32.3189  -52.3855   40.9690 O   0  0  0  0  0  0  0  0  0  0  0  0
   32.5532  -50.8049   42.4877 O   0  0  0  0  0  0  0  0  0  0  0  0
   31.7522  -52.8575   40.3911 H   0  0  0  0  0  0  0  0  0  0  0  0
   27.5653  -48.0874   43.2456 C   0  0  0  0  0  0  0  0  0  0  0  0
   28.4353  -48.3022   44.4528 C   0  0  0  0  0  0  0  0  0  0  0  0
   29.4610  -47.4098   44.7563 C   0  0  0  0  0  0  0  0  0  0  0  0
   30.2664  -47.6096   45.8750 C   0  0  0  0  0  0  0  0  0  0  0  0
   30.0532  -48.7121   46.6988 C   0  0  0  0  0  0  0  0  0  0  0  0
   29.0353  -49.6078   46.4006 C   0  0  0  0  0  0  0  0  0  0  0  0
   28.2366  -49.4008   45.2842 C   0  0  0  0  0  0  0  0  0  0  0  0
 14 15  2  0  0  0
 14 19  1  0  0  0
 14 13  1  0  0  0
 15 16  1  0  0  0
 16 17  2  0  0  0
 17 18  1  0  0  0
 18 19  2  0  0  0
 13 12  1  0  0  0
 12  8  1  0  0  0
  8  9  1  0  0  0
  9 10  2  0  0  0
  9  7  1  0  0  0
  7  6  1  0  0  0
  6  2  1  0  0  0
  2  3  2  0  0  0
  2  4  1  0  0  0
  2  1  1  0  0  0
  1 31  1  0  0  0
  1 20  1  0  0  0
 31 32  1  0  0  0
 32 33  2  0  0  0
 32 37  1  0  0  0
 33 34  1  0  0  0
 34 35  2  0  0  0
 35 36  1  0  0  0
 36 37  2  0  0  0
 20 21  1  0  0  0
 21 22  2  0  0  0
 21 24  1  0  0  0
 24 25  1  0  0  0
 25 26  1  0  0  0
 26 27  1  0  0  0
 27 28  1  0  0  0
 27 29  2  0  0  0
  8 11  1  0  0  0
  4  5  1  0  0  0
 20 23  1  0  0  0
 28 30  1  0  0  0
M  END
> <minimizedAffinity>
-9.11488

$$$$
1MH5_HAL_B_601


 37 38  0  0  0  0  0  0  0  0999 V2000
   28.7927  -47.2087   41.2295 C   0  0  0  0  0  0  0  0  0  0  0  0
   29.4429  -45.9265   41.3045 P   0  0  0  0  0  0  0  0  0  0  0  0
   29.9505  -45.7831   42.6970 O   0  0  0  0  0  0  0  0  0  0  0  0
   30.4011  -45.8710   40.1754 O   0  0  0  0  0  0  0  0  0  0  0  0
   30.8648  -45.0191   40.1865 H   0  0  0  0  0  0  0  0  0  0  0  0
   28.3114  -44.8422   41.0263 O   0  0  0  0  0  0  0  0  0  0  0  0
   27.6826  -44.1661   42.1087 C   0  0  0  0  0  0  0  0  0  0  0  0
   29.0487  -42.1340   41.8252 N   0  0  0  0  0  0  0  0  0  0  0  0
   27.8305  -42.6458   41.9703 C   0  0  0  0  0  0  0  0  0  0  0  0
   26.8287  -41.9354   41.9633 O   0  0  0  0  0  0  0  0  0  0  0  0
   29.8226  -42.7424   41.8299 H   0  0  0  0  0  0  0  0  0  0  0  0
   29.2804  -40.7005   41.6588 C   0  0  0  0  0  0  0  0  0  0  0  0
   30.5368  -40.1653   42.2833 C   0  0  0  0  0  0  0  0  0  0  0  0
   30.5569  -38.6571   42.3810 C   0  0  0  0  0  0  0  0  0  0  0  0
   30.8221  -37.8734   41.2553 C   0  0  0  0  0  0  0  0  0  0  0  0
   30.7457  -36.4805   41.3143 C   0  0  0  0  0  0  0  0  0  0  0  0
   30.4042  -35.8552   42.5048 C   0  0  0  0  0  0  0  0  0  0  0  0
   30.1448  -36.6211   43.6372 C   0  0  0  0  0  0  0  0  0  0  0  0
   30.2240  -38.0203   43.5702 C   0  0  0  0  0  0  0  0  0  0  0  0
   29.3294  -48.0429   40.1660 N   0  0  0  0  0  0  0  0  0  0  0  0
   29.7720  -49.2753   40.3931 C   0  0  0  0  0  0  0  0  0  0  0  0
   29.7799  -49.7880   41.5110 O   0  0  0  0  0  0  0  0  0  0  0  0
   29.3660  -47.6838   39.2500 H   0  0  0  0  0  0  0  0  0  0  0  0
   30.2970  -50.0383   39.2003 C   0  0  0  0  0  0  0  0  0  0  0  0
   29.5416  -49.7156   37.9379 C   0  0  0  0  0  0  0  0  0  0  0  0
   30.4964  -49.4529   36.7980 C   0  0  0  0  0  0  0  0  0  0  0  0
   31.2473  -48.1475   36.9556 C   0  0  0  0  0  0  0  0  0  0  0  0
   30.6507  -47.1781   37.4803 O   0  0  0  0  0  0  0  0  0  0  0  0
   32.4305  -48.0928   36.5554 O   0  0  0  0  0  0  0  0  0  0  0  0
   29.7625  -47.2723   37.7635 H   0  0  0  0  0  0  0  0  0  0  0  0
   27.2916  -47.0749   41.0083 C   0  0  0  0  0  0  0  0  0  0  0  0
   26.4649  -47.8329   42.0096 C   0  0  0  0  0  0  0  0  0  0  0  0
   25.4915  -48.7357   41.5882 C   0  0  0  0  0  0  0  0  0  0  0  0
   24.7261  -49.4375   42.5165 C   0  0  0  0  0  0  0  0  0  0  0  0
   24.9272  -49.2356   43.8798 C   0  0  0  0  0  0  0  0  0  0  0  0
   25.8930  -48.3346   44.3074 C   0  0  0  0  0  0  0  0  0  0  0  0
   26.6520  -47.6400   43.3754 C   0  0  0  0  0  0  0  0  0  0  0  0
 14 15  2  0  0  0
 14 19  1  0  0  0
 14 13  1  0  0  0
 15 16  1  0  0  0
 16 17  2  0  0  0
 17 18  1  0  0  0
 18 19  2  0  0  0
 13 12  1  0  0  0
 12  8  1  0  0  0
  8  9  1  0  0  0
  9 10  2  0  0  0
  9  7  1  0  0  0
  7  6  1  0  0  0
  6  2  1  0  0  0
  2  3  2  0  0  0
  2  4  1  0  0  0
  2  1  1  0  0  0
  1 31  1  0  0  0
  1 20  1  0  0  0
 31 32  1  0  0  0
 32 33  2  0  0  0
 32 37  1  0  0  0
 33 34  1  0  0  0
 34 35  2  0  0  0
 35 36  1  0  0  0
 36 37  2  0  0  0
 20 21  1  0  0  0
 21 22  2  0  0  0
 21 24  1  0  0  0
 24 25  1  0  0  0
 25 26  1  0  0  0
 26 27  1  0  0  0
 27 28  1  0  0  0
 27 29  2  0  0  0
  8 11  1  0  0  0
  4  5  1  0  0  0
 20 23  1  0  0  0
 28 30  1  0  0  0
M  END
> <minimizedAffinity>
-9.07953

$$$$
1MH5_HAL_B_601


 37 38  0  0  0  0  0  0  0  0999 V2000
   28.2898  -46.9675   42.4562 C   0  0  0  0  0  0  0  0  0  0  0  0
   27.4782  -46.1327   41.6096 P   0  0  0  0  0  0  0  0  0  0  0  0
   26.8479  -47.0280   40.6005 O   0  0  0  0  0  0  0  0  0  0  0  0
   26.6131  -45.3324   42.5081 O   0  0  0  0  0  0  0  0  0  0  0  0
   26.0455  -44.7516   41.9776 H   0  0  0  0  0  0  0  0  0  0  0  0
   28.4813  -45.1277   40.8904 O   0  0  0  0  0  0  0  0  0  0  0  0
   29.3692  -44.3255   41.6600 C   0  0  0  0  0  0  0  0  0  0  0  0
   29.7112  -41.8849   41.7137 N   0  0  0  0  0  0  0  0  0  0  0  0
   28.8446  -42.8900   41.7891 C   0  0  0  0  0  0  0  0  0  0  0  0
   27.6403  -42.6928   41.9264 O   0  0  0  0  0  0  0  0  0  0  0  0
   30.6669  -42.0902   41.5965 H   0  0  0  0  0  0  0  0  0  0  0  0
   29.2964  -40.4860   41.7984 C   0  0  0  0  0  0  0  0  0  0  0  0
   30.1331  -39.5087   41.0241 C   0  0  0  0  0  0  0  0  0  0  0  0
   30.2295  -38.1530   41.6855 C   0  0  0  0  0  0  0  0  0  0  0  0
   29.9074  -37.9941   43.0355 C   0  0  0  0  0  0  0  0  0  0  0  0
   30.0874  -36.7678   43.6786 C   0  0  0  0  0  0  0  0  0  0  0  0
   30.5912  -35.6838   42.9744 C   0  0  0  0  0  0  0  0  0  0  0  0
   30.9096  -35.8233   41.6270 C   0  0  0  0  0  0  0  0  0  0  0  0
   30.7254  -37.0587   40.9877 C   0  0  0  0  0  0  0  0  0  0  0  0
   28.8015  -48.1364   41.7584 N   0  0  0  0  0  0  0  0  0  0  0  0
   30.0933  -48.2819   41.4819 C   0  0  0  0  0  0  0  0  0  0  0  0
   30.9392  -47.4382   41.7738 O   0  0  0  0  0  0  0  0  0  0  0  0
   28.1719  -48.8412   41.4824 H   0  0  0  0  0  0  0  0  0  0  0  0
   30.4945  -49.5461   40.7598 C   0  0  0  0  0  0  0  0  0  0  0  0
   30.6520  -50.7143   41.6974 C   0  0  0  0  0  0  0  0  0  0  0  0
   32.0897  -50.8540   42.1376 C   0  0  0  0  0  0  0  0  0  0  0  0
   32.3293  -50.3060   43.5287 C   0  0  0  0  0  0  0  0  0  0  0  0
   32.6164  -49.0918   43.6479 O   0  0  0  0  0  0  0  0  0  0  0  0
   32.2305  -51.0886   44.4987 O   0  0  0  0  0  0  0  0  0  0  0  0
   32.6780  -48.5481   42.8873 H   0  0  0  0  0  0  0  0  0  0  0  0
   27.5257  -47.4506   43.6822 C   0  0  0  0  0  0  0  0  0  0  0  0
   28.3885  -48.1579   44.6900 C   0  0  0  0  0  0  0  0  0  0  0  0
   28.0543  -49.4331   45.1400 C   0  0  0  0  0  0  0  0  0  0  0  0
   28.8543  -50.0877   46.0736 C   0  0  0  0  0  0  0  0  0  0  0  0
   29.9972  -49.4653   46.5697 C   0  0  0  0  0  0  0  0  0  0  0  0
   30.3347  -48.1929   46.1287 C   0  0  0  0  0  0  0  0  0  0  0  0
   29.5323  -47.5480   45.1974 C   0  0  0  0  0  0  0  0  0  0  0  0
 14 15  2  0  0  0
 14 19  1  0  0  0
 14 13  1  0  0  0
 15 16  1  0  0  0
 16 17  2  0  0  0
 17 18  1  0  0  0
 18 19  2  0  0  0
 13 12  1  0  0  0
 12  8  1  0  0  0
  8  9  1  0  0  0
  9 10  2  0  0  0
  9  7  1  0  0  0
  7  6  1  0  0  0
  6  2  1  0  0  0
  2  3  2  0  0  0
  2  4  1  0  0  0
  2  1  1  0  0  0
  1 31  1  0  0  0
  1 20  1  0  0  0
 31 32  1  0  0  0
 32 33  2  0  0  0
 32 37  1  0  0  0
 33 34  1  0  0  0
 34 35  2  0  0  0
 35 36  1  0  0  0
 36 37  2  0  0  0
 20 21  1  0  0  0
 21 22  2  0  0  0
 21 24  1  0  0  0
 24 25  1  0  0  0
 25 26  1  0  0  0
 26 27  1  0  0  0
 27 28  1  0  0  0
 27 29  2  0  0  0
  8 11  1  0  0  0
  4  5  1  0  0  0
 20 23  1  0  0  0
 28 30  1  0  0  0
M  END
> <minimizedAffinity>
-9.01343

$$$$
1MH5_HAL_B_601


 37 38  0  0  0  0  0  0  0  0999 V2000
   28.9392  -46.6748   41.2224 C   0  0  0  0  0  0  0  0  0  0  0  0
   29.1960  -46.0654   42.5009 P   0  0  0  0  0  0  0  0  0  0  0  0
   29.0077  -47.1267   43.5283 O   0  0  0  0  0  0  0  0  0  0  0  0
   30.5099  -45.3888   42.3913 O   0  0  0  0  0  0  0  0  0  0  0  0
   30.7250  -44.9617   43.2352 H   0  0  0  0  0  0  0  0  0  0  0  0
   28.0891  -44.9357   42.6805 O   0  0  0  0  0  0  0  0  0  0  0  0
   27.6650  -44.1617   41.5646 C   0  0  0  0  0  0  0  0  0  0  0  0
   28.8658  -42.0115   41.6703 N   0  0  0  0  0  0  0  0  0  0  0  0
   27.7252  -42.6616   41.8786 C   0  0  0  0  0  0  0  0  0  0  0  0
   26.7195  -42.0841   42.2828 O   0  0  0  0  0  0  0  0  0  0  0  0
   29.6447  -42.5142   41.3390 H   0  0  0  0  0  0  0  0  0  0  0  0
   29.0051  -40.5774   41.9154 C   0  0  0  0  0  0  0  0  0  0  0  0
   30.4131  -40.0681   42.0292 C   0  0  0  0  0  0  0  0  0  0  0  0
   30.4886  -38.5822   42.2958 C   0  0  0  0  0  0  0  0  0  0  0  0
   30.3780  -38.0850   43.5966 C   0  0  0  0  0  0  0  0  0  0  0  0
   30.5449  -36.7247   43.8635 C   0  0  0  0  0  0  0  0  0  0  0  0
   30.8229  -35.8446   42.8275 C   0  0  0  0  0  0  0  0  0  0  0  0
   30.9285  -36.3226   41.5251 C   0  0  0  0  0  0  0  0  0  0  0  0
   30.7590  -37.6910   41.2648 C   0  0  0  0  0  0  0  0  0  0  0  0
   28.0440  -47.8169   41.3206 N   0  0  0  0  0  0  0  0  0  0  0  0
   26.8795  -47.8557   40.6812 C   0  0  0  0  0  0  0  0  0  0  0  0
   26.4678  -46.9301   39.9839 O   0  0  0  0  0  0  0  0  0  0  0  0
   28.3087  -48.5843   41.8775 H   0  0  0  0  0  0  0  0  0  0  0  0
   26.0479  -49.1034   40.8612 C   0  0  0  0  0  0  0  0  0  0  0  0
   26.1900  -49.6907   42.2409 C   0  0  0  0  0  0  0  0  0  0  0  0
   25.0303  -49.2805   43.1166 C   0  0  0  0  0  0  0  0  0  0  0  0
   25.4658  -48.4682   44.3180 C   0  0  0  0  0  0  0  0  0  0  0  0
   26.3928  -47.6378   44.1699 O   0  0  0  0  0  0  0  0  0  0  0  0
   24.8817  -48.6610   45.4065 O   0  0  0  0  0  0  0  0  0  0  0  0
   26.7976  -47.5322   43.3314 H   0  0  0  0  0  0  0  0  0  0  0  0
   30.2213  -47.1410   40.5448 C   0  0  0  0  0  0  0  0  0  0  0  0
   30.5524  -48.5835   40.8088 C   0  0  0  0  0  0  0  0  0  0  0  0
   31.3256  -48.9443   41.9100 C   0  0  0  0  0  0  0  0  0  0  0  0
   31.6317  -50.2810   42.1538 C   0  0  0  0  0  0  0  0  0  0  0  0
   31.1683  -51.2704   41.2901 C   0  0  0  0  0  0  0  0  0  0  0  0
   30.4003  -50.9182   40.1884 C   0  0  0  0  0  0  0  0  0  0  0  0
   30.0991  -49.5836   39.9533 C   0  0  0  0  0  0  0  0  0  0  0  0
 14 15  2  0  0  0
 14 19  1  0  0  0
 14 13  1  0  0  0
 15 16  1  0  0  0
 16 17  2  0  0  0
 17 18  1  0  0  0
 18 19  2  0  0  0
 13 12  1  0  0  0
 12  8  1  0  0  0
  8  9  1  0  0  0
  9 10  2  0  0  0
  9  7  1  0  0  0
  7  6  1  0  0  0
  6  2  1  0  0  0
  2  3  2  0  0  0
  2  4  1  0  0  0
  2  1  1  0  0  0
  1 31  1  0  0  0
  1 20  1  0  0  0
 31 32  1  0  0  0
 32 33  2  0  0  0
 32 37  1  0  0  0
 33 34  1  0  0  0
 34 35  2  0  0  0
 35 36  1  0  0  0
 36 37  2  0  0  0
 20 21  1  0  0  0
 21 22  2  0  0  0
 21 24  1  0  0  0
 24 25  1  0  0  0
 25 26  1  0  0  0
 26 27  1  0  0  0
 27 28  1  0  0  0
 27 29  2  0  0  0
  8 11  1  0  0  0
  4  5  1  0  0  0
 20 23  1  0  0  0
 28 30  1  0  0  0
M  END
> <minimizedAffinity>
-8.75610

$$$$
1MH5_HAL_B_601


 37 38  0  0  0  0  0  0  0  0999 V2000
   28.7355  -47.0872   40.7759 C   0  0  0  0  0  0  0  0  0  0  0  0
   29.1615  -45.8430   41.3613 P   0  0  0  0  0  0  0  0  0  0  0  0
   29.2511  -46.0680   42.8305 O   0  0  0  0  0  0  0  0  0  0  0  0
   30.3715  -45.4180   40.6188 O   0  0  0  0  0  0  0  0  0  0  0  0
   30.6952  -44.5787   40.9814 H   0  0  0  0  0  0  0  0  0  0  0  0
   28.0105  -44.7903   41.0439 O   0  0  0  0  0  0  0  0  0  0  0  0
   27.2869  -44.1759   42.1036 C   0  0  0  0  0  0  0  0  0  0  0  0
   28.7178  -42.1968   41.7692 N   0  0  0  0  0  0  0  0  0  0  0  0
   27.5252  -42.6609   42.1288 C   0  0  0  0  0  0  0  0  0  0  0  0
   26.6097  -41.9064   42.4463 O   0  0  0  0  0  0  0  0  0  0  0  0
   29.4201  -42.8385   41.5157 H   0  0  0  0  0  0  0  0  0  0  0  0
   29.0242  -40.7680   41.7368 C   0  0  0  0  0  0  0  0  0  0  0  0
   30.2549  -40.3468   42.4869 C   0  0  0  0  0  0  0  0  0  0  0  0
   30.4551  -38.8487   42.5084 C   0  0  0  0  0  0  0  0  0  0  0  0
   30.6978  -38.1451   41.3262 C   0  0  0  0  0  0  0  0  0  0  0  0
   30.7858  -36.7516   41.3236 C   0  0  0  0  0  0  0  0  0  0  0  0
   30.6334  -36.0457   42.5083 C   0  0  0  0  0  0  0  0  0  0  0  0
   30.3990  -36.7320   43.6957 C   0  0  0  0  0  0  0  0  0  0  0  0
   30.3124  -38.1325   43.6903 C   0  0  0  0  0  0  0  0  0  0  0  0
   28.1417  -47.9866   41.7524 N   0  0  0  0  0  0  0  0  0  0  0  0
   26.8416  -48.2631   41.7558 C   0  0  0  0  0  0  0  0  0  0  0  0
   26.0501  -47.7677   40.9555 O   0  0  0  0  0  0  0  0  0  0  0  0
   28.7201  -48.4032   42.4314 H   0  0  0  0  0  0  0  0  0  0  0  0
   26.3541  -49.2188   42.8186 C   0  0  0  0  0  0  0  0  0  0  0  0
   26.2987  -48.5788   44.1809 C   0  0  0  0  0  0  0  0  0  0  0  0
   27.0879  -49.3878   45.1822 C   0  0  0  0  0  0  0  0  0  0  0  0
   28.5695  -49.4162   44.8706 C   0  0  0  0  0  0  0  0  0  0  0  0
   29.1632  -48.3249   44.7053 O   0  0  0  0  0  0  0  0  0  0  0  0
   29.1369  -50.5275   44.7916 O   0  0  0  0  0  0  0  0  0  0  0  0
   28.6904  -47.5190   44.7755 H   0  0  0  0  0  0  0  0  0  0  0  0
   29.8853  -47.8226   40.0995 C   0  0  0  0  0  0  0  0  0  0  0  0
   30.5376  -48.8562   40.9749 C   0  0  0  0  0  0  0  0  0  0  0  0
   30.3018  -50.2133   40.7673 C   0  0  0  0  0  0  0  0  0  0  0  0
   30.9067  -51.1702   41.5788 C   0  0  0  0  0  0  0  0  0  0  0  0
   31.7518  -50.7733   42.6122 C   0  0  0  0  0  0  0  0  0  0  0  0
   31.9888  -49.4224   42.8276 C   0  0  0  0  0  0  0  0  0  0  0  0
   31.3825  -48.4754   42.0136 C   0  0  0  0  0  0  0  0  0  0  0  0
 14 15  2  0  0  0
 14 19  1  0  0  0
 14 13  1  0  0  0
 15 16  1  0  0  0
 16 17  2  0  0  0
 17 18  1  0  0  0
 18 19  2  0  0  0
 13 12  1  0  0  0
 12  8  1  0  0  0
  8  9  1  0  0  0
  9 10  2  0  0  0
  9  7  1  0  0  0
  7  6  1  0  0  0
  6  2  1  0  0  0
  2  3  2  0  0  0
  2  4  1  0  0  0
  2  1  1  0  0  0
  1 31  1  0  0  0
  1 20  1  0  0  0
 31 32  1  0  0  0
 32 33  2  0  0  0
 32 37  1  0  0  0
 33 34  1  0  0  0
 34 35  2  0  0  0
 35 36  1  0  0  0
 36 37  2  0  0  0
 20 21  1  0  0  0
 21 22  2  0  0  0
 21 24  1  0  0  0
 24 25  1  0  0  0
 25 26  1  0  0  0
 26 27  1  0  0  0
 27 28  1  0  0  0
 27 29  2  0  0  0
  8 11  1  0  0  0
  4  5  1  0  0  0
 20 23  1  0  0  0
 28 30  1  0  0  0
M  END
> <minimizedAffinity>
-8.65790

$$$$
1MH5_HAL_B_601


 37 38  0  0  0  0  0  0  0  0999 V2000
   28.6750  -47.0510   42.3753 C   0  0  0  0  0  0  0  0  0  0  0  0
   27.3844  -46.4289   42.5154 P   0  0  0  0  0  0  0  0  0  0  0  0
   26.7990  -46.3417   41.1490 O   0  0  0  0  0  0  0  0  0  0  0  0
   26.6618  -47.1845   43.5656 O   0  0  0  0  0  0  0  0  0  0  0  0
   25.7816  -46.7979   43.6944 H   0  0  0  0  0  0  0  0  0  0  0  0
   27.6596  -44.9667   43.0810 O   0  0  0  0  0  0  0  0  0  0  0  0
   27.1158  -43.8282   42.4236 C   0  0  0  0  0  0  0  0  0  0  0  0
   28.0353  -41.5880   41.9626 N   0  0  0  0  0  0  0  0  0  0  0  0
   28.2273  -42.9024   41.9135 C   0  0  0  0  0  0  0  0  0  0  0  0
   29.2792  -43.3845   41.5020 O   0  0  0  0  0  0  0  0  0  0  0  0
   27.1786  -41.2461   42.3066 H   0  0  0  0  0  0  0  0  0  0  0  0
   29.0503  -40.6320   41.5242 C   0  0  0  0  0  0  0  0  0  0  0  0
   30.0027  -40.1588   42.5843 C   0  0  0  0  0  0  0  0  0  0  0  0
   30.1839  -38.6582   42.5944 C   0  0  0  0  0  0  0  0  0  0  0  0
   30.2116  -37.9518   43.7994 C   0  0  0  0  0  0  0  0  0  0  0  0
   30.4766  -36.5811   43.8238 C   0  0  0  0  0  0  0  0  0  0  0  0
   30.7153  -35.9005   42.6385 C   0  0  0  0  0  0  0  0  0  0  0  0
   30.6835  -36.5880   41.4292 C   0  0  0  0  0  0  0  0  0  0  0  0
   30.4159  -37.9653   41.4128 C   0  0  0  0  0  0  0  0  0  0  0  0
   28.8246  -47.7407   41.1037 N   0  0  0  0  0  0  0  0  0  0  0  0
   29.7137  -47.3554   40.1941 C   0  0  0  0  0  0  0  0  0  0  0  0
   30.4528  -46.3848   40.3499 O   0  0  0  0  0  0  0  0  0  0  0  0
   28.2500  -48.5165   40.9109 H   0  0  0  0  0  0  0  0  0  0  0  0
   29.7730  -48.1622   38.9189 C   0  0  0  0  0  0  0  0  0  0  0  0
   30.1763  -49.5923   39.1657 C   0  0  0  0  0  0  0  0  0  0  0  0
   29.0984  -50.5388   38.6943 C   0  0  0  0  0  0  0  0  0  0  0  0
   28.2281  -51.0417   39.8267 C   0  0  0  0  0  0  0  0  0  0  0  0
   27.3058  -50.3013   40.2415 O   0  0  0  0  0  0  0  0  0  0  0  0
   28.4670  -52.1742   40.2994 O   0  0  0  0  0  0  0  0  0  0  0  0
   27.1691  -49.4601   39.8519 H   0  0  0  0  0  0  0  0  0  0  0  0
   28.9482  -48.0547   43.4881 C   0  0  0  0  0  0  0  0  0  0  0  0
   30.1176  -48.9580   43.2112 C   0  0  0  0  0  0  0  0  0  0  0  0
   29.9206  -50.3079   42.9290 C   0  0  0  0  0  0  0  0  0  0  0  0
   31.0047  -51.1440   42.6725 C   0  0  0  0  0  0  0  0  0  0  0  0
   32.3002  -50.6336   42.7021 C   0  0  0  0  0  0  0  0  0  0  0  0
   32.5047  -49.2901   42.9863 C   0  0  0  0  0  0  0  0  0  0  0  0
   31.4185  -48.4636   43.2399 C   0  0  0  0  0  0  0  0  0  0  0  0
 14 15  2  0  0  0
 14 19  1  0  0  0
 14 13  1  0  0  0
 15 16  1  0  0  0
 16 17  2  0  0  0
 17 18  1  0  0  0
 18 19  2  0  0  0
 13 12  1  0  0  0
 12  8  1  0  0  0
  8  9  1  0  0  0
  9 10  2  0  0  0
  9  7  1  0  0  0
  7  6  1  0  0  0
  6  2  1  0  0  0
  2  3  2  0  0  0
  2  4  1  0  0  0
  2  1  1  0  0  0
  1 31  1  0  0  0
  1 20  1  0  0  0
 31 32  1  0  0  0
 32 33  2  0  0  0
 32 37  1  0  0  0
 33 34  1  0  0  0
 34 35  2  0  0  0
 35 36  1  0  0  0
 36 37  2  0  0  0
 20 21  1  0  0  0
 21 22  2  0  0  0
 21 24  1  0  0  0
 24 25  1  0  0  0
 25 26  1  0  0  0
 26 27  1  0  0  0
 27 28  1  0  0  0
 27 29  2  0  0  0
  8 11  1  0  0  0
  4  5  1  0  0  0
 20 23  1  0  0  0
 28 30  1  0  0  0
M  END
> <minimizedAffinity>
-8.61485

$$$$
1MH5_HAL_B_601


 37 38  0  0  0  0  0  0  0  0999 V2000
   28.8388  -47.0528   41.3818 C   0  0  0  0  0  0  0  0  0  0  0  0
   29.1466  -45.9832   42.2946 P   0  0  0  0  0  0  0  0  0  0  0  0
   28.2688  -46.1670   43.4833 O   0  0  0  0  0  0  0  0  0  0  0  0
   30.6177  -45.9890   42.4732 O   0  0  0  0  0  0  0  0  0  0  0  0
   30.8720  -45.2801   43.0845 H   0  0  0  0  0  0  0  0  0  0  0  0
   28.7611  -44.6358   41.5400 O   0  0  0  0  0  0  0  0  0  0  0  0
   27.5300  -43.9811   41.8226 C   0  0  0  0  0  0  0  0  0  0  0  0
   28.8463  -41.9163   41.5387 N   0  0  0  0  0  0  0  0  0  0  0  0
   27.7385  -42.4740   42.0169 C   0  0  0  0  0  0  0  0  0  0  0  0
   26.8723  -41.8075   42.5770 O   0  0  0  0  0  0  0  0  0  0  0  0
   29.5104  -42.4887   41.0907 H   0  0  0  0  0  0  0  0  0  0  0  0
   29.1141  -40.4841   41.6540 C   0  0  0  0  0  0  0  0  0  0  0  0
   30.3065  -40.1076   42.4853 C   0  0  0  0  0  0  0  0  0  0  0  0
   30.5129  -38.6137   42.5874 C   0  0  0  0  0  0  0  0  0  0  0  0
   30.7359  -37.8451   41.4423 C   0  0  0  0  0  0  0  0  0  0  0  0
   30.8293  -36.4540   41.5165 C   0  0  0  0  0  0  0  0  0  0  0  0
   30.7022  -35.8156   42.7418 C   0  0  0  0  0  0  0  0  0  0  0  0
   30.4877  -36.5672   43.8929 C   0  0  0  0  0  0  0  0  0  0  0  0
   30.3956  -37.9649   43.8103 C   0  0  0  0  0  0  0  0  0  0  0  0
   27.6839  -47.8292   41.8041 N   0  0  0  0  0  0  0  0  0  0  0  0
   26.5266  -47.7811   41.1523 C   0  0  0  0  0  0  0  0  0  0  0  0
   26.3426  -47.0682   40.1672 O   0  0  0  0  0  0  0  0  0  0  0  0
   27.7616  -48.4079   42.5968 H   0  0  0  0  0  0  0  0  0  0  0  0
   25.4087  -48.6422   41.6901 C   0  0  0  0  0  0  0  0  0  0  0  0
   25.8078  -49.3821   42.9398 C   0  0  0  0  0  0  0  0  0  0  0  0
   24.6379  -49.4972   43.8875 C   0  0  0  0  0  0  0  0  0  0  0  0
   23.4646  -50.2354   43.2784 C   0  0  0  0  0  0  0  0  0  0  0  0
   23.6513  -51.3987   42.8509 O   0  0  0  0  0  0  0  0  0  0  0  0
   22.3597  -49.6525   43.2279 O   0  0  0  0  0  0  0  0  0  0  0  0
   24.5004  -51.7900   42.9129 H   0  0  0  0  0  0  0  0  0  0  0  0
   30.0105  -48.0110   41.2100 C   0  0  0  0  0  0  0  0  0  0  0  0
   30.1553  -48.5411   39.8106 C   0  0  0  0  0  0  0  0  0  0  0  0
   29.9296  -49.8877   39.5348 C   0  0  0  0  0  0  0  0  0  0  0  0
   30.0640  -50.3779   38.2380 C   0  0  0  0  0  0  0  0  0  0  0  0
   30.4322  -49.5206   37.2040 C   0  0  0  0  0  0  0  0  0  0  0  0
   30.6624  -48.1779   37.4718 C   0  0  0  0  0  0  0  0  0  0  0  0
   30.5254  -47.6975   38.7670 C   0  0  0  0  0  0  0  0  0  0  0  0
 14 15  2  0  0  0
 14 19  1  0  0  0
 14 13  1  0  0  0
 15 16  1  0  0  0
 16 17  2  0  0  0
 17 18  1  0  0  0
 18 19  2  0  0  0
 13 12  1  0  0  0
 12  8  1  0  0  0
  8  9  1  0  0  0
  9 10  2  0  0  0
  9  7  1  0  0  0
  7  6  1  0  0  0
  6  2  1  0  0  0
  2  3  2  0  0  0
  2  4  1  0  0  0
  2  1  1  0  0  0
  1 31  1  0  0  0
  1 20  1  0  0  0
 31 32  1  0  0  0
 32 33  2  0  0  0
 32 37  1  0  0  0
 33 34  1  0  0  0
 34 35  2  0  0  0
 35 36  1  0  0  0
 36 37  2  0  0  0
 20 21  1  0  0  0
 21 22  2  0  0  0
 21 24  1  0  0  0
 24 25  1  0  0  0
 25 26  1  0  0  0
 26 27  1  0  0  0
 27 28  1  0  0  0
 27 29  2  0  0  0
  8 11  1  0  0  0
  4  5  1  0  0  0
 20 23  1  0  0  0
 28 30  1  0  0  0
M  END
> <minimizedAffinity>
-8.60025

$$$$
1MH5_HAL_B_601


 37 38  0  0  0  0  0  0  0  0999 V2000
   29.1828  -47.3646   41.1453 C   0  0  0  0  0  0  0  0  0  0  0  0
   29.8649  -46.2779   41.7981 P   0  0  0  0  0  0  0  0  0  0  0  0
   29.4800  -46.3308   43.2356 O   0  0  0  0  0  0  0  0  0  0  0  0
   31.2951  -46.3919   41.4269 O   0  0  0  0  0  0  0  0  0  0  0  0
   31.7962  -45.6754   41.8470 H   0  0  0  0  0  0  0  0  0  0  0  0
   29.3031  -44.9441   41.1358 O   0  0  0  0  0  0  0  0  0  0  0  0
   28.3556  -44.1413   41.8300 C   0  0  0  0  0  0  0  0  0  0  0  0
   29.9675  -42.3037   41.5119 N   0  0  0  0  0  0  0  0  0  0  0  0
   28.6996  -42.6516   41.7077 C   0  0  0  0  0  0  0  0  0  0  0  0
   27.8029  -41.8141   41.7596 O   0  0  0  0  0  0  0  0  0  0  0  0
   30.6523  -43.0098   41.4701 H   0  0  0  0  0  0  0  0  0  0  0  0
   30.3816  -40.9107   41.3562 C   0  0  0  0  0  0  0  0  0  0  0  0
   30.8803  -40.2347   42.6009 C   0  0  0  0  0  0  0  0  0  0  0  0
   30.6688  -38.7381   42.5907 C   0  0  0  0  0  0  0  0  0  0  0  0
   30.3503  -38.0553   43.7671 C   0  0  0  0  0  0  0  0  0  0  0  0
   30.2502  -36.6628   43.7861 C   0  0  0  0  0  0  0  0  0  0  0  0
   30.4664  -35.9369   42.6236 C   0  0  0  0  0  0  0  0  0  0  0  0
   30.7767  -36.6024   41.4417 C   0  0  0  0  0  0  0  0  0  0  0  0
   30.8750  -38.0020   41.4306 C   0  0  0  0  0  0  0  0  0  0  0  0
   28.0904  -47.8958   41.9451 N   0  0  0  0  0  0  0  0  0  0  0  0
   26.8247  -47.8212   41.5463 C   0  0  0  0  0  0  0  0  0  0  0  0
   26.4856  -47.2846   40.4930 O   0  0  0  0  0  0  0  0  0  0  0  0
   28.2946  -48.3235   42.8080 H   0  0  0  0  0  0  0  0  0  0  0  0
   25.7871  -48.4186   42.4666 C   0  0  0  0  0  0  0  0  0  0  0  0
   26.0154  -48.0411   43.9068 C   0  0  0  0  0  0  0  0  0  0  0  0
   26.2080  -49.2742   44.7567 C   0  0  0  0  0  0  0  0  0  0  0  0
   27.6620  -49.5281   45.0946 C   0  0  0  0  0  0  0  0  0  0  0  0
   28.5003  -48.6378   44.8200 O   0  0  0  0  0  0  0  0  0  0  0  0
   27.9638  -50.6153   45.6331 O   0  0  0  0  0  0  0  0  0  0  0  0
   28.2210  -47.8399   44.4159 H   0  0  0  0  0  0  0  0  0  0  0  0
   30.1257  -48.5148   40.8166 C   0  0  0  0  0  0  0  0  0  0  0  0
   30.0057  -49.0069   39.4011 C   0  0  0  0  0  0  0  0  0  0  0  0
   30.4862  -48.2421   38.3406 C   0  0  0  0  0  0  0  0  0  0  0  0
   30.3746  -48.6988   37.0295 C   0  0  0  0  0  0  0  0  0  0  0  0
   29.7736  -49.9279   36.7690 C   0  0  0  0  0  0  0  0  0  0  0  0
   29.2889  -50.6940   37.8204 C   0  0  0  0  0  0  0  0  0  0  0  0
   29.4050  -50.2316   39.1242 C   0  0  0  0  0  0  0  0  0  0  0  0
 14 15  2  0  0  0
 14 19  1  0  0  0
 14 13  1  0  0  0
 15 16  1  0  0  0
 16 17  2  0  0  0
 17 18  1  0  0  0
 18 19  2  0  0  0
 13 12  1  0  0  0
 12  8  1  0  0  0
  8  9  1  0  0  0
  9 10  2  0  0  0
  9  7  1  0  0  0
  7  6  1  0  0  0
  6  2  1  0  0  0
  2  3  2  0  0  0
  2  4  1  0  0  0
  2  1  1  0  0  0
  1 31  1  0  0  0
  1 20  1  0  0  0
 31 32  1  0  0  0
 32 33  2  0  0  0
 32 37  1  0  0  0
 33 34  1  0  0  0
 34 35  2  0  0  0
 35 36  1  0  0  0
 36 37  2  0  0  0
 20 21  1  0  0  0
 21 22  2  0  0  0
 21 24  1  0  0  0
 24 25  1  0  0  0
 25 26  1  0  0  0
 26 27  1  0  0  0
 27 28  1  0  0  0
 27 29  2  0  0  0
  8 11  1  0  0  0
  4  5  1  0  0  0
 20 23  1  0  0  0
 28 30  1  0  0  0
M  END
> <minimizedAffinity>
-8.59139

$$$$
1MH5_HAL_B_601


 37 38  0  0  0  0  0  0  0  0999 V2000
   29.0523  -46.9877   41.8917 C   0  0  0  0  0  0  0  0  0  0  0  0
   29.5133  -45.7051   41.4285 P   0  0  0  0  0  0  0  0  0  0  0  0
   30.1333  -45.0234   42.5982 O   0  0  0  0  0  0  0  0  0  0  0  0
   30.3336  -45.9607   40.2210 O   0  0  0  0  0  0  0  0  0  0  0  0
   30.6672  -45.1191   39.8727 H   0  0  0  0  0  0  0  0  0  0  0  0
   28.2138  -44.9111   40.9653 O   0  0  0  0  0  0  0  0  0  0  0  0
   27.4637  -44.1506   41.9050 C   0  0  0  0  0  0  0  0  0  0  0  0
   28.8869  -42.1380   41.8962 N   0  0  0  0  0  0  0  0  0  0  0  0
   27.6757  -42.6465   41.6923 C   0  0  0  0  0  0  0  0  0  0  0  0
   26.7405  -41.9486   41.3097 O   0  0  0  0  0  0  0  0  0  0  0  0
   29.6085  -42.7367   42.1962 H   0  0  0  0  0  0  0  0  0  0  0  0
   29.1858  -40.7221   41.6909 C   0  0  0  0  0  0  0  0  0  0  0  0
   30.4385  -40.2173   42.3471 C   0  0  0  0  0  0  0  0  0  0  0  0
   30.4787  -38.7116   42.4737 C   0  0  0  0  0  0  0  0  0  0  0  0
   30.3099  -38.0962   43.7164 C   0  0  0  0  0  0  0  0  0  0  0  0
   30.4435  -36.7136   43.8585 C   0  0  0  0  0  0  0  0  0  0  0  0
   30.7462  -35.9298   42.7544 C   0  0  0  0  0  0  0  0  0  0  0  0
   30.9097  -36.5265   41.5080 C   0  0  0  0  0  0  0  0  0  0  0  0
   30.7734  -37.9164   41.3732 C   0  0  0  0  0  0  0  0  0  0  0  0
   28.1924  -47.6518   40.9249 N   0  0  0  0  0  0  0  0  0  0  0  0
   28.3670  -48.9247   40.5847 C   0  0  0  0  0  0  0  0  0  0  0  0
   29.2717  -49.6213   41.0415 O   0  0  0  0  0  0  0  0  0  0  0  0
   27.4588  -47.1430   40.5099 H   0  0  0  0  0  0  0  0  0  0  0  0
   27.3999  -49.4959   39.5753 C   0  0  0  0  0  0  0  0  0  0  0  0
   28.0619  -50.4724   38.6388 C   0  0  0  0  0  0  0  0  0  0  0  0
   28.8024  -49.7423   37.5440 C   0  0  0  0  0  0  0  0  0  0  0  0
   30.3061  -49.8265   37.7009 C   0  0  0  0  0  0  0  0  0  0  0  0
   30.7706  -50.6006   38.5703 O   0  0  0  0  0  0  0  0  0  0  0  0
   31.0198  -49.1200   36.9562 O   0  0  0  0  0  0  0  0  0  0  0  0
   30.1910  -51.1086   39.1031 H   0  0  0  0  0  0  0  0  0  0  0  0
   28.2862  -46.8787   43.2036 C   0  0  0  0  0  0  0  0  0  0  0  0
   28.7408  -47.8577   44.2502 C   0  0  0  0  0  0  0  0  0  0  0  0
   28.1434  -49.1116   44.3564 C   0  0  0  0  0  0  0  0  0  0  0  0
   28.5654  -50.0179   45.3263 C   0  0  0  0  0  0  0  0  0  0  0  0
   29.5896  -49.6719   46.2043 C   0  0  0  0  0  0  0  0  0  0  0  0
   30.1873  -48.4225   46.1069 C   0  0  0  0  0  0  0  0  0  0  0  0
   29.7612  -47.5256   45.1368 C   0  0  0  0  0  0  0  0  0  0  0  0
 14 15  2  0  0  0
 14 19  1  0  0  0
 14 13  1  0  0  0
 15 16  1  0  0  0
 16 17  2  0  0  0
 17 18  1  0  0  0
 18 19  2  0  0  0
 13 12  1  0  0  0
 12  8  1  0  0  0
  8  9  1  0  0  0
  9 10  2  0  0  0
  9  7  1  0  0  0
  7  6  1  0  0  0
  6  2  1  0  0  0
  2  3  2  0  0  0
  2  4  1  0  0  0
  2  1  1  0  0  0
  1 31  1  0  0  0
  1 20  1  0  0  0
 31 32  1  0  0  0
 32 33  2  0  0  0
 32 37  1  0  0  0
 33 34  1  0  0  0
 34 35  2  0  0  0
 35 36  1  0  0  0
 36 37  2  0  0  0
 20 21  1  0  0  0
 21 22  2  0  0  0
 21 24  1  0  0  0
 24 25  1  0  0  0
 25 26  1  0  0  0
 26 27  1  0  0  0
 27 28  1  0  0  0
 27 29  2  0  0  0
  8 11  1  0  0  0
  4  5  1  0  0  0
 20 23  1  0  0  0
 28 30  1  0  0  0
M  END
> <minimizedAffinity>
-8.38138

$$$$
