5U6J_82J_H_301


 46 49  0  0  0  0  0  0  0  0999 V2000
    3.6627   35.6848   24.3318 C   0  0  0  0  0  0  0  0  0  0  0  0
    5.8242   39.8883   22.4240 C   0  0  0  0  0  0  0  0  0  0  0  0
    6.8371   40.2279   23.4959 C   0  0  0  0  0  0  0  0  0  0  0  0
    5.9903   40.1835   21.0565 C   0  0  0  0  0  0  0  0  0  0  0  0
    5.0080   39.8414   20.1322 C   0  0  0  0  0  0  0  0  0  0  0  0
    3.8470   39.2038   20.5422 C   0  0  0  0  0  0  0  0  0  0  0  0
    3.6503   38.9061   21.8840 C   0  0  0  0  0  0  0  0  0  0  0  0
    4.6418   39.2415   22.8020 C   0  0  0  0  0  0  0  0  0  0  0  0
    3.2856   36.5099   26.5696 C   0  0  0  0  0  0  0  0  0  0  0  0
    2.7747   35.9550   25.3958 C   0  0  0  0  0  0  0  0  0  0  0  0
    6.9504   37.0685   25.6871 C   0  0  0  0  0  0  0  0  0  0  0  0
    7.1659   38.0876   24.5543 C   0  0  0  0  0  0  0  0  0  0  0  0
    4.6295   36.8136   26.6892 C   0  0  0  0  0  0  0  0  0  0  0  0
    5.0142   36.0000   24.4801 C   0  0  0  0  0  0  0  0  0  0  0  0
    7.6784   37.7089   23.5193 O   0  0  0  0  0  0  0  0  0  0  0  0
    6.7419   39.3650   24.6885 N   0  0  0  0  0  0  0  0  0  0  0  0
    2.4503   38.2589   22.2928 N   0  0  0  0  0  0  0  0  0  0  0  0
    1.2718   35.7152   25.3066 C   0  0  0  0  0  0  0  0  0  0  0  0
    1.8851   38.2716   23.5321 C   0  0  0  0  0  0  0  0  0  0  0  0
    0.8703   37.3816   23.5748 O   0  0  0  0  0  0  0  0  0  0  0  0
    2.2655   38.9105   24.4854 O   0  0  0  0  0  0  0  0  0  0  0  0
    0.4615   36.9461   24.9021 C   0  0  0  0  0  0  0  0  0  0  0  0
    6.2174   39.9842   25.9063 C   0  0  0  0  0  0  0  0  0  0  0  0
    5.5066   36.5838   25.6409 C   0  0  0  0  0  0  0  0  0  0  0  0
    1.9750   37.7437   21.6015 H   0  0  0  0  0  0  0  0  0  0  0  0
    7.4249   41.0120   20.3643 S   0  0  0  0  0  0  0  0  0  0  0  0
    8.5773   40.7292   21.1775 O   0  0  0  0  0  0  0  0  0  0  0  0
    7.0671   42.3873   20.1449 O   0  0  0  0  0  0  0  0  0  0  0  0
    7.6956   40.2359   18.7048 C   0  0  0  0  0  0  0  0  0  0  0  0
    9.0829   39.6562   18.4899 C   0  0  0  0  0  0  0  0  0  0  0  0
    7.3129   41.2313   17.6266 C   0  0  0  0  0  0  0  0  0  0  0  0
    3.2506   33.5811   23.1182 C   0  0  0  0  0  0  0  0  0  0  0  0
    3.2392   35.0461   23.0343 C   0  0  0  0  0  0  0  0  0  0  0  0
    7.9040   35.9843   25.5075 N   0  0  0  0  0  0  0  0  0  0  0  0
    8.1502   35.7582   24.5815 H   0  0  0  0  0  0  0  0  0  0  0  0
    9.7881   33.7144   28.4670 C   0  0  0  0  0  0  0  0  0  0  0  0
    9.0254   34.8137   28.8516 C   0  0  0  0  0  0  0  0  0  0  0  0
    8.3825   35.5705   27.8739 C   0  0  0  0  0  0  0  0  0  0  0  0
    8.5047   35.2323   26.5214 C   0  0  0  0  0  0  0  0  0  0  0  0
    9.2734   34.1303   26.1556 C   0  0  0  0  0  0  0  0  0  0  0  0
    9.9070   33.3793   27.1287 C   0  0  0  0  0  0  0  0  0  0  0  0
    8.8539   35.2245   30.2948 C   0  0  0  0  0  0  0  0  0  0  0  0
    9.7271   34.7454   31.2087 N   0  0  0  0  0  0  0  0  0  0  0  0
    7.9024   35.9622   30.6064 O   0  0  0  0  0  0  0  0  0  0  0  0
   10.4684   34.1637   30.9235 H   0  0  0  0  0  0  0  0  0  0  0  0
    9.6217   34.9781   32.1595 H   0  0  0  0  0  0  0  0  0  0  0  0
 31 29  1  0  0  0
 28 26  2  0  0  0
 29 26  1  0  0  0
 29 30  1  0  0  0
  5  6  2  0  0  0
  5  4  1  0  0  0
 26  4  1  0  0  0
 26 27  2  0  0  0
  6  7  1  0  0  0
  4  2  2  0  0  0
  7 17  1  0  0  0
  7  8  2  0  0  0
  2  8  1  0  0  0
  2  3  1  0  0  0
 17 19  1  0  0  0
 33 32  1  0  0  0
 33  1  1  0  0  0
  3 16  1  0  0  0
 15 12  2  0  0  0
 19 20  1  0  0  0
 19 21  2  0  0  0
 20 22  1  0  0  0
  1 14  2  0  0  0
  1 10  1  0  0  0
 12 16  1  0  0  0
 12 11  1  0  0  0
 14 24  1  0  0  0
 16 23  1  0  0  0
 22 18  1  0  0  0
 18 10  1  0  0  0
 10  9  2  0  0  0
 34 11  1  0  0  0
 34 39  1  0  0  0
 11 24  1  0  0  0
 24 13  2  0  0  0
 40 39  2  0  0  0
 40 41  1  0  0  0
 39 38  1  0  0  0
  9 13  1  0  0  0
 41 36  2  0  0  0
 38 37  2  0  0  0
 36 37  1  0  0  0
 37 42  1  0  0  0
 42 44  2  0  0  0
 42 43  1  0  0  0
 34 35  1  0  0  0
 17 25  1  0  0  0
 43 45  1  0  0  0
 43 46  1  0  0  0
M  END
> <minimizedAffinity>
-12.35566

$$$$
5U6J_82J_H_301


 46 49  0  0  0  0  0  0  0  0999 V2000
    2.9801   36.0044   25.5557 C   0  0  0  0  0  0  0  0  0  0  0  0
    4.5971   39.8688   22.6518 C   0  0  0  0  0  0  0  0  0  0  0  0
    5.5996   40.5417   23.5641 C   0  0  0  0  0  0  0  0  0  0  0  0
    4.6853   39.8645   21.2458 C   0  0  0  0  0  0  0  0  0  0  0  0
    3.7181   39.2254   20.4760 C   0  0  0  0  0  0  0  0  0  0  0  0
    2.6493   38.5818   21.0807 C   0  0  0  0  0  0  0  0  0  0  0  0
    2.5301   38.5749   22.4640 C   0  0  0  0  0  0  0  0  0  0  0  0
    3.5069   39.2068   23.2287 C   0  0  0  0  0  0  0  0  0  0  0  0
    2.5853   37.2687   27.5748 C   0  0  0  0  0  0  0  0  0  0  0  0
    2.1021   36.4152   26.5824 C   0  0  0  0  0  0  0  0  0  0  0  0
    6.1347   37.9838   26.3868 C   0  0  0  0  0  0  0  0  0  0  0  0
    6.1988   38.7388   25.0472 C   0  0  0  0  0  0  0  0  0  0  0  0
    3.8901   37.7263   27.5491 C   0  0  0  0  0  0  0  0  0  0  0  0
    4.2921   36.4805   25.5550 C   0  0  0  0  0  0  0  0  0  0  0  0
    6.7169   38.1912   24.0938 O   0  0  0  0  0  0  0  0  0  0  0  0
    5.6395   39.9639   24.9208 N   0  0  0  0  0  0  0  0  0  0  0  0
    1.4235   37.9176   23.0718 N   0  0  0  0  0  0  0  0  0  0  0  0
    0.6332   36.0101   26.6326 C   0  0  0  0  0  0  0  0  0  0  0  0
    0.9004   38.1510   24.3078 C   0  0  0  0  0  0  0  0  0  0  0  0
   -0.0070   37.1950   24.6020 O   0  0  0  0  0  0  0  0  0  0  0  0
    1.2376   39.0231   25.0742 O   0  0  0  0  0  0  0  0  0  0  0  0
   -0.3218   37.0298   26.0134 C   0  0  0  0  0  0  0  0  0  0  0  0
    5.0886   40.7843   26.0000 C   0  0  0  0  0  0  0  0  0  0  0  0
    4.7533   37.3571   26.5295 C   0  0  0  0  0  0  0  0  0  0  0  0
    0.9867   37.2147   22.5386 H   0  0  0  0  0  0  0  0  0  0  0  0
    5.9955   40.6575   20.3089 S   0  0  0  0  0  0  0  0  0  0  0  0
    6.3396   41.9067   20.9337 O   0  0  0  0  0  0  0  0  0  0  0  0
    5.5922   40.6747   18.9288 O   0  0  0  0  0  0  0  0  0  0  0  0
    7.4587   39.5307   20.4470 C   0  0  0  0  0  0  0  0  0  0  0  0
    8.4516   39.9042   21.5340 C   0  0  0  0  0  0  0  0  0  0  0  0
    8.1142   39.4046   19.0854 C   0  0  0  0  0  0  0  0  0  0  0  0
    3.5944   35.0081   23.3882 C   0  0  0  0  0  0  0  0  0  0  0  0
    2.5891   35.0509   24.4564 C   0  0  0  0  0  0  0  0  0  0  0  0
    7.1971   36.9896   26.3968 N   0  0  0  0  0  0  0  0  0  0  0  0
    7.5395   36.6967   25.5215 H   0  0  0  0  0  0  0  0  0  0  0  0
    8.8491   35.2973   29.8418 C   0  0  0  0  0  0  0  0  0  0  0  0
    9.0127   34.6363   28.6276 C   0  0  0  0  0  0  0  0  0  0  0  0
    8.4766   35.1978   27.4703 C   0  0  0  0  0  0  0  0  0  0  0  0
    7.7789   36.4096   27.5280 C   0  0  0  0  0  0  0  0  0  0  0  0
    7.6237   37.0555   28.7518 C   0  0  0  0  0  0  0  0  0  0  0  0
    8.1602   36.4973   29.8977 C   0  0  0  0  0  0  0  0  0  0  0  0
    9.7586   33.3290   28.5030 C   0  0  0  0  0  0  0  0  0  0  0  0
    9.6533   32.4295   29.5065 N   0  0  0  0  0  0  0  0  0  0  0  0
   10.4695   33.1293   27.5023 O   0  0  0  0  0  0  0  0  0  0  0  0
    9.0801   32.6234   30.2832 H   0  0  0  0  0  0  0  0  0  0  0  0
   10.1497   31.5806   29.4608 H   0  0  0  0  0  0  0  0  0  0  0  0
 31 29  1  0  0  0
 28 26  2  0  0  0
 29 26  1  0  0  0
 29 30  1  0  0  0
  5  6  2  0  0  0
  5  4  1  0  0  0
 26  4  1  0  0  0
 26 27  2  0  0  0
  6  7  1  0  0  0
  4  2  2  0  0  0
  7 17  1  0  0  0
  7  8  2  0  0  0
  2  8  1  0  0  0
  2  3  1  0  0  0
 17 19  1  0  0  0
 33 32  1  0  0  0
 33  1  1  0  0  0
  3 16  1  0  0  0
 15 12  2  0  0  0
 19 20  1  0  0  0
 19 21  2  0  0  0
 20 22  1  0  0  0
  1 14  2  0  0  0
  1 10  1  0  0  0
 12 16  1  0  0  0
 12 11  1  0  0  0
 14 24  1  0  0  0
 16 23  1  0  0  0
 22 18  1  0  0  0
 18 10  1  0  0  0
 10  9  2  0  0  0
 34 11  1  0  0  0
 34 39  1  0  0  0
 11 24  1  0  0  0
 24 13  2  0  0  0
 40 39  2  0  0  0
 40 41  1  0  0  0
 39 38  1  0  0  0
  9 13  1  0  0  0
 41 36  2  0  0  0
 38 37  2  0  0  0
 36 37  1  0  0  0
 37 42  1  0  0  0
 42 44  2  0  0  0
 42 43  1  0  0  0
 34 35  1  0  0  0
 17 25  1  0  0  0
 43 45  1  0  0  0
 43 46  1  0  0  0
M  END
> <minimizedAffinity>
-10.85203

$$$$
5U6J_82J_H_301


 46 49  0  0  0  0  0  0  0  0999 V2000
    6.2450   40.3800   24.7248 C   0  0  0  0  0  0  0  0  0  0  0  0
    1.8299   37.8333   24.6695 C   0  0  0  0  0  0  0  0  0  0  0  0
    2.2853   36.4202   24.9624 C   0  0  0  0  0  0  0  0  0  0  0  0
    0.5729   38.3518   25.0380 C   0  0  0  0  0  0  0  0  0  0  0  0
    0.2275   39.6635   24.7271 C   0  0  0  0  0  0  0  0  0  0  0  0
    1.1157   40.4833   24.0479 C   0  0  0  0  0  0  0  0  0  0  0  0
    2.3592   39.9993   23.6643 C   0  0  0  0  0  0  0  0  0  0  0  0
    2.7027   38.6895   23.9878 C   0  0  0  0  0  0  0  0  0  0  0  0
    7.5005   38.8683   23.3215 C   0  0  0  0  0  0  0  0  0  0  0  0
    7.0256   40.1565   23.5696 C   0  0  0  0  0  0  0  0  0  0  0  0
    5.9206   36.8524   26.1432 C   0  0  0  0  0  0  0  0  0  0  0  0
    4.3835   36.8048   26.0844 C   0  0  0  0  0  0  0  0  0  0  0  0
    7.1989   37.8205   24.1722 C   0  0  0  0  0  0  0  0  0  0  0  0
    5.9570   39.3047   25.5667 C   0  0  0  0  0  0  0  0  0  0  0  0
    3.7499   37.2984   26.9966 O   0  0  0  0  0  0  0  0  0  0  0  0
    3.7524   36.2742   25.0121 N   0  0  0  0  0  0  0  0  0  0  0  0
    3.2584   40.8487   22.9601 N   0  0  0  0  0  0  0  0  0  0  0  0
    7.3347   41.2474   22.5505 C   0  0  0  0  0  0  0  0  0  0  0  0
    4.2854   40.4732   22.1476 C   0  0  0  0  0  0  0  0  0  0  0  0
    5.0279   41.5553   21.8288 O   0  0  0  0  0  0  0  0  0  0  0  0
    4.5587   39.3432   21.8158 O   0  0  0  0  0  0  0  0  0  0  0  0
    6.3784   41.2840   21.3590 C   0  0  0  0  0  0  0  0  0  0  0  0
    4.3777   35.5496   23.9051 C   0  0  0  0  0  0  0  0  0  0  0  0
    6.4068   38.0190   25.2921 C   0  0  0  0  0  0  0  0  0  0  0  0
    3.1229   41.8172   23.0730 H   0  0  0  0  0  0  0  0  0  0  0  0
   -0.6921   37.4225   25.9094 S   0  0  0  0  0  0  0  0  0  0  0  0
   -0.8253   36.1213   25.3107 O   0  0  0  0  0  0  0  0  0  0  0  0
   -1.8609   38.2559   25.9945 O   0  0  0  0  0  0  0  0  0  0  0  0
   -0.0457   37.1935   27.6296 C   0  0  0  0  0  0  0  0  0  0  0  0
    0.4589   35.7951   27.9410 C   0  0  0  0  0  0  0  0  0  0  0  0
   -1.0969   37.6608   28.6177 C   0  0  0  0  0  0  0  0  0  0  0  0
    4.7153   41.6331   26.1938 C   0  0  0  0  0  0  0  0  0  0  0  0
    5.7144   41.7328   25.1235 C   0  0  0  0  0  0  0  0  0  0  0  0
    6.3161   36.9822   27.5374 N   0  0  0  0  0  0  0  0  0  0  0  0
    5.8045   37.6191   28.0868 H   0  0  0  0  0  0  0  0  0  0  0  0
    9.3536   34.9244   29.5373 C   0  0  0  0  0  0  0  0  0  0  0  0
    9.0775   34.5892   28.2147 C   0  0  0  0  0  0  0  0  0  0  0  0
    8.0750   35.2774   27.5340 C   0  0  0  0  0  0  0  0  0  0  0  0
    7.3516   36.2908   28.1731 C   0  0  0  0  0  0  0  0  0  0  0  0
    7.6406   36.6109   29.4971 C   0  0  0  0  0  0  0  0  0  0  0  0
    8.6386   35.9285   30.1683 C   0  0  0  0  0  0  0  0  0  0  0  0
    9.8268   33.5083   27.4722 C   0  0  0  0  0  0  0  0  0  0  0  0
   10.0853   33.6907   26.1580 N   0  0  0  0  0  0  0  0  0  0  0  0
   10.1564   32.4733   28.0778 O   0  0  0  0  0  0  0  0  0  0  0  0
    9.8087   34.5242   25.7129 H   0  0  0  0  0  0  0  0  0  0  0  0
   10.5500   32.9900   25.6458 H   0  0  0  0  0  0  0  0  0  0  0  0
 31 29  1  0  0  0
 28 26  2  0  0  0
 29 26  1  0  0  0
 29 30  1  0  0  0
  5  6  2  0  0  0
  5  4  1  0  0  0
 26  4  1  0  0  0
 26 27  2  0  0  0
  6  7  1  0  0  0
  4  2  2  0  0  0
  7 17  1  0  0  0
  7  8  2  0  0  0
  2  8  1  0  0  0
  2  3  1  0  0  0
 17 19  1  0  0  0
 33 32  1  0  0  0
 33  1  1  0  0  0
  3 16  1  0  0  0
 15 12  2  0  0  0
 19 20  1  0  0  0
 19 21  2  0  0  0
 20 22  1  0  0  0
  1 14  2  0  0  0
  1 10  1  0  0  0
 12 16  1  0  0  0
 12 11  1  0  0  0
 14 24  1  0  0  0
 16 23  1  0  0  0
 22 18  1  0  0  0
 18 10  1  0  0  0
 10  9  2  0  0  0
 34 11  1  0  0  0
 34 39  1  0  0  0
 11 24  1  0  0  0
 24 13  2  0  0  0
 40 39  2  0  0  0
 40 41  1  0  0  0
 39 38  1  0  0  0
  9 13  1  0  0  0
 41 36  2  0  0  0
 38 37  2  0  0  0
 36 37  1  0  0  0
 37 42  1  0  0  0
 42 44  2  0  0  0
 42 43  1  0  0  0
 34 35  1  0  0  0
 17 25  1  0  0  0
 43 45  1  0  0  0
 43 46  1  0  0  0
M  END
> <minimizedAffinity>
-9.65543

$$$$
