2BAL_PQA_A_401


 31 34  0  0  0  0  0  0  0  0999 V2000
   -2.4710   -2.0305   22.2567 C   0  0  0  0  0  0  0  0  0  0  0  0
   -2.7860   -3.1365   21.8157 O   0  0  0  0  0  0  0  0  0  0  0  0
   -2.9929   -1.7190   19.2876 N   0  0  0  0  0  0  0  0  0  0  0  0
   -3.1408   -0.7506   20.2239 C   0  0  0  0  0  0  0  0  0  0  0  0
   -2.9132   -0.8253   21.5859 C   0  0  0  0  0  0  0  0  0  0  0  0
   -3.2160    0.4662   22.0606 C   0  0  0  0  0  0  0  0  0  0  0  0
   -3.6061    1.2961   21.0934 N   0  0  0  0  0  0  0  0  0  0  0  0
   -3.5447    0.5525   19.9501 N   0  0  0  0  0  0  0  0  0  0  0  0
   -2.7029   -2.6213   19.5542 H   0  0  0  0  0  0  0  0  0  0  0  0
   -3.1754   -1.5204   18.3408 H   0  0  0  0  0  0  0  0  0  0  0  0
   -3.9544    1.0896   18.7092 C   0  0  0  0  0  0  0  0  0  0  0  0
   -3.1467    1.7546   17.7857 C   0  0  0  0  0  0  0  0  0  0  0  0
   -3.7134    2.2254   16.6024 C   0  0  0  0  0  0  0  0  0  0  0  0
   -5.0624    2.0282   16.3371 C   0  0  0  0  0  0  0  0  0  0  0  0
   -5.5892    2.4945   15.1975 F   0  0  0  0  0  0  0  0  0  0  0  0
   -5.8767    1.3543   17.2372 C   0  0  0  0  0  0  0  0  0  0  0  0
   -5.3233    0.8883   18.4250 C   0  0  0  0  0  0  0  0  0  0  0  0
   -1.6622   -1.9588   23.4970 C   0  0  0  0  0  0  0  0  0  0  0  0
   -0.3906   -1.3587   23.5050 C   0  0  0  0  0  0  0  0  0  0  0  0
    0.3443   -1.3081   24.6975 C   0  0  0  0  0  0  0  0  0  0  0  0
   -0.1834   -1.8603   25.8607 C   0  0  0  0  0  0  0  0  0  0  0  0
   -1.4408   -2.4614   25.8530 C   0  0  0  0  0  0  0  0  0  0  0  0
   -2.1893   -2.5203   24.6739 C   0  0  0  0  0  0  0  0  0  0  0  0
   -1.8771   -2.9619   27.0559 O   0  0  0  0  0  0  0  0  0  0  0  0
   -3.1747   -2.4945   27.4497 C   0  0  0  0  0  0  0  0  0  0  0  0
   -4.0527   -3.7144   27.7353 C   0  0  0  0  0  0  0  0  0  0  0  0
   -3.7042   -4.3983   29.0597 C   0  0  0  0  0  0  0  0  0  0  0  0
   -2.5747   -3.7849   29.7778 N   0  0  0  0  0  0  0  0  0  0  0  0
   -2.7067   -2.3396   29.9777 C   0  0  0  0  0  0  0  0  0  0  0  0
   -3.0189   -1.5888   28.6823 C   0  0  0  0  0  0  0  0  0  0  0  0
   -1.7234   -3.9579   29.2433 H   0  0  0  0  0  0  0  0  0  0  0  0
  3  4  1  0  0  0
  4  5  2  0  0  0
  4  8  1  0  0  0
  5  6  1  0  0  0
  5  1  1  0  0  0
  6  7  2  0  0  0
  7  8  1  0  0  0
  8 11  1  0  0  0
 11 12  1  0  0  0
 11 17  2  0  0  0
 12 13  2  0  0  0
 13 14  1  0  0  0
 14 15  1  0  0  0
 14 16  2  0  0  0
 16 17  1  0  0  0
  1  2  2  0  0  0
  1 18  1  0  0  0
 18 19  1  0  0  0
 18 23  2  0  0  0
 19 20  2  0  0  0
 20 21  1  0  0  0
 21 22  2  0  0  0
 22 24  1  0  0  0
 22 23  1  0  0  0
 24 25  1  0  0  0
 25 26  1  0  0  0
 25 30  1  0  0  0
 26 27  1  0  0  0
 27 28  1  0  0  0
 28 29  1  0  0  0
 29 30  1  0  0  0
  3  9  1  0  0  0
  3 10  1  0  0  0
 28 31  1  0  0  0
M  END
> <minimizedAffinity>
-9.47968

$$$$
2BAL_PQA_A_401


 31 34  0  0  0  0  0  0  0  0999 V2000
   -2.8081   -1.0266   22.9019 C   0  0  0  0  0  0  0  0  0  0  0  0
   -3.7898   -1.2571   23.6091 O   0  0  0  0  0  0  0  0  0  0  0  0
   -3.7051    1.3227   21.2105 N   0  0  0  0  0  0  0  0  0  0  0  0
   -3.3463    0.1020   20.7441 C   0  0  0  0  0  0  0  0  0  0  0  0
   -2.9371   -1.0087   21.4593 C   0  0  0  0  0  0  0  0  0  0  0  0
   -2.7039   -1.9897   20.4753 C   0  0  0  0  0  0  0  0  0  0  0  0
   -2.9383   -1.5502   19.2390 N   0  0  0  0  0  0  0  0  0  0  0  0
   -3.3535   -0.2597   19.4005 N   0  0  0  0  0  0  0  0  0  0  0  0
   -3.6755    1.5087   22.1768 H   0  0  0  0  0  0  0  0  0  0  0  0
   -3.9955    2.0235   20.5829 H   0  0  0  0  0  0  0  0  0  0  0  0
   -3.6358    0.5596   18.2847 C   0  0  0  0  0  0  0  0  0  0  0  0
   -2.7113    1.0551   17.3641 C   0  0  0  0  0  0  0  0  0  0  0  0
   -3.1598    1.8551   16.3144 C   0  0  0  0  0  0  0  0  0  0  0  0
   -4.5102    2.1495   16.1767 C   0  0  0  0  0  0  0  0  0  0  0  0
   -4.9198    2.9258   15.1652 F   0  0  0  0  0  0  0  0  0  0  0  0
   -5.4453    1.6513   17.0738 C   0  0  0  0  0  0  0  0  0  0  0  0
   -5.0074    0.8595   18.1300 C   0  0  0  0  0  0  0  0  0  0  0  0
   -1.5083   -0.7390   23.5541 C   0  0  0  0  0  0  0  0  0  0  0  0
   -0.7322   -1.7666   24.1187 C   0  0  0  0  0  0  0  0  0  0  0  0
    0.4927   -1.4564   24.7256 C   0  0  0  0  0  0  0  0  0  0  0  0
    0.9266   -0.1352   24.7749 C   0  0  0  0  0  0  0  0  0  0  0  0
    0.1555    0.8854   24.2216 C   0  0  0  0  0  0  0  0  0  0  0  0
   -1.0681    0.5956   23.6108 C   0  0  0  0  0  0  0  0  0  0  0  0
    0.6801    2.1523   24.3086 O   0  0  0  0  0  0  0  0  0  0  0  0
   -0.2994    3.1984   24.2470 C   0  0  0  0  0  0  0  0  0  0  0  0
   -0.1959    4.0225   25.5318 C   0  0  0  0  0  0  0  0  0  0  0  0
    1.0329    4.9350   25.5530 C   0  0  0  0  0  0  0  0  0  0  0  0
    1.8950    4.8157   24.3655 N   0  0  0  0  0  0  0  0  0  0  0  0
    1.1838    4.9595   23.0928 C   0  0  0  0  0  0  0  0  0  0  0  0
   -0.0377    4.0448   22.9905 C   0  0  0  0  0  0  0  0  0  0  0  0
    2.3384    3.8973   24.3826 H   0  0  0  0  0  0  0  0  0  0  0  0
  3  4  1  0  0  0
  4  5  2  0  0  0
  4  8  1  0  0  0
  5  6  1  0  0  0
  5  1  1  0  0  0
  6  7  2  0  0  0
  7  8  1  0  0  0
  8 11  1  0  0  0
 11 12  1  0  0  0
 11 17  2  0  0  0
 12 13  2  0  0  0
 13 14  1  0  0  0
 14 15  1  0  0  0
 14 16  2  0  0  0
 16 17  1  0  0  0
  1  2  2  0  0  0
  1 18  1  0  0  0
 18 19  1  0  0  0
 18 23  2  0  0  0
 19 20  2  0  0  0
 20 21  1  0  0  0
 21 22  2  0  0  0
 22 24  1  0  0  0
 22 23  1  0  0  0
 24 25  1  0  0  0
 25 26  1  0  0  0
 25 30  1  0  0  0
 26 27  1  0  0  0
 27 28  1  0  0  0
 28 29  1  0  0  0
 29 30  1  0  0  0
  3  9  1  0  0  0
  3 10  1  0  0  0
 28 31  1  0  0  0
M  END
> <minimizedAffinity>
-9.07767

$$$$
2BAL_PQA_A_401


 31 34  0  0  0  0  0  0  0  0999 V2000
   -3.0422    0.0938   22.9222 C   0  0  0  0  0  0  0  0  0  0  0  0
   -3.7029    0.9869   23.4539 O   0  0  0  0  0  0  0  0  0  0  0  0
   -2.8944    2.2963   20.8456 N   0  0  0  0  0  0  0  0  0  0  0  0
   -2.9963    0.9698   20.5877 C   0  0  0  0  0  0  0  0  0  0  0  0
   -3.0753   -0.0799   21.4845 C   0  0  0  0  0  0  0  0  0  0  0  0
   -3.1748   -1.2259   20.6709 C   0  0  0  0  0  0  0  0  0  0  0  0
   -3.1581   -0.9407   19.3691 N   0  0  0  0  0  0  0  0  0  0  0  0
   -3.0652    0.4201   19.3113 N   0  0  0  0  0  0  0  0  0  0  0  0
   -2.8501    2.6148   21.7761 H   0  0  0  0  0  0  0  0  0  0  0  0
   -2.8646    2.9413   20.1025 H   0  0  0  0  0  0  0  0  0  0  0  0
   -2.9564    1.0907   18.0725 C   0  0  0  0  0  0  0  0  0  0  0  0
   -4.0107    1.4945   17.2522 C   0  0  0  0  0  0  0  0  0  0  0  0
   -3.7274    2.1486   16.0543 C   0  0  0  0  0  0  0  0  0  0  0  0
   -2.4141    2.4066   15.6829 C   0  0  0  0  0  0  0  0  0  0  0  0
   -2.1628    3.0300   14.5246 F   0  0  0  0  0  0  0  0  0  0  0  0
   -1.3540    2.0266   16.4949 C   0  0  0  0  0  0  0  0  0  0  0  0
   -1.6253    1.3652   17.6879 C   0  0  0  0  0  0  0  0  0  0  0  0
   -2.1943   -0.7732   23.7748 C   0  0  0  0  0  0  0  0  0  0  0  0
   -0.8154   -0.9081   23.5347 C   0  0  0  0  0  0  0  0  0  0  0  0
   -0.0454   -1.7359   24.3633 C   0  0  0  0  0  0  0  0  0  0  0  0
   -0.6510   -2.4257   25.4092 C   0  0  0  0  0  0  0  0  0  0  0  0
   -2.0188   -2.2982   25.6445 C   0  0  0  0  0  0  0  0  0  0  0  0
   -2.8030   -1.4764   24.8299 C   0  0  0  0  0  0  0  0  0  0  0  0
   -2.5159   -3.0083   26.7106 O   0  0  0  0  0  0  0  0  0  0  0  0
   -3.6297   -2.3833   27.3636 C   0  0  0  0  0  0  0  0  0  0  0  0
   -4.5614   -3.4849   27.8725 C   0  0  0  0  0  0  0  0  0  0  0  0
   -4.0127   -4.2002   29.1096 C   0  0  0  0  0  0  0  0  0  0  0  0
   -2.6880   -3.7268   29.5438 N   0  0  0  0  0  0  0  0  0  0  0  0
   -2.6000   -2.2753   29.7220 C   0  0  0  0  0  0  0  0  0  0  0  0
   -3.0992   -1.4979   28.5031 C   0  0  0  0  0  0  0  0  0  0  0  0
   -2.0024   -4.0054   28.8419 H   0  0  0  0  0  0  0  0  0  0  0  0
  3  4  1  0  0  0
  4  5  2  0  0  0
  4  8  1  0  0  0
  5  6  1  0  0  0
  5  1  1  0  0  0
  6  7  2  0  0  0
  7  8  1  0  0  0
  8 11  1  0  0  0
 11 12  1  0  0  0
 11 17  2  0  0  0
 12 13  2  0  0  0
 13 14  1  0  0  0
 14 15  1  0  0  0
 14 16  2  0  0  0
 16 17  1  0  0  0
  1  2  2  0  0  0
  1 18  1  0  0  0
 18 19  1  0  0  0
 18 23  2  0  0  0
 19 20  2  0  0  0
 20 21  1  0  0  0
 21 22  2  0  0  0
 22 24  1  0  0  0
 22 23  1  0  0  0
 24 25  1  0  0  0
 25 26  1  0  0  0
 25 30  1  0  0  0
 26 27  1  0  0  0
 27 28  1  0  0  0
 28 29  1  0  0  0
 29 30  1  0  0  0
  3  9  1  0  0  0
  3 10  1  0  0  0
 28 31  1  0  0  0
M  END
> <minimizedAffinity>
-8.87737

$$$$
2BAL_PQA_A_401


 31 34  0  0  0  0  0  0  0  0999 V2000
   -3.0756   -0.7510   22.9416 C   0  0  0  0  0  0  0  0  0  0  0  0
   -4.1587   -0.7036   23.5260 O   0  0  0  0  0  0  0  0  0  0  0  0
   -3.2463    1.6004   21.0372 N   0  0  0  0  0  0  0  0  0  0  0  0
   -3.1060    0.3006   20.6805 C   0  0  0  0  0  0  0  0  0  0  0  0
   -3.0299   -0.8143   21.4952 C   0  0  0  0  0  0  0  0  0  0  0  0
   -2.9004   -1.8927   20.5979 C   0  0  0  0  0  0  0  0  0  0  0  0
   -2.8905   -1.5075   19.3220 N   0  0  0  0  0  0  0  0  0  0  0  0
   -3.0352   -0.1507   19.3662 N   0  0  0  0  0  0  0  0  0  0  0  0
   -3.2894    1.8477   21.9891 H   0  0  0  0  0  0  0  0  0  0  0  0
   -3.3051    2.2974   20.3444 H   0  0  0  0  0  0  0  0  0  0  0  0
   -3.0042    0.6238   18.1850 C   0  0  0  0  0  0  0  0  0  0  0  0
   -4.0966    0.9594   17.3840 C   0  0  0  0  0  0  0  0  0  0  0  0
   -3.8906    1.7358   16.2447 C   0  0  0  0  0  0  0  0  0  0  0  0
   -2.6174    2.1806   15.9129 C   0  0  0  0  0  0  0  0  0  0  0  0
   -2.4396    2.9195   14.8102 F   0  0  0  0  0  0  0  0  0  0  0  0
   -1.5221    1.8699   16.7075 C   0  0  0  0  0  0  0  0  0  0  0  0
   -1.7153    1.0883   17.8415 C   0  0  0  0  0  0  0  0  0  0  0  0
   -1.8284   -0.7104   23.7419 C   0  0  0  0  0  0  0  0  0  0  0  0
   -0.9692   -1.8213   23.8106 C   0  0  0  0  0  0  0  0  0  0  0  0
    0.2023   -1.7451   24.5765 C   0  0  0  0  0  0  0  0  0  0  0  0
    0.5014   -0.5769   25.2709 C   0  0  0  0  0  0  0  0  0  0  0  0
   -0.3524    0.5229   25.2092 C   0  0  0  0  0  0  0  0  0  0  0  0
   -1.5246    0.4664   24.4497 C   0  0  0  0  0  0  0  0  0  0  0  0
    0.0412    1.6323   25.9178 O   0  0  0  0  0  0  0  0  0  0  0  0
   -0.4987    2.8659   25.4237 C   0  0  0  0  0  0  0  0  0  0  0  0
   -1.0935    3.6320   26.6069 C   0  0  0  0  0  0  0  0  0  0  0  0
   -0.0239    4.2572   27.5060 C   0  0  0  0  0  0  0  0  0  0  0  0
    1.3588    3.9695   27.0902 N   0  0  0  0  0  0  0  0  0  0  0  0
    1.6383    4.2796   25.6859 C   0  0  0  0  0  0  0  0  0  0  0  0
    0.6248    3.6517   24.7279 C   0  0  0  0  0  0  0  0  0  0  0  0
    1.5386    2.9768   27.2409 H   0  0  0  0  0  0  0  0  0  0  0  0
  3  4  1  0  0  0
  4  5  2  0  0  0
  4  8  1  0  0  0
  5  6  1  0  0  0
  5  1  1  0  0  0
  6  7  2  0  0  0
  7  8  1  0  0  0
  8 11  1  0  0  0
 11 12  1  0  0  0
 11 17  2  0  0  0
 12 13  2  0  0  0
 13 14  1  0  0  0
 14 15  1  0  0  0
 14 16  2  0  0  0
 16 17  1  0  0  0
  1  2  2  0  0  0
  1 18  1  0  0  0
 18 19  1  0  0  0
 18 23  2  0  0  0
 19 20  2  0  0  0
 20 21  1  0  0  0
 21 22  2  0  0  0
 22 24  1  0  0  0
 22 23  1  0  0  0
 24 25  1  0  0  0
 25 26  1  0  0  0
 25 30  1  0  0  0
 26 27  1  0  0  0
 27 28  1  0  0  0
 28 29  1  0  0  0
 29 30  1  0  0  0
  3  9  1  0  0  0
  3 10  1  0  0  0
 28 31  1  0  0  0
M  END
> <minimizedAffinity>
-8.72585

$$$$
2BAL_PQA_A_401


 31 34  0  0  0  0  0  0  0  0999 V2000
   -1.2198   -1.1611   23.0099 C   0  0  0  0  0  0  0  0  0  0  0  0
    0.0099   -1.2304   23.0204 O   0  0  0  0  0  0  0  0  0  0  0  0
   -2.3544    1.2012   21.4877 N   0  0  0  0  0  0  0  0  0  0  0  0
   -2.4297   -0.0970   21.1065 C   0  0  0  0  0  0  0  0  0  0  0  0
   -1.9423   -1.2166   21.7557 C   0  0  0  0  0  0  0  0  0  0  0  0
   -2.3100   -2.2904   20.9211 C   0  0  0  0  0  0  0  0  0  0  0  0
   -2.9709   -1.8982   19.8321 N   0  0  0  0  0  0  0  0  0  0  0  0
   -3.0634   -0.5413   19.9501 N   0  0  0  0  0  0  0  0  0  0  0  0
   -1.8888    1.4434   22.3207 H   0  0  0  0  0  0  0  0  0  0  0  0
   -2.7652    1.9022   20.9317 H   0  0  0  0  0  0  0  0  0  0  0  0
   -3.6545    0.2397   18.9319 C   0  0  0  0  0  0  0  0  0  0  0  0
   -4.9118    0.8437   18.9737 C   0  0  0  0  0  0  0  0  0  0  0  0
   -5.3465    1.5845   17.8758 C   0  0  0  0  0  0  0  0  0  0  0  0
   -4.5374    1.7308   16.7564 C   0  0  0  0  0  0  0  0  0  0  0  0
   -4.9765    2.4407   15.7091 F   0  0  0  0  0  0  0  0  0  0  0  0
   -3.2772    1.1505   16.7046 C   0  0  0  0  0  0  0  0  0  0  0  0
   -2.8375    0.4018   17.7911 C   0  0  0  0  0  0  0  0  0  0  0  0
   -1.9412   -1.0523   24.3004 C   0  0  0  0  0  0  0  0  0  0  0  0
   -2.7323   -2.1089   24.7852 C   0  0  0  0  0  0  0  0  0  0  0  0
   -3.3985   -1.9700   26.0107 C   0  0  0  0  0  0  0  0  0  0  0  0
   -3.2816   -0.7862   26.7327 C   0  0  0  0  0  0  0  0  0  0  0  0
   -2.5032    0.2644   26.2504 C   0  0  0  0  0  0  0  0  0  0  0  0
   -1.8302    0.1443   25.0311 C   0  0  0  0  0  0  0  0  0  0  0  0
   -2.4407    1.3830   27.0459 O   0  0  0  0  0  0  0  0  0  0  0  0
   -1.2045    2.1039   26.9483 C   0  0  0  0  0  0  0  0  0  0  0  0
   -1.5234    3.5388   26.5241 C   0  0  0  0  0  0  0  0  0  0  0  0
   -2.1228    4.3728   27.6592 C   0  0  0  0  0  0  0  0  0  0  0  0
   -2.3163    3.6320   28.9166 N   0  0  0  0  0  0  0  0  0  0  0  0
   -1.1203    2.9285   29.3869 C   0  0  0  0  0  0  0  0  0  0  0  0
   -0.4911    2.0447   28.3089 C   0  0  0  0  0  0  0  0  0  0  0  0
   -3.0562    2.9448   28.7728 H   0  0  0  0  0  0  0  0  0  0  0  0
  3  4  1  0  0  0
  4  5  2  0  0  0
  4  8  1  0  0  0
  5  6  1  0  0  0
  5  1  1  0  0  0
  6  7  2  0  0  0
  7  8  1  0  0  0
  8 11  1  0  0  0
 11 12  1  0  0  0
 11 17  2  0  0  0
 12 13  2  0  0  0
 13 14  1  0  0  0
 14 15  1  0  0  0
 14 16  2  0  0  0
 16 17  1  0  0  0
  1  2  2  0  0  0
  1 18  1  0  0  0
 18 19  1  0  0  0
 18 23  2  0  0  0
 19 20  2  0  0  0
 20 21  1  0  0  0
 21 22  2  0  0  0
 22 24  1  0  0  0
 22 23  1  0  0  0
 24 25  1  0  0  0
 25 26  1  0  0  0
 25 30  1  0  0  0
 26 27  1  0  0  0
 27 28  1  0  0  0
 28 29  1  0  0  0
 29 30  1  0  0  0
  3  9  1  0  0  0
  3 10  1  0  0  0
 28 31  1  0  0  0
M  END
> <minimizedAffinity>
-8.46378

$$$$
2BAL_PQA_A_401


 31 34  0  0  0  0  0  0  0  0999 V2000
   -2.9645   -2.0268   22.9886 C   0  0  0  0  0  0  0  0  0  0  0  0
   -3.4688   -3.0430   22.5090 O   0  0  0  0  0  0  0  0  0  0  0  0
   -3.3030   -1.7480   19.9898 N   0  0  0  0  0  0  0  0  0  0  0  0
   -3.1328   -0.7284   20.8660 C   0  0  0  0  0  0  0  0  0  0  0  0
   -2.9658   -0.7882   22.2376 C   0  0  0  0  0  0  0  0  0  0  0  0
   -2.8256    0.5576   22.6300 C   0  0  0  0  0  0  0  0  0  0  0  0
   -2.8989    1.4069   21.6055 N   0  0  0  0  0  0  0  0  0  0  0  0
   -3.0718    0.6146   20.5073 N   0  0  0  0  0  0  0  0  0  0  0  0
   -3.3369   -2.6765   20.3155 H   0  0  0  0  0  0  0  0  0  0  0  0
   -3.3929   -1.5604   19.0276 H   0  0  0  0  0  0  0  0  0  0  0  0
   -3.2572    1.1777   19.2248 C   0  0  0  0  0  0  0  0  0  0  0  0
   -4.4466    1.6951   18.7100 C   0  0  0  0  0  0  0  0  0  0  0  0
   -4.4574    2.2161   17.4171 C   0  0  0  0  0  0  0  0  0  0  0  0
   -3.2987    2.2314   16.6512 C   0  0  0  0  0  0  0  0  0  0  0  0
   -3.3318    2.7300   15.4086 F   0  0  0  0  0  0  0  0  0  0  0  0
   -2.1032    1.7360   17.1538 C   0  0  0  0  0  0  0  0  0  0  0  0
   -2.0835    1.2056   18.4394 C   0  0  0  0  0  0  0  0  0  0  0  0
   -2.3886   -2.0895   24.3532 C   0  0  0  0  0  0  0  0  0  0  0  0
   -0.9995   -2.1693   24.5558 C   0  0  0  0  0  0  0  0  0  0  0  0
   -0.4916   -2.2253   25.8610 C   0  0  0  0  0  0  0  0  0  0  0  0
   -1.3638   -2.2124   26.9452 C   0  0  0  0  0  0  0  0  0  0  0  0
   -2.7413   -2.1399   26.7460 C   0  0  0  0  0  0  0  0  0  0  0  0
   -3.2667   -2.0820   25.4518 C   0  0  0  0  0  0  0  0  0  0  0  0
   -3.5144   -2.1173   27.8816 O   0  0  0  0  0  0  0  0  0  0  0  0
   -3.1317   -3.0827   28.8711 C   0  0  0  0  0  0  0  0  0  0  0  0
   -3.8677   -2.7490   30.1701 C   0  0  0  0  0  0  0  0  0  0  0  0
   -5.3509   -3.1247   30.1241 C   0  0  0  0  0  0  0  0  0  0  0  0
   -5.7918   -3.6894   28.8379 N   0  0  0  0  0  0  0  0  0  0  0  0
   -4.9745   -4.8093   28.3645 C   0  0  0  0  0  0  0  0  0  0  0  0
   -3.4796   -4.4867   28.3498 C   0  0  0  0  0  0  0  0  0  0  0  0
   -5.7598   -2.9503   28.1358 H   0  0  0  0  0  0  0  0  0  0  0  0
  3  4  1  0  0  0
  4  5  2  0  0  0
  4  8  1  0  0  0
  5  6  1  0  0  0
  5  1  1  0  0  0
  6  7  2  0  0  0
  7  8  1  0  0  0
  8 11  1  0  0  0
 11 12  1  0  0  0
 11 17  2  0  0  0
 12 13  2  0  0  0
 13 14  1  0  0  0
 14 15  1  0  0  0
 14 16  2  0  0  0
 16 17  1  0  0  0
  1  2  2  0  0  0
  1 18  1  0  0  0
 18 19  1  0  0  0
 18 23  2  0  0  0
 19 20  2  0  0  0
 20 21  1  0  0  0
 21 22  2  0  0  0
 22 24  1  0  0  0
 22 23  1  0  0  0
 24 25  1  0  0  0
 25 26  1  0  0  0
 25 30  1  0  0  0
 26 27  1  0  0  0
 27 28  1  0  0  0
 28 29  1  0  0  0
 29 30  1  0  0  0
  3  9  1  0  0  0
  3 10  1  0  0  0
 28 31  1  0  0  0
M  END
> <minimizedAffinity>
-8.42747

$$$$
2BAL_PQA_A_401


 31 34  0  0  0  0  0  0  0  0999 V2000
   -3.3436   -0.7908   22.7562 C   0  0  0  0  0  0  0  0  0  0  0  0
   -4.4630   -0.6812   23.2581 O   0  0  0  0  0  0  0  0  0  0  0  0
   -3.5002    1.5763   20.8701 N   0  0  0  0  0  0  0  0  0  0  0  0
   -3.2668    0.2909   20.5104 C   0  0  0  0  0  0  0  0  0  0  0  0
   -3.1911   -0.8304   21.3163 C   0  0  0  0  0  0  0  0  0  0  0  0
   -2.9411   -1.8876   20.4191 C   0  0  0  0  0  0  0  0  0  0  0  0
   -2.8600   -1.4837   19.1515 N   0  0  0  0  0  0  0  0  0  0  0  0
   -3.0784   -0.1370   19.1998 N   0  0  0  0  0  0  0  0  0  0  0  0
   -3.6244    1.8072   21.8191 H   0  0  0  0  0  0  0  0  0  0  0  0
   -3.5456    2.2794   20.1825 H   0  0  0  0  0  0  0  0  0  0  0  0
   -3.0034    0.6554   18.0325 C   0  0  0  0  0  0  0  0  0  0  0  0
   -4.0692    1.0265   17.2118 C   0  0  0  0  0  0  0  0  0  0  0  0
   -3.8203    1.8163   16.0905 C   0  0  0  0  0  0  0  0  0  0  0  0
   -2.5306    2.2394   15.7957 C   0  0  0  0  0  0  0  0  0  0  0  0
   -2.3115    2.9917   14.7097 F   0  0  0  0  0  0  0  0  0  0  0  0
   -1.4612    1.8931   16.6105 C   0  0  0  0  0  0  0  0  0  0  0  0
   -1.6973    1.0979   17.7268 C   0  0  0  0  0  0  0  0  0  0  0  0
   -2.1617   -0.8490   23.6492 C   0  0  0  0  0  0  0  0  0  0  0  0
   -0.8624   -0.9931   23.1312 C   0  0  0  0  0  0  0  0  0  0  0  0
    0.2311   -1.0427   24.0068 C   0  0  0  0  0  0  0  0  0  0  0  0
    0.0235   -0.9599   25.3802 C   0  0  0  0  0  0  0  0  0  0  0  0
   -1.2643   -0.8236   25.8956 C   0  0  0  0  0  0  0  0  0  0  0  0
   -2.3672   -0.7709   25.0383 C   0  0  0  0  0  0  0  0  0  0  0  0
   -1.3600   -0.7349   27.2633 O   0  0  0  0  0  0  0  0  0  0  0  0
   -2.4683    0.0505   27.7241 C   0  0  0  0  0  0  0  0  0  0  0  0
   -3.1159   -0.6848   28.8990 C   0  0  0  0  0  0  0  0  0  0  0  0
   -2.2896   -0.5916   30.1842 C   0  0  0  0  0  0  0  0  0  0  0  0
   -1.0223    0.1428   30.0362 N   0  0  0  0  0  0  0  0  0  0  0  0
   -1.1668    1.4705   29.4340 C   0  0  0  0  0  0  0  0  0  0  0  0
   -1.9532    1.4433   28.1224 C   0  0  0  0  0  0  0  0  0  0  0  0
   -0.3988   -0.4097   29.4476 H   0  0  0  0  0  0  0  0  0  0  0  0
  3  4  1  0  0  0
  4  5  2  0  0  0
  4  8  1  0  0  0
  5  6  1  0  0  0
  5  1  1  0  0  0
  6  7  2  0  0  0
  7  8  1  0  0  0
  8 11  1  0  0  0
 11 12  1  0  0  0
 11 17  2  0  0  0
 12 13  2  0  0  0
 13 14  1  0  0  0
 14 15  1  0  0  0
 14 16  2  0  0  0
 16 17  1  0  0  0
  1  2  2  0  0  0
  1 18  1  0  0  0
 18 19  1  0  0  0
 18 23  2  0  0  0
 19 20  2  0  0  0
 20 21  1  0  0  0
 21 22  2  0  0  0
 22 24  1  0  0  0
 22 23  1  0  0  0
 24 25  1  0  0  0
 25 26  1  0  0  0
 25 30  1  0  0  0
 26 27  1  0  0  0
 27 28  1  0  0  0
 28 29  1  0  0  0
 29 30  1  0  0  0
  3  9  1  0  0  0
  3 10  1  0  0  0
 28 31  1  0  0  0
M  END
> <minimizedAffinity>
-8.35469

$$$$
2BAL_PQA_A_401


 31 34  0  0  0  0  0  0  0  0999 V2000
   -3.0274   -1.6230   23.6369 C   0  0  0  0  0  0  0  0  0  0  0  0
   -2.9252   -2.8030   23.2993 O   0  0  0  0  0  0  0  0  0  0  0  0
   -3.1024   -2.0320   20.6348 N   0  0  0  0  0  0  0  0  0  0  0  0
   -3.2167   -0.8434   21.2755 C   0  0  0  0  0  0  0  0  0  0  0  0
   -3.1832   -0.5890   22.6344 C   0  0  0  0  0  0  0  0  0  0  0  0
   -3.3381    0.8080   22.7309 C   0  0  0  0  0  0  0  0  0  0  0  0
   -3.4633    1.3991   21.5429 N   0  0  0  0  0  0  0  0  0  0  0  0
   -3.3713    0.3827   20.6361 N   0  0  0  0  0  0  0  0  0  0  0  0
   -2.9953   -2.8622   21.1530 H   0  0  0  0  0  0  0  0  0  0  0  0
   -3.1265   -2.0653   19.6512 H   0  0  0  0  0  0  0  0  0  0  0  0
   -3.5261    0.6246   19.2528 C   0  0  0  0  0  0  0  0  0  0  0  0
   -2.5482    0.4710   18.2691 C   0  0  0  0  0  0  0  0  0  0  0  0
   -2.8685    0.7549   16.9425 C   0  0  0  0  0  0  0  0  0  0  0  0
   -4.1465    1.1759   16.5982 C   0  0  0  0  0  0  0  0  0  0  0  0
   -4.4320    1.4505   15.3188 F   0  0  0  0  0  0  0  0  0  0  0  0
   -5.1359    1.3181   17.5616 C   0  0  0  0  0  0  0  0  0  0  0  0
   -4.8244    1.0460   18.8895 C   0  0  0  0  0  0  0  0  0  0  0  0
   -3.0194   -1.2886   25.0811 C   0  0  0  0  0  0  0  0  0  0  0  0
   -3.6433   -2.1220   26.0263 C   0  0  0  0  0  0  0  0  0  0  0  0
   -3.6137   -1.7739   27.3838 C   0  0  0  0  0  0  0  0  0  0  0  0
   -2.9777   -0.6031   27.7852 C   0  0  0  0  0  0  0  0  0  0  0  0
   -2.3644    0.2274   26.8489 C   0  0  0  0  0  0  0  0  0  0  0  0
   -2.3823   -0.1036   25.4908 C   0  0  0  0  0  0  0  0  0  0  0  0
   -1.7511    1.3504   27.3493 O   0  0  0  0  0  0  0  0  0  0  0  0
   -1.5269    2.3795   26.3756 C   0  0  0  0  0  0  0  0  0  0  0  0
   -2.4761    3.5394   26.6828 C   0  0  0  0  0  0  0  0  0  0  0  0
   -2.0397    4.3549   27.9025 C   0  0  0  0  0  0  0  0  0  0  0  0
   -0.8272    3.8481   28.5662 N   0  0  0  0  0  0  0  0  0  0  0  0
    0.3090    3.6459   27.6638 C   0  0  0  0  0  0  0  0  0  0  0  0
   -0.0505    2.8040   26.4386 C   0  0  0  0  0  0  0  0  0  0  0  0
   -1.0515    2.9545   29.0039 H   0  0  0  0  0  0  0  0  0  0  0  0
  3  4  1  0  0  0
  4  5  2  0  0  0
  4  8  1  0  0  0
  5  6  1  0  0  0
  5  1  1  0  0  0
  6  7  2  0  0  0
  7  8  1  0  0  0
  8 11  1  0  0  0
 11 12  1  0  0  0
 11 17  2  0  0  0
 12 13  2  0  0  0
 13 14  1  0  0  0
 14 15  1  0  0  0
 14 16  2  0  0  0
 16 17  1  0  0  0
  1  2  2  0  0  0
  1 18  1  0  0  0
 18 19  1  0  0  0
 18 23  2  0  0  0
 19 20  2  0  0  0
 20 21  1  0  0  0
 21 22  2  0  0  0
 22 24  1  0  0  0
 22 23  1  0  0  0
 24 25  1  0  0  0
 25 26  1  0  0  0
 25 30  1  0  0  0
 26 27  1  0  0  0
 27 28  1  0  0  0
 28 29  1  0  0  0
 29 30  1  0  0  0
  3  9  1  0  0  0
  3 10  1  0  0  0
 28 31  1  0  0  0
M  END
> <minimizedAffinity>
-8.30671

$$$$
2BAL_PQA_A_401


 31 34  0  0  0  0  0  0  0  0999 V2000
   -2.4291   -1.4837   22.1211 C   0  0  0  0  0  0  0  0  0  0  0  0
   -2.5304   -2.3797   21.2823 O   0  0  0  0  0  0  0  0  0  0  0  0
   -4.3786   -1.0418   24.3992 N   0  0  0  0  0  0  0  0  0  0  0  0
   -3.1441   -1.5901   24.5080 C   0  0  0  0  0  0  0  0  0  0  0  0
   -2.2077   -1.8113   23.5146 C   0  0  0  0  0  0  0  0  0  0  0  0
   -1.1146   -2.3899   24.1895 C   0  0  0  0  0  0  0  0  0  0  0  0
   -1.3286   -2.5315   25.4974 N   0  0  0  0  0  0  0  0  0  0  0  0
   -2.5780   -2.0215   25.7036 N   0  0  0  0  0  0  0  0  0  0  0  0
   -4.7155   -0.7585   23.5186 H   0  0  0  0  0  0  0  0  0  0  0  0
   -4.9385   -0.9268   25.2007 H   0  0  0  0  0  0  0  0  0  0  0  0
   -3.1788   -2.0608   26.9817 C   0  0  0  0  0  0  0  0  0  0  0  0
   -3.0568   -1.0994   27.9858 C   0  0  0  0  0  0  0  0  0  0  0  0
   -3.7193   -1.2937   29.1967 C   0  0  0  0  0  0  0  0  0  0  0  0
   -4.5006   -2.4236   29.4018 C   0  0  0  0  0  0  0  0  0  0  0  0
   -5.1234   -2.5952   30.5750 F   0  0  0  0  0  0  0  0  0  0  0  0
   -4.6463   -3.3818   28.4078 C   0  0  0  0  0  0  0  0  0  0  0  0
   -3.9822   -3.2020   27.1991 C   0  0  0  0  0  0  0  0  0  0  0  0
   -2.5064   -0.0725   21.6735 C   0  0  0  0  0  0  0  0  0  0  0  0
   -1.9364    0.9655   22.4316 C   0  0  0  0  0  0  0  0  0  0  0  0
   -2.0282    2.2878   21.9754 C   0  0  0  0  0  0  0  0  0  0  0  0
   -2.6904    2.5652   20.7834 C   0  0  0  0  0  0  0  0  0  0  0  0
   -3.2615    1.5382   20.0341 C   0  0  0  0  0  0  0  0  0  0  0  0
   -3.1792    0.2132   20.4720 C   0  0  0  0  0  0  0  0  0  0  0  0
   -3.8784    1.9155   18.8658 O   0  0  0  0  0  0  0  0  0  0  0  0
   -3.7674    0.9544   17.8069 C   0  0  0  0  0  0  0  0  0  0  0  0
   -4.7465    1.3513   16.7003 C   0  0  0  0  0  0  0  0  0  0  0  0
   -4.2678    2.5590   15.8908 C   0  0  0  0  0  0  0  0  0  0  0  0
   -2.9917    3.1293   16.3532 N   0  0  0  0  0  0  0  0  0  0  0  0
   -1.9101    2.1496   16.4819 C   0  0  0  0  0  0  0  0  0  0  0  0
   -2.3112    0.9306   17.3139 C   0  0  0  0  0  0  0  0  0  0  0  0
   -3.1448    3.5590   17.2655 H   0  0  0  0  0  0  0  0  0  0  0  0
  3  4  1  0  0  0
  4  5  2  0  0  0
  4  8  1  0  0  0
  5  6  1  0  0  0
  5  1  1  0  0  0
  6  7  2  0  0  0
  7  8  1  0  0  0
  8 11  1  0  0  0
 11 12  1  0  0  0
 11 17  2  0  0  0
 12 13  2  0  0  0
 13 14  1  0  0  0
 14 15  1  0  0  0
 14 16  2  0  0  0
 16 17  1  0  0  0
  1  2  2  0  0  0
  1 18  1  0  0  0
 18 19  1  0  0  0
 18 23  2  0  0  0
 19 20  2  0  0  0
 20 21  1  0  0  0
 21 22  2  0  0  0
 22 24  1  0  0  0
 22 23  1  0  0  0
 24 25  1  0  0  0
 25 26  1  0  0  0
 25 30  1  0  0  0
 26 27  1  0  0  0
 27 28  1  0  0  0
 28 29  1  0  0  0
 29 30  1  0  0  0
  3  9  1  0  0  0
  3 10  1  0  0  0
 28 31  1  0  0  0
M  END
> <minimizedAffinity>
-8.23360

$$$$
2BAL_PQA_A_401


 31 34  0  0  0  0  0  0  0  0999 V2000
   -0.9793   -0.7505   23.6721 C   0  0  0  0  0  0  0  0  0  0  0  0
    0.2509   -0.7383   23.6130 O   0  0  0  0  0  0  0  0  0  0  0  0
   -2.0993    1.3927   21.8454 N   0  0  0  0  0  0  0  0  0  0  0  0
   -2.2414    0.0555   21.6779 C   0  0  0  0  0  0  0  0  0  0  0  0
   -1.7644   -0.9693   22.4746 C   0  0  0  0  0  0  0  0  0  0  0  0
   -2.2123   -2.1431   21.8369 C   0  0  0  0  0  0  0  0  0  0  0  0
   -2.9111   -1.8970   20.7290 N   0  0  0  0  0  0  0  0  0  0  0  0
   -2.9474   -0.5355   20.6347 N   0  0  0  0  0  0  0  0  0  0  0  0
   -1.5846    1.7413   22.6088 H   0  0  0  0  0  0  0  0  0  0  0  0
   -2.5108    2.0157   21.2036 H   0  0  0  0  0  0  0  0  0  0  0  0
   -3.5586    0.1021   19.5319 C   0  0  0  0  0  0  0  0  0  0  0  0
   -4.8029    0.7337   19.5238 C   0  0  0  0  0  0  0  0  0  0  0  0
   -5.2613    1.3165   18.3435 C   0  0  0  0  0  0  0  0  0  0  0  0
   -4.4880    1.2804   17.1903 C   0  0  0  0  0  0  0  0  0  0  0  0
   -4.9496    1.8401   16.0645 F   0  0  0  0  0  0  0  0  0  0  0  0
   -3.2407    0.6707   17.1850 C   0  0  0  0  0  0  0  0  0  0  0  0
   -2.7778    0.0783   18.3551 C   0  0  0  0  0  0  0  0  0  0  0  0
   -1.6342   -0.5695   24.9897 C   0  0  0  0  0  0  0  0  0  0  0  0
   -2.0932    0.6916   25.4090 C   0  0  0  0  0  0  0  0  0  0  0  0
   -2.7090    0.8238   26.6613 C   0  0  0  0  0  0  0  0  0  0  0  0
   -2.8523   -0.2894   27.4839 C   0  0  0  0  0  0  0  0  0  0  0  0
   -2.3920   -1.5389   27.0725 C   0  0  0  0  0  0  0  0  0  0  0  0
   -1.7765   -1.6908   25.8267 C   0  0  0  0  0  0  0  0  0  0  0  0
   -2.5956   -2.5756   27.9509 O   0  0  0  0  0  0  0  0  0  0  0  0
   -3.8800   -2.5599   28.5893 C   0  0  0  0  0  0  0  0  0  0  0  0
   -4.7805   -3.5660   27.8700 C   0  0  0  0  0  0  0  0  0  0  0  0
   -4.4350   -5.0183   28.2084 C   0  0  0  0  0  0  0  0  0  0  0  0
   -3.2872   -5.1704   29.1178 N   0  0  0  0  0  0  0  0  0  0  0  0
   -3.3877   -4.3781   30.3460 C   0  0  0  0  0  0  0  0  0  0  0  0
   -3.6952   -2.9043   30.0763 C   0  0  0  0  0  0  0  0  0  0  0  0
   -2.4442   -4.8842   28.6201 H   0  0  0  0  0  0  0  0  0  0  0  0
  3  4  1  0  0  0
  4  5  2  0  0  0
  4  8  1  0  0  0
  5  6  1  0  0  0
  5  1  1  0  0  0
  6  7  2  0  0  0
  7  8  1  0  0  0
  8 11  1  0  0  0
 11 12  1  0  0  0
 11 17  2  0  0  0
 12 13  2  0  0  0
 13 14  1  0  0  0
 14 15  1  0  0  0
 14 16  2  0  0  0
 16 17  1  0  0  0
  1  2  2  0  0  0
  1 18  1  0  0  0
 18 19  1  0  0  0
 18 23  2  0  0  0
 19 20  2  0  0  0
 20 21  1  0  0  0
 21 22  2  0  0  0
 22 24  1  0  0  0
 22 23  1  0  0  0
 24 25  1  0  0  0
 25 26  1  0  0  0
 25 30  1  0  0  0
 26 27  1  0  0  0
 27 28  1  0  0  0
 28 29  1  0  0  0
 29 30  1  0  0  0
  3  9  1  0  0  0
  3 10  1  0  0  0
 28 31  1  0  0  0
M  END
> <minimizedAffinity>
-8.14523

$$$$
