5HI7_62X_A_507


 39 41  0  0  0  0  0  0  0  0999 V2000
   15.6735  -14.3330  -21.4617 C   0  0  0  0  0  0  0  0  0  0  0  0
   14.1603  -14.3894  -21.2788 C   0  0  0  0  0  0  0  0  0  0  0  0
   13.5913  -14.4423  -22.5782 O   0  0  0  0  0  0  0  0  0  0  0  0
   14.5730  -14.8226  -23.5278 C   0  0  0  0  0  0  0  0  0  0  0  0
   15.8459  -15.1478  -22.7440 C   0  0  0  0  0  0  0  0  0  0  0  0
   15.8825  -16.5181  -22.4496 O   0  0  0  0  0  0  0  0  0  0  0  0
   16.3333  -14.9313  -20.3692 O   0  0  0  0  0  0  0  0  0  0  0  0
   15.0775  -16.7672  -21.9691 H   0  0  0  0  0  0  0  0  0  0  0  0
   16.0116  -15.8393  -20.2551 H   0  0  0  0  0  0  0  0  0  0  0  0
   14.6445  -12.3775  -24.1295 C   0  0  0  0  0  0  0  0  0  0  0  0
   15.2910  -12.4333  -26.1652 C   0  0  0  0  0  0  0  0  0  0  0  0
   14.8018  -13.7085  -24.4165 N   0  0  0  0  0  0  0  0  0  0  0  0
   14.9295  -11.5668  -25.1584 N   0  0  0  0  0  0  0  0  0  0  0  0
   15.7062  -12.2326  -27.5146 C   0  0  0  0  0  0  0  0  0  0  0  0
   15.8033  -10.9988  -28.0175 N   0  0  0  0  0  0  0  0  0  0  0  0
   15.9977  -13.3237  -28.2618 N   0  0  0  0  0  0  0  0  0  0  0  0
   15.8830  -14.5511  -27.7056 C   0  0  0  0  0  0  0  0  0  0  0  0
   15.5059  -14.8730  -26.4614 N   0  0  0  0  0  0  0  0  0  0  0  0
   15.2188  -13.7544  -25.7295 C   0  0  0  0  0  0  0  0  0  0  0  0
   16.0907  -10.8685  -28.9500 H   0  0  0  0  0  0  0  0  0  0  0  0
   15.5873  -10.2198  -27.4555 H   0  0  0  0  0  0  0  0  0  0  0  0
   13.6413  -13.1698  -20.5172 C   0  0  0  0  0  0  0  0  0  0  0  0
   12.8367  -13.4135  -19.2904 N   0  0  0  0  0  0  0  0  0  0  0  0
   12.2234  -12.2158  -18.7498 C   0  0  0  0  0  0  0  0  0  0  0  0
   13.2281  -11.1280  -18.3544 C   0  0  0  0  0  0  0  0  0  0  0  0
   12.7507  -10.1288  -17.3207 C   0  0  0  0  0  0  0  0  0  0  0  0
   14.4153   -8.5119  -17.8192 C   0  0  0  0  0  0  0  0  0  0  0  0
   12.9905   -8.7210  -17.5419 N   0  0  0  0  0  0  0  0  0  0  0  0
   12.1931   -8.2373  -18.6835 C   0  0  0  0  0  0  0  0  0  0  0  0
   11.9256  -14.5737  -19.4299 C   0  0  0  0  0  0  0  0  0  0  0  0
   10.5419  -14.3328  -19.9880 C   0  0  0  0  0  0  0  0  0  0  0  0
   10.3973  -14.4086  -21.5157 C   0  0  0  0  0  0  0  0  0  0  0  0
    9.6243  -13.3118  -21.9745 N   0  0  0  0  0  0  0  0  0  0  0  0
    8.6954  -13.3514  -21.5550 H   0  0  0  0  0  0  0  0  0  0  0  0
    9.5409  -13.3559  -22.9901 H   0  0  0  0  0  0  0  0  0  0  0  0
    9.7201  -15.7220  -21.9333 C   0  0  0  0  0  0  0  0  0  0  0  0
    8.8645  -16.2525  -21.1729 O   0  0  0  0  0  0  0  0  0  0  0  0
   10.0066  -16.2730  -23.0393 O   0  0  0  0  0  0  0  0  0  0  0  0
   10.6415  -15.8822  -23.6068 H   0  0  0  0  0  0  0  0  0  0  0  0
 16 17  2  0  0  0
 16 14  1  0  0  0
 15 14  1  0  0  0
 17 18  1  0  0  0
 14 11  2  0  0  0
 18 19  2  0  0  0
 11 19  1  0  0  0
 11 13  1  0  0  0
 19 12  1  0  0  0
 13 10  2  0  0  0
 12 10  1  0  0  0
 12  4  1  0  0  0
  4  5  1  0  0  0
  4  3  1  0  0  0
 33 32  1  0  0  0
  5  6  1  0  0  0
  5  1  1  0  0  0
  3  2  1  0  0  0
 37 36  2  0  0  0
 32 31  1  0  0  0
 32 36  1  0  0  0
  1  2  1  0  0  0
  1  7  1  0  0  0
  2 22  1  0  0  0
 31 30  1  0  0  0
 36 38  1  0  0  0
 30 23  1  0  0  0
 22 23  1  0  0  0
 23 24  1  0  0  0
 24 25  1  0  0  0
 25 26  1  0  0  0
 29 28  1  0  0  0
 26 28  1  0  0  0
 28 27  1  0  0  0
 33 34  1  0  0  0
 33 35  1  0  0  0
 38 39  1  0  0  0
  6  8  1  0  0  0
  7  9  1  0  0  0
 15 20  1  0  0  0
 15 21  1  0  0  0
M  END
> <minimizedAffinity>
-10.47762

$$$$
5HI7_62X_A_507


 39 41  0  0  0  0  0  0  0  0999 V2000
   15.6963  -14.2737  -21.5686 C   0  0  0  0  0  0  0  0  0  0  0  0
   14.1847  -14.2643  -21.3651 C   0  0  0  0  0  0  0  0  0  0  0  0
   13.5962  -14.3225  -22.6556 O   0  0  0  0  0  0  0  0  0  0  0  0
   14.5486  -14.7633  -23.6090 C   0  0  0  0  0  0  0  0  0  0  0  0
   15.8180  -15.1229  -22.8344 C   0  0  0  0  0  0  0  0  0  0  0  0
   15.8030  -16.4867  -22.5097 O   0  0  0  0  0  0  0  0  0  0  0  0
   16.3462  -14.8744  -20.4715 O   0  0  0  0  0  0  0  0  0  0  0  0
   14.9953  -16.6922  -22.0135 H   0  0  0  0  0  0  0  0  0  0  0  0
   15.9896  -15.7657  -20.3328 H   0  0  0  0  0  0  0  0  0  0  0  0
   14.6609  -12.3386  -24.2826 C   0  0  0  0  0  0  0  0  0  0  0  0
   15.3536  -12.4631  -26.2999 C   0  0  0  0  0  0  0  0  0  0  0  0
   14.8102  -13.6793  -24.5254 N   0  0  0  0  0  0  0  0  0  0  0  0
   14.9785  -11.5627  -25.3285 N   0  0  0  0  0  0  0  0  0  0  0  0
   15.8022  -12.3080  -27.6446 C   0  0  0  0  0  0  0  0  0  0  0  0
   15.9243  -11.0911  -28.1822 N   0  0  0  0  0  0  0  0  0  0  0  0
   16.0988  -13.4243  -28.3514 N   0  0  0  0  0  0  0  0  0  0  0  0
   15.9578  -14.6330  -27.7612 C   0  0  0  0  0  0  0  0  0  0  0  0
   15.5485  -14.9128  -26.5170 N   0  0  0  0  0  0  0  0  0  0  0  0
   15.2569  -13.7695  -25.8262 C   0  0  0  0  0  0  0  0  0  0  0  0
   16.2347  -10.9923  -29.1113 H   0  0  0  0  0  0  0  0  0  0  0  0
   15.7041  -10.2932  -27.6493 H   0  0  0  0  0  0  0  0  0  0  0  0
   13.7261  -13.0081  -20.6246 C   0  0  0  0  0  0  0  0  0  0  0  0
   12.4993  -13.1086  -19.7898 N   0  0  0  0  0  0  0  0  0  0  0  0
   11.9502  -14.4490  -19.7221 C   0  0  0  0  0  0  0  0  0  0  0  0
   10.5108  -14.5571  -20.2374 C   0  0  0  0  0  0  0  0  0  0  0  0
   10.3536  -14.7226  -21.7350 C   0  0  0  0  0  0  0  0  0  0  0  0
   11.2556  -16.7780  -22.5068 C   0  0  0  0  0  0  0  0  0  0  0  0
   10.0206  -16.0246  -22.2663 N   0  0  0  0  0  0  0  0  0  0  0  0
    9.1720  -16.7656  -21.3156 C   0  0  0  0  0  0  0  0  0  0  0  0
   12.6444  -12.4259  -18.4826 C   0  0  0  0  0  0  0  0  0  0  0  0
   13.4670  -11.1594  -18.4253 C   0  0  0  0  0  0  0  0  0  0  0  0
   12.6921   -9.8485  -18.2209 C   0  0  0  0  0  0  0  0  0  0  0  0
   11.8228   -9.6345  -19.3207 N   0  0  0  0  0  0  0  0  0  0  0  0
   12.3708   -9.5610  -20.1779 H   0  0  0  0  0  0  0  0  0  0  0  0
   11.2990   -8.7712  -19.1770 H   0  0  0  0  0  0  0  0  0  0  0  0
   13.6568   -8.6608  -18.0926 C   0  0  0  0  0  0  0  0  0  0  0  0
   13.2132   -7.4834  -18.1861 O   0  0  0  0  0  0  0  0  0  0  0  0
   14.8931   -8.8526  -17.8845 O   0  0  0  0  0  0  0  0  0  0  0  0
   15.2265   -9.7255  -17.8144 H   0  0  0  0  0  0  0  0  0  0  0  0
 16 17  2  0  0  0
 16 14  1  0  0  0
 15 14  1  0  0  0
 17 18  1  0  0  0
 14 11  2  0  0  0
 18 19  2  0  0  0
 11 19  1  0  0  0
 11 13  1  0  0  0
 19 12  1  0  0  0
 13 10  2  0  0  0
 12 10  1  0  0  0
 12  4  1  0  0  0
  4  5  1  0  0  0
  4  3  1  0  0  0
 33 32  1  0  0  0
  5  6  1  0  0  0
  5  1  1  0  0  0
  3  2  1  0  0  0
 37 36  2  0  0  0
 32 31  1  0  0  0
 32 36  1  0  0  0
  1  2  1  0  0  0
  1  7  1  0  0  0
  2 22  1  0  0  0
 31 30  1  0  0  0
 36 38  1  0  0  0
 30 23  1  0  0  0
 22 23  1  0  0  0
 23 24  1  0  0  0
 24 25  1  0  0  0
 25 26  1  0  0  0
 29 28  1  0  0  0
 26 28  1  0  0  0
 28 27  1  0  0  0
 33 34  1  0  0  0
 33 35  1  0  0  0
 38 39  1  0  0  0
  6  8  1  0  0  0
  7  9  1  0  0  0
 15 20  1  0  0  0
 15 21  1  0  0  0
M  END
> <minimizedAffinity>
-10.17086

$$$$
5HI7_62X_A_507


 39 41  0  0  0  0  0  0  0  0999 V2000
   16.3611  -16.6581  -23.6867 C   0  0  0  0  0  0  0  0  0  0  0  0
   15.0199  -16.2098  -23.1153 C   0  0  0  0  0  0  0  0  0  0  0  0
   14.1962  -15.8689  -24.2201 O   0  0  0  0  0  0  0  0  0  0  0  0
   14.7235  -16.4231  -25.4138 C   0  0  0  0  0  0  0  0  0  0  0  0
   15.9228  -17.2835  -25.0115 C   0  0  0  0  0  0  0  0  0  0  0  0
   15.5087  -18.6080  -24.8119 O   0  0  0  0  0  0  0  0  0  0  0  0
   16.9760  -17.6030  -22.8406 O   0  0  0  0  0  0  0  0  0  0  0  0
   14.7992  -18.6287  -24.1507 H   0  0  0  0  0  0  0  0  0  0  0  0
   16.3722  -18.3481  -22.6952 H   0  0  0  0  0  0  0  0  0  0  0  0
   15.7283  -15.4451  -27.5065 C   0  0  0  0  0  0  0  0  0  0  0  0
   15.5964  -13.3459  -27.1309 C   0  0  0  0  0  0  0  0  0  0  0  0
   15.1469  -15.3407  -26.2696 N   0  0  0  0  0  0  0  0  0  0  0  0
   16.0182  -14.2626  -28.0673 N   0  0  0  0  0  0  0  0  0  0  0  0
   15.6113  -11.9204  -27.0942 C   0  0  0  0  0  0  0  0  0  0  0  0
   16.1096  -11.2213  -28.1177 N   0  0  0  0  0  0  0  0  0  0  0  0
   15.1069  -11.3048  -25.9986 N   0  0  0  0  0  0  0  0  0  0  0  0
   14.6146  -12.0583  -24.9892 C   0  0  0  0  0  0  0  0  0  0  0  0
   14.5436  -13.3928  -24.9003 N   0  0  0  0  0  0  0  0  0  0  0  0
   15.0580  -13.9884  -26.0183 C   0  0  0  0  0  0  0  0  0  0  0  0
   16.1163  -10.2373  -28.0848 H   0  0  0  0  0  0  0  0  0  0  0  0
   16.4702  -11.6899  -28.9048 H   0  0  0  0  0  0  0  0  0  0  0  0
   15.1810  -15.0123  -22.1791 C   0  0  0  0  0  0  0  0  0  0  0  0
   13.9504  -14.2793  -21.7784 N   0  0  0  0  0  0  0  0  0  0  0  0
   12.9060  -15.1388  -21.2557 C   0  0  0  0  0  0  0  0  0  0  0  0
   11.6205  -15.1319  -22.0905 C   0  0  0  0  0  0  0  0  0  0  0  0
   10.9230  -16.4678  -22.2444 C   0  0  0  0  0  0  0  0  0  0  0  0
    9.1290  -17.8519  -21.5375 C   0  0  0  0  0  0  0  0  0  0  0  0
    9.4897  -16.5352  -22.0732 N   0  0  0  0  0  0  0  0  0  0  0  0
    9.0335  -15.4863  -21.1432 C   0  0  0  0  0  0  0  0  0  0  0  0
   14.2447  -13.0824  -20.9559 C   0  0  0  0  0  0  0  0  0  0  0  0
   13.7611  -13.0625  -19.5242 C   0  0  0  0  0  0  0  0  0  0  0  0
   12.4371  -12.3295  -19.2591 C   0  0  0  0  0  0  0  0  0  0  0  0
   11.8848  -11.8874  -20.4881 N   0  0  0  0  0  0  0  0  0  0  0  0
   12.5325  -11.2413  -20.9390 H   0  0  0  0  0  0  0  0  0  0  0  0
   10.9990  -11.4133  -20.3118 H   0  0  0  0  0  0  0  0  0  0  0  0
   12.6586  -11.1237  -18.3346 C   0  0  0  0  0  0  0  0  0  0  0  0
   13.1134  -10.0474  -18.8106 O   0  0  0  0  0  0  0  0  0  0  0  0
   12.3802  -11.1972  -17.0993 O   0  0  0  0  0  0  0  0  0  0  0  0
   12.0423  -11.9947  -16.7419 H   0  0  0  0  0  0  0  0  0  0  0  0
 16 17  2  0  0  0
 16 14  1  0  0  0
 15 14  1  0  0  0
 17 18  1  0  0  0
 14 11  2  0  0  0
 18 19  2  0  0  0
 11 19  1  0  0  0
 11 13  1  0  0  0
 19 12  1  0  0  0
 13 10  2  0  0  0
 12 10  1  0  0  0
 12  4  1  0  0  0
  4  5  1  0  0  0
  4  3  1  0  0  0
 33 32  1  0  0  0
  5  6  1  0  0  0
  5  1  1  0  0  0
  3  2  1  0  0  0
 37 36  2  0  0  0
 32 31  1  0  0  0
 32 36  1  0  0  0
  1  2  1  0  0  0
  1  7  1  0  0  0
  2 22  1  0  0  0
 31 30  1  0  0  0
 36 38  1  0  0  0
 30 23  1  0  0  0
 22 23  1  0  0  0
 23 24  1  0  0  0
 24 25  1  0  0  0
 25 26  1  0  0  0
 29 28  1  0  0  0
 26 28  1  0  0  0
 28 27  1  0  0  0
 33 34  1  0  0  0
 33 35  1  0  0  0
 38 39  1  0  0  0
  6  8  1  0  0  0
  7  9  1  0  0  0
 15 20  1  0  0  0
 15 21  1  0  0  0
M  END
> <minimizedAffinity>
-9.30055

$$$$
5HI7_62X_A_507


 39 41  0  0  0  0  0  0  0  0999 V2000
   14.2443  -18.1852  -25.1351 C   0  0  0  0  0  0  0  0  0  0  0  0
   15.3638  -17.1946  -25.4387 C   0  0  0  0  0  0  0  0  0  0  0  0
   15.6093  -16.4727  -24.2414 O   0  0  0  0  0  0  0  0  0  0  0  0
   15.0562  -17.1610  -23.1321 C   0  0  0  0  0  0  0  0  0  0  0  0
   14.5121  -18.4896  -23.6607 C   0  0  0  0  0  0  0  0  0  0  0  0
   15.4929  -19.4840  -23.5387 O   0  0  0  0  0  0  0  0  0  0  0  0
   14.3637  -19.3381  -25.9371 O   0  0  0  0  0  0  0  0  0  0  0  0
   16.2978  -19.2028  -24.0012 H   0  0  0  0  0  0  0  0  0  0  0  0
   15.2427  -19.7290  -25.8126 H   0  0  0  0  0  0  0  0  0  0  0  0
   12.6444  -16.6448  -22.6199 C   0  0  0  0  0  0  0  0  0  0  0  0
   12.7910  -14.7715  -21.6027 C   0  0  0  0  0  0  0  0  0  0  0  0
   13.9850  -16.3609  -22.5883 N   0  0  0  0  0  0  0  0  0  0  0  0
   11.8817  -15.7106  -22.0346 N   0  0  0  0  0  0  0  0  0  0  0  0
   12.6508  -13.5332  -20.9097 C   0  0  0  0  0  0  0  0  0  0  0  0
   11.4424  -13.0890  -20.5532 N   0  0  0  0  0  0  0  0  0  0  0  0
   13.7727  -12.8298  -20.6262 N   0  0  0  0  0  0  0  0  0  0  0  0
   14.9723  -13.3229  -21.0095 C   0  0  0  0  0  0  0  0  0  0  0  0
   15.2378  -14.4626  -21.6610 N   0  0  0  0  0  0  0  0  0  0  0  0
   14.0894  -15.1525  -21.9336 C   0  0  0  0  0  0  0  0  0  0  0  0
   11.3539  -12.2330  -20.0750 H   0  0  0  0  0  0  0  0  0  0  0  0
   10.6403  -13.6176  -20.7687 H   0  0  0  0  0  0  0  0  0  0  0  0
   14.9773  -16.2403  -26.5686 C   0  0  0  0  0  0  0  0  0  0  0  0
   16.0762  -15.6422  -27.3727 N   0  0  0  0  0  0  0  0  0  0  0  0
   16.7768  -16.6016  -28.2043 C   0  0  0  0  0  0  0  0  0  0  0  0
   18.0176  -16.0310  -28.9000 C   0  0  0  0  0  0  0  0  0  0  0  0
   17.9606  -15.9710  -30.4127 C   0  0  0  0  0  0  0  0  0  0  0  0
   16.2398  -15.1073  -31.8007 C   0  0  0  0  0  0  0  0  0  0  0  0
   16.7206  -16.2917  -31.0818 N   0  0  0  0  0  0  0  0  0  0  0  0
   16.9231  -17.3960  -32.0371 C   0  0  0  0  0  0  0  0  0  0  0  0
   15.6616  -14.3997  -28.0656 C   0  0  0  0  0  0  0  0  0  0  0  0
   15.9398  -13.0772  -27.3889 C   0  0  0  0  0  0  0  0  0  0  0  0
   14.7640  -12.4306  -26.6405 C   0  0  0  0  0  0  0  0  0  0  0  0
   14.6920  -11.0531  -26.9691 N   0  0  0  0  0  0  0  0  0  0  0  0
   15.5554  -10.5902  -26.6852 H   0  0  0  0  0  0  0  0  0  0  0  0
   13.9026  -10.6283  -26.4824 H   0  0  0  0  0  0  0  0  0  0  0  0
   14.9341  -12.5863  -25.1224 C   0  0  0  0  0  0  0  0  0  0  0  0
   14.6088  -11.6373  -24.3573 O   0  0  0  0  0  0  0  0  0  0  0  0
   15.3899  -13.6629  -24.6307 O   0  0  0  0  0  0  0  0  0  0  0  0
   15.6327  -14.3700  -25.1955 H   0  0  0  0  0  0  0  0  0  0  0  0
 16 17  2  0  0  0
 16 14  1  0  0  0
 15 14  1  0  0  0
 17 18  1  0  0  0
 14 11  2  0  0  0
 18 19  2  0  0  0
 11 19  1  0  0  0
 11 13  1  0  0  0
 19 12  1  0  0  0
 13 10  2  0  0  0
 12 10  1  0  0  0
 12  4  1  0  0  0
  4  5  1  0  0  0
  4  3  1  0  0  0
 33 32  1  0  0  0
  5  6  1  0  0  0
  5  1  1  0  0  0
  3  2  1  0  0  0
 37 36  2  0  0  0
 32 31  1  0  0  0
 32 36  1  0  0  0
  1  2  1  0  0  0
  1  7  1  0  0  0
  2 22  1  0  0  0
 31 30  1  0  0  0
 36 38  1  0  0  0
 30 23  1  0  0  0
 22 23  1  0  0  0
 23 24  1  0  0  0
 24 25  1  0  0  0
 25 26  1  0  0  0
 29 28  1  0  0  0
 26 28  1  0  0  0
 28 27  1  0  0  0
 33 34  1  0  0  0
 33 35  1  0  0  0
 38 39  1  0  0  0
  6  8  1  0  0  0
  7  9  1  0  0  0
 15 20  1  0  0  0
 15 21  1  0  0  0
M  END
> <minimizedAffinity>
-9.10851

$$$$
5HI7_62X_A_507


 39 41  0  0  0  0  0  0  0  0999 V2000
   16.2337  -17.0147  -23.8448 C   0  0  0  0  0  0  0  0  0  0  0  0
   14.7578  -17.3718  -23.7008 C   0  0  0  0  0  0  0  0  0  0  0  0
   14.0911  -16.8248  -24.8284 O   0  0  0  0  0  0  0  0  0  0  0  0
   15.0263  -16.5149  -25.8479 C   0  0  0  0  0  0  0  0  0  0  0  0
   16.3898  -17.0143  -25.3659 C   0  0  0  0  0  0  0  0  0  0  0  0
   16.6081  -18.3177  -25.8339 O   0  0  0  0  0  0  0  0  0  0  0  0
   17.0476  -17.9913  -23.2360 O   0  0  0  0  0  0  0  0  0  0  0  0
   15.8805  -18.8908  -25.5459 H   0  0  0  0  0  0  0  0  0  0  0  0
   16.8431  -18.8622  -23.6109 H   0  0  0  0  0  0  0  0  0  0  0  0
   14.5724  -14.1361  -25.1544 C   0  0  0  0  0  0  0  0  0  0  0  0
   15.3451  -13.0289  -26.8103 C   0  0  0  0  0  0  0  0  0  0  0  0
   15.0500  -15.0825  -26.0234 N   0  0  0  0  0  0  0  0  0  0  0  0
   14.7295  -12.8776  -25.5883 N   0  0  0  0  0  0  0  0  0  0  0  0
   15.7897  -12.0972  -27.7940 C   0  0  0  0  0  0  0  0  0  0  0  0
   15.6327  -10.7842  -27.6039 N   0  0  0  0  0  0  0  0  0  0  0  0
   16.3722  -12.5827  -28.9160 N   0  0  0  0  0  0  0  0  0  0  0  0
   16.5070  -13.9206  -29.0605 C   0  0  0  0  0  0  0  0  0  0  0  0
   16.1342  -14.8939  -28.2193 N   0  0  0  0  0  0  0  0  0  0  0  0
   15.5506  -14.3767  -27.0963 C   0  0  0  0  0  0  0  0  0  0  0  0
   15.9424  -10.1473  -28.2878 H   0  0  0  0  0  0  0  0  0  0  0  0
   15.2074  -10.4536  -26.7799 H   0  0  0  0  0  0  0  0  0  0  0  0
   14.1684  -16.8105  -22.4070 C   0  0  0  0  0  0  0  0  0  0  0  0
   13.6112  -15.4319  -22.4438 N   0  0  0  0  0  0  0  0  0  0  0  0
   12.2003  -15.3838  -22.7751 C   0  0  0  0  0  0  0  0  0  0  0  0
   11.3521  -16.4214  -22.0316 C   0  0  0  0  0  0  0  0  0  0  0  0
    9.9281  -16.0112  -21.7171 C   0  0  0  0  0  0  0  0  0  0  0  0
    8.3612  -14.3329  -21.1155 C   0  0  0  0  0  0  0  0  0  0  0  0
    9.6992  -14.8741  -20.8553 N   0  0  0  0  0  0  0  0  0  0  0  0
    9.7991  -15.2739  -19.4399 C   0  0  0  0  0  0  0  0  0  0  0  0
   14.0034  -14.6291  -21.2617 C   0  0  0  0  0  0  0  0  0  0  0  0
   13.6226  -13.1668  -21.2327 C   0  0  0  0  0  0  0  0  0  0  0  0
   12.2835  -12.8214  -20.5632 C   0  0  0  0  0  0  0  0  0  0  0  0
   11.4254  -12.2041  -21.5084 N   0  0  0  0  0  0  0  0  0  0  0  0
   11.8549  -11.3427  -21.8458 H   0  0  0  0  0  0  0  0  0  0  0  0
   10.5320  -11.9880  -21.0663 H   0  0  0  0  0  0  0  0  0  0  0  0
   12.4986  -11.8752  -19.3731 C   0  0  0  0  0  0  0  0  0  0  0  0
   13.0348  -12.3116  -18.3177 O   0  0  0  0  0  0  0  0  0  0  0  0
   12.1505  -10.6577  -19.4449 O   0  0  0  0  0  0  0  0  0  0  0  0
   11.7519  -10.3297  -20.2269 H   0  0  0  0  0  0  0  0  0  0  0  0
 16 17  2  0  0  0
 16 14  1  0  0  0
 15 14  1  0  0  0
 17 18  1  0  0  0
 14 11  2  0  0  0
 18 19  2  0  0  0
 11 19  1  0  0  0
 11 13  1  0  0  0
 19 12  1  0  0  0
 13 10  2  0  0  0
 12 10  1  0  0  0
 12  4  1  0  0  0
  4  5  1  0  0  0
  4  3  1  0  0  0
 33 32  1  0  0  0
  5  6  1  0  0  0
  5  1  1  0  0  0
  3  2  1  0  0  0
 37 36  2  0  0  0
 32 31  1  0  0  0
 32 36  1  0  0  0
  1  2  1  0  0  0
  1  7  1  0  0  0
  2 22  1  0  0  0
 31 30  1  0  0  0
 36 38  1  0  0  0
 30 23  1  0  0  0
 22 23  1  0  0  0
 23 24  1  0  0  0
 24 25  1  0  0  0
 25 26  1  0  0  0
 29 28  1  0  0  0
 26 28  1  0  0  0
 28 27  1  0  0  0
 33 34  1  0  0  0
 33 35  1  0  0  0
 38 39  1  0  0  0
  6  8  1  0  0  0
  7  9  1  0  0  0
 15 20  1  0  0  0
 15 21  1  0  0  0
M  END
> <minimizedAffinity>
-8.94737

$$$$
5HI7_62X_A_507


 39 41  0  0  0  0  0  0  0  0999 V2000
   16.0468  -16.1759  -23.4474 C   0  0  0  0  0  0  0  0  0  0  0  0
   14.6648  -15.6143  -23.1291 C   0  0  0  0  0  0  0  0  0  0  0  0
   13.9834  -15.4747  -24.3665 O   0  0  0  0  0  0  0  0  0  0  0  0
   14.6241  -16.2465  -25.3685 C   0  0  0  0  0  0  0  0  0  0  0  0
   15.7412  -17.0309  -24.6777 C   0  0  0  0  0  0  0  0  0  0  0  0
   15.2639  -18.2907  -24.2895 O   0  0  0  0  0  0  0  0  0  0  0  0
   16.5305  -16.9545  -22.3766 O   0  0  0  0  0  0  0  0  0  0  0  0
   14.4837  -18.1805  -23.7237 H   0  0  0  0  0  0  0  0  0  0  0  0
   15.8899  -17.6528  -22.1694 H   0  0  0  0  0  0  0  0  0  0  0  0
   15.8747  -15.6855  -27.4820 C   0  0  0  0  0  0  0  0  0  0  0  0
   15.7955  -13.5504  -27.4990 C   0  0  0  0  0  0  0  0  0  0  0  0
   15.1771  -15.3463  -26.3519 N   0  0  0  0  0  0  0  0  0  0  0  0
   16.2696  -14.6305  -28.2086 N   0  0  0  0  0  0  0  0  0  0  0  0
   15.8674  -12.1424  -27.7131 C   0  0  0  0  0  0  0  0  0  0  0  0
   16.4953  -11.6510  -28.7849 N   0  0  0  0  0  0  0  0  0  0  0  0
   15.2824  -11.3277  -26.8032 N   0  0  0  0  0  0  0  0  0  0  0  0
   14.6596  -11.8752  -25.7349 C   0  0  0  0  0  0  0  0  0  0  0  0
   14.5231  -13.1698  -25.4200 N   0  0  0  0  0  0  0  0  0  0  0  0
   15.1212  -13.9691  -26.3542 C   0  0  0  0  0  0  0  0  0  0  0  0
   16.5407  -10.6777  -28.9257 H   0  0  0  0  0  0  0  0  0  0  0  0
   16.9127  -12.2623  -29.4341 H   0  0  0  0  0  0  0  0  0  0  0  0
   14.7580  -14.2659  -22.4151 C   0  0  0  0  0  0  0  0  0  0  0  0
   13.8964  -14.0565  -21.2210 N   0  0  0  0  0  0  0  0  0  0  0  0
   14.3371  -12.9686  -20.3696 C   0  0  0  0  0  0  0  0  0  0  0  0
   13.2458  -12.4263  -19.4401 C   0  0  0  0  0  0  0  0  0  0  0  0
   13.6954  -11.4065  -18.4141 C   0  0  0  0  0  0  0  0  0  0  0  0
   12.1101   -9.6427  -18.3153 C   0  0  0  0  0  0  0  0  0  0  0  0
   13.4841  -10.0020  -18.6810 N   0  0  0  0  0  0  0  0  0  0  0  0
   14.4289   -9.1830  -17.9001 C   0  0  0  0  0  0  0  0  0  0  0  0
   12.4534  -14.0417  -21.5574 C   0  0  0  0  0  0  0  0  0  0  0  0
   11.5767  -15.1359  -20.9933 C   0  0  0  0  0  0  0  0  0  0  0  0
   10.8232  -16.0034  -22.0132 C   0  0  0  0  0  0  0  0  0  0  0  0
   10.7374  -15.3154  -23.2502 N   0  0  0  0  0  0  0  0  0  0  0  0
   10.2246  -14.4434  -23.1194 H   0  0  0  0  0  0  0  0  0  0  0  0
   10.2492  -15.8982  -23.9302 H   0  0  0  0  0  0  0  0  0  0  0  0
    9.4096  -16.3301  -21.5103 C   0  0  0  0  0  0  0  0  0  0  0  0
    8.8030  -15.5049  -20.7734 O   0  0  0  0  0  0  0  0  0  0  0  0
    8.8433  -17.4172  -21.8363 O   0  0  0  0  0  0  0  0  0  0  0  0
    9.2904  -18.0326  -22.3835 H   0  0  0  0  0  0  0  0  0  0  0  0
 16 17  2  0  0  0
 16 14  1  0  0  0
 15 14  1  0  0  0
 17 18  1  0  0  0
 14 11  2  0  0  0
 18 19  2  0  0  0
 11 19  1  0  0  0
 11 13  1  0  0  0
 19 12  1  0  0  0
 13 10  2  0  0  0
 12 10  1  0  0  0
 12  4  1  0  0  0
  4  5  1  0  0  0
  4  3  1  0  0  0
 33 32  1  0  0  0
  5  6  1  0  0  0
  5  1  1  0  0  0
  3  2  1  0  0  0
 37 36  2  0  0  0
 32 31  1  0  0  0
 32 36  1  0  0  0
  1  2  1  0  0  0
  1  7  1  0  0  0
  2 22  1  0  0  0
 31 30  1  0  0  0
 36 38  1  0  0  0
 30 23  1  0  0  0
 22 23  1  0  0  0
 23 24  1  0  0  0
 24 25  1  0  0  0
 25 26  1  0  0  0
 29 28  1  0  0  0
 26 28  1  0  0  0
 28 27  1  0  0  0
 33 34  1  0  0  0
 33 35  1  0  0  0
 38 39  1  0  0  0
  6  8  1  0  0  0
  7  9  1  0  0  0
 15 20  1  0  0  0
 15 21  1  0  0  0
M  END
> <minimizedAffinity>
-8.82767

$$$$
5HI7_62X_A_507


 39 41  0  0  0  0  0  0  0  0999 V2000
   15.3832  -16.3413  -22.8745 C   0  0  0  0  0  0  0  0  0  0  0  0
   15.4208  -15.2753  -23.9648 C   0  0  0  0  0  0  0  0  0  0  0  0
   14.5048  -14.2616  -23.5798 O   0  0  0  0  0  0  0  0  0  0  0  0
   14.1988  -14.3761  -22.2002 C   0  0  0  0  0  0  0  0  0  0  0  0
   15.0857  -15.4896  -21.6399 C   0  0  0  0  0  0  0  0  0  0  0  0
   16.2702  -14.9391  -21.1304 O   0  0  0  0  0  0  0  0  0  0  0  0
   16.6270  -16.9963  -22.7705 O   0  0  0  0  0  0  0  0  0  0  0  0
   16.7131  -14.4263  -21.8245 H   0  0  0  0  0  0  0  0  0  0  0  0
   17.3258  -16.3410  -22.6184 H   0  0  0  0  0  0  0  0  0  0  0  0
   11.9867  -15.2302  -23.0504 C   0  0  0  0  0  0  0  0  0  0  0  0
   10.7522  -15.0920  -21.3120 C   0  0  0  0  0  0  0  0  0  0  0  0
   12.8057  -14.7313  -22.0711 N   0  0  0  0  0  0  0  0  0  0  0  0
   10.7332  -15.4645  -22.6372 N   0  0  0  0  0  0  0  0  0  0  0  0
    9.7554  -15.0853  -20.2924 C   0  0  0  0  0  0  0  0  0  0  0  0
    8.5140  -15.5030  -20.5554 N   0  0  0  0  0  0  0  0  0  0  0  0
   10.1059  -14.6472  -19.0599 N   0  0  0  0  0  0  0  0  0  0  0  0
   11.3758  -14.2344  -18.8454 C   0  0  0  0  0  0  0  0  0  0  0  0
   12.3975  -14.1902  -19.7103 N   0  0  0  0  0  0  0  0  0  0  0  0
   12.0169  -14.6381  -20.9447 C   0  0  0  0  0  0  0  0  0  0  0  0
    7.8314  -15.4954  -19.8460 H   0  0  0  0  0  0  0  0  0  0  0  0
    8.2818  -15.8185  -21.4586 H   0  0  0  0  0  0  0  0  0  0  0  0
   15.0375  -15.8527  -25.3274 C   0  0  0  0  0  0  0  0  0  0  0  0
   15.7700  -15.3502  -26.5203 N   0  0  0  0  0  0  0  0  0  0  0  0
   15.6667  -16.2209  -27.6753 C   0  0  0  0  0  0  0  0  0  0  0  0
   16.9859  -16.8989  -28.0617 C   0  0  0  0  0  0  0  0  0  0  0  0
   17.6910  -16.3327  -29.2771 C   0  0  0  0  0  0  0  0  0  0  0  0
   17.6827  -15.3579  -31.4412 C   0  0  0  0  0  0  0  0  0  0  0  0
   16.9838  -16.2759  -30.5360 N   0  0  0  0  0  0  0  0  0  0  0  0
   16.9194  -17.6147  -31.1498 C   0  0  0  0  0  0  0  0  0  0  0  0
   15.5004  -13.9185  -26.7909 C   0  0  0  0  0  0  0  0  0  0  0  0
   16.0138  -13.3264  -28.0832 C   0  0  0  0  0  0  0  0  0  0  0  0
   16.3979  -11.8391  -28.0496 C   0  0  0  0  0  0  0  0  0  0  0  0
   15.2331  -11.0520  -27.8638 N   0  0  0  0  0  0  0  0  0  0  0  0
   14.5905  -11.2070  -28.6406 H   0  0  0  0  0  0  0  0  0  0  0  0
   15.4913  -10.0659  -27.8277 H   0  0  0  0  0  0  0  0  0  0  0  0
   17.0909  -11.4268  -29.3563 C   0  0  0  0  0  0  0  0  0  0  0  0
   16.8828  -10.2795  -29.8382 O   0  0  0  0  0  0  0  0  0  0  0  0
   17.8772  -12.2254  -29.9502 O   0  0  0  0  0  0  0  0  0  0  0  0
   18.0345  -13.0784  -29.5955 H   0  0  0  0  0  0  0  0  0  0  0  0
 16 17  2  0  0  0
 16 14  1  0  0  0
 15 14  1  0  0  0
 17 18  1  0  0  0
 14 11  2  0  0  0
 18 19  2  0  0  0
 11 19  1  0  0  0
 11 13  1  0  0  0
 19 12  1  0  0  0
 13 10  2  0  0  0
 12 10  1  0  0  0
 12  4  1  0  0  0
  4  5  1  0  0  0
  4  3  1  0  0  0
 33 32  1  0  0  0
  5  6  1  0  0  0
  5  1  1  0  0  0
  3  2  1  0  0  0
 37 36  2  0  0  0
 32 31  1  0  0  0
 32 36  1  0  0  0
  1  2  1  0  0  0
  1  7  1  0  0  0
  2 22  1  0  0  0
 31 30  1  0  0  0
 36 38  1  0  0  0
 30 23  1  0  0  0
 22 23  1  0  0  0
 23 24  1  0  0  0
 24 25  1  0  0  0
 25 26  1  0  0  0
 29 28  1  0  0  0
 26 28  1  0  0  0
 28 27  1  0  0  0
 33 34  1  0  0  0
 33 35  1  0  0  0
 38 39  1  0  0  0
  6  8  1  0  0  0
  7  9  1  0  0  0
 15 20  1  0  0  0
 15 21  1  0  0  0
M  END
> <minimizedAffinity>
-8.72094

$$$$
5HI7_62X_A_507


 39 41  0  0  0  0  0  0  0  0999 V2000
   13.6294  -18.7734  -25.0825 C   0  0  0  0  0  0  0  0  0  0  0  0
   14.9611  -18.0823  -25.3572 C   0  0  0  0  0  0  0  0  0  0  0  0
   15.2629  -17.3019  -24.2105 O   0  0  0  0  0  0  0  0  0  0  0  0
   14.4835  -17.7311  -23.1067 C   0  0  0  0  0  0  0  0  0  0  0  0
   13.7032  -18.9639  -23.5671 C   0  0  0  0  0  0  0  0  0  0  0  0
   14.4263  -20.1242  -23.2564 O   0  0  0  0  0  0  0  0  0  0  0  0
   13.5549  -20.0064  -25.7615 O   0  0  0  0  0  0  0  0  0  0  0  0
   15.3081  -20.0726  -23.6571 H   0  0  0  0  0  0  0  0  0  0  0  0
   14.3125  -20.5587  -25.5128 H   0  0  0  0  0  0  0  0  0  0  0  0
   12.2058  -16.7089  -22.7703 C   0  0  0  0  0  0  0  0  0  0  0  0
   12.6907  -14.7373  -22.1050 C   0  0  0  0  0  0  0  0  0  0  0  0
   13.5757  -16.6672  -22.7497 N   0  0  0  0  0  0  0  0  0  0  0  0
   11.6258  -15.5627  -22.3874 N   0  0  0  0  0  0  0  0  0  0  0  0
   12.7782  -13.3879  -21.6523 C   0  0  0  0  0  0  0  0  0  0  0  0
   11.6708  -12.6781  -21.4192 N   0  0  0  0  0  0  0  0  0  0  0  0
   14.0094  -12.8554  -21.4667 N   0  0  0  0  0  0  0  0  0  0  0  0
   15.0993  -13.6159  -21.7176 C   0  0  0  0  0  0  0  0  0  0  0  0
   15.1530  -14.8846  -22.1436 N   0  0  0  0  0  0  0  0  0  0  0  0
   13.8982  -15.3973  -22.3217 C   0  0  0  0  0  0  0  0  0  0  0  0
   11.7395  -11.7470  -21.1068 H   0  0  0  0  0  0  0  0  0  0  0  0
   10.7859  -13.0860  -21.5598 H   0  0  0  0  0  0  0  0  0  0  0  0
   14.8881  -17.1977  -26.6017 C   0  0  0  0  0  0  0  0  0  0  0  0
   15.8133  -16.0357  -26.6775 N   0  0  0  0  0  0  0  0  0  0  0  0
   15.9333  -15.4740  -28.0089 C   0  0  0  0  0  0  0  0  0  0  0  0
   17.3687  -15.4504  -28.5459 C   0  0  0  0  0  0  0  0  0  0  0  0
   17.5958  -16.1649  -29.8622 C   0  0  0  0  0  0  0  0  0  0  0  0
   19.0404  -17.5268  -28.5613 C   0  0  0  0  0  0  0  0  0  0  0  0
   18.5333  -17.2636  -29.9120 N   0  0  0  0  0  0  0  0  0  0  0  0
   17.8766  -18.4759  -30.4336 C   0  0  0  0  0  0  0  0  0  0  0  0
   15.5719  -15.0464  -25.6011 C   0  0  0  0  0  0  0  0  0  0  0  0
   14.6210  -13.9051  -25.8796 C   0  0  0  0  0  0  0  0  0  0  0  0
   15.1912  -12.4865  -25.7276 C   0  0  0  0  0  0  0  0  0  0  0  0
   14.4754  -11.7926  -24.7191 N   0  0  0  0  0  0  0  0  0  0  0  0
   13.4931  -11.7242  -24.9853 H   0  0  0  0  0  0  0  0  0  0  0  0
   14.8640  -10.8560  -24.6097 H   0  0  0  0  0  0  0  0  0  0  0  0
   15.0886  -11.7145  -27.0509 C   0  0  0  0  0  0  0  0  0  0  0  0
   15.8476  -12.0190  -28.0117 O   0  0  0  0  0  0  0  0  0  0  0  0
   14.2422  -10.7801  -27.1896 O   0  0  0  0  0  0  0  0  0  0  0  0
   13.6767  -10.5509  -26.4785 H   0  0  0  0  0  0  0  0  0  0  0  0
 16 17  2  0  0  0
 16 14  1  0  0  0
 15 14  1  0  0  0
 17 18  1  0  0  0
 14 11  2  0  0  0
 18 19  2  0  0  0
 11 19  1  0  0  0
 11 13  1  0  0  0
 19 12  1  0  0  0
 13 10  2  0  0  0
 12 10  1  0  0  0
 12  4  1  0  0  0
  4  5  1  0  0  0
  4  3  1  0  0  0
 33 32  1  0  0  0
  5  6  1  0  0  0
  5  1  1  0  0  0
  3  2  1  0  0  0
 37 36  2  0  0  0
 32 31  1  0  0  0
 32 36  1  0  0  0
  1  2  1  0  0  0
  1  7  1  0  0  0
  2 22  1  0  0  0
 31 30  1  0  0  0
 36 38  1  0  0  0
 30 23  1  0  0  0
 22 23  1  0  0  0
 23 24  1  0  0  0
 24 25  1  0  0  0
 25 26  1  0  0  0
 29 28  1  0  0  0
 26 28  1  0  0  0
 28 27  1  0  0  0
 33 34  1  0  0  0
 33 35  1  0  0  0
 38 39  1  0  0  0
  6  8  1  0  0  0
  7  9  1  0  0  0
 15 20  1  0  0  0
 15 21  1  0  0  0
M  END
> <minimizedAffinity>
-8.50666

$$$$
5HI7_62X_A_507


 39 41  0  0  0  0  0  0  0  0999 V2000
   15.4171  -16.5282  -22.7438 C   0  0  0  0  0  0  0  0  0  0  0  0
   15.4275  -15.6202  -23.9693 C   0  0  0  0  0  0  0  0  0  0  0  0
   14.5064  -14.5714  -23.7111 O   0  0  0  0  0  0  0  0  0  0  0  0
   14.2218  -14.4997  -22.3240 C   0  0  0  0  0  0  0  0  0  0  0  0
   15.1286  -15.5191  -21.6318 C   0  0  0  0  0  0  0  0  0  0  0  0
   16.3146  -14.8944  -21.2208 O   0  0  0  0  0  0  0  0  0  0  0  0
   16.6692  -17.1524  -22.5716 O   0  0  0  0  0  0  0  0  0  0  0  0
   16.7418  -14.4770  -21.9850 H   0  0  0  0  0  0  0  0  0  0  0  0
   17.3631  -16.4765  -22.5210 H   0  0  0  0  0  0  0  0  0  0  0  0
   11.9848  -15.4081  -23.0425 C   0  0  0  0  0  0  0  0  0  0  0  0
   10.8083  -15.1565  -21.2768 C   0  0  0  0  0  0  0  0  0  0  0  0
   12.8347  -14.8460  -22.1258 N   0  0  0  0  0  0  0  0  0  0  0  0
   10.7463  -15.6150  -22.5734 N   0  0  0  0  0  0  0  0  0  0  0  0
    9.8458  -15.0833  -20.2272 C   0  0  0  0  0  0  0  0  0  0  0  0
    8.5974  -15.5176  -20.4209 N   0  0  0  0  0  0  0  0  0  0  0  0
   10.2360  -14.5654  -19.0383 N   0  0  0  0  0  0  0  0  0  0  0  0
   11.5114  -14.1392  -18.8937 C   0  0  0  0  0  0  0  0  0  0  0  0
   12.5038  -14.1515  -19.7931 N   0  0  0  0  0  0  0  0  0  0  0  0
   12.0835  -14.6794  -20.9822 C   0  0  0  0  0  0  0  0  0  0  0  0
    7.9387  -15.4636  -19.6912 H   0  0  0  0  0  0  0  0  0  0  0  0
    8.3361  -15.8915  -21.2933 H   0  0  0  0  0  0  0  0  0  0  0  0
   15.0305  -16.3808  -25.2345 C   0  0  0  0  0  0  0  0  0  0  0  0
   15.9407  -16.2914  -26.4074 N   0  0  0  0  0  0  0  0  0  0  0  0
   16.4322  -17.5780  -26.8613 C   0  0  0  0  0  0  0  0  0  0  0  0
   17.4466  -17.4863  -28.0066 C   0  0  0  0  0  0  0  0  0  0  0  0
   17.5007  -18.6773  -28.9411 C   0  0  0  0  0  0  0  0  0  0  0  0
   17.4310  -21.0233  -29.2953 C   0  0  0  0  0  0  0  0  0  0  0  0
   17.9342  -19.9556  -28.4249 N   0  0  0  0  0  0  0  0  0  0  0  0
   19.4062  -20.0170  -28.3751 C   0  0  0  0  0  0  0  0  0  0  0  0
   15.4062  -15.4144  -27.4755 C   0  0  0  0  0  0  0  0  0  0  0  0
   16.0199  -14.0442  -27.6489 C   0  0  0  0  0  0  0  0  0  0  0  0
   15.4658  -12.9274  -26.7509 C   0  0  0  0  0  0  0  0  0  0  0  0
   14.1970  -13.3097  -26.2460 N   0  0  0  0  0  0  0  0  0  0  0  0
   13.5521  -13.4561  -27.0226 H   0  0  0  0  0  0  0  0  0  0  0  0
   13.8367  -12.5734  -25.6390 H   0  0  0  0  0  0  0  0  0  0  0  0
   15.3295  -11.6151  -27.5365 C   0  0  0  0  0  0  0  0  0  0  0  0
   16.1439  -11.3557  -28.4646 O   0  0  0  0  0  0  0  0  0  0  0  0
   14.4008  -10.7944  -27.2668 O   0  0  0  0  0  0  0  0  0  0  0  0
   13.7940  -10.9833  -26.5783 H   0  0  0  0  0  0  0  0  0  0  0  0
 16 17  2  0  0  0
 16 14  1  0  0  0
 15 14  1  0  0  0
 17 18  1  0  0  0
 14 11  2  0  0  0
 18 19  2  0  0  0
 11 19  1  0  0  0
 11 13  1  0  0  0
 19 12  1  0  0  0
 13 10  2  0  0  0
 12 10  1  0  0  0
 12  4  1  0  0  0
  4  5  1  0  0  0
  4  3  1  0  0  0
 33 32  1  0  0  0
  5  6  1  0  0  0
  5  1  1  0  0  0
  3  2  1  0  0  0
 37 36  2  0  0  0
 32 31  1  0  0  0
 32 36  1  0  0  0
  1  2  1  0  0  0
  1  7  1  0  0  0
  2 22  1  0  0  0
 31 30  1  0  0  0
 36 38  1  0  0  0
 30 23  1  0  0  0
 22 23  1  0  0  0
 23 24  1  0  0  0
 24 25  1  0  0  0
 25 26  1  0  0  0
 29 28  1  0  0  0
 26 28  1  0  0  0
 28 27  1  0  0  0
 33 34  1  0  0  0
 33 35  1  0  0  0
 38 39  1  0  0  0
  6  8  1  0  0  0
  7  9  1  0  0  0
 15 20  1  0  0  0
 15 21  1  0  0  0
M  END
> <minimizedAffinity>
-8.50453

$$$$
5HI7_62X_A_507


 39 41  0  0  0  0  0  0  0  0999 V2000
   16.4609  -16.8534  -25.2441 C   0  0  0  0  0  0  0  0  0  0  0  0
   15.1645  -16.1802  -24.8052 C   0  0  0  0  0  0  0  0  0  0  0  0
   14.5436  -15.6798  -25.9796 O   0  0  0  0  0  0  0  0  0  0  0  0
   15.0953  -16.3014  -27.1283 C   0  0  0  0  0  0  0  0  0  0  0  0
   16.0706  -17.3693  -26.6296 C   0  0  0  0  0  0  0  0  0  0  0  0
   15.4089  -18.6007  -26.5226 O   0  0  0  0  0  0  0  0  0  0  0  0
   16.7999  -17.9063  -24.3704 O   0  0  0  0  0  0  0  0  0  0  0  0
   14.6372  -18.5038  -25.9430 H   0  0  0  0  0  0  0  0  0  0  0  0
   16.0613  -18.5329  -24.3174 H   0  0  0  0  0  0  0  0  0  0  0  0
   16.7001  -15.5141  -28.9032 C   0  0  0  0  0  0  0  0  0  0  0  0
   16.5700  -13.3896  -28.7179 C   0  0  0  0  0  0  0  0  0  0  0  0
   15.7970  -15.2996  -27.8947 N   0  0  0  0  0  0  0  0  0  0  0  0
   17.1950  -14.3864  -29.4325 N   0  0  0  0  0  0  0  0  0  0  0  0
   16.6436  -11.9665  -28.7708 C   0  0  0  0  0  0  0  0  0  0  0  0
   17.4459  -11.3616  -29.6512 N   0  0  0  0  0  0  0  0  0  0  0  0
   15.8795  -11.2552  -27.9082 N   0  0  0  0  0  0  0  0  0  0  0  0
   15.0843  -11.9155  -27.0360 C   0  0  0  0  0  0  0  0  0  0  0  0
   14.9257  -13.2369  -26.8852 N   0  0  0  0  0  0  0  0  0  0  0  0
   15.7068  -13.9301  -27.7675 C   0  0  0  0  0  0  0  0  0  0  0  0
   17.4912  -10.3786  -29.6815 H   0  0  0  0  0  0  0  0  0  0  0  0
   17.9919  -11.8988  -30.2697 H   0  0  0  0  0  0  0  0  0  0  0  0
   15.4286  -15.0457  -23.8153 C   0  0  0  0  0  0  0  0  0  0  0  0
   15.5346  -15.3981  -22.3743 N   0  0  0  0  0  0  0  0  0  0  0  0
   15.8811  -14.2749  -21.5250 C   0  0  0  0  0  0  0  0  0  0  0  0
   14.7776  -13.2171  -21.4135 C   0  0  0  0  0  0  0  0  0  0  0  0
   14.3878  -12.8116  -20.0069 C   0  0  0  0  0  0  0  0  0  0  0  0
   12.1779  -13.3912  -19.3632 C   0  0  0  0  0  0  0  0  0  0  0  0
   13.0606  -12.2923  -19.7683 N   0  0  0  0  0  0  0  0  0  0  0  0
   13.0918  -11.2717  -18.7051 C   0  0  0  0  0  0  0  0  0  0  0  0
   14.3873  -16.2082  -21.9018 C   0  0  0  0  0  0  0  0  0  0  0  0
   12.9959  -15.6425  -22.0692 C   0  0  0  0  0  0  0  0  0  0  0  0
   11.8593  -16.6614  -22.2441 C   0  0  0  0  0  0  0  0  0  0  0  0
   12.1567  -17.5227  -23.3306 N   0  0  0  0  0  0  0  0  0  0  0  0
   12.2396  -16.9740  -24.1865 H   0  0  0  0  0  0  0  0  0  0  0  0
   11.4080  -18.2072  -23.4367 H   0  0  0  0  0  0  0  0  0  0  0  0
   10.5251  -15.9481  -22.5070 C   0  0  0  0  0  0  0  0  0  0  0  0
    9.4446  -16.5937  -22.4215 O   0  0  0  0  0  0  0  0  0  0  0  0
   10.4993  -14.7144  -22.8004 O   0  0  0  0  0  0  0  0  0  0  0  0
   11.2996  -14.2313  -22.8649 H   0  0  0  0  0  0  0  0  0  0  0  0
 16 17  2  0  0  0
 16 14  1  0  0  0
 15 14  1  0  0  0
 17 18  1  0  0  0
 14 11  2  0  0  0
 18 19  2  0  0  0
 11 19  1  0  0  0
 11 13  1  0  0  0
 19 12  1  0  0  0
 13 10  2  0  0  0
 12 10  1  0  0  0
 12  4  1  0  0  0
  4  5  1  0  0  0
  4  3  1  0  0  0
 33 32  1  0  0  0
  5  6  1  0  0  0
  5  1  1  0  0  0
  3  2  1  0  0  0
 37 36  2  0  0  0
 32 31  1  0  0  0
 32 36  1  0  0  0
  1  2  1  0  0  0
  1  7  1  0  0  0
  2 22  1  0  0  0
 31 30  1  0  0  0
 36 38  1  0  0  0
 30 23  1  0  0  0
 22 23  1  0  0  0
 23 24  1  0  0  0
 24 25  1  0  0  0
 25 26  1  0  0  0
 29 28  1  0  0  0
 26 28  1  0  0  0
 28 27  1  0  0  0
 33 34  1  0  0  0
 33 35  1  0  0  0
 38 39  1  0  0  0
  6  8  1  0  0  0
  7  9  1  0  0  0
 15 20  1  0  0  0
 15 21  1  0  0  0
M  END
> <minimizedAffinity>
-8.46494

$$$$
