2WBG_LGS_A_1446


 26 27  0  0  0  0  0  0  0  0999 V2000
    0.7390    7.4867   14.0931 O   0  0  0  0  0  0  0  0  0  0  0  0
    1.6546    6.6672   13.3868 C   0  0  0  0  0  0  0  0  0  0  0  0
    1.0490    6.2430   12.0436 C   0  0  0  0  0  0  0  0  0  0  0  0
    0.6408    7.3590   11.0835 C   0  0  0  0  0  0  0  0  0  0  0  0
    1.1298    6.9230    9.7895 O   0  0  0  0  0  0  0  0  0  0  0  0
    1.9022    5.3708   14.1674 C   0  0  0  0  0  0  0  0  0  0  0  0
    2.3241    5.6751   15.4986 O   0  0  0  0  0  0  0  0  0  0  0  0
    3.0294    4.5465   13.5247 C   0  0  0  0  0  0  0  0  0  0  0  0
    3.0831    3.2113   14.0395 O   0  0  0  0  0  0  0  0  0  0  0  0
    2.9111    4.4631   11.9832 C   0  0  0  0  0  0  0  0  0  0  0  0
    4.2130    4.6311   11.3893 O   0  0  0  0  0  0  0  0  0  0  0  0
    2.0738    5.4853   11.3107 N   0  0  0  0  0  0  0  0  0  0  0  0
    2.0404    5.9078    9.9965 C   0  0  0  0  0  0  0  0  0  0  0  0
    2.7463    5.3813    8.9916 N   0  0  0  0  0  0  0  0  0  0  0  0
    0.5863    8.3048   13.5948 H   0  0  0  0  0  0  0  0  0  0  0  0
    3.1553    6.1742   15.4682 H   0  0  0  0  0  0  0  0  0  0  0  0
    2.2667    2.7420   13.8066 H   0  0  0  0  0  0  0  0  0  0  0  0
    4.5410    5.5246   11.5766 H   0  0  0  0  0  0  0  0  0  0  0  0
    2.6007    5.6298    7.5512 C   0  0  0  0  0  0  0  0  0  0  0  0
    3.9407    5.9888    6.9195 C   0  0  0  0  0  0  0  0  0  0  0  0
    3.8267    6.1543    5.3970 C   0  0  0  0  0  0  0  0  0  0  0  0
    2.5544    5.4950    4.8136 C   0  0  0  0  0  0  0  0  0  0  0  0
    3.0277    4.2999    3.9664 C   0  0  0  0  0  0  0  0  0  0  0  0
    3.2648    3.0231    4.8009 C   0  0  0  0  0  0  0  0  0  0  0  0
    4.6984    2.5018    4.5948 C   0  0  0  0  0  0  0  0  0  0  0  0
    5.5665    2.7998    5.8205 C   0  0  0  0  0  0  0  0  0  0  0  0
  1  2  1  0  0  0
  2  3  1  0  0  0
  3  4  1  0  0  0
  4  5  1  0  0  0
  2  6  1  0  0  0
  6  7  1  0  0  0
  6  8  1  0  0  0
  8  9  1  0  0  0
  8 10  1  0  0  0
 10 11  1  0  0  0
  3 12  1  0  0  0
 10 12  1  0  0  0
  5 13  1  0  0  0
 12 13  1  0  0  0
 13 14  2  0  0  0
 14 19  1  0  0  0
 19 20  1  0  0  0
 20 21  1  0  0  0
 21 22  1  0  0  0
 22 23  1  0  0  0
 23 24  1  0  0  0
 24 25  1  0  0  0
 25 26  1  0  0  0
  1 15  1  0  0  0
  7 16  1  0  0  0
  9 17  1  0  0  0
 11 18  1  0  0  0
M  END
> <minimizedAffinity>
-9.08812

$$$$
2WBG_LGS_A_1446


 26 27  0  0  0  0  0  0  0  0999 V2000
    0.7371    7.5076   14.0899 O   0  0  0  0  0  0  0  0  0  0  0  0
    1.6511    6.6923   13.3766 C   0  0  0  0  0  0  0  0  0  0  0  0
    1.0325    6.2554   12.0434 C   0  0  0  0  0  0  0  0  0  0  0  0
    0.6025    7.3626   11.0825 C   0  0  0  0  0  0  0  0  0  0  0  0
    1.0791    6.9238    9.7848 O   0  0  0  0  0  0  0  0  0  0  0  0
    1.9199    5.4025   14.1610 C   0  0  0  0  0  0  0  0  0  0  0  0
    2.3557    5.7177   15.4851 O   0  0  0  0  0  0  0  0  0  0  0  0
    3.0462    4.5846   13.5086 C   0  0  0  0  0  0  0  0  0  0  0  0
    3.1181    3.2528   14.0299 O   0  0  0  0  0  0  0  0  0  0  0  0
    2.9094    4.4917   11.9692 C   0  0  0  0  0  0  0  0  0  0  0  0
    4.2022    4.6679   11.3581 O   0  0  0  0  0  0  0  0  0  0  0  0
    2.0547    5.5028   11.3018 N   0  0  0  0  0  0  0  0  0  0  0  0
    2.0012    5.9178    9.9858 C   0  0  0  0  0  0  0  0  0  0  0  0
    2.6990    5.3920    8.9751 N   0  0  0  0  0  0  0  0  0  0  0  0
    0.5710    8.3216   13.5892 H   0  0  0  0  0  0  0  0  0  0  0  0
    3.1820    6.2240   15.4416 H   0  0  0  0  0  0  0  0  0  0  0  0
    2.3031    2.7750   13.8098 H   0  0  0  0  0  0  0  0  0  0  0  0
    4.5246    5.5652   11.5365 H   0  0  0  0  0  0  0  0  0  0  0  0
    2.5332    5.6314    7.5353 C   0  0  0  0  0  0  0  0  0  0  0  0
    3.7249    5.0953    6.7505 C   0  0  0  0  0  0  0  0  0  0  0  0
    3.4740    3.6700    6.2365 C   0  0  0  0  0  0  0  0  0  0  0  0
    4.7667    2.9658    5.7601 C   0  0  0  0  0  0  0  0  0  0  0  0
    5.8592    3.3098    6.7888 C   0  0  0  0  0  0  0  0  0  0  0  0
    7.2370    3.5707    6.1435 C   0  0  0  0  0  0  0  0  0  0  0  0
    7.7612    4.9643    6.5344 C   0  0  0  0  0  0  0  0  0  0  0  0
    7.2611    5.3624    7.9259 C   0  0  0  0  0  0  0  0  0  0  0  0
  1  2  1  0  0  0
  2  3  1  0  0  0
  3  4  1  0  0  0
  4  5  1  0  0  0
  2  6  1  0  0  0
  6  7  1  0  0  0
  6  8  1  0  0  0
  8  9  1  0  0  0
  8 10  1  0  0  0
 10 11  1  0  0  0
  3 12  1  0  0  0
 10 12  1  0  0  0
  5 13  1  0  0  0
 12 13  1  0  0  0
 13 14  2  0  0  0
 14 19  1  0  0  0
 19 20  1  0  0  0
 20 21  1  0  0  0
 21 22  1  0  0  0
 22 23  1  0  0  0
 23 24  1  0  0  0
 24 25  1  0  0  0
 25 26  1  0  0  0
  1 15  1  0  0  0
  7 16  1  0  0  0
  9 17  1  0  0  0
 11 18  1  0  0  0
M  END
> <minimizedAffinity>
-8.64248

$$$$
2WBG_LGS_A_1446


 26 27  0  0  0  0  0  0  0  0999 V2000
    7.0781    2.5167    5.0240 O   0  0  0  0  0  0  0  0  0  0  0  0
    5.8255    3.1608    5.1826 C   0  0  0  0  0  0  0  0  0  0  0  0
    5.2731    2.8923    6.5874 C   0  0  0  0  0  0  0  0  0  0  0  0
    6.1365    3.3332    7.7681 C   0  0  0  0  0  0  0  0  0  0  0  0
    5.2065    3.9687    8.6819 O   0  0  0  0  0  0  0  0  0  0  0  0
    4.8057    2.5633    4.2058 C   0  0  0  0  0  0  0  0  0  0  0  0
    5.3115    2.6287    2.8707 O   0  0  0  0  0  0  0  0  0  0  0  0
    3.4933    3.3638    4.2202 C   0  0  0  0  0  0  0  0  0  0  0  0
    2.4303    2.6701    3.5574 O   0  0  0  0  0  0  0  0  0  0  0  0
    3.0187    3.7168    5.6510 C   0  0  0  0  0  0  0  0  0  0  0  0
    2.5453    5.0773    5.6807 O   0  0  0  0  0  0  0  0  0  0  0  0
    4.0301    3.6636    6.7338 N   0  0  0  0  0  0  0  0  0  0  0  0
    4.0425    4.2344    7.9911 C   0  0  0  0  0  0  0  0  0  0  0  0
    3.0391    4.9223    8.5434 N   0  0  0  0  0  0  0  0  0  0  0  0
    7.7188    2.8986    5.6441 H   0  0  0  0  0  0  0  0  0  0  0  0
    5.4590    3.5556    2.6258 H   0  0  0  0  0  0  0  0  0  0  0  0
    2.2289    1.8520    4.0381 H   0  0  0  0  0  0  0  0  0  0  0  0
    3.2823    5.6802    5.4954 H   0  0  0  0  0  0  0  0  0  0  0  0
    2.8992    5.3633    9.9376 C   0  0  0  0  0  0  0  0  0  0  0  0
    2.4244    6.8100   10.0090 C   0  0  0  0  0  0  0  0  0  0  0  0
    0.8944    6.9036   10.1027 C   0  0  0  0  0  0  0  0  0  0  0  0
    0.4024    7.3285   11.5068 C   0  0  0  0  0  0  0  0  0  0  0  0
    0.7412    6.1686   12.4608 C   0  0  0  0  0  0  0  0  0  0  0  0
    1.5378    6.6205   13.7034 C   0  0  0  0  0  0  0  0  0  0  0  0
    1.8686    5.4142   14.6007 C   0  0  0  0  0  0  0  0  0  0  0  0
    2.9288    4.5243   13.9459 C   0  0  0  0  0  0  0  0  0  0  0  0
  1  2  1  0  0  0
  2  3  1  0  0  0
  3  4  1  0  0  0
  4  5  1  0  0  0
  2  6  1  0  0  0
  6  7  1  0  0  0
  6  8  1  0  0  0
  8  9  1  0  0  0
  8 10  1  0  0  0
 10 11  1  0  0  0
  3 12  1  0  0  0
 10 12  1  0  0  0
  5 13  1  0  0  0
 12 13  1  0  0  0
 13 14  2  0  0  0
 14 19  1  0  0  0
 19 20  1  0  0  0
 20 21  1  0  0  0
 21 22  1  0  0  0
 22 23  1  0  0  0
 23 24  1  0  0  0
 24 25  1  0  0  0
 25 26  1  0  0  0
  1 15  1  0  0  0
  7 16  1  0  0  0
  9 17  1  0  0  0
 11 18  1  0  0  0
M  END
> <minimizedAffinity>
-8.40752

$$$$
2WBG_LGS_A_1446


 26 27  0  0  0  0  0  0  0  0999 V2000
    2.2025    1.7659    5.8666 O   0  0  0  0  0  0  0  0  0  0  0  0
    3.1975    2.7441    5.6172 C   0  0  0  0  0  0  0  0  0  0  0  0
    3.2907    3.7103    6.8040 C   0  0  0  0  0  0  0  0  0  0  0  0
    3.6155    3.1039    8.1681 C   0  0  0  0  0  0  0  0  0  0  0  0
    4.6094    3.9951    8.7354 O   0  0  0  0  0  0  0  0  0  0  0  0
    2.7970    3.5972    4.4077 C   0  0  0  0  0  0  0  0  0  0  0  0
    2.5341    2.7564    3.2822 O   0  0  0  0  0  0  0  0  0  0  0  0
    3.9384    4.5412    3.9962 C   0  0  0  0  0  0  0  0  0  0  0  0
    3.5011    5.5489    3.0775 O   0  0  0  0  0  0  0  0  0  0  0  0
    4.6014    5.2471    5.2042 C   0  0  0  0  0  0  0  0  0  0  0  0
    6.0320    5.2551    5.0331 O   0  0  0  0  0  0  0  0  0  0  0  0
    4.4019    4.6361    6.5403 N   0  0  0  0  0  0  0  0  0  0  0  0
    5.1069    4.7833    7.7185 C   0  0  0  0  0  0  0  0  0  0  0  0
    6.1236    5.6271    7.9169 N   0  0  0  0  0  0  0  0  0  0  0  0
    2.4612    1.2296    6.6324 H   0  0  0  0  0  0  0  0  0  0  0  0
    3.3371    2.2629    3.0528 H   0  0  0  0  0  0  0  0  0  0  0  0
    2.8484    6.1206    3.5112 H   0  0  0  0  0  0  0  0  0  0  0  0
    6.3647    4.3441    5.0499 H   0  0  0  0  0  0  0  0  0  0  0  0
    6.7680    5.9908    9.1858 C   0  0  0  0  0  0  0  0  0  0  0  0
    5.9502    7.0364    9.9351 C   0  0  0  0  0  0  0  0  0  0  0  0
    5.5978    6.5731   11.3562 C   0  0  0  0  0  0  0  0  0  0  0  0
    4.0746    6.5705   11.6279 C   0  0  0  0  0  0  0  0  0  0  0  0
    3.3911    6.9552   10.3032 C   0  0  0  0  0  0  0  0  0  0  0  0
    2.0590    6.2105   10.0713 C   0  0  0  0  0  0  0  0  0  0  0  0
    0.8700    7.1807   10.1921 C   0  0  0  0  0  0  0  0  0  0  0  0
    0.2995    7.1669   11.6130 C   0  0  0  0  0  0  0  0  0  0  0  0
  1  2  1  0  0  0
  2  3  1  0  0  0
  3  4  1  0  0  0
  4  5  1  0  0  0
  2  6  1  0  0  0
  6  7  1  0  0  0
  6  8  1  0  0  0
  8  9  1  0  0  0
  8 10  1  0  0  0
 10 11  1  0  0  0
  3 12  1  0  0  0
 10 12  1  0  0  0
  5 13  1  0  0  0
 12 13  1  0  0  0
 13 14  2  0  0  0
 14 19  1  0  0  0
 19 20  1  0  0  0
 20 21  1  0  0  0
 21 22  1  0  0  0
 22 23  1  0  0  0
 23 24  1  0  0  0
 24 25  1  0  0  0
 25 26  1  0  0  0
  1 15  1  0  0  0
  7 16  1  0  0  0
  9 17  1  0  0  0
 11 18  1  0  0  0
M  END
> <minimizedAffinity>
-7.89178

$$$$
2WBG_LGS_A_1446


 26 27  0  0  0  0  0  0  0  0999 V2000
    3.7302    4.3316    3.2597 O   0  0  0  0  0  0  0  0  0  0  0  0
    3.5923    4.0741    4.6467 C   0  0  0  0  0  0  0  0  0  0  0  0
    4.9561    4.1872    5.3381 C   0  0  0  0  0  0  0  0  0  0  0  0
    5.6854    5.5242    5.2188 C   0  0  0  0  0  0  0  0  0  0  0  0
    6.1780    5.7909    6.5567 O   0  0  0  0  0  0  0  0  0  0  0  0
    3.1262    2.6296    4.8641 C   0  0  0  0  0  0  0  0  0  0  0  0
    1.9304    2.3848    4.1206 O   0  0  0  0  0  0  0  0  0  0  0  0
    2.7869    2.3759    6.3418 C   0  0  0  0  0  0  0  0  0  0  0  0
    2.6406    0.9810    6.6306 O   0  0  0  0  0  0  0  0  0  0  0  0
    3.8436    2.9593    7.3114 C   0  0  0  0  0  0  0  0  0  0  0  0
    3.1813    3.5893    8.4251 O   0  0  0  0  0  0  0  0  0  0  0  0
    4.7407    4.0145    6.7821 N   0  0  0  0  0  0  0  0  0  0  0  0
    5.5109    4.9588    7.4316 C   0  0  0  0  0  0  0  0  0  0  0  0
    5.6722    5.0555    8.7543 N   0  0  0  0  0  0  0  0  0  0  0  0
    4.0250    5.2463    3.1284 H   0  0  0  0  0  0  0  0  0  0  0  0
    1.2295    2.9795    4.4305 H   0  0  0  0  0  0  0  0  0  0  0  0
    3.4879    0.5307    6.4882 H   0  0  0  0  0  0  0  0  0  0  0  0
    2.6705    4.3509    8.1088 H   0  0  0  0  0  0  0  0  0  0  0  0
    6.6346    5.8828    9.4941 C   0  0  0  0  0  0  0  0  0  0  0  0
    6.0170    6.4252   10.7778 C   0  0  0  0  0  0  0  0  0  0  0  0
    4.7387    5.6649   11.1606 C   0  0  0  0  0  0  0  0  0  0  0  0
    3.5581    6.6054   11.5003 C   0  0  0  0  0  0  0  0  0  0  0  0
    2.3190    5.7091   11.6771 C   0  0  0  0  0  0  0  0  0  0  0  0
    1.1531    6.4232   12.3939 C   0  0  0  0  0  0  0  0  0  0  0  0
    1.4740    6.6157   13.8870 C   0  0  0  0  0  0  0  0  0  0  0  0
    1.9067    5.2926   14.5249 C   0  0  0  0  0  0  0  0  0  0  0  0
  1  2  1  0  0  0
  2  3  1  0  0  0
  3  4  1  0  0  0
  4  5  1  0  0  0
  2  6  1  0  0  0
  6  7  1  0  0  0
  6  8  1  0  0  0
  8  9  1  0  0  0
  8 10  1  0  0  0
 10 11  1  0  0  0
  3 12  1  0  0  0
 10 12  1  0  0  0
  5 13  1  0  0  0
 12 13  1  0  0  0
 13 14  2  0  0  0
 14 19  1  0  0  0
 19 20  1  0  0  0
 20 21  1  0  0  0
 21 22  1  0  0  0
 22 23  1  0  0  0
 23 24  1  0  0  0
 24 25  1  0  0  0
 25 26  1  0  0  0
  1 15  1  0  0  0
  7 16  1  0  0  0
  9 17  1  0  0  0
 11 18  1  0  0  0
M  END
> <minimizedAffinity>
-7.86785

$$$$
2WBG_LGS_A_1446


 26 27  0  0  0  0  0  0  0  0999 V2000
    3.6841    2.4726    3.0921 O   0  0  0  0  0  0  0  0  0  0  0  0
    4.5977    2.6889    4.1540 C   0  0  0  0  0  0  0  0  0  0  0  0
    4.3795    4.0817    4.7566 C   0  0  0  0  0  0  0  0  0  0  0  0
    2.9904    4.3860    5.3150 C   0  0  0  0  0  0  0  0  0  0  0  0
    3.2436    5.0457    6.5817 O   0  0  0  0  0  0  0  0  0  0  0  0
    6.0332    2.6812    3.6153 C   0  0  0  0  0  0  0  0  0  0  0  0
    6.2782    1.4717    2.8944 O   0  0  0  0  0  0  0  0  0  0  0  0
    7.0539    2.7248    4.7640 C   0  0  0  0  0  0  0  0  0  0  0  0
    8.3764    3.0194    4.3005 O   0  0  0  0  0  0  0  0  0  0  0  0
    6.6865    3.7576    5.8574 C   0  0  0  0  0  0  0  0  0  0  0  0
    6.9218    3.1867    7.1592 O   0  0  0  0  0  0  0  0  0  0  0  0
    5.2768    4.2137    5.9137 N   0  0  0  0  0  0  0  0  0  0  0  0
    4.5588    4.8154    6.9281 C   0  0  0  0  0  0  0  0  0  0  0  0
    5.0537    5.2057    8.1062 N   0  0  0  0  0  0  0  0  0  0  0  0
    2.7782    2.4784    3.4388 H   0  0  0  0  0  0  0  0  0  0  0  0
    6.1739    0.7134    3.4903 H   0  0  0  0  0  0  0  0  0  0  0  0
    8.3937    3.9104    3.9173 H   0  0  0  0  0  0  0  0  0  0  0  0
    6.3212    2.4376    7.2971 H   0  0  0  0  0  0  0  0  0  0  0  0
    4.4100    6.0380    9.1312 C   0  0  0  0  0  0  0  0  0  0  0  0
    3.9406    5.1912   10.3085 C   0  0  0  0  0  0  0  0  0  0  0  0
    2.4099    5.1863   10.4323 C   0  0  0  0  0  0  0  0  0  0  0  0
    1.8610    6.4365   11.1600 C   0  0  0  0  0  0  0  0  0  0  0  0
    2.5848    6.5084   12.5169 C   0  0  0  0  0  0  0  0  0  0  0  0
    1.6168    6.5117   13.7193 C   0  0  0  0  0  0  0  0  0  0  0  0
    1.7505    5.2060   14.5236 C   0  0  0  0  0  0  0  0  0  0  0  0
    2.9668    4.4018   14.0561 C   0  0  0  0  0  0  0  0  0  0  0  0
  1  2  1  0  0  0
  2  3  1  0  0  0
  3  4  1  0  0  0
  4  5  1  0  0  0
  2  6  1  0  0  0
  6  7  1  0  0  0
  6  8  1  0  0  0
  8  9  1  0  0  0
  8 10  1  0  0  0
 10 11  1  0  0  0
  3 12  1  0  0  0
 10 12  1  0  0  0
  5 13  1  0  0  0
 12 13  1  0  0  0
 13 14  2  0  0  0
 14 19  1  0  0  0
 19 20  1  0  0  0
 20 21  1  0  0  0
 21 22  1  0  0  0
 22 23  1  0  0  0
 23 24  1  0  0  0
 24 25  1  0  0  0
 25 26  1  0  0  0
  1 15  1  0  0  0
  7 16  1  0  0  0
  9 17  1  0  0  0
 11 18  1  0  0  0
M  END
> <minimizedAffinity>
-7.78200

$$$$
2WBG_LGS_A_1446


 26 27  0  0  0  0  0  0  0  0999 V2000
    7.7856    5.3864    2.7697 O   0  0  0  0  0  0  0  0  0  0  0  0
    6.9243    4.5218    3.4905 C   0  0  0  0  0  0  0  0  0  0  0  0
    7.2421    4.5961    4.9886 C   0  0  0  0  0  0  0  0  0  0  0  0
    7.1314    5.9668    5.6540 C   0  0  0  0  0  0  0  0  0  0  0  0
    6.4351    5.7114    6.9004 O   0  0  0  0  0  0  0  0  0  0  0  0
    7.1798    3.0680    3.0755 C   0  0  0  0  0  0  0  0  0  0  0  0
    7.0582    2.9361    1.6576 O   0  0  0  0  0  0  0  0  0  0  0  0
    6.1369    2.1252    3.6975 C   0  0  0  0  0  0  0  0  0  0  0  0
    6.5151    0.7490    3.5803 O   0  0  0  0  0  0  0  0  0  0  0  0
    5.8699    2.4248    5.1928 C   0  0  0  0  0  0  0  0  0  0  0  0
    4.4553    2.3483    5.4554 O   0  0  0  0  0  0  0  0  0  0  0  0
    6.2577    3.7644    5.6961 N   0  0  0  0  0  0  0  0  0  0  0  0
    5.8570    4.4616    6.8187 C   0  0  0  0  0  0  0  0  0  0  0  0
    5.0512    3.9962    7.7775 N   0  0  0  0  0  0  0  0  0  0  0  0
    7.6195    6.3042    3.0363 H   0  0  0  0  0  0  0  0  0  0  0  0
    6.1580    3.1751    1.3866 H   0  0  0  0  0  0  0  0  0  0  0  0
    7.3269    0.5925    4.0874 H   0  0  0  0  0  0  0  0  0  0  0  0
    3.9970    3.0481    4.9644 H   0  0  0  0  0  0  0  0  0  0  0  0
    4.7623    4.5907    9.0892 C   0  0  0  0  0  0  0  0  0  0  0  0
    3.2992    4.3940    9.4690 C   0  0  0  0  0  0  0  0  0  0  0  0
    2.4495    5.6246    9.1195 C   0  0  0  0  0  0  0  0  0  0  0  0
    2.3997    6.6659   10.2628 C   0  0  0  0  0  0  0  0  0  0  0  0
    0.9612    7.2134   10.2963 C   0  0  0  0  0  0  0  0  0  0  0  0
    0.2986    7.0883   11.6849 C   0  0  0  0  0  0  0  0  0  0  0  0
    1.0883    6.1108   12.5740 C   0  0  0  0  0  0  0  0  0  0  0  0
    1.4715    6.7716   13.9011 C   0  0  0  0  0  0  0  0  0  0  0  0
  1  2  1  0  0  0
  2  3  1  0  0  0
  3  4  1  0  0  0
  4  5  1  0  0  0
  2  6  1  0  0  0
  6  7  1  0  0  0
  6  8  1  0  0  0
  8  9  1  0  0  0
  8 10  1  0  0  0
 10 11  1  0  0  0
  3 12  1  0  0  0
 10 12  1  0  0  0
  5 13  1  0  0  0
 12 13  1  0  0  0
 13 14  2  0  0  0
 14 19  1  0  0  0
 19 20  1  0  0  0
 20 21  1  0  0  0
 21 22  1  0  0  0
 22 23  1  0  0  0
 23 24  1  0  0  0
 24 25  1  0  0  0
 25 26  1  0  0  0
  1 15  1  0  0  0
  7 16  1  0  0  0
  9 17  1  0  0  0
 11 18  1  0  0  0
M  END
> <minimizedAffinity>
-7.67294

$$$$
2WBG_LGS_A_1446


 26 27  0  0  0  0  0  0  0  0999 V2000
    6.6226    2.9623    2.4299 O   0  0  0  0  0  0  0  0  0  0  0  0
    6.8932    3.3641    3.7619 C   0  0  0  0  0  0  0  0  0  0  0  0
    5.6204    3.9228    4.4089 C   0  0  0  0  0  0  0  0  0  0  0  0
    4.4110    2.9919    4.4772 C   0  0  0  0  0  0  0  0  0  0  0  0
    3.8923    3.1668    5.8204 O   0  0  0  0  0  0  0  0  0  0  0  0
    7.9078    4.5137    3.7629 C   0  0  0  0  0  0  0  0  0  0  0  0
    9.0785    4.1327    3.0369 O   0  0  0  0  0  0  0  0  0  0  0  0
    8.3639    4.8459    5.1928 C   0  0  0  0  0  0  0  0  0  0  0  0
    9.0682    6.0909    5.2596 O   0  0  0  0  0  0  0  0  0  0  0  0
    7.1906    4.9025    6.2015 C   0  0  0  0  0  0  0  0  0  0  0  0
    7.5755    4.2494    7.4268 O   0  0  0  0  0  0  0  0  0  0  0  0
    5.9294    4.2264    5.8138 N   0  0  0  0  0  0  0  0  0  0  0  0
    4.8635    3.7905    6.5758 C   0  0  0  0  0  0  0  0  0  0  0  0
    4.7158    3.9831    7.8896 N   0  0  0  0  0  0  0  0  0  0  0  0
    5.9805    2.2352    2.4356 H   0  0  0  0  0  0  0  0  0  0  0  0
    9.4892    3.3654    3.4652 H   0  0  0  0  0  0  0  0  0  0  0  0
    8.4703    6.8142    5.0140 H   0  0  0  0  0  0  0  0  0  0  0  0
    7.7267    3.3064    7.2569 H   0  0  0  0  0  0  0  0  0  0  0  0
    3.5239    3.7447    8.7144 C   0  0  0  0  0  0  0  0  0  0  0  0
    3.2605    4.9203    9.6483 C   0  0  0  0  0  0  0  0  0  0  0  0
    2.1935    5.8691    9.0829 C   0  0  0  0  0  0  0  0  0  0  0  0
    1.4038    6.6127   10.1862 C   0  0  0  0  0  0  0  0  0  0  0  0
    2.0426    6.2135   11.5288 C   0  0  0  0  0  0  0  0  0  0  0  0
    1.0639    6.3147   12.7182 C   0  0  0  0  0  0  0  0  0  0  0  0
    1.6855    5.6959   13.9832 C   0  0  0  0  0  0  0  0  0  0  0  0
    2.8494    4.7697   13.6195 C   0  0  0  0  0  0  0  0  0  0  0  0
  1  2  1  0  0  0
  2  3  1  0  0  0
  3  4  1  0  0  0
  4  5  1  0  0  0
  2  6  1  0  0  0
  6  7  1  0  0  0
  6  8  1  0  0  0
  8  9  1  0  0  0
  8 10  1  0  0  0
 10 11  1  0  0  0
  3 12  1  0  0  0
 10 12  1  0  0  0
  5 13  1  0  0  0
 12 13  1  0  0  0
 13 14  2  0  0  0
 14 19  1  0  0  0
 19 20  1  0  0  0
 20 21  1  0  0  0
 21 22  1  0  0  0
 22 23  1  0  0  0
 23 24  1  0  0  0
 24 25  1  0  0  0
 25 26  1  0  0  0
  1 15  1  0  0  0
  7 16  1  0  0  0
  9 17  1  0  0  0
 11 18  1  0  0  0
M  END
> <minimizedAffinity>
-7.22410

$$$$
2WBG_LGS_A_1446


 26 27  0  0  0  0  0  0  0  0999 V2000
    5.1708    8.1073   11.4495 O   0  0  0  0  0  0  0  0  0  0  0  0
    4.5953    6.9163   10.9402 C   0  0  0  0  0  0  0  0  0  0  0  0
    4.1264    7.1371    9.4972 C   0  0  0  0  0  0  0  0  0  0  0  0
    5.1832    7.5724    8.4835 C   0  0  0  0  0  0  0  0  0  0  0  0
    4.9255    6.7534    7.3145 O   0  0  0  0  0  0  0  0  0  0  0  0
    3.3387    6.5606   11.7436 C   0  0  0  0  0  0  0  0  0  0  0  0
    3.6532    6.4877   13.1359 O   0  0  0  0  0  0  0  0  0  0  0  0
    2.7988    5.1789   11.3402 C   0  0  0  0  0  0  0  0  0  0  0  0
    1.4782    4.9473   11.8431 O   0  0  0  0  0  0  0  0  0  0  0  0
    2.7735    4.9662    9.8068 C   0  0  0  0  0  0  0  0  0  0  0  0
    3.2368    3.6377    9.4960 O   0  0  0  0  0  0  0  0  0  0  0  0
    3.6353    5.8496    8.9850 N   0  0  0  0  0  0  0  0  0  0  0  0
    4.1100    5.7083    7.6960 C   0  0  0  0  0  0  0  0  0  0  0  0
    3.7934    4.7206    6.8540 N   0  0  0  0  0  0  0  0  0  0  0  0
    5.9649    8.3273   10.9377 H   0  0  0  0  0  0  0  0  0  0  0  0
    4.3136    5.7925   13.2822 H   0  0  0  0  0  0  0  0  0  0  0  0
    0.8637    5.5820   11.4426 H   0  0  0  0  0  0  0  0  0  0  0  0
    4.1675    3.5511    9.7550 H   0  0  0  0  0  0  0  0  0  0  0  0
    4.0816    4.6246    5.4168 C   0  0  0  0  0  0  0  0  0  0  0  0
    3.9062    3.1950    4.9177 C   0  0  0  0  0  0  0  0  0  0  0  0
    5.0288    2.2748    5.4189 C   0  0  0  0  0  0  0  0  0  0  0  0
    5.9484    1.7722    4.2806 C   0  0  0  0  0  0  0  0  0  0  0  0
    7.0413    2.8404    4.0945 C   0  0  0  0  0  0  0  0  0  0  0  0
    7.8305    3.1302    5.3891 C   0  0  0  0  0  0  0  0  0  0  0  0
    7.8284    4.6385    5.6966 C   0  0  0  0  0  0  0  0  0  0  0  0
    7.8268    4.8851    7.2078 C   0  0  0  0  0  0  0  0  0  0  0  0
  1  2  1  0  0  0
  2  3  1  0  0  0
  3  4  1  0  0  0
  4  5  1  0  0  0
  2  6  1  0  0  0
  6  7  1  0  0  0
  6  8  1  0  0  0
  8  9  1  0  0  0
  8 10  1  0  0  0
 10 11  1  0  0  0
  3 12  1  0  0  0
 10 12  1  0  0  0
  5 13  1  0  0  0
 12 13  1  0  0  0
 13 14  2  0  0  0
 14 19  1  0  0  0
 19 20  1  0  0  0
 20 21  1  0  0  0
 21 22  1  0  0  0
 22 23  1  0  0  0
 23 24  1  0  0  0
 24 25  1  0  0  0
 25 26  1  0  0  0
  1 15  1  0  0  0
  7 16  1  0  0  0
  9 17  1  0  0  0
 11 18  1  0  0  0
M  END
> <minimizedAffinity>
-7.07053

$$$$
2WBG_LGS_A_1446


 26 27  0  0  0  0  0  0  0  0999 V2000
    5.1877    8.3882   11.8908 O   0  0  0  0  0  0  0  0  0  0  0  0
    5.0102    7.1267   11.2693 C   0  0  0  0  0  0  0  0  0  0  0  0
    5.0340    7.2866    9.7446 C   0  0  0  0  0  0  0  0  0  0  0  0
    6.2935    7.8956    9.1307 C   0  0  0  0  0  0  0  0  0  0  0  0
    6.5788    7.0594    7.9805 O   0  0  0  0  0  0  0  0  0  0  0  0
    3.6250    6.5669   11.6143 C   0  0  0  0  0  0  0  0  0  0  0  0
    3.4526    6.5291   13.0325 O   0  0  0  0  0  0  0  0  0  0  0  0
    3.4735    5.1217   11.1126 C   0  0  0  0  0  0  0  0  0  0  0  0
    2.1126    4.6776   11.1481 O   0  0  0  0  0  0  0  0  0  0  0  0
    4.0060    4.9250    9.6721 C   0  0  0  0  0  0  0  0  0  0  0  0
    4.7451    3.6906    9.5950 O   0  0  0  0  0  0  0  0  0  0  0  0
    4.9505    5.9433    9.1530 N   0  0  0  0  0  0  0  0  0  0  0  0
    5.8523    5.8938    8.1085 C   0  0  0  0  0  0  0  0  0  0  0  0
    5.9973    4.8779    7.2530 N   0  0  0  0  0  0  0  0  0  0  0  0
    6.0651    8.7372   11.6692 H   0  0  0  0  0  0  0  0  0  0  0  0
    4.1216    5.9459   13.4241 H   0  0  0  0  0  0  0  0  0  0  0  0
    1.5823    5.2112   10.5358 H   0  0  0  0  0  0  0  0  0  0  0  0
    5.5331    3.7499   10.1574 H   0  0  0  0  0  0  0  0  0  0  0  0
    6.7698    4.8453    6.0041 C   0  0  0  0  0  0  0  0  0  0  0  0
    6.9802    3.4126    5.5279 C   0  0  0  0  0  0  0  0  0  0  0  0
    5.8319    2.9377    4.6256 C   0  0  0  0  0  0  0  0  0  0  0  0
    4.7774    2.0980    5.3851 C   0  0  0  0  0  0  0  0  0  0  0  0
    3.5298    2.9879    5.5321 C   0  0  0  0  0  0  0  0  0  0  0  0
    3.1892    3.7695    4.2453 C   0  0  0  0  0  0  0  0  0  0  0  0
    2.5560    5.1293    4.5911 C   0  0  0  0  0  0  0  0  0  0  0  0
    3.6300    6.2140    4.7115 C   0  0  0  0  0  0  0  0  0  0  0  0
  1  2  1  0  0  0
  2  3  1  0  0  0
  3  4  1  0  0  0
  4  5  1  0  0  0
  2  6  1  0  0  0
  6  7  1  0  0  0
  6  8  1  0  0  0
  8  9  1  0  0  0
  8 10  1  0  0  0
 10 11  1  0  0  0
  3 12  1  0  0  0
 10 12  1  0  0  0
  5 13  1  0  0  0
 12 13  1  0  0  0
 13 14  2  0  0  0
 14 19  1  0  0  0
 19 20  1  0  0  0
 20 21  1  0  0  0
 21 22  1  0  0  0
 22 23  1  0  0  0
 23 24  1  0  0  0
 24 25  1  0  0  0
 25 26  1  0  0  0
  1 15  1  0  0  0
  7 16  1  0  0  0
  9 17  1  0  0  0
 11 18  1  0  0  0
M  END
> <minimizedAffinity>
-6.95532

$$$$
