4P6C_RES_A_500


 20 19  0  0  0  0  0  0  0  0999 V2000
  -10.2668    5.3584  -30.8898 C   0  0  0  0  0  0  0  0  0  0  0  0
  -10.8994    5.8042  -32.0881 O   0  0  0  0  0  0  0  0  0  0  0  0
  -11.0689    5.0440  -32.6663 H   0  0  0  0  0  0  0  0  0  0  0  0
  -11.1834    4.3570  -30.2166 C   0  0  0  0  0  0  0  0  0  0  0  0
  -11.7275    4.9638  -29.0541 O   0  0  0  0  0  0  0  0  0  0  0  0
  -12.2236    5.7584  -29.3061 H   0  0  0  0  0  0  0  0  0  0  0  0
  -12.3104    3.9975  -31.1277 C   0  0  0  0  0  0  0  0  0  0  0  0
  -12.2426    2.9810  -31.7896 O   0  0  0  0  0  0  0  0  0  0  0  0
  -13.3448    4.8329  -31.1457 N   0  0  0  0  0  0  0  0  0  0  0  0
  -14.4593    4.5677  -31.9385 O   0  0  0  0  0  0  0  0  0  0  0  0
  -13.3228    5.6474  -30.5931 H   0  0  0  0  0  0  0  0  0  0  0  0
  -14.3250    3.7347  -32.4169 H   0  0  0  0  0  0  0  0  0  0  0  0
   -8.9466    4.6775  -31.2191 C   0  0  0  0  0  0  0  0  0  0  0  0
   -8.7522    4.7513  -32.6255 O   0  0  0  0  0  0  0  0  0  0  0  0
   -7.2993    2.7849  -33.1674 O   0  0  0  0  0  0  0  0  0  0  0  0
   -8.5996    3.4509  -33.5591 P   0  0  0  0  0  0  0  0  0  0  0  0
   -9.8313    2.6277  -33.2748 O   0  0  0  0  0  0  0  0  0  0  0  0
   -8.5482    4.0141  -34.9634 O   0  0  0  0  0  0  0  0  0  0  0  0
   -9.8091    1.8178  -33.8082 H   0  0  0  0  0  0  0  0  0  0  0  0
   -8.4555    3.2880  -35.5998 H   0  0  0  0  0  0  0  0  0  0  0  0
 15 16  2  0  0  0
 16 17  1  0  0  0
 16 18  1  0  0  0
 16 14  1  0  0  0
 14 13  1  0  0  0
 13  1  1  0  0  0
  1  2  1  0  0  0
  1  4  1  0  0  0
  4  5  1  0  0  0
  4  7  1  0  0  0
  7  8  2  0  0  0
  7  9  1  0  0  0
  9 10  1  0  0  0
 17 19  1  0  0  0
 18 20  1  0  0  0
  2  3  1  0  0  0
  5  6  1  0  0  0
  9 11  1  0  0  0
 10 12  1  0  0  0
M  END
> <minimizedAffinity>
-8.37566

$$$$
4P6C_RES_A_500


 20 19  0  0  0  0  0  0  0  0999 V2000
   -9.8252    4.1682  -30.5447 C   0  0  0  0  0  0  0  0  0  0  0  0
   -9.3900    3.9404  -29.2054 O   0  0  0  0  0  0  0  0  0  0  0  0
   -9.2023    4.7904  -28.7775 H   0  0  0  0  0  0  0  0  0  0  0  0
  -11.0650    5.0381  -30.4965 C   0  0  0  0  0  0  0  0  0  0  0  0
  -10.7954    6.2362  -31.2090 O   0  0  0  0  0  0  0  0  0  0  0  0
  -10.5694    6.0221  -32.1277 H   0  0  0  0  0  0  0  0  0  0  0  0
  -12.2067    4.3442  -31.1632 C   0  0  0  0  0  0  0  0  0  0  0  0
  -12.0775    3.1907  -31.5220 O   0  0  0  0  0  0  0  0  0  0  0  0
  -13.3217    5.0529  -31.3143 N   0  0  0  0  0  0  0  0  0  0  0  0
  -14.4529    4.4837  -31.8950 O   0  0  0  0  0  0  0  0  0  0  0  0
  -13.3480    5.9897  -31.0127 H   0  0  0  0  0  0  0  0  0  0  0  0
  -14.2645    3.5630  -32.1352 H   0  0  0  0  0  0  0  0  0  0  0  0
   -8.7419    4.8935  -31.3290 C   0  0  0  0  0  0  0  0  0  0  0  0
   -9.0507    4.7820  -32.7123 O   0  0  0  0  0  0  0  0  0  0  0  0
   -7.4094    2.9187  -33.0365 O   0  0  0  0  0  0  0  0  0  0  0  0
   -8.7029    3.4776  -33.5861 P   0  0  0  0  0  0  0  0  0  0  0  0
   -9.8961    2.5709  -33.4138 O   0  0  0  0  0  0  0  0  0  0  0  0
   -8.5373    4.0140  -34.9921 O   0  0  0  0  0  0  0  0  0  0  0  0
   -9.7570    1.7541  -33.9182 H   0  0  0  0  0  0  0  0  0  0  0  0
   -8.3229    3.2838  -35.5936 H   0  0  0  0  0  0  0  0  0  0  0  0
 15 16  2  0  0  0
 16 17  1  0  0  0
 16 18  1  0  0  0
 16 14  1  0  0  0
 14 13  1  0  0  0
 13  1  1  0  0  0
  1  2  1  0  0  0
  1  4  1  0  0  0
  4  5  1  0  0  0
  4  7  1  0  0  0
  7  8  2  0  0  0
  7  9  1  0  0  0
  9 10  1  0  0  0
 17 19  1  0  0  0
 18 20  1  0  0  0
  2  3  1  0  0  0
  5  6  1  0  0  0
  9 11  1  0  0  0
 10 12  1  0  0  0
M  END
> <minimizedAffinity>
-7.53197

$$$$
4P6C_RES_A_500


 20 19  0  0  0  0  0  0  0  0999 V2000
  -11.5462    3.9169  -31.0543 C   0  0  0  0  0  0  0  0  0  0  0  0
  -12.3346    3.2462  -30.0727 O   0  0  0  0  0  0  0  0  0  0  0  0
  -11.7527    2.8581  -29.4007 H   0  0  0  0  0  0  0  0  0  0  0  0
  -10.7329    4.9876  -30.3555 C   0  0  0  0  0  0  0  0  0  0  0  0
   -9.5504    4.3874  -29.8482 O   0  0  0  0  0  0  0  0  0  0  0  0
   -9.0432    4.0030  -30.5803 H   0  0  0  0  0  0  0  0  0  0  0  0
  -10.3383    6.0503  -31.3272 C   0  0  0  0  0  0  0  0  0  0  0  0
   -9.1946    6.4600  -31.3328 O   0  0  0  0  0  0  0  0  0  0  0  0
  -11.2901    6.4811  -32.1500 N   0  0  0  0  0  0  0  0  0  0  0  0
  -11.0125    7.4473  -33.1145 O   0  0  0  0  0  0  0  0  0  0  0  0
  -12.2004    6.1135  -32.0767 H   0  0  0  0  0  0  0  0  0  0  0  0
  -10.0787    7.7034  -33.0562 H   0  0  0  0  0  0  0  0  0  0  0  0
  -10.5981    2.9328  -31.7232 C   0  0  0  0  0  0  0  0  0  0  0  0
   -9.9931    3.5880  -32.8305 O   0  0  0  0  0  0  0  0  0  0  0  0
   -8.1930    1.8624  -33.0603 O   0  0  0  0  0  0  0  0  0  0  0  0
   -8.4681    3.3343  -33.2733 P   0  0  0  0  0  0  0  0  0  0  0  0
   -8.4082    3.7770  -34.7141 O   0  0  0  0  0  0  0  0  0  0  0  0
   -7.6649    4.2041  -32.3298 O   0  0  0  0  0  0  0  0  0  0  0  0
   -7.5081    3.6521  -35.0535 H   0  0  0  0  0  0  0  0  0  0  0  0
   -6.7202    4.1108  -32.5292 H   0  0  0  0  0  0  0  0  0  0  0  0
 15 16  2  0  0  0
 16 17  1  0  0  0
 16 18  1  0  0  0
 16 14  1  0  0  0
 14 13  1  0  0  0
 13  1  1  0  0  0
  1  2  1  0  0  0
  1  4  1  0  0  0
  4  5  1  0  0  0
  4  7  1  0  0  0
  7  8  2  0  0  0
  7  9  1  0  0  0
  9 10  1  0  0  0
 17 19  1  0  0  0
 18 20  1  0  0  0
  2  3  1  0  0  0
  5  6  1  0  0  0
  9 11  1  0  0  0
 10 12  1  0  0  0
M  END
> <minimizedAffinity>
-7.30446

$$$$
4P6C_RES_A_500


 20 19  0  0  0  0  0  0  0  0999 V2000
   -8.2635    4.3543  -32.1815 C   0  0  0  0  0  0  0  0  0  0  0  0
   -8.1675    3.5337  -31.0187 O   0  0  0  0  0  0  0  0  0  0  0  0
   -8.9222    2.9250  -30.9893 H   0  0  0  0  0  0  0  0  0  0  0  0
   -8.2803    3.4500  -33.3973 C   0  0  0  0  0  0  0  0  0  0  0  0
   -6.9788    2.9084  -33.5666 O   0  0  0  0  0  0  0  0  0  0  0  0
   -6.7328    2.4045  -32.7751 H   0  0  0  0  0  0  0  0  0  0  0  0
   -9.2331    2.3202  -33.1851 C   0  0  0  0  0  0  0  0  0  0  0  0
   -8.9061    1.3875  -32.4786 O   0  0  0  0  0  0  0  0  0  0  0  0
  -10.4115    2.4193  -33.7932 N   0  0  0  0  0  0  0  0  0  0  0  0
  -11.3810    1.4321  -33.6304 O   0  0  0  0  0  0  0  0  0  0  0  0
  -10.6009    3.1985  -34.3644 H   0  0  0  0  0  0  0  0  0  0  0  0
  -11.0413    0.7391  -33.0429 H   0  0  0  0  0  0  0  0  0  0  0  0
   -9.5536    5.1601  -32.1463 C   0  0  0  0  0  0  0  0  0  0  0  0
  -10.1984    4.9045  -30.9053 O   0  0  0  0  0  0  0  0  0  0  0  0
  -11.9503    3.1824  -31.3913 O   0  0  0  0  0  0  0  0  0  0  0  0
  -11.7637    4.5558  -30.7857 P   0  0  0  0  0  0  0  0  0  0  0  0
  -12.0619    4.6311  -29.3090 O   0  0  0  0  0  0  0  0  0  0  0  0
  -12.4410    5.6339  -31.6047 O   0  0  0  0  0  0  0  0  0  0  0  0
  -12.9988    4.4302  -29.1577 H   0  0  0  0  0  0  0  0  0  0  0  0
  -13.4013    5.4981  -31.5868 H   0  0  0  0  0  0  0  0  0  0  0  0
 15 16  2  0  0  0
 16 17  1  0  0  0
 16 18  1  0  0  0
 16 14  1  0  0  0
 14 13  1  0  0  0
 13  1  1  0  0  0
  1  2  1  0  0  0
  1  4  1  0  0  0
  4  5  1  0  0  0
  4  7  1  0  0  0
  7  8  2  0  0  0
  7  9  1  0  0  0
  9 10  1  0  0  0
 17 19  1  0  0  0
 18 20  1  0  0  0
  2  3  1  0  0  0
  5  6  1  0  0  0
  9 11  1  0  0  0
 10 12  1  0  0  0
M  END
> <minimizedAffinity>
-7.15733

$$$$
4P6C_RES_A_500


 20 19  0  0  0  0  0  0  0  0999 V2000
   -8.6472    4.9067  -32.0047 C   0  0  0  0  0  0  0  0  0  0  0  0
   -8.1983    4.2865  -30.8011 O   0  0  0  0  0  0  0  0  0  0  0  0
   -8.8972    3.7103  -30.4541 H   0  0  0  0  0  0  0  0  0  0  0  0
   -8.9944    3.8153  -32.9969 C   0  0  0  0  0  0  0  0  0  0  0  0
   -8.8123    4.3312  -34.3071 O   0  0  0  0  0  0  0  0  0  0  0  0
   -7.8896    4.6084  -34.4201 H   0  0  0  0  0  0  0  0  0  0  0  0
   -8.0776    2.6499  -32.8215 C   0  0  0  0  0  0  0  0  0  0  0  0
   -7.0356    2.6103  -33.4448 O   0  0  0  0  0  0  0  0  0  0  0  0
   -8.4709    1.7130  -31.9637 N   0  0  0  0  0  0  0  0  0  0  0  0
   -7.6695    0.6029  -31.7064 O   0  0  0  0  0  0  0  0  0  0  0  0
   -9.3375    1.8048  -31.5056 H   0  0  0  0  0  0  0  0  0  0  0  0
   -6.8567    0.6619  -32.2324 H   0  0  0  0  0  0  0  0  0  0  0  0
   -9.8905    5.7396  -31.7300 C   0  0  0  0  0  0  0  0  0  0  0  0
  -11.0290    4.9450  -32.0361 O   0  0  0  0  0  0  0  0  0  0  0  0
  -11.1163    4.2012  -29.6465 O   0  0  0  0  0  0  0  0  0  0  0  0
  -11.9473    4.2576  -30.9090 P   0  0  0  0  0  0  0  0  0  0  0  0
  -13.1651    5.1426  -30.8140 O   0  0  0  0  0  0  0  0  0  0  0  0
  -12.2326    2.8778  -31.4627 O   0  0  0  0  0  0  0  0  0  0  0  0
  -13.7719    4.7870  -30.1460 H   0  0  0  0  0  0  0  0  0  0  0  0
  -12.7889    2.3872  -30.8375 H   0  0  0  0  0  0  0  0  0  0  0  0
 15 16  2  0  0  0
 16 17  1  0  0  0
 16 18  1  0  0  0
 16 14  1  0  0  0
 14 13  1  0  0  0
 13  1  1  0  0  0
  1  2  1  0  0  0
  1  4  1  0  0  0
  4  5  1  0  0  0
  4  7  1  0  0  0
  7  8  2  0  0  0
  7  9  1  0  0  0
  9 10  1  0  0  0
 17 19  1  0  0  0
 18 20  1  0  0  0
  2  3  1  0  0  0
  5  6  1  0  0  0
  9 11  1  0  0  0
 10 12  1  0  0  0
M  END
> <minimizedAffinity>
-6.85550

$$$$
4P6C_RES_A_500


 20 19  0  0  0  0  0  0  0  0999 V2000
   -9.8937    4.9722  -30.3660 C   0  0  0  0  0  0  0  0  0  0  0  0
   -9.5999    6.3561  -30.5491 O   0  0  0  0  0  0  0  0  0  0  0  0
   -9.6196    6.5683  -31.4954 H   0  0  0  0  0  0  0  0  0  0  0  0
  -11.2621    4.6981  -30.9562 C   0  0  0  0  0  0  0  0  0  0  0  0
  -12.1992    4.6269  -29.8920 O   0  0  0  0  0  0  0  0  0  0  0  0
  -12.2032    5.4674  -29.4079 H   0  0  0  0  0  0  0  0  0  0  0  0
  -11.6655    5.8156  -31.8608 C   0  0  0  0  0  0  0  0  0  0  0  0
  -12.8436    6.0806  -31.9941 O   0  0  0  0  0  0  0  0  0  0  0  0
  -10.6795    6.4690  -32.4682 N   0  0  0  0  0  0  0  0  0  0  0  0
  -10.9518    7.5481  -33.3061 O   0  0  0  0  0  0  0  0  0  0  0  0
   -9.7472    6.1872  -32.3243 H   0  0  0  0  0  0  0  0  0  0  0  0
  -11.9098    7.6965  -33.3413 H   0  0  0  0  0  0  0  0  0  0  0  0
   -8.8625    4.1197  -31.0903 C   0  0  0  0  0  0  0  0  0  0  0  0
   -9.5456    3.3226  -32.0490 O   0  0  0  0  0  0  0  0  0  0  0  0
   -9.8568    1.9290  -34.1062 O   0  0  0  0  0  0  0  0  0  0  0  0
   -8.9069    2.9183  -33.4684 P   0  0  0  0  0  0  0  0  0  0  0  0
   -8.7727    4.2225  -34.2143 O   0  0  0  0  0  0  0  0  0  0  0  0
   -7.5833    2.2801  -33.1042 O   0  0  0  0  0  0  0  0  0  0  0  0
   -8.3897    4.0563  -35.0898 H   0  0  0  0  0  0  0  0  0  0  0  0
   -7.1248    2.0026  -33.9127 H   0  0  0  0  0  0  0  0  0  0  0  0
 15 16  2  0  0  0
 16 17  1  0  0  0
 16 18  1  0  0  0
 16 14  1  0  0  0
 14 13  1  0  0  0
 13  1  1  0  0  0
  1  2  1  0  0  0
  1  4  1  0  0  0
  4  5  1  0  0  0
  4  7  1  0  0  0
  7  8  2  0  0  0
  7  9  1  0  0  0
  9 10  1  0  0  0
 17 19  1  0  0  0
 18 20  1  0  0  0
  2  3  1  0  0  0
  5  6  1  0  0  0
  9 11  1  0  0  0
 10 12  1  0  0  0
M  END
> <minimizedAffinity>
-6.77869

$$$$
4P6C_RES_A_500


 20 19  0  0  0  0  0  0  0  0999 V2000
  -12.0028    4.3814  -30.8416 C   0  0  0  0  0  0  0  0  0  0  0  0
  -11.9783    4.7568  -29.4656 O   0  0  0  0  0  0  0  0  0  0  0  0
  -11.4713    4.1019  -28.9608 H   0  0  0  0  0  0  0  0  0  0  0  0
  -10.5722    4.3032  -31.3350 C   0  0  0  0  0  0  0  0  0  0  0  0
  -10.4951    3.2785  -32.3147 O   0  0  0  0  0  0  0  0  0  0  0  0
  -11.0939    3.4873  -33.0488 H   0  0  0  0  0  0  0  0  0  0  0  0
  -10.1776    5.5931  -31.9753 C   0  0  0  0  0  0  0  0  0  0  0  0
   -8.9998    5.8714  -32.0822 O   0  0  0  0  0  0  0  0  0  0  0  0
  -11.1699    6.3667  -32.4057 N   0  0  0  0  0  0  0  0  0  0  0  0
  -10.9032    7.5747  -33.0464 O   0  0  0  0  0  0  0  0  0  0  0  0
  -12.1027    6.0828  -32.2703 H   0  0  0  0  0  0  0  0  0  0  0  0
   -9.9438    7.7071  -33.1005 H   0  0  0  0  0  0  0  0  0  0  0  0
  -12.6556    3.0160  -30.9982 C   0  0  0  0  0  0  0  0  0  0  0  0
  -13.6766    3.1266  -31.9814 O   0  0  0  0  0  0  0  0  0  0  0  0
  -14.6559    0.8454  -31.6520 O   0  0  0  0  0  0  0  0  0  0  0  0
  -14.3174    1.8540  -32.7271 P   0  0  0  0  0  0  0  0  0  0  0  0
  -15.5132    2.4033  -33.4644 O   0  0  0  0  0  0  0  0  0  0  0  0
  -13.2078    1.3659  -33.6340 O   0  0  0  0  0  0  0  0  0  0  0  0
  -15.9556    1.6852  -33.9434 H   0  0  0  0  0  0  0  0  0  0  0  0
  -13.5127    0.5892  -34.1287 H   0  0  0  0  0  0  0  0  0  0  0  0
 15 16  2  0  0  0
 16 17  1  0  0  0
 16 18  1  0  0  0
 16 14  1  0  0  0
 14 13  1  0  0  0
 13  1  1  0  0  0
  1  2  1  0  0  0
  1  4  1  0  0  0
  4  5  1  0  0  0
  4  7  1  0  0  0
  7  8  2  0  0  0
  7  9  1  0  0  0
  9 10  1  0  0  0
 17 19  1  0  0  0
 18 20  1  0  0  0
  2  3  1  0  0  0
  5  6  1  0  0  0
  9 11  1  0  0  0
 10 12  1  0  0  0
M  END
> <minimizedAffinity>
-6.60074

$$$$
4P6C_RES_A_500


 20 19  0  0  0  0  0  0  0  0999 V2000
  -11.3227    4.5994  -30.8536 C   0  0  0  0  0  0  0  0  0  0  0  0
  -12.7384    4.7289  -30.7360 O   0  0  0  0  0  0  0  0  0  0  0  0
  -13.1122    3.8993  -30.4000 H   0  0  0  0  0  0  0  0  0  0  0  0
  -10.7639    4.2664  -29.4849 C   0  0  0  0  0  0  0  0  0  0  0  0
   -9.3703    4.0308  -29.6190 O   0  0  0  0  0  0  0  0  0  0  0  0
   -8.9408    4.8247  -29.9742 H   0  0  0  0  0  0  0  0  0  0  0  0
  -10.9562    5.4196  -28.5562 C   0  0  0  0  0  0  0  0  0  0  0  0
  -10.1922    6.3627  -28.6085 O   0  0  0  0  0  0  0  0  0  0  0  0
  -11.9854    5.3377  -27.7181 N   0  0  0  0  0  0  0  0  0  0  0  0
  -12.2679    6.3776  -26.8350 O   0  0  0  0  0  0  0  0  0  0  0  0
  -12.5537    4.5338  -27.7217 H   0  0  0  0  0  0  0  0  0  0  0  0
  -11.6204    7.0896  -26.9563 H   0  0  0  0  0  0  0  0  0  0  0  0
  -10.9801    3.4716  -31.8157 C   0  0  0  0  0  0  0  0  0  0  0  0
   -9.8009    3.8375  -32.5206 O   0  0  0  0  0  0  0  0  0  0  0  0
  -10.1930    1.9710  -34.1434 O   0  0  0  0  0  0  0  0  0  0  0  0
   -9.1127    2.8951  -33.6270 P   0  0  0  0  0  0  0  0  0  0  0  0
   -8.5652    3.8505  -34.6580 O   0  0  0  0  0  0  0  0  0  0  0  0
   -8.0463    2.1464  -32.8561 O   0  0  0  0  0  0  0  0  0  0  0  0
   -8.1304    3.3488  -35.3652 H   0  0  0  0  0  0  0  0  0  0  0  0
   -7.5752    1.5466  -33.4554 H   0  0  0  0  0  0  0  0  0  0  0  0
 15 16  2  0  0  0
 16 17  1  0  0  0
 16 18  1  0  0  0
 16 14  1  0  0  0
 14 13  1  0  0  0
 13  1  1  0  0  0
  1  2  1  0  0  0
  1  4  1  0  0  0
  4  5  1  0  0  0
  4  7  1  0  0  0
  7  8  2  0  0  0
  7  9  1  0  0  0
  9 10  1  0  0  0
 17 19  1  0  0  0
 18 20  1  0  0  0
  2  3  1  0  0  0
  5  6  1  0  0  0
  9 11  1  0  0  0
 10 12  1  0  0  0
M  END
> <minimizedAffinity>
-6.56456

$$$$
4P6C_RES_A_500


 20 19  0  0  0  0  0  0  0  0999 V2000
   -8.5149    4.6560  -31.1865 C   0  0  0  0  0  0  0  0  0  0  0  0
   -8.2310    3.3027  -30.8360 O   0  0  0  0  0  0  0  0  0  0  0  0
   -9.0271    2.8908  -30.4653 H   0  0  0  0  0  0  0  0  0  0  0  0
   -9.6462    4.6550  -32.1947 C   0  0  0  0  0  0  0  0  0  0  0  0
   -9.7220    5.9467  -32.7792 O   0  0  0  0  0  0  0  0  0  0  0  0
   -8.8811    6.1536  -33.2163 H   0  0  0  0  0  0  0  0  0  0  0  0
   -9.3684    3.6666  -33.2788 C   0  0  0  0  0  0  0  0  0  0  0  0
   -8.4346    3.8538  -34.0331 O   0  0  0  0  0  0  0  0  0  0  0  0
  -10.1790    2.6142  -33.3404 N   0  0  0  0  0  0  0  0  0  0  0  0
   -9.9818    1.6197  -34.2959 O   0  0  0  0  0  0  0  0  0  0  0  0
  -10.9262    2.5370  -32.7041 H   0  0  0  0  0  0  0  0  0  0  0  0
   -9.2109    1.8431  -34.8407 H   0  0  0  0  0  0  0  0  0  0  0  0
   -8.9514    5.4335  -29.9537 C   0  0  0  0  0  0  0  0  0  0  0  0
  -10.3693    5.3696  -29.8722 O   0  0  0  0  0  0  0  0  0  0  0  0
  -10.0964    3.4442  -28.2944 O   0  0  0  0  0  0  0  0  0  0  0  0
  -11.1471    4.3386  -28.9139 P   0  0  0  0  0  0  0  0  0  0  0  0
  -11.8822    5.2115  -27.9275 O   0  0  0  0  0  0  0  0  0  0  0  0
  -12.0552    3.5783  -29.8569 O   0  0  0  0  0  0  0  0  0  0  0  0
  -12.3799    4.6532  -27.3099 H   0  0  0  0  0  0  0  0  0  0  0  0
  -12.5687    2.9258  -29.3554 H   0  0  0  0  0  0  0  0  0  0  0  0
 15 16  2  0  0  0
 16 17  1  0  0  0
 16 18  1  0  0  0
 16 14  1  0  0  0
 14 13  1  0  0  0
 13  1  1  0  0  0
  1  2  1  0  0  0
  1  4  1  0  0  0
  4  5  1  0  0  0
  4  7  1  0  0  0
  7  8  2  0  0  0
  7  9  1  0  0  0
  9 10  1  0  0  0
 17 19  1  0  0  0
 18 20  1  0  0  0
  2  3  1  0  0  0
  5  6  1  0  0  0
  9 11  1  0  0  0
 10 12  1  0  0  0
M  END
> <minimizedAffinity>
-5.75212

$$$$
4P6C_RES_A_500


 20 19  0  0  0  0  0  0  0  0999 V2000
  -11.5693    4.9052  -31.2262 C   0  0  0  0  0  0  0  0  0  0  0  0
  -12.9915    4.8154  -31.1619 O   0  0  0  0  0  0  0  0  0  0  0  0
  -13.2431    4.0801  -30.5815 H   0  0  0  0  0  0  0  0  0  0  0  0
  -11.0459    5.1188  -29.8203 C   0  0  0  0  0  0  0  0  0  0  0  0
  -11.9353    4.4844  -28.9135 O   0  0  0  0  0  0  0  0  0  0  0  0
  -11.9816    3.5368  -29.1156 H   0  0  0  0  0  0  0  0  0  0  0  0
   -9.6995    4.4906  -29.6715 C   0  0  0  0  0  0  0  0  0  0  0  0
   -9.4996    3.7153  -28.7578 O   0  0  0  0  0  0  0  0  0  0  0  0
   -8.7883    4.8245  -30.5806 N   0  0  0  0  0  0  0  0  0  0  0  0
   -7.5123    4.2663  -30.5468 O   0  0  0  0  0  0  0  0  0  0  0  0
   -9.0178    5.4729  -31.2850 H   0  0  0  0  0  0  0  0  0  0  0  0
   -7.4477    3.6522  -29.7987 H   0  0  0  0  0  0  0  0  0  0  0  0
  -10.9893    3.6118  -31.7790 C   0  0  0  0  0  0  0  0  0  0  0  0
   -9.9935    3.9496  -32.7358 O   0  0  0  0  0  0  0  0  0  0  0  0
   -8.1965    2.2070  -32.6637 O   0  0  0  0  0  0  0  0  0  0  0  0
   -9.1970    2.8504  -33.5979 P   0  0  0  0  0  0  0  0  0  0  0  0
  -10.2649    1.9145  -34.1070 O   0  0  0  0  0  0  0  0  0  0  0  0
   -8.5204    3.6591  -34.6843 O   0  0  0  0  0  0  0  0  0  0  0  0
   -9.8551    1.2168  -34.6419 H   0  0  0  0  0  0  0  0  0  0  0  0
   -8.0107    3.0664  -35.2586 H   0  0  0  0  0  0  0  0  0  0  0  0
 15 16  2  0  0  0
 16 17  1  0  0  0
 16 18  1  0  0  0
 16 14  1  0  0  0
 14 13  1  0  0  0
 13  1  1  0  0  0
  1  2  1  0  0  0
  1  4  1  0  0  0
  4  5  1  0  0  0
  4  7  1  0  0  0
  7  8  2  0  0  0
  7  9  1  0  0  0
  9 10  1  0  0  0
 17 19  1  0  0  0
 18 20  1  0  0  0
  2  3  1  0  0  0
  5  6  1  0  0  0
  9 11  1  0  0  0
 10 12  1  0  0  0
M  END
> <minimizedAffinity>
-5.59428

$$$$
