4RFD_3O5_A_302


 20 20  0  0  0  0  0  0  0  0999 V2000
   -2.5764    7.3079   85.0656 C   0  0  0  0  0  0  0  0  0  0  0  0
   -3.0960    6.3154   85.8859 C   0  0  0  0  0  0  0  0  0  0  0  0
   -2.2883    5.2536   86.2956 C   0  0  0  0  0  0  0  0  0  0  0  0
   -0.9601    5.1898   85.8893 C   0  0  0  0  0  0  0  0  0  0  0  0
   -0.4474    6.1913   85.0669 C   0  0  0  0  0  0  0  0  0  0  0  0
   -1.2521    7.2514   84.6604 C   0  0  0  0  0  0  0  0  0  0  0  0
   -2.9794    4.0083   87.3472 S   0  0  0  0  0  0  0  0  0  0  0  0
   -2.8594    4.4925   88.7461 O   0  0  0  0  0  0  0  0  0  0  0  0
   -4.3711    3.8077   86.8867 O   0  0  0  0  0  0  0  0  0  0  0  0
   -2.1030    2.6328   87.1842 N   0  0  0  0  0  0  0  0  0  0  0  0
   -2.1794    2.2925   86.2257 H   0  0  0  0  0  0  0  0  0  0  0  0
   -2.4593    1.9246   87.8259 H   0  0  0  0  0  0  0  0  0  0  0  0
   -0.7575    8.2529   83.8531 O   0  0  0  0  0  0  0  0  0  0  0  0
   -1.0992    8.3058   82.5246 C   0  0  0  0  0  0  0  0  0  0  0  0
   -0.1892    7.6465   81.5429 C   0  0  0  0  0  0  0  0  0  0  0  0
   -0.7129    6.5036   80.7486 C   0  0  0  0  0  0  0  0  0  0  0  0
   -1.1493    5.2636   81.4616 C   0  0  0  0  0  0  0  0  0  0  0  0
   -2.3171    4.5645   81.0091 N   0  0  0  0  0  0  0  0  0  0  0  0
   -3.1397    5.1515   81.1475 H   0  0  0  0  0  0  0  0  0  0  0  0
   -2.4230    3.7001   81.5400 H   0  0  0  0  0  0  0  0  0  0  0  0
 15 14  1  0  0  0
 15 16  1  0  0  0
 14 13  1  0  0  0
 17 16  1  0  0  0
 17 18  1  0  0  0
 13  6  1  0  0  0
  6  5  2  0  0  0
  6  1  1  0  0  0
  5  4  1  0  0  0
  1  2  2  0  0  0
  4  3  2  0  0  0
  2  3  1  0  0  0
  3  7  1  0  0  0
 10  7  1  0  0  0
  9  7  2  0  0  0
  7  8  2  0  0  0
 10 11  1  0  0  0
 10 12  1  0  0  0
 18 19  1  0  0  0
 18 20  1  0  0  0
M  END
> <minimizedAffinity>
-6.65515

$$$$
4RFD_3O5_A_302


 20 20  0  0  0  0  0  0  0  0999 V2000
   -0.2912    6.3860   85.1934 C   0  0  0  0  0  0  0  0  0  0  0  0
   -0.7882    5.2506   85.8195 C   0  0  0  0  0  0  0  0  0  0  0  0
   -2.1357    5.1826   86.1764 C   0  0  0  0  0  0  0  0  0  0  0  0
   -2.9854    6.2480   85.9004 C   0  0  0  0  0  0  0  0  0  0  0  0
   -2.4775    7.3828   85.2709 C   0  0  0  0  0  0  0  0  0  0  0  0
   -1.1344    7.4496   84.9126 C   0  0  0  0  0  0  0  0  0  0  0  0
   -2.7392    3.7180   86.9668 S   0  0  0  0  0  0  0  0  0  0  0  0
   -4.2164    3.7073   86.8127 O   0  0  0  0  0  0  0  0  0  0  0  0
   -2.0481    2.5842   86.3140 O   0  0  0  0  0  0  0  0  0  0  0  0
   -2.3722    3.7890   88.5627 N   0  0  0  0  0  0  0  0  0  0  0  0
   -1.3589    3.7968   88.6786 H   0  0  0  0  0  0  0  0  0  0  0  0
   -2.7626    2.9753   89.0379 H   0  0  0  0  0  0  0  0  0  0  0  0
   -0.6192    8.5620   84.2831 O   0  0  0  0  0  0  0  0  0  0  0  0
   -0.5434    8.6115   82.9133 C   0  0  0  0  0  0  0  0  0  0  0  0
    0.7914    8.8655   82.2966 C   0  0  0  0  0  0  0  0  0  0  0  0
    1.8778    7.8766   82.5274 C   0  0  0  0  0  0  0  0  0  0  0  0
    1.7022    6.4767   82.0315 C   0  0  0  0  0  0  0  0  0  0  0  0
    2.8032    5.5602   82.1039 N   0  0  0  0  0  0  0  0  0  0  0  0
    3.5511    5.8778   81.4873 H   0  0  0  0  0  0  0  0  0  0  0  0
    2.4935    4.6329   81.8130 H   0  0  0  0  0  0  0  0  0  0  0  0
 15 14  1  0  0  0
 15 16  1  0  0  0
 14 13  1  0  0  0
 17 16  1  0  0  0
 17 18  1  0  0  0
 13  6  1  0  0  0
  6  5  2  0  0  0
  6  1  1  0  0  0
  5  4  1  0  0  0
  1  2  2  0  0  0
  4  3  2  0  0  0
  2  3  1  0  0  0
  3  7  1  0  0  0
 10  7  1  0  0  0
  9  7  2  0  0  0
  7  8  2  0  0  0
 10 11  1  0  0  0
 10 12  1  0  0  0
 18 19  1  0  0  0
 18 20  1  0  0  0
M  END
> <minimizedAffinity>
-6.16721

$$$$
4RFD_3O5_A_302


 20 20  0  0  0  0  0  0  0  0999 V2000
   -2.3576    6.9323   84.7870 C   0  0  0  0  0  0  0  0  0  0  0  0
   -2.8035    6.1801   85.8656 C   0  0  0  0  0  0  0  0  0  0  0  0
   -2.3883    4.8560   86.0135 C   0  0  0  0  0  0  0  0  0  0  0  0
   -1.5223    4.2884   85.0855 C   0  0  0  0  0  0  0  0  0  0  0  0
   -1.0794    5.0516   84.0070 C   0  0  0  0  0  0  0  0  0  0  0  0
   -1.4914    6.3728   83.8609 C   0  0  0  0  0  0  0  0  0  0  0  0
   -2.9694    3.9266   87.4037 S   0  0  0  0  0  0  0  0  0  0  0  0
   -4.3752    3.5389   87.1217 O   0  0  0  0  0  0  0  0  0  0  0  0
   -2.0388    2.7861   87.5535 O   0  0  0  0  0  0  0  0  0  0  0  0
   -2.9396    4.8871   88.7315 N   0  0  0  0  0  0  0  0  0  0  0  0
   -1.9773    5.1587   88.9331 H   0  0  0  0  0  0  0  0  0  0  0  0
   -3.3232    4.3783   89.5279 H   0  0  0  0  0  0  0  0  0  0  0  0
   -1.0563    7.1423   82.8036 O   0  0  0  0  0  0  0  0  0  0  0  0
   -1.2869    8.4955   82.7890 C   0  0  0  0  0  0  0  0  0  0  0  0
   -0.1099    9.4028   82.6545 C   0  0  0  0  0  0  0  0  0  0  0  0
    1.0098    9.2583   83.6224 C   0  0  0  0  0  0  0  0  0  0  0  0
    2.1439    8.3423   83.2886 C   0  0  0  0  0  0  0  0  0  0  0  0
    2.0633    6.9583   83.6563 N   0  0  0  0  0  0  0  0  0  0  0  0
    2.0582    6.8763   84.6730 H   0  0  0  0  0  0  0  0  0  0  0  0
    2.8687    6.4588   83.2791 H   0  0  0  0  0  0  0  0  0  0  0  0
 15 14  1  0  0  0
 15 16  1  0  0  0
 14 13  1  0  0  0
 17 16  1  0  0  0
 17 18  1  0  0  0
 13  6  1  0  0  0
  6  5  2  0  0  0
  6  1  1  0  0  0
  5  4  1  0  0  0
  1  2  2  0  0  0
  4  3  2  0  0  0
  2  3  1  0  0  0
  3  7  1  0  0  0
 10  7  1  0  0  0
  9  7  2  0  0  0
  7  8  2  0  0  0
 10 11  1  0  0  0
 10 12  1  0  0  0
 18 19  1  0  0  0
 18 20  1  0  0  0
M  END
> <minimizedAffinity>
-6.01326

$$$$
4RFD_3O5_A_302


 20 20  0  0  0  0  0  0  0  0999 V2000
   -2.6710    7.4358   85.2799 C   0  0  0  0  0  0  0  0  0  0  0  0
   -3.1302    6.3766   86.0514 C   0  0  0  0  0  0  0  0  0  0  0  0
   -2.2975    5.2866   86.3083 C   0  0  0  0  0  0  0  0  0  0  0  0
   -1.0042    5.2609   85.7984 C   0  0  0  0  0  0  0  0  0  0  0  0
   -0.5520    6.3291   85.0261 C   0  0  0  0  0  0  0  0  0  0  0  0
   -1.3815    7.4172   84.7720 C   0  0  0  0  0  0  0  0  0  0  0  0
   -2.9110    3.9557   87.3016 S   0  0  0  0  0  0  0  0  0  0  0  0
   -2.7318    4.3445   88.7238 O   0  0  0  0  0  0  0  0  0  0  0  0
   -4.3195    3.7552   86.8952 O   0  0  0  0  0  0  0  0  0  0  0  0
   -2.0166    2.6156   87.0005 N   0  0  0  0  0  0  0  0  0  0  0  0
   -2.1334    2.3408   86.0252 H   0  0  0  0  0  0  0  0  0  0  0  0
   -2.3268    1.8564   87.6071 H   0  0  0  0  0  0  0  0  0  0  0  0
   -0.9461    8.4841   84.0161 O   0  0  0  0  0  0  0  0  0  0  0  0
    0.2368    8.4073   83.3237 C   0  0  0  0  0  0  0  0  0  0  0  0
    0.3006    9.0479   81.9775 C   0  0  0  0  0  0  0  0  0  0  0  0
   -0.8729    9.8327   81.5104 C   0  0  0  0  0  0  0  0  0  0  0  0
   -1.8572    9.1870   80.5880 C   0  0  0  0  0  0  0  0  0  0  0  0
   -1.8701    7.7585   80.4594 N   0  0  0  0  0  0  0  0  0  0  0  0
   -0.9955    7.4472   80.0368 H   0  0  0  0  0  0  0  0  0  0  0  0
   -2.6523    7.4774   79.8682 H   0  0  0  0  0  0  0  0  0  0  0  0
 15 14  1  0  0  0
 15 16  1  0  0  0
 14 13  1  0  0  0
 17 16  1  0  0  0
 17 18  1  0  0  0
 13  6  1  0  0  0
  6  5  2  0  0  0
  6  1  1  0  0  0
  5  4  1  0  0  0
  1  2  2  0  0  0
  4  3  2  0  0  0
  2  3  1  0  0  0
  3  7  1  0  0  0
 10  7  1  0  0  0
  9  7  2  0  0  0
  7  8  2  0  0  0
 10 11  1  0  0  0
 10 12  1  0  0  0
 18 19  1  0  0  0
 18 20  1  0  0  0
M  END
> <minimizedAffinity>
-6.00016

$$$$
4RFD_3O5_A_302


 20 20  0  0  0  0  0  0  0  0999 V2000
   -0.9190    4.1517   81.8412 C   0  0  0  0  0  0  0  0  0  0  0  0
   -0.9809    3.7052   83.1544 C   0  0  0  0  0  0  0  0  0  0  0  0
   -1.0930    4.6226   84.2000 C   0  0  0  0  0  0  0  0  0  0  0  0
   -1.1497    5.9854   83.9297 C   0  0  0  0  0  0  0  0  0  0  0  0
   -1.0879    6.4238   82.6084 C   0  0  0  0  0  0  0  0  0  0  0  0
   -0.9786    5.5088   81.5656 C   0  0  0  0  0  0  0  0  0  0  0  0
   -1.1768    4.0201   85.8626 S   0  0  0  0  0  0  0  0  0  0  0  0
    0.1955    4.0834   86.4270 O   0  0  0  0  0  0  0  0  0  0  0  0
   -2.1646    4.8732   86.5595 O   0  0  0  0  0  0  0  0  0  0  0  0
   -1.6678    2.4565   85.8341 N   0  0  0  0  0  0  0  0  0  0  0  0
   -2.6103    2.4031   85.4476 H   0  0  0  0  0  0  0  0  0  0  0  0
   -1.6679    2.0828   86.7832 H   0  0  0  0  0  0  0  0  0  0  0  0
   -0.9237    5.9268   80.2534 O   0  0  0  0  0  0  0  0  0  0  0  0
   -0.3728    7.1432   79.9351 C   0  0  0  0  0  0  0  0  0  0  0  0
    1.1095    7.2194   79.7810 C   0  0  0  0  0  0  0  0  0  0  0  0
    1.9084    7.7971   80.8943 C   0  0  0  0  0  0  0  0  0  0  0  0
    2.8472    6.9113   81.6496 C   0  0  0  0  0  0  0  0  0  0  0  0
    2.4455    5.5734   81.9751 N   0  0  0  0  0  0  0  0  0  0  0  0
    1.6613    5.6029   82.6268 H   0  0  0  0  0  0  0  0  0  0  0  0
    3.2269    5.0790   82.4057 H   0  0  0  0  0  0  0  0  0  0  0  0
 15 14  1  0  0  0
 15 16  1  0  0  0
 14 13  1  0  0  0
 17 16  1  0  0  0
 17 18  1  0  0  0
 13  6  1  0  0  0
  6  5  2  0  0  0
  6  1  1  0  0  0
  5  4  1  0  0  0
  1  2  2  0  0  0
  4  3  2  0  0  0
  2  3  1  0  0  0
  3  7  1  0  0  0
 10  7  1  0  0  0
  9  7  2  0  0  0
  7  8  2  0  0  0
 10 11  1  0  0  0
 10 12  1  0  0  0
 18 19  1  0  0  0
 18 20  1  0  0  0
M  END
> <minimizedAffinity>
-5.89364

$$$$
4RFD_3O5_A_302


 20 20  0  0  0  0  0  0  0  0999 V2000
   -2.4241    7.2792   84.9529 C   0  0  0  0  0  0  0  0  0  0  0  0
   -2.9816    6.4161   85.8868 C   0  0  0  0  0  0  0  0  0  0  0  0
   -2.2757    5.2866   86.3034 C   0  0  0  0  0  0  0  0  0  0  0  0
   -1.0102    5.0258   85.7898 C   0  0  0  0  0  0  0  0  0  0  0  0
   -0.4585    5.8985   84.8538 C   0  0  0  0  0  0  0  0  0  0  0  0
   -1.1614    7.0262   84.4403 C   0  0  0  0  0  0  0  0  0  0  0  0
   -3.0118    4.2102   87.5007 S   0  0  0  0  0  0  0  0  0  0  0  0
   -2.9915    4.9186   88.8060 O   0  0  0  0  0  0  0  0  0  0  0  0
   -4.3669    3.8986   86.9950 O   0  0  0  0  0  0  0  0  0  0  0  0
   -2.1028    2.8515   87.6197 N   0  0  0  0  0  0  0  0  0  0  0  0
   -2.1108    2.3578   86.7271 H   0  0  0  0  0  0  0  0  0  0  0  0
   -2.4877    2.2473   88.3458 H   0  0  0  0  0  0  0  0  0  0  0  0
   -0.6261    7.9022   83.5208 O   0  0  0  0  0  0  0  0  0  0  0  0
   -0.1806    9.1385   83.9179 C   0  0  0  0  0  0  0  0  0  0  0  0
    1.2202    9.2475   84.4202 C   0  0  0  0  0  0  0  0  0  0  0  0
    1.9692   10.5060   84.1621 C   0  0  0  0  0  0  0  0  0  0  0  0
    1.8986   11.6116   85.1668 C   0  0  0  0  0  0  0  0  0  0  0  0
    3.0956   12.3164   85.5242 N   0  0  0  0  0  0  0  0  0  0  0  0
    3.7355   11.6803   86.0001 H   0  0  0  0  0  0  0  0  0  0  0  0
    2.8616   13.0909   86.1452 H   0  0  0  0  0  0  0  0  0  0  0  0
 15 14  1  0  0  0
 15 16  1  0  0  0
 14 13  1  0  0  0
 17 16  1  0  0  0
 17 18  1  0  0  0
 13  6  1  0  0  0
  6  5  2  0  0  0
  6  1  1  0  0  0
  5  4  1  0  0  0
  1  2  2  0  0  0
  4  3  2  0  0  0
  2  3  1  0  0  0
  3  7  1  0  0  0
 10  7  1  0  0  0
  9  7  2  0  0  0
  7  8  2  0  0  0
 10 11  1  0  0  0
 10 12  1  0  0  0
 18 19  1  0  0  0
 18 20  1  0  0  0
M  END
> <minimizedAffinity>
-5.72514

$$$$
4RFD_3O5_A_302


 20 20  0  0  0  0  0  0  0  0999 V2000
    0.0661    6.7228   85.0256 C   0  0  0  0  0  0  0  0  0  0  0  0
    1.0771    7.3534   84.3126 C   0  0  0  0  0  0  0  0  0  0  0  0
    1.1324    7.2329   82.9234 C   0  0  0  0  0  0  0  0  0  0  0  0
    0.1722    6.4871   82.2488 C   0  0  0  0  0  0  0  0  0  0  0  0
   -0.8392    5.8588   82.9729 C   0  0  0  0  0  0  0  0  0  0  0  0
   -0.8958    5.9811   84.3581 C   0  0  0  0  0  0  0  0  0  0  0  0
    2.4300    8.0552   82.0435 S   0  0  0  0  0  0  0  0  0  0  0  0
    2.0161    8.1398   80.6196 O   0  0  0  0  0  0  0  0  0  0  0  0
    2.6101    9.3655   82.7069 O   0  0  0  0  0  0  0  0  0  0  0  0
    3.7939    7.1521   82.1474 N   0  0  0  0  0  0  0  0  0  0  0  0
    4.0860    7.0884   83.1226 H   0  0  0  0  0  0  0  0  0  0  0  0
    4.5341    7.5897   81.5987 H   0  0  0  0  0  0  0  0  0  0  0  0
   -1.8939    5.3715   85.0872 O   0  0  0  0  0  0  0  0  0  0  0  0
   -2.8262    6.1269   85.7541 C   0  0  0  0  0  0  0  0  0  0  0  0
   -3.4930    5.5220   86.9440 C   0  0  0  0  0  0  0  0  0  0  0  0
   -3.7382    4.0553   86.9490 C   0  0  0  0  0  0  0  0  0  0  0  0
   -2.6628    3.1414   87.4440 C   0  0  0  0  0  0  0  0  0  0  0  0
   -1.6341    2.7104   86.5421 N   0  0  0  0  0  0  0  0  0  0  0  0
   -2.0441    2.1281   85.8119 H   0  0  0  0  0  0  0  0  0  0  0  0
   -0.9362    2.1716   87.0550 H   0  0  0  0  0  0  0  0  0  0  0  0
 15 14  1  0  0  0
 15 16  1  0  0  0
 14 13  1  0  0  0
 17 16  1  0  0  0
 17 18  1  0  0  0
 13  6  1  0  0  0
  6  5  2  0  0  0
  6  1  1  0  0  0
  5  4  1  0  0  0
  1  2  2  0  0  0
  4  3  2  0  0  0
  2  3  1  0  0  0
  3  7  1  0  0  0
 10  7  1  0  0  0
  9  7  2  0  0  0
  7  8  2  0  0  0
 10 11  1  0  0  0
 10 12  1  0  0  0
 18 19  1  0  0  0
 18 20  1  0  0  0
M  END
> <minimizedAffinity>
-5.59852

$$$$
4RFD_3O5_A_302


 20 20  0  0  0  0  0  0  0  0999 V2000
   -0.6182    6.4768   84.7305 C   0  0  0  0  0  0  0  0  0  0  0  0
   -0.3361    7.1066   83.5256 C   0  0  0  0  0  0  0  0  0  0  0  0
   -1.2970    7.9164   82.9186 C   0  0  0  0  0  0  0  0  0  0  0  0
   -2.5364    8.1003   83.5214 C   0  0  0  0  0  0  0  0  0  0  0  0
   -2.8098    7.4649   84.7312 C   0  0  0  0  0  0  0  0  0  0  0  0
   -1.8507    6.6594   85.3378 C   0  0  0  0  0  0  0  0  0  0  0  0
   -0.9031    8.7108   81.3863 S   0  0  0  0  0  0  0  0  0  0  0  0
   -1.0063   10.1759   81.6068 O   0  0  0  0  0  0  0  0  0  0  0  0
    0.4506    8.2419   81.0165 O   0  0  0  0  0  0  0  0  0  0  0  0
   -2.0072    8.2640   80.2602 N   0  0  0  0  0  0  0  0  0  0  0  0
   -1.9437    7.2584   80.1020 H   0  0  0  0  0  0  0  0  0  0  0  0
   -1.8214    8.7580   79.3873 H   0  0  0  0  0  0  0  0  0  0  0  0
   -2.1037    6.0302   86.5376 O   0  0  0  0  0  0  0  0  0  0  0  0
   -3.3900    5.7127   86.8969 C   0  0  0  0  0  0  0  0  0  0  0  0
   -3.7604    4.2687   86.9621 C   0  0  0  0  0  0  0  0  0  0  0  0
   -2.6846    3.2721   87.2087 C   0  0  0  0  0  0  0  0  0  0  0  0
   -1.6984    2.9847   86.1217 C   0  0  0  0  0  0  0  0  0  0  0  0
   -0.3369    3.4089   86.2754 N   0  0  0  0  0  0  0  0  0  0  0  0
   -0.2979    4.4280   86.2899 H   0  0  0  0  0  0  0  0  0  0  0  0
    0.2185    3.0584   85.4950 H   0  0  0  0  0  0  0  0  0  0  0  0
 15 14  1  0  0  0
 15 16  1  0  0  0
 14 13  1  0  0  0
 17 16  1  0  0  0
 17 18  1  0  0  0
 13  6  1  0  0  0
  6  5  2  0  0  0
  6  1  1  0  0  0
  5  4  1  0  0  0
  1  2  2  0  0  0
  4  3  2  0  0  0
  2  3  1  0  0  0
  3  7  1  0  0  0
 10  7  1  0  0  0
  9  7  2  0  0  0
  7  8  2  0  0  0
 10 11  1  0  0  0
 10 12  1  0  0  0
 18 19  1  0  0  0
 18 20  1  0  0  0
M  END
> <minimizedAffinity>
-5.51443

$$$$
4RFD_3O5_A_302


 20 20  0  0  0  0  0  0  0  0999 V2000
   -1.0320    4.2672   81.6984 C   0  0  0  0  0  0  0  0  0  0  0  0
   -1.0405    3.6373   82.9358 C   0  0  0  0  0  0  0  0  0  0  0  0
   -1.1157    4.3951   84.1053 C   0  0  0  0  0  0  0  0  0  0  0  0
   -1.1888    5.7818   84.0348 C   0  0  0  0  0  0  0  0  0  0  0  0
   -1.1806    6.4049   82.7883 C   0  0  0  0  0  0  0  0  0  0  0  0
   -1.1083    5.6491   81.6221 C   0  0  0  0  0  0  0  0  0  0  0  0
   -1.1318    3.5608   85.6666 S   0  0  0  0  0  0  0  0  0  0  0  0
   -1.0625    2.1029   85.3913 O   0  0  0  0  0  0  0  0  0  0  0  0
    0.0182    4.0944   86.4295 O   0  0  0  0  0  0  0  0  0  0  0  0
   -2.5454    3.8909   86.4278 N   0  0  0  0  0  0  0  0  0  0  0  0
   -2.6020    4.8908   86.6212 H   0  0  0  0  0  0  0  0  0  0  0  0
   -2.5885    3.3720   87.3049 H   0  0  0  0  0  0  0  0  0  0  0  0
   -1.1065    6.2504   80.3820 O   0  0  0  0  0  0  0  0  0  0  0  0
   -0.1555    7.1892   80.0674 C   0  0  0  0  0  0  0  0  0  0  0  0
   -0.5974    8.6061   79.9134 C   0  0  0  0  0  0  0  0  0  0  0  0
   -2.0313    8.9292   80.1391 C   0  0  0  0  0  0  0  0  0  0  0  0
   -2.4224    9.6670   81.3798 C   0  0  0  0  0  0  0  0  0  0  0  0
   -3.6747   10.3652   81.4191 N   0  0  0  0  0  0  0  0  0  0  0  0
   -3.6561   11.1346   80.7497 H   0  0  0  0  0  0  0  0  0  0  0  0
   -3.8287   10.7345   82.3573 H   0  0  0  0  0  0  0  0  0  0  0  0
 15 14  1  0  0  0
 15 16  1  0  0  0
 14 13  1  0  0  0
 17 16  1  0  0  0
 17 18  1  0  0  0
 13  6  1  0  0  0
  6  5  2  0  0  0
  6  1  1  0  0  0
  5  4  1  0  0  0
  1  2  2  0  0  0
  4  3  2  0  0  0
  2  3  1  0  0  0
  3  7  1  0  0  0
 10  7  1  0  0  0
  9  7  2  0  0  0
  7  8  2  0  0  0
 10 11  1  0  0  0
 10 12  1  0  0  0
 18 19  1  0  0  0
 18 20  1  0  0  0
M  END
> <minimizedAffinity>
-5.49702

$$$$
4RFD_3O5_A_302


 20 20  0  0  0  0  0  0  0  0999 V2000
   -1.0500    5.3780   84.1078 C   0  0  0  0  0  0  0  0  0  0  0  0
   -1.4633    4.5797   85.1661 C   0  0  0  0  0  0  0  0  0  0  0  0
   -2.4227    5.0506   86.0635 C   0  0  0  0  0  0  0  0  0  0  0  0
   -2.9720    6.3170   85.8971 C   0  0  0  0  0  0  0  0  0  0  0  0
   -2.5516    7.1104   84.8313 C   0  0  0  0  0  0  0  0  0  0  0  0
   -1.5968    6.6398   83.9349 C   0  0  0  0  0  0  0  0  0  0  0  0
   -2.9332    4.0051   87.3979 S   0  0  0  0  0  0  0  0  0  0  0  0
   -4.3264    3.5744   87.1159 O   0  0  0  0  0  0  0  0  0  0  0  0
   -1.9508    2.9000   87.4530 O   0  0  0  0  0  0  0  0  0  0  0  0
   -2.9170    4.8750   88.7870 N   0  0  0  0  0  0  0  0  0  0  0  0
   -1.9633    5.1753   88.9890 H   0  0  0  0  0  0  0  0  0  0  0  0
   -3.2611    4.2972   89.5540 H   0  0  0  0  0  0  0  0  0  0  0  0
   -1.1762    7.4099   82.8721 O   0  0  0  0  0  0  0  0  0  0  0  0
   -0.7843    8.7106   83.0697 C   0  0  0  0  0  0  0  0  0  0  0  0
   -0.7155    9.6075   81.8792 C   0  0  0  0  0  0  0  0  0  0  0  0
   -1.8202    9.5511   80.8853 C   0  0  0  0  0  0  0  0  0  0  0  0
   -3.1396   10.1645   81.2311 C   0  0  0  0  0  0  0  0  0  0  0  0
   -4.0558   10.5036   80.1809 N   0  0  0  0  0  0  0  0  0  0  0  0
   -3.6559   11.2464   79.6075 H   0  0  0  0  0  0  0  0  0  0  0  0
   -4.9351   10.8234   80.5869 H   0  0  0  0  0  0  0  0  0  0  0  0
 15 14  1  0  0  0
 15 16  1  0  0  0
 14 13  1  0  0  0
 17 16  1  0  0  0
 17 18  1  0  0  0
 13  6  1  0  0  0
  6  5  2  0  0  0
  6  1  1  0  0  0
  5  4  1  0  0  0
  1  2  2  0  0  0
  4  3  2  0  0  0
  2  3  1  0  0  0
  3  7  1  0  0  0
 10  7  1  0  0  0
  9  7  2  0  0  0
  7  8  2  0  0  0
 10 11  1  0  0  0
 10 12  1  0  0  0
 18 19  1  0  0  0
 18 20  1  0  0  0
M  END
> <minimizedAffinity>
-5.48009

$$$$
