2ZCR_B69_A_668


 31 32  0  0  0  0  0  0  0  0999 V2000
   14.3793   56.9179   37.7276 C   0  0  0  0  0  0  0  0  0  0  0  0
   14.3668   56.2603   36.5014 C   0  0  0  0  0  0  0  0  0  0  0  0
   15.1141   55.0980   36.3312 C   0  0  0  0  0  0  0  0  0  0  0  0
   15.1545   56.4215   38.7682 C   0  0  0  0  0  0  0  0  0  0  0  0
   15.8996   55.2590   38.5983 C   0  0  0  0  0  0  0  0  0  0  0  0
   15.8750   54.5924   37.3782 C   0  0  0  0  0  0  0  0  0  0  0  0
   11.9594   60.2686   38.3627 C   0  0  0  0  0  0  0  0  0  0  0  0
   11.8285   59.5291   37.1911 C   0  0  0  0  0  0  0  0  0  0  0  0
   12.6049   58.3942   36.9839 C   0  0  0  0  0  0  0  0  0  0  0  0
   12.8938   59.8802   39.3141 C   0  0  0  0  0  0  0  0  0  0  0  0
   13.6717   58.7469   39.1068 C   0  0  0  0  0  0  0  0  0  0  0  0
   13.5294   57.9971   37.9445 C   0  0  0  0  0  0  0  0  0  0  0  0
   10.9126   61.3231   38.7321 C   0  0  0  0  0  0  0  0  0  0  0  0
    9.7148   61.4412   37.7869 C   0  0  0  0  0  0  0  0  0  0  0  0
    8.4354   59.3558   38.4584 C   0  0  0  0  0  0  0  0  0  0  0  0
    8.4853   60.8830   38.5108 C   0  0  0  0  0  0  0  0  0  0  0  0
   16.6516   53.2852   37.1859 C   0  0  0  0  0  0  0  0  0  0  0  0
   17.3327   52.8419   38.4820 C   0  0  0  0  0  0  0  0  0  0  0  0
   18.8201   52.5635   38.2552 C   0  0  0  0  0  0  0  0  0  0  0  0
   19.2412   52.7260   36.7945 C   0  0  0  0  0  0  0  0  0  0  0  0
   20.2205   51.2728   36.2359 P   0  0  0  0  0  0  0  0  0  0  0  0
   21.0206   51.7110   34.9080 O   0  0  0  0  0  0  0  0  0  0  0  0
   21.3224   51.0124   37.3793 O   0  0  0  0  0  0  0  0  0  0  0  0
   19.3550   50.0972   35.9890 O   0  0  0  0  0  0  0  0  0  0  0  0
   21.5488   50.9633   34.5873 H   0  0  0  0  0  0  0  0  0  0  0  0
   21.8702   50.2508   37.1330 H   0  0  0  0  0  0  0  0  0  0  0  0
   20.2341   54.2546   36.6277 S   0  0  0  0  0  0  0  0  0  0  0  0
   21.5789   53.9872   37.0322 O   0  0  0  0  0  0  0  0  0  0  0  0
   19.6472   55.3255   37.4974 O   0  0  0  0  0  0  0  0  0  0  0  0
   20.2084   54.7043   35.1953 O   0  0  0  0  0  0  0  0  0  0  0  0
   20.5880   54.0117   34.6321 H   0  0  0  0  0  0  0  0  0  0  0  0
 15 16  1  0  0  0
 16 14  1  0  0  0
 14 13  1  0  0  0
 13  7  1  0  0  0
  7  8  2  0  0  0
  7 10  1  0  0  0
  8  9  1  0  0  0
  9 12  2  0  0  0
 10 11  2  0  0  0
 11 12  1  0  0  0
 12  1  1  0  0  0
  1  2  2  0  0  0
  1  4  1  0  0  0
  2  3  1  0  0  0
  3  6  2  0  0  0
  4  5  2  0  0  0
  5  6  1  0  0  0
  6 17  1  0  0  0
 17 18  1  0  0  0
 18 19  1  0  0  0
 19 20  1  0  0  0
 20 27  1  0  0  0
 27 28  2  0  0  0
 27 29  2  0  0  0
 27 30  1  0  0  0
 21 24  2  0  0  0
 21 22  1  0  0  0
 21 23  1  0  0  0
 20 21  1  0  0  0
 22 25  1  0  0  0
 23 26  1  0  0  0
 30 31  1  0  0  0
M  END
> <minimizedAffinity>
-10.53755

$$$$
2ZCR_B69_A_668


 31 32  0  0  0  0  0  0  0  0999 V2000
   15.4687   55.7486   37.8289 C   0  0  0  0  0  0  0  0  0  0  0  0
   15.4667   55.0953   36.6004 C   0  0  0  0  0  0  0  0  0  0  0  0
   16.2603   53.9665   36.4150 C   0  0  0  0  0  0  0  0  0  0  0  0
   16.2792   55.2822   38.8564 C   0  0  0  0  0  0  0  0  0  0  0  0
   17.0706   54.1531   38.6713 C   0  0  0  0  0  0  0  0  0  0  0  0
   17.0570   53.4902   37.4489 C   0  0  0  0  0  0  0  0  0  0  0  0
   12.9122   58.9912   38.4891 C   0  0  0  0  0  0  0  0  0  0  0  0
   12.6995   58.1489   37.4020 C   0  0  0  0  0  0  0  0  0  0  0  0
   13.5235   57.0487   37.1913 C   0  0  0  0  0  0  0  0  0  0  0  0
   13.9737   58.7408   39.3491 C   0  0  0  0  0  0  0  0  0  0  0  0
   14.7991   57.6423   39.1380 C   0  0  0  0  0  0  0  0  0  0  0  0
   14.5769   56.7899   38.0622 C   0  0  0  0  0  0  0  0  0  0  0  0
   11.8443   60.0091   38.8989 C   0  0  0  0  0  0  0  0  0  0  0  0
   10.4035   59.4943   38.9344 C   0  0  0  0  0  0  0  0  0  0  0  0
    9.7410   61.8048   38.1224 C   0  0  0  0  0  0  0  0  0  0  0  0
    9.5899   60.2976   37.9146 C   0  0  0  0  0  0  0  0  0  0  0  0
   17.8856   52.2179   37.2404 C   0  0  0  0  0  0  0  0  0  0  0  0
   19.2573   52.5342   36.6414 C   0  0  0  0  0  0  0  0  0  0  0  0
   19.9898   51.2534   36.2361 C   0  0  0  0  0  0  0  0  0  0  0  0
   21.3425   51.5234   35.5766 C   0  0  0  0  0  0  0  0  0  0  0  0
   21.7051   50.2537   34.2962 P   0  0  0  0  0  0  0  0  0  0  0  0
   22.9260   50.8051   33.4013 O   0  0  0  0  0  0  0  0  0  0  0  0
   22.2535   48.9655   35.0896 O   0  0  0  0  0  0  0  0  0  0  0  0
   20.5122   49.9592   33.4703 O   0  0  0  0  0  0  0  0  0  0  0  0
   23.1422   50.1556   32.7141 H   0  0  0  0  0  0  0  0  0  0  0  0
   22.4616   48.2604   34.4567 H   0  0  0  0  0  0  0  0  0  0  0  0
   22.6451   51.5093   36.8624 S   0  0  0  0  0  0  0  0  0  0  0  0
   22.4716   50.3593   37.6937 O   0  0  0  0  0  0  0  0  0  0  0  0
   22.5384   52.7539   37.6912 O   0  0  0  0  0  0  0  0  0  0  0  0
   23.9913   51.4648   36.1987 O   0  0  0  0  0  0  0  0  0  0  0  0
   24.0609   50.6597   35.6622 H   0  0  0  0  0  0  0  0  0  0  0  0
 15 16  1  0  0  0
 16 14  1  0  0  0
 14 13  1  0  0  0
 13  7  1  0  0  0
  7  8  2  0  0  0
  7 10  1  0  0  0
  8  9  1  0  0  0
  9 12  2  0  0  0
 10 11  2  0  0  0
 11 12  1  0  0  0
 12  1  1  0  0  0
  1  2  2  0  0  0
  1  4  1  0  0  0
  2  3  1  0  0  0
  3  6  2  0  0  0
  4  5  2  0  0  0
  5  6  1  0  0  0
  6 17  1  0  0  0
 17 18  1  0  0  0
 18 19  1  0  0  0
 19 20  1  0  0  0
 20 27  1  0  0  0
 27 28  2  0  0  0
 27 29  2  0  0  0
 27 30  1  0  0  0
 21 24  2  0  0  0
 21 22  1  0  0  0
 21 23  1  0  0  0
 20 21  1  0  0  0
 22 25  1  0  0  0
 23 26  1  0  0  0
 30 31  1  0  0  0
M  END
> <minimizedAffinity>
-10.50970

$$$$
2ZCR_B69_A_668


 31 32  0  0  0  0  0  0  0  0999 V2000
   15.7347   56.1640   38.0557 C   0  0  0  0  0  0  0  0  0  0  0  0
   16.5948   56.2859   36.9687 C   0  0  0  0  0  0  0  0  0  0  0  0
   17.5808   55.3265   36.7549 C   0  0  0  0  0  0  0  0  0  0  0  0
   15.8792   55.0964   38.9329 C   0  0  0  0  0  0  0  0  0  0  0  0
   16.8634   54.1370   38.7178 C   0  0  0  0  0  0  0  0  0  0  0  0
   17.7131   54.2495   37.6227 C   0  0  0  0  0  0  0  0  0  0  0  0
   12.4117   58.6639   38.4971 C   0  0  0  0  0  0  0  0  0  0  0  0
   13.3983   58.6400   39.4783 C   0  0  0  0  0  0  0  0  0  0  0  0
   14.5236   57.8371   39.3264 C   0  0  0  0  0  0  0  0  0  0  0  0
   12.5454   57.8566   37.3749 C   0  0  0  0  0  0  0  0  0  0  0  0
   13.6691   57.0521   37.2234 C   0  0  0  0  0  0  0  0  0  0  0  0
   14.6640   57.0407   38.1946 C   0  0  0  0  0  0  0  0  0  0  0  0
   11.3378   59.7553   38.5073 C   0  0  0  0  0  0  0  0  0  0  0  0
    9.8912   59.2760   38.3666 C   0  0  0  0  0  0  0  0  0  0  0  0
    9.7680   61.7637   37.8837 C   0  0  0  0  0  0  0  0  0  0  0  0
    8.9895   60.5123   38.2911 C   0  0  0  0  0  0  0  0  0  0  0  0
   18.7728   53.1783   37.3423 C   0  0  0  0  0  0  0  0  0  0  0  0
   20.1808   53.7759   37.3163 C   0  0  0  0  0  0  0  0  0  0  0  0
   21.0953   52.9900   36.3743 C   0  0  0  0  0  0  0  0  0  0  0  0
   21.4175   51.5870   36.8891 C   0  0  0  0  0  0  0  0  0  0  0  0
   23.2013   51.4458   37.3148 P   0  0  0  0  0  0  0  0  0  0  0  0
   23.4098   50.0323   38.0593 O   0  0  0  0  0  0  0  0  0  0  0  0
   23.9875   51.3549   35.9137 O   0  0  0  0  0  0  0  0  0  0  0  0
   23.6499   52.5778   38.1569 O   0  0  0  0  0  0  0  0  0  0  0  0
   24.3441   49.9272   38.2977 H   0  0  0  0  0  0  0  0  0  0  0  0
   24.9398   51.2785   36.0817 H   0  0  0  0  0  0  0  0  0  0  0  0
   20.9807   50.3645   35.5988 S   0  0  0  0  0  0  0  0  0  0  0  0
   19.6231   49.9549   35.7807 O   0  0  0  0  0  0  0  0  0  0  0  0
   21.8876   49.1762   35.7129 O   0  0  0  0  0  0  0  0  0  0  0  0
   21.1503   50.9944   34.2464 O   0  0  0  0  0  0  0  0  0  0  0  0
   20.5637   51.7633   34.1719 H   0  0  0  0  0  0  0  0  0  0  0  0
 15 16  1  0  0  0
 16 14  1  0  0  0
 14 13  1  0  0  0
 13  7  1  0  0  0
  7  8  2  0  0  0
  7 10  1  0  0  0
  8  9  1  0  0  0
  9 12  2  0  0  0
 10 11  2  0  0  0
 11 12  1  0  0  0
 12  1  1  0  0  0
  1  2  2  0  0  0
  1  4  1  0  0  0
  2  3  1  0  0  0
  3  6  2  0  0  0
  4  5  2  0  0  0
  5  6  1  0  0  0
  6 17  1  0  0  0
 17 18  1  0  0  0
 18 19  1  0  0  0
 19 20  1  0  0  0
 20 27  1  0  0  0
 27 28  2  0  0  0
 27 29  2  0  0  0
 27 30  1  0  0  0
 21 24  2  0  0  0
 21 22  1  0  0  0
 21 23  1  0  0  0
 20 21  1  0  0  0
 22 25  1  0  0  0
 23 26  1  0  0  0
 30 31  1  0  0  0
M  END
> <minimizedAffinity>
-10.34130

$$$$
2ZCR_B69_A_668


 31 32  0  0  0  0  0  0  0  0999 V2000
   14.7418   56.3425   37.7884 C   0  0  0  0  0  0  0  0  0  0  0  0
   15.4380   55.6554   38.7779 C   0  0  0  0  0  0  0  0  0  0  0  0
   16.1626   54.5130   38.4487 C   0  0  0  0  0  0  0  0  0  0  0  0
   14.7572   55.8718   36.4813 C   0  0  0  0  0  0  0  0  0  0  0  0
   15.4829   54.7314   36.1524 C   0  0  0  0  0  0  0  0  0  0  0  0
   16.1920   54.0532   37.1378 C   0  0  0  0  0  0  0  0  0  0  0  0
   12.7738   59.9072   38.7403 C   0  0  0  0  0  0  0  0  0  0  0  0
   13.8956   59.5178   39.4659 C   0  0  0  0  0  0  0  0  0  0  0  0
   14.5772   58.3512   39.1371 C   0  0  0  0  0  0  0  0  0  0  0  0
   12.3216   59.1055   37.7001 C   0  0  0  0  0  0  0  0  0  0  0  0
   13.0014   57.9381   37.3722 C   0  0  0  0  0  0  0  0  0  0  0  0
   14.1327   57.5570   38.0851 C   0  0  0  0  0  0  0  0  0  0  0  0
   12.2075   61.3216   38.8924 C   0  0  0  0  0  0  0  0  0  0  0  0
   10.7681   61.4179   39.4034 C   0  0  0  0  0  0  0  0  0  0  0  0
    8.7278   60.5670   38.1585 C   0  0  0  0  0  0  0  0  0  0  0  0
    9.8488   61.6062   38.1923 C   0  0  0  0  0  0  0  0  0  0  0  0
   17.0351   52.8224   36.7870 C   0  0  0  0  0  0  0  0  0  0  0  0
   17.4295   52.0375   38.0395 C   0  0  0  0  0  0  0  0  0  0  0  0
   18.9457   52.0538   38.2451 C   0  0  0  0  0  0  0  0  0  0  0  0
   19.7122   52.4868   36.9952 C   0  0  0  0  0  0  0  0  0  0  0  0
   20.8722   51.1655   36.4551 P   0  0  0  0  0  0  0  0  0  0  0  0
   19.9929   49.9987   35.7762 O   0  0  0  0  0  0  0  0  0  0  0  0
   21.7703   51.8119   35.2868 O   0  0  0  0  0  0  0  0  0  0  0  0
   21.6775   50.6539   37.5871 O   0  0  0  0  0  0  0  0  0  0  0  0
   20.5779   49.2840   35.4796 H   0  0  0  0  0  0  0  0  0  0  0  0
   22.4040   51.1523   34.9637 H   0  0  0  0  0  0  0  0  0  0  0  0
   20.6372   54.0221   37.3660 S   0  0  0  0  0  0  0  0  0  0  0  0
   20.0566   54.6554   38.5087 O   0  0  0  0  0  0  0  0  0  0  0  0
   20.5648   54.9431   36.1854 O   0  0  0  0  0  0  0  0  0  0  0  0
   22.0720   53.6774   37.6436 O   0  0  0  0  0  0  0  0  0  0  0  0
   22.1195   53.0814   38.4074 H   0  0  0  0  0  0  0  0  0  0  0  0
 15 16  1  0  0  0
 16 14  1  0  0  0
 14 13  1  0  0  0
 13  7  1  0  0  0
  7  8  2  0  0  0
  7 10  1  0  0  0
  8  9  1  0  0  0
  9 12  2  0  0  0
 10 11  2  0  0  0
 11 12  1  0  0  0
 12  1  1  0  0  0
  1  2  2  0  0  0
  1  4  1  0  0  0
  2  3  1  0  0  0
  3  6  2  0  0  0
  4  5  2  0  0  0
  5  6  1  0  0  0
  6 17  1  0  0  0
 17 18  1  0  0  0
 18 19  1  0  0  0
 19 20  1  0  0  0
 20 27  1  0  0  0
 27 28  2  0  0  0
 27 29  2  0  0  0
 27 30  1  0  0  0
 21 24  2  0  0  0
 21 22  1  0  0  0
 21 23  1  0  0  0
 20 21  1  0  0  0
 22 25  1  0  0  0
 23 26  1  0  0  0
 30 31  1  0  0  0
M  END
> <minimizedAffinity>
-9.90974

$$$$
2ZCR_B69_A_668


 31 32  0  0  0  0  0  0  0  0999 V2000
   15.8217   55.4033   37.8029 C   0  0  0  0  0  0  0  0  0  0  0  0
   16.5276   54.8124   38.8463 C   0  0  0  0  0  0  0  0  0  0  0  0
   17.4441   53.7998   38.5763 C   0  0  0  0  0  0  0  0  0  0  0  0
   16.0208   54.9639   36.5000 C   0  0  0  0  0  0  0  0  0  0  0  0
   16.9381   53.9533   36.2304 C   0  0  0  0  0  0  0  0  0  0  0  0
   17.6557   53.3733   37.2709 C   0  0  0  0  0  0  0  0  0  0  0  0
   13.2543   58.6092   38.5886 C   0  0  0  0  0  0  0  0  0  0  0  0
   14.3256   58.3524   39.4389 C   0  0  0  0  0  0  0  0  0  0  0  0
   15.2048   57.3093   39.1694 C   0  0  0  0  0  0  0  0  0  0  0  0
   13.0523   57.7962   37.4807 C   0  0  0  0  0  0  0  0  0  0  0  0
   13.9296   56.7519   37.2117 C   0  0  0  0  0  0  0  0  0  0  0  0
   15.0106   56.5054   38.0508 C   0  0  0  0  0  0  0  0  0  0  0  0
   12.4734   59.9212   38.7034 C   0  0  0  0  0  0  0  0  0  0  0  0
   11.0619   59.8145   39.2850 C   0  0  0  0  0  0  0  0  0  0  0  0
    8.7178   59.5110   38.3631 C   0  0  0  0  0  0  0  0  0  0  0  0
   10.0680   60.2066   38.1870 C   0  0  0  0  0  0  0  0  0  0  0  0
   18.7043   52.2917   36.9894 C   0  0  0  0  0  0  0  0  0  0  0  0
   20.1255   52.8280   37.1706 C   0  0  0  0  0  0  0  0  0  0  0  0
   21.0472   52.3340   36.0535 C   0  0  0  0  0  0  0  0  0  0  0  0
   21.3738   50.8446   36.1649 C   0  0  0  0  0  0  0  0  0  0  0  0
   23.0613   50.6000   36.8544 P   0  0  0  0  0  0  0  0  0  0  0  0
   23.9542   49.9016   35.7096 O   0  0  0  0  0  0  0  0  0  0  0  0
   23.6665   52.0734   37.0833 O   0  0  0  0  0  0  0  0  0  0  0  0
   23.0298   49.7894   38.0928 O   0  0  0  0  0  0  0  0  0  0  0  0
   24.8537   49.7586   36.0435 H   0  0  0  0  0  0  0  0  0  0  0  0
   24.5622   52.0019   37.4485 H   0  0  0  0  0  0  0  0  0  0  0  0
   21.2569   50.0836   34.5043 S   0  0  0  0  0  0  0  0  0  0  0  0
   21.4978   48.6787   34.6138 O   0  0  0  0  0  0  0  0  0  0  0  0
   22.2799   50.7038   33.6007 O   0  0  0  0  0  0  0  0  0  0  0  0
   19.8843   50.3274   33.9467 O   0  0  0  0  0  0  0  0  0  0  0  0
   19.2220   49.9263   34.5310 H   0  0  0  0  0  0  0  0  0  0  0  0
 15 16  1  0  0  0
 16 14  1  0  0  0
 14 13  1  0  0  0
 13  7  1  0  0  0
  7  8  2  0  0  0
  7 10  1  0  0  0
  8  9  1  0  0  0
  9 12  2  0  0  0
 10 11  2  0  0  0
 11 12  1  0  0  0
 12  1  1  0  0  0
  1  2  2  0  0  0
  1  4  1  0  0  0
  2  3  1  0  0  0
  3  6  2  0  0  0
  4  5  2  0  0  0
  5  6  1  0  0  0
  6 17  1  0  0  0
 17 18  1  0  0  0
 18 19  1  0  0  0
 19 20  1  0  0  0
 20 27  1  0  0  0
 27 28  2  0  0  0
 27 29  2  0  0  0
 27 30  1  0  0  0
 21 24  2  0  0  0
 21 22  1  0  0  0
 21 23  1  0  0  0
 20 21  1  0  0  0
 22 25  1  0  0  0
 23 26  1  0  0  0
 30 31  1  0  0  0
M  END
> <minimizedAffinity>
-9.83152

$$$$
2ZCR_B69_A_668


 31 32  0  0  0  0  0  0  0  0999 V2000
   14.0393   57.0563   38.0952 C   0  0  0  0  0  0  0  0  0  0  0  0
   14.7234   56.7323   39.2627 C   0  0  0  0  0  0  0  0  0  0  0  0
   15.6770   55.7180   39.2478 C   0  0  0  0  0  0  0  0  0  0  0  0
   14.2974   56.3508   36.9265 C   0  0  0  0  0  0  0  0  0  0  0  0
   15.2517   55.3386   36.9116 C   0  0  0  0  0  0  0  0  0  0  0  0
   15.9473   55.0250   38.0741 C   0  0  0  0  0  0  0  0  0  0  0  0
   11.3509   60.2578   37.9999 C   0  0  0  0  0  0  0  0  0  0  0  0
   11.9720   59.9075   39.1950 C   0  0  0  0  0  0  0  0  0  0  0  0
   12.8924   58.8658   39.2316 C   0  0  0  0  0  0  0  0  0  0  0  0
   11.6363   59.5392   36.8461 C   0  0  0  0  0  0  0  0  0  0  0  0
   12.5548   58.4963   36.8824 C   0  0  0  0  0  0  0  0  0  0  0  0
   13.1893   58.1568   38.0722 C   0  0  0  0  0  0  0  0  0  0  0  0
   10.5821   61.5771   37.8860 C   0  0  0  0  0  0  0  0  0  0  0  0
    9.1488   61.5681   38.4224 C   0  0  0  0  0  0  0  0  0  0  0  0
    7.1868   60.0069   38.8094 C   0  0  0  0  0  0  0  0  0  0  0  0
    8.5436   60.1914   38.1293 C   0  0  0  0  0  0  0  0  0  0  0  0
   17.0352   53.9455   38.0669 C   0  0  0  0  0  0  0  0  0  0  0  0
   17.8703   53.9998   36.7863 C   0  0  0  0  0  0  0  0  0  0  0  0
   18.2900   52.5968   36.3426 C   0  0  0  0  0  0  0  0  0  0  0  0
   19.6071   52.1416   36.9715 C   0  0  0  0  0  0  0  0  0  0  0  0
   20.8309   53.5146   36.9799 P   0  0  0  0  0  0  0  0  0  0  0  0
   22.2932   52.8572   37.1380 O   0  0  0  0  0  0  0  0  0  0  0  0
   20.7719   54.1724   35.5125 O   0  0  0  0  0  0  0  0  0  0  0  0
   20.5494   54.4864   38.0607 O   0  0  0  0  0  0  0  0  0  0  0  0
   22.9637   53.5582   37.1458 H   0  0  0  0  0  0  0  0  0  0  0  0
   21.4029   54.9074   35.4620 H   0  0  0  0  0  0  0  0  0  0  0  0
   20.2619   50.7218   36.0199 S   0  0  0  0  0  0  0  0  0  0  0  0
   19.1808   49.8569   35.6636 O   0  0  0  0  0  0  0  0  0  0  0  0
   21.2521   49.9741   36.8614 O   0  0  0  0  0  0  0  0  0  0  0  0
   20.9419   51.2308   34.7817 O   0  0  0  0  0  0  0  0  0  0  0  0
   20.3017   51.7147   34.2369 H   0  0  0  0  0  0  0  0  0  0  0  0
 15 16  1  0  0  0
 16 14  1  0  0  0
 14 13  1  0  0  0
 13  7  1  0  0  0
  7  8  2  0  0  0
  7 10  1  0  0  0
  8  9  1  0  0  0
  9 12  2  0  0  0
 10 11  2  0  0  0
 11 12  1  0  0  0
 12  1  1  0  0  0
  1  2  2  0  0  0
  1  4  1  0  0  0
  2  3  1  0  0  0
  3  6  2  0  0  0
  4  5  2  0  0  0
  5  6  1  0  0  0
  6 17  1  0  0  0
 17 18  1  0  0  0
 18 19  1  0  0  0
 19 20  1  0  0  0
 20 27  1  0  0  0
 27 28  2  0  0  0
 27 29  2  0  0  0
 27 30  1  0  0  0
 21 24  2  0  0  0
 21 22  1  0  0  0
 21 23  1  0  0  0
 20 21  1  0  0  0
 22 25  1  0  0  0
 23 26  1  0  0  0
 30 31  1  0  0  0
M  END
> <minimizedAffinity>
-9.79853

$$$$
2ZCR_B69_A_668


 31 32  0  0  0  0  0  0  0  0999 V2000
   16.2633   55.1934   37.2950 C   0  0  0  0  0  0  0  0  0  0  0  0
   15.8279   53.8873   37.0935 C   0  0  0  0  0  0  0  0  0  0  0  0
   16.7516   52.8858   36.8068 C   0  0  0  0  0  0  0  0  0  0  0  0
   17.6155   55.4936   37.1877 C   0  0  0  0  0  0  0  0  0  0  0  0
   18.5384   54.4923   36.9030 C   0  0  0  0  0  0  0  0  0  0  0  0
   18.1058   53.1838   36.7174 C   0  0  0  0  0  0  0  0  0  0  0  0
   13.4404   57.9974   38.5816 C   0  0  0  0  0  0  0  0  0  0  0  0
   14.5267   57.6827   39.3926 C   0  0  0  0  0  0  0  0  0  0  0  0
   15.4889   56.7763   38.9610 C   0  0  0  0  0  0  0  0  0  0  0  0
   13.3086   57.3767   37.3461 C   0  0  0  0  0  0  0  0  0  0  0  0
   14.2691   56.4689   36.9148 C   0  0  0  0  0  0  0  0  0  0  0  0
   15.3642   56.1670   37.7167 C   0  0  0  0  0  0  0  0  0  0  0  0
   12.5546   59.2025   38.9093 C   0  0  0  0  0  0  0  0  0  0  0  0
   11.8387   59.8527   37.7232 C   0  0  0  0  0  0  0  0  0  0  0  0
    9.7844   61.3396   37.6484 C   0  0  0  0  0  0  0  0  0  0  0  0
   10.3561   59.9902   38.0843 C   0  0  0  0  0  0  0  0  0  0  0  0
   19.1114   52.0587   36.4495 C   0  0  0  0  0  0  0  0  0  0  0  0
   20.5341   52.4771   36.8252 C   0  0  0  0  0  0  0  0  0  0  0  0
   21.4614   51.2628   36.9091 C   0  0  0  0  0  0  0  0  0  0  0  0
   22.8289   51.5117   36.2725 C   0  0  0  0  0  0  0  0  0  0  0  0
   23.3073   50.1030   35.1910 P   0  0  0  0  0  0  0  0  0  0  0  0
   23.2991   50.6365   33.6709 O   0  0  0  0  0  0  0  0  0  0  0  0
   24.8366   49.7606   35.5565 O   0  0  0  0  0  0  0  0  0  0  0  0
   22.3980   48.9483   35.3693 O   0  0  0  0  0  0  0  0  0  0  0  0
   23.5482   49.9142   33.0734 H   0  0  0  0  0  0  0  0  0  0  0  0
   25.1412   49.0189   35.0106 H   0  0  0  0  0  0  0  0  0  0  0  0
   24.0708   51.7363   37.5982 S   0  0  0  0  0  0  0  0  0  0  0  0
   24.1384   50.5445   38.3848 O   0  0  0  0  0  0  0  0  0  0  0  0
   23.6694   52.8924   38.4642 O   0  0  0  0  0  0  0  0  0  0  0  0
   25.4084   52.0181   36.9770 O   0  0  0  0  0  0  0  0  0  0  0  0
   25.6686   51.2704   36.4165 H   0  0  0  0  0  0  0  0  0  0  0  0
 15 16  1  0  0  0
 16 14  1  0  0  0
 14 13  1  0  0  0
 13  7  1  0  0  0
  7  8  2  0  0  0
  7 10  1  0  0  0
  8  9  1  0  0  0
  9 12  2  0  0  0
 10 11  2  0  0  0
 11 12  1  0  0  0
 12  1  1  0  0  0
  1  2  2  0  0  0
  1  4  1  0  0  0
  2  3  1  0  0  0
  3  6  2  0  0  0
  4  5  2  0  0  0
  5  6  1  0  0  0
  6 17  1  0  0  0
 17 18  1  0  0  0
 18 19  1  0  0  0
 19 20  1  0  0  0
 20 27  1  0  0  0
 27 28  2  0  0  0
 27 29  2  0  0  0
 27 30  1  0  0  0
 21 24  2  0  0  0
 21 22  1  0  0  0
 21 23  1  0  0  0
 20 21  1  0  0  0
 22 25  1  0  0  0
 23 26  1  0  0  0
 30 31  1  0  0  0
M  END
> <minimizedAffinity>
-9.72193

$$$$
2ZCR_B69_A_668


 31 32  0  0  0  0  0  0  0  0999 V2000
   16.4350   53.8311   37.5238 C   0  0  0  0  0  0  0  0  0  0  0  0
   17.3957   53.8338   36.5173 C   0  0  0  0  0  0  0  0  0  0  0  0
   17.9014   52.6278   36.0395 C   0  0  0  0  0  0  0  0  0  0  0  0
   16.0020   52.6250   38.0604 C   0  0  0  0  0  0  0  0  0  0  0  0
   16.5062   51.4201   37.5813 C   0  0  0  0  0  0  0  0  0  0  0  0
   17.4546   51.4214   36.5643 C   0  0  0  0  0  0  0  0  0  0  0  0
   14.4565   57.3329   38.6680 C   0  0  0  0  0  0  0  0  0  0  0  0
   15.2696   56.6650   39.5788 C   0  0  0  0  0  0  0  0  0  0  0  0
   15.9581   55.5180   39.1995 C   0  0  0  0  0  0  0  0  0  0  0  0
   14.3148   56.8285   37.3817 C   0  0  0  0  0  0  0  0  0  0  0  0
   15.0013   55.6806   37.0024 C   0  0  0  0  0  0  0  0  0  0  0  0
   15.8278   55.0224   37.9062 C   0  0  0  0  0  0  0  0  0  0  0  0
   13.9460   58.7431   38.9767 C   0  0  0  0  0  0  0  0  0  0  0  0
   12.4306   58.8905   39.1307 C   0  0  0  0  0  0  0  0  0  0  0  0
   11.8829   59.4676   36.7216 C   0  0  0  0  0  0  0  0  0  0  0  0
   11.9611   59.9792   38.1603 C   0  0  0  0  0  0  0  0  0  0  0  0
   17.9875   50.1038   35.9908 C   0  0  0  0  0  0  0  0  0  0  0  0
   18.8621   50.3418   34.7584 C   0  0  0  0  0  0  0  0  0  0  0  0
   20.2522   49.7296   34.9431 C   0  0  0  0  0  0  0  0  0  0  0  0
   21.3822   50.7126   34.6359 C   0  0  0  0  0  0  0  0  0  0  0  0
   22.6924   49.9018   33.6315 P   0  0  0  0  0  0  0  0  0  0  0  0
   21.9639   49.1316   32.4184 O   0  0  0  0  0  0  0  0  0  0  0  0
   23.5530   51.0936   32.9769 O   0  0  0  0  0  0  0  0  0  0  0  0
   23.5117   48.9796   34.4502 O   0  0  0  0  0  0  0  0  0  0  0  0
   22.6306   48.6918   31.8679 H   0  0  0  0  0  0  0  0  0  0  0  0
   24.2630   50.7186   32.4327 H   0  0  0  0  0  0  0  0  0  0  0  0
   22.0855   51.3226   36.2118 S   0  0  0  0  0  0  0  0  0  0  0  0
   21.7625   50.4026   37.2572 O   0  0  0  0  0  0  0  0  0  0  0  0
   21.5065   52.6694   36.5258 O   0  0  0  0  0  0  0  0  0  0  0  0
   23.5760   51.4396   36.0729 O   0  0  0  0  0  0  0  0  0  0  0  0
   23.9512   50.5685   35.8697 H   0  0  0  0  0  0  0  0  0  0  0  0
 15 16  1  0  0  0
 16 14  1  0  0  0
 14 13  1  0  0  0
 13  7  1  0  0  0
  7  8  2  0  0  0
  7 10  1  0  0  0
  8  9  1  0  0  0
  9 12  2  0  0  0
 10 11  2  0  0  0
 11 12  1  0  0  0
 12  1  1  0  0  0
  1  2  2  0  0  0
  1  4  1  0  0  0
  2  3  1  0  0  0
  3  6  2  0  0  0
  4  5  2  0  0  0
  5  6  1  0  0  0
  6 17  1  0  0  0
 17 18  1  0  0  0
 18 19  1  0  0  0
 19 20  1  0  0  0
 20 27  1  0  0  0
 27 28  2  0  0  0
 27 29  2  0  0  0
 27 30  1  0  0  0
 21 24  2  0  0  0
 21 22  1  0  0  0
 21 23  1  0  0  0
 20 21  1  0  0  0
 22 25  1  0  0  0
 23 26  1  0  0  0
 30 31  1  0  0  0
M  END
> <minimizedAffinity>
-9.41156

$$$$
2ZCR_B69_A_668


 31 32  0  0  0  0  0  0  0  0999 V2000
   17.0548   55.2435   37.4619 C   0  0  0  0  0  0  0  0  0  0  0  0
   17.4020   54.3203   38.4434 C   0  0  0  0  0  0  0  0  0  0  0  0
   18.6774   53.7620   38.4490 C   0  0  0  0  0  0  0  0  0  0  0  0
   17.9769   55.5863   36.4809 C   0  0  0  0  0  0  0  0  0  0  0  0
   19.2518   55.0296   36.4879 C   0  0  0  0  0  0  0  0  0  0  0  0
   19.6049   54.1191   37.4778 C   0  0  0  0  0  0  0  0  0  0  0  0
   13.4681   57.3838   37.6646 C   0  0  0  0  0  0  0  0  0  0  0  0
   13.7615   56.6249   36.5356 C   0  0  0  0  0  0  0  0  0  0  0  0
   14.9359   55.8831   36.4710 C   0  0  0  0  0  0  0  0  0  0  0  0
   14.3727   57.4179   38.7180 C   0  0  0  0  0  0  0  0  0  0  0  0
   15.5480   56.6781   38.6533 C   0  0  0  0  0  0  0  0  0  0  0  0
   15.8338   55.9054   37.5332 C   0  0  0  0  0  0  0  0  0  0  0  0
   12.0603   57.9491   37.8716 C   0  0  0  0  0  0  0  0  0  0  0  0
   11.7646   59.2844   37.1849 C   0  0  0  0  0  0  0  0  0  0  0  0
   10.7471   59.9397   39.4148 C   0  0  0  0  0  0  0  0  0  0  0  0
   11.6682   60.3620   38.2698 C   0  0  0  0  0  0  0  0  0  0  0  0
   21.0190   53.5305   37.5302 C   0  0  0  0  0  0  0  0  0  0  0  0
   21.0549   52.1072   36.9706 C   0  0  0  0  0  0  0  0  0  0  0  0
   22.3935   51.8171   36.2886 C   0  0  0  0  0  0  0  0  0  0  0  0
   23.2507   50.8134   37.0601 C   0  0  0  0  0  0  0  0  0  0  0  0
   24.6632   51.6605   37.8788 P   0  0  0  0  0  0  0  0  0  0  0  0
   25.4626   50.5520   38.7318 O   0  0  0  0  0  0  0  0  0  0  0  0
   25.6446   52.1346   36.6949 O   0  0  0  0  0  0  0  0  0  0  0  0
   24.2044   52.7799   38.7322 O   0  0  0  0  0  0  0  0  0  0  0  0
   26.2166   50.9688   39.1775 H   0  0  0  0  0  0  0  0  0  0  0  0
   26.4121   52.5906   37.0743 H   0  0  0  0  0  0  0  0  0  0  0  0
   23.8687   49.5412   35.8983 S   0  0  0  0  0  0  0  0  0  0  0  0
   23.8520   50.0705   34.5704 O   0  0  0  0  0  0  0  0  0  0  0  0
   22.9869   48.3309   35.9720 O   0  0  0  0  0  0  0  0  0  0  0  0
   25.2699   49.1626   36.2828 O   0  0  0  0  0  0  0  0  0  0  0  0
   25.8409   49.9453   36.2353 H   0  0  0  0  0  0  0  0  0  0  0  0
 15 16  1  0  0  0
 16 14  1  0  0  0
 14 13  1  0  0  0
 13  7  1  0  0  0
  7  8  2  0  0  0
  7 10  1  0  0  0
  8  9  1  0  0  0
  9 12  2  0  0  0
 10 11  2  0  0  0
 11 12  1  0  0  0
 12  1  1  0  0  0
  1  2  2  0  0  0
  1  4  1  0  0  0
  2  3  1  0  0  0
  3  6  2  0  0  0
  4  5  2  0  0  0
  5  6  1  0  0  0
  6 17  1  0  0  0
 17 18  1  0  0  0
 18 19  1  0  0  0
 19 20  1  0  0  0
 20 27  1  0  0  0
 27 28  2  0  0  0
 27 29  2  0  0  0
 27 30  1  0  0  0
 21 24  2  0  0  0
 21 22  1  0  0  0
 21 23  1  0  0  0
 20 21  1  0  0  0
 22 25  1  0  0  0
 23 26  1  0  0  0
 30 31  1  0  0  0
M  END
> <minimizedAffinity>
-9.33153

$$$$
2ZCR_B69_A_668


 31 32  0  0  0  0  0  0  0  0999 V2000
   17.8859   54.2399   37.2281 C   0  0  0  0  0  0  0  0  0  0  0  0
   19.0758   54.8296   36.8126 C   0  0  0  0  0  0  0  0  0  0  0  0
   20.1165   54.0329   36.3431 C   0  0  0  0  0  0  0  0  0  0  0  0
   17.7520   52.8575   37.1914 C   0  0  0  0  0  0  0  0  0  0  0  0
   18.7915   52.0620   36.7204 C   0  0  0  0  0  0  0  0  0  0  0  0
   19.9751   52.6516   36.2900 C   0  0  0  0  0  0  0  0  0  0  0  0
   14.5097   56.5192   38.1727 C   0  0  0  0  0  0  0  0  0  0  0  0
   15.2406   55.9071   39.1865 C   0  0  0  0  0  0  0  0  0  0  0  0
   16.3837   55.1740   38.8868 C   0  0  0  0  0  0  0  0  0  0  0  0
   14.9150   56.3688   36.8527 C   0  0  0  0  0  0  0  0  0  0  0  0
   16.0565   55.6345   36.5523 C   0  0  0  0  0  0  0  0  0  0  0  0
   16.7977   55.0372   37.5658 C   0  0  0  0  0  0  0  0  0  0  0  0
   13.4446   57.5657   38.5114 C   0  0  0  0  0  0  0  0  0  0  0  0
   13.9577   58.8776   39.1095 C   0  0  0  0  0  0  0  0  0  0  0  0
   12.4246   59.7145   37.2694 C   0  0  0  0  0  0  0  0  0  0  0  0
   13.0295   60.0039   38.6435 C   0  0  0  0  0  0  0  0  0  0  0  0
   21.1139   51.7962   35.7241 C   0  0  0  0  0  0  0  0  0  0  0  0
   20.5786   50.5710   34.9806 C   0  0  0  0  0  0  0  0  0  0  0  0
   21.7153   49.6253   34.5872 C   0  0  0  0  0  0  0  0  0  0  0  0
   23.0129   50.3604   34.2504 C   0  0  0  0  0  0  0  0  0  0  0  0
   23.5450   49.9827   32.5307 P   0  0  0  0  0  0  0  0  0  0  0  0
   24.7255   51.0119   32.1533 O   0  0  0  0  0  0  0  0  0  0  0  0
   24.2041   48.5155   32.5808 O   0  0  0  0  0  0  0  0  0  0  0  0
   22.4143   50.0761   31.5795 O   0  0  0  0  0  0  0  0  0  0  0  0
   25.0292   50.8380   31.2486 H   0  0  0  0  0  0  0  0  0  0  0  0
   24.5040   48.2653   31.6929 H   0  0  0  0  0  0  0  0  0  0  0  0
   24.3109   49.8509   35.4361 S   0  0  0  0  0  0  0  0  0  0  0  0
   24.5181   50.9002   36.3846 O   0  0  0  0  0  0  0  0  0  0  0  0
   25.5847   49.5815   34.6928 O   0  0  0  0  0  0  0  0  0  0  0  0
   23.8700   48.6008   36.1413 O   0  0  0  0  0  0  0  0  0  0  0  0
   23.0458   48.7745   36.6225 H   0  0  0  0  0  0  0  0  0  0  0  0
 15 16  1  0  0  0
 16 14  1  0  0  0
 14 13  1  0  0  0
 13  7  1  0  0  0
  7  8  2  0  0  0
  7 10  1  0  0  0
  8  9  1  0  0  0
  9 12  2  0  0  0
 10 11  2  0  0  0
 11 12  1  0  0  0
 12  1  1  0  0  0
  1  2  2  0  0  0
  1  4  1  0  0  0
  2  3  1  0  0  0
  3  6  2  0  0  0
  4  5  2  0  0  0
  5  6  1  0  0  0
  6 17  1  0  0  0
 17 18  1  0  0  0
 18 19  1  0  0  0
 19 20  1  0  0  0
 20 27  1  0  0  0
 27 28  2  0  0  0
 27 29  2  0  0  0
 27 30  1  0  0  0
 21 24  2  0  0  0
 21 22  1  0  0  0
 21 23  1  0  0  0
 20 21  1  0  0  0
 22 25  1  0  0  0
 23 26  1  0  0  0
 30 31  1  0  0  0
M  END
> <minimizedAffinity>
-9.00896

$$$$
