3N86_RJP_A_147


 27 28  0  0  0  0  0  0  0  0999 V2000
   31.8415   24.0160    2.8701 O   0  0  0  0  0  0  0  0  0  0  0  0
   31.2714   26.3089    1.0700 O   0  0  0  0  0  0  0  0  0  0  0  0
   27.7250   23.5207    1.7666 O   0  0  0  0  0  0  0  0  0  0  0  0
   28.9792   23.9613   -0.2752 C   0  0  0  0  0  0  0  0  0  0  0  0
   30.0697   22.7332    1.6860 C   0  0  0  0  0  0  0  0  0  0  0  0
   29.9434   24.9188   -0.2059 C   0  0  0  0  0  0  0  0  0  0  0  0
   30.6407   24.1186    2.0950 C   0  0  0  0  0  0  0  0  0  0  0  0
   30.7007   25.0938    0.9099 C   0  0  0  0  0  0  0  0  0  0  0  0
   28.7736   22.9580    0.8581 C   0  0  0  0  0  0  0  0  0  0  0  0
   31.7077   23.3808    3.5909 H   0  0  0  0  0  0  0  0  0  0  0  0
   28.0316   24.3665    2.1294 H   0  0  0  0  0  0  0  0  0  0  0  0
   27.7006   20.9248    1.1915 O   0  0  0  0  0  0  0  0  0  0  0  0
   28.4480   21.3306   -0.8844 O   0  0  0  0  0  0  0  0  0  0  0  0
   28.2511   21.6542    0.3255 C   0  0  0  0  0  0  0  0  0  0  0  0
   27.5918   21.2385    2.0677 H   0  0  0  0  0  0  0  0  0  0  0  0
   30.1627   25.9416   -1.3131 C   0  0  0  0  0  0  0  0  0  0  0  0
   29.1767   25.9263   -2.4460 C   0  0  0  0  0  0  0  0  0  0  0  0
   27.1569   27.1299   -2.5749 O   0  0  0  0  0  0  0  0  0  0  0  0
   29.2190   28.2411   -2.4323 N   0  0  0  0  0  0  0  0  0  0  0  0
   28.3860   27.1805   -2.4453 C   0  0  0  0  0  0  0  0  0  0  0  0
   30.1827   28.0399   -2.4328 H   0  0  0  0  0  0  0  0  0  0  0  0
   28.1987   32.2342   -2.3514 C   0  0  0  0  0  0  0  0  0  0  0  0
   27.6785   31.4529   -3.3880 C   0  0  0  0  0  0  0  0  0  0  0  0
   29.0452   31.6995   -1.3527 C   0  0  0  0  0  0  0  0  0  0  0  0
   28.0147   30.0913   -3.4047 C   0  0  0  0  0  0  0  0  0  0  0  0
   29.4000   30.3447   -1.3776 C   0  0  0  0  0  0  0  0  0  0  0  0
   28.8741   29.5687   -2.4183 C   0  0  0  0  0  0  0  0  0  0  0  0
 18 20  2  0  0  0
 14 12  1  0  0  0
 14 13  2  0  0  0
  1  7  1  0  0  0
  2  8  2  0  0  0
  3  9  1  0  0  0
 16 17  1  0  0  0
 17 20  1  0  0  0
  6 16  1  0  0  0
  9  4  1  0  0  0
  6  4  2  0  0  0
 23 22  2  0  0  0
 22 24  1  0  0  0
 25 23  1  0  0  0
 26 24  2  0  0  0
 25 27  2  0  0  0
 27 26  1  0  0  0
  7  5  1  0  0  0
  5  9  1  0  0  0
 20 19  1  0  0  0
 19 27  1  0  0  0
  9 14  1  0  0  0
  8  6  1  0  0  0
  7  8  1  0  0  0
 12 15  1  0  0  0
  1 10  1  0  0  0
  3 11  1  0  0  0
 19 21  1  0  0  0
M  END
> <minimizedAffinity>
-10.91145

$$$$
3N86_RJP_A_147


 27 28  0  0  0  0  0  0  0  0999 V2000
   31.8693   23.9535    2.8941 O   0  0  0  0  0  0  0  0  0  0  0  0
   31.3303   26.2683    1.1126 O   0  0  0  0  0  0  0  0  0  0  0  0
   27.7474   23.5210    1.7845 O   0  0  0  0  0  0  0  0  0  0  0  0
   29.0085   23.9620   -0.2530 C   0  0  0  0  0  0  0  0  0  0  0  0
   30.0816   22.7037    1.6986 C   0  0  0  0  0  0  0  0  0  0  0  0
   29.9850   24.9063   -0.1753 C   0  0  0  0  0  0  0  0  0  0  0  0
   30.6704   24.0781    2.1192 C   0  0  0  0  0  0  0  0  0  0  0  0
   30.7439   25.0622    0.9423 C   0  0  0  0  0  0  0  0  0  0  0  0
   28.7891   22.9522    0.8719 C   0  0  0  0  0  0  0  0  0  0  0  0
   31.7268   23.3142    3.6096 H   0  0  0  0  0  0  0  0  0  0  0  0
   28.0647   24.3597    2.1544 H   0  0  0  0  0  0  0  0  0  0  0  0
   27.6756   20.9376    1.1848 O   0  0  0  0  0  0  0  0  0  0  0  0
   28.4563   21.3365   -0.8802 O   0  0  0  0  0  0  0  0  0  0  0  0
   28.2500   21.6597    0.3283 C   0  0  0  0  0  0  0  0  0  0  0  0
   27.5614   21.2504    2.0606 H   0  0  0  0  0  0  0  0  0  0  0  0
   30.2183   25.9352   -1.2739 C   0  0  0  0  0  0  0  0  0  0  0  0
   29.2547   25.9175   -2.4259 C   0  0  0  0  0  0  0  0  0  0  0  0
   27.2337   27.1081   -2.6326 O   0  0  0  0  0  0  0  0  0  0  0  0
   29.2744   28.2312   -2.3462 N   0  0  0  0  0  0  0  0  0  0  0  0
   28.4533   27.1649   -2.4342 C   0  0  0  0  0  0  0  0  0  0  0  0
   30.2385   28.0377   -2.2993 H   0  0  0  0  0  0  0  0  0  0  0  0
   28.1826   32.2057   -2.2901 C   0  0  0  0  0  0  0  0  0  0  0  0
   29.0469   31.7566   -1.2867 C   0  0  0  0  0  0  0  0  0  0  0  0
   27.6871   31.3498   -3.3008 C   0  0  0  0  0  0  0  0  0  0  0  0
   29.4291   30.4073   -1.3168 C   0  0  0  0  0  0  0  0  0  0  0  0
   28.0499   29.9970   -3.3223 C   0  0  0  0  0  0  0  0  0  0  0  0
   28.9167   29.5551   -2.3147 C   0  0  0  0  0  0  0  0  0  0  0  0
 18 20  2  0  0  0
 14 12  1  0  0  0
 14 13  2  0  0  0
  1  7  1  0  0  0
  2  8  2  0  0  0
  3  9  1  0  0  0
 16 17  1  0  0  0
 17 20  1  0  0  0
  6 16  1  0  0  0
  9  4  1  0  0  0
  6  4  2  0  0  0
 23 22  2  0  0  0
 22 24  1  0  0  0
 25 23  1  0  0  0
 26 24  2  0  0  0
 25 27  2  0  0  0
 27 26  1  0  0  0
  7  5  1  0  0  0
  5  9  1  0  0  0
 20 19  1  0  0  0
 19 27  1  0  0  0
  9 14  1  0  0  0
  8  6  1  0  0  0
  7  8  1  0  0  0
 12 15  1  0  0  0
  1 10  1  0  0  0
  3 11  1  0  0  0
 19 21  1  0  0  0
M  END
> <minimizedAffinity>
-10.87558

$$$$
3N86_RJP_A_147


 27 28  0  0  0  0  0  0  0  0999 V2000
   28.6684   32.5786   -0.9800 O   0  0  0  0  0  0  0  0  0  0  0  0
   30.3391   30.1230   -0.9416 O   0  0  0  0  0  0  0  0  0  0  0  0
   28.4626   31.0737   -4.9926 O   0  0  0  0  0  0  0  0  0  0  0  0
   28.0518   29.2007   -3.4896 C   0  0  0  0  0  0  0  0  0  0  0  0
   27.3541   31.5738   -2.8374 C   0  0  0  0  0  0  0  0  0  0  0  0
   28.8302   29.1283   -2.3760 C   0  0  0  0  0  0  0  0  0  0  0  0
   28.6981   31.6391   -2.0616 C   0  0  0  0  0  0  0  0  0  0  0  0
   29.2328   30.2430   -1.7093 C   0  0  0  0  0  0  0  0  0  0  0  0
   27.4959   30.5346   -3.9844 C   0  0  0  0  0  0  0  0  0  0  0  0
   28.3181   33.4257   -1.2971 H   0  0  0  0  0  0  0  0  0  0  0  0
   29.3248   31.2143   -4.5709 H   0  0  0  0  0  0  0  0  0  0  0  0
   26.2524   30.3944   -5.9416 O   0  0  0  0  0  0  0  0  0  0  0  0
   25.1123   30.2059   -4.0188 O   0  0  0  0  0  0  0  0  0  0  0  0
   26.1825   30.3357   -4.6860 C   0  0  0  0  0  0  0  0  0  0  0  0
   27.0850   30.4913   -6.3605 H   0  0  0  0  0  0  0  0  0  0  0  0
   29.4106   27.8154   -1.8666 C   0  0  0  0  0  0  0  0  0  0  0  0
   29.5272   26.7003   -2.8662 C   0  0  0  0  0  0  0  0  0  0  0  0
   28.9275   24.4244   -2.7934 O   0  0  0  0  0  0  0  0  0  0  0  0
   29.7150   25.5287   -0.8782 N   0  0  0  0  0  0  0  0  0  0  0  0
   29.3965   25.3917   -2.1815 C   0  0  0  0  0  0  0  0  0  0  0  0
   29.9679   26.4331   -0.5828 H   0  0  0  0  0  0  0  0  0  0  0  0
   29.7838   22.6011    2.0230 C   0  0  0  0  0  0  0  0  0  0  0  0
   28.8715   22.4527    0.9737 C   0  0  0  0  0  0  0  0  0  0  0  0
   30.6639   23.7046    2.1099 C   0  0  0  0  0  0  0  0  0  0  0  0
   28.8605   23.4422   -0.0204 C   0  0  0  0  0  0  0  0  0  0  0  0
   30.6417   24.7055    1.1302 C   0  0  0  0  0  0  0  0  0  0  0  0
   29.7260   24.5490    0.0820 C   0  0  0  0  0  0  0  0  0  0  0  0
 18 20  2  0  0  0
 14 12  1  0  0  0
 14 13  2  0  0  0
  1  7  1  0  0  0
  2  8  2  0  0  0
  3  9  1  0  0  0
 16 17  1  0  0  0
 17 20  1  0  0  0
  6 16  1  0  0  0
  9  4  1  0  0  0
  6  4  2  0  0  0
 23 22  2  0  0  0
 22 24  1  0  0  0
 25 23  1  0  0  0
 26 24  2  0  0  0
 25 27  2  0  0  0
 27 26  1  0  0  0
  7  5  1  0  0  0
  5  9  1  0  0  0
 20 19  1  0  0  0
 19 27  1  0  0  0
  9 14  1  0  0  0
  8  6  1  0  0  0
  7  8  1  0  0  0
 12 15  1  0  0  0
  1 10  1  0  0  0
  3 11  1  0  0  0
 19 21  1  0  0  0
M  END
> <minimizedAffinity>
-9.19416

$$$$
