1CNY_EG3_A_555


 39 40  0  0  0  0  0  0  0  0999 V2000
    0.2190    9.2949   12.2581 C   0  0  0  0  0  0  0  0  0  0  0  0
   -0.7498    8.1262   12.6817 O   0  0  0  0  0  0  0  0  0  0  0  0
   -1.7437    8.3229   13.5058 C   0  0  0  0  0  0  0  0  0  0  0  0
   -3.0129    7.5788   13.1845 C   0  0  0  0  0  0  0  0  0  0  0  0
   -4.5671    5.6796   13.9346 C   0  0  0  0  0  0  0  0  0  0  0  0
   -5.0589    6.1437   12.8639 O   0  0  0  0  0  0  0  0  0  0  0  0
   -3.4325    6.6105   14.2661 N   0  0  0  0  0  0  0  0  0  0  0  0
   -2.9860    6.5898   15.1433 H   0  0  0  0  0  0  0  0  0  0  0  0
   -4.8982    4.5790   14.6402 C   0  0  0  0  0  0  0  0  0  0  0  0
   -3.9147    3.6589   14.9808 C   0  0  0  0  0  0  0  0  0  0  0  0
   -4.1975    2.5225   15.6848 C   0  0  0  0  0  0  0  0  0  0  0  0
   -5.5064    2.2993   16.0495 C   0  0  0  0  0  0  0  0  0  0  0  0
   -6.4853    3.1776   15.7077 C   0  0  0  0  0  0  0  0  0  0  0  0
   -6.2081    4.3556   15.0039 C   0  0  0  0  0  0  0  0  0  0  0  0
   -5.8932    0.8952   16.9654 S   0  0  0  0  0  0  0  0  0  0  0  0
   -5.3543    0.8393   18.3310 O   0  0  0  0  0  0  0  0  0  0  0  0
   -7.3049    0.7055   16.9570 O   0  0  0  0  0  0  0  0  0  0  0  0
   -5.1648   -0.1956   16.2903 N   0  0  0  0  0  0  0  0  0  0  0  0
   -5.3422   -1.0747   16.7764 H   0  0  0  0  0  0  0  0  0  0  0  0
   -4.1647    0.0043   16.3033 H   0  0  0  0  0  0  0  0  0  0  0  0
    1.6231    8.9106   12.7779 C   0  0  0  0  0  0  0  0  0  0  0  0
    1.9525    7.5405   12.3738 O   0  0  0  0  0  0  0  0  0  0  0  0
    2.3397    7.5135   10.9097 C   0  0  0  0  0  0  0  0  0  0  0  0
    1.8059    6.3404   10.2610 C   0  0  0  0  0  0  0  0  0  0  0  0
    0.5059    6.0736   10.8532 N   0  0  0  0  0  0  0  0  0  0  0  0
    0.4648    4.6390   11.3616 C   0  0  0  0  0  0  0  0  0  0  0  0
    1.4493    3.9002   11.2494 O   0  0  0  0  0  0  0  0  0  0  0  0
   -0.2337    6.7204   10.9160 H   0  0  0  0  0  0  0  0  0  0  0  0
   -0.7497    4.1468   12.1136 C   0  0  0  0  0  0  0  0  0  0  0  0
   -0.8244    4.8437   13.4493 N   0  0  0  0  0  0  0  0  0  0  0  0
   -0.9409    5.8465   13.3036 H   0  0  0  0  0  0  0  0  0  0  0  0
    0.0359    4.6735   13.9702 H   0  0  0  0  0  0  0  0  0  0  0  0
   -2.0644    4.3141   11.3462 C   0  0  0  0  0  0  0  0  0  0  0  0
   -3.0212    3.1269   11.5811 C   0  0  0  0  0  0  0  0  0  0  0  0
   -4.3287    3.2325   11.0682 C   0  0  0  0  0  0  0  0  0  0  0  0
   -5.2256    2.1637   11.2568 C   0  0  0  0  0  0  0  0  0  0  0  0
   -4.8278    1.0663   11.9255 C   0  0  0  0  0  0  0  0  0  0  0  0
   -3.5201    0.9604   12.4408 C   0  0  0  0  0  0  0  0  0  0  0  0
   -2.6443    2.0497   12.2802 C   0  0  0  0  0  0  0  0  0  0  0  0
 15 16  2  0  0  0
 15 17  2  0  0  0
 15 18  1  0  0  0
 15 12  1  0  0  0
  9 10  2  0  0  0
  9 14  1  0  0  0
  9  5  1  0  0  0
 10 11  1  0  0  0
 11 12  2  0  0  0
 12 13  1  0  0  0
 13 14  2  0  0  0
  5  6  2  0  0  0
  5  7  1  0  0  0
  7  4  1  0  0  0
  4  3  1  0  0  0
  3  2  1  0  0  0
  2  1  1  0  0  0
  1 21  1  0  0  0
 21 22  1  0  0  0
 22 23  1  0  0  0
 23 24  1  0  0  0
 24 25  1  0  0  0
 25 26  1  0  0  0
 26 27  2  0  0  0
 26 29  1  0  0  0
 29 30  1  0  0  0
 29 33  1  0  0  0
 33 34  1  0  0  0
 34 35  2  0  0  0
 34 39  1  0  0  0
 35 36  1  0  0  0
 36 37  2  0  0  0
 37 38  1  0  0  0
 38 39  2  0  0  0
 18 19  1  0  0  0
 18 20  1  0  0  0
  7  8  1  0  0  0
 25 28  1  0  0  0
 30 31  1  0  0  0
 30 32  1  0  0  0
M  END
> <minimizedAffinity>
-6.44592

$$$$
1CNY_EG3_A_555


 39 40  0  0  0  0  0  0  0  0999 V2000
   -2.8467    6.6074    9.3340 C   0  0  0  0  0  0  0  0  0  0  0  0
   -4.0999    7.5390    9.5468 O   0  0  0  0  0  0  0  0  0  0  0  0
   -4.9624    7.3219   10.5033 C   0  0  0  0  0  0  0  0  0  0  0  0
   -4.3798    7.1741   11.8841 C   0  0  0  0  0  0  0  0  0  0  0  0
   -4.4424    5.0166   13.2720 C   0  0  0  0  0  0  0  0  0  0  0  0
   -3.3816    4.9685   12.5821 O   0  0  0  0  0  0  0  0  0  0  0  0
   -5.1662    6.2370   12.7712 N   0  0  0  0  0  0  0  0  0  0  0  0
   -6.1045    6.4159   13.0094 H   0  0  0  0  0  0  0  0  0  0  0  0
   -4.8650    4.2227   14.2770 C   0  0  0  0  0  0  0  0  0  0  0  0
   -4.0692    3.1649   14.6987 C   0  0  0  0  0  0  0  0  0  0  0  0
   -4.4543    2.3240   15.7045 C   0  0  0  0  0  0  0  0  0  0  0  0
   -5.6768    2.5462   16.2978 C   0  0  0  0  0  0  0  0  0  0  0  0
   -6.4779    3.5632   15.8850 C   0  0  0  0  0  0  0  0  0  0  0  0
   -6.0887    4.4448   14.8695 C   0  0  0  0  0  0  0  0  0  0  0  0
   -6.1787    1.5271   17.5898 S   0  0  0  0  0  0  0  0  0  0  0  0
   -5.3967    0.3002   17.7933 O   0  0  0  0  0  0  0  0  0  0  0  0
   -6.2595    2.2950   18.7869 O   0  0  0  0  0  0  0  0  0  0  0  0
   -7.4878    1.0028   17.1566 N   0  0  0  0  0  0  0  0  0  0  0  0
   -7.8599    0.3816   17.8749 H   0  0  0  0  0  0  0  0  0  0  0  0
   -7.3751    0.4854   16.2848 H   0  0  0  0  0  0  0  0  0  0  0  0
   -3.3954    5.2200    8.9298 C   0  0  0  0  0  0  0  0  0  0  0  0
   -2.4572    4.1693    9.3354 O   0  0  0  0  0  0  0  0  0  0  0  0
   -1.0581    4.7396    9.4413 C   0  0  0  0  0  0  0  0  0  0  0  0
   -0.4237    4.3148   10.6656 C   0  0  0  0  0  0  0  0  0  0  0  0
   -0.4283    5.4515   11.5710 N   0  0  0  0  0  0  0  0  0  0  0  0
    0.9853    6.0016   11.7018 C   0  0  0  0  0  0  0  0  0  0  0  0
    1.9222    5.4917   11.0774 O   0  0  0  0  0  0  0  0  0  0  0  0
   -1.2226    5.8103   12.0289 H   0  0  0  0  0  0  0  0  0  0  0  0
    1.2285    7.2534   12.5121 C   0  0  0  0  0  0  0  0  0  0  0  0
    2.5878    7.8113   12.1706 N   0  0  0  0  0  0  0  0  0  0  0  0
    2.6090    8.0759   11.1858 H   0  0  0  0  0  0  0  0  0  0  0  0
    3.3003    7.1033   12.3479 H   0  0  0  0  0  0  0  0  0  0  0  0
    0.1486    8.3250   12.3374 C   0  0  0  0  0  0  0  0  0  0  0  0
   -0.6307    8.5733   13.6456 C   0  0  0  0  0  0  0  0  0  0  0  0
   -1.5420    7.5823   14.0592 C   0  0  0  0  0  0  0  0  0  0  0  0
   -2.2637    7.7723   15.2532 C   0  0  0  0  0  0  0  0  0  0  0  0
   -2.0804    8.8928   15.9746 C   0  0  0  0  0  0  0  0  0  0  0  0
   -1.1701    9.8861   15.5606 C   0  0  0  0  0  0  0  0  0  0  0  0
   -0.4828    9.7037   14.3465 C   0  0  0  0  0  0  0  0  0  0  0  0
 15 16  2  0  0  0
 15 17  2  0  0  0
 15 18  1  0  0  0
 15 12  1  0  0  0
  9 10  2  0  0  0
  9 14  1  0  0  0
  9  5  1  0  0  0
 10 11  1  0  0  0
 11 12  2  0  0  0
 12 13  1  0  0  0
 13 14  2  0  0  0
  5  6  2  0  0  0
  5  7  1  0  0  0
  7  4  1  0  0  0
  4  3  1  0  0  0
  3  2  1  0  0  0
  2  1  1  0  0  0
  1 21  1  0  0  0
 21 22  1  0  0  0
 22 23  1  0  0  0
 23 24  1  0  0  0
 24 25  1  0  0  0
 25 26  1  0  0  0
 26 27  2  0  0  0
 26 29  1  0  0  0
 29 30  1  0  0  0
 29 33  1  0  0  0
 33 34  1  0  0  0
 34 35  2  0  0  0
 34 39  1  0  0  0
 35 36  1  0  0  0
 36 37  2  0  0  0
 37 38  1  0  0  0
 38 39  2  0  0  0
 18 19  1  0  0  0
 18 20  1  0  0  0
  7  8  1  0  0  0
 25 28  1  0  0  0
 30 31  1  0  0  0
 30 32  1  0  0  0
M  END
> <minimizedAffinity>
-5.71408

$$$$
1CNY_EG3_A_555


 39 40  0  0  0  0  0  0  0  0999 V2000
   -0.0299    5.3358   11.8968 C   0  0  0  0  0  0  0  0  0  0  0  0
   -0.7038    6.1691   13.0523 O   0  0  0  0  0  0  0  0  0  0  0  0
   -1.7411    5.7208   13.7071 C   0  0  0  0  0  0  0  0  0  0  0  0
   -2.8738    6.6981   13.8803 C   0  0  0  0  0  0  0  0  0  0  0  0
   -2.1187    8.9166   14.9259 C   0  0  0  0  0  0  0  0  0  0  0  0
   -2.5247    8.1901   15.8804 O   0  0  0  0  0  0  0  0  0  0  0  0
   -2.4605    8.1383   13.6843 N   0  0  0  0  0  0  0  0  0  0  0  0
   -2.4170    8.5467   12.7896 H   0  0  0  0  0  0  0  0  0  0  0  0
   -1.4723   10.1001   14.9455 C   0  0  0  0  0  0  0  0  0  0  0  0
   -1.9743   11.1699   14.2153 C   0  0  0  0  0  0  0  0  0  0  0  0
   -1.3531   12.3867   14.1917 C   0  0  0  0  0  0  0  0  0  0  0  0
   -0.1902   12.5308   14.9148 C   0  0  0  0  0  0  0  0  0  0  0  0
    0.3270   11.4899   15.6186 C   0  0  0  0  0  0  0  0  0  0  0  0
   -0.3083   10.2433   15.6683 C   0  0  0  0  0  0  0  0  0  0  0  0
    0.6003   14.0587   14.9345 S   0  0  0  0  0  0  0  0  0  0  0  0
   -0.0425   15.1347   14.1682 O   0  0  0  0  0  0  0  0  0  0  0  0
    0.8294   14.4495   16.2851 O   0  0  0  0  0  0  0  0  0  0  0  0
    1.8502   13.8350   14.1834 N   0  0  0  0  0  0  0  0  0  0  0  0
    2.3852   14.7027   14.1475 H   0  0  0  0  0  0  0  0  0  0  0  0
    1.6275   13.5334   13.2349 H   0  0  0  0  0  0  0  0  0  0  0  0
   -0.9355    4.1061   11.6575 C   0  0  0  0  0  0  0  0  0  0  0  0
   -1.4870    4.1429   10.2998 O   0  0  0  0  0  0  0  0  0  0  0  0
   -2.5801    5.1879   10.2152 C   0  0  0  0  0  0  0  0  0  0  0  0
   -3.8777    4.5643   10.1194 C   0  0  0  0  0  0  0  0  0  0  0  0
   -4.2621    4.1596   11.4612 N   0  0  0  0  0  0  0  0  0  0  0  0
   -4.4443    2.6485   11.5027 C   0  0  0  0  0  0  0  0  0  0  0  0
   -4.2555    1.9612   10.4929 O   0  0  0  0  0  0  0  0  0  0  0  0
   -4.3856    4.7683   12.2251 H   0  0  0  0  0  0  0  0  0  0  0  0
   -4.7468    1.9678   12.8171 C   0  0  0  0  0  0  0  0  0  0  0  0
   -4.2389    0.5481   12.7710 N   0  0  0  0  0  0  0  0  0  0  0  0
   -3.2254    0.5532   12.6557 H   0  0  0  0  0  0  0  0  0  0  0  0
   -4.6680    0.0588   11.9856 H   0  0  0  0  0  0  0  0  0  0  0  0
   -4.1845    2.7001   14.0389 C   0  0  0  0  0  0  0  0  0  0  0  0
   -5.0636    2.4897   15.2891 C   0  0  0  0  0  0  0  0  0  0  0  0
   -4.7463    1.4087   16.1343 C   0  0  0  0  0  0  0  0  0  0  0  0
   -5.5224    1.1927   17.2890 C   0  0  0  0  0  0  0  0  0  0  0  0
   -6.5540    2.0110   17.5646 C   0  0  0  0  0  0  0  0  0  0  0  0
   -6.8736    3.0919   16.7184 C   0  0  0  0  0  0  0  0  0  0  0  0
   -6.1156    3.2756   15.5474 C   0  0  0  0  0  0  0  0  0  0  0  0
 15 16  2  0  0  0
 15 17  2  0  0  0
 15 18  1  0  0  0
 15 12  1  0  0  0
  9 10  2  0  0  0
  9 14  1  0  0  0
  9  5  1  0  0  0
 10 11  1  0  0  0
 11 12  2  0  0  0
 12 13  1  0  0  0
 13 14  2  0  0  0
  5  6  2  0  0  0
  5  7  1  0  0  0
  7  4  1  0  0  0
  4  3  1  0  0  0
  3  2  1  0  0  0
  2  1  1  0  0  0
  1 21  1  0  0  0
 21 22  1  0  0  0
 22 23  1  0  0  0
 23 24  1  0  0  0
 24 25  1  0  0  0
 25 26  1  0  0  0
 26 27  2  0  0  0
 26 29  1  0  0  0
 29 30  1  0  0  0
 29 33  1  0  0  0
 33 34  1  0  0  0
 34 35  2  0  0  0
 34 39  1  0  0  0
 35 36  1  0  0  0
 36 37  2  0  0  0
 37 38  1  0  0  0
 38 39  2  0  0  0
 18 19  1  0  0  0
 18 20  1  0  0  0
  7  8  1  0  0  0
 25 28  1  0  0  0
 30 31  1  0  0  0
 30 32  1  0  0  0
M  END
> <minimizedAffinity>
-5.62128

$$$$
1CNY_EG3_A_555


 39 40  0  0  0  0  0  0  0  0999 V2000
   -4.7574    7.0643   11.6181 C   0  0  0  0  0  0  0  0  0  0  0  0
   -5.1738    5.8619   12.5480 O   0  0  0  0  0  0  0  0  0  0  0  0
   -5.3472    6.0161   13.8333 C   0  0  0  0  0  0  0  0  0  0  0  0
   -4.1562    5.6887   14.6948 C   0  0  0  0  0  0  0  0  0  0  0  0
   -2.0780    7.1928   14.6322 C   0  0  0  0  0  0  0  0  0  0  0  0
   -1.7757    6.1371   14.0015 O   0  0  0  0  0  0  0  0  0  0  0  0
   -3.4363    6.9112   15.2151 N   0  0  0  0  0  0  0  0  0  0  0  0
   -3.8358    7.4940   15.9006 H   0  0  0  0  0  0  0  0  0  0  0  0
   -1.4097    8.3582   14.7514 C   0  0  0  0  0  0  0  0  0  0  0  0
   -0.3809    8.6545   13.8661 C   0  0  0  0  0  0  0  0  0  0  0  0
    0.3351    9.8153   13.9490 C   0  0  0  0  0  0  0  0  0  0  0  0
    0.0147   10.6997   14.9546 C   0  0  0  0  0  0  0  0  0  0  0  0
   -0.9747   10.4180   15.8424 C   0  0  0  0  0  0  0  0  0  0  0  0
   -1.7299    9.2422   15.7583 C   0  0  0  0  0  0  0  0  0  0  0  0
    0.8735   12.1861   15.0683 S   0  0  0  0  0  0  0  0  0  0  0  0
    0.1156   13.4027   14.7459 O   0  0  0  0  0  0  0  0  0  0  0  0
    1.4803   12.2787   16.3537 O   0  0  0  0  0  0  0  0  0  0  0  0
    1.8596   12.1251   13.9727 N   0  0  0  0  0  0  0  0  0  0  0  0
    2.4173   12.9791   13.9693 H   0  0  0  0  0  0  0  0  0  0  0  0
    1.3722   12.0337   13.0813 H   0  0  0  0  0  0  0  0  0  0  0  0
   -3.3979    6.6819   10.9896 C   0  0  0  0  0  0  0  0  0  0  0  0
   -3.5663    6.3905    9.5628 O   0  0  0  0  0  0  0  0  0  0  0  0
   -3.9991    4.9509    9.3779 C   0  0  0  0  0  0  0  0  0  0  0  0
   -3.2348    4.0733   10.2309 C   0  0  0  0  0  0  0  0  0  0  0  0
   -4.1823    3.2464   10.9590 N   0  0  0  0  0  0  0  0  0  0  0  0
   -3.5789    2.8416   12.2970 C   0  0  0  0  0  0  0  0  0  0  0  0
   -2.4498    3.2245   12.6228 O   0  0  0  0  0  0  0  0  0  0  0  0
   -5.0760    2.9879   10.6370 H   0  0  0  0  0  0  0  0  0  0  0  0
   -4.4109    2.0597   13.2865 C   0  0  0  0  0  0  0  0  0  0  0  0
   -4.3897    0.5990   12.9103 N   0  0  0  0  0  0  0  0  0  0  0  0
   -3.4343    0.2467   12.9687 H   0  0  0  0  0  0  0  0  0  0  0  0
   -4.7352    0.4885   11.9569 H   0  0  0  0  0  0  0  0  0  0  0  0
   -3.9787    2.2453   14.7439 C   0  0  0  0  0  0  0  0  0  0  0  0
   -5.1260    1.9336   15.7271 C   0  0  0  0  0  0  0  0  0  0  0  0
   -6.1697    2.8736   15.8295 C   0  0  0  0  0  0  0  0  0  0  0  0
   -7.2374    2.6167   16.7107 C   0  0  0  0  0  0  0  0  0  0  0  0
   -7.2436    1.4885   17.4434 C   0  0  0  0  0  0  0  0  0  0  0  0
   -6.1986    0.5480   17.3431 C   0  0  0  0  0  0  0  0  0  0  0  0
   -5.1179    0.8329   16.4883 C   0  0  0  0  0  0  0  0  0  0  0  0
 15 16  2  0  0  0
 15 17  2  0  0  0
 15 18  1  0  0  0
 15 12  1  0  0  0
  9 10  2  0  0  0
  9 14  1  0  0  0
  9  5  1  0  0  0
 10 11  1  0  0  0
 11 12  2  0  0  0
 12 13  1  0  0  0
 13 14  2  0  0  0
  5  6  2  0  0  0
  5  7  1  0  0  0
  7  4  1  0  0  0
  4  3  1  0  0  0
  3  2  1  0  0  0
  2  1  1  0  0  0
  1 21  1  0  0  0
 21 22  1  0  0  0
 22 23  1  0  0  0
 23 24  1  0  0  0
 24 25  1  0  0  0
 25 26  1  0  0  0
 26 27  2  0  0  0
 26 29  1  0  0  0
 29 30  1  0  0  0
 29 33  1  0  0  0
 33 34  1  0  0  0
 34 35  2  0  0  0
 34 39  1  0  0  0
 35 36  1  0  0  0
 36 37  2  0  0  0
 37 38  1  0  0  0
 38 39  2  0  0  0
 18 19  1  0  0  0
 18 20  1  0  0  0
  7  8  1  0  0  0
 25 28  1  0  0  0
 30 31  1  0  0  0
 30 32  1  0  0  0
M  END
> <minimizedAffinity>
-5.60756

$$$$
1CNY_EG3_A_555


 39 40  0  0  0  0  0  0  0  0999 V2000
   -0.9379   12.6482   13.4775 C   0  0  0  0  0  0  0  0  0  0  0  0
   -1.7314   11.6063   14.3541 O   0  0  0  0  0  0  0  0  0  0  0  0
   -1.1180   10.7554   15.1323 C   0  0  0  0  0  0  0  0  0  0  0  0
   -0.7351    9.4469   14.4926 C   0  0  0  0  0  0  0  0  0  0  0  0
   -2.3764    7.4878   14.2619 C   0  0  0  0  0  0  0  0  0  0  0  0
   -2.5677    8.2360   13.2582 O   0  0  0  0  0  0  0  0  0  0  0  0
   -1.4068    8.2496   15.1241 N   0  0  0  0  0  0  0  0  0  0  0  0
   -1.2194    7.9816   16.0527 H   0  0  0  0  0  0  0  0  0  0  0  0
   -2.8552    6.2570   14.5350 C   0  0  0  0  0  0  0  0  0  0  0  0
   -1.9728    5.2273   14.8364 C   0  0  0  0  0  0  0  0  0  0  0  0
   -2.4039    3.9598   15.1099 C   0  0  0  0  0  0  0  0  0  0  0  0
   -3.7588    3.7175   15.0712 C   0  0  0  0  0  0  0  0  0  0  0  0
   -4.6357    4.7071   14.7583 C   0  0  0  0  0  0  0  0  0  0  0  0
   -4.2108    6.0148   14.4951 C   0  0  0  0  0  0  0  0  0  0  0  0
   -4.3390    2.1411   15.4430 S   0  0  0  0  0  0  0  0  0  0  0  0
   -4.4723    1.2125   14.3123 O   0  0  0  0  0  0  0  0  0  0  0  0
   -3.5408    1.5818   16.4818 O   0  0  0  0  0  0  0  0  0  0  0  0
   -5.7413    2.3523   15.8491 N   0  0  0  0  0  0  0  0  0  0  0  0
   -6.1645    1.4559   16.0893 H   0  0  0  0  0  0  0  0  0  0  0  0
   -6.2581    2.7768   15.0790 H   0  0  0  0  0  0  0  0  0  0  0  0
   -1.4206   12.4542   12.0219 C   0  0  0  0  0  0  0  0  0  0  0  0
   -2.3928   11.3591   11.9551 O   0  0  0  0  0  0  0  0  0  0  0  0
   -3.6847   11.8533   11.3380 C   0  0  0  0  0  0  0  0  0  0  0  0
   -4.1713   10.9185   10.3524 C   0  0  0  0  0  0  0  0  0  0  0  0
   -4.0198    9.5853   10.9104 N   0  0  0  0  0  0  0  0  0  0  0  0
   -5.3870    8.9251   11.0255 C   0  0  0  0  0  0  0  0  0  0  0  0
   -6.4077    9.5174   10.6583 O   0  0  0  0  0  0  0  0  0  0  0  0
   -3.1654    9.1728   11.1733 H   0  0  0  0  0  0  0  0  0  0  0  0
   -5.4877    7.4895   11.4857 C   0  0  0  0  0  0  0  0  0  0  0  0
   -6.8497    7.2550   12.0903 N   0  0  0  0  0  0  0  0  0  0  0  0
   -7.5667    7.3990   11.3793 H   0  0  0  0  0  0  0  0  0  0  0  0
   -6.9974    7.9085   12.8594 H   0  0  0  0  0  0  0  0  0  0  0  0
   -5.2051    6.4638   10.3842 C   0  0  0  0  0  0  0  0  0  0  0  0
   -4.0547    5.5106   10.7691 C   0  0  0  0  0  0  0  0  0  0  0  0
   -2.7422    6.0186   10.7159 C   0  0  0  0  0  0  0  0  0  0  0  0
   -1.6688    5.1786   11.0691 C   0  0  0  0  0  0  0  0  0  0  0  0
   -1.9081    3.9088   11.4432 C   0  0  0  0  0  0  0  0  0  0  0  0
   -3.2210    3.3988   11.4950 C   0  0  0  0  0  0  0  0  0  0  0  0
   -4.2826    4.2348   11.1031 C   0  0  0  0  0  0  0  0  0  0  0  0
 15 16  2  0  0  0
 15 17  2  0  0  0
 15 18  1  0  0  0
 15 12  1  0  0  0
  9 10  2  0  0  0
  9 14  1  0  0  0
  9  5  1  0  0  0
 10 11  1  0  0  0
 11 12  2  0  0  0
 12 13  1  0  0  0
 13 14  2  0  0  0
  5  6  2  0  0  0
  5  7  1  0  0  0
  7  4  1  0  0  0
  4  3  1  0  0  0
  3  2  1  0  0  0
  2  1  1  0  0  0
  1 21  1  0  0  0
 21 22  1  0  0  0
 22 23  1  0  0  0
 23 24  1  0  0  0
 24 25  1  0  0  0
 25 26  1  0  0  0
 26 27  2  0  0  0
 26 29  1  0  0  0
 29 30  1  0  0  0
 29 33  1  0  0  0
 33 34  1  0  0  0
 34 35  2  0  0  0
 34 39  1  0  0  0
 35 36  1  0  0  0
 36 37  2  0  0  0
 37 38  1  0  0  0
 38 39  2  0  0  0
 18 19  1  0  0  0
 18 20  1  0  0  0
  7  8  1  0  0  0
 25 28  1  0  0  0
 30 31  1  0  0  0
 30 32  1  0  0  0
M  END
> <minimizedAffinity>
-5.60073

$$$$
1CNY_EG3_A_555


 39 40  0  0  0  0  0  0  0  0999 V2000
    4.0414    5.4413   13.1890 C   0  0  0  0  0  0  0  0  0  0  0  0
    3.4607    4.9328   11.8149 O   0  0  0  0  0  0  0  0  0  0  0  0
    3.3503    5.7236   10.7814 C   0  0  0  0  0  0  0  0  0  0  0  0
    2.0220    6.4173   10.6314 C   0  0  0  0  0  0  0  0  0  0  0  0
   -0.3860    5.5317   10.5823 C   0  0  0  0  0  0  0  0  0  0  0  0
   -0.2538    6.2681    9.5606 O   0  0  0  0  0  0  0  0  0  0  0  0
    0.8934    5.7173   11.3522 N   0  0  0  0  0  0  0  0  0  0  0  0
    0.9903    5.3987   12.2787 H   0  0  0  0  0  0  0  0  0  0  0  0
   -1.3903    4.7039   10.9357 C   0  0  0  0  0  0  0  0  0  0  0  0
   -1.2562    3.9019   12.0621 C   0  0  0  0  0  0  0  0  0  0  0  0
   -2.2381    3.0382   12.4582 C   0  0  0  0  0  0  0  0  0  0  0  0
   -3.3834    2.9715   11.6968 C   0  0  0  0  0  0  0  0  0  0  0  0
   -3.5242    3.7332   10.5804 C   0  0  0  0  0  0  0  0  0  0  0  0
   -2.5356    4.6368   10.1730 C   0  0  0  0  0  0  0  0  0  0  0  0
   -4.6540    1.9192   12.1850 S   0  0  0  0  0  0  0  0  0  0  0  0
   -4.4362    0.4846   11.9552 O   0  0  0  0  0  0  0  0  0  0  0  0
   -4.9824    2.1823   13.5459 O   0  0  0  0  0  0  0  0  0  0  0  0
   -5.7608    2.2260   11.2593 N   0  0  0  0  0  0  0  0  0  0  0  0
   -6.5638    1.6380   11.4827 H   0  0  0  0  0  0  0  0  0  0  0  0
   -5.4627    2.0445   10.3008 H   0  0  0  0  0  0  0  0  0  0  0  0
    4.7806    6.7653   12.8894 C   0  0  0  0  0  0  0  0  0  0  0  0
    4.2501    7.8407   13.7325 O   0  0  0  0  0  0  0  0  0  0  0  0
    3.4653    8.8208   12.8854 C   0  0  0  0  0  0  0  0  0  0  0  0
    2.4961    9.5280   13.6869 C   0  0  0  0  0  0  0  0  0  0  0  0
    1.1886    9.2770   13.1042 N   0  0  0  0  0  0  0  0  0  0  0  0
    0.1077    9.5870   14.1308 C   0  0  0  0  0  0  0  0  0  0  0  0
    0.4056    9.9979   15.2578 O   0  0  0  0  0  0  0  0  0  0  0  0
    1.0269    8.9562   12.1876 H   0  0  0  0  0  0  0  0  0  0  0  0
   -1.3474    9.5022   13.7331 C   0  0  0  0  0  0  0  0  0  0  0  0
   -1.8151   10.8574   13.2637 N   0  0  0  0  0  0  0  0  0  0  0  0
   -1.2873   11.1309   12.4349 H   0  0  0  0  0  0  0  0  0  0  0  0
   -1.6659   11.5436   14.0036 H   0  0  0  0  0  0  0  0  0  0  0  0
   -1.6397    8.4363   12.6732 C   0  0  0  0  0  0  0  0  0  0  0  0
   -2.6994    7.4236   13.1544 C   0  0  0  0  0  0  0  0  0  0  0  0
   -2.4019    6.6660   14.3038 C   0  0  0  0  0  0  0  0  0  0  0  0
   -3.3504    5.7386   14.7760 C   0  0  0  0  0  0  0  0  0  0  0  0
   -4.5169    5.5839   14.1242 C   0  0  0  0  0  0  0  0  0  0  0  0
   -4.8149    6.3403   12.9728 C   0  0  0  0  0  0  0  0  0  0  0  0
   -3.8445    7.2361   12.4875 C   0  0  0  0  0  0  0  0  0  0  0  0
 15 16  2  0  0  0
 15 17  2  0  0  0
 15 18  1  0  0  0
 15 12  1  0  0  0
  9 10  2  0  0  0
  9 14  1  0  0  0
  9  5  1  0  0  0
 10 11  1  0  0  0
 11 12  2  0  0  0
 12 13  1  0  0  0
 13 14  2  0  0  0
  5  6  2  0  0  0
  5  7  1  0  0  0
  7  4  1  0  0  0
  4  3  1  0  0  0
  3  2  1  0  0  0
  2  1  1  0  0  0
  1 21  1  0  0  0
 21 22  1  0  0  0
 22 23  1  0  0  0
 23 24  1  0  0  0
 24 25  1  0  0  0
 25 26  1  0  0  0
 26 27  2  0  0  0
 26 29  1  0  0  0
 29 30  1  0  0  0
 29 33  1  0  0  0
 33 34  1  0  0  0
 34 35  2  0  0  0
 34 39  1  0  0  0
 35 36  1  0  0  0
 36 37  2  0  0  0
 37 38  1  0  0  0
 38 39  2  0  0  0
 18 19  1  0  0  0
 18 20  1  0  0  0
  7  8  1  0  0  0
 25 28  1  0  0  0
 30 31  1  0  0  0
 30 32  1  0  0  0
M  END
> <minimizedAffinity>
-5.40966

$$$$
1CNY_EG3_A_555


 39 40  0  0  0  0  0  0  0  0999 V2000
    1.3822   10.8416   13.7366 C   0  0  0  0  0  0  0  0  0  0  0  0
    0.8064   10.9616   15.1988 O   0  0  0  0  0  0  0  0  0  0  0  0
   -0.3122   10.3835   15.5458 C   0  0  0  0  0  0  0  0  0  0  0  0
   -0.9077    9.4514   14.5238 C   0  0  0  0  0  0  0  0  0  0  0  0
   -2.5421    7.4938   14.2378 C   0  0  0  0  0  0  0  0  0  0  0  0
   -2.6949    8.2394   13.2256 O   0  0  0  0  0  0  0  0  0  0  0  0
   -1.6040    8.2568   15.1333 N   0  0  0  0  0  0  0  0  0  0  0  0
   -1.4516    7.9912   16.0690 H   0  0  0  0  0  0  0  0  0  0  0  0
   -3.0324    6.2644   14.4964 C   0  0  0  0  0  0  0  0  0  0  0  0
   -2.1671    5.2433   14.8686 C   0  0  0  0  0  0  0  0  0  0  0  0
   -2.6097    3.9775   15.1312 C   0  0  0  0  0  0  0  0  0  0  0  0
   -3.9582    3.7278   15.0081 C   0  0  0  0  0  0  0  0  0  0  0  0
   -4.8172    4.7087   14.6254 C   0  0  0  0  0  0  0  0  0  0  0  0
   -4.3816    6.0148   14.3721 C   0  0  0  0  0  0  0  0  0  0  0  0
   -4.5547    2.1537   15.3634 S   0  0  0  0  0  0  0  0  0  0  0  0
   -5.8397    2.0887   16.0726 O   0  0  0  0  0  0  0  0  0  0  0  0
   -4.5840    1.3833   14.1656 O   0  0  0  0  0  0  0  0  0  0  0  0
   -3.6109    1.6206   16.3640 N   0  0  0  0  0  0  0  0  0  0  0  0
   -3.8957    0.6786   16.6320 H   0  0  0  0  0  0  0  0  0  0  0  0
   -3.6117    2.2232   17.1870 H   0  0  0  0  0  0  0  0  0  0  0  0
    2.5750    9.8614   13.8143 C   0  0  0  0  0  0  0  0  0  0  0  0
    2.5866    8.9876   12.6374 O   0  0  0  0  0  0  0  0  0  0  0  0
    4.0127    8.6255   12.2777 C   0  0  0  0  0  0  0  0  0  0  0  0
    4.1462    7.2017   12.0860 C   0  0  0  0  0  0  0  0  0  0  0  0
    3.0413    6.7741   11.2444 N   0  0  0  0  0  0  0  0  0  0  0  0
    2.7105    5.3181   11.5425 C   0  0  0  0  0  0  0  0  0  0  0  0
    3.3404    4.6897   12.4004 O   0  0  0  0  0  0  0  0  0  0  0  0
    2.5784    7.3385   10.5838 H   0  0  0  0  0  0  0  0  0  0  0  0
    1.5266    4.6669   10.8665 C   0  0  0  0  0  0  0  0  0  0  0  0
    2.0212    3.6848    9.8338 N   0  0  0  0  0  0  0  0  0  0  0  0
    2.5541    2.9469   10.2942 H   0  0  0  0  0  0  0  0  0  0  0  0
    2.6189    4.1683    9.1635 H   0  0  0  0  0  0  0  0  0  0  0  0
    0.5568    3.9846   11.8356 C   0  0  0  0  0  0  0  0  0  0  0  0
   -0.9135    4.3105   11.5009 C   0  0  0  0  0  0  0  0  0  0  0  0
   -1.8723    3.3045   11.7297 C   0  0  0  0  0  0  0  0  0  0  0  0
   -3.2249    3.5710   11.4435 C   0  0  0  0  0  0  0  0  0  0  0  0
   -3.5808    4.7717   10.9522 C   0  0  0  0  0  0  0  0  0  0  0  0
   -2.6219    5.7785   10.7211 C   0  0  0  0  0  0  0  0  0  0  0  0
   -1.2686    5.4885   10.9741 C   0  0  0  0  0  0  0  0  0  0  0  0
 15 16  2  0  0  0
 15 17  2  0  0  0
 15 18  1  0  0  0
 15 12  1  0  0  0
  9 10  2  0  0  0
  9 14  1  0  0  0
  9  5  1  0  0  0
 10 11  1  0  0  0
 11 12  2  0  0  0
 12 13  1  0  0  0
 13 14  2  0  0  0
  5  6  2  0  0  0
  5  7  1  0  0  0
  7  4  1  0  0  0
  4  3  1  0  0  0
  3  2  1  0  0  0
  2  1  1  0  0  0
  1 21  1  0  0  0
 21 22  1  0  0  0
 22 23  1  0  0  0
 23 24  1  0  0  0
 24 25  1  0  0  0
 25 26  1  0  0  0
 26 27  2  0  0  0
 26 29  1  0  0  0
 29 30  1  0  0  0
 29 33  1  0  0  0
 33 34  1  0  0  0
 34 35  2  0  0  0
 34 39  1  0  0  0
 35 36  1  0  0  0
 36 37  2  0  0  0
 37 38  1  0  0  0
 38 39  2  0  0  0
 18 19  1  0  0  0
 18 20  1  0  0  0
  7  8  1  0  0  0
 25 28  1  0  0  0
 30 31  1  0  0  0
 30 32  1  0  0  0
M  END
> <minimizedAffinity>
-5.39761

$$$$
1CNY_EG3_A_555


 39 40  0  0  0  0  0  0  0  0999 V2000
    0.2595    4.2725   10.6613 C   0  0  0  0  0  0  0  0  0  0  0  0
   -1.3101    4.3113   10.5246 O   0  0  0  0  0  0  0  0  0  0  0  0
   -1.9639    5.4385   10.4365 C   0  0  0  0  0  0  0  0  0  0  0  0
   -3.3358    5.4456   11.0576 C   0  0  0  0  0  0  0  0  0  0  0  0
   -4.6167    4.9117   13.2161 C   0  0  0  0  0  0  0  0  0  0  0  0
   -5.1473    5.9551   12.7331 O   0  0  0  0  0  0  0  0  0  0  0  0
   -3.4175    4.6567   12.3438 N   0  0  0  0  0  0  0  0  0  0  0  0
   -2.7213    4.0088   12.5982 H   0  0  0  0  0  0  0  0  0  0  0  0
   -5.0113    4.1276   14.2400 C   0  0  0  0  0  0  0  0  0  0  0  0
   -4.2796    2.9898   14.5563 C   0  0  0  0  0  0  0  0  0  0  0  0
   -4.6413    2.1555   15.5763 C   0  0  0  0  0  0  0  0  0  0  0  0
   -5.7746    2.4678   16.2932 C   0  0  0  0  0  0  0  0  0  0  0  0
   -6.5145    3.5652   15.9854 C   0  0  0  0  0  0  0  0  0  0  0  0
   -6.1459    4.4399   14.9563 C   0  0  0  0  0  0  0  0  0  0  0  0
   -6.2408    1.4576   17.6055 S   0  0  0  0  0  0  0  0  0  0  0  0
   -5.4828    0.2097   17.7682 O   0  0  0  0  0  0  0  0  0  0  0  0
   -6.2436    2.2230   18.8069 O   0  0  0  0  0  0  0  0  0  0  0  0
   -7.5826    0.9696   17.2344 N   0  0  0  0  0  0  0  0  0  0  0  0
   -7.9361    0.3558   17.9684 H   0  0  0  0  0  0  0  0  0  0  0  0
   -7.5257    0.4526   16.3570 H   0  0  0  0  0  0  0  0  0  0  0  0
    0.8295    4.5721    9.2560 C   0  0  0  0  0  0  0  0  0  0  0  0
    2.0014    5.4461    9.3633 O   0  0  0  0  0  0  0  0  0  0  0  0
    2.0173    6.1239   10.7177 C   0  0  0  0  0  0  0  0  0  0  0  0
    2.2905    7.5341   10.5808 C   0  0  0  0  0  0  0  0  0  0  0  0
    1.0329    8.1882   10.2606 N   0  0  0  0  0  0  0  0  0  0  0  0
    0.6405    9.1187   11.4000 C   0  0  0  0  0  0  0  0  0  0  0  0
    1.3616    9.2362   12.3969 O   0  0  0  0  0  0  0  0  0  0  0  0
    0.5149    8.0508    9.4347 H   0  0  0  0  0  0  0  0  0  0  0  0
   -0.5830    9.9944   11.2625 C   0  0  0  0  0  0  0  0  0  0  0  0
   -0.7048   10.4587    9.8324 N   0  0  0  0  0  0  0  0  0  0  0  0
   -0.8367    9.6515    9.2229 H   0  0  0  0  0  0  0  0  0  0  0  0
    0.1451   10.9535    9.5620 H   0  0  0  0  0  0  0  0  0  0  0  0
   -1.8808    9.3236   11.7219 C   0  0  0  0  0  0  0  0  0  0  0  0
   -1.9070    9.1102   13.2496 C   0  0  0  0  0  0  0  0  0  0  0  0
   -2.2679    7.8337   13.7230 C   0  0  0  0  0  0  0  0  0  0  0  0
   -2.2936    7.6014   15.1114 C   0  0  0  0  0  0  0  0  0  0  0  0
   -1.9825    8.5959   15.9621 C   0  0  0  0  0  0  0  0  0  0  0  0
   -1.6231    9.8742   15.4895 C   0  0  0  0  0  0  0  0  0  0  0  0
   -1.6379   10.1063   14.1019 C   0  0  0  0  0  0  0  0  0  0  0  0
 15 16  2  0  0  0
 15 17  2  0  0  0
 15 18  1  0  0  0
 15 12  1  0  0  0
  9 10  2  0  0  0
  9 14  1  0  0  0
  9  5  1  0  0  0
 10 11  1  0  0  0
 11 12  2  0  0  0
 12 13  1  0  0  0
 13 14  2  0  0  0
  5  6  2  0  0  0
  5  7  1  0  0  0
  7  4  1  0  0  0
  4  3  1  0  0  0
  3  2  1  0  0  0
  2  1  1  0  0  0
  1 21  1  0  0  0
 21 22  1  0  0  0
 22 23  1  0  0  0
 23 24  1  0  0  0
 24 25  1  0  0  0
 25 26  1  0  0  0
 26 27  2  0  0  0
 26 29  1  0  0  0
 29 30  1  0  0  0
 29 33  1  0  0  0
 33 34  1  0  0  0
 34 35  2  0  0  0
 34 39  1  0  0  0
 35 36  1  0  0  0
 36 37  2  0  0  0
 37 38  1  0  0  0
 38 39  2  0  0  0
 18 19  1  0  0  0
 18 20  1  0  0  0
  7  8  1  0  0  0
 25 28  1  0  0  0
 30 31  1  0  0  0
 30 32  1  0  0  0
M  END
> <minimizedAffinity>
-5.26631

$$$$
1CNY_EG3_A_555


 39 40  0  0  0  0  0  0  0  0999 V2000
    1.2170    5.3305   10.9927 C   0  0  0  0  0  0  0  0  0  0  0  0
   -0.1684    5.3948   11.7412 O   0  0  0  0  0  0  0  0  0  0  0  0
   -1.2561    5.7952   11.1392 C   0  0  0  0  0  0  0  0  0  0  0  0
   -2.3899    4.8042   11.1162 C   0  0  0  0  0  0  0  0  0  0  0  0
   -4.0820    4.4580   13.0141 C   0  0  0  0  0  0  0  0  0  0  0  0
   -4.5688    5.3494   12.2578 O   0  0  0  0  0  0  0  0  0  0  0  0
   -2.6997    4.2136   12.4722 N   0  0  0  0  0  0  0  0  0  0  0  0
   -2.0310    3.6952   12.9755 H   0  0  0  0  0  0  0  0  0  0  0  0
   -4.6363    3.7968   14.0507 C   0  0  0  0  0  0  0  0  0  0  0  0
   -4.0404    2.6338   14.5221 C   0  0  0  0  0  0  0  0  0  0  0  0
   -4.5662    1.9198   15.5617 C   0  0  0  0  0  0  0  0  0  0  0  0
   -5.7279    2.3819   16.1386 C   0  0  0  0  0  0  0  0  0  0  0  0
   -6.3363    3.5062   15.6778 C   0  0  0  0  0  0  0  0  0  0  0  0
   -5.7992    4.2590   14.6268 C   0  0  0  0  0  0  0  0  0  0  0  0
   -6.3996    1.5261   17.4713 S   0  0  0  0  0  0  0  0  0  0  0  0
   -6.3162    2.1888   18.7799 O   0  0  0  0  0  0  0  0  0  0  0  0
   -7.7400    1.1561   17.1621 O   0  0  0  0  0  0  0  0  0  0  0  0
   -5.5102    0.3622   17.6461 N   0  0  0  0  0  0  0  0  0  0  0  0
   -5.8419   -0.2051   18.4263 H   0  0  0  0  0  0  0  0  0  0  0  0
   -4.5620    0.6847   17.8391 H   0  0  0  0  0  0  0  0  0  0  0  0
    2.2641    5.9351   11.9558 C   0  0  0  0  0  0  0  0  0  0  0  0
    1.7616    7.1898   12.5233 O   0  0  0  0  0  0  0  0  0  0  0  0
    2.9154    8.1341   12.7898 C   0  0  0  0  0  0  0  0  0  0  0  0
    2.5214    9.5022   12.5556 C   0  0  0  0  0  0  0  0  0  0  0  0
    1.8658    9.9752   13.7632 N   0  0  0  0  0  0  0  0  0  0  0  0
    1.1192   11.2676   13.4622 C   0  0  0  0  0  0  0  0  0  0  0  0
    1.1238   11.7498   12.3242 O   0  0  0  0  0  0  0  0  0  0  0  0
    1.8992    9.5291   14.6402 H   0  0  0  0  0  0  0  0  0  0  0  0
    0.2695   11.9075   14.5352 C   0  0  0  0  0  0  0  0  0  0  0  0
    0.5892   13.3798   14.6114 N   0  0  0  0  0  0  0  0  0  0  0  0
    0.3502   13.8259   13.7258 H   0  0  0  0  0  0  0  0  0  0  0  0
    1.5848   13.5024   14.7960 H   0  0  0  0  0  0  0  0  0  0  0  0
   -1.2349   11.6936   14.3449 C   0  0  0  0  0  0  0  0  0  0  0  0
   -1.6296   10.2116   14.5117 C   0  0  0  0  0  0  0  0  0  0  0  0
   -2.0502    9.5159   13.3616 C   0  0  0  0  0  0  0  0  0  0  0  0
   -2.4094    8.1593   13.4760 C   0  0  0  0  0  0  0  0  0  0  0  0
   -2.3536    7.5512   14.6747 C   0  0  0  0  0  0  0  0  0  0  0  0
   -1.9347    8.2470   15.8266 C   0  0  0  0  0  0  0  0  0  0  0  0
   -1.6150    9.6120   15.7081 C   0  0  0  0  0  0  0  0  0  0  0  0
 15 16  2  0  0  0
 15 17  2  0  0  0
 15 18  1  0  0  0
 15 12  1  0  0  0
  9 10  2  0  0  0
  9 14  1  0  0  0
  9  5  1  0  0  0
 10 11  1  0  0  0
 11 12  2  0  0  0
 12 13  1  0  0  0
 13 14  2  0  0  0
  5  6  2  0  0  0
  5  7  1  0  0  0
  7  4  1  0  0  0
  4  3  1  0  0  0
  3  2  1  0  0  0
  2  1  1  0  0  0
  1 21  1  0  0  0
 21 22  1  0  0  0
 22 23  1  0  0  0
 23 24  1  0  0  0
 24 25  1  0  0  0
 25 26  1  0  0  0
 26 27  2  0  0  0
 26 29  1  0  0  0
 29 30  1  0  0  0
 29 33  1  0  0  0
 33 34  1  0  0  0
 34 35  2  0  0  0
 34 39  1  0  0  0
 35 36  1  0  0  0
 36 37  2  0  0  0
 37 38  1  0  0  0
 38 39  2  0  0  0
 18 19  1  0  0  0
 18 20  1  0  0  0
  7  8  1  0  0  0
 25 28  1  0  0  0
 30 31  1  0  0  0
 30 32  1  0  0  0
M  END
> <minimizedAffinity>
-5.19445

$$$$
1CNY_EG3_A_555


 39 40  0  0  0  0  0  0  0  0999 V2000
   -2.7508    9.9396   10.9290 C   0  0  0  0  0  0  0  0  0  0  0  0
   -2.4345   10.4336   12.3918 O   0  0  0  0  0  0  0  0  0  0  0  0
   -1.4523   11.2575   12.6410 C   0  0  0  0  0  0  0  0  0  0  0  0
   -1.6786   12.6861   12.2218 C   0  0  0  0  0  0  0  0  0  0  0  0
   -3.7288   13.9849   11.3881 C   0  0  0  0  0  0  0  0  0  0  0  0
   -2.7795   14.2684   10.5993 O   0  0  0  0  0  0  0  0  0  0  0  0
   -3.0860   13.1724   12.4793 N   0  0  0  0  0  0  0  0  0  0  0  0
   -3.5584   12.9680   13.3185 H   0  0  0  0  0  0  0  0  0  0  0  0
   -5.0450   14.2664   11.3042 C   0  0  0  0  0  0  0  0  0  0  0  0
   -5.9095   13.3459   10.7251 C   0  0  0  0  0  0  0  0  0  0  0  0
   -7.2494   13.5855   10.6052 C   0  0  0  0  0  0  0  0  0  0  0  0
   -7.7336   14.7870   11.0720 C   0  0  0  0  0  0  0  0  0  0  0  0
   -6.9003   15.7082   11.6229 C   0  0  0  0  0  0  0  0  0  0  0  0
   -5.5288   15.4692   11.7704 C   0  0  0  0  0  0  0  0  0  0  0  0
   -9.4205   15.1081   10.9674 S   0  0  0  0  0  0  0  0  0  0  0  0
  -10.1849   14.9898   12.2165 O   0  0  0  0  0  0  0  0  0  0  0  0
   -9.6176   16.3801   10.3574 O   0  0  0  0  0  0  0  0  0  0  0  0
   -9.9564   13.9963   10.1592 N   0  0  0  0  0  0  0  0  0  0  0  0
  -10.9637   14.1116   10.0479 H   0  0  0  0  0  0  0  0  0  0  0  0
   -9.7653   13.1114   10.6291 H   0  0  0  0  0  0  0  0  0  0  0  0
   -3.8332    8.8440   11.0607 C   0  0  0  0  0  0  0  0  0  0  0  0
   -3.6200    7.8012   10.0528 O   0  0  0  0  0  0  0  0  0  0  0  0
   -2.3906    6.9887   10.4031 C   0  0  0  0  0  0  0  0  0  0  0  0
   -2.6253    5.5830   10.1782 C   0  0  0  0  0  0  0  0  0  0  0  0
   -3.5112    5.1191   11.2327 N   0  0  0  0  0  0  0  0  0  0  0  0
   -3.9256    3.6814   10.9511 C   0  0  0  0  0  0  0  0  0  0  0  0
   -3.5039    3.0858    9.9537 O   0  0  0  0  0  0  0  0  0  0  0  0
   -3.7988    5.6521   12.0089 H   0  0  0  0  0  0  0  0  0  0  0  0
   -4.7686    2.9353   11.9589 C   0  0  0  0  0  0  0  0  0  0  0  0
   -5.5875    1.8885   11.2453 N   0  0  0  0  0  0  0  0  0  0  0  0
   -4.9646    1.2105   10.8064 H   0  0  0  0  0  0  0  0  0  0  0  0
   -6.1619    2.3351   10.5305 H   0  0  0  0  0  0  0  0  0  0  0  0
   -3.9613    2.3028   13.0961 C   0  0  0  0  0  0  0  0  0  0  0  0
   -4.7648    2.2533   14.4121 C   0  0  0  0  0  0  0  0  0  0  0  0
   -5.6486    3.3176   14.6763 C   0  0  0  0  0  0  0  0  0  0  0  0
   -6.4043    3.3001   15.8642 C   0  0  0  0  0  0  0  0  0  0  0  0
   -6.2686    2.2784   16.7286 C   0  0  0  0  0  0  0  0  0  0  0  0
   -5.3831    1.2137   16.4661 C   0  0  0  0  0  0  0  0  0  0  0  0
   -4.6046    1.2603   15.2950 C   0  0  0  0  0  0  0  0  0  0  0  0
 15 16  2  0  0  0
 15 17  2  0  0  0
 15 18  1  0  0  0
 15 12  1  0  0  0
  9 10  2  0  0  0
  9 14  1  0  0  0
  9  5  1  0  0  0
 10 11  1  0  0  0
 11 12  2  0  0  0
 12 13  1  0  0  0
 13 14  2  0  0  0
  5  6  2  0  0  0
  5  7  1  0  0  0
  7  4  1  0  0  0
  4  3  1  0  0  0
  3  2  1  0  0  0
  2  1  1  0  0  0
  1 21  1  0  0  0
 21 22  1  0  0  0
 22 23  1  0  0  0
 23 24  1  0  0  0
 24 25  1  0  0  0
 25 26  1  0  0  0
 26 27  2  0  0  0
 26 29  1  0  0  0
 29 30  1  0  0  0
 29 33  1  0  0  0
 33 34  1  0  0  0
 34 35  2  0  0  0
 34 39  1  0  0  0
 35 36  1  0  0  0
 36 37  2  0  0  0
 37 38  1  0  0  0
 38 39  2  0  0  0
 18 19  1  0  0  0
 18 20  1  0  0  0
  7  8  1  0  0  0
 25 28  1  0  0  0
 30 31  1  0  0  0
 30 32  1  0  0  0
M  END
> <minimizedAffinity>
-5.16385

$$$$
