3B92_440_A_501


 19 19  0  0  0  0  0  0  0  0999 V2000
    1.0439   61.7432   84.6772 C   0  0  0  0  0  0  0  0  0  0  0  0
    1.0292   60.5226   84.0005 C   0  0  0  0  0  0  0  0  0  0  0  0
   -0.5148   59.6101   85.6656 C   0  0  0  0  0  0  0  0  0  0  0  0
   -0.4973   60.8406   86.3379 C   0  0  0  0  0  0  0  0  0  0  0  0
    0.2846   61.9059   85.8480 C   0  0  0  0  0  0  0  0  0  0  0  0
    0.2547   59.4646   84.5007 C   0  0  0  0  0  0  0  0  0  0  0  0
   -1.0183   57.6574   83.1552 O   0  0  0  0  0  0  0  0  0  0  0  0
    1.4208   57.9553   82.7529 O   0  0  0  0  0  0  0  0  0  0  0  0
    0.2938   57.9256   83.6623 S   0  0  0  0  0  0  0  0  0  0  0  0
    0.5390   56.7910   85.0223 C   0  0  0  0  0  0  0  0  0  0  0  0
    2.0144   56.5716   85.2955 C   0  0  0  0  0  0  0  0  0  0  0  0
    2.3501   55.0921   85.3404 C   0  0  0  0  0  0  0  0  0  0  0  0
    1.9116   54.3207   83.7791 S   0  0  0  0  0  0  0  0  0  0  0  0
    2.6117   54.9071   82.7713 H   0  0  0  0  0  0  0  0  0  0  0  0
    0.3576   63.0795   86.6054 O   0  0  0  0  0  0  0  0  0  0  0  0
   -0.8338   63.8619   86.6960 C   0  0  0  0  0  0  0  0  0  0  0  0
   -2.9774   64.3463   83.0067 C   0  0  0  0  0  0  0  0  0  0  0  0
   -2.2223   64.2156   84.3335 C   0  0  0  0  0  0  0  0  0  0  0  0
   -1.6300   64.0990   85.3620 C   0  0  0  0  0  0  0  0  0  0  0  0
  8  9  2  0  0  0
 17 18  1  0  0  0
  7  9  2  0  0  0
  9  6  1  0  0  0
  9 10  1  0  0  0
  3  4  2  0  0  0
  3  6  1  0  0  0
  4  5  1  0  0  0
  6  2  2  0  0  0
 18 19  3  0  0  0
 12 13  1  0  0  0
 12 11  1  0  0  0
 10 11  1  0  0  0
 19 16  1  0  0  0
  5 15  1  0  0  0
  5  1  2  0  0  0
  2  1  1  0  0  0
 15 16  1  0  0  0
 13 14  1  0  0  0
M  END
> <minimizedAffinity>
-7.43050

$$$$
3B92_440_A_501


 19 19  0  0  0  0  0  0  0  0999 V2000
    1.0771   61.6982   84.7054 C   0  0  0  0  0  0  0  0  0  0  0  0
    1.0953   60.4282   84.1271 C   0  0  0  0  0  0  0  0  0  0  0  0
   -0.4454   59.6157   85.8461 C   0  0  0  0  0  0  0  0  0  0  0  0
   -0.4610   60.8953   86.4193 C   0  0  0  0  0  0  0  0  0  0  0  0
    0.3028   61.9358   85.8534 C   0  0  0  0  0  0  0  0  0  0  0  0
    0.3387   59.3959   84.7028 C   0  0  0  0  0  0  0  0  0  0  0  0
    1.1768   57.8843   82.7768 O   0  0  0  0  0  0  0  0  0  0  0  0
    0.8347   56.8779   85.0285 O   0  0  0  0  0  0  0  0  0  0  0  0
    0.4192   57.7969   83.9889 S   0  0  0  0  0  0  0  0  0  0  0  0
   -1.2803   57.5483   83.4921 C   0  0  0  0  0  0  0  0  0  0  0  0
   -1.9613   56.5108   84.3637 C   0  0  0  0  0  0  0  0  0  0  0  0
   -3.4173   56.8658   84.6035 C   0  0  0  0  0  0  0  0  0  0  0  0
   -4.2820   55.4530   85.2975 S   0  0  0  0  0  0  0  0  0  0  0  0
   -3.7065   55.1052   86.4796 H   0  0  0  0  0  0  0  0  0  0  0  0
    0.3431   63.1668   86.5164 O   0  0  0  0  0  0  0  0  0  0  0  0
   -0.8730   63.9145   86.5591 C   0  0  0  0  0  0  0  0  0  0  0  0
   -3.0333   64.3337   82.8716 C   0  0  0  0  0  0  0  0  0  0  0  0
   -2.2831   64.1453   84.1942 C   0  0  0  0  0  0  0  0  0  0  0  0
   -1.6926   64.0132   85.2218 C   0  0  0  0  0  0  0  0  0  0  0  0
  8  9  2  0  0  0
 17 18  1  0  0  0
  7  9  2  0  0  0
  9  6  1  0  0  0
  9 10  1  0  0  0
  3  4  2  0  0  0
  3  6  1  0  0  0
  4  5  1  0  0  0
  6  2  2  0  0  0
 18 19  3  0  0  0
 12 13  1  0  0  0
 12 11  1  0  0  0
 10 11  1  0  0  0
 19 16  1  0  0  0
  5 15  1  0  0  0
  5  1  2  0  0  0
  2  1  1  0  0  0
 15 16  1  0  0  0
 13 14  1  0  0  0
M  END
> <minimizedAffinity>
-7.22378

$$$$
3B92_440_A_501


 19 19  0  0  0  0  0  0  0  0999 V2000
   -0.3988   60.9996   86.3860 C   0  0  0  0  0  0  0  0  0  0  0  0
   -0.3767   59.7063   85.8619 C   0  0  0  0  0  0  0  0  0  0  0  0
    1.1456   60.4418   84.0926 C   0  0  0  0  0  0  0  0  0  0  0  0
    1.1208   61.7379   84.6272 C   0  0  0  0  0  0  0  0  0  0  0  0
    0.3459   62.0194   85.7703 C   0  0  0  0  0  0  0  0  0  0  0  0
    0.3906   59.4373   84.7180 C   0  0  0  0  0  0  0  0  0  0  0  0
    1.0870   57.8288   82.8143 O   0  0  0  0  0  0  0  0  0  0  0  0
    0.7533   56.9049   85.1023 O   0  0  0  0  0  0  0  0  0  0  0  0
    0.3606   57.8176   84.0483 S   0  0  0  0  0  0  0  0  0  0  0  0
   -1.3636   57.6528   83.6049 C   0  0  0  0  0  0  0  0  0  0  0  0
   -2.0476   56.5906   84.4438 C   0  0  0  0  0  0  0  0  0  0  0  0
   -2.2968   55.3299   83.6363 C   0  0  0  0  0  0  0  0  0  0  0  0
   -1.1746   54.0334   84.1701 S   0  0  0  0  0  0  0  0  0  0  0  0
   -1.3822   53.7681   85.4877 H   0  0  0  0  0  0  0  0  0  0  0  0
    0.2645   63.3455   86.2076 O   0  0  0  0  0  0  0  0  0  0  0  0
   -1.0428   63.9133   86.3001 C   0  0  0  0  0  0  0  0  0  0  0  0
   -3.1874   64.2091   82.5915 C   0  0  0  0  0  0  0  0  0  0  0  0
   -2.4321   64.1460   83.9232 C   0  0  0  0  0  0  0  0  0  0  0  0
   -1.8397   64.0820   84.9561 C   0  0  0  0  0  0  0  0  0  0  0  0
  8  9  2  0  0  0
 17 18  1  0  0  0
  7  9  2  0  0  0
  9  6  1  0  0  0
  9 10  1  0  0  0
  3  4  2  0  0  0
  3  6  1  0  0  0
  4  5  1  0  0  0
  6  2  2  0  0  0
 18 19  3  0  0  0
 12 13  1  0  0  0
 12 11  1  0  0  0
 10 11  1  0  0  0
 19 16  1  0  0  0
  5 15  1  0  0  0
  5  1  2  0  0  0
  2  1  1  0  0  0
 15 16  1  0  0  0
 13 14  1  0  0  0
M  END
> <minimizedAffinity>
-7.21513

$$$$
3B92_440_A_501


 19 19  0  0  0  0  0  0  0  0999 V2000
   -0.0709   59.1651   85.7311 C   0  0  0  0  0  0  0  0  0  0  0  0
   -0.5565   60.3159   86.3536 C   0  0  0  0  0  0  0  0  0  0  0  0
    0.8593   61.7000   84.9154 C   0  0  0  0  0  0  0  0  0  0  0  0
    1.3399   60.5392   84.2926 C   0  0  0  0  0  0  0  0  0  0  0  0
    0.8798   59.2716   84.7022 C   0  0  0  0  0  0  0  0  0  0  0  0
   -0.0859   61.5734   85.9454 C   0  0  0  0  0  0  0  0  0  0  0  0
   -1.3292   62.5809   87.9791 O   0  0  0  0  0  0  0  0  0  0  0  0
    0.4274   63.9406   86.8541 O   0  0  0  0  0  0  0  0  0  0  0  0
   -0.6719   63.0004   86.7780 S   0  0  0  0  0  0  0  0  0  0  0  0
   -1.9660   63.5459   85.6714 C   0  0  0  0  0  0  0  0  0  0  0  0
   -1.4110   64.4268   84.5688 C   0  0  0  0  0  0  0  0  0  0  0  0
   -2.5145   65.2181   83.8908 C   0  0  0  0  0  0  0  0  0  0  0  0
   -3.4933   64.1295   82.8506 S   0  0  0  0  0  0  0  0  0  0  0  0
   -4.0498   63.1517   83.6148 H   0  0  0  0  0  0  0  0  0  0  0  0
    1.4625   58.1364   84.1294 O   0  0  0  0  0  0  0  0  0  0  0  0
    0.5790   57.2096   83.4966 C   0  0  0  0  0  0  0  0  0  0  0  0
    1.8380   53.1186   83.1514 C   0  0  0  0  0  0  0  0  0  0  0  0
    1.3968   54.5765   83.3183 C   0  0  0  0  0  0  0  0  0  0  0  0
    1.0494   55.7115   83.4326 C   0  0  0  0  0  0  0  0  0  0  0  0
  8  9  2  0  0  0
 17 18  1  0  0  0
  7  9  2  0  0  0
  9  6  1  0  0  0
  9 10  1  0  0  0
  3  4  2  0  0  0
  3  6  1  0  0  0
  4  5  1  0  0  0
  6  2  2  0  0  0
 18 19  3  0  0  0
 12 13  1  0  0  0
 12 11  1  0  0  0
 10 11  1  0  0  0
 19 16  1  0  0  0
  5 15  1  0  0  0
  5  1  2  0  0  0
  2  1  1  0  0  0
 15 16  1  0  0  0
 13 14  1  0  0  0
M  END
> <minimizedAffinity>
-6.64859

$$$$
3B92_440_A_501


 19 19  0  0  0  0  0  0  0  0999 V2000
    1.4654   60.2896   83.7688 C   0  0  0  0  0  0  0  0  0  0  0  0
    1.2194   58.9339   83.5462 C   0  0  0  0  0  0  0  0  0  0  0  0
   -0.2978   58.8868   85.4657 C   0  0  0  0  0  0  0  0  0  0  0  0
   -0.0481   60.2497   85.6808 C   0  0  0  0  0  0  0  0  0  0  0  0
    0.8363   60.9510   84.8368 C   0  0  0  0  0  0  0  0  0  0  0  0
    0.3444   58.2416   84.3973 C   0  0  0  0  0  0  0  0  0  0  0  0
   -1.2944   56.2395   84.3404 O   0  0  0  0  0  0  0  0  0  0  0  0
    0.7084   56.1917   82.8617 O   0  0  0  0  0  0  0  0  0  0  0  0
    0.0923   56.5277   84.1289 S   0  0  0  0  0  0  0  0  0  0  0  0
    0.9616   55.8224   85.5230 C   0  0  0  0  0  0  0  0  0  0  0  0
    1.0417   54.3120   85.4135 C   0  0  0  0  0  0  0  0  0  0  0  0
    2.4655   53.8553   85.1535 C   0  0  0  0  0  0  0  0  0  0  0  0
    3.5614   55.2771   85.1039 S   0  0  0  0  0  0  0  0  0  0  0  0
    3.5123   55.9292   86.2963 H   0  0  0  0  0  0  0  0  0  0  0  0
    1.1396   62.2801   85.1496 O   0  0  0  0  0  0  0  0  0  0  0  0
    0.1617   63.0043   85.8973 C   0  0  0  0  0  0  0  0  0  0  0  0
   -2.9012   65.0839   83.7214 C   0  0  0  0  0  0  0  0  0  0  0  0
   -1.7778   64.3680   84.4787 C   0  0  0  0  0  0  0  0  0  0  0  0
   -0.9144   63.8006   85.0741 C   0  0  0  0  0  0  0  0  0  0  0  0
  8  9  2  0  0  0
 17 18  1  0  0  0
  7  9  2  0  0  0
  9  6  1  0  0  0
  9 10  1  0  0  0
  3  4  2  0  0  0
  3  6  1  0  0  0
  4  5  1  0  0  0
  6  2  2  0  0  0
 18 19  3  0  0  0
 12 13  1  0  0  0
 12 11  1  0  0  0
 10 11  1  0  0  0
 19 16  1  0  0  0
  5 15  1  0  0  0
  5  1  2  0  0  0
  2  1  1  0  0  0
 15 16  1  0  0  0
 13 14  1  0  0  0
M  END
> <minimizedAffinity>
-6.57075

$$$$
3B92_440_A_501


 19 19  0  0  0  0  0  0  0  0999 V2000
    1.4565   60.2676   83.8684 C   0  0  0  0  0  0  0  0  0  0  0  0
    1.1808   58.9226   83.6181 C   0  0  0  0  0  0  0  0  0  0  0  0
   -0.4408   58.9067   85.4508 C   0  0  0  0  0  0  0  0  0  0  0  0
   -0.1607   60.2590   85.6938 C   0  0  0  0  0  0  0  0  0  0  0  0
    0.7905   60.9393   84.9072 C   0  0  0  0  0  0  0  0  0  0  0  0
    0.2388   58.2509   84.4124 C   0  0  0  0  0  0  0  0  0  0  0  0
    0.5202   56.2126   82.8431 O   0  0  0  0  0  0  0  0  0  0  0  0
    0.3581   55.8227   85.2970 O   0  0  0  0  0  0  0  0  0  0  0  0
   -0.0517   56.5484   84.1123 S   0  0  0  0  0  0  0  0  0  0  0  0
   -1.8238   56.5310   83.8755 C   0  0  0  0  0  0  0  0  0  0  0  0
   -2.3134   55.1477   83.4927 C   0  0  0  0  0  0  0  0  0  0  0  0
   -3.6420   54.8329   84.1554 C   0  0  0  0  0  0  0  0  0  0  0  0
   -3.7812   53.0636   84.4301 S   0  0  0  0  0  0  0  0  0  0  0  0
   -2.7694   52.6495   85.2391 H   0  0  0  0  0  0  0  0  0  0  0  0
    1.1176   62.2551   85.2503 O   0  0  0  0  0  0  0  0  0  0  0  0
    0.1167   63.0090   85.9356 C   0  0  0  0  0  0  0  0  0  0  0  0
   -2.9652   64.8767   83.6003 C   0  0  0  0  0  0  0  0  0  0  0  0
   -1.8351   64.2325   84.4100 C   0  0  0  0  0  0  0  0  0  0  0  0
   -0.9664   63.7222   85.0480 C   0  0  0  0  0  0  0  0  0  0  0  0
  8  9  2  0  0  0
 17 18  1  0  0  0
  7  9  2  0  0  0
  9  6  1  0  0  0
  9 10  1  0  0  0
  3  4  2  0  0  0
  3  6  1  0  0  0
  4  5  1  0  0  0
  6  2  2  0  0  0
 18 19  3  0  0  0
 12 13  1  0  0  0
 12 11  1  0  0  0
 10 11  1  0  0  0
 19 16  1  0  0  0
  5 15  1  0  0  0
  5  1  2  0  0  0
  2  1  1  0  0  0
 15 16  1  0  0  0
 13 14  1  0  0  0
M  END
> <minimizedAffinity>
-6.47569

$$$$
3B92_440_A_501


 19 19  0  0  0  0  0  0  0  0999 V2000
    0.0992   58.9968   85.9216 C   0  0  0  0  0  0  0  0  0  0  0  0
   -0.3079   60.2459   86.3926 C   0  0  0  0  0  0  0  0  0  0  0  0
    0.7806   61.3273   84.4862 C   0  0  0  0  0  0  0  0  0  0  0  0
    1.1830   60.0684   84.0177 C   0  0  0  0  0  0  0  0  0  0  0  0
    0.8475   58.9033   84.7362 C   0  0  0  0  0  0  0  0  0  0  0  0
    0.0386   61.4013   85.6753 C   0  0  0  0  0  0  0  0  0  0  0  0
   -1.6028   62.7759   87.1291 O   0  0  0  0  0  0  0  0  0  0  0  0
    0.7416   63.5782   86.8836 O   0  0  0  0  0  0  0  0  0  0  0  0
   -0.4395   62.9619   86.3149 S   0  0  0  0  0  0  0  0  0  0  0  0
   -1.0009   63.7913   84.8338 C   0  0  0  0  0  0  0  0  0  0  0  0
   -2.3470   64.4545   85.0522 C   0  0  0  0  0  0  0  0  0  0  0  0
   -2.8146   65.1729   83.7996 C   0  0  0  0  0  0  0  0  0  0  0  0
   -3.7311   64.0374   82.7528 S   0  0  0  0  0  0  0  0  0  0  0  0
   -4.8139   63.5700   83.4301 H   0  0  0  0  0  0  0  0  0  0  0  0
    1.3583   57.6791   84.2928 O   0  0  0  0  0  0  0  0  0  0  0  0
    0.4184   56.6205   84.1036 C   0  0  0  0  0  0  0  0  0  0  0  0
   -3.7724   57.5552   84.0420 C   0  0  0  0  0  0  0  0  0  0  0  0
   -2.2683   57.2628   84.0495 C   0  0  0  0  0  0  0  0  0  0  0  0
   -1.1009   57.0200   84.0594 C   0  0  0  0  0  0  0  0  0  0  0  0
  8  9  2  0  0  0
 17 18  1  0  0  0
  7  9  2  0  0  0
  9  6  1  0  0  0
  9 10  1  0  0  0
  3  4  2  0  0  0
  3  6  1  0  0  0
  4  5  1  0  0  0
  6  2  2  0  0  0
 18 19  3  0  0  0
 12 13  1  0  0  0
 12 11  1  0  0  0
 10 11  1  0  0  0
 19 16  1  0  0  0
  5 15  1  0  0  0
  5  1  2  0  0  0
  2  1  1  0  0  0
 15 16  1  0  0  0
 13 14  1  0  0  0
M  END
> <minimizedAffinity>
-5.98334

$$$$
3B92_440_A_501


 19 19  0  0  0  0  0  0  0  0999 V2000
   -2.8353   57.2960   84.4030 C   0  0  0  0  0  0  0  0  0  0  0  0
   -1.6380   58.0110   84.4575 C   0  0  0  0  0  0  0  0  0  0  0  0
   -0.4240   56.0553   83.6267 C   0  0  0  0  0  0  0  0  0  0  0  0
   -1.6316   55.3446   83.5717 C   0  0  0  0  0  0  0  0  0  0  0  0
   -2.8366   55.9615   83.9637 C   0  0  0  0  0  0  0  0  0  0  0  0
   -0.4416   57.3857   84.0738 C   0  0  0  0  0  0  0  0  0  0  0  0
    1.9477   57.5597   85.0525 O   0  0  0  0  0  0  0  0  0  0  0  0
    1.4708   58.6317   82.8563 O   0  0  0  0  0  0  0  0  0  0  0  0
    1.0560   58.2879   84.2008 S   0  0  0  0  0  0  0  0  0  0  0  0
    0.5283   59.7136   85.1419 C   0  0  0  0  0  0  0  0  0  0  0  0
    0.7673   60.9986   84.3731 C   0  0  0  0  0  0  0  0  0  0  0  0
    0.6818   62.2083   85.2858 C   0  0  0  0  0  0  0  0  0  0  0  0
   -0.9007   63.0277   85.0640 S   0  0  0  0  0  0  0  0  0  0  0  0
   -1.9054   62.1642   85.3717 H   0  0  0  0  0  0  0  0  0  0  0  0
   -4.0003   55.1862   83.9950 O   0  0  0  0  0  0  0  0  0  0  0  0
   -4.6550   55.0593   85.2580 C   0  0  0  0  0  0  0  0  0  0  0  0
   -2.6390   53.0161   88.4520 C   0  0  0  0  0  0  0  0  0  0  0  0
   -3.3321   53.7243   87.2832 C   0  0  0  0  0  0  0  0  0  0  0  0
   -3.8802   54.2838   86.3840 C   0  0  0  0  0  0  0  0  0  0  0  0
  8  9  2  0  0  0
 17 18  1  0  0  0
  7  9  2  0  0  0
  9  6  1  0  0  0
  9 10  1  0  0  0
  3  4  2  0  0  0
  3  6  1  0  0  0
  4  5  1  0  0  0
  6  2  2  0  0  0
 18 19  3  0  0  0
 12 13  1  0  0  0
 12 11  1  0  0  0
 10 11  1  0  0  0
 19 16  1  0  0  0
  5 15  1  0  0  0
  5  1  2  0  0  0
  2  1  1  0  0  0
 15 16  1  0  0  0
 13 14  1  0  0  0
M  END
> <minimizedAffinity>
-5.84125

$$$$
3B92_440_A_501


 19 19  0  0  0  0  0  0  0  0999 V2000
   -0.3509   58.2169   83.7563 C   0  0  0  0  0  0  0  0  0  0  0  0
   -1.0644   57.0362   83.5448 C   0  0  0  0  0  0  0  0  0  0  0  0
    0.4245   55.8524   85.0845 C   0  0  0  0  0  0  0  0  0  0  0  0
    1.1342   57.0435   85.2942 C   0  0  0  0  0  0  0  0  0  0  0  0
    0.7511   58.2247   84.6277 C   0  0  0  0  0  0  0  0  0  0  0  0
   -0.6701   55.8628   84.2058 C   0  0  0  0  0  0  0  0  0  0  0  0
   -2.5335   54.6528   82.8790 O   0  0  0  0  0  0  0  0  0  0  0  0
   -0.5723   53.3349   83.6643 O   0  0  0  0  0  0  0  0  0  0  0  0
   -1.5498   54.3812   83.8836 S   0  0  0  0  0  0  0  0  0  0  0  0
   -2.4514   54.1685   85.4128 C   0  0  0  0  0  0  0  0  0  0  0  0
   -3.5372   55.2167   85.5608 C   0  0  0  0  0  0  0  0  0  0  0  0
   -4.9169   54.5845   85.5403 C   0  0  0  0  0  0  0  0  0  0  0  0
   -5.9762   55.4722   84.3936 S   0  0  0  0  0  0  0  0  0  0  0  0
   -5.4404   55.4156   83.1448 H   0  0  0  0  0  0  0  0  0  0  0  0
    1.5487   59.3632   84.7821 O   0  0  0  0  0  0  0  0  0  0  0  0
    1.1204   60.5455   84.1049 C   0  0  0  0  0  0  0  0  0  0  0  0
   -0.1198   63.7706   86.6545 C   0  0  0  0  0  0  0  0  0  0  0  0
    0.2868   62.6268   85.7195 C   0  0  0  0  0  0  0  0  0  0  0  0
    0.6156   61.7333   85.0015 C   0  0  0  0  0  0  0  0  0  0  0  0
  8  9  2  0  0  0
 17 18  1  0  0  0
  7  9  2  0  0  0
  9  6  1  0  0  0
  9 10  1  0  0  0
  3  4  2  0  0  0
  3  6  1  0  0  0
  4  5  1  0  0  0
  6  2  2  0  0  0
 18 19  3  0  0  0
 12 13  1  0  0  0
 12 11  1  0  0  0
 10 11  1  0  0  0
 19 16  1  0  0  0
  5 15  1  0  0  0
  5  1  2  0  0  0
  2  1  1  0  0  0
 15 16  1  0  0  0
 13 14  1  0  0  0
M  END
> <minimizedAffinity>
-5.83066

$$$$
3B92_440_A_501


 19 19  0  0  0  0  0  0  0  0999 V2000
   -0.4777   58.5111   84.4888 C   0  0  0  0  0  0  0  0  0  0  0  0
   -1.0757   57.2683   84.2751 C   0  0  0  0  0  0  0  0  0  0  0  0
    1.1179   56.1880   84.3744 C   0  0  0  0  0  0  0  0  0  0  0  0
    1.7108   57.4399   84.5921 C   0  0  0  0  0  0  0  0  0  0  0  0
    0.9155   58.6023   84.6449 C   0  0  0  0  0  0  0  0  0  0  0  0
   -0.2749   56.1174   84.2150 C   0  0  0  0  0  0  0  0  0  0  0  0
   -2.1958   54.8099   83.0760 O   0  0  0  0  0  0  0  0  0  0  0  0
   -0.0145   53.6643   83.4359 O   0  0  0  0  0  0  0  0  0  0  0  0
   -1.0436   54.5752   83.8934 S   0  0  0  0  0  0  0  0  0  0  0  0
   -1.6666   54.1486   85.5141 C   0  0  0  0  0  0  0  0  0  0  0  0
   -0.5779   53.5443   86.3797 C   0  0  0  0  0  0  0  0  0  0  0  0
   -1.1090   53.1778   87.7534 C   0  0  0  0  0  0  0  0  0  0  0  0
   -2.9007   53.2997   87.7658 S   0  0  0  0  0  0  0  0  0  0  0  0
   -3.4196   52.4452   86.8439 H   0  0  0  0  0  0  0  0  0  0  0  0
    1.5558   59.8407   84.7571 O   0  0  0  0  0  0  0  0  0  0  0  0
    0.8885   60.9644   84.1809 C   0  0  0  0  0  0  0  0  0  0  0  0
   -0.2697   64.0167   86.9705 C   0  0  0  0  0  0  0  0  0  0  0  0
    0.1061   62.9350   85.9525 C   0  0  0  0  0  0  0  0  0  0  0  0
    0.4115   62.0896   85.1689 C   0  0  0  0  0  0  0  0  0  0  0  0
  8  9  2  0  0  0
 17 18  1  0  0  0
  7  9  2  0  0  0
  9  6  1  0  0  0
  9 10  1  0  0  0
  3  4  2  0  0  0
  3  6  1  0  0  0
  4  5  1  0  0  0
  6  2  2  0  0  0
 18 19  3  0  0  0
 12 13  1  0  0  0
 12 11  1  0  0  0
 10 11  1  0  0  0
 19 16  1  0  0  0
  5 15  1  0  0  0
  5  1  2  0  0  0
  2  1  1  0  0  0
 15 16  1  0  0  0
 13 14  1  0  0  0
M  END
> <minimizedAffinity>
-5.66619

$$$$
