5HVA_DUP_C_201


 35 36  0  0  0  0  0  0  0  0999 V2000
   31.4888 -183.3457   25.5966 O   0  0  0  0  0  0  0  0  0  0  0  0
   32.5401 -183.2991   24.3294 P   0  0  0  0  0  0  0  0  0  0  0  0
   33.3101 -181.9983   24.3422 O   0  0  0  0  0  0  0  0  0  0  0  0
   33.4570 -184.4926   24.4416 O   0  0  0  0  0  0  0  0  0  0  0  0
   34.0054 -184.4054   25.2370 H   0  0  0  0  0  0  0  0  0  0  0  0
   31.6265 -183.5466   22.9114 N   0  0  0  0  0  0  0  0  0  0  0  0
   31.2174 -182.6377   22.6950 H   0  0  0  0  0  0  0  0  0  0  0  0
   32.2195 -184.1327   21.4290 P   0  0  0  0  0  0  0  0  0  0  0  0
   32.0818 -183.0394   20.3945 O   0  0  0  0  0  0  0  0  0  0  0  0
   33.6665 -184.5554   21.4976 O   0  0  0  0  0  0  0  0  0  0  0  0
   34.2148 -183.7934   21.7417 H   0  0  0  0  0  0  0  0  0  0  0  0
   31.2647 -185.4014   21.0175 O   0  0  0  0  0  0  0  0  0  0  0  0
   30.7422 -186.5039   22.1195 P   0  0  0  0  0  0  0  0  0  0  0  0
   31.7888 -186.6136   23.2058 O   0  0  0  0  0  0  0  0  0  0  0  0
   30.5177 -187.8525   21.4733 O   0  0  0  0  0  0  0  0  0  0  0  0
   29.4877 -185.9920   22.7719 O   0  0  0  0  0  0  0  0  0  0  0  0
   31.3425 -188.1554   21.0622 H   0  0  0  0  0  0  0  0  0  0  0  0
   29.6631 -185.1279   23.1764 H   0  0  0  0  0  0  0  0  0  0  0  0
   30.1904 -182.8807   25.4009 C   0  0  0  0  0  0  0  0  0  0  0  0
   28.2438 -184.0685   27.7252 C   0  0  0  0  0  0  0  0  0  0  0  0
   27.6752 -183.1381   26.9669 C   0  0  0  0  0  0  0  0  0  0  0  0
   27.9435 -183.5999   25.4383 C   0  0  0  0  0  0  0  0  0  0  0  0
   27.0635 -184.6638   25.1049 O   0  0  0  0  0  0  0  0  0  0  0  0
   29.3766 -184.7249   26.8234 O   0  0  0  0  0  0  0  0  0  0  0  0
   29.2300 -184.0563   25.4597 C   0  0  0  0  0  0  0  0  0  0  0  0
   27.1818 -185.3910   25.7359 H   0  0  0  0  0  0  0  0  0  0  0  0
   30.5686 -182.4199   32.2860 O   0  0  0  0  0  0  0  0  0  0  0  0
   30.0526 -182.7857   31.2621 C   0  0  0  0  0  0  0  0  0  0  0  0
   30.8033 -183.2162   30.2148 C   0  0  0  0  0  0  0  0  0  0  0  0
   30.2020 -183.6186   29.0564 C   0  0  0  0  0  0  0  0  0  0  0  0
   28.7298 -182.7748   31.1386 N   0  0  0  0  0  0  0  0  0  0  0  0
   28.1307 -183.1829   29.9955 C   0  0  0  0  0  0  0  0  0  0  0  0
   26.9469 -183.1694   29.9239 O   0  0  0  0  0  0  0  0  0  0  0  0
   28.8760 -183.5912   28.9422 N   0  0  0  0  0  0  0  0  0  0  0  0
   28.1760 -182.4647   31.8911 H   0  0  0  0  0  0  0  0  0  0  0  0
 27 28  2  0  0  0
 28 29  1  0  0  0
 28 31  1  0  0  0
 29 30  2  0  0  0
 30 34  1  0  0  0
 31 32  1  0  0  0
 32 33  2  0  0  0
 32 34  1  0  0  0
 34 20  1  0  0  0
 20 21  1  0  0  0
 20 24  1  0  0  0
 21 22  1  0  0  0
 22 23  1  0  0  0
 22 25  1  0  0  0
 24 25  1  0  0  0
 25 19  1  0  0  0
 19  1  1  0  0  0
  1  2  1  0  0  0
  2  3  2  0  0  0
  2  4  1  0  0  0
  2  6  1  0  0  0
  6  8  1  0  0  0
  8  9  2  0  0  0
  8 10  1  0  0  0
  8 12  1  0  0  0
 12 13  1  0  0  0
 13 14  2  0  0  0
 13 15  1  0  0  0
 13 16  1  0  0  0
 31 35  1  0  0  0
 23 26  1  0  0  0
  4  5  1  0  0  0
  6  7  1  0  0  0
 10 11  1  0  0  0
 15 17  1  0  0  0
 16 18  1  0  0  0
M  END
> <minimizedAffinity>
-9.42836

$$$$
5HVA_DUP_C_201


 35 36  0  0  0  0  0  0  0  0999 V2000
   30.9085 -182.5524   25.6500 O   0  0  0  0  0  0  0  0  0  0  0  0
   32.0242 -183.0621   24.5505 P   0  0  0  0  0  0  0  0  0  0  0  0
   32.9738 -181.9347   24.2149 O   0  0  0  0  0  0  0  0  0  0  0  0
   32.7495 -184.2474   25.1391 O   0  0  0  0  0  0  0  0  0  0  0  0
   33.2597 -183.9625   25.9134 H   0  0  0  0  0  0  0  0  0  0  0  0
   31.1645 -183.6637   23.2068 N   0  0  0  0  0  0  0  0  0  0  0  0
   31.1274 -182.8888   22.5445 H   0  0  0  0  0  0  0  0  0  0  0  0
   31.5857 -185.0243   22.2774 P   0  0  0  0  0  0  0  0  0  0  0  0
   32.1591 -186.0741   23.2012 O   0  0  0  0  0  0  0  0  0  0  0  0
   30.4132 -185.6191   21.5365 O   0  0  0  0  0  0  0  0  0  0  0  0
   29.7407 -185.9071   22.1734 H   0  0  0  0  0  0  0  0  0  0  0  0
   32.7425 -184.5269   21.2262 O   0  0  0  0  0  0  0  0  0  0  0  0
   32.5984 -183.1447   20.3478 P   0  0  0  0  0  0  0  0  0  0  0  0
   33.5149 -183.2526   19.1496 O   0  0  0  0  0  0  0  0  0  0  0  0
   32.9642 -181.9342   21.1771 O   0  0  0  0  0  0  0  0  0  0  0  0
   31.1953 -183.0426   19.8164 O   0  0  0  0  0  0  0  0  0  0  0  0
   33.8722 -182.0292   21.5049 H   0  0  0  0  0  0  0  0  0  0  0  0
   30.9906 -183.8313   19.2902 H   0  0  0  0  0  0  0  0  0  0  0  0
   30.6436 -183.3615   26.7525 C   0  0  0  0  0  0  0  0  0  0  0  0
   27.7433 -183.6854   28.1967 C   0  0  0  0  0  0  0  0  0  0  0  0
   27.7846 -182.7304   27.2746 C   0  0  0  0  0  0  0  0  0  0  0  0
   28.4227 -183.4248   25.9583 C   0  0  0  0  0  0  0  0  0  0  0  0
   27.4415 -184.2369   25.3300 O   0  0  0  0  0  0  0  0  0  0  0  0
   28.8690 -184.7296   27.7848 O   0  0  0  0  0  0  0  0  0  0  0  0
   29.4195 -184.2118   26.4593 C   0  0  0  0  0  0  0  0  0  0  0  0
   27.1065 -184.8890   25.9651 H   0  0  0  0  0  0  0  0  0  0  0  0
   28.7256 -182.2322   33.2806 O   0  0  0  0  0  0  0  0  0  0  0  0
   28.5108 -182.5544   32.1411 C   0  0  0  0  0  0  0  0  0  0  0  0
   29.5138 -182.9949   31.3374 C   0  0  0  0  0  0  0  0  0  0  0  0
   29.2545 -183.3472   30.0436 C   0  0  0  0  0  0  0  0  0  0  0  0
   27.2797 -182.4844   31.6468 N   0  0  0  0  0  0  0  0  0  0  0  0
   27.0179 -182.8428   30.3681 C   0  0  0  0  0  0  0  0  0  0  0  0
   25.9050 -182.7772   29.9632 O   0  0  0  0  0  0  0  0  0  0  0  0
   28.0181 -183.2608   29.5579 N   0  0  0  0  0  0  0  0  0  0  0  0
   26.5453 -182.1665   32.2203 H   0  0  0  0  0  0  0  0  0  0  0  0
 27 28  2  0  0  0
 28 29  1  0  0  0
 28 31  1  0  0  0
 29 30  2  0  0  0
 30 34  1  0  0  0
 31 32  1  0  0  0
 32 33  2  0  0  0
 32 34  1  0  0  0
 34 20  1  0  0  0
 20 21  1  0  0  0
 20 24  1  0  0  0
 21 22  1  0  0  0
 22 23  1  0  0  0
 22 25  1  0  0  0
 24 25  1  0  0  0
 25 19  1  0  0  0
 19  1  1  0  0  0
  1  2  1  0  0  0
  2  3  2  0  0  0
  2  4  1  0  0  0
  2  6  1  0  0  0
  6  8  1  0  0  0
  8  9  2  0  0  0
  8 10  1  0  0  0
  8 12  1  0  0  0
 12 13  1  0  0  0
 13 14  2  0  0  0
 13 15  1  0  0  0
 13 16  1  0  0  0
 31 35  1  0  0  0
 23 26  1  0  0  0
  4  5  1  0  0  0
  6  7  1  0  0  0
 10 11  1  0  0  0
 15 17  1  0  0  0
 16 18  1  0  0  0
M  END
> <minimizedAffinity>
-9.38844

$$$$
5HVA_DUP_C_201


 35 36  0  0  0  0  0  0  0  0999 V2000
   30.5634 -182.9259   24.1283 O   0  0  0  0  0  0  0  0  0  0  0  0
   31.5591 -183.7285   23.0901 P   0  0  0  0  0  0  0  0  0  0  0  0
   32.7183 -184.3345   23.8479 O   0  0  0  0  0  0  0  0  0  0  0  0
   30.7419 -184.7818   22.3826 O   0  0  0  0  0  0  0  0  0  0  0  0
   30.4460 -185.4464   23.0242 H   0  0  0  0  0  0  0  0  0  0  0  0
   32.0275 -182.6168   21.8854 N   0  0  0  0  0  0  0  0  0  0  0  0
   32.0520 -181.7106   22.3529 H   0  0  0  0  0  0  0  0  0  0  0  0
   33.4562 -182.6822   20.9650 P   0  0  0  0  0  0  0  0  0  0  0  0
   34.1391 -181.3364   21.0483 O   0  0  0  0  0  0  0  0  0  0  0  0
   34.4174 -183.7436   21.4414 O   0  0  0  0  0  0  0  0  0  0  0  0
   34.6774 -183.5569   22.3571 H   0  0  0  0  0  0  0  0  0  0  0  0
   32.9969 -182.9701   19.4169 O   0  0  0  0  0  0  0  0  0  0  0  0
   31.9628 -184.1838   19.0166 P   0  0  0  0  0  0  0  0  0  0  0  0
   32.3133 -185.3939   19.8533 O   0  0  0  0  0  0  0  0  0  0  0  0
   32.0638 -184.5196   17.5455 O   0  0  0  0  0  0  0  0  0  0  0  0
   30.5632 -183.7830   19.3934 O   0  0  0  0  0  0  0  0  0  0  0  0
   32.9757 -184.7735   17.3338 H   0  0  0  0  0  0  0  0  0  0  0  0
   30.5304 -183.5743   20.3401 H   0  0  0  0  0  0  0  0  0  0  0  0
   30.4599 -183.3853   25.4392 C   0  0  0  0  0  0  0  0  0  0  0  0
   28.2169 -183.9965   27.7192 C   0  0  0  0  0  0  0  0  0  0  0  0
   27.8636 -183.0548   26.8518 C   0  0  0  0  0  0  0  0  0  0  0  0
   28.1214 -183.6947   25.3869 C   0  0  0  0  0  0  0  0  0  0  0  0
   27.0826 -184.6147   25.0839 O   0  0  0  0  0  0  0  0  0  0  0  0
   29.2574 -184.9206   26.9504 O   0  0  0  0  0  0  0  0  0  0  0  0
   29.3023 -184.3647   25.5301 C   0  0  0  0  0  0  0  0  0  0  0  0
   27.0364 -185.2904   25.7784 H   0  0  0  0  0  0  0  0  0  0  0  0
   30.5897 -182.3772   32.2657 O   0  0  0  0  0  0  0  0  0  0  0  0
   30.0629 -182.7365   31.2450 C   0  0  0  0  0  0  0  0  0  0  0  0
   30.8019 -183.1761   30.1930 C   0  0  0  0  0  0  0  0  0  0  0  0
   30.1886 -183.5709   29.0384 C   0  0  0  0  0  0  0  0  0  0  0  0
   28.7397 -182.7093   31.1295 N   0  0  0  0  0  0  0  0  0  0  0  0
   28.1286 -183.1098   29.9900 C   0  0  0  0  0  0  0  0  0  0  0  0
   26.9446 -183.0817   29.9258 O   0  0  0  0  0  0  0  0  0  0  0  0
   28.8624 -183.5272   28.9323 N   0  0  0  0  0  0  0  0  0  0  0  0
   28.1944 -182.3924   31.8854 H   0  0  0  0  0  0  0  0  0  0  0  0
 27 28  2  0  0  0
 28 29  1  0  0  0
 28 31  1  0  0  0
 29 30  2  0  0  0
 30 34  1  0  0  0
 31 32  1  0  0  0
 32 33  2  0  0  0
 32 34  1  0  0  0
 34 20  1  0  0  0
 20 21  1  0  0  0
 20 24  1  0  0  0
 21 22  1  0  0  0
 22 23  1  0  0  0
 22 25  1  0  0  0
 24 25  1  0  0  0
 25 19  1  0  0  0
 19  1  1  0  0  0
  1  2  1  0  0  0
  2  3  2  0  0  0
  2  4  1  0  0  0
  2  6  1  0  0  0
  6  8  1  0  0  0
  8  9  2  0  0  0
  8 10  1  0  0  0
  8 12  1  0  0  0
 12 13  1  0  0  0
 13 14  2  0  0  0
 13 15  1  0  0  0
 13 16  1  0  0  0
 31 35  1  0  0  0
 23 26  1  0  0  0
  4  5  1  0  0  0
  6  7  1  0  0  0
 10 11  1  0  0  0
 15 17  1  0  0  0
 16 18  1  0  0  0
M  END
> <minimizedAffinity>
-9.13577

$$$$
5HVA_DUP_C_201


 35 36  0  0  0  0  0  0  0  0999 V2000
   31.5421 -183.5543   25.0872 O   0  0  0  0  0  0  0  0  0  0  0  0
   32.3494 -183.2759   23.6786 P   0  0  0  0  0  0  0  0  0  0  0  0
   32.8998 -184.5732   23.1314 O   0  0  0  0  0  0  0  0  0  0  0  0
   31.3895 -182.6245   22.7133 O   0  0  0  0  0  0  0  0  0  0  0  0
   30.6831 -183.2500   22.4881 H   0  0  0  0  0  0  0  0  0  0  0  0
   33.5432 -182.1042   24.0088 N   0  0  0  0  0  0  0  0  0  0  0  0
   33.3824 -181.8242   24.9763 H   0  0  0  0  0  0  0  0  0  0  0  0
   35.2246 -182.3263   23.8827 P   0  0  0  0  0  0  0  0  0  0  0  0
   35.6755 -183.2115   25.0218 O   0  0  0  0  0  0  0  0  0  0  0  0
   35.6399 -182.9642   22.5797 O   0  0  0  0  0  0  0  0  0  0  0  0
   35.2309 -183.8405   22.5039 H   0  0  0  0  0  0  0  0  0  0  0  0
   35.9010 -180.8403   24.0412 O   0  0  0  0  0  0  0  0  0  0  0  0
   35.4455 -179.5622   23.1129 P   0  0  0  0  0  0  0  0  0  0  0  0
   36.6949 -178.9223   22.5500 O   0  0  0  0  0  0  0  0  0  0  0  0
   34.6631 -178.5539   23.9243 O   0  0  0  0  0  0  0  0  0  0  0  0
   34.6462 -180.0636   21.9419 O   0  0  0  0  0  0  0  0  0  0  0  0
   35.2035 -178.2500   24.6703 H   0  0  0  0  0  0  0  0  0  0  0  0
   35.1732 -180.7068   21.4424 H   0  0  0  0  0  0  0  0  0  0  0  0
   30.2681 -183.0128   25.2417 C   0  0  0  0  0  0  0  0  0  0  0  0
   28.2761 -184.0841   27.5841 C   0  0  0  0  0  0  0  0  0  0  0  0
   27.7480 -183.1381   26.8160 C   0  0  0  0  0  0  0  0  0  0  0  0
   27.9912 -183.6295   25.2924 C   0  0  0  0  0  0  0  0  0  0  0  0
   27.0634 -184.6565   24.9736 O   0  0  0  0  0  0  0  0  0  0  0  0
   29.3758 -184.8014   26.6877 O   0  0  0  0  0  0  0  0  0  0  0  0
   29.2560 -184.1430   25.3165 C   0  0  0  0  0  0  0  0  0  0  0  0
   27.1505 -185.3808   25.6129 H   0  0  0  0  0  0  0  0  0  0  0  0
   30.6873 -182.4891   32.1190 O   0  0  0  0  0  0  0  0  0  0  0  0
   30.1520 -182.8430   31.1009 C   0  0  0  0  0  0  0  0  0  0  0  0
   30.8810 -183.2957   30.0475 C   0  0  0  0  0  0  0  0  0  0  0  0
   30.2582 -183.6841   28.8958 C   0  0  0  0  0  0  0  0  0  0  0  0
   28.8289 -182.7969   30.9897 N   0  0  0  0  0  0  0  0  0  0  0  0
   28.2083 -183.1911   29.8532 C   0  0  0  0  0  0  0  0  0  0  0  0
   27.0246 -183.1459   29.7928 O   0  0  0  0  0  0  0  0  0  0  0  0
   28.9324 -183.6214   28.7940 N   0  0  0  0  0  0  0  0  0  0  0  0
   28.2908 -182.4705   31.7467 H   0  0  0  0  0  0  0  0  0  0  0  0
 27 28  2  0  0  0
 28 29  1  0  0  0
 28 31  1  0  0  0
 29 30  2  0  0  0
 30 34  1  0  0  0
 31 32  1  0  0  0
 32 33  2  0  0  0
 32 34  1  0  0  0
 34 20  1  0  0  0
 20 21  1  0  0  0
 20 24  1  0  0  0
 21 22  1  0  0  0
 22 23  1  0  0  0
 22 25  1  0  0  0
 24 25  1  0  0  0
 25 19  1  0  0  0
 19  1  1  0  0  0
  1  2  1  0  0  0
  2  3  2  0  0  0
  2  4  1  0  0  0
  2  6  1  0  0  0
  6  8  1  0  0  0
  8  9  2  0  0  0
  8 10  1  0  0  0
  8 12  1  0  0  0
 12 13  1  0  0  0
 13 14  2  0  0  0
 13 15  1  0  0  0
 13 16  1  0  0  0
 31 35  1  0  0  0
 23 26  1  0  0  0
  4  5  1  0  0  0
  6  7  1  0  0  0
 10 11  1  0  0  0
 15 17  1  0  0  0
 16 18  1  0  0  0
M  END
> <minimizedAffinity>
-8.79989

$$$$
5HVA_DUP_C_201


 35 36  0  0  0  0  0  0  0  0999 V2000
   31.5790 -183.6723   24.7445 O   0  0  0  0  0  0  0  0  0  0  0  0
   31.8099 -183.6612   23.1136 P   0  0  0  0  0  0  0  0  0  0  0  0
   31.2811 -184.9407   22.5065 O   0  0  0  0  0  0  0  0  0  0  0  0
   31.1118 -182.4462   22.5532 O   0  0  0  0  0  0  0  0  0  0  0  0
   30.1542 -182.5368   22.6791 H   0  0  0  0  0  0  0  0  0  0  0  0
   33.4741 -183.4060   22.8452 N   0  0  0  0  0  0  0  0  0  0  0  0
   33.5258 -182.8677   21.9803 H   0  0  0  0  0  0  0  0  0  0  0  0
   34.5534 -182.6389   23.9125 P   0  0  0  0  0  0  0  0  0  0  0  0
   34.3662 -181.1444   23.7877 O   0  0  0  0  0  0  0  0  0  0  0  0
   34.3409 -183.0353   25.3530 O   0  0  0  0  0  0  0  0  0  0  0  0
   33.4445 -182.7867   25.6279 H   0  0  0  0  0  0  0  0  0  0  0  0
   36.0630 -183.0466   23.4167 O   0  0  0  0  0  0  0  0  0  0  0  0
   37.3616 -183.0059   24.4241 P   0  0  0  0  0  0  0  0  0  0  0  0
   37.6066 -181.5657   24.8155 O   0  0  0  0  0  0  0  0  0  0  0  0
   38.5883 -183.5796   23.7512 O   0  0  0  0  0  0  0  0  0  0  0  0
   37.0289 -183.7511   25.6872 O   0  0  0  0  0  0  0  0  0  0  0  0
   38.7769 -183.0793   22.9418 H   0  0  0  0  0  0  0  0  0  0  0  0
   36.2398 -183.3609   26.0945 H   0  0  0  0  0  0  0  0  0  0  0  0
   30.4098 -183.1126   25.2544 C   0  0  0  0  0  0  0  0  0  0  0  0
   28.3057 -184.0138   27.5702 C   0  0  0  0  0  0  0  0  0  0  0  0
   27.8465 -183.0654   26.7618 C   0  0  0  0  0  0  0  0  0  0  0  0
   28.1040 -183.6127   25.2597 C   0  0  0  0  0  0  0  0  0  0  0  0
   27.1337 -184.6008   24.9443 O   0  0  0  0  0  0  0  0  0  0  0  0
   29.3904 -184.8113   26.7247 O   0  0  0  0  0  0  0  0  0  0  0  0
   29.3399 -184.1880   25.3329 C   0  0  0  0  0  0  0  0  0  0  0  0
   27.1672 -185.3095   25.6056 H   0  0  0  0  0  0  0  0  0  0  0  0
   30.6868 -182.4139   32.1192 O   0  0  0  0  0  0  0  0  0  0  0  0
   30.1581 -182.7688   31.0979 C   0  0  0  0  0  0  0  0  0  0  0  0
   30.8959 -183.1879   30.0368 C   0  0  0  0  0  0  0  0  0  0  0  0
   30.2802 -183.5780   28.8817 C   0  0  0  0  0  0  0  0  0  0  0  0
   28.8340 -182.7567   30.9909 N   0  0  0  0  0  0  0  0  0  0  0  0
   28.2207 -183.1526   29.8510 C   0  0  0  0  0  0  0  0  0  0  0  0
   27.0361 -183.1385   29.7943 O   0  0  0  0  0  0  0  0  0  0  0  0
   28.9530 -183.5495   28.7843 N   0  0  0  0  0  0  0  0  0  0  0  0
   28.2896 -182.4548   31.7535 H   0  0  0  0  0  0  0  0  0  0  0  0
 27 28  2  0  0  0
 28 29  1  0  0  0
 28 31  1  0  0  0
 29 30  2  0  0  0
 30 34  1  0  0  0
 31 32  1  0  0  0
 32 33  2  0  0  0
 32 34  1  0  0  0
 34 20  1  0  0  0
 20 21  1  0  0  0
 20 24  1  0  0  0
 21 22  1  0  0  0
 22 23  1  0  0  0
 22 25  1  0  0  0
 24 25  1  0  0  0
 25 19  1  0  0  0
 19  1  1  0  0  0
  1  2  1  0  0  0
  2  3  2  0  0  0
  2  4  1  0  0  0
  2  6  1  0  0  0
  6  8  1  0  0  0
  8  9  2  0  0  0
  8 10  1  0  0  0
  8 12  1  0  0  0
 12 13  1  0  0  0
 13 14  2  0  0  0
 13 15  1  0  0  0
 13 16  1  0  0  0
 31 35  1  0  0  0
 23 26  1  0  0  0
  4  5  1  0  0  0
  6  7  1  0  0  0
 10 11  1  0  0  0
 15 17  1  0  0  0
 16 18  1  0  0  0
M  END
> <minimizedAffinity>
-8.57423

$$$$
5HVA_DUP_C_201


 35 36  0  0  0  0  0  0  0  0999 V2000
   28.3165 -183.7630   27.1242 O   0  0  0  0  0  0  0  0  0  0  0  0
   27.9868 -183.4800   25.5353 P   0  0  0  0  0  0  0  0  0  0  0  0
   27.4779 -184.7430   24.8786 O   0  0  0  0  0  0  0  0  0  0  0  0
   26.9730 -182.3644   25.4621 O   0  0  0  0  0  0  0  0  0  0  0  0
   26.1360 -182.6620   25.8517 H   0  0  0  0  0  0  0  0  0  0  0  0
   29.4106 -182.8610   24.8309 N   0  0  0  0  0  0  0  0  0  0  0  0
   29.8660 -182.3288   25.5723 H   0  0  0  0  0  0  0  0  0  0  0  0
   30.6512 -183.7765   24.1130 P   0  0  0  0  0  0  0  0  0  0  0  0
   31.1463 -183.0349   22.8928 O   0  0  0  0  0  0  0  0  0  0  0  0
   31.8177 -184.0188   25.0393 O   0  0  0  0  0  0  0  0  0  0  0  0
   32.2059 -183.1688   25.2995 H   0  0  0  0  0  0  0  0  0  0  0  0
   29.9719 -185.1973   23.6541 O   0  0  0  0  0  0  0  0  0  0  0  0
   30.8120 -186.3526   22.8403 P   0  0  0  0  0  0  0  0  0  0  0  0
   32.2817 -186.1654   23.1440 O   0  0  0  0  0  0  0  0  0  0  0  0
   30.5700 -186.2517   21.3510 O   0  0  0  0  0  0  0  0  0  0  0  0
   30.4260 -187.7066   23.3688 O   0  0  0  0  0  0  0  0  0  0  0  0
   30.8278 -185.3696   21.0406 H   0  0  0  0  0  0  0  0  0  0  0  0
   30.5923 -187.7404   24.3239 H   0  0  0  0  0  0  0  0  0  0  0  0
   28.6991 -182.6896   27.9253 C   0  0  0  0  0  0  0  0  0  0  0  0
   30.8221 -183.0189   30.3721 C   0  0  0  0  0  0  0  0  0  0  0  0
   30.4940 -184.1632   29.7832 C   0  0  0  0  0  0  0  0  0  0  0  0
   30.6999 -183.9103   28.1972 C   0  0  0  0  0  0  0  0  0  0  0  0
   32.0861 -183.9428   27.8898 O   0  0  0  0  0  0  0  0  0  0  0  0
   30.6062 -181.8918   29.2718 O   0  0  0  0  0  0  0  0  0  0  0  0
   30.2155 -182.6483   28.0056 C   0  0  0  0  0  0  0  0  0  0  0  0
   32.5529 -183.2872   28.4313 H   0  0  0  0  0  0  0  0  0  0  0  0
   27.8843 -181.7973   34.7080 O   0  0  0  0  0  0  0  0  0  0  0  0
   28.5449 -182.0654   33.7384 C   0  0  0  0  0  0  0  0  0  0  0  0
   29.8901 -181.8750   33.7334 C   0  0  0  0  0  0  0  0  0  0  0  0
   30.6235 -182.1753   32.6211 C   0  0  0  0  0  0  0  0  0  0  0  0
   27.9649 -182.5562   32.6486 N   0  0  0  0  0  0  0  0  0  0  0  0
   28.6906 -182.8645   31.5484 C   0  0  0  0  0  0  0  0  0  0  0  0
   28.1409 -183.3105   30.5968 O   0  0  0  0  0  0  0  0  0  0  0  0
   30.0276 -182.6553   31.5319 N   0  0  0  0  0  0  0  0  0  0  0  0
   26.9907 -182.6981   32.6411 H   0  0  0  0  0  0  0  0  0  0  0  0
 27 28  2  0  0  0
 28 29  1  0  0  0
 28 31  1  0  0  0
 29 30  2  0  0  0
 30 34  1  0  0  0
 31 32  1  0  0  0
 32 33  2  0  0  0
 32 34  1  0  0  0
 34 20  1  0  0  0
 20 21  1  0  0  0
 20 24  1  0  0  0
 21 22  1  0  0  0
 22 23  1  0  0  0
 22 25  1  0  0  0
 24 25  1  0  0  0
 25 19  1  0  0  0
 19  1  1  0  0  0
  1  2  1  0  0  0
  2  3  2  0  0  0
  2  4  1  0  0  0
  2  6  1  0  0  0
  6  8  1  0  0  0
  8  9  2  0  0  0
  8 10  1  0  0  0
  8 12  1  0  0  0
 12 13  1  0  0  0
 13 14  2  0  0  0
 13 15  1  0  0  0
 13 16  1  0  0  0
 31 35  1  0  0  0
 23 26  1  0  0  0
  4  5  1  0  0  0
  6  7  1  0  0  0
 10 11  1  0  0  0
 15 17  1  0  0  0
 16 18  1  0  0  0
M  END
> <minimizedAffinity>
-8.22307

$$$$
5HVA_DUP_C_201


 35 36  0  0  0  0  0  0  0  0999 V2000
   32.7985 -183.0937   27.2705 O   0  0  0  0  0  0  0  0  0  0  0  0
   34.0940 -183.9503   26.7217 P   0  0  0  0  0  0  0  0  0  0  0  0
   35.3680 -183.1714   26.9575 O   0  0  0  0  0  0  0  0  0  0  0  0
   34.1103 -185.2788   27.4375 O   0  0  0  0  0  0  0  0  0  0  0  0
   34.2759 -185.1349   28.3824 H   0  0  0  0  0  0  0  0  0  0  0  0
   33.7982 -184.3098   25.0816 N   0  0  0  0  0  0  0  0  0  0  0  0
   32.8285 -184.6243   25.0476 H   0  0  0  0  0  0  0  0  0  0  0  0
   33.9632 -183.2325   23.7758 P   0  0  0  0  0  0  0  0  0  0  0  0
   33.3867 -181.8964   24.1841 O   0  0  0  0  0  0  0  0  0  0  0  0
   35.3981 -183.0325   23.3533 O   0  0  0  0  0  0  0  0  0  0  0  0
   35.9044 -182.6621   24.0931 H   0  0  0  0  0  0  0  0  0  0  0  0
   33.0791 -183.8589   22.5443 O   0  0  0  0  0  0  0  0  0  0  0  0
   31.4786 -184.2027   22.6955 P   0  0  0  0  0  0  0  0  0  0  0  0
   31.3210 -185.2287   23.7955 O   0  0  0  0  0  0  0  0  0  0  0  0
   30.9136 -184.7373   21.3986 O   0  0  0  0  0  0  0  0  0  0  0  0
   30.7493 -182.9664   23.1440 O   0  0  0  0  0  0  0  0  0  0  0  0
   31.4033 -185.5324   21.1360 H   0  0  0  0  0  0  0  0  0  0  0  0
   31.1334 -182.6482   23.9759 H   0  0  0  0  0  0  0  0  0  0  0  0
   31.7515 -183.7857   27.8750 C   0  0  0  0  0  0  0  0  0  0  0  0
   28.8878 -182.3897   28.5480 C   0  0  0  0  0  0  0  0  0  0  0  0
   29.8010 -181.5494   28.0750 C   0  0  0  0  0  0  0  0  0  0  0  0
   30.3775 -182.2456   26.7315 C   0  0  0  0  0  0  0  0  0  0  0  0
   29.4350 -182.0950   25.6797 O   0  0  0  0  0  0  0  0  0  0  0  0
   29.2871 -183.8211   27.9831 O   0  0  0  0  0  0  0  0  0  0  0  0
   30.4824 -183.5641   27.0702 C   0  0  0  0  0  0  0  0  0  0  0  0
   28.5831 -182.4700   25.9528 H   0  0  0  0  0  0  0  0  0  0  0  0
   28.5836 -182.9058   33.8926 O   0  0  0  0  0  0  0  0  0  0  0  0
   28.6569 -182.7871   32.6972 C   0  0  0  0  0  0  0  0  0  0  0  0
   29.8394 -182.9515   32.0486 C   0  0  0  0  0  0  0  0  0  0  0  0
   29.9069 -182.8034   30.6926 C   0  0  0  0  0  0  0  0  0  0  0  0
   27.5740 -182.4914   31.9866 N   0  0  0  0  0  0  0  0  0  0  0  0
   27.6359 -182.3543   30.6414 C   0  0  0  0  0  0  0  0  0  0  0  0
   26.6471 -182.0999   30.0379 O   0  0  0  0  0  0  0  0  0  0  0  0
   28.8162 -182.4953   29.9945 N   0  0  0  0  0  0  0  0  0  0  0  0
   26.7119 -182.3699   32.4463 H   0  0  0  0  0  0  0  0  0  0  0  0
 27 28  2  0  0  0
 28 29  1  0  0  0
 28 31  1  0  0  0
 29 30  2  0  0  0
 30 34  1  0  0  0
 31 32  1  0  0  0
 32 33  2  0  0  0
 32 34  1  0  0  0
 34 20  1  0  0  0
 20 21  1  0  0  0
 20 24  1  0  0  0
 21 22  1  0  0  0
 22 23  1  0  0  0
 22 25  1  0  0  0
 24 25  1  0  0  0
 25 19  1  0  0  0
 19  1  1  0  0  0
  1  2  1  0  0  0
  2  3  2  0  0  0
  2  4  1  0  0  0
  2  6  1  0  0  0
  6  8  1  0  0  0
  8  9  2  0  0  0
  8 10  1  0  0  0
  8 12  1  0  0  0
 12 13  1  0  0  0
 13 14  2  0  0  0
 13 15  1  0  0  0
 13 16  1  0  0  0
 31 35  1  0  0  0
 23 26  1  0  0  0
  4  5  1  0  0  0
  6  7  1  0  0  0
 10 11  1  0  0  0
 15 17  1  0  0  0
 16 18  1  0  0  0
M  END
> <minimizedAffinity>
-8.17959

$$$$
5HVA_DUP_C_201


 35 36  0  0  0  0  0  0  0  0999 V2000
   32.3139 -182.2635   24.7758 O   0  0  0  0  0  0  0  0  0  0  0  0
   33.7789 -182.6136   24.1091 P   0  0  0  0  0  0  0  0  0  0  0  0
   34.5177 -181.3361   23.7811 O   0  0  0  0  0  0  0  0  0  0  0  0
   34.5450 -183.4661   25.0909 O   0  0  0  0  0  0  0  0  0  0  0  0
   34.7396 -182.9470   25.8868 H   0  0  0  0  0  0  0  0  0  0  0  0
   33.4884 -183.6098   22.7564 N   0  0  0  0  0  0  0  0  0  0  0  0
   33.3339 -184.5424   23.1396 H   0  0  0  0  0  0  0  0  0  0  0  0
   32.2596 -183.3939   21.6005 P   0  0  0  0  0  0  0  0  0  0  0  0
   31.4773 -184.6823   21.4897 O   0  0  0  0  0  0  0  0  0  0  0  0
   31.3073 -182.2775   21.9528 O   0  0  0  0  0  0  0  0  0  0  0  0
   30.8721 -182.4778   22.7962 H   0  0  0  0  0  0  0  0  0  0  0  0
   33.0127 -183.0845   20.1765 O   0  0  0  0  0  0  0  0  0  0  0  0
   34.2555 -182.0155   20.0519 P   0  0  0  0  0  0  0  0  0  0  0  0
   34.2644 -181.4689   18.6417 O   0  0  0  0  0  0  0  0  0  0  0  0
   35.5773 -182.6817   20.3615 O   0  0  0  0  0  0  0  0  0  0  0  0
   33.9986 -180.8521   20.9695 O   0  0  0  0  0  0  0  0  0  0  0  0
   35.7141 -183.4261   19.7549 H   0  0  0  0  0  0  0  0  0  0  0  0
   33.1460 -180.4468   20.7467 H   0  0  0  0  0  0  0  0  0  0  0  0
   31.8632 -183.0438   25.8381 C   0  0  0  0  0  0  0  0  0  0  0  0
   28.9651 -183.2826   27.3033 C   0  0  0  0  0  0  0  0  0  0  0  0
   29.1016 -182.1986   26.5483 C   0  0  0  0  0  0  0  0  0  0  0  0
   29.6386 -182.7311   25.1165 C   0  0  0  0  0  0  0  0  0  0  0  0
   28.5630 -183.3155   24.3963 O   0  0  0  0  0  0  0  0  0  0  0  0
   29.9594 -184.3613   26.6905 O   0  0  0  0  0  0  0  0  0  0  0  0
   30.5466 -183.6946   25.4499 C   0  0  0  0  0  0  0  0  0  0  0  0
   28.1651 -184.0232   24.9272 H   0  0  0  0  0  0  0  0  0  0  0  0
   30.1957 -182.8144   32.5176 O   0  0  0  0  0  0  0  0  0  0  0  0
   29.9251 -182.9156   31.3493 C   0  0  0  0  0  0  0  0  0  0  0  0
   30.8932 -183.1451   30.4240 C   0  0  0  0  0  0  0  0  0  0  0  0
   30.5702 -183.2475   29.1010 C   0  0  0  0  0  0  0  0  0  0  0  0
   28.6655 -182.8042   30.9422 N   0  0  0  0  0  0  0  0  0  0  0  0
   28.3410 -182.9157   29.6328 C   0  0  0  0  0  0  0  0  0  0  0  0
   27.2047 -182.8210   29.3064 O   0  0  0  0  0  0  0  0  0  0  0  0
   29.3052 -183.1220   28.7058 N   0  0  0  0  0  0  0  0  0  0  0  0
   27.9559 -182.6378   31.6041 H   0  0  0  0  0  0  0  0  0  0  0  0
 27 28  2  0  0  0
 28 29  1  0  0  0
 28 31  1  0  0  0
 29 30  2  0  0  0
 30 34  1  0  0  0
 31 32  1  0  0  0
 32 33  2  0  0  0
 32 34  1  0  0  0
 34 20  1  0  0  0
 20 21  1  0  0  0
 20 24  1  0  0  0
 21 22  1  0  0  0
 22 23  1  0  0  0
 22 25  1  0  0  0
 24 25  1  0  0  0
 25 19  1  0  0  0
 19  1  1  0  0  0
  1  2  1  0  0  0
  2  3  2  0  0  0
  2  4  1  0  0  0
  2  6  1  0  0  0
  6  8  1  0  0  0
  8  9  2  0  0  0
  8 10  1  0  0  0
  8 12  1  0  0  0
 12 13  1  0  0  0
 13 14  2  0  0  0
 13 15  1  0  0  0
 13 16  1  0  0  0
 31 35  1  0  0  0
 23 26  1  0  0  0
  4  5  1  0  0  0
  6  7  1  0  0  0
 10 11  1  0  0  0
 15 17  1  0  0  0
 16 18  1  0  0  0
M  END
> <minimizedAffinity>
-8.16507

$$$$
5HVA_DUP_C_201


 35 36  0  0  0  0  0  0  0  0999 V2000
   28.3868 -183.8864   27.0643 O   0  0  0  0  0  0  0  0  0  0  0  0
   28.0076 -183.5820   25.4904 P   0  0  0  0  0  0  0  0  0  0  0  0
   27.7026 -184.8762   24.7711 O   0  0  0  0  0  0  0  0  0  0  0  0
   26.8288 -182.6398   25.4699 O   0  0  0  0  0  0  0  0  0  0  0  0
   26.0520 -183.0855   25.8423 H   0  0  0  0  0  0  0  0  0  0  0  0
   29.3109 -182.7105   24.8208 N   0  0  0  0  0  0  0  0  0  0  0  0
   29.6659 -182.1330   25.5829 H   0  0  0  0  0  0  0  0  0  0  0  0
   30.6921 -183.3812   24.0893 P   0  0  0  0  0  0  0  0  0  0  0  0
   30.5586 -184.8866   24.1087 O   0  0  0  0  0  0  0  0  0  0  0  0
   30.8824 -182.9299   22.6619 O   0  0  0  0  0  0  0  0  0  0  0  0
   30.1181 -183.2044   22.1314 H   0  0  0  0  0  0  0  0  0  0  0  0
   31.9702 -182.9313   25.0138 O   0  0  0  0  0  0  0  0  0  0  0  0
   33.5257 -183.1116   24.5132 P   0  0  0  0  0  0  0  0  0  0  0  0
   34.3193 -183.7094   25.6535 O   0  0  0  0  0  0  0  0  0  0  0  0
   34.1211 -181.7833   24.1033 O   0  0  0  0  0  0  0  0  0  0  0  0
   33.5681 -184.1041   23.3843 O   0  0  0  0  0  0  0  0  0  0  0  0
   34.0795 -181.1660   24.8503 H   0  0  0  0  0  0  0  0  0  0  0  0
   33.1804 -184.9437   23.6771 H   0  0  0  0  0  0  0  0  0  0  0  0
   28.7209 -182.8133   27.8873 C   0  0  0  0  0  0  0  0  0  0  0  0
   30.8614 -182.9965   30.3342 C   0  0  0  0  0  0  0  0  0  0  0  0
   30.5856 -184.1659   29.7683 C   0  0  0  0  0  0  0  0  0  0  0  0
   30.7767 -183.9345   28.1772 C   0  0  0  0  0  0  0  0  0  0  0  0
   32.1624 -183.9087   27.8667 O   0  0  0  0  0  0  0  0  0  0  0  0
   30.5914 -181.9021   29.2130 O   0  0  0  0  0  0  0  0  0  0  0  0
   30.2339 -182.7002   27.9627 C   0  0  0  0  0  0  0  0  0  0  0  0
   32.5992 -183.2218   28.3942 H   0  0  0  0  0  0  0  0  0  0  0  0
   27.8741 -181.8297   34.6514 O   0  0  0  0  0  0  0  0  0  0  0  0
   28.5456 -182.0855   33.6860 C   0  0  0  0  0  0  0  0  0  0  0  0
   29.8871 -181.8700   33.6894 C   0  0  0  0  0  0  0  0  0  0  0  0
   30.6329 -182.1566   32.5817 C   0  0  0  0  0  0  0  0  0  0  0  0
   27.9817 -182.5871   32.5927 N   0  0  0  0  0  0  0  0  0  0  0  0
   28.7200 -182.8819   31.4971 C   0  0  0  0  0  0  0  0  0  0  0  0
   28.1847 -183.3380   30.5421 O   0  0  0  0  0  0  0  0  0  0  0  0
   30.0529 -182.6477   31.4889 N   0  0  0  0  0  0  0  0  0  0  0  0
   27.0104 -182.7472   32.5791 H   0  0  0  0  0  0  0  0  0  0  0  0
 27 28  2  0  0  0
 28 29  1  0  0  0
 28 31  1  0  0  0
 29 30  2  0  0  0
 30 34  1  0  0  0
 31 32  1  0  0  0
 32 33  2  0  0  0
 32 34  1  0  0  0
 34 20  1  0  0  0
 20 21  1  0  0  0
 20 24  1  0  0  0
 21 22  1  0  0  0
 22 23  1  0  0  0
 22 25  1  0  0  0
 24 25  1  0  0  0
 25 19  1  0  0  0
 19  1  1  0  0  0
  1  2  1  0  0  0
  2  3  2  0  0  0
  2  4  1  0  0  0
  2  6  1  0  0  0
  6  8  1  0  0  0
  8  9  2  0  0  0
  8 10  1  0  0  0
  8 12  1  0  0  0
 12 13  1  0  0  0
 13 14  2  0  0  0
 13 15  1  0  0  0
 13 16  1  0  0  0
 31 35  1  0  0  0
 23 26  1  0  0  0
  4  5  1  0  0  0
  6  7  1  0  0  0
 10 11  1  0  0  0
 15 17  1  0  0  0
 16 18  1  0  0  0
M  END
> <minimizedAffinity>
-8.16050

$$$$
5HVA_DUP_C_201


 35 36  0  0  0  0  0  0  0  0999 V2000
   31.1277 -185.5390   23.7297 O   0  0  0  0  0  0  0  0  0  0  0  0
   30.6133 -186.6035   22.5827 P   0  0  0  0  0  0  0  0  0  0  0  0
   30.3630 -187.9574   23.2070 O   0  0  0  0  0  0  0  0  0  0  0  0
   29.3639 -186.0394   21.9514 O   0  0  0  0  0  0  0  0  0  0  0  0
   28.6543 -186.0068   22.6119 H   0  0  0  0  0  0  0  0  0  0  0  0
   31.7907 -186.6189   21.3497 N   0  0  0  0  0  0  0  0  0  0  0  0
   31.5335 -187.3985   20.7443 H   0  0  0  0  0  0  0  0  0  0  0  0
   32.1505 -185.3349   20.2941 P   0  0  0  0  0  0  0  0  0  0  0  0
   32.9178 -185.8876   19.1150 O   0  0  0  0  0  0  0  0  0  0  0  0
   30.9190 -184.6283   19.7826 O   0  0  0  0  0  0  0  0  0  0  0  0
   30.3676 -185.2557   19.2895 H   0  0  0  0  0  0  0  0  0  0  0  0
   33.1054 -184.2989   21.1339 O   0  0  0  0  0  0  0  0  0  0  0  0
   32.9456 -182.6665   21.0215 P   0  0  0  0  0  0  0  0  0  0  0  0
   34.0367 -182.0300   21.8532 O   0  0  0  0  0  0  0  0  0  0  0  0
   31.5871 -182.2193   21.5127 O   0  0  0  0  0  0  0  0  0  0  0  0
   33.1805 -182.2454   19.5971 O   0  0  0  0  0  0  0  0  0  0  0  0
   31.4655 -182.5049   22.4316 H   0  0  0  0  0  0  0  0  0  0  0  0
   34.0575 -182.5458   19.3115 H   0  0  0  0  0  0  0  0  0  0  0  0
   30.1910 -184.6944   24.3208 C   0  0  0  0  0  0  0  0  0  0  0  0
   30.4986 -182.2928   26.4980 C   0  0  0  0  0  0  0  0  0  0  0  0
   31.5622 -183.0834   26.4112 C   0  0  0  0  0  0  0  0  0  0  0  0
   31.9143 -183.1663   24.8329 C   0  0  0  0  0  0  0  0  0  0  0  0
   32.5526 -181.9639   24.4276 O   0  0  0  0  0  0  0  0  0  0  0  0
   29.7779 -182.3849   25.0839 O   0  0  0  0  0  0  0  0  0  0  0  0
   30.6914 -183.2627   24.2336 C   0  0  0  0  0  0  0  0  0  0  0  0
   31.9825 -181.2081   24.6390 H   0  0  0  0  0  0  0  0  0  0  0  0
   26.8255 -183.5223   30.2289 O   0  0  0  0  0  0  0  0  0  0  0  0
   27.6472 -183.2529   29.3918 C   0  0  0  0  0  0  0  0  0  0  0  0
   27.5038 -183.6757   28.1086 C   0  0  0  0  0  0  0  0  0  0  0  0
   28.4507 -183.3695   27.1733 C   0  0  0  0  0  0  0  0  0  0  0  0
   28.7161 -182.5317   29.7114 N   0  0  0  0  0  0  0  0  0  0  0  0
   29.6510 -182.2179   28.7842 C   0  0  0  0  0  0  0  0  0  0  0  0
   30.5875 -181.5635   29.1028 O   0  0  0  0  0  0  0  0  0  0  0  0
   29.5229 -182.6561   27.5102 N   0  0  0  0  0  0  0  0  0  0  0  0
   28.8302 -182.2202   30.6384 H   0  0  0  0  0  0  0  0  0  0  0  0
 27 28  2  0  0  0
 28 29  1  0  0  0
 28 31  1  0  0  0
 29 30  2  0  0  0
 30 34  1  0  0  0
 31 32  1  0  0  0
 32 33  2  0  0  0
 32 34  1  0  0  0
 34 20  1  0  0  0
 20 21  1  0  0  0
 20 24  1  0  0  0
 21 22  1  0  0  0
 22 23  1  0  0  0
 22 25  1  0  0  0
 24 25  1  0  0  0
 25 19  1  0  0  0
 19  1  1  0  0  0
  1  2  1  0  0  0
  2  3  2  0  0  0
  2  4  1  0  0  0
  2  6  1  0  0  0
  6  8  1  0  0  0
  8  9  2  0  0  0
  8 10  1  0  0  0
  8 12  1  0  0  0
 12 13  1  0  0  0
 13 14  2  0  0  0
 13 15  1  0  0  0
 13 16  1  0  0  0
 31 35  1  0  0  0
 23 26  1  0  0  0
  4  5  1  0  0  0
  6  7  1  0  0  0
 10 11  1  0  0  0
 15 17  1  0  0  0
 16 18  1  0  0  0
M  END
> <minimizedAffinity>
-8.03151

$$$$
