2FLR_7NH_H_258


 32 35  0  0  0  0  0  0  0  0999 V2000
   51.0220   -8.9313    9.7745 C   0  0  0  0  0  0  0  0  0  0  0  0
   51.9442   -9.9664    9.9221 C   0  0  0  0  0  0  0  0  0  0  0  0
   53.1121   -9.9944    9.2002 C   0  0  0  0  0  0  0  0  0  0  0  0
   53.3781   -8.9762    8.3117 C   0  0  0  0  0  0  0  0  0  0  0  0
   52.4870   -7.9082    8.1224 C   0  0  0  0  0  0  0  0  0  0  0  0
   51.3159   -7.9145    8.8638 C   0  0  0  0  0  0  0  0  0  0  0  0
   50.4056   -6.9010    8.6751 O   0  0  0  0  0  0  0  0  0  0  0  0
   49.6086   -6.8893    9.1677 H   0  0  0  0  0  0  0  0  0  0  0  0
   46.1680   -9.1604   12.9229 N   0  0  0  0  0  0  0  0  0  0  0  0
   46.0155   -7.8796   12.5438 C   0  0  0  0  0  0  0  0  0  0  0  0
   47.0142   -7.3397   11.7261 C   0  0  0  0  0  0  0  0  0  0  0  0
   48.0318   -8.1601   11.3978 C   0  0  0  0  0  0  0  0  0  0  0  0
   48.1303   -9.4289   11.8065 C   0  0  0  0  0  0  0  0  0  0  0  0
   47.1638   -9.9850   12.6104 C   0  0  0  0  0  0  0  0  0  0  0  0
   49.0846   -7.9035   10.6442 N   0  0  0  0  0  0  0  0  0  0  0  0
   49.2581   -9.9334   11.2896 C   0  0  0  0  0  0  0  0  0  0  0  0
   49.8772   -8.9580   10.5367 C   0  0  0  0  0  0  0  0  0  0  0  0
   49.2588   -7.0348   10.2150 H   0  0  0  0  0  0  0  0  0  0  0  0
   52.8136   -6.9075    7.2269 C   0  0  0  0  0  0  0  0  0  0  0  0
   52.2438   -6.8514    5.9514 C   0  0  0  0  0  0  0  0  0  0  0  0
   52.5980   -5.8644    5.0410 C   0  0  0  0  0  0  0  0  0  0  0  0
   53.5392   -4.9110    5.4060 C   0  0  0  0  0  0  0  0  0  0  0  0
   54.1202   -4.9447    6.6657 C   0  0  0  0  0  0  0  0  0  0  0  0
   53.7541   -5.9322    7.5630 C   0  0  0  0  0  0  0  0  0  0  0  0
   55.1698   -3.9177    7.0501 C   0  0  0  0  0  0  0  0  0  0  0  0
   55.6933   -3.1885    5.8611 N   0  0  0  0  0  0  0  0  0  0  0  0
   56.9038   -2.7000    5.8407 C   0  0  0  0  0  0  0  0  0  0  0  0
   57.6688   -2.7844    6.7774 O   0  0  0  0  0  0  0  0  0  0  0  0
   57.3101   -2.0815    4.7653 N   0  0  0  0  0  0  0  0  0  0  0  0
   55.1138   -3.0724    5.0737 H   0  0  0  0  0  0  0  0  0  0  0  0
   56.7101   -1.9979    3.9892 H   0  0  0  0  0  0  0  0  0  0  0  0
   58.2164   -1.6987    4.7303 H   0  0  0  0  0  0  0  0  0  0  0  0
  9 10  1  0  0  0
  9 14  2  0  0  0
 10 11  2  0  0  0
 11 12  1  0  0  0
 12 13  2  0  0  0
 12 15  1  0  0  0
 13 14  1  0  0  0
 13 16  1  0  0  0
 15 17  1  0  0  0
 16 17  2  0  0  0
 17  1  1  0  0  0
  1  2  2  0  0  0
  1  6  1  0  0  0
  2  3  1  0  0  0
  3  4  2  0  0  0
  4  5  1  0  0  0
  5  6  2  0  0  0
  5 19  1  0  0  0
  6  7  1  0  0  0
 19 20  2  0  0  0
 19 24  1  0  0  0
 20 21  1  0  0  0
 21 22  2  0  0  0
 22 23  1  0  0  0
 23 24  2  0  0  0
 23 25  1  0  0  0
 25 26  1  0  0  0
 26 27  1  0  0  0
 27 28  2  0  0  0
 27 29  1  0  0  0
 15 18  1  0  0  0
  7  8  1  0  0  0
 26 30  1  0  0  0
 29 31  1  0  0  0
 29 32  1  0  0  0
M  END
> <minimizedAffinity>
-10.33605

$$$$
2FLR_7NH_H_258


 32 35  0  0  0  0  0  0  0  0999 V2000
   51.1572   -8.8057    9.6615 C   0  0  0  0  0  0  0  0  0  0  0  0
   52.0720   -9.8471    9.8094 C   0  0  0  0  0  0  0  0  0  0  0  0
   53.2567   -9.8647    9.1152 C   0  0  0  0  0  0  0  0  0  0  0  0
   53.5473   -8.8293    8.2546 C   0  0  0  0  0  0  0  0  0  0  0  0
   52.6646   -7.7543    8.0664 C   0  0  0  0  0  0  0  0  0  0  0  0
   51.4761   -7.7714    8.7794 C   0  0  0  0  0  0  0  0  0  0  0  0
   50.5739   -6.7507    8.5902 O   0  0  0  0  0  0  0  0  0  0  0  0
   49.7655   -6.7462    9.0638 H   0  0  0  0  0  0  0  0  0  0  0  0
   46.2258   -9.0779   12.6838 N   0  0  0  0  0  0  0  0  0  0  0  0
   46.1170   -7.7737   12.3766 C   0  0  0  0  0  0  0  0  0  0  0  0
   47.1489   -7.2161   11.6139 C   0  0  0  0  0  0  0  0  0  0  0  0
   48.1514   -8.0447   11.2608 C   0  0  0  0  0  0  0  0  0  0  0  0
   48.2059   -9.3372   11.5970 C   0  0  0  0  0  0  0  0  0  0  0  0
   47.2060   -9.9111   12.3457 C   0  0  0  0  0  0  0  0  0  0  0  0
   49.2282   -7.7752   10.5468 N   0  0  0  0  0  0  0  0  0  0  0  0
   49.3315   -9.8429   11.0765 C   0  0  0  0  0  0  0  0  0  0  0  0
   49.9943   -8.8437   10.3955 C   0  0  0  0  0  0  0  0  0  0  0  0
   49.4360   -6.8885   10.1729 H   0  0  0  0  0  0  0  0  0  0  0  0
   53.0158   -6.7364    7.2000 C   0  0  0  0  0  0  0  0  0  0  0  0
   53.4682   -5.4993    7.6685 C   0  0  0  0  0  0  0  0  0  0  0  0
   53.7889   -4.4664    6.7974 C   0  0  0  0  0  0  0  0  0  0  0  0
   53.6577   -4.6671    5.4297 C   0  0  0  0  0  0  0  0  0  0  0  0
   53.2102   -5.8854    4.9389 C   0  0  0  0  0  0  0  0  0  0  0  0
   52.8982   -6.9061    5.8194 C   0  0  0  0  0  0  0  0  0  0  0  0
   53.0407   -6.0907    3.4444 C   0  0  0  0  0  0  0  0  0  0  0  0
   51.8854   -5.3192    2.9065 N   0  0  0  0  0  0  0  0  0  0  0  0
   50.7174   -5.8756    2.7317 C   0  0  0  0  0  0  0  0  0  0  0  0
   50.4970   -7.0436    2.9703 O   0  0  0  0  0  0  0  0  0  0  0  0
   49.7400   -5.1448    2.2684 N   0  0  0  0  0  0  0  0  0  0  0  0
   52.0052   -4.3691    2.6778 H   0  0  0  0  0  0  0  0  0  0  0  0
   49.8902   -4.1931    2.0657 H   0  0  0  0  0  0  0  0  0  0  0  0
   48.8527   -5.5452    2.1217 H   0  0  0  0  0  0  0  0  0  0  0  0
  9 10  1  0  0  0
  9 14  2  0  0  0
 10 11  2  0  0  0
 11 12  1  0  0  0
 12 13  2  0  0  0
 12 15  1  0  0  0
 13 14  1  0  0  0
 13 16  1  0  0  0
 15 17  1  0  0  0
 16 17  2  0  0  0
 17  1  1  0  0  0
  1  2  2  0  0  0
  1  6  1  0  0  0
  2  3  1  0  0  0
  3  4  2  0  0  0
  4  5  1  0  0  0
  5  6  2  0  0  0
  5 19  1  0  0  0
  6  7  1  0  0  0
 19 20  2  0  0  0
 19 24  1  0  0  0
 20 21  1  0  0  0
 21 22  2  0  0  0
 22 23  1  0  0  0
 23 24  2  0  0  0
 23 25  1  0  0  0
 25 26  1  0  0  0
 26 27  1  0  0  0
 27 28  2  0  0  0
 27 29  1  0  0  0
 15 18  1  0  0  0
  7  8  1  0  0  0
 26 30  1  0  0  0
 29 31  1  0  0  0
 29 32  1  0  0  0
M  END
> <minimizedAffinity>
-10.30180

$$$$
2FLR_7NH_H_258


 32 35  0  0  0  0  0  0  0  0999 V2000
   52.8414   -7.9692    8.2602 C   0  0  0  0  0  0  0  0  0  0  0  0
   53.3931   -9.2356    8.4481 C   0  0  0  0  0  0  0  0  0  0  0  0
   52.7658  -10.1839    9.2181 C   0  0  0  0  0  0  0  0  0  0  0  0
   51.5640   -9.8766    9.8167 C   0  0  0  0  0  0  0  0  0  0  0  0
   50.9610   -8.6185    9.6620 C   0  0  0  0  0  0  0  0  0  0  0  0
   51.6242   -7.6840    8.8822 C   0  0  0  0  0  0  0  0  0  0  0  0
   51.0774   -6.4301    8.7402 O   0  0  0  0  0  0  0  0  0  0  0  0
   51.5121   -5.7859    8.2168 H   0  0  0  0  0  0  0  0  0  0  0  0
   55.7615   -4.2845    4.8805 N   0  0  0  0  0  0  0  0  0  0  0  0
   55.7968   -3.5087    5.9778 C   0  0  0  0  0  0  0  0  0  0  0  0
   55.1688   -4.0071    7.1244 C   0  0  0  0  0  0  0  0  0  0  0  0
   54.5905   -5.2195    7.0147 C   0  0  0  0  0  0  0  0  0  0  0  0
   54.5871   -5.9470    5.8934 C   0  0  0  0  0  0  0  0  0  0  0  0
   55.1964   -5.4818    4.7524 C   0  0  0  0  0  0  0  0  0  0  0  0
   53.9454   -5.9093    7.9366 N   0  0  0  0  0  0  0  0  0  0  0  0
   53.9298   -7.0848    6.1520 C   0  0  0  0  0  0  0  0  0  0  0  0
   53.5159   -7.0699    7.4673 C   0  0  0  0  0  0  0  0  0  0  0  0
   53.8015   -5.5989    8.8597 H   0  0  0  0  0  0  0  0  0  0  0  0
   49.7475   -8.3717   10.2755 C   0  0  0  0  0  0  0  0  0  0  0  0
   49.0069   -7.2190    9.9968 C   0  0  0  0  0  0  0  0  0  0  0  0
   47.8039   -6.9563   10.6388 C   0  0  0  0  0  0  0  0  0  0  0  0
   47.3252   -7.8593   11.5788 C   0  0  0  0  0  0  0  0  0  0  0  0
   48.0413   -9.0107   11.8741 C   0  0  0  0  0  0  0  0  0  0  0  0
   49.2364   -9.2602   11.2232 C   0  0  0  0  0  0  0  0  0  0  0  0
   47.5286   -9.9806   12.9232 C   0  0  0  0  0  0  0  0  0  0  0  0
   47.4904   -9.3623   14.2781 N   0  0  0  0  0  0  0  0  0  0  0  0
   46.3801   -8.8968   14.7828 C   0  0  0  0  0  0  0  0  0  0  0  0
   45.3232   -8.9144   14.1891 O   0  0  0  0  0  0  0  0  0  0  0  0
   46.4073   -8.3775   15.9801 N   0  0  0  0  0  0  0  0  0  0  0  0
   48.3204   -9.3036   14.8042 H   0  0  0  0  0  0  0  0  0  0  0  0
   47.2517   -8.3497   16.4856 H   0  0  0  0  0  0  0  0  0  0  0  0
   45.5834   -8.0136   16.3777 H   0  0  0  0  0  0  0  0  0  0  0  0
  9 10  1  0  0  0
  9 14  2  0  0  0
 10 11  2  0  0  0
 11 12  1  0  0  0
 12 13  2  0  0  0
 12 15  1  0  0  0
 13 14  1  0  0  0
 13 16  1  0  0  0
 15 17  1  0  0  0
 16 17  2  0  0  0
 17  1  1  0  0  0
  1  2  2  0  0  0
  1  6  1  0  0  0
  2  3  1  0  0  0
  3  4  2  0  0  0
  4  5  1  0  0  0
  5  6  2  0  0  0
  5 19  1  0  0  0
  6  7  1  0  0  0
 19 20  2  0  0  0
 19 24  1  0  0  0
 20 21  1  0  0  0
 21 22  2  0  0  0
 22 23  1  0  0  0
 23 24  2  0  0  0
 23 25  1  0  0  0
 25 26  1  0  0  0
 26 27  1  0  0  0
 27 28  2  0  0  0
 27 29  1  0  0  0
 15 18  1  0  0  0
  7  8  1  0  0  0
 26 30  1  0  0  0
 29 31  1  0  0  0
 29 32  1  0  0  0
M  END
> <minimizedAffinity>
-9.35894

$$$$
2FLR_7NH_H_258


 32 35  0  0  0  0  0  0  0  0999 V2000
   50.9233   -9.9046   11.1507 C   0  0  0  0  0  0  0  0  0  0  0  0
   51.2015   -9.8294    9.7868 C   0  0  0  0  0  0  0  0  0  0  0  0
   52.4297  -10.1836    9.2850 C   0  0  0  0  0  0  0  0  0  0  0  0
   53.4077  -10.6241   10.1491 C   0  0  0  0  0  0  0  0  0  0  0  0
   53.1841  -10.7211   11.5315 C   0  0  0  0  0  0  0  0  0  0  0  0
   51.9347  -10.3508   12.0039 C   0  0  0  0  0  0  0  0  0  0  0  0
   51.6956  -10.4002   13.3574 O   0  0  0  0  0  0  0  0  0  0  0  0
   50.8567  -10.1535   13.6942 H   0  0  0  0  0  0  0  0  0  0  0  0
   45.6858   -8.2658   12.9971 N   0  0  0  0  0  0  0  0  0  0  0  0
   45.7771   -9.3378   13.8031 C   0  0  0  0  0  0  0  0  0  0  0  0
   46.9417  -10.1065   13.7024 C   0  0  0  0  0  0  0  0  0  0  0  0
   47.8595   -9.6938   12.8059 C   0  0  0  0  0  0  0  0  0  0  0  0
   47.7129   -8.6161   12.0289 C   0  0  0  0  0  0  0  0  0  0  0  0
   46.5790   -7.8428   12.1068 C   0  0  0  0  0  0  0  0  0  0  0  0
   49.0314  -10.2304   12.5223 N   0  0  0  0  0  0  0  0  0  0  0  0
   48.8127   -8.5112   11.2719 C   0  0  0  0  0  0  0  0  0  0  0  0
   49.6687   -9.5456   11.5860 C   0  0  0  0  0  0  0  0  0  0  0  0
   49.3877  -11.0403   12.9540 H   0  0  0  0  0  0  0  0  0  0  0  0
   54.1986  -11.1828   12.3485 C   0  0  0  0  0  0  0  0  0  0  0  0
   54.7359  -12.4646   12.1958 C   0  0  0  0  0  0  0  0  0  0  0  0
   55.7321  -12.9391   13.0390 C   0  0  0  0  0  0  0  0  0  0  0  0
   56.2059  -12.1217   14.0566 C   0  0  0  0  0  0  0  0  0  0  0  0
   55.6890  -10.8456   14.2299 C   0  0  0  0  0  0  0  0  0  0  0  0
   54.6994  -10.3858   13.3793 C   0  0  0  0  0  0  0  0  0  0  0  0
   56.1895   -9.9664   15.3615 C   0  0  0  0  0  0  0  0  0  0  0  0
   57.5170   -9.3657   15.0512 N   0  0  0  0  0  0  0  0  0  0  0  0
   58.6100   -9.8003   15.6174 C   0  0  0  0  0  0  0  0  0  0  0  0
   58.6222  -10.6936   16.4370 O   0  0  0  0  0  0  0  0  0  0  0  0
   59.7452   -9.2418   15.2957 N   0  0  0  0  0  0  0  0  0  0  0  0
   57.5712   -8.6249   14.4050 H   0  0  0  0  0  0  0  0  0  0  0  0
   59.7654   -8.5141   14.6330 H   0  0  0  0  0  0  0  0  0  0  0  0
   60.5812   -9.5485   15.7157 H   0  0  0  0  0  0  0  0  0  0  0  0
  9 10  1  0  0  0
  9 14  2  0  0  0
 10 11  2  0  0  0
 11 12  1  0  0  0
 12 13  2  0  0  0
 12 15  1  0  0  0
 13 14  1  0  0  0
 13 16  1  0  0  0
 15 17  1  0  0  0
 16 17  2  0  0  0
 17  1  1  0  0  0
  1  2  2  0  0  0
  1  6  1  0  0  0
  2  3  1  0  0  0
  3  4  2  0  0  0
  4  5  1  0  0  0
  5  6  2  0  0  0
  5 19  1  0  0  0
  6  7  1  0  0  0
 19 20  2  0  0  0
 19 24  1  0  0  0
 20 21  1  0  0  0
 21 22  2  0  0  0
 22 23  1  0  0  0
 23 24  2  0  0  0
 23 25  1  0  0  0
 25 26  1  0  0  0
 26 27  1  0  0  0
 27 28  2  0  0  0
 27 29  1  0  0  0
 15 18  1  0  0  0
  7  8  1  0  0  0
 26 30  1  0  0  0
 29 31  1  0  0  0
 29 32  1  0  0  0
M  END
> <minimizedAffinity>
-9.20713

$$$$
2FLR_7NH_H_258


 32 35  0  0  0  0  0  0  0  0999 V2000
   50.8645   -9.6674   10.8682 C   0  0  0  0  0  0  0  0  0  0  0  0
   51.1990   -9.1980    9.5989 C   0  0  0  0  0  0  0  0  0  0  0  0
   52.4142   -9.4828    9.0263 C   0  0  0  0  0  0  0  0  0  0  0  0
   53.3218  -10.2506    9.7218 C   0  0  0  0  0  0  0  0  0  0  0  0
   53.0394  -10.7511   11.0024 C   0  0  0  0  0  0  0  0  0  0  0  0
   51.8054  -10.4401   11.5518 C   0  0  0  0  0  0  0  0  0  0  0  0
   51.5123  -10.8854   12.8196 O   0  0  0  0  0  0  0  0  0  0  0  0
   50.6829  -10.6845   13.2066 H   0  0  0  0  0  0  0  0  0  0  0  0
   45.6921   -8.2251   13.0343 N   0  0  0  0  0  0  0  0  0  0  0  0
   45.8468   -9.3250   13.7915 C   0  0  0  0  0  0  0  0  0  0  0  0
   47.0213  -10.0616   13.6030 C   0  0  0  0  0  0  0  0  0  0  0  0
   47.8837   -9.5930   12.6794 C   0  0  0  0  0  0  0  0  0  0  0  0
   47.6751   -8.4898   11.9541 C   0  0  0  0  0  0  0  0  0  0  0  0
   46.5301   -7.7471   12.1186 C   0  0  0  0  0  0  0  0  0  0  0  0
   49.0513  -10.0905   12.3173 N   0  0  0  0  0  0  0  0  0  0  0  0
   48.7330   -8.3299   11.1486 C   0  0  0  0  0  0  0  0  0  0  0  0
   49.6259   -9.3552   11.3786 C   0  0  0  0  0  0  0  0  0  0  0  0
   49.4463  -10.9079   12.6983 H   0  0  0  0  0  0  0  0  0  0  0  0
   53.9837  -11.5277   11.6469 C   0  0  0  0  0  0  0  0  0  0  0  0
   53.8913  -12.9225   11.6721 C   0  0  0  0  0  0  0  0  0  0  0  0
   54.8226  -13.6994   12.3485 C   0  0  0  0  0  0  0  0  0  0  0  0
   55.8699  -13.0768   13.0145 C   0  0  0  0  0  0  0  0  0  0  0  0
   55.9840  -11.6939   13.0054 C   0  0  0  0  0  0  0  0  0  0  0  0
   55.0502  -10.9337   12.3239 C   0  0  0  0  0  0  0  0  0  0  0  0
   57.1140  -11.0161   13.7590 C   0  0  0  0  0  0  0  0  0  0  0  0
   56.7399   -9.6439   14.2022 N   0  0  0  0  0  0  0  0  0  0  0  0
   56.2180   -9.4272   15.3790 C   0  0  0  0  0  0  0  0  0  0  0  0
   55.9849  -10.3122   16.1741 O   0  0  0  0  0  0  0  0  0  0  0  0
   55.9223   -8.2010   15.7154 N   0  0  0  0  0  0  0  0  0  0  0  0
   56.8895   -8.8839   13.5944 H   0  0  0  0  0  0  0  0  0  0  0  0
   56.1006   -7.4623   15.0895 H   0  0  0  0  0  0  0  0  0  0  0  0
   55.5210   -8.0150   16.5949 H   0  0  0  0  0  0  0  0  0  0  0  0
  9 10  1  0  0  0
  9 14  2  0  0  0
 10 11  2  0  0  0
 11 12  1  0  0  0
 12 13  2  0  0  0
 12 15  1  0  0  0
 13 14  1  0  0  0
 13 16  1  0  0  0
 15 17  1  0  0  0
 16 17  2  0  0  0
 17  1  1  0  0  0
  1  2  2  0  0  0
  1  6  1  0  0  0
  2  3  1  0  0  0
  3  4  2  0  0  0
  4  5  1  0  0  0
  5  6  2  0  0  0
  5 19  1  0  0  0
  6  7  1  0  0  0
 19 20  2  0  0  0
 19 24  1  0  0  0
 20 21  1  0  0  0
 21 22  2  0  0  0
 22 23  1  0  0  0
 23 24  2  0  0  0
 23 25  1  0  0  0
 25 26  1  0  0  0
 26 27  1  0  0  0
 27 28  2  0  0  0
 27 29  1  0  0  0
 15 18  1  0  0  0
  7  8  1  0  0  0
 26 30  1  0  0  0
 29 31  1  0  0  0
 29 32  1  0  0  0
M  END
> <minimizedAffinity>
-9.10644

$$$$
2FLR_7NH_H_258


 32 35  0  0  0  0  0  0  0  0999 V2000
   50.3318  -10.2874   10.5717 C   0  0  0  0  0  0  0  0  0  0  0  0
   50.5930  -11.6555   10.6307 C   0  0  0  0  0  0  0  0  0  0  0  0
   51.6978  -12.2012   10.0245 C   0  0  0  0  0  0  0  0  0  0  0  0
   52.5673  -11.3776    9.3443 C   0  0  0  0  0  0  0  0  0  0  0  0
   52.3556   -9.9931    9.2526 C   0  0  0  0  0  0  0  0  0  0  0  0
   51.2281   -9.4770    9.8720 C   0  0  0  0  0  0  0  0  0  0  0  0
   50.9731   -8.1293    9.7701 O   0  0  0  0  0  0  0  0  0  0  0  0
   50.2156   -7.7633   10.1826 H   0  0  0  0  0  0  0  0  0  0  0  0
   45.6843   -8.1313   13.2696 N   0  0  0  0  0  0  0  0  0  0  0  0
   45.7804   -9.2308   14.0371 C   0  0  0  0  0  0  0  0  0  0  0  0
   46.8173  -10.1212   13.7382 C   0  0  0  0  0  0  0  0  0  0  0  0
   47.6198   -9.7864   12.7084 C   0  0  0  0  0  0  0  0  0  0  0  0
   47.4747   -8.6760   11.9786 C   0  0  0  0  0  0  0  0  0  0  0  0
   46.4648   -7.7838   12.2501 C   0  0  0  0  0  0  0  0  0  0  0  0
   48.6611  -10.4415   12.2305 N   0  0  0  0  0  0  0  0  0  0  0  0
   48.4427   -8.6716   11.0531 C   0  0  0  0  0  0  0  0  0  0  0  0
   49.2135   -9.8041   11.2106 C   0  0  0  0  0  0  0  0  0  0  0  0
   48.9868  -11.2988   12.5886 H   0  0  0  0  0  0  0  0  0  0  0  0
   53.2696   -9.2144    8.5683 C   0  0  0  0  0  0  0  0  0  0  0  0
   54.5715   -9.6601    8.3209 C   0  0  0  0  0  0  0  0  0  0  0  0
   55.4986   -8.8631    7.6625 C   0  0  0  0  0  0  0  0  0  0  0  0
   55.1241   -7.5947    7.2396 C   0  0  0  0  0  0  0  0  0  0  0  0
   53.8382   -7.1282    7.4732 C   0  0  0  0  0  0  0  0  0  0  0  0
   52.9247   -7.9357    8.1272 C   0  0  0  0  0  0  0  0  0  0  0  0
   53.4418   -5.7301    7.0349 C   0  0  0  0  0  0  0  0  0  0  0  0
   52.5348   -5.7559    5.8533 N   0  0  0  0  0  0  0  0  0  0  0  0
   51.2483   -5.5726    5.9786 C   0  0  0  0  0  0  0  0  0  0  0  0
   50.7053   -5.3920    7.0474 O   0  0  0  0  0  0  0  0  0  0  0  0
   50.5064   -5.5942    4.9047 N   0  0  0  0  0  0  0  0  0  0  0  0
   52.9137   -5.9146    4.9586 H   0  0  0  0  0  0  0  0  0  0  0  0
   50.9204   -5.7390    4.0233 H   0  0  0  0  0  0  0  0  0  0  0  0
   49.5330   -5.4657    4.9762 H   0  0  0  0  0  0  0  0  0  0  0  0
  9 10  1  0  0  0
  9 14  2  0  0  0
 10 11  2  0  0  0
 11 12  1  0  0  0
 12 13  2  0  0  0
 12 15  1  0  0  0
 13 14  1  0  0  0
 13 16  1  0  0  0
 15 17  1  0  0  0
 16 17  2  0  0  0
 17  1  1  0  0  0
  1  2  2  0  0  0
  1  6  1  0  0  0
  2  3  1  0  0  0
  3  4  2  0  0  0
  4  5  1  0  0  0
  5  6  2  0  0  0
  5 19  1  0  0  0
  6  7  1  0  0  0
 19 20  2  0  0  0
 19 24  1  0  0  0
 20 21  1  0  0  0
 21 22  2  0  0  0
 22 23  1  0  0  0
 23 24  2  0  0  0
 23 25  1  0  0  0
 25 26  1  0  0  0
 26 27  1  0  0  0
 27 28  2  0  0  0
 27 29  1  0  0  0
 15 18  1  0  0  0
  7  8  1  0  0  0
 26 30  1  0  0  0
 29 31  1  0  0  0
 29 32  1  0  0  0
M  END
> <minimizedAffinity>
-9.04722

$$$$
2FLR_7NH_H_258


 32 35  0  0  0  0  0  0  0  0999 V2000
   53.9658   -8.6073    7.9642 C   0  0  0  0  0  0  0  0  0  0  0  0
   54.9344   -9.5995    8.1086 C   0  0  0  0  0  0  0  0  0  0  0  0
   54.6934  -10.7354    8.8416 C   0  0  0  0  0  0  0  0  0  0  0  0
   53.4666  -10.8979    9.4463 C   0  0  0  0  0  0  0  0  0  0  0  0
   52.4534   -9.9329    9.3346 C   0  0  0  0  0  0  0  0  0  0  0  0
   52.7327   -8.7967    8.5913 C   0  0  0  0  0  0  0  0  0  0  0  0
   51.7736   -7.8160    8.4925 O   0  0  0  0  0  0  0  0  0  0  0  0
   51.9453   -7.0413    7.9942 H   0  0  0  0  0  0  0  0  0  0  0  0
   55.3601   -3.9984    4.7485 N   0  0  0  0  0  0  0  0  0  0  0  0
   54.9106   -3.2911    5.7996 C   0  0  0  0  0  0  0  0  0  0  0  0
   54.4280   -4.0202    6.8918 C   0  0  0  0  0  0  0  0  0  0  0  0
   54.4632   -5.3630    6.7817 C   0  0  0  0  0  0  0  0  0  0  0  0
   54.9227   -6.0128    5.7078 C   0  0  0  0  0  0  0  0  0  0  0  0
   55.4026   -5.3217    4.6207 C   0  0  0  0  0  0  0  0  0  0  0  0
   54.0783   -6.2704    7.6594 N   0  0  0  0  0  0  0  0  0  0  0  0
   54.8083   -7.3249    5.9500 C   0  0  0  0  0  0  0  0  0  0  0  0
   54.2681   -7.4995    7.2067 C   0  0  0  0  0  0  0  0  0  0  0  0
   53.6970   -6.0591    8.5421 H   0  0  0  0  0  0  0  0  0  0  0  0
   51.2373  -10.1565    9.9519 C   0  0  0  0  0  0  0  0  0  0  0  0
   50.6756  -11.4349   10.0219 C   0  0  0  0  0  0  0  0  0  0  0  0
   49.4380  -11.6525   10.6130 C   0  0  0  0  0  0  0  0  0  0  0  0
   48.7427  -10.5760   11.1474 C   0  0  0  0  0  0  0  0  0  0  0  0
   49.2778   -9.2969   11.0903 C   0  0  0  0  0  0  0  0  0  0  0  0
   50.5136   -9.0967   10.5014 C   0  0  0  0  0  0  0  0  0  0  0  0
   48.5012   -8.1188   11.6498 C   0  0  0  0  0  0  0  0  0  0  0  0
   47.6529   -8.5142   12.8090 N   0  0  0  0  0  0  0  0  0  0  0  0
   46.3742   -8.2531   12.8371 C   0  0  0  0  0  0  0  0  0  0  0  0
   45.7982   -7.6629   11.9485 O   0  0  0  0  0  0  0  0  0  0  0  0
   45.6809   -8.6357   13.8750 N   0  0  0  0  0  0  0  0  0  0  0  0
   48.0657   -8.9826   13.5702 H   0  0  0  0  0  0  0  0  0  0  0  0
   46.1225   -9.1169   14.6117 H   0  0  0  0  0  0  0  0  0  0  0  0
   44.7166   -8.4429   13.9211 H   0  0  0  0  0  0  0  0  0  0  0  0
  9 10  1  0  0  0
  9 14  2  0  0  0
 10 11  2  0  0  0
 11 12  1  0  0  0
 12 13  2  0  0  0
 12 15  1  0  0  0
 13 14  1  0  0  0
 13 16  1  0  0  0
 15 17  1  0  0  0
 16 17  2  0  0  0
 17  1  1  0  0  0
  1  2  2  0  0  0
  1  6  1  0  0  0
  2  3  1  0  0  0
  3  4  2  0  0  0
  4  5  1  0  0  0
  5  6  2  0  0  0
  5 19  1  0  0  0
  6  7  1  0  0  0
 19 20  2  0  0  0
 19 24  1  0  0  0
 20 21  1  0  0  0
 21 22  2  0  0  0
 22 23  1  0  0  0
 23 24  2  0  0  0
 23 25  1  0  0  0
 25 26  1  0  0  0
 26 27  1  0  0  0
 27 28  2  0  0  0
 27 29  1  0  0  0
 15 18  1  0  0  0
  7  8  1  0  0  0
 26 30  1  0  0  0
 29 31  1  0  0  0
 29 32  1  0  0  0
M  END
> <minimizedAffinity>
-8.99785

$$$$
2FLR_7NH_H_258


 32 35  0  0  0  0  0  0  0  0999 V2000
   51.2061   -8.9900    9.7174 C   0  0  0  0  0  0  0  0  0  0  0  0
   52.0402  -10.1039    9.8010 C   0  0  0  0  0  0  0  0  0  0  0  0
   53.2227  -10.1680    9.1058 C   0  0  0  0  0  0  0  0  0  0  0  0
   53.5928   -9.1070    8.3093 C   0  0  0  0  0  0  0  0  0  0  0  0
   52.7935   -7.9596    8.1875 C   0  0  0  0  0  0  0  0  0  0  0  0
   51.6045   -7.9309    8.8993 C   0  0  0  0  0  0  0  0  0  0  0  0
   50.7817   -6.8361    8.7732 O   0  0  0  0  0  0  0  0  0  0  0  0
   49.9742   -6.7998    9.2471 H   0  0  0  0  0  0  0  0  0  0  0  0
   46.2633   -9.0834   12.7318 N   0  0  0  0  0  0  0  0  0  0  0  0
   46.1838   -7.7846   12.3940 C   0  0  0  0  0  0  0  0  0  0  0  0
   47.2294   -7.2677   11.6213 C   0  0  0  0  0  0  0  0  0  0  0  0
   48.2143   -8.1261   11.2904 C   0  0  0  0  0  0  0  0  0  0  0  0
   48.2396   -9.4114   11.6567 C   0  0  0  0  0  0  0  0  0  0  0  0
   47.2256   -9.9455   12.4159 C   0  0  0  0  0  0  0  0  0  0  0  0
   49.2983   -7.8970   10.5733 N   0  0  0  0  0  0  0  0  0  0  0  0
   49.3549   -9.9536   11.1512 C   0  0  0  0  0  0  0  0  0  0  0  0
   50.0411   -8.9854   10.4490 C   0  0  0  0  0  0  0  0  0  0  0  0
   49.5264   -7.0241   10.1793 H   0  0  0  0  0  0  0  0  0  0  0  0
   53.2227   -6.9203    7.3840 C   0  0  0  0  0  0  0  0  0  0  0  0
   53.4696   -5.6462    7.9042 C   0  0  0  0  0  0  0  0  0  0  0  0
   53.8687   -4.5946    7.0897 C   0  0  0  0  0  0  0  0  0  0  0  0
   54.0267   -4.8135    5.7277 C   0  0  0  0  0  0  0  0  0  0  0  0
   53.7874   -6.0685    5.1862 C   0  0  0  0  0  0  0  0  0  0  0  0
   53.3940   -7.1072    6.0112 C   0  0  0  0  0  0  0  0  0  0  0  0
   53.9334   -6.2960    3.6925 C   0  0  0  0  0  0  0  0  0  0  0  0
   55.3552   -6.2132    3.2555 N   0  0  0  0  0  0  0  0  0  0  0  0
   55.8112   -5.1703    2.6162 C   0  0  0  0  0  0  0  0  0  0  0  0
   55.1195   -4.2201    2.3189 O   0  0  0  0  0  0  0  0  0  0  0  0
   57.0697   -5.1505    2.2700 N   0  0  0  0  0  0  0  0  0  0  0  0
   55.9641   -6.9612    3.4531 H   0  0  0  0  0  0  0  0  0  0  0  0
   57.6550   -5.9085    2.4983 H   0  0  0  0  0  0  0  0  0  0  0  0
   57.4336   -4.3776    1.7807 H   0  0  0  0  0  0  0  0  0  0  0  0
  9 10  1  0  0  0
  9 14  2  0  0  0
 10 11  2  0  0  0
 11 12  1  0  0  0
 12 13  2  0  0  0
 12 15  1  0  0  0
 13 14  1  0  0  0
 13 16  1  0  0  0
 15 17  1  0  0  0
 16 17  2  0  0  0
 17  1  1  0  0  0
  1  2  2  0  0  0
  1  6  1  0  0  0
  2  3  1  0  0  0
  3  4  2  0  0  0
  4  5  1  0  0  0
  5  6  2  0  0  0
  5 19  1  0  0  0
  6  7  1  0  0  0
 19 20  2  0  0  0
 19 24  1  0  0  0
 20 21  1  0  0  0
 21 22  2  0  0  0
 22 23  1  0  0  0
 23 24  2  0  0  0
 23 25  1  0  0  0
 25 26  1  0  0  0
 26 27  1  0  0  0
 27 28  2  0  0  0
 27 29  1  0  0  0
 15 18  1  0  0  0
  7  8  1  0  0  0
 26 30  1  0  0  0
 29 31  1  0  0  0
 29 32  1  0  0  0
M  END
> <minimizedAffinity>
-8.90357

$$$$
2FLR_7NH_H_258


 32 35  0  0  0  0  0  0  0  0999 V2000
   50.5375   -8.7383   10.1516 C   0  0  0  0  0  0  0  0  0  0  0  0
   50.8688   -7.6681    9.3219 C   0  0  0  0  0  0  0  0  0  0  0  0
   52.0103   -7.6794    8.5585 C   0  0  0  0  0  0  0  0  0  0  0  0
   52.8452   -8.7734    8.6135 C   0  0  0  0  0  0  0  0  0  0  0  0
   52.5621   -9.8796    9.4299 C   0  0  0  0  0  0  0  0  0  0  0  0
   51.4043   -9.8323   10.1905 C   0  0  0  0  0  0  0  0  0  0  0  0
   51.1168  -10.8848   11.0278 O   0  0  0  0  0  0  0  0  0  0  0  0
   50.3385  -10.8697   11.5492 H   0  0  0  0  0  0  0  0  0  0  0  0
   45.6599   -8.3094   13.2422 N   0  0  0  0  0  0  0  0  0  0  0  0
   46.1205   -9.4001   13.8789 C   0  0  0  0  0  0  0  0  0  0  0  0
   47.3473   -9.9140   13.4449 C   0  0  0  0  0  0  0  0  0  0  0  0
   47.9475   -9.2618   12.4296 C   0  0  0  0  0  0  0  0  0  0  0  0
   47.4396   -8.1786   11.8334 C   0  0  0  0  0  0  0  0  0  0  0  0
   46.2363   -7.6525   12.2395 C   0  0  0  0  0  0  0  0  0  0  0  0
   49.0985   -9.5336   11.8438 N   0  0  0  0  0  0  0  0  0  0  0  0
   48.3002   -7.8020   10.8789 C   0  0  0  0  0  0  0  0  0  0  0  0
   49.3734   -8.6678   10.8811 C   0  0  0  0  0  0  0  0  0  0  0  0
   49.6809  -10.2875   12.0922 H   0  0  0  0  0  0  0  0  0  0  0  0
   53.4298  -10.9552    9.4338 C   0  0  0  0  0  0  0  0  0  0  0  0
   53.1291  -12.1414    8.7575 C   0  0  0  0  0  0  0  0  0  0  0  0
   53.9869  -13.2330    8.7902 C   0  0  0  0  0  0  0  0  0  0  0  0
   55.1706  -13.1443    9.5106 C   0  0  0  0  0  0  0  0  0  0  0  0
   55.4923  -11.9786   10.1911 C   0  0  0  0  0  0  0  0  0  0  0  0
   54.6292  -10.8982   10.1459 C   0  0  0  0  0  0  0  0  0  0  0  0
   56.7735  -11.8962   11.0010 C   0  0  0  0  0  0  0  0  0  0  0  0
   56.5711  -12.3481   12.4061 N   0  0  0  0  0  0  0  0  0  0  0  0
   56.3905  -11.4939   13.3766 C   0  0  0  0  0  0  0  0  0  0  0  0
   56.3947  -10.2928   13.2121 O   0  0  0  0  0  0  0  0  0  0  0  0
   56.2061  -11.9511   14.5854 N   0  0  0  0  0  0  0  0  0  0  0  0
   56.5736  -13.3119   12.6071 H   0  0  0  0  0  0  0  0  0  0  0  0
   56.1979  -12.9219   14.7485 H   0  0  0  0  0  0  0  0  0  0  0  0
   56.0752  -11.3250   15.3338 H   0  0  0  0  0  0  0  0  0  0  0  0
  9 10  1  0  0  0
  9 14  2  0  0  0
 10 11  2  0  0  0
 11 12  1  0  0  0
 12 13  2  0  0  0
 12 15  1  0  0  0
 13 14  1  0  0  0
 13 16  1  0  0  0
 15 17  1  0  0  0
 16 17  2  0  0  0
 17  1  1  0  0  0
  1  2  2  0  0  0
  1  6  1  0  0  0
  2  3  1  0  0  0
  3  4  2  0  0  0
  4  5  1  0  0  0
  5  6  2  0  0  0
  5 19  1  0  0  0
  6  7  1  0  0  0
 19 20  2  0  0  0
 19 24  1  0  0  0
 20 21  1  0  0  0
 21 22  2  0  0  0
 22 23  1  0  0  0
 23 24  2  0  0  0
 23 25  1  0  0  0
 25 26  1  0  0  0
 26 27  1  0  0  0
 27 28  2  0  0  0
 27 29  1  0  0  0
 15 18  1  0  0  0
  7  8  1  0  0  0
 26 30  1  0  0  0
 29 31  1  0  0  0
 29 32  1  0  0  0
M  END
> <minimizedAffinity>
-8.74446

$$$$
2FLR_7NH_H_258


 32 35  0  0  0  0  0  0  0  0999 V2000
   50.6913   -9.8841   10.4828 C   0  0  0  0  0  0  0  0  0  0  0  0
   51.1432  -11.1774   10.7412 C   0  0  0  0  0  0  0  0  0  0  0  0
   52.3081  -11.6531   10.1912 C   0  0  0  0  0  0  0  0  0  0  0  0
   53.0465  -10.8331    9.3670 C   0  0  0  0  0  0  0  0  0  0  0  0
   52.6411   -9.5220    9.0723 C   0  0  0  0  0  0  0  0  0  0  0  0
   51.4580   -9.0763    9.6406 C   0  0  0  0  0  0  0  0  0  0  0  0
   51.0149   -7.8089    9.3428 O   0  0  0  0  0  0  0  0  0  0  0  0
   50.2172   -7.4912    9.7180 H   0  0  0  0  0  0  0  0  0  0  0  0
   45.8214   -8.0000   12.9849 N   0  0  0  0  0  0  0  0  0  0  0  0
   45.9592   -9.0826   13.7699 C   0  0  0  0  0  0  0  0  0  0  0  0
   47.0607   -9.9081   13.5199 C   0  0  0  0  0  0  0  0  0  0  0  0
   47.8772   -9.5340   12.5149 C   0  0  0  0  0  0  0  0  0  0  0  0
   47.6885   -8.4433   11.7657 C   0  0  0  0  0  0  0  0  0  0  0  0
   46.6148   -7.6146   11.9894 C   0  0  0  0  0  0  0  0  0  0  0  0
   48.9746  -10.1265   12.0831 N   0  0  0  0  0  0  0  0  0  0  0  0
   48.6873   -8.3872   10.8753 C   0  0  0  0  0  0  0  0  0  0  0  0
   49.5221   -9.4663   11.0751 C   0  0  0  0  0  0  0  0  0  0  0  0
   49.3409  -10.9573   12.4639 H   0  0  0  0  0  0  0  0  0  0  0  0
   53.4299   -8.7405    8.2494 C   0  0  0  0  0  0  0  0  0  0  0  0
   54.5179   -9.2760    7.5537 C   0  0  0  0  0  0  0  0  0  0  0  0
   55.3295   -8.4824    6.7536 C   0  0  0  0  0  0  0  0  0  0  0  0
   55.0538   -7.1262    6.6416 C   0  0  0  0  0  0  0  0  0  0  0  0
   53.9802   -6.5697    7.3222 C   0  0  0  0  0  0  0  0  0  0  0  0
   53.1786   -7.3741    8.1126 C   0  0  0  0  0  0  0  0  0  0  0  0
   53.6999   -5.0814    7.2198 C   0  0  0  0  0  0  0  0  0  0  0  0
   54.9289   -4.2693    7.4422 N   0  0  0  0  0  0  0  0  0  0  0  0
   55.5336   -3.6654    6.4554 C   0  0  0  0  0  0  0  0  0  0  0  0
   55.1584   -3.7366    5.3047 O   0  0  0  0  0  0  0  0  0  0  0  0
   56.5996   -2.9580    6.7148 N   0  0  0  0  0  0  0  0  0  0  0  0
   55.2930   -4.1863    8.3532 H   0  0  0  0  0  0  0  0  0  0  0  0
   56.9272   -2.8825    7.6401 H   0  0  0  0  0  0  0  0  0  0  0  0
   57.0761   -2.5000    5.9850 H   0  0  0  0  0  0  0  0  0  0  0  0
  9 10  1  0  0  0
  9 14  2  0  0  0
 10 11  2  0  0  0
 11 12  1  0  0  0
 12 13  2  0  0  0
 12 15  1  0  0  0
 13 14  1  0  0  0
 13 16  1  0  0  0
 15 17  1  0  0  0
 16 17  2  0  0  0
 17  1  1  0  0  0
  1  2  2  0  0  0
  1  6  1  0  0  0
  2  3  1  0  0  0
  3  4  2  0  0  0
  4  5  1  0  0  0
  5  6  2  0  0  0
  5 19  1  0  0  0
  6  7  1  0  0  0
 19 20  2  0  0  0
 19 24  1  0  0  0
 20 21  1  0  0  0
 21 22  2  0  0  0
 22 23  1  0  0  0
 23 24  2  0  0  0
 23 25  1  0  0  0
 25 26  1  0  0  0
 26 27  1  0  0  0
 27 28  2  0  0  0
 27 29  1  0  0  0
 15 18  1  0  0  0
  7  8  1  0  0  0
 26 30  1  0  0  0
 29 31  1  0  0  0
 29 32  1  0  0  0
M  END
> <minimizedAffinity>
-8.73712

$$$$
