1E3V_DXC_A_801


 31 34  0  0  0  0  0  0  0  0999 V2000
    3.1397  -14.2395   84.1965 C   0  0  0  0  0  0  0  0  0  0  0  0
    3.6727  -13.8601   85.5829 C   0  0  0  0  0  0  0  0  0  0  0  0
    2.6155  -13.0944   86.4115 C   0  0  0  0  0  0  0  0  0  0  0  0
    2.0785  -11.8333   85.6623 C   0  0  0  0  0  0  0  0  0  0  0  0
    1.5414  -12.2976   84.2798 C   0  0  0  0  0  0  0  0  0  0  0  0
    2.6312  -12.9850   83.4421 C   0  0  0  0  0  0  0  0  0  0  0  0
    3.1894  -12.7182   87.8018 C   0  0  0  0  0  0  0  0  0  0  0  0
    4.2554  -11.6126   87.7048 C   0  0  0  0  0  0  0  0  0  0  0  0
    3.7569  -10.3708   86.9438 C   0  0  0  0  0  0  0  0  0  0  0  0
    3.2348  -10.7655   85.5310 C   0  0  0  0  0  0  0  0  0  0  0  0
    4.8739   -9.3139   86.7804 C   0  0  0  0  0  0  0  0  0  0  0  0
    4.4026   -8.0488   86.0327 C   0  0  0  0  0  0  0  0  0  0  0  0
    3.8796   -8.4034   84.6280 C   0  0  0  0  0  0  0  0  0  0  0  0
    2.7628   -9.4784   84.7797 C   0  0  0  0  0  0  0  0  0  0  0  0
    5.6085   -8.7651   88.0091 C   0  0  0  0  0  0  0  0  0  0  0  0
    6.1854   -7.4126   87.5496 C   0  0  0  0  0  0  0  0  0  0  0  0
    5.7311   -7.2371   86.0843 C   0  0  0  0  0  0  0  0  0  0  0  0
    0.8871  -11.1937   86.4221 C   0  0  0  0  0  0  0  0  0  0  0  0
    4.9538   -8.8989   83.8398 O   0  0  0  0  0  0  0  0  0  0  0  0
    4.1623  -14.9362   83.5120 O   0  0  0  0  0  0  0  0  0  0  0  0
    3.2770   -7.3179   86.8081 C   0  0  0  0  0  0  0  0  0  0  0  0
    5.3327   -9.6835   84.2662 H   0  0  0  0  0  0  0  0  0  0  0  0
    4.9437  -14.3670   83.4321 H   0  0  0  0  0  0  0  0  0  0  0  0
    5.7424   -5.7311   85.6436 C   0  0  0  0  0  0  0  0  0  0  0  0
    5.9720   -5.5669   84.1343 C   0  0  0  0  0  0  0  0  0  0  0  0
    6.8493   -4.9581   86.4064 C   0  0  0  0  0  0  0  0  0  0  0  0
    8.1511   -4.7396   85.6352 C   0  0  0  0  0  0  0  0  0  0  0  0
    9.1253   -5.8505   86.0055 C   0  0  0  0  0  0  0  0  0  0  0  0
    9.5044   -6.0824   87.1062 O   0  0  0  0  0  0  0  0  0  0  0  0
    9.5147   -6.5516   84.9403 O   0  0  0  0  0  0  0  0  0  0  0  0
    9.1885   -6.3317   84.0899 H   0  0  0  0  0  0  0  0  0  0  0  0
  1  2  1  0  0  0
  1  6  1  0  0  0
  1 20  1  0  0  0
  2  3  1  0  0  0
  3  4  1  0  0  0
  3  7  1  0  0  0
  4  5  1  0  0  0
  4 10  1  0  0  0
  4 18  1  0  0  0
  5  6  1  0  0  0
  7  8  1  0  0  0
  8  9  1  0  0  0
  9 10  1  0  0  0
  9 11  1  0  0  0
 10 14  1  0  0  0
 11 12  1  0  0  0
 11 15  1  0  0  0
 12 13  1  0  0  0
 12 17  1  0  0  0
 12 21  1  0  0  0
 13 14  1  0  0  0
 13 19  1  0  0  0
 15 16  1  0  0  0
 16 17  1  0  0  0
 17 24  1  0  0  0
 24 26  1  0  0  0
 24 25  1  0  0  0
 26 27  1  0  0  0
 27 28  1  0  0  0
 28 29  2  0  0  0
 28 30  1  0  0  0
 19 22  1  0  0  0
 20 23  1  0  0  0
 30 31  1  0  0  0
M  END
> <minimizedAffinity>
-9.04246

$$$$
1E3V_DXC_A_801


 31 34  0  0  0  0  0  0  0  0999 V2000
    3.8081  -13.7753   83.0388 C   0  0  0  0  0  0  0  0  0  0  0  0
    4.1467  -13.6237   84.5262 C   0  0  0  0  0  0  0  0  0  0  0  0
    2.9538  -13.0552   85.3287 C   0  0  0  0  0  0  0  0  0  0  0  0
    2.4365  -11.7041   84.7398 C   0  0  0  0  0  0  0  0  0  0  0  0
    2.0984  -11.9401   83.2414 C   0  0  0  0  0  0  0  0  0  0  0  0
    3.3201  -12.4286   82.4473 C   0  0  0  0  0  0  0  0  0  0  0  0
    3.3328  -12.9060   86.8248 C   0  0  0  0  0  0  0  0  0  0  0  0
    4.3348  -11.7606   87.0534 C   0  0  0  0  0  0  0  0  0  0  0  0
    3.8582  -10.4249   86.4545 C   0  0  0  0  0  0  0  0  0  0  0  0
    3.5344  -10.5865   84.9402 C   0  0  0  0  0  0  0  0  0  0  0  0
    4.9217   -9.3140   86.6168 C   0  0  0  0  0  0  0  0  0  0  0  0
    4.4692   -7.9567   86.0384 C   0  0  0  0  0  0  0  0  0  0  0  0
    4.1411   -8.0803   84.5386 C   0  0  0  0  0  0  0  0  0  0  0  0
    3.0802   -9.2069   84.3619 C   0  0  0  0  0  0  0  0  0  0  0  0
    5.4690   -8.9605   88.0045 C   0  0  0  0  0  0  0  0  0  0  0  0
    6.0153   -7.5276   87.8575 C   0  0  0  0  0  0  0  0  0  0  0  0
    5.7310   -7.1165   86.3965 C   0  0  0  0  0  0  0  0  0  0  0  0
    1.1263  -11.2527   85.4366 C   0  0  0  0  0  0  0  0  0  0  0  0
    5.3300   -8.3894   83.8232 O   0  0  0  0  0  0  0  0  0  0  0  0
    4.9453  -14.3024   82.3843 O   0  0  0  0  0  0  0  0  0  0  0  0
    3.2168   -7.4157   86.7743 C   0  0  0  0  0  0  0  0  0  0  0  0
    5.7009   -9.2213   84.1566 H   0  0  0  0  0  0  0  0  0  0  0  0
    5.6953  -13.6987   82.5027 H   0  0  0  0  0  0  0  0  0  0  0  0
    5.7053   -5.5573   86.2210 C   0  0  0  0  0  0  0  0  0  0  0  0
    6.5955   -5.0864   85.0618 C   0  0  0  0  0  0  0  0  0  0  0  0
    6.1730   -4.8636   87.5265 C   0  0  0  0  0  0  0  0  0  0  0  0
    5.1778   -3.8805   88.1432 C   0  0  0  0  0  0  0  0  0  0  0  0
    4.3744   -4.6112   89.2115 C   0  0  0  0  0  0  0  0  0  0  0  0
    3.2243   -4.8911   89.1234 O   0  0  0  0  0  0  0  0  0  0  0  0
    5.1155   -4.9114   90.2784 O   0  0  0  0  0  0  0  0  0  0  0  0
    6.0205   -4.6700   90.3032 H   0  0  0  0  0  0  0  0  0  0  0  0
  1  2  1  0  0  0
  1  6  1  0  0  0
  1 20  1  0  0  0
  2  3  1  0  0  0
  3  4  1  0  0  0
  3  7  1  0  0  0
  4  5  1  0  0  0
  4 10  1  0  0  0
  4 18  1  0  0  0
  5  6  1  0  0  0
  7  8  1  0  0  0
  8  9  1  0  0  0
  9 10  1  0  0  0
  9 11  1  0  0  0
 10 14  1  0  0  0
 11 12  1  0  0  0
 11 15  1  0  0  0
 12 13  1  0  0  0
 12 17  1  0  0  0
 12 21  1  0  0  0
 13 14  1  0  0  0
 13 19  1  0  0  0
 15 16  1  0  0  0
 16 17  1  0  0  0
 17 24  1  0  0  0
 24 26  1  0  0  0
 24 25  1  0  0  0
 26 27  1  0  0  0
 27 28  1  0  0  0
 28 29  2  0  0  0
 28 30  1  0  0  0
 19 22  1  0  0  0
 20 23  1  0  0  0
 30 31  1  0  0  0
M  END
> <minimizedAffinity>
-8.85736

$$$$
1E3V_DXC_A_801


 31 34  0  0  0  0  0  0  0  0999 V2000
    0.9996   -4.4975   90.2218 C   0  0  0  0  0  0  0  0  0  0  0  0
    2.3000   -4.6628   89.4270 C   0  0  0  0  0  0  0  0  0  0  0  0
    2.0764   -4.4416   87.9132 C   0  0  0  0  0  0  0  0  0  0  0  0
    0.9575   -5.3688   87.3402 C   0  0  0  0  0  0  0  0  0  0  0  0
   -0.3282   -5.1334   88.1811 C   0  0  0  0  0  0  0  0  0  0  0  0
   -0.1032   -5.4364   89.6708 C   0  0  0  0  0  0  0  0  0  0  0  0
    3.4073   -4.6253   87.1393 C   0  0  0  0  0  0  0  0  0  0  0  0
    3.8502   -6.0985   87.0970 C   0  0  0  0  0  0  0  0  0  0  0  0
    2.7513   -7.0349   86.5629 C   0  0  0  0  0  0  0  0  0  0  0  0
    1.4414   -6.8715   87.3885 C   0  0  0  0  0  0  0  0  0  0  0  0
    3.1877   -8.5175   86.6167 C   0  0  0  0  0  0  0  0  0  0  0  0
    2.1126   -9.4829   86.0748 C   0  0  0  0  0  0  0  0  0  0  0  0
    0.8011   -9.3479   86.8712 C   0  0  0  0  0  0  0  0  0  0  0  0
    0.3593   -7.8548   86.8353 C   0  0  0  0  0  0  0  0  0  0  0  0
    4.4768   -8.9725   85.9227 C   0  0  0  0  0  0  0  0  0  0  0  0
    4.2894  -10.4853   85.6997 C   0  0  0  0  0  0  0  0  0  0  0  0
    2.8879  -10.8220   86.2537 C   0  0  0  0  0  0  0  0  0  0  0  0
    0.6166   -4.9970   85.8735 C   0  0  0  0  0  0  0  0  0  0  0  0
    1.0191   -9.7781   88.2084 O   0  0  0  0  0  0  0  0  0  0  0  0
    1.2939   -4.7103   91.5884 O   0  0  0  0  0  0  0  0  0  0  0  0
    1.8109   -9.2136   84.5784 C   0  0  0  0  0  0  0  0  0  0  0  0
    1.7158   -9.2375   88.6125 H   0  0  0  0  0  0  0  0  0  0  0  0
    1.6536   -5.6034   91.7064 H   0  0  0  0  0  0  0  0  0  0  0  0
    2.3145  -12.1440   85.6325 C   0  0  0  0  0  0  0  0  0  0  0  0
    2.1504  -13.2563   86.6784 C   0  0  0  0  0  0  0  0  0  0  0  0
    3.2456  -12.6523   84.5016 C   0  0  0  0  0  0  0  0  0  0  0  0
    2.6464  -12.6307   83.0952 C   0  0  0  0  0  0  0  0  0  0  0  0
    3.7850  -12.5761   82.0848 C   0  0  0  0  0  0  0  0  0  0  0  0
    4.0919  -11.6155   81.4587 O   0  0  0  0  0  0  0  0  0  0  0  0
    4.4158  -13.7458   81.9764 O   0  0  0  0  0  0  0  0  0  0  0  0
    4.1379  -14.4774   82.4916 H   0  0  0  0  0  0  0  0  0  0  0  0
  1  2  1  0  0  0
  1  6  1  0  0  0
  1 20  1  0  0  0
  2  3  1  0  0  0
  3  4  1  0  0  0
  3  7  1  0  0  0
  4  5  1  0  0  0
  4 10  1  0  0  0
  4 18  1  0  0  0
  5  6  1  0  0  0
  7  8  1  0  0  0
  8  9  1  0  0  0
  9 10  1  0  0  0
  9 11  1  0  0  0
 10 14  1  0  0  0
 11 12  1  0  0  0
 11 15  1  0  0  0
 12 13  1  0  0  0
 12 17  1  0  0  0
 12 21  1  0  0  0
 13 14  1  0  0  0
 13 19  1  0  0  0
 15 16  1  0  0  0
 16 17  1  0  0  0
 17 24  1  0  0  0
 24 26  1  0  0  0
 24 25  1  0  0  0
 26 27  1  0  0  0
 27 28  1  0  0  0
 28 29  2  0  0  0
 28 30  1  0  0  0
 19 22  1  0  0  0
 20 23  1  0  0  0
 30 31  1  0  0  0
M  END
> <minimizedAffinity>
-8.50365

$$$$
1E3V_DXC_A_801


 31 34  0  0  0  0  0  0  0  0999 V2000
    3.2058  -14.0802   84.3212 C   0  0  0  0  0  0  0  0  0  0  0  0
    3.7726  -13.6540   85.6803 C   0  0  0  0  0  0  0  0  0  0  0  0
    2.7243  -12.8912   86.5227 C   0  0  0  0  0  0  0  0  0  0  0  0
    2.1355  -11.6618   85.7600 C   0  0  0  0  0  0  0  0  0  0  0  0
    1.5667  -12.1728   84.4070 C   0  0  0  0  0  0  0  0  0  0  0  0
    2.6455  -12.8568   83.5525 C   0  0  0  0  0  0  0  0  0  0  0  0
    3.3322  -12.4673   87.8846 C   0  0  0  0  0  0  0  0  0  0  0  0
    4.3690  -11.3411   87.7267 C   0  0  0  0  0  0  0  0  0  0  0  0
    3.8187  -10.1304   86.9514 C   0  0  0  0  0  0  0  0  0  0  0  0
    3.2624  -10.5722   85.5660 C   0  0  0  0  0  0  0  0  0  0  0  0
    4.9056   -9.0534   86.7269 C   0  0  0  0  0  0  0  0  0  0  0  0
    4.3825   -7.8184   85.9635 C   0  0  0  0  0  0  0  0  0  0  0  0
    3.8245   -8.2201   84.5851 C   0  0  0  0  0  0  0  0  0  0  0  0
    2.7378   -9.3154   84.7984 C   0  0  0  0  0  0  0  0  0  0  0  0
    5.6651   -8.4575   87.9179 C   0  0  0  0  0  0  0  0  0  0  0  0
    6.1963   -7.1046   87.4072 C   0  0  0  0  0  0  0  0  0  0  0  0
    5.6930   -6.9765   85.9530 C   0  0  0  0  0  0  0  0  0  0  0  0
    0.9538  -11.0297   86.5410 C   0  0  0  0  0  0  0  0  0  0  0  0
    4.8849   -8.7115   83.7759 O   0  0  0  0  0  0  0  0  0  0  0  0
    4.2224  -14.7712   83.6222 O   0  0  0  0  0  0  0  0  0  0  0  0
    3.2649   -7.0933   86.7557 C   0  0  0  0  0  0  0  0  0  0  0  0
    5.2947   -9.4764   84.2093 H   0  0  0  0  0  0  0  0  0  0  0  0
    4.9877  -14.1871   83.5037 H   0  0  0  0  0  0  0  0  0  0  0  0
    5.6560   -5.4822   85.4753 C   0  0  0  0  0  0  0  0  0  0  0  0
    4.8957   -5.3118   84.1521 C   0  0  0  0  0  0  0  0  0  0  0  0
    7.0981   -4.9406   85.2985 C   0  0  0  0  0  0  0  0  0  0  0  0
    7.4567   -4.4690   83.8891 C   0  0  0  0  0  0  0  0  0  0  0  0
    8.9502   -4.6778   83.6741 C   0  0  0  0  0  0  0  0  0  0  0  0
    9.7102   -3.8357   83.3245 O   0  0  0  0  0  0  0  0  0  0  0  0
    9.3226   -5.9328   83.9271 O   0  0  0  0  0  0  0  0  0  0  0  0
    8.6866   -6.5640   84.2010 H   0  0  0  0  0  0  0  0  0  0  0  0
  1  2  1  0  0  0
  1  6  1  0  0  0
  1 20  1  0  0  0
  2  3  1  0  0  0
  3  4  1  0  0  0
  3  7  1  0  0  0
  4  5  1  0  0  0
  4 10  1  0  0  0
  4 18  1  0  0  0
  5  6  1  0  0  0
  7  8  1  0  0  0
  8  9  1  0  0  0
  9 10  1  0  0  0
  9 11  1  0  0  0
 10 14  1  0  0  0
 11 12  1  0  0  0
 11 15  1  0  0  0
 12 13  1  0  0  0
 12 17  1  0  0  0
 12 21  1  0  0  0
 13 14  1  0  0  0
 13 19  1  0  0  0
 15 16  1  0  0  0
 16 17  1  0  0  0
 17 24  1  0  0  0
 24 26  1  0  0  0
 24 25  1  0  0  0
 26 27  1  0  0  0
 27 28  1  0  0  0
 28 29  2  0  0  0
 28 30  1  0  0  0
 19 22  1  0  0  0
 20 23  1  0  0  0
 30 31  1  0  0  0
M  END
> <minimizedAffinity>
-8.35447

$$$$
1E3V_DXC_A_801


 31 34  0  0  0  0  0  0  0  0999 V2000
    3.4913  -12.9709   82.4650 C   0  0  0  0  0  0  0  0  0  0  0  0
    3.5309  -12.9242   83.9967 C   0  0  0  0  0  0  0  0  0  0  0  0
    2.4009  -12.0388   84.5707 C   0  0  0  0  0  0  0  0  0  0  0  0
    2.4209  -10.5955   83.9737 C   0  0  0  0  0  0  0  0  0  0  0  0
    2.3606  -10.7232   82.4260 C   0  0  0  0  0  0  0  0  0  0  0  0
    3.5380  -11.5403   81.8711 C   0  0  0  0  0  0  0  0  0  0  0  0
    2.4758  -12.0058   86.1191 C   0  0  0  0  0  0  0  0  0  0  0  0
    3.6844  -11.1956   86.6200 C   0  0  0  0  0  0  0  0  0  0  0  0
    3.7403   -9.7788   86.0206 C   0  0  0  0  0  0  0  0  0  0  0  0
    3.7176   -9.8393   84.4650 C   0  0  0  0  0  0  0  0  0  0  0  0
    5.0111   -9.0190   86.4672 C   0  0  0  0  0  0  0  0  0  0  0  0
    5.0912   -7.5883   85.8941 C   0  0  0  0  0  0  0  0  0  0  0  0
    5.0719   -7.6113   84.3541 C   0  0  0  0  0  0  0  0  0  0  0  0
    3.8023   -8.3868   83.8931 C   0  0  0  0  0  0  0  0  0  0  0  0
    5.3238   -8.8385   87.9571 C   0  0  0  0  0  0  0  0  0  0  0  0
    6.2670   -7.6219   88.0155 C   0  0  0  0  0  0  0  0  0  0  0  0
    6.4298   -7.1450   86.5559 C   0  0  0  0  0  0  0  0  0  0  0  0
    1.1712   -9.7886   84.4130 C   0  0  0  0  0  0  0  0  0  0  0  0
    6.2519   -8.2471   83.8806 O   0  0  0  0  0  0  0  0  0  0  0  0
    4.5488  -13.8009   82.0266 O   0  0  0  0  0  0  0  0  0  0  0  0
    3.9122   -6.7122   86.3891 C   0  0  0  0  0  0  0  0  0  0  0  0
    6.2949   -9.1508   84.2304 H   0  0  0  0  0  0  0  0  0  0  0  0
    5.3939  -13.4374   82.3342 H   0  0  0  0  0  0  0  0  0  0  0  0
    6.8792   -5.6436   86.4766 C   0  0  0  0  0  0  0  0  0  0  0  0
    7.9471   -5.4108   85.3981 C   0  0  0  0  0  0  0  0  0  0  0  0
    7.4395   -5.1792   87.8458 C   0  0  0  0  0  0  0  0  0  0  0  0
    8.3552   -3.9558   87.8023 C   0  0  0  0  0  0  0  0  0  0  0  0
    7.8377   -2.9281   88.8006 C   0  0  0  0  0  0  0  0  0  0  0  0
    7.8859   -1.7516   88.6507 O   0  0  0  0  0  0  0  0  0  0  0  0
    7.3118   -3.5015   89.8833 O   0  0  0  0  0  0  0  0  0  0  0  0
    7.2957   -4.4354   89.9579 H   0  0  0  0  0  0  0  0  0  0  0  0
  1  2  1  0  0  0
  1  6  1  0  0  0
  1 20  1  0  0  0
  2  3  1  0  0  0
  3  4  1  0  0  0
  3  7  1  0  0  0
  4  5  1  0  0  0
  4 10  1  0  0  0
  4 18  1  0  0  0
  5  6  1  0  0  0
  7  8  1  0  0  0
  8  9  1  0  0  0
  9 10  1  0  0  0
  9 11  1  0  0  0
 10 14  1  0  0  0
 11 12  1  0  0  0
 11 15  1  0  0  0
 12 13  1  0  0  0
 12 17  1  0  0  0
 12 21  1  0  0  0
 13 14  1  0  0  0
 13 19  1  0  0  0
 15 16  1  0  0  0
 16 17  1  0  0  0
 17 24  1  0  0  0
 24 26  1  0  0  0
 24 25  1  0  0  0
 26 27  1  0  0  0
 27 28  1  0  0  0
 28 29  2  0  0  0
 28 30  1  0  0  0
 19 22  1  0  0  0
 20 23  1  0  0  0
 30 31  1  0  0  0
M  END
> <minimizedAffinity>
-8.29944

$$$$
1E3V_DXC_A_801


 31 34  0  0  0  0  0  0  0  0999 V2000
    4.5896   -3.4295   86.8658 C   0  0  0  0  0  0  0  0  0  0  0  0
    5.3509   -4.5208   87.6269 C   0  0  0  0  0  0  0  0  0  0  0  0
    6.3245   -5.2884   86.7032 C   0  0  0  0  0  0  0  0  0  0  0  0
    5.6038   -5.8874   85.4535 C   0  0  0  0  0  0  0  0  0  0  0  0
    4.8727   -4.7243   84.7267 C   0  0  0  0  0  0  0  0  0  0  0  0
    3.8525   -4.0275   85.6408 C   0  0  0  0  0  0  0  0  0  0  0  0
    7.0699   -6.3891   87.5013 C   0  0  0  0  0  0  0  0  0  0  0  0
    6.1399   -7.5550   87.8806 C   0  0  0  0  0  0  0  0  0  0  0  0
    5.3962   -8.1417   86.6671 C   0  0  0  0  0  0  0  0  0  0  0  0
    4.6124   -7.0280   85.9124 C   0  0  0  0  0  0  0  0  0  0  0  0
    4.4012   -9.2485   87.0869 C   0  0  0  0  0  0  0  0  0  0  0  0
    3.6481   -9.8680   85.8908 C   0  0  0  0  0  0  0  0  0  0  0  0
    2.8596   -8.7919   85.1209 C   0  0  0  0  0  0  0  0  0  0  0  0
    3.8503   -7.6644   84.7049 C   0  0  0  0  0  0  0  0  0  0  0  0
    4.8842  -10.4627   87.8887 C   0  0  0  0  0  0  0  0  0  0  0  0
    3.8254  -11.5511   87.6285 C   0  0  0  0  0  0  0  0  0  0  0  0
    2.7971  -10.9168   86.6669 C   0  0  0  0  0  0  0  0  0  0  0  0
    6.6243   -6.4823   84.4482 C   0  0  0  0  0  0  0  0  0  0  0  0
    1.8310   -8.2776   85.9566 O   0  0  0  0  0  0  0  0  0  0  0  0
    3.7308   -2.7780   87.7809 O   0  0  0  0  0  0  0  0  0  0  0  0
    4.6221  -10.5644   84.9065 C   0  0  0  0  0  0  0  0  0  0  0  0
    2.2249   -7.8980   86.7577 H   0  0  0  0  0  0  0  0  0  0  0  0
    3.1130   -3.4227   88.1597 H   0  0  0  0  0  0  0  0  0  0  0  0
    1.9871  -12.0031   85.8756 C   0  0  0  0  0  0  0  0  0  0  0  0
    0.5384  -12.1251   86.3699 C   0  0  0  0  0  0  0  0  0  0  0  0
    2.6785  -13.3852   86.0030 C   0  0  0  0  0  0  0  0  0  0  0  0
    2.8361  -14.1658   84.6980 C   0  0  0  0  0  0  0  0  0  0  0  0
    4.2812  -14.0431   84.2320 C   0  0  0  0  0  0  0  0  0  0  0  0
    5.2176  -13.9147   84.9500 O   0  0  0  0  0  0  0  0  0  0  0  0
    4.3862  -14.0980   82.9040 O   0  0  0  0  0  0  0  0  0  0  0  0
    3.6181  -14.2002   82.3771 H   0  0  0  0  0  0  0  0  0  0  0  0
  1  2  1  0  0  0
  1  6  1  0  0  0
  1 20  1  0  0  0
  2  3  1  0  0  0
  3  4  1  0  0  0
  3  7  1  0  0  0
  4  5  1  0  0  0
  4 10  1  0  0  0
  4 18  1  0  0  0
  5  6  1  0  0  0
  7  8  1  0  0  0
  8  9  1  0  0  0
  9 10  1  0  0  0
  9 11  1  0  0  0
 10 14  1  0  0  0
 11 12  1  0  0  0
 11 15  1  0  0  0
 12 13  1  0  0  0
 12 17  1  0  0  0
 12 21  1  0  0  0
 13 14  1  0  0  0
 13 19  1  0  0  0
 15 16  1  0  0  0
 16 17  1  0  0  0
 17 24  1  0  0  0
 24 26  1  0  0  0
 24 25  1  0  0  0
 26 27  1  0  0  0
 27 28  1  0  0  0
 28 29  2  0  0  0
 28 30  1  0  0  0
 19 22  1  0  0  0
 20 23  1  0  0  0
 30 31  1  0  0  0
M  END
> <minimizedAffinity>
-8.25992

$$$$
1E3V_DXC_A_801


 31 34  0  0  0  0  0  0  0  0999 V2000
    3.9494  -13.8638   84.2424 C   0  0  0  0  0  0  0  0  0  0  0  0
    4.4869  -13.0147   85.4000 C   0  0  0  0  0  0  0  0  0  0  0  0
    3.4119  -12.7847   86.4871 C   0  0  0  0  0  0  0  0  0  0  0  0
    2.1061  -12.1578   85.9026 C   0  0  0  0  0  0  0  0  0  0  0  0
    1.6134  -13.0789   84.7518 C   0  0  0  0  0  0  0  0  0  0  0  0
    2.6687  -13.2283   83.6446 C   0  0  0  0  0  0  0  0  0  0  0  0
    3.9849  -11.9160   87.6365 C   0  0  0  0  0  0  0  0  0  0  0  0
    4.1953  -10.4543   87.2035 C   0  0  0  0  0  0  0  0  0  0  0  0
    2.9281   -9.8254   86.5967 C   0  0  0  0  0  0  0  0  0  0  0  0
    2.4015  -10.6862   85.4110 C   0  0  0  0  0  0  0  0  0  0  0  0
    3.1908   -8.3894   86.0864 C   0  0  0  0  0  0  0  0  0  0  0  0
    1.9355   -7.7242   85.4837 C   0  0  0  0  0  0  0  0  0  0  0  0
    1.3877   -8.5509   84.3051 C   0  0  0  0  0  0  0  0  0  0  0  0
    1.1324  -10.0039   84.8046 C   0  0  0  0  0  0  0  0  0  0  0  0
    3.7577   -7.3222   87.0299 C   0  0  0  0  0  0  0  0  0  0  0  0
    3.3562   -5.9796   86.3901 C   0  0  0  0  0  0  0  0  0  0  0  0
    2.5537   -6.3411   85.1214 C   0  0  0  0  0  0  0  0  0  0  0  0
    0.9782  -12.1158   86.9666 C   0  0  0  0  0  0  0  0  0  0  0  0
    2.3352   -8.5402   83.2454 O   0  0  0  0  0  0  0  0  0  0  0  0
    4.9921  -14.0284   83.3016 O   0  0  0  0  0  0  0  0  0  0  0  0
    0.8128   -7.5689   86.5411 C   0  0  0  0  0  0  0  0  0  0  0  0
    3.1740   -8.9139   83.5580 H   0  0  0  0  0  0  0  0  0  0  0  0
    5.2788  -13.1589   82.9813 H   0  0  0  0  0  0  0  0  0  0  0  0
    1.6203   -5.1656   84.6637 C   0  0  0  0  0  0  0  0  0  0  0  0
    2.0816   -4.5359   83.3414 C   0  0  0  0  0  0  0  0  0  0  0  0
    1.5724   -4.0641   85.7541 C   0  0  0  0  0  0  0  0  0  0  0  0
    0.2866   -4.0095   86.5794 C   0  0  0  0  0  0  0  0  0  0  0  0
   -0.5771   -2.8696   86.0549 C   0  0  0  0  0  0  0  0  0  0  0  0
   -0.2721   -2.1373   85.1720 O   0  0  0  0  0  0  0  0  0  0  0  0
   -1.7379   -2.7801   86.7048 O   0  0  0  0  0  0  0  0  0  0  0  0
   -1.9354   -3.3811   87.3960 H   0  0  0  0  0  0  0  0  0  0  0  0
  1  2  1  0  0  0
  1  6  1  0  0  0
  1 20  1  0  0  0
  2  3  1  0  0  0
  3  4  1  0  0  0
  3  7  1  0  0  0
  4  5  1  0  0  0
  4 10  1  0  0  0
  4 18  1  0  0  0
  5  6  1  0  0  0
  7  8  1  0  0  0
  8  9  1  0  0  0
  9 10  1  0  0  0
  9 11  1  0  0  0
 10 14  1  0  0  0
 11 12  1  0  0  0
 11 15  1  0  0  0
 12 13  1  0  0  0
 12 17  1  0  0  0
 12 21  1  0  0  0
 13 14  1  0  0  0
 13 19  1  0  0  0
 15 16  1  0  0  0
 16 17  1  0  0  0
 17 24  1  0  0  0
 24 26  1  0  0  0
 24 25  1  0  0  0
 26 27  1  0  0  0
 27 28  1  0  0  0
 28 29  2  0  0  0
 28 30  1  0  0  0
 19 22  1  0  0  0
 20 23  1  0  0  0
 30 31  1  0  0  0
M  END
> <minimizedAffinity>
-8.25183

$$$$
1E3V_DXC_A_801


 31 34  0  0  0  0  0  0  0  0999 V2000
    3.2492  -14.1393   84.2960 C   0  0  0  0  0  0  0  0  0  0  0  0
    3.7994  -13.7077   85.6602 C   0  0  0  0  0  0  0  0  0  0  0  0
    2.7408  -12.9420   86.4869 C   0  0  0  0  0  0  0  0  0  0  0  0
    2.1609  -11.7157   85.7124 C   0  0  0  0  0  0  0  0  0  0  0  0
    1.6085  -12.2321   84.3546 C   0  0  0  0  0  0  0  0  0  0  0  0
    2.6978  -12.9190   83.5159 C   0  0  0  0  0  0  0  0  0  0  0  0
    3.3321  -12.5126   87.8544 C   0  0  0  0  0  0  0  0  0  0  0  0
    4.3704  -11.3866   87.7047 C   0  0  0  0  0  0  0  0  0  0  0  0
    3.8291  -10.1791   86.9181 C   0  0  0  0  0  0  0  0  0  0  0  0
    3.2897  -10.6265   85.5278 C   0  0  0  0  0  0  0  0  0  0  0  0
    4.9183   -9.1027   86.7026 C   0  0  0  0  0  0  0  0  0  0  0  0
    4.4041   -7.8708   85.9281 C   0  0  0  0  0  0  0  0  0  0  0  0
    3.8628   -8.2780   84.5448 C   0  0  0  0  0  0  0  0  0  0  0  0
    2.7740   -9.3728   84.7492 C   0  0  0  0  0  0  0  0  0  0  0  0
    5.6632   -8.5019   87.9003 C   0  0  0  0  0  0  0  0  0  0  0  0
    6.2001   -7.1508   87.3909 C   0  0  0  0  0  0  0  0  0  0  0  0
    5.7143   -7.0284   85.9303 C   0  0  0  0  0  0  0  0  0  0  0  0
    0.9696  -11.0810   86.4767 C   0  0  0  0  0  0  0  0  0  0  0  0
    4.9331   -8.7721   83.7502 O   0  0  0  0  0  0  0  0  0  0  0  0
    4.2743  -14.8326   83.6120 O   0  0  0  0  0  0  0  0  0  0  0  0
    3.2768   -7.1430   86.7041 C   0  0  0  0  0  0  0  0  0  0  0  0
    5.3378   -9.5352   84.1916 H   0  0  0  0  0  0  0  0  0  0  0  0
    5.0408  -14.2487   83.5004 H   0  0  0  0  0  0  0  0  0  0  0  0
    5.6826   -5.5360   85.4463 C   0  0  0  0  0  0  0  0  0  0  0  0
    5.1340   -4.5862   86.5209 C   0  0  0  0  0  0  0  0  0  0  0  0
    4.8124   -5.4054   84.1696 C   0  0  0  0  0  0  0  0  0  0  0  0
    3.7894   -4.2693   84.1830 C   0  0  0  0  0  0  0  0  0  0  0  0
    2.4023   -4.8645   83.9780 C   0  0  0  0  0  0  0  0  0  0  0  0
    2.0863   -5.5506   83.0624 O   0  0  0  0  0  0  0  0  0  0  0  0
    1.5625   -4.5279   84.9574 O   0  0  0  0  0  0  0  0  0  0  0  0
    1.8572   -3.9834   85.6607 H   0  0  0  0  0  0  0  0  0  0  0  0
  1  2  1  0  0  0
  1  6  1  0  0  0
  1 20  1  0  0  0
  2  3  1  0  0  0
  3  4  1  0  0  0
  3  7  1  0  0  0
  4  5  1  0  0  0
  4 10  1  0  0  0
  4 18  1  0  0  0
  5  6  1  0  0  0
  7  8  1  0  0  0
  8  9  1  0  0  0
  9 10  1  0  0  0
  9 11  1  0  0  0
 10 14  1  0  0  0
 11 12  1  0  0  0
 11 15  1  0  0  0
 12 13  1  0  0  0
 12 17  1  0  0  0
 12 21  1  0  0  0
 13 14  1  0  0  0
 13 19  1  0  0  0
 15 16  1  0  0  0
 16 17  1  0  0  0
 17 24  1  0  0  0
 24 26  1  0  0  0
 24 25  1  0  0  0
 26 27  1  0  0  0
 27 28  1  0  0  0
 28 29  2  0  0  0
 28 30  1  0  0  0
 19 22  1  0  0  0
 20 23  1  0  0  0
 30 31  1  0  0  0
M  END
> <minimizedAffinity>
-8.19453

$$$$
1E3V_DXC_A_801


 31 34  0  0  0  0  0  0  0  0999 V2000
    2.6960   -4.2757   84.1492 C   0  0  0  0  0  0  0  0  0  0  0  0
    1.6336   -4.9300   85.0399 C   0  0  0  0  0  0  0  0  0  0  0  0
    2.1714   -5.2038   86.4634 C   0  0  0  0  0  0  0  0  0  0  0  0
    3.4794   -6.0575   86.4461 C   0  0  0  0  0  0  0  0  0  0  0  0
    4.5099   -5.3254   85.5420 C   0  0  0  0  0  0  0  0  0  0  0  0
    3.9846   -5.1356   84.1103 C   0  0  0  0  0  0  0  0  0  0  0  0
    1.0766   -5.8733   87.3336 C   0  0  0  0  0  0  0  0  0  0  0  0
    0.8068   -7.3257   86.9026 C   0  0  0  0  0  0  0  0  0  0  0  0
    2.0875   -8.1782   86.8501 C   0  0  0  0  0  0  0  0  0  0  0  0
    3.1522   -7.5135   85.9288 C   0  0  0  0  0  0  0  0  0  0  0  0
    1.8031   -9.6054   86.3269 C   0  0  0  0  0  0  0  0  0  0  0  0
    3.0655  -10.4915   86.2748 C   0  0  0  0  0  0  0  0  0  0  0  0
    4.1413   -9.8628   85.3694 C   0  0  0  0  0  0  0  0  0  0  0  0
    4.4258   -8.4188   85.8792 C   0  0  0  0  0  0  0  0  0  0  0  0
    0.7583  -10.4906   87.0161 C   0  0  0  0  0  0  0  0  0  0  0  0
    1.1440  -11.9299   86.6251 C   0  0  0  0  0  0  0  0  0  0  0  0
    2.4099  -11.8035   85.7500 C   0  0  0  0  0  0  0  0  0  0  0  0
    4.1047   -6.1555   87.8622 C   0  0  0  0  0  0  0  0  0  0  0  0
    3.6704   -9.8413   84.0283 O   0  0  0  0  0  0  0  0  0  0  0  0
    2.1224   -4.0571   82.8753 O   0  0  0  0  0  0  0  0  0  0  0  0
    3.6701  -10.7011   87.6866 C   0  0  0  0  0  0  0  0  0  0  0  0
    2.8490   -9.3274   83.9822 H   0  0  0  0  0  0  0  0  0  0  0  0
    1.8379   -4.9047   82.4991 H   0  0  0  0  0  0  0  0  0  0  0  0
    3.2406  -13.1346   85.7254 C   0  0  0  0  0  0  0  0  0  0  0  0
    4.7508  -12.8815   85.8401 C   0  0  0  0  0  0  0  0  0  0  0  0
    2.9610  -13.9163   84.4158 C   0  0  0  0  0  0  0  0  0  0  0  0
    2.5347  -13.0658   83.2191 C   0  0  0  0  0  0  0  0  0  0  0  0
    3.7499  -12.8395   82.3288 C   0  0  0  0  0  0  0  0  0  0  0  0
    4.0118  -11.8179   81.7840 O   0  0  0  0  0  0  0  0  0  0  0  0
    4.5060  -13.9327   82.2249 O   0  0  0  0  0  0  0  0  0  0  0  0
    4.2592  -14.7174   82.6736 H   0  0  0  0  0  0  0  0  0  0  0  0
  1  2  1  0  0  0
  1  6  1  0  0  0
  1 20  1  0  0  0
  2  3  1  0  0  0
  3  4  1  0  0  0
  3  7  1  0  0  0
  4  5  1  0  0  0
  4 10  1  0  0  0
  4 18  1  0  0  0
  5  6  1  0  0  0
  7  8  1  0  0  0
  8  9  1  0  0  0
  9 10  1  0  0  0
  9 11  1  0  0  0
 10 14  1  0  0  0
 11 12  1  0  0  0
 11 15  1  0  0  0
 12 13  1  0  0  0
 12 17  1  0  0  0
 12 21  1  0  0  0
 13 14  1  0  0  0
 13 19  1  0  0  0
 15 16  1  0  0  0
 16 17  1  0  0  0
 17 24  1  0  0  0
 24 26  1  0  0  0
 24 25  1  0  0  0
 26 27  1  0  0  0
 27 28  1  0  0  0
 28 29  2  0  0  0
 28 30  1  0  0  0
 19 22  1  0  0  0
 20 23  1  0  0  0
 30 31  1  0  0  0
M  END
> <minimizedAffinity>
-8.16691

$$$$
1E3V_DXC_A_801


 31 34  0  0  0  0  0  0  0  0999 V2000
    7.8703   -5.6027   84.7682 C   0  0  0  0  0  0  0  0  0  0  0  0
    6.4938   -5.3521   84.1417 C   0  0  0  0  0  0  0  0  0  0  0  0
    5.4361   -4.9937   85.2109 C   0  0  0  0  0  0  0  0  0  0  0  0
    5.3427   -6.0749   86.3344 C   0  0  0  0  0  0  0  0  0  0  0  0
    6.7656   -6.2606   86.9313 C   0  0  0  0  0  0  0  0  0  0  0  0
    7.7834   -6.6944   85.8646 C   0  0  0  0  0  0  0  0  0  0  0  0
    4.0559   -4.7564   84.5454 C   0  0  0  0  0  0  0  0  0  0  0  0
    3.4325   -6.0655   84.0300 C   0  0  0  0  0  0  0  0  0  0  0  0
    3.3578   -7.1559   85.1140 C   0  0  0  0  0  0  0  0  0  0  0  0
    4.7639   -7.4146   85.7304 C   0  0  0  0  0  0  0  0  0  0  0  0
    2.8136   -8.4882   84.5480 C   0  0  0  0  0  0  0  0  0  0  0  0
    2.7130   -9.6000   85.6136 C   0  0  0  0  0  0  0  0  0  0  0  0
    4.0894   -9.8827   86.2445 C   0  0  0  0  0  0  0  0  0  0  0  0
    4.6535   -8.5438   86.8059 C   0  0  0  0  0  0  0  0  0  0  0  0
    1.4554   -8.5325   83.8382 C   0  0  0  0  0  0  0  0  0  0  0  0
    1.0107  -10.0043   83.9335 C   0  0  0  0  0  0  0  0  0  0  0  0
    2.1247  -10.7307   84.7182 C   0  0  0  0  0  0  0  0  0  0  0  0
    4.4217   -5.6052   87.4906 C   0  0  0  0  0  0  0  0  0  0  0  0
    4.9565  -10.4206   85.2548 O   0  0  0  0  0  0  0  0  0  0  0  0
    8.7729   -5.9172   83.7261 O   0  0  0  0  0  0  0  0  0  0  0  0
    1.7225   -9.2159   86.7423 C   0  0  0  0  0  0  0  0  0  0  0  0
    5.0442   -9.7889   84.5239 H   0  0  0  0  0  0  0  0  0  0  0  0
    8.4631   -6.7082   83.2578 H   0  0  0  0  0  0  0  0  0  0  0  0
    1.6075  -12.0577   85.3772 C   0  0  0  0  0  0  0  0  0  0  0  0
    2.2873  -12.3432   86.7241 C   0  0  0  0  0  0  0  0  0  0  0  0
    1.8524  -13.2584   84.4271 C   0  0  0  0  0  0  0  0  0  0  0  0
    2.9738  -13.0717   83.4050 C   0  0  0  0  0  0  0  0  0  0  0  0
    4.1461  -13.9583   83.8051 C   0  0  0  0  0  0  0  0  0  0  0  0
    4.3499  -15.0475   83.3798 O   0  0  0  0  0  0  0  0  0  0  0  0
    4.9375  -13.3687   84.7017 O   0  0  0  0  0  0  0  0  0  0  0  0
    4.7365  -12.5067   85.0090 H   0  0  0  0  0  0  0  0  0  0  0  0
  1  2  1  0  0  0
  1  6  1  0  0  0
  1 20  1  0  0  0
  2  3  1  0  0  0
  3  4  1  0  0  0
  3  7  1  0  0  0
  4  5  1  0  0  0
  4 10  1  0  0  0
  4 18  1  0  0  0
  5  6  1  0  0  0
  7  8  1  0  0  0
  8  9  1  0  0  0
  9 10  1  0  0  0
  9 11  1  0  0  0
 10 14  1  0  0  0
 11 12  1  0  0  0
 11 15  1  0  0  0
 12 13  1  0  0  0
 12 17  1  0  0  0
 12 21  1  0  0  0
 13 14  1  0  0  0
 13 19  1  0  0  0
 15 16  1  0  0  0
 16 17  1  0  0  0
 17 24  1  0  0  0
 24 26  1  0  0  0
 24 25  1  0  0  0
 26 27  1  0  0  0
 27 28  1  0  0  0
 28 29  2  0  0  0
 28 30  1  0  0  0
 19 22  1  0  0  0
 20 23  1  0  0  0
 30 31  1  0  0  0
M  END
> <minimizedAffinity>
-8.12034

$$$$
