3M40_J45_A_263


 24 25  0  0  0  0  0  0  0  0999 V2000
   -3.3523    3.0288   14.0471 N   0  0  0  0  0  0  0  0  0  0  0  0
   -2.5735    2.6930   14.5472 H   0  0  0  0  0  0  0  0  0  0  0  0
   -6.8361    3.2974   16.3145 N   0  0  0  0  0  0  0  0  0  0  0  0
   -6.3936    4.3494   15.6820 C   0  0  0  0  0  0  0  0  0  0  0  0
   -5.2877    4.2423   14.9510 N   0  0  0  0  0  0  0  0  0  0  0  0
   -4.6304    3.0718   14.7130 C   0  0  0  0  0  0  0  0  0  0  0  0
   -5.0699    1.9359   15.4501 C   0  0  0  0  0  0  0  0  0  0  0  0
   -6.2625    2.1313   16.2215 C   0  0  0  0  0  0  0  0  0  0  0  0
   -7.1393    0.9479   17.1327 Cl  0  0  0  0  0  0  0  0  0  0  0  0
   -4.2649    0.6925   15.2999 N   0  0  0  0  0  0  0  0  0  0  0  0
   -4.4394    0.2276   14.2253 O   0  0  0  0  0  0  0  0  0  0  0  0
   -3.6432    0.6193   16.3074 O   0  0  0  0  0  0  0  0  0  0  0  0
   -3.1670    3.4427   12.7216 C   0  0  0  0  0  0  0  0  0  0  0  0
   -2.1073    4.3005   12.4689 C   0  0  0  0  0  0  0  0  0  0  0  0
   -1.8942    4.7327   11.1761 C   0  0  0  0  0  0  0  0  0  0  0  0
   -2.7218    4.3381   10.1369 C   0  0  0  0  0  0  0  0  0  0  0  0
   -3.7942    3.4967   10.3967 C   0  0  0  0  0  0  0  0  0  0  0  0
   -4.0627    3.0712   11.7240 C   0  0  0  0  0  0  0  0  0  0  0  0
   -2.4155    4.9562    8.5499 S   0  0  0  0  0  0  0  0  0  0  0  0
   -2.2434    6.4167    8.6843 O   0  0  0  0  0  0  0  0  0  0  0  0
   -1.2858    4.1785    7.9708 O   0  0  0  0  0  0  0  0  0  0  0  0
   -3.8434    4.7238    7.6613 N   0  0  0  0  0  0  0  0  0  0  0  0
   -4.5973    5.2677    8.0809 H   0  0  0  0  0  0  0  0  0  0  0  0
   -4.0921    3.7346    7.6701 H   0  0  0  0  0  0  0  0  0  0  0  0
  3  4  2  0  0  0
  3  8  1  0  0  0
  4  5  1  0  0  0
  5  6  2  0  0  0
  6  7  1  0  0  0
  6  1  1  0  0  0
  7  8  2  0  0  0
  7 10  1  0  0  0
  8  9  1  0  0  0
  1 13  1  0  0  0
 13 14  2  0  0  0
 13 18  1  0  0  0
 14 15  1  0  0  0
 15 16  2  0  0  0
 16 17  1  0  0  0
 16 19  1  0  0  0
 17 18  2  0  0  0
 19 20  2  0  0  0
 19 21  2  0  0  0
 19 22  1  0  0  0
 10 11  1  0  0  0
 10 12  2  0  0  0
  1  2  1  0  0  0
 22 23  1  0  0  0
 22 24  1  0  0  0
M  CHG 1  10   1
M  CHG 1  11  -1
M  END
> <minimizedAffinity>
-7.36037

$$$$
3M40_J45_A_263


 24 25  0  0  0  0  0  0  0  0999 V2000
   -4.2374    5.2099   13.6983 N   0  0  0  0  0  0  0  0  0  0  0  0
   -4.1227    6.1538   13.9534 H   0  0  0  0  0  0  0  0  0  0  0  0
   -2.9383    3.5991   10.0833 N   0  0  0  0  0  0  0  0  0  0  0  0
   -4.2148    3.6409   10.3510 C   0  0  0  0  0  0  0  0  0  0  0  0
   -4.6130    4.1717   11.5036 N   0  0  0  0  0  0  0  0  0  0  0  0
   -3.7870    4.7905   12.3944 C   0  0  0  0  0  0  0  0  0  0  0  0
   -2.3899    4.6916   12.1391 C   0  0  0  0  0  0  0  0  0  0  0  0
   -2.0383    4.0997   10.8814 C   0  0  0  0  0  0  0  0  0  0  0  0
   -0.4568    3.9319   10.1960 Cl  0  0  0  0  0  0  0  0  0  0  0  0
   -1.4817    5.2416   13.1827 N   0  0  0  0  0  0  0  0  0  0  0  0
   -1.3209    6.4011   13.0056 O   0  0  0  0  0  0  0  0  0  0  0  0
   -1.2744    4.3256   13.9070 O   0  0  0  0  0  0  0  0  0  0  0  0
   -4.8308    4.3366   14.6191 C   0  0  0  0  0  0  0  0  0  0  0  0
   -4.0956    3.2246   15.0009 C   0  0  0  0  0  0  0  0  0  0  0  0
   -4.6475    2.3394   15.9039 C   0  0  0  0  0  0  0  0  0  0  0  0
   -5.9183    2.5339   16.4214 C   0  0  0  0  0  0  0  0  0  0  0  0
   -6.6600    3.6363   16.0210 C   0  0  0  0  0  0  0  0  0  0  0  0
   -6.1343    4.5399   15.0608 C   0  0  0  0  0  0  0  0  0  0  0  0
   -6.5587    1.3572   17.5168 S   0  0  0  0  0  0  0  0  0  0  0  0
   -6.3152    1.8649   18.8820 O   0  0  0  0  0  0  0  0  0  0  0  0
   -7.9688    1.0899   17.1212 O   0  0  0  0  0  0  0  0  0  0  0  0
   -5.5965   -0.0309   17.3452 N   0  0  0  0  0  0  0  0  0  0  0  0
   -4.6386    0.1829   17.6229 H   0  0  0  0  0  0  0  0  0  0  0  0
   -5.6084   -0.3346   16.3715 H   0  0  0  0  0  0  0  0  0  0  0  0
  3  4  2  0  0  0
  3  8  1  0  0  0
  4  5  1  0  0  0
  5  6  2  0  0  0
  6  7  1  0  0  0
  6  1  1  0  0  0
  7  8  2  0  0  0
  7 10  1  0  0  0
  8  9  1  0  0  0
  1 13  1  0  0  0
 13 14  2  0  0  0
 13 18  1  0  0  0
 14 15  1  0  0  0
 15 16  2  0  0  0
 16 17  1  0  0  0
 16 19  1  0  0  0
 17 18  2  0  0  0
 19 20  2  0  0  0
 19 21  2  0  0  0
 19 22  1  0  0  0
 10 11  1  0  0  0
 10 12  2  0  0  0
  1  2  1  0  0  0
 22 23  1  0  0  0
 22 24  1  0  0  0
M  CHG 1  10   1
M  CHG 1  11  -1
M  END
> <minimizedAffinity>
-7.21909

$$$$
3M40_J45_A_263


 24 25  0  0  0  0  0  0  0  0999 V2000
   -4.2744    4.2674   12.8487 N   0  0  0  0  0  0  0  0  0  0  0  0
   -4.8393    4.4264   12.0582 H   0  0  0  0  0  0  0  0  0  0  0  0
   -0.3974    5.7228   12.3998 N   0  0  0  0  0  0  0  0  0  0  0  0
   -1.2353    6.3456   13.1827 C   0  0  0  0  0  0  0  0  0  0  0  0
   -2.4648    5.8590   13.3256 N   0  0  0  0  0  0  0  0  0  0  0  0
   -2.8926    4.6763   12.7995 C   0  0  0  0  0  0  0  0  0  0  0  0
   -2.0061    4.0264   11.8947 C   0  0  0  0  0  0  0  0  0  0  0  0
   -0.7029    4.6144   11.7868 C   0  0  0  0  0  0  0  0  0  0  0  0
    0.6528    4.0248   10.8848 Cl  0  0  0  0  0  0  0  0  0  0  0  0
   -2.5266    2.8113   11.2098 N   0  0  0  0  0  0  0  0  0  0  0  0
   -2.2425    1.8456   11.8328 O   0  0  0  0  0  0  0  0  0  0  0  0
   -3.1324    3.2320   10.2810 O   0  0  0  0  0  0  0  0  0  0  0  0
   -4.8504    3.6543   13.9689 C   0  0  0  0  0  0  0  0  0  0  0  0
   -4.4829    2.3434   14.2316 C   0  0  0  0  0  0  0  0  0  0  0  0
   -5.0313    1.7043   15.3245 C   0  0  0  0  0  0  0  0  0  0  0  0
   -5.9453    2.3404   16.1496 C   0  0  0  0  0  0  0  0  0  0  0  0
   -6.3273    3.6451   15.8716 C   0  0  0  0  0  0  0  0  0  0  0  0
   -5.8119    4.3120   14.7294 C   0  0  0  0  0  0  0  0  0  0  0  0
   -6.6213    1.4588   17.4764 S   0  0  0  0  0  0  0  0  0  0  0  0
   -6.4322    2.2886   18.6833 O   0  0  0  0  0  0  0  0  0  0  0  0
   -8.0141    1.0832   17.1084 O   0  0  0  0  0  0  0  0  0  0  0  0
   -5.6467    0.0844   17.6847 N   0  0  0  0  0  0  0  0  0  0  0  0
   -4.7011    0.3730   17.9356 H   0  0  0  0  0  0  0  0  0  0  0  0
   -5.6202   -0.4485   16.8154 H   0  0  0  0  0  0  0  0  0  0  0  0
  3  4  2  0  0  0
  3  8  1  0  0  0
  4  5  1  0  0  0
  5  6  2  0  0  0
  6  7  1  0  0  0
  6  1  1  0  0  0
  7  8  2  0  0  0
  7 10  1  0  0  0
  8  9  1  0  0  0
  1 13  1  0  0  0
 13 14  2  0  0  0
 13 18  1  0  0  0
 14 15  1  0  0  0
 15 16  2  0  0  0
 16 17  1  0  0  0
 16 19  1  0  0  0
 17 18  2  0  0  0
 19 20  2  0  0  0
 19 21  2  0  0  0
 19 22  1  0  0  0
 10 11  1  0  0  0
 10 12  2  0  0  0
  1  2  1  0  0  0
 22 23  1  0  0  0
 22 24  1  0  0  0
M  CHG 1  10   1
M  CHG 1  11  -1
M  END
> <minimizedAffinity>
-7.19266

$$$$
3M40_J45_A_263


 24 25  0  0  0  0  0  0  0  0999 V2000
   -3.9806    5.5953   13.9709 N   0  0  0  0  0  0  0  0  0  0  0  0
   -4.3635    6.4988   14.0500 H   0  0  0  0  0  0  0  0  0  0  0  0
   -0.8542    5.4166   11.2242 N   0  0  0  0  0  0  0  0  0  0  0  0
   -0.6085    5.7445   12.4631 C   0  0  0  0  0  0  0  0  0  0  0  0
   -1.6163    5.7826   13.3301 N   0  0  0  0  0  0  0  0  0  0  0  0
   -2.8910    5.3887   13.0495 C   0  0  0  0  0  0  0  0  0  0  0  0
   -3.1782    5.0920   11.6870 C   0  0  0  0  0  0  0  0  0  0  0  0
   -2.0429    5.0791   10.8114 C   0  0  0  0  0  0  0  0  0  0  0  0
   -2.0039    4.6442    9.1355 Cl  0  0  0  0  0  0  0  0  0  0  0  0
   -4.5998    4.8007   11.3543 N   0  0  0  0  0  0  0  0  0  0  0  0
   -5.1667    5.8072   11.0953 O   0  0  0  0  0  0  0  0  0  0  0  0
   -4.6751    3.6175   11.3889 O   0  0  0  0  0  0  0  0  0  0  0  0
   -4.5198    4.5700   14.7588 C   0  0  0  0  0  0  0  0  0  0  0  0
   -5.8553    4.6814   15.1147 C   0  0  0  0  0  0  0  0  0  0  0  0
   -6.4216    3.6929   15.8929 C   0  0  0  0  0  0  0  0  0  0  0  0
   -5.6816    2.6065   16.3320 C   0  0  0  0  0  0  0  0  0  0  0  0
   -4.3399    2.5089   15.9919 C   0  0  0  0  0  0  0  0  0  0  0  0
   -3.7204    3.5329   15.2287 C   0  0  0  0  0  0  0  0  0  0  0  0
   -6.4515    1.4293   17.3400 S   0  0  0  0  0  0  0  0  0  0  0  0
   -6.2886    1.8865   18.7347 O   0  0  0  0  0  0  0  0  0  0  0  0
   -7.8385    1.2371   16.8342 O   0  0  0  0  0  0  0  0  0  0  0  0
   -5.5396    0.0046   17.1952 N   0  0  0  0  0  0  0  0  0  0  0  0
   -4.5967    0.1670   17.5488 H   0  0  0  0  0  0  0  0  0  0  0  0
   -5.4921   -0.2705   16.2142 H   0  0  0  0  0  0  0  0  0  0  0  0
  3  4  2  0  0  0
  3  8  1  0  0  0
  4  5  1  0  0  0
  5  6  2  0  0  0
  6  7  1  0  0  0
  6  1  1  0  0  0
  7  8  2  0  0  0
  7 10  1  0  0  0
  8  9  1  0  0  0
  1 13  1  0  0  0
 13 14  2  0  0  0
 13 18  1  0  0  0
 14 15  1  0  0  0
 15 16  2  0  0  0
 16 17  1  0  0  0
 16 19  1  0  0  0
 17 18  2  0  0  0
 19 20  2  0  0  0
 19 21  2  0  0  0
 19 22  1  0  0  0
 10 11  1  0  0  0
 10 12  2  0  0  0
  1  2  1  0  0  0
 22 23  1  0  0  0
 22 24  1  0  0  0
M  CHG 1  10   1
M  CHG 1  11  -1
M  END
> <minimizedAffinity>
-7.14225

$$$$
3M40_J45_A_263


 24 25  0  0  0  0  0  0  0  0999 V2000
   -4.2115    2.7979   12.7708 N   0  0  0  0  0  0  0  0  0  0  0  0
   -5.0169    3.1369   12.3173 H   0  0  0  0  0  0  0  0  0  0  0  0
   -5.0431    0.3616   16.0454 N   0  0  0  0  0  0  0  0  0  0  0  0
   -4.3918   -0.1263   15.0254 C   0  0  0  0  0  0  0  0  0  0  0  0
   -4.1222    0.6694   13.9944 N   0  0  0  0  0  0  0  0  0  0  0  0
   -4.3763    2.0085   13.9661 C   0  0  0  0  0  0  0  0  0  0  0  0
   -5.1420    2.5323   15.0460 C   0  0  0  0  0  0  0  0  0  0  0  0
   -5.4005    1.6125   16.1151 C   0  0  0  0  0  0  0  0  0  0  0  0
   -6.1866    1.9373   17.6237 Cl  0  0  0  0  0  0  0  0  0  0  0  0
   -5.5424    3.9627   14.9462 N   0  0  0  0  0  0  0  0  0  0  0  0
   -4.6362    4.6570   15.2596 O   0  0  0  0  0  0  0  0  0  0  0  0
   -6.6424    3.9317   14.5036 O   0  0  0  0  0  0  0  0  0  0  0  0
   -2.9584    3.1048   12.2246 C   0  0  0  0  0  0  0  0  0  0  0  0
   -2.3851    4.3117   12.5953 C   0  0  0  0  0  0  0  0  0  0  0  0
   -1.1528    4.6509   12.0759 C   0  0  0  0  0  0  0  0  0  0  0  0
   -0.4897    3.8193   11.1874 C   0  0  0  0  0  0  0  0  0  0  0  0
   -1.0759    2.6221   10.8018 C   0  0  0  0  0  0  0  0  0  0  0  0
   -2.3620    2.2680   11.2869 C   0  0  0  0  0  0  0  0  0  0  0  0
    1.0332    4.3333   10.5464 S   0  0  0  0  0  0  0  0  0  0  0  0
    1.3899    3.3827    9.4740 O   0  0  0  0  0  0  0  0  0  0  0  0
    0.9089    5.7712   10.1808 O   0  0  0  0  0  0  0  0  0  0  0  0
    2.1743    4.1080   11.7830 N   0  0  0  0  0  0  0  0  0  0  0  0
    2.2371    3.1158   12.0110 H   0  0  0  0  0  0  0  0  0  0  0  0
    1.8861    4.6296   12.6108 H   0  0  0  0  0  0  0  0  0  0  0  0
  3  4  2  0  0  0
  3  8  1  0  0  0
  4  5  1  0  0  0
  5  6  2  0  0  0
  6  7  1  0  0  0
  6  1  1  0  0  0
  7  8  2  0  0  0
  7 10  1  0  0  0
  8  9  1  0  0  0
  1 13  1  0  0  0
 13 14  2  0  0  0
 13 18  1  0  0  0
 14 15  1  0  0  0
 15 16  2  0  0  0
 16 17  1  0  0  0
 16 19  1  0  0  0
 17 18  2  0  0  0
 19 20  2  0  0  0
 19 21  2  0  0  0
 19 22  1  0  0  0
 10 11  1  0  0  0
 10 12  2  0  0  0
  1  2  1  0  0  0
 22 23  1  0  0  0
 22 24  1  0  0  0
M  CHG 1  10   1
M  CHG 1  11  -1
M  END
> <minimizedAffinity>
-7.05585

$$$$
3M40_J45_A_263


 24 25  0  0  0  0  0  0  0  0999 V2000
   -3.6947    4.1683   11.9785 N   0  0  0  0  0  0  0  0  0  0  0  0
   -4.6561    4.1717   11.7666 H   0  0  0  0  0  0  0  0  0  0  0  0
   -1.5582    0.8822   10.5688 N   0  0  0  0  0  0  0  0  0  0  0  0
   -0.9983    2.0608   10.5805 C   0  0  0  0  0  0  0  0  0  0  0  0
   -1.6898    3.0965   11.0474 N   0  0  0  0  0  0  0  0  0  0  0  0
   -2.9183    3.0040   11.6312 C   0  0  0  0  0  0  0  0  0  0  0  0
   -3.5593    1.7347   11.5634 C   0  0  0  0  0  0  0  0  0  0  0  0
   -2.7542    0.6700   11.0401 C   0  0  0  0  0  0  0  0  0  0  0  0
   -3.1631   -1.0091   10.9276 Cl  0  0  0  0  0  0  0  0  0  0  0  0
   -4.9569    1.6666   12.0719 N   0  0  0  0  0  0  0  0  0  0  0  0
   -4.9534    1.6373   13.2554 O   0  0  0  0  0  0  0  0  0  0  0  0
   -5.6299    1.7404   11.0980 O   0  0  0  0  0  0  0  0  0  0  0  0
   -3.1445    5.2950   12.6034 C   0  0  0  0  0  0  0  0  0  0  0  0
   -2.8853    6.3982   11.8045 C   0  0  0  0  0  0  0  0  0  0  0  0
   -2.3405    7.5261   12.3830 C   0  0  0  0  0  0  0  0  0  0  0  0
   -2.0384    7.5703   13.7348 C   0  0  0  0  0  0  0  0  0  0  0  0
   -2.2792    6.4571   14.5275 C   0  0  0  0  0  0  0  0  0  0  0  0
   -2.7987    5.2688   13.9507 C   0  0  0  0  0  0  0  0  0  0  0  0
   -1.3178    9.0057   14.3788 S   0  0  0  0  0  0  0  0  0  0  0  0
   -1.9566   10.1494   13.6970 O   0  0  0  0  0  0  0  0  0  0  0  0
   -1.4239    8.9398   15.8624 O   0  0  0  0  0  0  0  0  0  0  0  0
    0.3036    8.9952   13.8757 N   0  0  0  0  0  0  0  0  0  0  0  0
    0.3440    9.0411   12.8575 H   0  0  0  0  0  0  0  0  0  0  0  0
    0.7533    8.1373   14.1954 H   0  0  0  0  0  0  0  0  0  0  0  0
  3  4  2  0  0  0
  3  8  1  0  0  0
  4  5  1  0  0  0
  5  6  2  0  0  0
  6  7  1  0  0  0
  6  1  1  0  0  0
  7  8  2  0  0  0
  7 10  1  0  0  0
  8  9  1  0  0  0
  1 13  1  0  0  0
 13 14  2  0  0  0
 13 18  1  0  0  0
 14 15  1  0  0  0
 15 16  2  0  0  0
 16 17  1  0  0  0
 16 19  1  0  0  0
 17 18  2  0  0  0
 19 20  2  0  0  0
 19 21  2  0  0  0
 19 22  1  0  0  0
 10 11  1  0  0  0
 10 12  2  0  0  0
  1  2  1  0  0  0
 22 23  1  0  0  0
 22 24  1  0  0  0
M  CHG 1  10   1
M  CHG 1  11  -1
M  END
> <minimizedAffinity>
-6.29776

$$$$
3M40_J45_A_263


 24 25  0  0  0  0  0  0  0  0999 V2000
   -4.8101    3.8037   13.3220 N   0  0  0  0  0  0  0  0  0  0  0  0
   -5.6903    4.2433   13.3578 H   0  0  0  0  0  0  0  0  0  0  0  0
   -4.1619   -0.2075   14.2390 N   0  0  0  0  0  0  0  0  0  0  0  0
   -4.2983    0.6621   15.2023 C   0  0  0  0  0  0  0  0  0  0  0  0
   -4.5190    1.9364   14.8917 N   0  0  0  0  0  0  0  0  0  0  0  0
   -4.7318    2.3964   13.6261 C   0  0  0  0  0  0  0  0  0  0  0  0
   -4.5213    1.4665   12.5689 C   0  0  0  0  0  0  0  0  0  0  0  0
   -4.2797    0.1150   12.9822 C   0  0  0  0  0  0  0  0  0  0  0  0
   -4.1042   -1.2840   11.9764 Cl  0  0  0  0  0  0  0  0  0  0  0  0
   -4.6132    2.0020   11.1828 N   0  0  0  0  0  0  0  0  0  0  0  0
   -3.5278    2.1267   10.7269 O   0  0  0  0  0  0  0  0  0  0  0  0
   -5.7776    2.0579   10.9640 O   0  0  0  0  0  0  0  0  0  0  0  0
   -3.6920    4.5745   12.9781 C   0  0  0  0  0  0  0  0  0  0  0  0
   -2.5003    4.2842   13.6248 C   0  0  0  0  0  0  0  0  0  0  0  0
   -1.3774    5.0237   13.3153 C   0  0  0  0  0  0  0  0  0  0  0  0
   -1.4229    6.0514   12.3866 C   0  0  0  0  0  0  0  0  0  0  0  0
   -2.6219    6.3535   11.7569 C   0  0  0  0  0  0  0  0  0  0  0  0
   -3.8022    5.6376   12.0876 C   0  0  0  0  0  0  0  0  0  0  0  0
    0.0174    6.9614   12.0829 S   0  0  0  0  0  0  0  0  0  0  0  0
   -0.0052    7.3361   10.6547 O   0  0  0  0  0  0  0  0  0  0  0  0
    0.0779    8.0616   13.0842 O   0  0  0  0  0  0  0  0  0  0  0  0
    1.3147    5.8829   12.2729 N   0  0  0  0  0  0  0  0  0  0  0  0
    1.2461    5.1423   11.5749 H   0  0  0  0  0  0  0  0  0  0  0  0
    1.2829    5.4739   13.2068 H   0  0  0  0  0  0  0  0  0  0  0  0
  3  4  2  0  0  0
  3  8  1  0  0  0
  4  5  1  0  0  0
  5  6  2  0  0  0
  6  7  1  0  0  0
  6  1  1  0  0  0
  7  8  2  0  0  0
  7 10  1  0  0  0
  8  9  1  0  0  0
  1 13  1  0  0  0
 13 14  2  0  0  0
 13 18  1  0  0  0
 14 15  1  0  0  0
 15 16  2  0  0  0
 16 17  1  0  0  0
 16 19  1  0  0  0
 17 18  2  0  0  0
 19 20  2  0  0  0
 19 21  2  0  0  0
 19 22  1  0  0  0
 10 11  1  0  0  0
 10 12  2  0  0  0
  1  2  1  0  0  0
 22 23  1  0  0  0
 22 24  1  0  0  0
M  CHG 1  10   1
M  CHG 1  11  -1
M  END
> <minimizedAffinity>
-6.12078

$$$$
3M40_J45_A_263


 24 25  0  0  0  0  0  0  0  0999 V2000
   -3.3673    4.2274   12.5255 N   0  0  0  0  0  0  0  0  0  0  0  0
   -3.2628    4.4190   13.4855 H   0  0  0  0  0  0  0  0  0  0  0  0
   -1.4461    1.1190   10.5262 N   0  0  0  0  0  0  0  0  0  0  0  0
   -0.9250    2.3153   10.5142 C   0  0  0  0  0  0  0  0  0  0  0  0
   -1.5441    3.2929   11.1697 N   0  0  0  0  0  0  0  0  0  0  0  0
   -2.6391    3.1175   11.9627 C   0  0  0  0  0  0  0  0  0  0  0  0
   -3.2479    1.8311   11.9286 C   0  0  0  0  0  0  0  0  0  0  0  0
   -2.5269    0.8324   11.1948 C   0  0  0  0  0  0  0  0  0  0  0  0
   -2.9054   -0.8511   11.0462 Cl  0  0  0  0  0  0  0  0  0  0  0  0
   -4.5237    1.6780   12.6807 N   0  0  0  0  0  0  0  0  0  0  0  0
   -4.2984    1.5749   13.8383 O   0  0  0  0  0  0  0  0  0  0  0  0
   -5.3684    1.7870   11.8553 O   0  0  0  0  0  0  0  0  0  0  0  0
   -4.2165    5.0460   11.7697 C   0  0  0  0  0  0  0  0  0  0  0  0
   -4.2882    4.7968   10.4075 C   0  0  0  0  0  0  0  0  0  0  0  0
   -5.1115    5.5839    9.6290 C   0  0  0  0  0  0  0  0  0  0  0  0
   -5.8517    6.6189   10.1782 C   0  0  0  0  0  0  0  0  0  0  0  0
   -5.7613    6.8795   11.5381 C   0  0  0  0  0  0  0  0  0  0  0  0
   -4.8896    6.1134   12.3555 C   0  0  0  0  0  0  0  0  0  0  0  0
   -6.8289    7.5890    9.1301 S   0  0  0  0  0  0  0  0  0  0  0  0
   -7.9659    8.0786    9.9353 O   0  0  0  0  0  0  0  0  0  0  0  0
   -5.9438    8.6048    8.4967 O   0  0  0  0  0  0  0  0  0  0  0  0
   -7.4834    6.5338    7.9723 N   0  0  0  0  0  0  0  0  0  0  0  0
   -8.0836    5.8512    8.4352 H   0  0  0  0  0  0  0  0  0  0  0  0
   -6.7276    6.0490    7.4883 H   0  0  0  0  0  0  0  0  0  0  0  0
  3  4  2  0  0  0
  3  8  1  0  0  0
  4  5  1  0  0  0
  5  6  2  0  0  0
  6  7  1  0  0  0
  6  1  1  0  0  0
  7  8  2  0  0  0
  7 10  1  0  0  0
  8  9  1  0  0  0
  1 13  1  0  0  0
 13 14  2  0  0  0
 13 18  1  0  0  0
 14 15  1  0  0  0
 15 16  2  0  0  0
 16 17  1  0  0  0
 16 19  1  0  0  0
 17 18  2  0  0  0
 19 20  2  0  0  0
 19 21  2  0  0  0
 19 22  1  0  0  0
 10 11  1  0  0  0
 10 12  2  0  0  0
  1  2  1  0  0  0
 22 23  1  0  0  0
 22 24  1  0  0  0
M  CHG 1  10   1
M  CHG 1  11  -1
M  END
> <minimizedAffinity>
-6.10236

$$$$
3M40_J45_A_263


 24 25  0  0  0  0  0  0  0  0999 V2000
   -5.2903    3.9289   13.1798 N   0  0  0  0  0  0  0  0  0  0  0  0
   -6.1741    4.1344   12.7977 H   0  0  0  0  0  0  0  0  0  0  0  0
   -4.1144    0.1470   14.4699 N   0  0  0  0  0  0  0  0  0  0  0  0
   -4.4208    1.0631   15.3471 C   0  0  0  0  0  0  0  0  0  0  0  0
   -4.8081    2.2607   14.9176 N   0  0  0  0  0  0  0  0  0  0  0  0
   -5.0243    2.5786   13.6096 C   0  0  0  0  0  0  0  0  0  0  0  0
   -4.6313    1.6063   12.6468 C   0  0  0  0  0  0  0  0  0  0  0  0
   -4.2172    0.3440   13.1861 C   0  0  0  0  0  0  0  0  0  0  0  0
   -3.7936   -1.0915   12.3147 Cl  0  0  0  0  0  0  0  0  0  0  0  0
   -4.7331    2.0065   11.2164 N   0  0  0  0  0  0  0  0  0  0  0  0
   -5.8679    2.0095   10.8792 O   0  0  0  0  0  0  0  0  0  0  0  0
   -3.6195    2.2675   10.9024 O   0  0  0  0  0  0  0  0  0  0  0  0
   -4.3497    4.9622   13.2805 C   0  0  0  0  0  0  0  0  0  0  0  0
   -4.1291    5.4963   14.5410 C   0  0  0  0  0  0  0  0  0  0  0  0
   -3.2122    6.5178   14.6802 C   0  0  0  0  0  0  0  0  0  0  0  0
   -2.5234    7.0237   13.5892 C   0  0  0  0  0  0  0  0  0  0  0  0
   -2.7621    6.5016   12.3259 C   0  0  0  0  0  0  0  0  0  0  0  0
   -3.7312    5.4800   12.1470 C   0  0  0  0  0  0  0  0  0  0  0  0
   -1.4206    8.3339   13.8374 S   0  0  0  0  0  0  0  0  0  0  0  0
   -0.0828    7.8492   13.4422 O   0  0  0  0  0  0  0  0  0  0  0  0
   -1.9620    9.5233   13.1242 O   0  0  0  0  0  0  0  0  0  0  0  0
   -1.3573    8.5961   15.5136 N   0  0  0  0  0  0  0  0  0  0  0  0
   -0.9832    7.7662   15.9736 H   0  0  0  0  0  0  0  0  0  0  0  0
   -2.2965    8.7848   15.8639 H   0  0  0  0  0  0  0  0  0  0  0  0
  3  4  2  0  0  0
  3  8  1  0  0  0
  4  5  1  0  0  0
  5  6  2  0  0  0
  6  7  1  0  0  0
  6  1  1  0  0  0
  7  8  2  0  0  0
  7 10  1  0  0  0
  8  9  1  0  0  0
  1 13  1  0  0  0
 13 14  2  0  0  0
 13 18  1  0  0  0
 14 15  1  0  0  0
 15 16  2  0  0  0
 16 17  1  0  0  0
 16 19  1  0  0  0
 17 18  2  0  0  0
 19 20  2  0  0  0
 19 21  2  0  0  0
 19 22  1  0  0  0
 10 11  1  0  0  0
 10 12  2  0  0  0
  1  2  1  0  0  0
 22 23  1  0  0  0
 22 24  1  0  0  0
M  CHG 1  10   1
M  CHG 1  11  -1
M  END
> <minimizedAffinity>
-6.04129

$$$$
3M40_J45_A_263


 24 25  0  0  0  0  0  0  0  0999 V2000
   -4.5298    5.7998   12.8211 N   0  0  0  0  0  0  0  0  0  0  0  0
   -3.7071    6.2460   13.1267 H   0  0  0  0  0  0  0  0  0  0  0  0
   -5.9150    2.9430   15.5174 N   0  0  0  0  0  0  0  0  0  0  0  0
   -6.4726    4.1222   15.4815 C   0  0  0  0  0  0  0  0  0  0  0  0
   -6.0274    5.0175   14.6046 N   0  0  0  0  0  0  0  0  0  0  0  0
   -5.0941    4.7596   13.6448 C   0  0  0  0  0  0  0  0  0  0  0  0
   -4.4382    3.4983   13.7199 C   0  0  0  0  0  0  0  0  0  0  0  0
   -4.9679    2.5905   14.6951 C   0  0  0  0  0  0  0  0  0  0  0  0
   -4.5005    0.9465   14.9746 Cl  0  0  0  0  0  0  0  0  0  0  0  0
   -3.3208    3.2708   12.7627 N   0  0  0  0  0  0  0  0  0  0  0  0
   -3.7340    2.7668   11.7745 O   0  0  0  0  0  0  0  0  0  0  0  0
   -2.3746    3.7503   13.2934 O   0  0  0  0  0  0  0  0  0  0  0  0
   -5.0977    6.2051   11.6063 C   0  0  0  0  0  0  0  0  0  0  0  0
   -6.2271    7.0068   11.6721 C   0  0  0  0  0  0  0  0  0  0  0  0
   -6.8170    7.4239   10.4967 C   0  0  0  0  0  0  0  0  0  0  0  0
   -6.3122    7.0478    9.2621 C   0  0  0  0  0  0  0  0  0  0  0  0
   -5.1944    6.2279    9.1997 C   0  0  0  0  0  0  0  0  0  0  0  0
   -4.5929    5.7488   10.3929 C   0  0  0  0  0  0  0  0  0  0  0  0
   -7.1323    7.5763    7.8328 S   0  0  0  0  0  0  0  0  0  0  0  0
   -8.5744    7.6003    8.1500 O   0  0  0  0  0  0  0  0  0  0  0  0
   -6.5010    8.8509    7.3932 O   0  0  0  0  0  0  0  0  0  0  0  0
   -6.9181    6.3515    6.6769 N   0  0  0  0  0  0  0  0  0  0  0  0
   -7.3601    5.4929    7.0054 H   0  0  0  0  0  0  0  0  0  0  0  0
   -5.9213    6.1881    6.5353 H   0  0  0  0  0  0  0  0  0  0  0  0
  3  4  2  0  0  0
  3  8  1  0  0  0
  4  5  1  0  0  0
  5  6  2  0  0  0
  6  7  1  0  0  0
  6  1  1  0  0  0
  7  8  2  0  0  0
  7 10  1  0  0  0
  8  9  1  0  0  0
  1 13  1  0  0  0
 13 14  2  0  0  0
 13 18  1  0  0  0
 14 15  1  0  0  0
 15 16  2  0  0  0
 16 17  1  0  0  0
 16 19  1  0  0  0
 17 18  2  0  0  0
 19 20  2  0  0  0
 19 21  2  0  0  0
 19 22  1  0  0  0
 10 11  1  0  0  0
 10 12  2  0  0  0
  1  2  1  0  0  0
 22 23  1  0  0  0
 22 24  1  0  0  0
M  CHG 1  10   1
M  CHG 1  11  -1
M  END
> <minimizedAffinity>
-5.98349

$$$$
