3OVN_MPV_A_213


 14 15  0  0  0  0  0  0  0  0999 V2000
   21.7183    7.7373   10.8040 C   0  0  0  0  0  0  0  0  0  0  0  0
   20.5015    7.9186   10.1747 C   0  0  0  0  0  0  0  0  0  0  0  0
   20.6014    8.4370    8.9559 N   0  0  0  0  0  0  0  0  0  0  0  0
   21.9686    8.6673    8.7189 N   0  0  0  0  0  0  0  0  0  0  0  0
   22.5745    8.2137    9.8357 C   0  0  0  0  0  0  0  0  0  0  0  0
   19.6322    8.8042    7.8788 C   0  0  0  0  0  0  0  0  0  0  0  0
   19.3115    7.5745   10.7138 N   0  0  0  0  0  0  0  0  0  0  0  0
   19.2738    7.1926   11.6204 H   0  0  0  0  0  0  0  0  0  0  0  0
   18.4820    7.7057   10.2001 H   0  0  0  0  0  0  0  0  0  0  0  0
   24.0491    8.3013   10.0146 C   0  0  0  0  0  0  0  0  0  0  0  0
   25.0126    9.4286    9.1571 S   0  0  0  0  0  0  0  0  0  0  0  0
   26.4308    8.8711    9.9492 C   0  0  0  0  0  0  0  0  0  0  0  0
   26.1364    7.8693   10.8626 C   0  0  0  0  0  0  0  0  0  0  0  0
   24.7763    7.5359   10.9045 C   0  0  0  0  0  0  0  0  0  0  0  0
  1  2  2  0  0  0
  1  5  1  0  0  0
  2  3  1  0  0  0
  2  7  1  0  0  0
  3  4  1  0  0  0
  3  6  1  0  0  0
  4  5  2  0  0  0
  5 10  1  0  0  0
 10 11  1  0  0  0
 10 14  2  0  0  0
 11 12  1  0  0  0
 12 13  2  0  0  0
 13 14  1  0  0  0
  7  8  1  0  0  0
  7  9  1  0  0  0
M  END
> <minimizedAffinity>
-5.96263

$$$$
3OVN_MPV_A_213


 14 15  0  0  0  0  0  0  0  0999 V2000
   21.6101    8.7868    9.0914 C   0  0  0  0  0  0  0  0  0  0  0  0
   20.3386    8.3899    9.4596 C   0  0  0  0  0  0  0  0  0  0  0  0
   20.3049    7.6706   10.5757 N   0  0  0  0  0  0  0  0  0  0  0  0
   21.6352    7.5208   11.0077 N   0  0  0  0  0  0  0  0  0  0  0  0
   22.3526    8.2195   10.1036 C   0  0  0  0  0  0  0  0  0  0  0  0
   19.2274    7.0322   11.3918 C   0  0  0  0  0  0  0  0  0  0  0  0
   19.2166    8.7211    8.7841 N   0  0  0  0  0  0  0  0  0  0  0  0
   19.2780    9.2557    7.9597 H   0  0  0  0  0  0  0  0  0  0  0  0
   18.3374    8.4278    9.1162 H   0  0  0  0  0  0  0  0  0  0  0  0
   23.8370    8.2939   10.1738 C   0  0  0  0  0  0  0  0  0  0  0  0
   24.7429    9.4328    9.2702 S   0  0  0  0  0  0  0  0  0  0  0  0
   26.2117    8.8498    9.9427 C   0  0  0  0  0  0  0  0  0  0  0  0
   25.9781    7.8308   10.8548 C   0  0  0  0  0  0  0  0  0  0  0  0
   24.6223    7.5053   10.9911 C   0  0  0  0  0  0  0  0  0  0  0  0
  1  2  2  0  0  0
  1  5  1  0  0  0
  2  3  1  0  0  0
  2  7  1  0  0  0
  3  4  1  0  0  0
  3  6  1  0  0  0
  4  5  2  0  0  0
  5 10  1  0  0  0
 10 11  1  0  0  0
 10 14  2  0  0  0
 11 12  1  0  0  0
 12 13  2  0  0  0
 13 14  1  0  0  0
  7  8  1  0  0  0
  7  9  1  0  0  0
M  END
> <minimizedAffinity>
-5.83876

$$$$
3OVN_MPV_A_213


 14 15  0  0  0  0  0  0  0  0999 V2000
   24.9106    9.0240    9.7247 C   0  0  0  0  0  0  0  0  0  0  0  0
   25.7092   10.0850    9.3423 C   0  0  0  0  0  0  0  0  0  0  0  0
   25.0296   11.1888    9.0526 N   0  0  0  0  0  0  0  0  0  0  0  0
   23.6654   10.8833    9.2075 N   0  0  0  0  0  0  0  0  0  0  0  0
   23.6635    9.6007    9.6258 C   0  0  0  0  0  0  0  0  0  0  0  0
   25.3928   12.5730    8.6207 C   0  0  0  0  0  0  0  0  0  0  0  0
   27.0585   10.0388    9.2954 N   0  0  0  0  0  0  0  0  0  0  0  0
   27.5304    9.2035    9.5165 H   0  0  0  0  0  0  0  0  0  0  0  0
   27.5700   10.8403    9.0402 H   0  0  0  0  0  0  0  0  0  0  0  0
   22.3959    8.8647    9.8820 C   0  0  0  0  0  0  0  0  0  0  0  0
   21.0187    9.0309    8.8770 S   0  0  0  0  0  0  0  0  0  0  0  0
   20.1434    7.9029    9.8315 C   0  0  0  0  0  0  0  0  0  0  0  0
   20.9232    7.4071   10.8663 C   0  0  0  0  0  0  0  0  0  0  0  0
   22.2125    7.9540   10.9035 C   0  0  0  0  0  0  0  0  0  0  0  0
  1  2  2  0  0  0
  1  5  1  0  0  0
  2  3  1  0  0  0
  2  7  1  0  0  0
  3  4  1  0  0  0
  3  6  1  0  0  0
  4  5  2  0  0  0
  5 10  1  0  0  0
 10 11  1  0  0  0
 10 14  2  0  0  0
 11 12  1  0  0  0
 12 13  2  0  0  0
 13 14  1  0  0  0
  7  8  1  0  0  0
  7  9  1  0  0  0
M  END
> <minimizedAffinity>
-5.43918

$$$$
3OVN_MPV_A_213


 14 15  0  0  0  0  0  0  0  0999 V2000
   24.7939    7.9291   10.9346 C   0  0  0  0  0  0  0  0  0  0  0  0
   25.8728    8.6378   10.4414 C   0  0  0  0  0  0  0  0  0  0  0  0
   25.5375    9.5933    9.5819 N   0  0  0  0  0  0  0  0  0  0  0  0
   24.1401    9.5379    9.4315 N   0  0  0  0  0  0  0  0  0  0  0  0
   23.7602    8.5524   10.2709 C   0  0  0  0  0  0  0  0  0  0  0  0
   26.2859   10.6235    8.7990 C   0  0  0  0  0  0  0  0  0  0  0  0
   27.1539    8.4218   10.8118 N   0  0  0  0  0  0  0  0  0  0  0  0
   27.3671    7.7045   11.4515 H   0  0  0  0  0  0  0  0  0  0  0  0
   27.8744    8.9817   10.4420 H   0  0  0  0  0  0  0  0  0  0  0  0
   22.3363    8.1389   10.3961 C   0  0  0  0  0  0  0  0  0  0  0  0
   21.1393    8.6155    9.2673 S   0  0  0  0  0  0  0  0  0  0  0  0
   19.9358    7.7354   10.1198 C   0  0  0  0  0  0  0  0  0  0  0  0
   20.4745    7.0798   11.2174 C   0  0  0  0  0  0  0  0  0  0  0  0
   21.8469    7.3073   11.3838 C   0  0  0  0  0  0  0  0  0  0  0  0
  1  2  2  0  0  0
  1  5  1  0  0  0
  2  3  1  0  0  0
  2  7  1  0  0  0
  3  4  1  0  0  0
  3  6  1  0  0  0
  4  5  2  0  0  0
  5 10  1  0  0  0
 10 11  1  0  0  0
 10 14  2  0  0  0
 11 12  1  0  0  0
 12 13  2  0  0  0
 13 14  1  0  0  0
  7  8  1  0  0  0
  7  9  1  0  0  0
M  END
> <minimizedAffinity>
-5.43679

$$$$
3OVN_MPV_A_213


 14 15  0  0  0  0  0  0  0  0999 V2000
   22.0270    8.1361   10.2032 C   0  0  0  0  0  0  0  0  0  0  0  0
   20.6916    8.1748    9.8500 C   0  0  0  0  0  0  0  0  0  0  0  0
   20.4317    8.9823    8.8279 N   0  0  0  0  0  0  0  0  0  0  0  0
   21.6506    9.5767    8.4544 N   0  0  0  0  0  0  0  0  0  0  0  0
   22.5541    9.0202    9.2877 C   0  0  0  0  0  0  0  0  0  0  0  0
   19.2040    9.3627    8.0647 C   0  0  0  0  0  0  0  0  0  0  0  0
   19.7282    7.4414   10.4493 N   0  0  0  0  0  0  0  0  0  0  0  0
   19.9561    6.8528   11.2049 H   0  0  0  0  0  0  0  0  0  0  0  0
   18.7984    7.4955   10.1304 H   0  0  0  0  0  0  0  0  0  0  0  0
   23.9911    9.4044    9.2505 C   0  0  0  0  0  0  0  0  0  0  0  0
   25.2495    8.2826    9.5543 S   0  0  0  0  0  0  0  0  0  0  0  0
   26.4389    9.4931    9.2908 C   0  0  0  0  0  0  0  0  0  0  0  0
   25.8566   10.7054    8.9505 C   0  0  0  0  0  0  0  0  0  0  0  0
   24.4563   10.6637    8.9274 C   0  0  0  0  0  0  0  0  0  0  0  0
  1  2  2  0  0  0
  1  5  1  0  0  0
  2  3  1  0  0  0
  2  7  1  0  0  0
  3  4  1  0  0  0
  3  6  1  0  0  0
  4  5  2  0  0  0
  5 10  1  0  0  0
 10 11  1  0  0  0
 10 14  2  0  0  0
 11 12  1  0  0  0
 12 13  2  0  0  0
 13 14  1  0  0  0
  7  8  1  0  0  0
  7  9  1  0  0  0
M  END
> <minimizedAffinity>
-5.31002

$$$$
3OVN_MPV_A_213


 14 15  0  0  0  0  0  0  0  0999 V2000
   24.0102    9.8540    9.1937 C   0  0  0  0  0  0  0  0  0  0  0  0
   25.0836    9.1907    9.7572 C   0  0  0  0  0  0  0  0  0  0  0  0
   24.7622    8.0277   10.3124 N   0  0  0  0  0  0  0  0  0  0  0  0
   23.3724    7.8716   10.1624 N   0  0  0  0  0  0  0  0  0  0  0  0
   22.9926    8.9695    9.4765 C   0  0  0  0  0  0  0  0  0  0  0  0
   25.5167    6.9458   11.0157 C   0  0  0  0  0  0  0  0  0  0  0  0
   26.3554    9.6452    9.7263 N   0  0  0  0  0  0  0  0  0  0  0  0
   26.5583   10.5122    9.3064 H   0  0  0  0  0  0  0  0  0  0  0  0
   27.0794    9.1093   10.1238 H   0  0  0  0  0  0  0  0  0  0  0  0
   21.5674    9.2194    9.1297 C   0  0  0  0  0  0  0  0  0  0  0  0
   20.3200    8.1119    9.5191 S   0  0  0  0  0  0  0  0  0  0  0  0
   19.1373    9.1480    8.8281 C   0  0  0  0  0  0  0  0  0  0  0  0
   19.7105   10.3168    8.3485 C   0  0  0  0  0  0  0  0  0  0  0  0
   21.1007   10.3645    8.5152 C   0  0  0  0  0  0  0  0  0  0  0  0
  1  2  2  0  0  0
  1  5  1  0  0  0
  2  3  1  0  0  0
  2  7  1  0  0  0
  3  4  1  0  0  0
  3  6  1  0  0  0
  4  5  2  0  0  0
  5 10  1  0  0  0
 10 11  1  0  0  0
 10 14  2  0  0  0
 11 12  1  0  0  0
 12 13  2  0  0  0
 13 14  1  0  0  0
  7  8  1  0  0  0
  7  9  1  0  0  0
M  END
> <minimizedAffinity>
-5.18339

$$$$
3OVN_MPV_A_213


 14 15  0  0  0  0  0  0  0  0999 V2000
   23.1713    8.0335   10.6065 C   0  0  0  0  0  0  0  0  0  0  0  0
   24.5040    7.7820   10.3417 C   0  0  0  0  0  0  0  0  0  0  0  0
   24.8890    8.1605    9.1282 N   0  0  0  0  0  0  0  0  0  0  0  0
   23.7540    8.6822    8.4817 N   0  0  0  0  0  0  0  0  0  0  0  0
   22.7811    8.5995    9.4128 C   0  0  0  0  0  0  0  0  0  0  0  0
   26.1773    8.1360    8.3704 C   0  0  0  0  0  0  0  0  0  0  0  0
   25.3630    7.2371   11.2307 N   0  0  0  0  0  0  0  0  0  0  0  0
   25.0436    6.9676   12.1222 H   0  0  0  0  0  0  0  0  0  0  0  0
   26.3083    7.1094   10.9872 H   0  0  0  0  0  0  0  0  0  0  0  0
   21.3848    9.0244    9.1231 C   0  0  0  0  0  0  0  0  0  0  0  0
   20.0258    8.0937    9.5932 S   0  0  0  0  0  0  0  0  0  0  0  0
   18.9541    9.2607    8.9303 C   0  0  0  0  0  0  0  0  0  0  0  0
   19.6488   10.3372    8.3982 C   0  0  0  0  0  0  0  0  0  0  0  0
   21.0400   10.2087    8.5025 C   0  0  0  0  0  0  0  0  0  0  0  0
  1  2  2  0  0  0
  1  5  1  0  0  0
  2  3  1  0  0  0
  2  7  1  0  0  0
  3  4  1  0  0  0
  3  6  1  0  0  0
  4  5  2  0  0  0
  5 10  1  0  0  0
 10 11  1  0  0  0
 10 14  2  0  0  0
 11 12  1  0  0  0
 12 13  2  0  0  0
 13 14  1  0  0  0
  7  8  1  0  0  0
  7  9  1  0  0  0
M  END
> <minimizedAffinity>
-5.11125

$$$$
3OVN_MPV_A_213


 14 15  0  0  0  0  0  0  0  0999 V2000
   23.7439    9.9702    9.4250 C   0  0  0  0  0  0  0  0  0  0  0  0
   22.3940   10.1731    9.2100 C   0  0  0  0  0  0  0  0  0  0  0  0
   21.6663    9.0653    9.2956 N   0  0  0  0  0  0  0  0  0  0  0  0
   22.5572    8.0081    9.5547 N   0  0  0  0  0  0  0  0  0  0  0  0
   23.7615    8.6099    9.6414 C   0  0  0  0  0  0  0  0  0  0  0  0
   20.2122    8.7415    9.1717 C   0  0  0  0  0  0  0  0  0  0  0  0
   21.8385   11.3810    8.9702 N   0  0  0  0  0  0  0  0  0  0  0  0
   22.4079   12.1820    8.9130 H   0  0  0  0  0  0  0  0  0  0  0  0
   20.8643   11.4601    8.8526 H   0  0  0  0  0  0  0  0  0  0  0  0
   25.0077    7.8323    9.8788 C   0  0  0  0  0  0  0  0  0  0  0  0
   26.3537    7.9101    8.8222 S   0  0  0  0  0  0  0  0  0  0  0  0
   27.2372    6.8193    9.8117 C   0  0  0  0  0  0  0  0  0  0  0  0
   26.5049    6.4481   10.9300 C   0  0  0  0  0  0  0  0  0  0  0  0
   25.2274    7.0216   10.9747 C   0  0  0  0  0  0  0  0  0  0  0  0
  1  2  2  0  0  0
  1  5  1  0  0  0
  2  3  1  0  0  0
  2  7  1  0  0  0
  3  4  1  0  0  0
  3  6  1  0  0  0
  4  5  2  0  0  0
  5 10  1  0  0  0
 10 11  1  0  0  0
 10 14  2  0  0  0
 11 12  1  0  0  0
 12 13  2  0  0  0
 13 14  1  0  0  0
  7  8  1  0  0  0
  7  9  1  0  0  0
M  END
> <minimizedAffinity>
-5.04634

$$$$
3OVN_MPV_A_213


 14 15  0  0  0  0  0  0  0  0999 V2000
   23.5776    7.9651   11.0673 C   0  0  0  0  0  0  0  0  0  0  0  0
   22.2296    7.8302   10.7947 C   0  0  0  0  0  0  0  0  0  0  0  0
   21.8846    8.2480    9.5821 N   0  0  0  0  0  0  0  0  0  0  0  0
   23.0519    8.7385    8.9696 N   0  0  0  0  0  0  0  0  0  0  0  0
   24.0172    8.5231    9.8871 C   0  0  0  0  0  0  0  0  0  0  0  0
   20.6086    8.3064    8.8055 C   0  0  0  0  0  0  0  0  0  0  0  0
   21.3338    7.2928   11.6514 N   0  0  0  0  0  0  0  0  0  0  0  0
   21.6240    6.9933   12.5433 H   0  0  0  0  0  0  0  0  0  0  0  0
   20.3908    7.2007   11.3840 H   0  0  0  0  0  0  0  0  0  0  0  0
   25.4273    8.9341    9.6484 C   0  0  0  0  0  0  0  0  0  0  0  0
   25.8374   10.2961    8.6940 S   0  0  0  0  0  0  0  0  0  0  0  0
   27.5109   10.0337    8.9771 C   0  0  0  0  0  0  0  0  0  0  0  0
   27.7156    8.9428    9.8095 C   0  0  0  0  0  0  0  0  0  0  0  0
   26.5287    8.3069   10.1962 C   0  0  0  0  0  0  0  0  0  0  0  0
  1  2  2  0  0  0
  1  5  1  0  0  0
  2  3  1  0  0  0
  2  7  1  0  0  0
  3  4  1  0  0  0
  3  6  1  0  0  0
  4  5  2  0  0  0
  5 10  1  0  0  0
 10 11  1  0  0  0
 10 14  2  0  0  0
 11 12  1  0  0  0
 12 13  2  0  0  0
 13 14  1  0  0  0
  7  8  1  0  0  0
  7  9  1  0  0  0
M  END
> <minimizedAffinity>
-4.87421

$$$$
3OVN_MPV_A_213


 14 15  0  0  0  0  0  0  0  0999 V2000
   23.4159    8.0974   10.5458 C   0  0  0  0  0  0  0  0  0  0  0  0
   22.0569    7.8805   10.6712 C   0  0  0  0  0  0  0  0  0  0  0  0
   21.3525    8.2764    9.6171 N   0  0  0  0  0  0  0  0  0  0  0  0
   22.2623    8.8373    8.7027 N   0  0  0  0  0  0  0  0  0  0  0  0
   23.4624    8.6812    9.2990 C   0  0  0  0  0  0  0  0  0  0  0  0
   19.9054    8.2569    9.2426 C   0  0  0  0  0  0  0  0  0  0  0  0
   21.4798    7.2895   11.7402 N   0  0  0  0  0  0  0  0  0  0  0  0
   22.0322    7.0083   12.5050 H   0  0  0  0  0  0  0  0  0  0  0  0
   20.5068    7.1400   11.7544 H   0  0  0  0  0  0  0  0  0  0  0  0
   24.7168    9.1775    8.6710 C   0  0  0  0  0  0  0  0  0  0  0  0
   25.2350    8.6606    7.1223 S   0  0  0  0  0  0  0  0  0  0  0  0
   26.6168    9.6770    7.2075 C   0  0  0  0  0  0  0  0  0  0  0  0
   26.6355   10.4030    8.3896 C   0  0  0  0  0  0  0  0  0  0  0  0
   25.5532   10.1214    9.2334 C   0  0  0  0  0  0  0  0  0  0  0  0
  1  2  2  0  0  0
  1  5  1  0  0  0
  2  3  1  0  0  0
  2  7  1  0  0  0
  3  4  1  0  0  0
  3  6  1  0  0  0
  4  5  2  0  0  0
  5 10  1  0  0  0
 10 11  1  0  0  0
 10 14  2  0  0  0
 11 12  1  0  0  0
 12 13  2  0  0  0
 13 14  1  0  0  0
  7  8  1  0  0  0
  7  9  1  0  0  0
M  END
> <minimizedAffinity>
-4.76777

$$$$
