2MAS_PIR_A_400


 22 23  0  0  0  0  0  0  0  0999 V2000
  105.4847   35.0932   82.6337 C   0  0  0  0  0  0  0  0  0  0  0  0
  105.2211   35.9887   83.8310 C   0  0  0  0  0  0  0  0  0  0  0  0
  105.4830   35.3003   85.0440 O   0  0  0  0  0  0  0  0  0  0  0  0
  103.7286   36.3533   83.7496 C   0  0  0  0  0  0  0  0  0  0  0  0
  102.9469   35.5317   84.6006 O   0  0  0  0  0  0  0  0  0  0  0  0
  103.3527   36.1396   82.3046 C   0  0  0  0  0  0  0  0  0  0  0  0
  104.1980   35.0109   81.9555 N   0  0  0  0  0  0  0  0  0  0  0  0
  104.9267   34.5072   85.0923 H   0  0  0  0  0  0  0  0  0  0  0  0
  103.0700   34.6016   84.3543 H   0  0  0  0  0  0  0  0  0  0  0  0
  103.7308   34.1467   82.2301 H   0  0  0  0  0  0  0  0  0  0  0  0
  107.3269   36.7610   82.0605 C   0  0  0  0  0  0  0  0  0  0  0  0
  106.6547   35.5446   81.7770 C   0  0  0  0  0  0  0  0  0  0  0  0
  107.0694   34.7643   80.6733 C   0  0  0  0  0  0  0  0  0  0  0  0
  107.9099   35.3221   79.7009 C   0  0  0  0  0  0  0  0  0  0  0  0
  108.5343   36.5701   79.9606 C   0  0  0  0  0  0  0  0  0  0  0  0
  109.3531   37.1098   79.0517 N   0  0  0  0  0  0  0  0  0  0  0  0
  108.3158   37.2382   81.1865 C   0  0  0  0  0  0  0  0  0  0  0  0
  109.5099   36.6498   78.1955 H   0  0  0  0  0  0  0  0  0  0  0  0
  109.7993   37.9673   79.2386 H   0  0  0  0  0  0  0  0  0  0  0  0
  103.6147   37.3157   81.3519 C   0  0  0  0  0  0  0  0  0  0  0  0
  103.7085   36.8550   80.0051 O   0  0  0  0  0  0  0  0  0  0  0  0
  104.4427   36.2256   79.9291 H   0  0  0  0  0  0  0  0  0  0  0  0
 11 12  2  0  0  0
 11 17  1  0  0  0
 12 13  1  0  0  0
 12  1  1  0  0  0
 13 14  2  0  0  0
 14 15  1  0  0  0
 15 16  1  0  0  0
 15 17  2  0  0  0
  1  2  1  0  0  0
  1  7  1  0  0  0
  2  3  1  0  0  0
  2  4  1  0  0  0
  4  5  1  0  0  0
  4  6  1  0  0  0
  6  7  1  0  0  0
  6 20  1  0  0  0
 20 21  1  0  0  0
 16 18  1  0  0  0
 16 19  1  0  0  0
  3  8  1  0  0  0
  5  9  1  0  0  0
  7 10  1  0  0  0
 21 22  1  0  0  0
M  END
> <minimizedAffinity>
-10.31669

$$$$
2MAS_PIR_A_400


 22 23  0  0  0  0  0  0  0  0999 V2000
  105.3953   34.7372   82.3469 C   0  0  0  0  0  0  0  0  0  0  0  0
  105.7729   35.8232   83.3385 C   0  0  0  0  0  0  0  0  0  0  0  0
  106.0453   35.2683   84.6158 O   0  0  0  0  0  0  0  0  0  0  0  0
  104.5455   36.7471   83.4217 C   0  0  0  0  0  0  0  0  0  0  0  0
  103.7443   36.4445   84.5516 O   0  0  0  0  0  0  0  0  0  0  0  0
  103.7841   36.5011   82.1431 C   0  0  0  0  0  0  0  0  0  0  0  0
  104.0465   35.0892   81.9239 N   0  0  0  0  0  0  0  0  0  0  0  0
  105.2655   34.7855   84.9315 H   0  0  0  0  0  0  0  0  0  0  0  0
  103.4547   35.5199   84.5043 H   0  0  0  0  0  0  0  0  0  0  0  0
  103.3748   34.5381   82.4584 H   0  0  0  0  0  0  0  0  0  0  0  0
  106.0621   34.8397   79.8874 C   0  0  0  0  0  0  0  0  0  0  0  0
  106.4084   34.5472   81.2315 C   0  0  0  0  0  0  0  0  0  0  0  0
  107.7012   34.0544   81.5228 C   0  0  0  0  0  0  0  0  0  0  0  0
  108.5130   33.5708   80.4883 C   0  0  0  0  0  0  0  0  0  0  0  0
  108.1333   33.8110   79.1418 C   0  0  0  0  0  0  0  0  0  0  0  0
  108.9042   33.3720   78.1414 N   0  0  0  0  0  0  0  0  0  0  0  0
  106.9550   34.5339   78.8487 C   0  0  0  0  0  0  0  0  0  0  0  0
  109.7265   32.8678   78.3384 H   0  0  0  0  0  0  0  0  0  0  0  0
  108.6496   33.5531   77.2078 H   0  0  0  0  0  0  0  0  0  0  0  0
  104.2239   37.3204   80.9204 C   0  0  0  0  0  0  0  0  0  0  0  0
  103.2147   37.2929   79.9126 O   0  0  0  0  0  0  0  0  0  0  0  0
  103.0622   36.3768   79.6327 H   0  0  0  0  0  0  0  0  0  0  0  0
 11 12  2  0  0  0
 11 17  1  0  0  0
 12 13  1  0  0  0
 12  1  1  0  0  0
 13 14  2  0  0  0
 14 15  1  0  0  0
 15 16  1  0  0  0
 15 17  2  0  0  0
  1  2  1  0  0  0
  1  7  1  0  0  0
  2  3  1  0  0  0
  2  4  1  0  0  0
  4  5  1  0  0  0
  4  6  1  0  0  0
  6  7  1  0  0  0
  6 20  1  0  0  0
 20 21  1  0  0  0
 16 18  1  0  0  0
 16 19  1  0  0  0
  3  8  1  0  0  0
  5  9  1  0  0  0
  7 10  1  0  0  0
 21 22  1  0  0  0
M  END
> <minimizedAffinity>
-8.09743

$$$$
2MAS_PIR_A_400


 22 23  0  0  0  0  0  0  0  0999 V2000
  105.9370   36.3038   82.0084 C   0  0  0  0  0  0  0  0  0  0  0  0
  104.4577   36.5206   81.7443 C   0  0  0  0  0  0  0  0  0  0  0  0
  104.2209   37.8253   81.2390 O   0  0  0  0  0  0  0  0  0  0  0  0
  103.7691   36.3570   83.1103 C   0  0  0  0  0  0  0  0  0  0  0  0
  103.5144   37.6132   83.7165 O   0  0  0  0  0  0  0  0  0  0  0  0
  104.7343   35.5474   83.9397 C   0  0  0  0  0  0  0  0  0  0  0  0
  106.0107   36.0248   83.4363 N   0  0  0  0  0  0  0  0  0  0  0  0
  104.5456   38.4821   81.8746 H   0  0  0  0  0  0  0  0  0  0  0  0
  104.3495   38.0941   83.8270 H   0  0  0  0  0  0  0  0  0  0  0  0
  106.2655   36.8799   83.9305 H   0  0  0  0  0  0  0  0  0  0  0  0
  107.5962   34.4129   81.5892 C   0  0  0  0  0  0  0  0  0  0  0  0
  106.5760   35.2681   81.0996 C   0  0  0  0  0  0  0  0  0  0  0  0
  106.1729   35.1636   79.7485 C   0  0  0  0  0  0  0  0  0  0  0  0
  106.9678   34.4580   78.8358 C   0  0  0  0  0  0  0  0  0  0  0  0
  108.0283   33.6500   79.3231 C   0  0  0  0  0  0  0  0  0  0  0  0
  108.7870   32.9558   78.4684 N   0  0  0  0  0  0  0  0  0  0  0  0
  108.2751   33.5539   80.7111 C   0  0  0  0  0  0  0  0  0  0  0  0
  108.6206   33.0181   77.5000 H   0  0  0  0  0  0  0  0  0  0  0  0
  109.5119   32.3824   78.8074 H   0  0  0  0  0  0  0  0  0  0  0  0
  104.6422   34.0209   83.7949 C   0  0  0  0  0  0  0  0  0  0  0  0
  103.8221   33.4710   84.8244 O   0  0  0  0  0  0  0  0  0  0  0  0
  104.2083   33.6770   85.6901 H   0  0  0  0  0  0  0  0  0  0  0  0
 11 12  2  0  0  0
 11 17  1  0  0  0
 12 13  1  0  0  0
 12  1  1  0  0  0
 13 14  2  0  0  0
 14 15  1  0  0  0
 15 16  1  0  0  0
 15 17  2  0  0  0
  1  2  1  0  0  0
  1  7  1  0  0  0
  2  3  1  0  0  0
  2  4  1  0  0  0
  4  5  1  0  0  0
  4  6  1  0  0  0
  6  7  1  0  0  0
  6 20  1  0  0  0
 20 21  1  0  0  0
 16 18  1  0  0  0
 16 19  1  0  0  0
  3  8  1  0  0  0
  5  9  1  0  0  0
  7 10  1  0  0  0
 21 22  1  0  0  0
M  END
> <minimizedAffinity>
-7.42809

$$$$
2MAS_PIR_A_400


 22 23  0  0  0  0  0  0  0  0999 V2000
  105.9376   36.7583   80.9294 C   0  0  0  0  0  0  0  0  0  0  0  0
  104.4981   36.2826   81.0106 C   0  0  0  0  0  0  0  0  0  0  0  0
  103.6817   36.9830   80.0851 O   0  0  0  0  0  0  0  0  0  0  0  0
  104.0438   36.5940   82.4472 C   0  0  0  0  0  0  0  0  0  0  0  0
  103.3075   37.8041   82.5074 O   0  0  0  0  0  0  0  0  0  0  0  0
  105.3191   36.7021   83.2452 C   0  0  0  0  0  0  0  0  0  0  0  0
  106.2217   37.2750   82.2615 N   0  0  0  0  0  0  0  0  0  0  0  0
  103.7289   37.9345   80.2677 H   0  0  0  0  0  0  0  0  0  0  0  0
  103.8540   38.5321   82.1725 H   0  0  0  0  0  0  0  0  0  0  0  0
  106.1101   38.2888   82.2569 H   0  0  0  0  0  0  0  0  0  0  0  0
  107.8317   36.0247   79.3872 C   0  0  0  0  0  0  0  0  0  0  0  0
  106.9019   35.7062   80.4100 C   0  0  0  0  0  0  0  0  0  0  0  0
  106.8645   34.3911   80.9280 C   0  0  0  0  0  0  0  0  0  0  0  0
  107.5050   33.3519   80.2404 C   0  0  0  0  0  0  0  0  0  0  0  0
  108.3889   33.6690   79.1759 C   0  0  0  0  0  0  0  0  0  0  0  0
  109.0223   32.6916   78.5193 N   0  0  0  0  0  0  0  0  0  0  0  0
  108.6244   35.0158   78.8185 C   0  0  0  0  0  0  0  0  0  0  0  0
  108.8630   31.7511   78.7631 H   0  0  0  0  0  0  0  0  0  0  0  0
  109.6481   32.9123   77.7920 H   0  0  0  0  0  0  0  0  0  0  0  0
  105.8935   35.3866   83.7923 C   0  0  0  0  0  0  0  0  0  0  0  0
  105.7303   35.3219   85.2079 O   0  0  0  0  0  0  0  0  0  0  0  0
  106.2021   36.0614   85.6220 H   0  0  0  0  0  0  0  0  0  0  0  0
 11 12  2  0  0  0
 11 17  1  0  0  0
 12 13  1  0  0  0
 12  1  1  0  0  0
 13 14  2  0  0  0
 14 15  1  0  0  0
 15 16  1  0  0  0
 15 17  2  0  0  0
  1  2  1  0  0  0
  1  7  1  0  0  0
  2  3  1  0  0  0
  2  4  1  0  0  0
  4  5  1  0  0  0
  4  6  1  0  0  0
  6  7  1  0  0  0
  6 20  1  0  0  0
 20 21  1  0  0  0
 16 18  1  0  0  0
 16 19  1  0  0  0
  3  8  1  0  0  0
  5  9  1  0  0  0
  7 10  1  0  0  0
 21 22  1  0  0  0
M  END
> <minimizedAffinity>
-7.42590

$$$$
