5OKU_0L1_A_401


 12 11  0  0  0  0  0  0  0  0999 V2000
   55.8468  358.8900   84.8325 C   0  0  0  0  0  0  0  0  0  0  0  0
   54.6162  358.0468   84.4422 C   0  0  0  0  0  0  0  0  0  0  0  0
   55.7616  356.9572   82.5814 O   0  0  0  0  0  0  0  0  0  0  0  0
   54.9525  356.8522   83.5596 C   0  0  0  0  0  0  0  0  0  0  0  0
   54.4235  355.7704   83.9124 O   0  0  0  0  0  0  0  0  0  0  0  0
   56.1267  357.7920   82.3628 H   0  0  0  0  0  0  0  0  0  0  0  0
   56.7186  358.2066   85.9042 C   0  0  0  0  0  0  0  0  0  0  0  0
   57.6062  359.2544   86.6749 C   0  0  0  0  0  0  0  0  0  0  0  0
   59.0031  359.4631   86.0342 C   0  0  0  0  0  0  0  0  0  0  0  0
   59.7213  360.4686   86.3597 O   0  0  0  0  0  0  0  0  0  0  0  0
   59.4173  358.6067   85.1927 O   0  0  0  0  0  0  0  0  0  0  0  0
   58.8782  357.8750   84.9650 H   0  0  0  0  0  0  0  0  0  0  0  0
  5  4  2  0  0  0
  4  2  1  0  0  0
  4  3  1  0  0  0
  2  1  1  0  0  0
  1  7  1  0  0  0
  7  8  1  0  0  0
  8  9  1  0  0  0
  9 10  2  0  0  0
  9 11  1  0  0  0
  3  6  1  0  0  0
 11 12  1  0  0  0
M  END
> <minimizedAffinity>
-6.90646

$$$$
5OKU_0L1_A_401


 12 11  0  0  0  0  0  0  0  0999 V2000
   56.6923  358.3567   85.7880 C   0  0  0  0  0  0  0  0  0  0  0  0
   57.5693  359.3832   86.5329 C   0  0  0  0  0  0  0  0  0  0  0  0
   59.4532  358.5884   85.1984 O   0  0  0  0  0  0  0  0  0  0  0  0
   58.9953  359.4620   86.0045 C   0  0  0  0  0  0  0  0  0  0  0  0
   59.6401  360.4725   86.3757 O   0  0  0  0  0  0  0  0  0  0  0  0
   58.9260  357.8527   84.9558 H   0  0  0  0  0  0  0  0  0  0  0  0
   55.7654  359.0134   84.7463 C   0  0  0  0  0  0  0  0  0  0  0  0
   54.5176  358.1045   84.4351 C   0  0  0  0  0  0  0  0  0  0  0  0
   54.8730  356.8347   83.6187 C   0  0  0  0  0  0  0  0  0  0  0  0
   54.3370  355.7102   83.9039 O   0  0  0  0  0  0  0  0  0  0  0  0
   55.6955  356.9435   82.6572 O   0  0  0  0  0  0  0  0  0  0  0  0
   56.0797  357.7754   82.4612 H   0  0  0  0  0  0  0  0  0  0  0  0
  5  4  2  0  0  0
  4  2  1  0  0  0
  4  3  1  0  0  0
  2  1  1  0  0  0
  1  7  1  0  0  0
  7  8  1  0  0  0
  8  9  1  0  0  0
  9 10  2  0  0  0
  9 11  1  0  0  0
  3  6  1  0  0  0
 11 12  1  0  0  0
M  END
> <minimizedAffinity>
-6.87282

$$$$
5OKU_0L1_A_401


 12 11  0  0  0  0  0  0  0  0999 V2000
   56.8167  359.1913   85.7132 C   0  0  0  0  0  0  0  0  0  0  0  0
   58.1194  358.8957   86.4833 C   0  0  0  0  0  0  0  0  0  0  0  0
   59.7855  360.5843   87.0620 O   0  0  0  0  0  0  0  0  0  0  0  0
   59.2504  359.8626   86.1590 C   0  0  0  0  0  0  0  0  0  0  0  0
   59.6391  359.8383   84.9661 O   0  0  0  0  0  0  0  0  0  0  0  0
   59.4529  360.5621   87.9378 H   0  0  0  0  0  0  0  0  0  0  0  0
   56.1441  357.9141   85.1728 C   0  0  0  0  0  0  0  0  0  0  0  0
   54.7277  358.2273   84.5599 C   0  0  0  0  0  0  0  0  0  0  0  0
   54.0776  357.0037   83.8631 C   0  0  0  0  0  0  0  0  0  0  0  0
   52.8711  357.0614   83.4459 O   0  0  0  0  0  0  0  0  0  0  0  0
   54.7755  355.9541   83.7074 O   0  0  0  0  0  0  0  0  0  0  0  0
   55.6587  355.9282   84.0191 H   0  0  0  0  0  0  0  0  0  0  0  0
  5  4  2  0  0  0
  4  2  1  0  0  0
  4  3  1  0  0  0
  2  1  1  0  0  0
  1  7  1  0  0  0
  7  8  1  0  0  0
  8  9  1  0  0  0
  9 10  2  0  0  0
  9 11  1  0  0  0
  3  6  1  0  0  0
 11 12  1  0  0  0
M  END
> <minimizedAffinity>
-6.57875

$$$$
5OKU_0L1_A_401


 12 11  0  0  0  0  0  0  0  0999 V2000
   57.5738  358.8713   86.0803 C   0  0  0  0  0  0  0  0  0  0  0  0
   56.8440  359.6861   87.1671 C   0  0  0  0  0  0  0  0  0  0  0  0
   58.8689  360.3474   88.3606 O   0  0  0  0  0  0  0  0  0  0  0  0
   57.6756  359.9059   88.4237 C   0  0  0  0  0  0  0  0  0  0  0  0
   57.0736  359.6788   89.5010 O   0  0  0  0  0  0  0  0  0  0  0  0
   59.2689  360.4988   87.5269 H   0  0  0  0  0  0  0  0  0  0  0  0
   56.7948  357.6090   85.6618 C   0  0  0  0  0  0  0  0  0  0  0  0
   55.5868  357.9675   84.7172 C   0  0  0  0  0  0  0  0  0  0  0  0
   55.3053  356.8835   83.6444 C   0  0  0  0  0  0  0  0  0  0  0  0
   54.5541  355.8854   83.9137 O   0  0  0  0  0  0  0  0  0  0  0  0
   55.8271  357.0196   82.4946 O   0  0  0  0  0  0  0  0  0  0  0  0
   56.3756  357.7574   82.3134 H   0  0  0  0  0  0  0  0  0  0  0  0
  5  4  2  0  0  0
  4  2  1  0  0  0
  4  3  1  0  0  0
  2  1  1  0  0  0
  1  7  1  0  0  0
  7  8  1  0  0  0
  8  9  1  0  0  0
  9 10  2  0  0  0
  9 11  1  0  0  0
  3  6  1  0  0  0
 11 12  1  0  0  0
M  END
> <minimizedAffinity>
-6.27619

$$$$
5OKU_0L1_A_401


 12 11  0  0  0  0  0  0  0  0999 V2000
   57.5146  358.7489   87.3246 C   0  0  0  0  0  0  0  0  0  0  0  0
   57.8604  360.0221   88.1227 C   0  0  0  0  0  0  0  0  0  0  0  0
   56.1418  361.4235   89.1445 O   0  0  0  0  0  0  0  0  0  0  0  0
   56.8400  360.3596   89.2015 C   0  0  0  0  0  0  0  0  0  0  0  0
   56.7082  359.4874   90.0940 O   0  0  0  0  0  0  0  0  0  0  0  0
   56.2840  362.0408   88.4541 H   0  0  0  0  0  0  0  0  0  0  0  0
   58.3851  358.5845   86.0634 C   0  0  0  0  0  0  0  0  0  0  0  0
   59.0973  359.9352   85.6781 C   0  0  0  0  0  0  0  0  0  0  0  0
   58.5148  360.5919   84.3995 C   0  0  0  0  0  0  0  0  0  0  0  0
   59.1716  361.4952   83.7786 O   0  0  0  0  0  0  0  0  0  0  0  0
   57.3810  360.2015   83.9811 O   0  0  0  0  0  0  0  0  0  0  0  0
   56.9122  359.5381   84.4482 H   0  0  0  0  0  0  0  0  0  0  0  0
  5  4  2  0  0  0
  4  2  1  0  0  0
  4  3  1  0  0  0
  2  1  1  0  0  0
  1  7  1  0  0  0
  7  8  1  0  0  0
  8  9  1  0  0  0
  9 10  2  0  0  0
  9 11  1  0  0  0
  3  6  1  0  0  0
 11 12  1  0  0  0
M  END
> <minimizedAffinity>
-6.27499

$$$$
5OKU_0L1_A_401


 12 11  0  0  0  0  0  0  0  0999 V2000
   56.7075  357.5190   85.6666 C   0  0  0  0  0  0  0  0  0  0  0  0
   55.5993  358.2258   84.8604 C   0  0  0  0  0  0  0  0  0  0  0  0
   53.5942  357.5969   83.6171 O   0  0  0  0  0  0  0  0  0  0  0  0
   54.7599  357.2752   84.0175 C   0  0  0  0  0  0  0  0  0  0  0  0
   55.3301  356.2008   83.7086 O   0  0  0  0  0  0  0  0  0  0  0  0
   53.2174  358.4136   83.8799 H   0  0  0  0  0  0  0  0  0  0  0  0
   57.7045  358.5095   86.2992 C   0  0  0  0  0  0  0  0  0  0  0  0
   56.9601  359.6168   87.1357 C   0  0  0  0  0  0  0  0  0  0  0  0
   57.6409  359.9179   88.4963 C   0  0  0  0  0  0  0  0  0  0  0  0
   58.8046  360.4443   88.5360 O   0  0  0  0  0  0  0  0  0  0  0  0
   57.0100  359.6412   89.5633 O   0  0  0  0  0  0  0  0  0  0  0  0
   56.1574  359.2554   89.5169 H   0  0  0  0  0  0  0  0  0  0  0  0
  5  4  2  0  0  0
  4  2  1  0  0  0
  4  3  1  0  0  0
  2  1  1  0  0  0
  1  7  1  0  0  0
  7  8  1  0  0  0
  8  9  1  0  0  0
  9 10  2  0  0  0
  9 11  1  0  0  0
  3  6  1  0  0  0
 11 12  1  0  0  0
M  END
> <minimizedAffinity>
-6.16173

$$$$
5OKU_0L1_A_401


 12 11  0  0  0  0  0  0  0  0999 V2000
   58.1011  358.8430   86.3227 C   0  0  0  0  0  0  0  0  0  0  0  0
   59.0668  359.8889   85.7302 C   0  0  0  0  0  0  0  0  0  0  0  0
   57.3941  360.2669   83.9921 O   0  0  0  0  0  0  0  0  0  0  0  0
   58.5414  360.5542   84.4652 C   0  0  0  0  0  0  0  0  0  0  0  0
   59.2943  361.4330   83.9799 O   0  0  0  0  0  0  0  0  0  0  0  0
   56.8742  359.6002   84.3962 H   0  0  0  0  0  0  0  0  0  0  0  0
   57.7682  359.1142   87.8029 C   0  0  0  0  0  0  0  0  0  0  0  0
   56.7142  360.2749   87.9504 C   0  0  0  0  0  0  0  0  0  0  0  0
   56.5188  360.7424   89.4162 C   0  0  0  0  0  0  0  0  0  0  0  0
   56.3791  361.9834   89.6871 O   0  0  0  0  0  0  0  0  0  0  0  0
   56.4884  359.8640   90.3330 O   0  0  0  0  0  0  0  0  0  0  0  0
   56.5925  358.9581   90.1174 H   0  0  0  0  0  0  0  0  0  0  0  0
  5  4  2  0  0  0
  4  2  1  0  0  0
  4  3  1  0  0  0
  2  1  1  0  0  0
  1  7  1  0  0  0
  7  8  1  0  0  0
  8  9  1  0  0  0
  9 10  2  0  0  0
  9 11  1  0  0  0
  3  6  1  0  0  0
 11 12  1  0  0  0
M  END
> <minimizedAffinity>
-6.15767

$$$$
5OKU_0L1_A_401


 12 11  0  0  0  0  0  0  0  0999 V2000
   56.2556  358.1571   85.5238 C   0  0  0  0  0  0  0  0  0  0  0  0
   55.6029  358.7003   84.2368 C   0  0  0  0  0  0  0  0  0  0  0  0
   53.5877  359.9180   84.8836 O   0  0  0  0  0  0  0  0  0  0  0  0
   54.0947  358.8791   84.3484 C   0  0  0  0  0  0  0  0  0  0  0  0
   53.4149  357.9645   83.8230 O   0  0  0  0  0  0  0  0  0  0  0  0
   54.1449  360.5697   85.2614 H   0  0  0  0  0  0  0  0  0  0  0  0
   56.6352  359.2754   86.5141 C   0  0  0  0  0  0  0  0  0  0  0  0
   58.0685  359.0404   87.1225 C   0  0  0  0  0  0  0  0  0  0  0  0
   59.2155  359.4832   86.1771 C   0  0  0  0  0  0  0  0  0  0  0  0
   59.8698  360.5557   86.4107 O   0  0  0  0  0  0  0  0  0  0  0  0
   59.4941  358.7499   85.1783 O   0  0  0  0  0  0  0  0  0  0  0  0
   59.0046  357.9665   85.0212 H   0  0  0  0  0  0  0  0  0  0  0  0
  5  4  2  0  0  0
  4  2  1  0  0  0
  4  3  1  0  0  0
  2  1  1  0  0  0
  1  7  1  0  0  0
  7  8  1  0  0  0
  8  9  1  0  0  0
  9 10  2  0  0  0
  9 11  1  0  0  0
  3  6  1  0  0  0
 11 12  1  0  0  0
M  END
> <minimizedAffinity>
-6.09781

$$$$
5OKU_0L1_A_401


 12 11  0  0  0  0  0  0  0  0999 V2000
   57.0347  359.0090   87.1420 C   0  0  0  0  0  0  0  0  0  0  0  0
   57.7133  360.0400   88.0662 C   0  0  0  0  0  0  0  0  0  0  0  0
   56.2916  361.6599   89.2135 O   0  0  0  0  0  0  0  0  0  0  0  0
   56.8269  360.5040   89.2142 C   0  0  0  0  0  0  0  0  0  0  0  0
   56.6262  359.6445   90.1062 O   0  0  0  0  0  0  0  0  0  0  0  0
   56.4780  362.2621   88.5203 H   0  0  0  0  0  0  0  0  0  0  0  0
   56.2194  359.6701   86.0134 C   0  0  0  0  0  0  0  0  0  0  0  0
   55.6662  358.5976   85.0017 C   0  0  0  0  0  0  0  0  0  0  0  0
   54.2184  358.8908   84.5289 C   0  0  0  0  0  0  0  0  0  0  0  0
   53.6033  358.0631   83.7743 O   0  0  0  0  0  0  0  0  0  0  0  0
   53.6592  359.9621   84.9195 O   0  0  0  0  0  0  0  0  0  0  0  0
   54.1242  360.5586   85.4727 H   0  0  0  0  0  0  0  0  0  0  0  0
  5  4  2  0  0  0
  4  2  1  0  0  0
  4  3  1  0  0  0
  2  1  1  0  0  0
  1  7  1  0  0  0
  7  8  1  0  0  0
  8  9  1  0  0  0
  9 10  2  0  0  0
  9 11  1  0  0  0
  3  6  1  0  0  0
 11 12  1  0  0  0
M  END
> <minimizedAffinity>
-5.81467

$$$$
5OKU_0L1_A_401


 12 11  0  0  0  0  0  0  0  0999 V2000
   57.1405  358.1873   86.2648 C   0  0  0  0  0  0  0  0  0  0  0  0
   56.1730  357.7220   85.1580 C   0  0  0  0  0  0  0  0  0  0  0  0
   56.2392  359.4279   83.4123 O   0  0  0  0  0  0  0  0  0  0  0  0
   55.5806  358.8669   84.3473 C   0  0  0  0  0  0  0  0  0  0  0  0
   54.3940  359.1574   84.6341 O   0  0  0  0  0  0  0  0  0  0  0  0
   57.1239  359.1702   83.2425 H   0  0  0  0  0  0  0  0  0  0  0  0
   56.8055  359.5964   86.7918 C   0  0  0  0  0  0  0  0  0  0  0  0
   57.6438  359.9414   88.0795 C   0  0  0  0  0  0  0  0  0  0  0  0
   56.7660  360.3540   89.2897 C   0  0  0  0  0  0  0  0  0  0  0  0
   56.6050  359.5563   90.2749 O   0  0  0  0  0  0  0  0  0  0  0  0
   56.2254  361.5032   89.2818 O   0  0  0  0  0  0  0  0  0  0  0  0
   56.3534  362.0761   88.5515 H   0  0  0  0  0  0  0  0  0  0  0  0
  5  4  2  0  0  0
  4  2  1  0  0  0
  4  3  1  0  0  0
  2  1  1  0  0  0
  1  7  1  0  0  0
  7  8  1  0  0  0
  8  9  1  0  0  0
  9 10  2  0  0  0
  9 11  1  0  0  0
  3  6  1  0  0  0
 11 12  1  0  0  0
M  END
> <minimizedAffinity>
-5.73165

$$$$
