2IDW_017_B_401


 42 45  0  0  0  0  0  0  0  0999 V2000
   20.0445   31.0602   12.9409 C   0  0  0  0  0  0  0  0  0  0  0  0
   20.4968   31.8966   11.8565 O   0  0  0  0  0  0  0  0  0  0  0  0
   20.8303   32.7351   12.2123 H   0  0  0  0  0  0  0  0  0  0  0  0
   18.8870   31.8350   13.6322 C   0  0  0  0  0  0  0  0  0  0  0  0
   18.1036   30.8290   14.4299 N   0  0  0  0  0  0  0  0  0  0  0  0
   17.8873   31.1809   16.0767 S   0  0  0  0  0  0  0  0  0  0  0  0
   19.0184   30.5882   16.8174 O   0  0  0  0  0  0  0  0  0  0  0  0
   16.5306   30.7150   16.3842 O   0  0  0  0  0  0  0  0  0  0  0  0
   17.2425   37.0685   16.6795 N   0  0  0  0  0  0  0  0  0  0  0  0
   17.4421   35.7215   16.6093 C   0  0  0  0  0  0  0  0  0  0  0  0
   18.6437   35.1137   17.0486 C   0  0  0  0  0  0  0  0  0  0  0  0
   18.7980   33.7202   16.9090 C   0  0  0  0  0  0  0  0  0  0  0  0
   17.7283   32.9747   16.3527 C   0  0  0  0  0  0  0  0  0  0  0  0
   16.5769   33.5798   15.8981 C   0  0  0  0  0  0  0  0  0  0  0  0
   16.4099   34.9598   16.0707 C   0  0  0  0  0  0  0  0  0  0  0  0
   17.9429   37.6511   17.0526 H   0  0  0  0  0  0  0  0  0  0  0  0
   16.3979   37.4584   16.3572 H   0  0  0  0  0  0  0  0  0  0  0  0
   16.9471   30.1788   13.7856 C   0  0  0  0  0  0  0  0  0  0  0  0
   17.3622   29.2473   12.6442 C   0  0  0  0  0  0  0  0  0  0  0  0
   17.9655   27.9682   13.2232 C   0  0  0  0  0  0  0  0  0  0  0  0
   16.1243   28.9590   11.8070 C   0  0  0  0  0  0  0  0  0  0  0  0
   21.2211   30.6893   13.8458 C   0  0  0  0  0  0  0  0  0  0  0  0
   21.7887   29.4300   13.3962 N   0  0  0  0  0  0  0  0  0  0  0  0
   21.6113   28.2976   14.0813 C   0  0  0  0  0  0  0  0  0  0  0  0
   21.0138   28.1211   15.1303 O   0  0  0  0  0  0  0  0  0  0  0  0
   22.3172   29.4109   12.5658 H   0  0  0  0  0  0  0  0  0  0  0  0
   22.2157   27.2610   13.4039 O   0  0  0  0  0  0  0  0  0  0  0  0
   23.0022   27.6012   12.2429 C   0  0  0  0  0  0  0  0  0  0  0  0
   24.4004   27.0356   12.4937 C   0  0  0  0  0  0  0  0  0  0  0  0
   24.2970   25.6488   12.2228 O   0  0  0  0  0  0  0  0  0  0  0  0
   23.3150   25.4739   11.2130 C   0  0  0  0  0  0  0  0  0  0  0  0
   22.4021   24.4702   11.6493 O   0  0  0  0  0  0  0  0  0  0  0  0
   21.0802   25.0356   11.7899 C   0  0  0  0  0  0  0  0  0  0  0  0
   21.1087   26.3684   10.9987 C   0  0  0  0  0  0  0  0  0  0  0  0
   22.5488   26.7588   11.0375 C   0  0  0  0  0  0  0  0  0  0  0  0
   22.3544   31.7378   13.8770 C   0  0  0  0  0  0  0  0  0  0  0  0
   22.3967   33.9169   15.1694 C   0  0  0  0  0  0  0  0  0  0  0  0
   22.4224   34.6188   16.3707 C   0  0  0  0  0  0  0  0  0  0  0  0
   22.4661   33.9571   17.5850 C   0  0  0  0  0  0  0  0  0  0  0  0
   22.4154   32.5554   17.5820 C   0  0  0  0  0  0  0  0  0  0  0  0
   22.3879   31.8250   16.4117 C   0  0  0  0  0  0  0  0  0  0  0  0
   22.3682   32.5094   15.1774 C   0  0  0  0  0  0  0  0  0  0  0  0
  9 10  1  0  0  0
 10 11  2  0  0  0
 10 15  1  0  0  0
 11 12  1  0  0  0
 12 13  2  0  0  0
 13 14  1  0  0  0
 13  6  1  0  0  0
 14 15  2  0  0  0
  6  7  2  0  0  0
  6  8  2  0  0  0
  6  5  1  0  0  0
  5 18  1  0  0  0
  5  4  1  0  0  0
 18 19  1  0  0  0
 19 20  1  0  0  0
 19 21  1  0  0  0
  4  1  1  0  0  0
  1  2  1  0  0  0
  1 22  1  0  0  0
 22 23  1  0  0  0
 22 36  1  0  0  0
 23 24  1  0  0  0
 24 25  2  0  0  0
 24 27  1  0  0  0
 27 28  1  0  0  0
 28 29  1  0  0  0
 28 35  1  0  0  0
 29 30  1  0  0  0
 30 31  1  0  0  0
 31 32  1  0  0  0
 31 35  1  0  0  0
 32 33  1  0  0  0
 33 34  1  0  0  0
 34 35  1  0  0  0
 36 42  1  0  0  0
 37 38  2  0  0  0
 37 42  1  0  0  0
 38 39  1  0  0  0
 39 40  2  0  0  0
 40 41  1  0  0  0
 41 42  2  0  0  0
  9 16  1  0  0  0
  9 17  1  0  0  0
  2  3  1  0  0  0
 23 26  1  0  0  0
M  END
> <minimizedAffinity>
-9.69273

$$$$
2IDW_017_B_401


 42 45  0  0  0  0  0  0  0  0999 V2000
   19.6943   30.5885   16.4873 C   0  0  0  0  0  0  0  0  0  0  0  0
   20.2117   29.8607   17.6199 O   0  0  0  0  0  0  0  0  0  0  0  0
   21.1636   29.7151   17.5031 H   0  0  0  0  0  0  0  0  0  0  0  0
   19.9393   29.6872   15.2441 C   0  0  0  0  0  0  0  0  0  0  0  0
   19.9601   30.5941   14.0445 N   0  0  0  0  0  0  0  0  0  0  0  0
   21.3604   30.5392   13.0860 S   0  0  0  0  0  0  0  0  0  0  0  0
   22.4788   31.0705   13.8898 O   0  0  0  0  0  0  0  0  0  0  0  0
   20.9953   31.2387   11.8492 O   0  0  0  0  0  0  0  0  0  0  0  0
   22.0964   24.9400   11.2017 N   0  0  0  0  0  0  0  0  0  0  0  0
   22.0114   26.2347   11.6207 C   0  0  0  0  0  0  0  0  0  0  0  0
   23.0987   26.9001   12.2381 C   0  0  0  0  0  0  0  0  0  0  0  0
   22.9279   28.2260   12.6831 C   0  0  0  0  0  0  0  0  0  0  0  0
   21.6739   28.8526   12.4723 C   0  0  0  0  0  0  0  0  0  0  0  0
   20.6124   28.1856   11.9005 C   0  0  0  0  0  0  0  0  0  0  0  0
   20.7945   26.8804   11.4258 C   0  0  0  0  0  0  0  0  0  0  0  0
   22.9362   24.4394   11.3172 H   0  0  0  0  0  0  0  0  0  0  0  0
   21.3179   24.5058   10.7838 H   0  0  0  0  0  0  0  0  0  0  0  0
   18.7070   30.7760   13.2881 C   0  0  0  0  0  0  0  0  0  0  0  0
   17.6289   29.7680   13.6936 C   0  0  0  0  0  0  0  0  0  0  0  0
   16.5575   30.4733   14.5242 C   0  0  0  0  0  0  0  0  0  0  0  0
   17.0516   29.1683   12.4194 C   0  0  0  0  0  0  0  0  0  0  0  0
   20.3236   31.9816   16.4247 C   0  0  0  0  0  0  0  0  0  0  0  0
   19.3547   32.9625   16.8824 N   0  0  0  0  0  0  0  0  0  0  0  0
   18.6874   33.7402   16.0261 C   0  0  0  0  0  0  0  0  0  0  0  0
   18.7701   33.7893   14.8099 O   0  0  0  0  0  0  0  0  0  0  0  0
   19.1858   33.0561   17.8478 H   0  0  0  0  0  0  0  0  0  0  0  0
   17.8090   34.5355   16.7293 O   0  0  0  0  0  0  0  0  0  0  0  0
   16.5007   34.7406   16.1560 C   0  0  0  0  0  0  0  0  0  0  0  0
   15.7266   33.4419   16.3832 C   0  0  0  0  0  0  0  0  0  0  0  0
   15.3206   33.4809   17.7400 O   0  0  0  0  0  0  0  0  0  0  0  0
   15.1176   34.8400   18.0954 C   0  0  0  0  0  0  0  0  0  0  0  0
   15.8231   35.0929   19.3076 O   0  0  0  0  0  0  0  0  0  0  0  0
   16.8501   36.0834   19.0812 C   0  0  0  0  0  0  0  0  0  0  0  0
   16.4786   36.7734   17.7438 C   0  0  0  0  0  0  0  0  0  0  0  0
   15.6970   35.7255   17.0235 C   0  0  0  0  0  0  0  0  0  0  0  0
   21.6012   32.1412   17.2773 C   0  0  0  0  0  0  0  0  0  0  0  0
   22.0224   34.2149   18.6713 C   0  0  0  0  0  0  0  0  0  0  0  0
   22.3869   35.5534   18.7819 C   0  0  0  0  0  0  0  0  0  0  0  0
   22.6967   36.3052   17.6624 C   0  0  0  0  0  0  0  0  0  0  0  0
   22.7014   35.6685   16.4127 C   0  0  0  0  0  0  0  0  0  0  0  0
   22.3474   34.3432   16.2634 C   0  0  0  0  0  0  0  0  0  0  0  0
   22.0093   33.5914   17.4092 C   0  0  0  0  0  0  0  0  0  0  0  0
  9 10  1  0  0  0
 10 11  2  0  0  0
 10 15  1  0  0  0
 11 12  1  0  0  0
 12 13  2  0  0  0
 13 14  1  0  0  0
 13  6  1  0  0  0
 14 15  2  0  0  0
  6  7  2  0  0  0
  6  8  2  0  0  0
  6  5  1  0  0  0
  5 18  1  0  0  0
  5  4  1  0  0  0
 18 19  1  0  0  0
 19 20  1  0  0  0
 19 21  1  0  0  0
  4  1  1  0  0  0
  1  2  1  0  0  0
  1 22  1  0  0  0
 22 23  1  0  0  0
 22 36  1  0  0  0
 23 24  1  0  0  0
 24 25  2  0  0  0
 24 27  1  0  0  0
 27 28  1  0  0  0
 28 29  1  0  0  0
 28 35  1  0  0  0
 29 30  1  0  0  0
 30 31  1  0  0  0
 31 32  1  0  0  0
 31 35  1  0  0  0
 32 33  1  0  0  0
 33 34  1  0  0  0
 34 35  1  0  0  0
 36 42  1  0  0  0
 37 38  2  0  0  0
 37 42  1  0  0  0
 38 39  1  0  0  0
 39 40  2  0  0  0
 40 41  1  0  0  0
 41 42  2  0  0  0
  9 16  1  0  0  0
  9 17  1  0  0  0
  2  3  1  0  0  0
 23 26  1  0  0  0
M  END
> <minimizedAffinity>
-9.37700

$$$$
2IDW_017_B_401


 42 45  0  0  0  0  0  0  0  0999 V2000
   20.0962   29.3391   15.7327 C   0  0  0  0  0  0  0  0  0  0  0  0
   20.0897   28.2574   16.6866 O   0  0  0  0  0  0  0  0  0  0  0  0
   19.1884   27.9099   16.7752 H   0  0  0  0  0  0  0  0  0  0  0  0
   19.1647   30.4384   16.3174 C   0  0  0  0  0  0  0  0  0  0  0  0
   19.5421   31.7316   15.6487 N   0  0  0  0  0  0  0  0  0  0  0  0
   18.3567   32.4400   14.6610 S   0  0  0  0  0  0  0  0  0  0  0  0
   17.6744   31.3562   13.9267 O   0  0  0  0  0  0  0  0  0  0  0  0
   19.0732   33.4621   13.8903 O   0  0  0  0  0  0  0  0  0  0  0  0
   14.8434   35.9788   17.9131 N   0  0  0  0  0  0  0  0  0  0  0  0
   15.5885   35.1074   17.1752 C   0  0  0  0  0  0  0  0  0  0  0  0
   15.5099   33.7051   17.3589 C   0  0  0  0  0  0  0  0  0  0  0  0
   16.3387   32.8652   16.5890 C   0  0  0  0  0  0  0  0  0  0  0  0
   17.2065   33.4599   15.6389 C   0  0  0  0  0  0  0  0  0  0  0  0
   17.2993   34.8267   15.4912 C   0  0  0  0  0  0  0  0  0  0  0  0
   16.4490   35.6584   16.2309 C   0  0  0  0  0  0  0  0  0  0  0  0
   14.2194   35.6385   18.5944 H   0  0  0  0  0  0  0  0  0  0  0  0
   14.9294   36.9482   17.7647 H   0  0  0  0  0  0  0  0  0  0  0  0
   20.3614   32.6943   16.4085 C   0  0  0  0  0  0  0  0  0  0  0  0
   21.8549   32.3647   16.3488 C   0  0  0  0  0  0  0  0  0  0  0  0
   22.3649   32.5650   14.9222 C   0  0  0  0  0  0  0  0  0  0  0  0
   22.5707   33.2743   17.3371 C   0  0  0  0  0  0  0  0  0  0  0  0
   19.7123   28.8203   14.3456 C   0  0  0  0  0  0  0  0  0  0  0  0
   20.7431   27.9110   13.8755 N   0  0  0  0  0  0  0  0  0  0  0  0
   21.8771   28.3593   13.3310 C   0  0  0  0  0  0  0  0  0  0  0  0
   22.2253   29.5096   13.1217 O   0  0  0  0  0  0  0  0  0  0  0  0
   20.6022   26.9404   13.9604 H   0  0  0  0  0  0  0  0  0  0  0  0
   22.6842   27.2861   13.0219 O   0  0  0  0  0  0  0  0  0  0  0  0
   23.4622   27.3731   11.8097 C   0  0  0  0  0  0  0  0  0  0  0  0
   24.7848   26.6628   12.0993 C   0  0  0  0  0  0  0  0  0  0  0  0
   24.4936   25.2791   12.0099 O   0  0  0  0  0  0  0  0  0  0  0  0
   23.4588   25.1123   11.0529 C   0  0  0  0  0  0  0  0  0  0  0  0
   22.4422   24.2998   11.6341 O   0  0  0  0  0  0  0  0  0  0  0  0
   21.2103   25.0483   11.7310 C   0  0  0  0  0  0  0  0  0  0  0  0
   21.3790   26.2574   10.7757 C   0  0  0  0  0  0  0  0  0  0  0  0
   22.8577   26.4556   10.7321 C   0  0  0  0  0  0  0  0  0  0  0  0
   18.3614   28.0737   14.2975 C   0  0  0  0  0  0  0  0  0  0  0  0
   18.0158   28.4165   11.8107 C   0  0  0  0  0  0  0  0  0  0  0  0
   17.7285   27.9210   10.5425 C   0  0  0  0  0  0  0  0  0  0  0  0
   17.4419   26.5817   10.3458 C   0  0  0  0  0  0  0  0  0  0  0  0
   17.5138   25.7163   11.4472 C   0  0  0  0  0  0  0  0  0  0  0  0
   17.7970   26.1701   12.7192 C   0  0  0  0  0  0  0  0  0  0  0  0
   18.0638   27.5424   12.9132 C   0  0  0  0  0  0  0  0  0  0  0  0
  9 10  1  0  0  0
 10 11  2  0  0  0
 10 15  1  0  0  0
 11 12  1  0  0  0
 12 13  2  0  0  0
 13 14  1  0  0  0
 13  6  1  0  0  0
 14 15  2  0  0  0
  6  7  2  0  0  0
  6  8  2  0  0  0
  6  5  1  0  0  0
  5 18  1  0  0  0
  5  4  1  0  0  0
 18 19  1  0  0  0
 19 20  1  0  0  0
 19 21  1  0  0  0
  4  1  1  0  0  0
  1  2  1  0  0  0
  1 22  1  0  0  0
 22 23  1  0  0  0
 22 36  1  0  0  0
 23 24  1  0  0  0
 24 25  2  0  0  0
 24 27  1  0  0  0
 27 28  1  0  0  0
 28 29  1  0  0  0
 28 35  1  0  0  0
 29 30  1  0  0  0
 30 31  1  0  0  0
 31 32  1  0  0  0
 31 35  1  0  0  0
 32 33  1  0  0  0
 33 34  1  0  0  0
 34 35  1  0  0  0
 36 42  1  0  0  0
 37 38  2  0  0  0
 37 42  1  0  0  0
 38 39  1  0  0  0
 39 40  2  0  0  0
 40 41  1  0  0  0
 41 42  2  0  0  0
  9 16  1  0  0  0
  9 17  1  0  0  0
  2  3  1  0  0  0
 23 26  1  0  0  0
M  END
> <minimizedAffinity>
-9.31843

$$$$
2IDW_017_B_401


 42 45  0  0  0  0  0  0  0  0999 V2000
   20.7505   30.9888   14.9854 C   0  0  0  0  0  0  0  0  0  0  0  0
   21.9103   30.2036   15.3298 O   0  0  0  0  0  0  0  0  0  0  0  0
   22.6893   30.5614   14.8759 H   0  0  0  0  0  0  0  0  0  0  0  0
   20.5729   30.8482   13.4470 C   0  0  0  0  0  0  0  0  0  0  0  0
   19.6501   29.6827   13.2187 N   0  0  0  0  0  0  0  0  0  0  0  0
   20.3781   28.2389   12.7010 S   0  0  0  0  0  0  0  0  0  0  0  0
   20.9232   27.5562   13.8911 O   0  0  0  0  0  0  0  0  0  0  0  0
   21.3085   28.6471   11.6428 O   0  0  0  0  0  0  0  0  0  0  0  0
   16.4271   25.1224    9.5199 N   0  0  0  0  0  0  0  0  0  0  0  0
   17.3404   25.7682   10.2996 C   0  0  0  0  0  0  0  0  0  0  0  0
   17.4932   25.4796   11.6779 C   0  0  0  0  0  0  0  0  0  0  0  0
   18.4290   26.2142   12.4326 C   0  0  0  0  0  0  0  0  0  0  0  0
   19.2017   27.2028   11.7728 C   0  0  0  0  0  0  0  0  0  0  0  0
   19.0221   27.4985   10.4390 C   0  0  0  0  0  0  0  0  0  0  0  0
   18.1177   26.7429    9.6819 C   0  0  0  0  0  0  0  0  0  0  0  0
   15.8529   24.4243    9.9100 H   0  0  0  0  0  0  0  0  0  0  0  0
   16.3420   25.3542    8.5669 H   0  0  0  0  0  0  0  0  0  0  0  0
   18.5183   29.4995   14.1465 C   0  0  0  0  0  0  0  0  0  0  0  0
   17.2732   30.2745   13.7085 C   0  0  0  0  0  0  0  0  0  0  0  0
   16.4535   29.4196   12.7428 C   0  0  0  0  0  0  0  0  0  0  0  0
   16.4825   30.6278   14.9601 C   0  0  0  0  0  0  0  0  0  0  0  0
   20.9115   32.4200   15.5015 C   0  0  0  0  0  0  0  0  0  0  0  0
   19.7843   32.7469   16.3575 N   0  0  0  0  0  0  0  0  0  0  0  0
   18.6955   33.3550   15.8801 C   0  0  0  0  0  0  0  0  0  0  0  0
   18.4665   33.7382   14.7447 O   0  0  0  0  0  0  0  0  0  0  0  0
   19.8241   32.5143   17.3133 H   0  0  0  0  0  0  0  0  0  0  0  0
   17.7759   33.4973   16.8964 O   0  0  0  0  0  0  0  0  0  0  0  0
   16.5924   34.2723   16.6116 C   0  0  0  0  0  0  0  0  0  0  0  0
   15.4747   33.6745   17.4667 C   0  0  0  0  0  0  0  0  0  0  0  0
   15.6924   34.1790   18.7726 O   0  0  0  0  0  0  0  0  0  0  0  0
   16.2771   35.4666   18.6508 C   0  0  0  0  0  0  0  0  0  0  0  0
   17.4292   35.5131   19.4884 O   0  0  0  0  0  0  0  0  0  0  0  0
   18.6124   35.7210   18.6859 C   0  0  0  0  0  0  0  0  0  0  0  0
   18.1035   36.2401   17.3168 C   0  0  0  0  0  0  0  0  0  0  0  0
   16.7244   35.6762   17.2279 C   0  0  0  0  0  0  0  0  0  0  0  0
   22.2066   32.6638   16.3064 C   0  0  0  0  0  0  0  0  0  0  0  0
   22.4402   34.2320   18.2830 C   0  0  0  0  0  0  0  0  0  0  0  0
   22.4602   35.5144   18.8231 C   0  0  0  0  0  0  0  0  0  0  0  0
   22.2446   36.6278   18.0305 C   0  0  0  0  0  0  0  0  0  0  0  0
   22.0716   36.4404   16.6513 C   0  0  0  0  0  0  0  0  0  0  0  0
   22.0473   35.1850   16.0791 C   0  0  0  0  0  0  0  0  0  0  0  0
   22.2439   34.0540   16.9003 C   0  0  0  0  0  0  0  0  0  0  0  0
  9 10  1  0  0  0
 10 11  2  0  0  0
 10 15  1  0  0  0
 11 12  1  0  0  0
 12 13  2  0  0  0
 13 14  1  0  0  0
 13  6  1  0  0  0
 14 15  2  0  0  0
  6  7  2  0  0  0
  6  8  2  0  0  0
  6  5  1  0  0  0
  5 18  1  0  0  0
  5  4  1  0  0  0
 18 19  1  0  0  0
 19 20  1  0  0  0
 19 21  1  0  0  0
  4  1  1  0  0  0
  1  2  1  0  0  0
  1 22  1  0  0  0
 22 23  1  0  0  0
 22 36  1  0  0  0
 23 24  1  0  0  0
 24 25  2  0  0  0
 24 27  1  0  0  0
 27 28  1  0  0  0
 28 29  1  0  0  0
 28 35  1  0  0  0
 29 30  1  0  0  0
 30 31  1  0  0  0
 31 32  1  0  0  0
 31 35  1  0  0  0
 32 33  1  0  0  0
 33 34  1  0  0  0
 34 35  1  0  0  0
 36 42  1  0  0  0
 37 38  2  0  0  0
 37 42  1  0  0  0
 38 39  1  0  0  0
 39 40  2  0  0  0
 40 41  1  0  0  0
 41 42  2  0  0  0
  9 16  1  0  0  0
  9 17  1  0  0  0
  2  3  1  0  0  0
 23 26  1  0  0  0
M  END
> <minimizedAffinity>
-8.65149

$$$$
2IDW_017_B_401


 42 45  0  0  0  0  0  0  0  0999 V2000
   20.9290   31.2840   15.7457 C   0  0  0  0  0  0  0  0  0  0  0  0
   22.2517   30.7093   15.7621 O   0  0  0  0  0  0  0  0  0  0  0  0
   22.7973   31.1342   15.0819 H   0  0  0  0  0  0  0  0  0  0  0  0
   20.3425   30.9819   14.3376 C   0  0  0  0  0  0  0  0  0  0  0  0
   19.2235   29.9963   14.5330 N   0  0  0  0  0  0  0  0  0  0  0  0
   19.6744   28.3645   14.6626 S   0  0  0  0  0  0  0  0  0  0  0  0
   18.4408   27.5537   14.6610 O   0  0  0  0  0  0  0  0  0  0  0  0
   20.5449   28.3091   15.8421 O   0  0  0  0  0  0  0  0  0  0  0  0
   23.2909   26.5347   10.3018 N   0  0  0  0  0  0  0  0  0  0  0  0
   22.5191   27.0156   11.3178 C   0  0  0  0  0  0  0  0  0  0  0  0
   23.0768   27.6705   12.4431 C   0  0  0  0  0  0  0  0  0  0  0  0
   22.2229   28.1064   13.4756 C   0  0  0  0  0  0  0  0  0  0  0  0
   20.8288   27.8917   13.3347 C   0  0  0  0  0  0  0  0  0  0  0  0
   20.2997   27.2242   12.2516 C   0  0  0  0  0  0  0  0  0  0  0  0
   21.1453   26.8239   11.2092 C   0  0  0  0  0  0  0  0  0  0  0  0
   24.2687   26.6452   10.3317 H   0  0  0  0  0  0  0  0  0  0  0  0
   22.8703   26.0770    9.5384 H   0  0  0  0  0  0  0  0  0  0  0  0
   18.0927   30.3893   15.3945 C   0  0  0  0  0  0  0  0  0  0  0  0
   16.9235   30.9689   14.5946 C   0  0  0  0  0  0  0  0  0  0  0  0
   16.5287   29.9921   13.4876 C   0  0  0  0  0  0  0  0  0  0  0  0
   15.7764   31.2174   15.5636 C   0  0  0  0  0  0  0  0  0  0  0  0
   20.9932   32.7639   16.1285 C   0  0  0  0  0  0  0  0  0  0  0  0
   19.8172   33.1047   16.9103 N   0  0  0  0  0  0  0  0  0  0  0  0
   18.7378   33.6544   16.3482 C   0  0  0  0  0  0  0  0  0  0  0  0
   18.5550   33.9683   15.1836 O   0  0  0  0  0  0  0  0  0  0  0  0
   19.8160   32.9259   17.8784 H   0  0  0  0  0  0  0  0  0  0  0  0
   17.7660   33.8257   17.3100 O   0  0  0  0  0  0  0  0  0  0  0  0
   16.5665   34.5261   16.9187 C   0  0  0  0  0  0  0  0  0  0  0  0
   15.4524   34.0052   17.8271 C   0  0  0  0  0  0  0  0  0  0  0  0
   15.6365   34.6709   19.0642 O   0  0  0  0  0  0  0  0  0  0  0  0
   16.1881   35.9502   18.7929 C   0  0  0  0  0  0  0  0  0  0  0  0
   17.3256   36.1312   19.6323 O   0  0  0  0  0  0  0  0  0  0  0  0
   18.5149   36.2736   18.8245 C   0  0  0  0  0  0  0  0  0  0  0  0
   18.0132   36.6075   17.3963 C   0  0  0  0  0  0  0  0  0  0  0  0
   16.6513   35.9978   17.3605 C   0  0  0  0  0  0  0  0  0  0  0  0
   22.2406   33.1545   16.9507 C   0  0  0  0  0  0  0  0  0  0  0  0
   22.0467   35.6241   16.4173 C   0  0  0  0  0  0  0  0  0  0  0  0
   22.0228   36.9569   16.8167 C   0  0  0  0  0  0  0  0  0  0  0  0
   22.1923   37.3091   18.1439 C   0  0  0  0  0  0  0  0  0  0  0  0
   22.3221   36.2851   19.0936 C   0  0  0  0  0  0  0  0  0  0  0  0
   22.3488   34.9526   18.7363 C   0  0  0  0  0  0  0  0  0  0  0  0
   22.1994   34.6050   17.3765 C   0  0  0  0  0  0  0  0  0  0  0  0
  9 10  1  0  0  0
 10 11  2  0  0  0
 10 15  1  0  0  0
 11 12  1  0  0  0
 12 13  2  0  0  0
 13 14  1  0  0  0
 13  6  1  0  0  0
 14 15  2  0  0  0
  6  7  2  0  0  0
  6  8  2  0  0  0
  6  5  1  0  0  0
  5 18  1  0  0  0
  5  4  1  0  0  0
 18 19  1  0  0  0
 19 20  1  0  0  0
 19 21  1  0  0  0
  4  1  1  0  0  0
  1  2  1  0  0  0
  1 22  1  0  0  0
 22 23  1  0  0  0
 22 36  1  0  0  0
 23 24  1  0  0  0
 24 25  2  0  0  0
 24 27  1  0  0  0
 27 28  1  0  0  0
 28 29  1  0  0  0
 28 35  1  0  0  0
 29 30  1  0  0  0
 30 31  1  0  0  0
 31 32  1  0  0  0
 31 35  1  0  0  0
 32 33  1  0  0  0
 33 34  1  0  0  0
 34 35  1  0  0  0
 36 42  1  0  0  0
 37 38  2  0  0  0
 37 42  1  0  0  0
 38 39  1  0  0  0
 39 40  2  0  0  0
 40 41  1  0  0  0
 41 42  2  0  0  0
  9 16  1  0  0  0
  9 17  1  0  0  0
  2  3  1  0  0  0
 23 26  1  0  0  0
M  END
> <minimizedAffinity>
-8.64290

$$$$
2IDW_017_B_401


 42 45  0  0  0  0  0  0  0  0999 V2000
   18.5335   29.9558   14.6995 C   0  0  0  0  0  0  0  0  0  0  0  0
   17.3999   29.7657   15.5707 O   0  0  0  0  0  0  0  0  0  0  0  0
   17.7093   29.4979   16.4501 H   0  0  0  0  0  0  0  0  0  0  0  0
   19.2461   28.5768   14.6081 C   0  0  0  0  0  0  0  0  0  0  0  0
   19.6687   28.3978   13.1758 N   0  0  0  0  0  0  0  0  0  0  0  0
   18.5231   27.6968   12.1372 S   0  0  0  0  0  0  0  0  0  0  0  0
   17.9392   28.7753   11.3154 O   0  0  0  0  0  0  0  0  0  0  0  0
   17.6348   26.9330   13.0202 O   0  0  0  0  0  0  0  0  0  0  0  0
   21.2407   23.4345    8.9924 N   0  0  0  0  0  0  0  0  0  0  0  0
   20.5523   24.4045    9.6588 C   0  0  0  0  0  0  0  0  0  0  0  0
   19.6208   25.2500    9.0080 C   0  0  0  0  0  0  0  0  0  0  0  0
   18.9747   26.2582    9.7503 C   0  0  0  0  0  0  0  0  0  0  0  0
   19.2670   26.3713   11.1328 C   0  0  0  0  0  0  0  0  0  0  0  0
   20.1992   25.5652   11.7492 C   0  0  0  0  0  0  0  0  0  0  0  0
   20.8136   24.5401   11.0186 C   0  0  0  0  0  0  0  0  0  0  0  0
   21.0915   23.2986    8.0288 H   0  0  0  0  0  0  0  0  0  0  0  0
   21.8871   22.8699    9.4749 H   0  0  0  0  0  0  0  0  0  0  0  0
   20.4921   29.4530   12.5564 C   0  0  0  0  0  0  0  0  0  0  0  0
   21.9863   29.1229   12.5904 C   0  0  0  0  0  0  0  0  0  0  0  0
   22.2756   28.1876   13.7638 C   0  0  0  0  0  0  0  0  0  0  0  0
   22.3511   28.4856   11.2573 C   0  0  0  0  0  0  0  0  0  0  0  0
   19.3986   31.1117   15.2059 C   0  0  0  0  0  0  0  0  0  0  0  0
   18.5768   32.0092   15.9991 N   0  0  0  0  0  0  0  0  0  0  0  0
   18.6051   33.3315   15.8149 C   0  0  0  0  0  0  0  0  0  0  0  0
   19.2792   33.9830   15.0341 O   0  0  0  0  0  0  0  0  0  0  0  0
   17.9842   31.6333   16.6897 H   0  0  0  0  0  0  0  0  0  0  0  0
   17.6985   33.9252   16.6659 O   0  0  0  0  0  0  0  0  0  0  0  0
   16.4142   34.2852   16.1149 C   0  0  0  0  0  0  0  0  0  0  0  0
   15.4521   33.1633   16.5063 C   0  0  0  0  0  0  0  0  0  0  0  0
   15.1244   33.4079   17.8629 O   0  0  0  0  0  0  0  0  0  0  0  0
   15.1619   34.8109   18.0743 C   0  0  0  0  0  0  0  0  0  0  0  0
   15.9573   35.0657   19.2291 O   0  0  0  0  0  0  0  0  0  0  0  0
   17.1189   35.8432   18.8641 C   0  0  0  0  0  0  0  0  0  0  0  0
   16.7991   36.4449   17.4717 C   0  0  0  0  0  0  0  0  0  0  0  0
   15.8239   35.4734   16.8947 C   0  0  0  0  0  0  0  0  0  0  0  0
   20.5993   30.6747   16.0730 C   0  0  0  0  0  0  0  0  0  0  0  0
   22.0739   32.4813   17.0644 C   0  0  0  0  0  0  0  0  0  0  0  0
   23.1243   33.3881   16.9597 C   0  0  0  0  0  0  0  0  0  0  0  0
   23.8341   33.5273   15.7802 C   0  0  0  0  0  0  0  0  0  0  0  0
   23.5151   32.6825   14.7070 C   0  0  0  0  0  0  0  0  0  0  0  0
   22.4820   31.7704   14.7735 C   0  0  0  0  0  0  0  0  0  0  0  0
   21.7480   31.6533   15.9734 C   0  0  0  0  0  0  0  0  0  0  0  0
  9 10  1  0  0  0
 10 11  2  0  0  0
 10 15  1  0  0  0
 11 12  1  0  0  0
 12 13  2  0  0  0
 13 14  1  0  0  0
 13  6  1  0  0  0
 14 15  2  0  0  0
  6  7  2  0  0  0
  6  8  2  0  0  0
  6  5  1  0  0  0
  5 18  1  0  0  0
  5  4  1  0  0  0
 18 19  1  0  0  0
 19 20  1  0  0  0
 19 21  1  0  0  0
  4  1  1  0  0  0
  1  2  1  0  0  0
  1 22  1  0  0  0
 22 23  1  0  0  0
 22 36  1  0  0  0
 23 24  1  0  0  0
 24 25  2  0  0  0
 24 27  1  0  0  0
 27 28  1  0  0  0
 28 29  1  0  0  0
 28 35  1  0  0  0
 29 30  1  0  0  0
 30 31  1  0  0  0
 31 32  1  0  0  0
 31 35  1  0  0  0
 32 33  1  0  0  0
 33 34  1  0  0  0
 34 35  1  0  0  0
 36 42  1  0  0  0
 37 38  2  0  0  0
 37 42  1  0  0  0
 38 39  1  0  0  0
 39 40  2  0  0  0
 40 41  1  0  0  0
 41 42  2  0  0  0
  9 16  1  0  0  0
  9 17  1  0  0  0
  2  3  1  0  0  0
 23 26  1  0  0  0
M  END
> <minimizedAffinity>
-8.59859

$$$$
2IDW_017_B_401


 42 45  0  0  0  0  0  0  0  0999 V2000
   17.5228   30.1657   14.4912 C   0  0  0  0  0  0  0  0  0  0  0  0
   16.3716   30.1506   13.6227 O   0  0  0  0  0  0  0  0  0  0  0  0
   15.6953   29.5616   13.9924 H   0  0  0  0  0  0  0  0  0  0  0  0
   18.0591   28.7065   14.5257 C   0  0  0  0  0  0  0  0  0  0  0  0
   19.2057   28.6396   13.5547 N   0  0  0  0  0  0  0  0  0  0  0  0
   18.9611   27.6902   12.1685 S   0  0  0  0  0  0  0  0  0  0  0  0
   18.4441   28.5716   11.1031 O   0  0  0  0  0  0  0  0  0  0  0  0
   18.1216   26.5756   12.6213 O   0  0  0  0  0  0  0  0  0  0  0  0
   23.9015   24.6490   10.8320 N   0  0  0  0  0  0  0  0  0  0  0  0
   22.7991   25.4090   11.0890 C   0  0  0  0  0  0  0  0  0  0  0  0
   22.8423   26.8248   11.0864 C   0  0  0  0  0  0  0  0  0  0  0  0
   21.6740   27.5470   11.4003 C   0  0  0  0  0  0  0  0  0  0  0  0
   20.4887   26.8233   11.6847 C   0  0  0  0  0  0  0  0  0  0  0  0
   20.4655   25.4459   11.7169 C   0  0  0  0  0  0  0  0  0  0  0  0
   21.6178   24.7295   11.3692 C   0  0  0  0  0  0  0  0  0  0  0  0
   24.7616   25.0824   10.6282 H   0  0  0  0  0  0  0  0  0  0  0  0
   23.8374   23.6667   10.8504 H   0  0  0  0  0  0  0  0  0  0  0  0
   19.9967   29.8635   13.3270 C   0  0  0  0  0  0  0  0  0  0  0  0
   21.1953   29.9683   14.2731 C   0  0  0  0  0  0  0  0  0  0  0  0
   21.6070   28.5700   14.7318 C   0  0  0  0  0  0  0  0  0  0  0  0
   22.3184   30.6700   13.5231 C   0  0  0  0  0  0  0  0  0  0  0  0
   17.1496   30.7621   15.8498 C   0  0  0  0  0  0  0  0  0  0  0  0
   18.1833   31.6971   16.2592 N   0  0  0  0  0  0  0  0  0  0  0  0
   19.2654   31.2950   16.9305 C   0  0  0  0  0  0  0  0  0  0  0  0
   19.5578   30.1743   17.3139 O   0  0  0  0  0  0  0  0  0  0  0  0
   18.0836   32.6508   16.0362 H   0  0  0  0  0  0  0  0  0  0  0  0
   20.0916   32.3768   17.1443 O   0  0  0  0  0  0  0  0  0  0  0  0
   19.5803   33.6782   16.7875 C   0  0  0  0  0  0  0  0  0  0  0  0
   19.3777   34.4325   18.1019 C   0  0  0  0  0  0  0  0  0  0  0  0
   20.6707   34.8632   18.4890 O   0  0  0  0  0  0  0  0  0  0  0  0
   21.4238   35.0972   17.3089 C   0  0  0  0  0  0  0  0  0  0  0  0
   22.6705   34.4181   17.4349 O   0  0  0  0  0  0  0  0  0  0  0  0
   22.7843   33.4054   16.4109 C   0  0  0  0  0  0  0  0  0  0  0  0
   21.7173   33.7656   15.3456 C   0  0  0  0  0  0  0  0  0  0  0  0
   20.6911   34.5151   16.1287 C   0  0  0  0  0  0  0  0  0  0  0  0
   15.7984   31.5095   15.8665 C   0  0  0  0  0  0  0  0  0  0  0  0
   16.5185   33.7859   15.0181 C   0  0  0  0  0  0  0  0  0  0  0  0
   16.6979   35.1532   15.2049 C   0  0  0  0  0  0  0  0  0  0  0  0
   16.4013   35.7548   16.4151 C   0  0  0  0  0  0  0  0  0  0  0  0
   15.8491   34.9649   17.4341 C   0  0  0  0  0  0  0  0  0  0  0  0
   15.6551   33.6068   17.2857 C   0  0  0  0  0  0  0  0  0  0  0  0
   15.9839   32.9984   16.0553 C   0  0  0  0  0  0  0  0  0  0  0  0
  9 10  1  0  0  0
 10 11  2  0  0  0
 10 15  1  0  0  0
 11 12  1  0  0  0
 12 13  2  0  0  0
 13 14  1  0  0  0
 13  6  1  0  0  0
 14 15  2  0  0  0
  6  7  2  0  0  0
  6  8  2  0  0  0
  6  5  1  0  0  0
  5 18  1  0  0  0
  5  4  1  0  0  0
 18 19  1  0  0  0
 19 20  1  0  0  0
 19 21  1  0  0  0
  4  1  1  0  0  0
  1  2  1  0  0  0
  1 22  1  0  0  0
 22 23  1  0  0  0
 22 36  1  0  0  0
 23 24  1  0  0  0
 24 25  2  0  0  0
 24 27  1  0  0  0
 27 28  1  0  0  0
 28 29  1  0  0  0
 28 35  1  0  0  0
 29 30  1  0  0  0
 30 31  1  0  0  0
 31 32  1  0  0  0
 31 35  1  0  0  0
 32 33  1  0  0  0
 33 34  1  0  0  0
 34 35  1  0  0  0
 36 42  1  0  0  0
 37 38  2  0  0  0
 37 42  1  0  0  0
 38 39  1  0  0  0
 39 40  2  0  0  0
 40 41  1  0  0  0
 41 42  2  0  0  0
  9 16  1  0  0  0
  9 17  1  0  0  0
  2  3  1  0  0  0
 23 26  1  0  0  0
M  END
> <minimizedAffinity>
-8.57353

$$$$
2IDW_017_B_401


 42 45  0  0  0  0  0  0  0  0999 V2000
   19.4924   32.4343   15.6868 C   0  0  0  0  0  0  0  0  0  0  0  0
   19.1426   32.2838   17.0778 O   0  0  0  0  0  0  0  0  0  0  0  0
   18.5348   32.9940   17.3370 H   0  0  0  0  0  0  0  0  0  0  0  0
   20.2088   33.8091   15.5661 C   0  0  0  0  0  0  0  0  0  0  0  0
   21.5627   33.6533   16.2023 N   0  0  0  0  0  0  0  0  0  0  0  0
   21.9765   34.8056   17.3786 S   0  0  0  0  0  0  0  0  0  0  0  0
   23.0079   35.6899   16.8011 O   0  0  0  0  0  0  0  0  0  0  0  0
   22.3177   34.0195   18.5692 O   0  0  0  0  0  0  0  0  0  0  0  0
   17.3725   38.0421   19.3205 N   0  0  0  0  0  0  0  0  0  0  0  0
   18.3772   37.2316   18.8816 C   0  0  0  0  0  0  0  0  0  0  0  0
   18.4769   35.8744   19.2745 C   0  0  0  0  0  0  0  0  0  0  0  0
   19.5644   35.1056   18.8146 C   0  0  0  0  0  0  0  0  0  0  0  0
   20.5082   35.7187   17.9528 C   0  0  0  0  0  0  0  0  0  0  0  0
   20.4201   37.0487   17.6032 C   0  0  0  0  0  0  0  0  0  0  0  0
   19.3194   37.8017   18.0313 C   0  0  0  0  0  0  0  0  0  0  0  0
   16.6809   37.6861   19.9241 H   0  0  0  0  0  0  0  0  0  0  0  0
   17.3385   38.9833   19.0339 H   0  0  0  0  0  0  0  0  0  0  0  0
   22.0453   32.2887   16.4855 C   0  0  0  0  0  0  0  0  0  0  0  0
   23.0244   31.7835   15.4229 C   0  0  0  0  0  0  0  0  0  0  0  0
   22.3431   30.7156   14.5680 C   0  0  0  0  0  0  0  0  0  0  0  0
   23.4622   32.9794   14.5895 C   0  0  0  0  0  0  0  0  0  0  0  0
   18.2509   32.2597   14.8099 C   0  0  0  0  0  0  0  0  0  0  0  0
   18.4526   31.1302   13.9189 N   0  0  0  0  0  0  0  0  0  0  0  0
   19.2686   31.2068   12.8646 C   0  0  0  0  0  0  0  0  0  0  0  0
   19.9239   32.1568   12.4691 O   0  0  0  0  0  0  0  0  0  0  0  0
   17.9759   30.2873   14.0968 H   0  0  0  0  0  0  0  0  0  0  0  0
   19.3027   29.9838   12.2307 O   0  0  0  0  0  0  0  0  0  0  0  0
   18.3909   28.9700   12.7032 C   0  0  0  0  0  0  0  0  0  0  0  0
   17.4537   28.6609   11.5354 C   0  0  0  0  0  0  0  0  0  0  0  0
   18.1988   27.8227   10.6696 O   0  0  0  0  0  0  0  0  0  0  0  0
   19.0899   27.0562   11.4652 C   0  0  0  0  0  0  0  0  0  0  0  0
   20.3947   27.1651   10.9024 O   0  0  0  0  0  0  0  0  0  0  0  0
   21.2855   27.8005   11.8457 C   0  0  0  0  0  0  0  0  0  0  0  0
   20.5772   27.7031   13.2211 C   0  0  0  0  0  0  0  0  0  0  0  0
   19.1315   27.6298   12.8573 C   0  0  0  0  0  0  0  0  0  0  0  0
   16.9450   32.0170   15.5976 C   0  0  0  0  0  0  0  0  0  0  0  0
   16.7192   34.5408   15.6095 C   0  0  0  0  0  0  0  0  0  0  0  0
   16.2252   35.7157   16.1683 C   0  0  0  0  0  0  0  0  0  0  0  0
   15.4575   35.6926   17.3192 C   0  0  0  0  0  0  0  0  0  0  0  0
   15.1290   34.4480   17.8761 C   0  0  0  0  0  0  0  0  0  0  0  0
   15.5986   33.2621   17.3498 C   0  0  0  0  0  0  0  0  0  0  0  0
   16.4014   33.2980   16.1895 C   0  0  0  0  0  0  0  0  0  0  0  0
  9 10  1  0  0  0
 10 11  2  0  0  0
 10 15  1  0  0  0
 11 12  1  0  0  0
 12 13  2  0  0  0
 13 14  1  0  0  0
 13  6  1  0  0  0
 14 15  2  0  0  0
  6  7  2  0  0  0
  6  8  2  0  0  0
  6  5  1  0  0  0
  5 18  1  0  0  0
  5  4  1  0  0  0
 18 19  1  0  0  0
 19 20  1  0  0  0
 19 21  1  0  0  0
  4  1  1  0  0  0
  1  2  1  0  0  0
  1 22  1  0  0  0
 22 23  1  0  0  0
 22 36  1  0  0  0
 23 24  1  0  0  0
 24 25  2  0  0  0
 24 27  1  0  0  0
 27 28  1  0  0  0
 28 29  1  0  0  0
 28 35  1  0  0  0
 29 30  1  0  0  0
 30 31  1  0  0  0
 31 32  1  0  0  0
 31 35  1  0  0  0
 32 33  1  0  0  0
 33 34  1  0  0  0
 34 35  1  0  0  0
 36 42  1  0  0  0
 37 38  2  0  0  0
 37 42  1  0  0  0
 38 39  1  0  0  0
 39 40  2  0  0  0
 40 41  1  0  0  0
 41 42  2  0  0  0
  9 16  1  0  0  0
  9 17  1  0  0  0
  2  3  1  0  0  0
 23 26  1  0  0  0
M  END
> <minimizedAffinity>
-8.54619

$$$$
2IDW_017_B_401


 42 45  0  0  0  0  0  0  0  0999 V2000
   17.6376   29.5457   14.6011 C   0  0  0  0  0  0  0  0  0  0  0  0
   18.3739   28.4819   15.2384 O   0  0  0  0  0  0  0  0  0  0  0  0
   19.2478   28.8079   15.5045 H   0  0  0  0  0  0  0  0  0  0  0  0
   18.4558   29.9446   13.3404 C   0  0  0  0  0  0  0  0  0  0  0  0
   19.0189   28.6741   12.7653 N   0  0  0  0  0  0  0  0  0  0  0  0
   17.9787   27.7755   11.7688 S   0  0  0  0  0  0  0  0  0  0  0  0
   17.4069   28.6961   10.7663 O   0  0  0  0  0  0  0  0  0  0  0  0
   17.0655   27.0975   12.6953 O   0  0  0  0  0  0  0  0  0  0  0  0
   20.6073   23.1785    9.0482 N   0  0  0  0  0  0  0  0  0  0  0  0
   20.0458   24.2086    9.7430 C   0  0  0  0  0  0  0  0  0  0  0  0
   19.7940   24.1305   11.1347 C   0  0  0  0  0  0  0  0  0  0  0  0
   19.1739   25.2178   11.7814 C   0  0  0  0  0  0  0  0  0  0  0  0
   18.8464   26.3631   11.0128 C   0  0  0  0  0  0  0  0  0  0  0  0
   19.0655   26.4159    9.6535 C   0  0  0  0  0  0  0  0  0  0  0  0
   19.7148   25.3495    9.0187 C   0  0  0  0  0  0  0  0  0  0  0  0
   20.8594   22.3494    9.5153 H   0  0  0  0  0  0  0  0  0  0  0  0
   20.7606   23.2639    8.0795 H   0  0  0  0  0  0  0  0  0  0  0  0
   20.4309   28.6694   12.3390 C   0  0  0  0  0  0  0  0  0  0  0  0
   21.3113   27.8054   13.2452 C   0  0  0  0  0  0  0  0  0  0  0  0
   22.4666   27.2246   12.4307 C   0  0  0  0  0  0  0  0  0  0  0  0
   21.8090   28.6845   14.3836 C   0  0  0  0  0  0  0  0  0  0  0  0
   17.3740   30.6749   15.5993 C   0  0  0  0  0  0  0  0  0  0  0  0
   18.5174   31.5706   15.6174 N   0  0  0  0  0  0  0  0  0  0  0  0
   19.5871   31.3254   16.3783 C   0  0  0  0  0  0  0  0  0  0  0  0
   19.7842   30.4011   17.1498 O   0  0  0  0  0  0  0  0  0  0  0  0
   18.5034   32.3784   15.0548 H   0  0  0  0  0  0  0  0  0  0  0  0
   20.5291   32.3077   16.1624 O   0  0  0  0  0  0  0  0  0  0  0  0
   21.8312   32.1146   16.7538 C   0  0  0  0  0  0  0  0  0  0  0  0
   22.8199   32.0294   15.5907 C   0  0  0  0  0  0  0  0  0  0  0  0
   23.0242   33.3682   15.1746 O   0  0  0  0  0  0  0  0  0  0  0  0
   22.8921   34.2039   16.3141 C   0  0  0  0  0  0  0  0  0  0  0  0
   21.9941   35.2616   15.9884 O   0  0  0  0  0  0  0  0  0  0  0  0
   20.8240   35.1905   16.8326 C   0  0  0  0  0  0  0  0  0  0  0  0
   21.2199   34.2767   18.0206 C   0  0  0  0  0  0  0  0  0  0  0  0
   22.2905   33.4108   17.4445 C   0  0  0  0  0  0  0  0  0  0  0  0
   16.1159   31.5156   15.2906 C   0  0  0  0  0  0  0  0  0  0  0  0
   15.6043   32.9453   17.3192 C   0  0  0  0  0  0  0  0  0  0  0  0
   15.6140   34.1713   17.9774 C   0  0  0  0  0  0  0  0  0  0  0  0
   16.0975   35.3110   17.3597 C   0  0  0  0  0  0  0  0  0  0  0  0
   16.6432   35.1910   16.0732 C   0  0  0  0  0  0  0  0  0  0  0  0
   16.6528   33.9925   15.3895 C   0  0  0  0  0  0  0  0  0  0  0  0
   16.1348   32.8405   16.0193 C   0  0  0  0  0  0  0  0  0  0  0  0
  9 10  1  0  0  0
 10 11  2  0  0  0
 10 15  1  0  0  0
 11 12  1  0  0  0
 12 13  2  0  0  0
 13 14  1  0  0  0
 13  6  1  0  0  0
 14 15  2  0  0  0
  6  7  2  0  0  0
  6  8  2  0  0  0
  6  5  1  0  0  0
  5 18  1  0  0  0
  5  4  1  0  0  0
 18 19  1  0  0  0
 19 20  1  0  0  0
 19 21  1  0  0  0
  4  1  1  0  0  0
  1  2  1  0  0  0
  1 22  1  0  0  0
 22 23  1  0  0  0
 22 36  1  0  0  0
 23 24  1  0  0  0
 24 25  2  0  0  0
 24 27  1  0  0  0
 27 28  1  0  0  0
 28 29  1  0  0  0
 28 35  1  0  0  0
 29 30  1  0  0  0
 30 31  1  0  0  0
 31 32  1  0  0  0
 31 35  1  0  0  0
 32 33  1  0  0  0
 33 34  1  0  0  0
 34 35  1  0  0  0
 36 42  1  0  0  0
 37 38  2  0  0  0
 37 42  1  0  0  0
 38 39  1  0  0  0
 39 40  2  0  0  0
 40 41  1  0  0  0
 41 42  2  0  0  0
  9 16  1  0  0  0
  9 17  1  0  0  0
  2  3  1  0  0  0
 23 26  1  0  0  0
M  END
> <minimizedAffinity>
-8.41353

$$$$
2IDW_017_B_401


 42 45  0  0  0  0  0  0  0  0999 V2000
   21.2046   30.5715   15.0659 C   0  0  0  0  0  0  0  0  0  0  0  0
   20.7522   30.4320   16.4283 O   0  0  0  0  0  0  0  0  0  0  0  0
   19.8185   30.6884   16.4867 H   0  0  0  0  0  0  0  0  0  0  0  0
   21.0501   32.0772   14.7097 C   0  0  0  0  0  0  0  0  0  0  0  0
   21.0017   32.8308   16.0104 N   0  0  0  0  0  0  0  0  0  0  0  0
   22.4987   33.2757   16.6764 S   0  0  0  0  0  0  0  0  0  0  0  0
   23.4864   33.3164   15.5800 O   0  0  0  0  0  0  0  0  0  0  0  0
   22.7152   32.3296   17.7764 O   0  0  0  0  0  0  0  0  0  0  0  0
   22.3747   38.5391   19.4557 N   0  0  0  0  0  0  0  0  0  0  0  0
   22.3469   37.3049   18.8768 C   0  0  0  0  0  0  0  0  0  0  0  0
   22.0854   36.1287   19.6214 C   0  0  0  0  0  0  0  0  0  0  0  0
   22.1121   34.8820   18.9657 C   0  0  0  0  0  0  0  0  0  0  0  0
   22.3779   34.8568   17.5735 C   0  0  0  0  0  0  0  0  0  0  0  0
   22.6636   36.0036   16.8649 C   0  0  0  0  0  0  0  0  0  0  0  0
   22.6009   37.2452   17.5102 C   0  0  0  0  0  0  0  0  0  0  0  0
   22.2014   38.6344   20.4202 H   0  0  0  0  0  0  0  0  0  0  0  0
   22.5680   39.3349   18.9093 H   0  0  0  0  0  0  0  0  0  0  0  0
   19.9280   33.8242   16.1992 C   0  0  0  0  0  0  0  0  0  0  0  0
   18.8347   33.3287   17.1489 C   0  0  0  0  0  0  0  0  0  0  0  0
   18.5082   34.4219   18.1657 C   0  0  0  0  0  0  0  0  0  0  0  0
   17.6213   32.9597   16.3075 C   0  0  0  0  0  0  0  0  0  0  0  0
   20.4487   29.5993   14.1580 C   0  0  0  0  0  0  0  0  0  0  0  0
   21.3261   28.4960   13.8071 N   0  0  0  0  0  0  0  0  0  0  0  0
   22.0930   28.5313   12.7144 C   0  0  0  0  0  0  0  0  0  0  0  0
   22.1810   29.4043   11.8668 O   0  0  0  0  0  0  0  0  0  0  0  0
   21.3562   27.7026   14.3893 H   0  0  0  0  0  0  0  0  0  0  0  0
   22.8497   27.3811   12.6569 O   0  0  0  0  0  0  0  0  0  0  0  0
   23.6146   27.1540   11.4545 C   0  0  0  0  0  0  0  0  0  0  0  0
   24.8179   26.3062   11.8678 C   0  0  0  0  0  0  0  0  0  0  0  0
   24.3188   24.9867   11.9980 O   0  0  0  0  0  0  0  0  0  0  0  0
   23.2572   24.8285   11.0693 C   0  0  0  0  0  0  0  0  0  0  0  0
   22.1374   24.2836   11.7624 O   0  0  0  0  0  0  0  0  0  0  0  0
   21.0349   25.2165   11.7254 C   0  0  0  0  0  0  0  0  0  0  0  0
   21.3717   26.2176   10.5908 C   0  0  0  0  0  0  0  0  0  0  0  0
   22.8626   26.1789   10.5314 C   0  0  0  0  0  0  0  0  0  0  0  0
   19.1682   29.0075   14.7863 C   0  0  0  0  0  0  0  0  0  0  0  0
   18.1155   27.6993   12.8886 C   0  0  0  0  0  0  0  0  0  0  0  0
   17.1164   27.5300   11.9348 C   0  0  0  0  0  0  0  0  0  0  0  0
   16.1022   28.4596   11.7885 C   0  0  0  0  0  0  0  0  0  0  0  0
   16.0639   29.5483   12.6720 C   0  0  0  0  0  0  0  0  0  0  0  0
   17.0354   29.7491   13.6311 C   0  0  0  0  0  0  0  0  0  0  0  0
   18.0795   28.8075   13.7560 C   0  0  0  0  0  0  0  0  0  0  0  0
  9 10  1  0  0  0
 10 11  2  0  0  0
 10 15  1  0  0  0
 11 12  1  0  0  0
 12 13  2  0  0  0
 13 14  1  0  0  0
 13  6  1  0  0  0
 14 15  2  0  0  0
  6  7  2  0  0  0
  6  8  2  0  0  0
  6  5  1  0  0  0
  5 18  1  0  0  0
  5  4  1  0  0  0
 18 19  1  0  0  0
 19 20  1  0  0  0
 19 21  1  0  0  0
  4  1  1  0  0  0
  1  2  1  0  0  0
  1 22  1  0  0  0
 22 23  1  0  0  0
 22 36  1  0  0  0
 23 24  1  0  0  0
 24 25  2  0  0  0
 24 27  1  0  0  0
 27 28  1  0  0  0
 28 29  1  0  0  0
 28 35  1  0  0  0
 29 30  1  0  0  0
 30 31  1  0  0  0
 31 32  1  0  0  0
 31 35  1  0  0  0
 32 33  1  0  0  0
 33 34  1  0  0  0
 34 35  1  0  0  0
 36 42  1  0  0  0
 37 38  2  0  0  0
 37 42  1  0  0  0
 38 39  1  0  0  0
 39 40  2  0  0  0
 40 41  1  0  0  0
 41 42  2  0  0  0
  9 16  1  0  0  0
  9 17  1  0  0  0
  2  3  1  0  0  0
 23 26  1  0  0  0
M  END
> <minimizedAffinity>
-8.40366

$$$$
