3TWP_SAL_A_404


 12 12  0  0  0  0  0  0  0  0999 V2000
   48.3577   -5.4119   26.3639 C   0  0  0  0  0  0  0  0  0  0  0  0
   48.4216   -5.4126   27.7615 C   0  0  0  0  0  0  0  0  0  0  0  0
   49.4488   -6.1271   28.3806 C   0  0  0  0  0  0  0  0  0  0  0  0
   50.3658   -6.8367   27.5961 C   0  0  0  0  0  0  0  0  0  0  0  0
   50.3007   -6.8307   26.1936 C   0  0  0  0  0  0  0  0  0  0  0  0
   49.2811   -6.1110   25.5724 C   0  0  0  0  0  0  0  0  0  0  0  0
   47.4978   -4.7107   28.5154 O   0  0  0  0  0  0  0  0  0  0  0  0
   46.8118   -4.2341   28.0909 H   0  0  0  0  0  0  0  0  0  0  0  0
   47.2585   -4.6358   25.6691 C   0  0  0  0  0  0  0  0  0  0  0  0
   46.5078   -5.3146   24.9314 O   0  0  0  0  0  0  0  0  0  0  0  0
   47.1651   -3.3949   25.8930 O   0  0  0  0  0  0  0  0  0  0  0  0
   47.7780   -2.9744   26.4635 H   0  0  0  0  0  0  0  0  0  0  0  0
  9 10  2  0  0  0
  9 11  1  0  0  0
  9  1  1  0  0  0
  1  2  1  0  0  0
  1  6  2  0  0  0
  2  3  2  0  0  0
  2  7  1  0  0  0
  3  4  1  0  0  0
  4  5  2  0  0  0
  5  6  1  0  0  0
 11 12  1  0  0  0
  7  8  1  0  0  0
M  END
> <minimizedAffinity>
0.00000

$$$$
3TWP_SAL_A_404


 12 12  0  0  0  0  0  0  0  0999 V2000
   45.0741   -7.6326   26.9240 C   0  0  0  0  0  0  0  0  0  0  0  0
   46.2759   -7.2348   26.3287 C   0  0  0  0  0  0  0  0  0  0  0  0
   46.4765   -5.8764   26.0768 C   0  0  0  0  0  0  0  0  0  0  0  0
   45.4706   -4.9585   26.4018 C   0  0  0  0  0  0  0  0  0  0  0  0
   44.2673   -5.3609   27.0027 C   0  0  0  0  0  0  0  0  0  0  0  0
   44.0678   -6.7159   27.2633 C   0  0  0  0  0  0  0  0  0  0  0  0
   47.2513   -8.1623   26.0082 O   0  0  0  0  0  0  0  0  0  0  0  0
   47.1076   -9.0720   26.1810 H   0  0  0  0  0  0  0  0  0  0  0  0
   44.8375   -9.0995   27.2164 C   0  0  0  0  0  0  0  0  0  0  0  0
   43.8318   -9.6004   26.6632 O   0  0  0  0  0  0  0  0  0  0  0  0
   45.6613   -9.7044   27.9608 O   0  0  0  0  0  0  0  0  0  0  0  0
   46.3868   -9.2407   28.3306 H   0  0  0  0  0  0  0  0  0  0  0  0
  9 10  2  0  0  0
  9 11  1  0  0  0
  9  1  1  0  0  0
  1  2  1  0  0  0
  1  6  2  0  0  0
  2  3  2  0  0  0
  2  7  1  0  0  0
  3  4  1  0  0  0
  4  5  2  0  0  0
  5  6  1  0  0  0
 11 12  1  0  0  0
  7  8  1  0  0  0
M  END
> <minimizedAffinity>
0.00000

$$$$
3TWP_SAL_A_404


 12 12  0  0  0  0  0  0  0  0999 V2000
   48.9151   -4.5700   24.5170 C   0  0  0  0  0  0  0  0  0  0  0  0
   49.9148   -5.5299   24.3268 C   0  0  0  0  0  0  0  0  0  0  0  0
   50.5124   -5.6286   23.0690 C   0  0  0  0  0  0  0  0  0  0  0  0
   50.0844   -4.7887   22.0339 C   0  0  0  0  0  0  0  0  0  0  0  0
   49.0834   -3.8239   22.2295 C   0  0  0  0  0  0  0  0  0  0  0  0
   48.4908   -3.7173   23.4869 C   0  0  0  0  0  0  0  0  0  0  0  0
   50.3142   -6.3549   25.3632 O   0  0  0  0  0  0  0  0  0  0  0  0
   49.9072   -6.2813   26.2040 H   0  0  0  0  0  0  0  0  0  0  0  0
   48.2591   -4.4370   25.8754 C   0  0  0  0  0  0  0  0  0  0  0  0
   47.0185   -4.6082   25.8900 O   0  0  0  0  0  0  0  0  0  0  0  0
   48.9924   -4.1904   26.8754 O   0  0  0  0  0  0  0  0  0  0  0  0
   49.9157   -4.0776   26.7628 H   0  0  0  0  0  0  0  0  0  0  0  0
  9 10  2  0  0  0
  9 11  1  0  0  0
  9  1  1  0  0  0
  1  2  1  0  0  0
  1  6  2  0  0  0
  2  3  2  0  0  0
  2  7  1  0  0  0
  3  4  1  0  0  0
  4  5  2  0  0  0
  5  6  1  0  0  0
 11 12  1  0  0  0
  7  8  1  0  0  0
M  END
> <minimizedAffinity>
0.00000

$$$$
3TWP_SAL_A_404


 12 12  0  0  0  0  0  0  0  0999 V2000
   50.2045   -4.5214   27.5142 C   0  0  0  0  0  0  0  0  0  0  0  0
   50.1220   -3.2453   28.0815 C   0  0  0  0  0  0  0  0  0  0  0  0
   49.7922   -2.1694   27.2552 C   0  0  0  0  0  0  0  0  0  0  0  0
   49.5773   -2.3890   25.8894 C   0  0  0  0  0  0  0  0  0  0  0  0
   49.6573   -3.6717   25.3242 C   0  0  0  0  0  0  0  0  0  0  0  0
   49.9780   -4.7492   26.1486 C   0  0  0  0  0  0  0  0  0  0  0  0
   50.3478   -3.0524   29.4329 O   0  0  0  0  0  0  0  0  0  0  0  0
   50.5687   -3.7806   29.9795 H   0  0  0  0  0  0  0  0  0  0  0  0
   50.5507   -5.7057   28.3921 C   0  0  0  0  0  0  0  0  0  0  0  0
   51.5802   -6.3363   28.0592 O   0  0  0  0  0  0  0  0  0  0  0  0
   49.8086   -5.9551   29.3850 O   0  0  0  0  0  0  0  0  0  0  0  0
   49.0557   -5.4231   29.5526 H   0  0  0  0  0  0  0  0  0  0  0  0
  9 10  2  0  0  0
  9 11  1  0  0  0
  9  1  1  0  0  0
  1  2  1  0  0  0
  1  6  2  0  0  0
  2  3  2  0  0  0
  2  7  1  0  0  0
  3  4  1  0  0  0
  4  5  2  0  0  0
  5  6  1  0  0  0
 11 12  1  0  0  0
  7  8  1  0  0  0
M  END
> <minimizedAffinity>
0.00000

$$$$
3TWP_SAL_A_404


 12 12  0  0  0  0  0  0  0  0999 V2000
   47.3451   -1.1328   24.3760 C   0  0  0  0  0  0  0  0  0  0  0  0
   47.1188   -1.8081   25.5801 C   0  0  0  0  0  0  0  0  0  0  0  0
   45.8497   -1.7335   26.1570 C   0  0  0  0  0  0  0  0  0  0  0  0
   44.8524   -0.9734   25.5344 C   0  0  0  0  0  0  0  0  0  0  0  0
   45.0821   -0.3001   24.3240 C   0  0  0  0  0  0  0  0  0  0  0  0
   46.3460   -0.3799   23.7412 C   0  0  0  0  0  0  0  0  0  0  0  0
   48.1236   -2.5456   26.1810 O   0  0  0  0  0  0  0  0  0  0  0  0
   48.9722   -2.5898   25.7863 H   0  0  0  0  0  0  0  0  0  0  0  0
   48.7107   -1.2073   23.7256 C   0  0  0  0  0  0  0  0  0  0  0  0
   49.2831   -0.1066   23.5549 O   0  0  0  0  0  0  0  0  0  0  0  0
   49.1736   -2.3457   23.4285 O   0  0  0  0  0  0  0  0  0  0  0  0
   48.6667   -3.1158   23.5957 H   0  0  0  0  0  0  0  0  0  0  0  0
  9 10  2  0  0  0
  9 11  1  0  0  0
  9  1  1  0  0  0
  1  2  1  0  0  0
  1  6  2  0  0  0
  2  3  2  0  0  0
  2  7  1  0  0  0
  3  4  1  0  0  0
  4  5  2  0  0  0
  5  6  1  0  0  0
 11 12  1  0  0  0
  7  8  1  0  0  0
M  END
> <minimizedAffinity>
0.00000

$$$$
3TWP_SAL_A_404


 12 12  0  0  0  0  0  0  0  0999 V2000
   47.0056   -4.1612   30.3364 C   0  0  0  0  0  0  0  0  0  0  0  0
   46.8368   -3.0420   31.1586 C   0  0  0  0  0  0  0  0  0  0  0  0
   45.5394   -2.6001   31.4236 C   0  0  0  0  0  0  0  0  0  0  0  0
   44.4520   -3.2672   30.8468 C   0  0  0  0  0  0  0  0  0  0  0  0
   44.6250   -4.3923   30.0251 C   0  0  0  0  0  0  0  0  0  0  0  0
   45.9192   -4.8411   29.7658 C   0  0  0  0  0  0  0  0  0  0  0  0
   47.9282   -2.3941   31.7096 O   0  0  0  0  0  0  0  0  0  0  0  0
   48.7953   -2.6980   31.5260 H   0  0  0  0  0  0  0  0  0  0  0  0
   48.4029   -4.6657   30.0427 C   0  0  0  0  0  0  0  0  0  0  0  0
   48.7192   -4.6916   28.8312 O   0  0  0  0  0  0  0  0  0  0  0  0
   49.1396   -4.9960   31.0158 O   0  0  0  0  0  0  0  0  0  0  0  0
   48.8110   -4.9419   31.8916 H   0  0  0  0  0  0  0  0  0  0  0  0
  9 10  2  0  0  0
  9 11  1  0  0  0
  9  1  1  0  0  0
  1  2  1  0  0  0
  1  6  2  0  0  0
  2  3  2  0  0  0
  2  7  1  0  0  0
  3  4  1  0  0  0
  4  5  2  0  0  0
  5  6  1  0  0  0
 11 12  1  0  0  0
  7  8  1  0  0  0
M  END
> <minimizedAffinity>
0.00000

$$$$
3TWP_SAL_A_404


 12 12  0  0  0  0  0  0  0  0999 V2000
   49.0908   -2.3347   26.2607 C   0  0  0  0  0  0  0  0  0  0  0  0
   48.6614   -2.3073   24.9296 C   0  0  0  0  0  0  0  0  0  0  0  0
   49.3083   -3.1284   24.0043 C   0  0  0  0  0  0  0  0  0  0  0  0
   50.3747   -3.9330   24.4229 C   0  0  0  0  0  0  0  0  0  0  0  0
   50.8005   -3.9607   25.7605 C   0  0  0  0  0  0  0  0  0  0  0  0
   50.1506   -3.1482   26.6884 C   0  0  0  0  0  0  0  0  0  0  0  0
   47.6107   -1.4964   24.5384 O   0  0  0  0  0  0  0  0  0  0  0  0
   47.1826   -0.9486   25.1667 H   0  0  0  0  0  0  0  0  0  0  0  0
   48.3979   -1.4605   27.2849 C   0  0  0  0  0  0  0  0  0  0  0  0
   49.1362   -0.6379   27.8740 O   0  0  0  0  0  0  0  0  0  0  0  0
   47.1530   -1.6035   27.4535 O   0  0  0  0  0  0  0  0  0  0  0  0
   46.6851   -2.2503   26.9630 H   0  0  0  0  0  0  0  0  0  0  0  0
  9 10  2  0  0  0
  9 11  1  0  0  0
  9  1  1  0  0  0
  1  2  1  0  0  0
  1  6  2  0  0  0
  2  3  2  0  0  0
  2  7  1  0  0  0
  3  4  1  0  0  0
  4  5  2  0  0  0
  5  6  1  0  0  0
 11 12  1  0  0  0
  7  8  1  0  0  0
M  END
> <minimizedAffinity>
0.00000

$$$$
3TWP_SAL_A_404


 12 12  0  0  0  0  0  0  0  0999 V2000
   45.1720   -6.4973   30.1866 C   0  0  0  0  0  0  0  0  0  0  0  0
   46.4185   -5.9160   30.4426 C   0  0  0  0  0  0  0  0  0  0  0  0
   47.5177   -6.7551   30.6342 C   0  0  0  0  0  0  0  0  0  0  0  0
   47.3422   -8.1432   30.5889 C   0  0  0  0  0  0  0  0  0  0  0  0
   46.0905   -8.7230   30.3280 C   0  0  0  0  0  0  0  0  0  0  0  0
   44.9927   -7.8874   30.1277 C   0  0  0  0  0  0  0  0  0  0  0  0
   46.5647   -4.5410   30.4915 O   0  0  0  0  0  0  0  0  0  0  0  0
   45.8211   -3.9859   30.3617 H   0  0  0  0  0  0  0  0  0  0  0  0
   43.9667   -5.6077   29.9652 C   0  0  0  0  0  0  0  0  0  0  0  0
   43.0185   -5.7819   30.7646 O   0  0  0  0  0  0  0  0  0  0  0  0
   44.0095   -4.7599   29.0281 O   0  0  0  0  0  0  0  0  0  0  0  0
   44.7674   -4.7053   28.4799 H   0  0  0  0  0  0  0  0  0  0  0  0
  9 10  2  0  0  0
  9 11  1  0  0  0
  9  1  1  0  0  0
  1  2  1  0  0  0
  1  6  2  0  0  0
  2  3  2  0  0  0
  2  7  1  0  0  0
  3  4  1  0  0  0
  4  5  2  0  0  0
  5  6  1  0  0  0
 11 12  1  0  0  0
  7  8  1  0  0  0
M  END
> <minimizedAffinity>
0.00000

$$$$
3TWP_SAL_A_404


 12 12  0  0  0  0  0  0  0  0999 V2000
   47.2184   -6.6021   26.4760 C   0  0  0  0  0  0  0  0  0  0  0  0
   47.0546   -7.9831   26.3238 C   0  0  0  0  0  0  0  0  0  0  0  0
   46.4006   -8.6913   27.3336 C   0  0  0  0  0  0  0  0  0  0  0  0
   45.9504   -8.0122   28.4721 C   0  0  0  0  0  0  0  0  0  0  0  0
   46.1133   -6.6255   28.6197 C   0  0  0  0  0  0  0  0  0  0  0  0
   46.7584   -5.9144   27.6088 C   0  0  0  0  0  0  0  0  0  0  0  0
   47.5166   -8.6332   25.1931 O   0  0  0  0  0  0  0  0  0  0  0  0
   47.9544   -8.1494   24.5206 H   0  0  0  0  0  0  0  0  0  0  0  0
   47.9156   -5.8106   25.3893 C   0  0  0  0  0  0  0  0  0  0  0  0
   48.9418   -5.1914   25.7525 O   0  0  0  0  0  0  0  0  0  0  0  0
   47.4382   -5.8468   24.2191 O   0  0  0  0  0  0  0  0  0  0  0  0
   46.6613   -6.3409   24.0451 H   0  0  0  0  0  0  0  0  0  0  0  0
  9 10  2  0  0  0
  9 11  1  0  0  0
  9  1  1  0  0  0
  1  2  1  0  0  0
  1  6  2  0  0  0
  2  3  2  0  0  0
  2  7  1  0  0  0
  3  4  1  0  0  0
  4  5  2  0  0  0
  5  6  1  0  0  0
 11 12  1  0  0  0
  7  8  1  0  0  0
M  END
> <minimizedAffinity>
0.00000

$$$$
3TWP_SAL_A_404


 12 12  0  0  0  0  0  0  0  0999 V2000
   46.2072   -2.7051   24.2087 C   0  0  0  0  0  0  0  0  0  0  0  0
   44.8931   -2.8723   23.7587 C   0  0  0  0  0  0  0  0  0  0  0  0
   44.3518   -4.1591   23.7477 C   0  0  0  0  0  0  0  0  0  0  0  0
   45.1373   -5.2416   24.1610 C   0  0  0  0  0  0  0  0  0  0  0  0
   46.4545   -5.0696   24.6156 C   0  0  0  0  0  0  0  0  0  0  0  0
   46.9948   -3.7846   24.6358 C   0  0  0  0  0  0  0  0  0  0  0  0
   44.1398   -1.7874   23.3465 O   0  0  0  0  0  0  0  0  0  0  0  0
   44.5117   -0.9275   23.3575 H   0  0  0  0  0  0  0  0  0  0  0  0
   46.8129   -1.3176   24.2397 C   0  0  0  0  0  0  0  0  0  0  0  0
   47.8501   -1.1707   23.5532 O   0  0  0  0  0  0  0  0  0  0  0  0
   46.2331   -0.4236   24.9203 O   0  0  0  0  0  0  0  0  0  0  0  0
   45.4577   -0.6318   25.4035 H   0  0  0  0  0  0  0  0  0  0  0  0
  9 10  2  0  0  0
  9 11  1  0  0  0
  9  1  1  0  0  0
  1  2  1  0  0  0
  1  6  2  0  0  0
  2  3  2  0  0  0
  2  7  1  0  0  0
  3  4  1  0  0  0
  4  5  2  0  0  0
  5  6  1  0  0  0
 11 12  1  0  0  0
  7  8  1  0  0  0
M  END
> <minimizedAffinity>
0.00000

$$$$
