5L4J_6JD_A_201


 19 20  0  0  0  0  0  0  0  0999 V2000
  -42.0019   -2.1094   71.1681 O   0  0  0  0  0  0  0  0  0  0  0  0
  -42.6514   -0.9614   70.6347 S   0  0  0  0  0  0  0  0  0  0  0  0
  -44.0270   -1.0488   70.2852 O   0  0  0  0  0  0  0  0  0  0  0  0
  -42.4642    0.3271   71.8164 C   0  0  0  0  0  0  0  0  0  0  0  0
  -43.4516    1.3256   71.9615 C   0  0  0  0  0  0  0  0  0  0  0  0
  -43.2669    2.3393   72.9079 C   0  0  0  0  0  0  0  0  0  0  0  0
  -42.1178    2.3750   73.6875 C   0  0  0  0  0  0  0  0  0  0  0  0
  -41.9309    3.3744   74.6149 O   0  0  0  0  0  0  0  0  0  0  0  0
  -41.1393    1.3978   73.5394 C   0  0  0  0  0  0  0  0  0  0  0  0
  -41.3030    0.3736   72.6052 C   0  0  0  0  0  0  0  0  0  0  0  0
  -41.1525    3.3902   75.1362 H   0  0  0  0  0  0  0  0  0  0  0  0
  -41.7566   -0.4915   69.1955 C   0  0  0  0  0  0  0  0  0  0  0  0
  -41.1790   -1.4763   68.3729 C   0  0  0  0  0  0  0  0  0  0  0  0
  -40.4619   -1.0897   67.2317 C   0  0  0  0  0  0  0  0  0  0  0  0
  -40.3161    0.2564   66.9130 C   0  0  0  0  0  0  0  0  0  0  0  0
  -39.6136    0.6461   65.7963 O   0  0  0  0  0  0  0  0  0  0  0  0
  -40.8826    1.2289   67.7282 C   0  0  0  0  0  0  0  0  0  0  0  0
  -41.5960    0.8542   68.8648 C   0  0  0  0  0  0  0  0  0  0  0  0
  -39.2263    0.0012   65.2377 H   0  0  0  0  0  0  0  0  0  0  0  0
  8  7  1  0  0  0
  7  9  2  0  0  0
  7  6  1  0  0  0
  9 10  1  0  0  0
  6  5  2  0  0  0
 10  4  2  0  0  0
  5  4  1  0  0  0
  4  2  1  0  0  0
  2  3  2  0  0  0
  2  1  2  0  0  0
  2 12  1  0  0  0
 12 13  2  0  0  0
 12 18  1  0  0  0
 13 14  1  0  0  0
 18 17  2  0  0  0
 14 15  2  0  0  0
 17 15  1  0  0  0
 15 16  1  0  0  0
  8 11  1  0  0  0
 16 19  1  0  0  0
M  END
> <minimizedAffinity>
-7.26056

$$$$
5L4J_6JD_A_201


 19 20  0  0  0  0  0  0  0  0999 V2000
  -43.9172   -1.0983   69.9539 O   0  0  0  0  0  0  0  0  0  0  0  0
  -42.5754   -0.9553   70.4049 S   0  0  0  0  0  0  0  0  0  0  0  0
  -41.9185   -2.0784   70.9788 O   0  0  0  0  0  0  0  0  0  0  0  0
  -41.6288   -0.4082   69.0278 C   0  0  0  0  0  0  0  0  0  0  0  0
  -41.4616    0.9688   68.7652 C   0  0  0  0  0  0  0  0  0  0  0  0
  -40.7067    1.3682   67.6571 C   0  0  0  0  0  0  0  0  0  0  0  0
  -40.1392    0.4224   66.8129 C   0  0  0  0  0  0  0  0  0  0  0  0
  -39.4013    0.8126   65.7188 O   0  0  0  0  0  0  0  0  0  0  0  0
  -40.3108   -0.9347   67.0641 C   0  0  0  0  0  0  0  0  0  0  0  0
  -41.0557   -1.3579   68.1661 C   0  0  0  0  0  0  0  0  0  0  0  0
  -39.0224    0.1673   65.1549 H   0  0  0  0  0  0  0  0  0  0  0  0
  -42.5723    0.3394   71.5951 C   0  0  0  0  0  0  0  0  0  0  0  0
  -41.4742    0.4969   72.4609 C   0  0  0  0  0  0  0  0  0  0  0  0
  -41.4857    1.5284   73.4106 C   0  0  0  0  0  0  0  0  0  0  0  0
  -42.5740    2.3897   73.5030 C   0  0  0  0  0  0  0  0  0  0  0  0
  -42.5955    3.4041   74.4320 O   0  0  0  0  0  0  0  0  0  0  0  0
  -43.6603    2.2308   72.6510 C   0  0  0  0  0  0  0  0  0  0  0  0
  -43.6582    1.2080   71.7049 C   0  0  0  0  0  0  0  0  0  0  0  0
  -41.8699    3.5229   75.0129 H   0  0  0  0  0  0  0  0  0  0  0  0
  8  7  1  0  0  0
  7  9  2  0  0  0
  7  6  1  0  0  0
  9 10  1  0  0  0
  6  5  2  0  0  0
 10  4  2  0  0  0
  5  4  1  0  0  0
  4  2  1  0  0  0
  2  3  2  0  0  0
  2  1  2  0  0  0
  2 12  1  0  0  0
 12 13  2  0  0  0
 12 18  1  0  0  0
 13 14  1  0  0  0
 18 17  2  0  0  0
 14 15  2  0  0  0
 17 15  1  0  0  0
 15 16  1  0  0  0
  8 11  1  0  0  0
 16 19  1  0  0  0
M  END
> <minimizedAffinity>
-7.23488

$$$$
5L4J_6JD_A_201


 19 20  0  0  0  0  0  0  0  0999 V2000
  -43.6645    2.0466   70.8784 O   0  0  0  0  0  0  0  0  0  0  0  0
  -42.9767    0.9364   70.3136 S   0  0  0  0  0  0  0  0  0  0  0  0
  -41.6403    1.1124   69.8607 O   0  0  0  0  0  0  0  0  0  0  0  0
  -42.9845   -0.3392   71.5238 C   0  0  0  0  0  0  0  0  0  0  0  0
  -44.0721   -0.4887   72.4114 C   0  0  0  0  0  0  0  0  0  0  0  0
  -44.0421   -1.5113   73.3657 C   0  0  0  0  0  0  0  0  0  0  0  0
  -42.9479   -2.3626   73.4522 C   0  0  0  0  0  0  0  0  0  0  0  0
  -42.9131   -3.3655   74.3940 O   0  0  0  0  0  0  0  0  0  0  0  0
  -41.8710   -2.2111   72.5853 C   0  0  0  0  0  0  0  0  0  0  0  0
  -41.8799   -1.2013   71.6216 C   0  0  0  0  0  0  0  0  0  0  0  0
  -42.1708   -3.9349   74.4449 H   0  0  0  0  0  0  0  0  0  0  0  0
  -43.9399    0.3781   68.9523 C   0  0  0  0  0  0  0  0  0  0  0  0
  -44.5238    1.3098   68.0740 C   0  0  0  0  0  0  0  0  0  0  0  0
  -45.2956    0.8533   66.9960 C   0  0  0  0  0  0  0  0  0  0  0  0
  -45.4891   -0.5092   66.7944 C   0  0  0  0  0  0  0  0  0  0  0  0
  -46.2455   -0.9672   65.7405 O   0  0  0  0  0  0  0  0  0  0  0  0
  -44.9164   -1.4289   67.6648 C   0  0  0  0  0  0  0  0  0  0  0  0
  -44.1488   -0.9846   68.7393 C   0  0  0  0  0  0  0  0  0  0  0  0
  -46.6376   -0.3585   65.1458 H   0  0  0  0  0  0  0  0  0  0  0  0
  8  7  1  0  0  0
  7  9  2  0  0  0
  7  6  1  0  0  0
  9 10  1  0  0  0
  6  5  2  0  0  0
 10  4  2  0  0  0
  5  4  1  0  0  0
  4  2  1  0  0  0
  2  3  2  0  0  0
  2  1  2  0  0  0
  2 12  1  0  0  0
 12 13  2  0  0  0
 12 18  1  0  0  0
 13 14  1  0  0  0
 18 17  2  0  0  0
 14 15  2  0  0  0
 17 15  1  0  0  0
 15 16  1  0  0  0
  8 11  1  0  0  0
 16 19  1  0  0  0
M  END
> <minimizedAffinity>
-7.23477

$$$$
5L4J_6JD_A_201


 19 20  0  0  0  0  0  0  0  0999 V2000
  -41.6568    1.1386   69.9547 O   0  0  0  0  0  0  0  0  0  0  0  0
  -42.9971    0.9777   70.4041 S   0  0  0  0  0  0  0  0  0  0  0  0
  -43.6682    2.0908   70.9810 O   0  0  0  0  0  0  0  0  0  0  0  0
  -43.9358    0.4233   69.0246 C   0  0  0  0  0  0  0  0  0  0  0  0
  -44.1050   -0.9551   68.7707 C   0  0  0  0  0  0  0  0  0  0  0  0
  -44.8535   -1.3604   67.6603 C   0  0  0  0  0  0  0  0  0  0  0  0
  -45.4125   -0.4191   66.8055 C   0  0  0  0  0  0  0  0  0  0  0  0
  -46.1440   -0.8152   65.7092 O   0  0  0  0  0  0  0  0  0  0  0  0
  -45.2390    0.9393   67.0481 C   0  0  0  0  0  0  0  0  0  0  0  0
  -44.5004    1.3683   68.1522 C   0  0  0  0  0  0  0  0  0  0  0  0
  -46.5173   -0.1729   65.1381 H   0  0  0  0  0  0  0  0  0  0  0  0
  -42.9853   -0.3206   71.5903 C   0  0  0  0  0  0  0  0  0  0  0  0
  -44.0708   -0.4785   72.4718 C   0  0  0  0  0  0  0  0  0  0  0  0
  -44.0473   -1.5129   73.4182 C   0  0  0  0  0  0  0  0  0  0  0  0
  -42.9596   -2.3767   73.4918 C   0  0  0  0  0  0  0  0  0  0  0  0
  -42.9264   -3.3940   74.4173 O   0  0  0  0  0  0  0  0  0  0  0  0
  -41.8857   -2.2175   72.6242 C   0  0  0  0  0  0  0  0  0  0  0  0
  -41.8997   -1.1918   71.6814 C   0  0  0  0  0  0  0  0  0  0  0  0
  -43.6436   -3.5131   75.0085 H   0  0  0  0  0  0  0  0  0  0  0  0
  8  7  1  0  0  0
  7  9  2  0  0  0
  7  6  1  0  0  0
  9 10  1  0  0  0
  6  5  2  0  0  0
 10  4  2  0  0  0
  5  4  1  0  0  0
  4  2  1  0  0  0
  2  3  2  0  0  0
  2  1  2  0  0  0
  2 12  1  0  0  0
 12 13  2  0  0  0
 12 18  1  0  0  0
 13 14  1  0  0  0
 18 17  2  0  0  0
 14 15  2  0  0  0
 17 15  1  0  0  0
 15 16  1  0  0  0
  8 11  1  0  0  0
 16 19  1  0  0  0
M  END
> <minimizedAffinity>
-7.22650

$$$$
5L4J_6JD_A_201


 19 20  0  0  0  0  0  0  0  0999 V2000
  -43.6765    2.0428   70.8750 O   0  0  0  0  0  0  0  0  0  0  0  0
  -42.9737    0.9480   70.2991 S   0  0  0  0  0  0  0  0  0  0  0  0
  -41.6486    1.1530   69.8256 O   0  0  0  0  0  0  0  0  0  0  0  0
  -42.9351   -0.3278   71.5085 C   0  0  0  0  0  0  0  0  0  0  0  0
  -41.8408   -1.2160   71.5894 C   0  0  0  0  0  0  0  0  0  0  0  0
  -41.8463   -2.2231   72.5604 C   0  0  0  0  0  0  0  0  0  0  0  0
  -42.9228   -2.3606   73.4274 C   0  0  0  0  0  0  0  0  0  0  0  0
  -42.9334   -3.3542   74.3794 O   0  0  0  0  0  0  0  0  0  0  0  0
  -44.0064   -1.4928   73.3431 C   0  0  0  0  0  0  0  0  0  0  0  0
  -44.0219   -0.4770   72.3857 C   0  0  0  0  0  0  0  0  0  0  0  0
  -43.6641   -3.4391   74.9599 H   0  0  0  0  0  0  0  0  0  0  0  0
  -43.9456    0.3693   68.9525 C   0  0  0  0  0  0  0  0  0  0  0  0
  -44.5438    1.2880   68.0702 C   0  0  0  0  0  0  0  0  0  0  0  0
  -45.3224    0.8153   67.0041 C   0  0  0  0  0  0  0  0  0  0  0  0
  -45.5085   -0.5505   66.8182 C   0  0  0  0  0  0  0  0  0  0  0  0
  -46.2714   -1.0244   65.7761 O   0  0  0  0  0  0  0  0  0  0  0  0
  -44.9215   -1.4573   67.6926 C   0  0  0  0  0  0  0  0  0  0  0  0
  -44.1472   -0.9969   68.7554 C   0  0  0  0  0  0  0  0  0  0  0  0
  -46.6731   -0.4244   65.1789 H   0  0  0  0  0  0  0  0  0  0  0  0
  8  7  1  0  0  0
  7  9  2  0  0  0
  7  6  1  0  0  0
  9 10  1  0  0  0
  6  5  2  0  0  0
 10  4  2  0  0  0
  5  4  1  0  0  0
  4  2  1  0  0  0
  2  3  2  0  0  0
  2  1  2  0  0  0
  2 12  1  0  0  0
 12 13  2  0  0  0
 12 18  1  0  0  0
 13 14  1  0  0  0
 18 17  2  0  0  0
 14 15  2  0  0  0
 17 15  1  0  0  0
 15 16  1  0  0  0
  8 11  1  0  0  0
 16 19  1  0  0  0
M  END
> <minimizedAffinity>
-7.21621

$$$$
5L4J_6JD_A_201


 19 20  0  0  0  0  0  0  0  0999 V2000
  -42.0243   -2.1097   71.1802 O   0  0  0  0  0  0  0  0  0  0  0  0
  -42.6475   -0.9450   70.6516 S   0  0  0  0  0  0  0  0  0  0  0  0
  -44.0276   -0.9962   70.3125 O   0  0  0  0  0  0  0  0  0  0  0  0
  -42.4177    0.3380   71.8317 C   0  0  0  0  0  0  0  0  0  0  0  0
  -41.2583    0.3830   72.6360 C   0  0  0  0  0  0  0  0  0  0  0  0
  -41.1112    1.4152   73.5689 C   0  0  0  0  0  0  0  0  0  0  0  0
  -42.1010    2.3786   73.7160 C   0  0  0  0  0  0  0  0  0  0  0  0
  -41.9616    3.3915   74.6371 O   0  0  0  0  0  0  0  0  0  0  0  0
  -43.2484    2.3307   72.9316 C   0  0  0  0  0  0  0  0  0  0  0  0
  -43.4159    1.3134   71.9906 C   0  0  0  0  0  0  0  0  0  0  0  0
  -42.6346    4.0369   74.7292 H   0  0  0  0  0  0  0  0  0  0  0  0
  -41.7517   -0.4985   69.2056 C   0  0  0  0  0  0  0  0  0  0  0  0
  -41.6094    0.8572   68.8563 C   0  0  0  0  0  0  0  0  0  0  0  0
  -40.8990    1.2011   67.6974 C   0  0  0  0  0  0  0  0  0  0  0  0
  -40.3406    0.2130   66.8933 C   0  0  0  0  0  0  0  0  0  0  0  0
  -39.6427    0.5399   65.7538 O   0  0  0  0  0  0  0  0  0  0  0  0
  -40.4854   -1.1260   67.2360 C   0  0  0  0  0  0  0  0  0  0  0  0
  -41.1906   -1.4773   68.3852 C   0  0  0  0  0  0  0  0  0  0  0  0
  -39.5373    1.4387   65.5106 H   0  0  0  0  0  0  0  0  0  0  0  0
  8  7  1  0  0  0
  7  9  2  0  0  0
  7  6  1  0  0  0
  9 10  1  0  0  0
  6  5  2  0  0  0
 10  4  2  0  0  0
  5  4  1  0  0  0
  4  2  1  0  0  0
  2  3  2  0  0  0
  2  1  2  0  0  0
  2 12  1  0  0  0
 12 13  2  0  0  0
 12 18  1  0  0  0
 13 14  1  0  0  0
 18 17  2  0  0  0
 14 15  2  0  0  0
 17 15  1  0  0  0
 15 16  1  0  0  0
  8 11  1  0  0  0
 16 19  1  0  0  0
M  END
> <minimizedAffinity>
-7.19681

$$$$
5L4J_6JD_A_201


 19 20  0  0  0  0  0  0  0  0999 V2000
  -41.3633   -1.5071   69.0553 O   0  0  0  0  0  0  0  0  0  0  0  0
  -42.2347   -0.5012   69.5585 S   0  0  0  0  0  0  0  0  0  0  0  0
  -41.7716    0.8418   69.6225 O   0  0  0  0  0  0  0  0  0  0  0  0
  -43.6846   -0.5370   68.5645 C   0  0  0  0  0  0  0  0  0  0  0  0
  -44.4013   -1.7380   68.3721 C   0  0  0  0  0  0  0  0  0  0  0  0
  -45.5475   -1.7309   67.5700 C   0  0  0  0  0  0  0  0  0  0  0  0
  -45.9700   -0.5593   66.9548 C   0  0  0  0  0  0  0  0  0  0  0  0
  -47.0937   -0.5509   66.1603 O   0  0  0  0  0  0  0  0  0  0  0  0
  -45.2600    0.6229   67.1350 C   0  0  0  0  0  0  0  0  0  0  0  0
  -44.1160    0.6420   67.9346 C   0  0  0  0  0  0  0  0  0  0  0  0
  -47.3710    0.2442   65.7495 H   0  0  0  0  0  0  0  0  0  0  0  0
  -42.6964   -0.9920   71.1829 C   0  0  0  0  0  0  0  0  0  0  0  0
  -43.8629   -0.4691   71.7713 C   0  0  0  0  0  0  0  0  0  0  0  0
  -44.2175   -0.8621   73.0697 C   0  0  0  0  0  0  0  0  0  0  0  0
  -43.4233   -1.7588   73.7767 C   0  0  0  0  0  0  0  0  0  0  0  0
  -43.7619   -2.1499   75.0514 O   0  0  0  0  0  0  0  0  0  0  0  0
  -42.2688   -2.2713   73.1971 C   0  0  0  0  0  0  0  0  0  0  0  0
  -41.9079   -1.8856   71.9078 C   0  0  0  0  0  0  0  0  0  0  0  0
  -44.5374   -1.8123   75.4546 H   0  0  0  0  0  0  0  0  0  0  0  0
  8  7  1  0  0  0
  7  9  2  0  0  0
  7  6  1  0  0  0
  9 10  1  0  0  0
  6  5  2  0  0  0
 10  4  2  0  0  0
  5  4  1  0  0  0
  4  2  1  0  0  0
  2  3  2  0  0  0
  2  1  2  0  0  0
  2 12  1  0  0  0
 12 13  2  0  0  0
 12 18  1  0  0  0
 13 14  1  0  0  0
 18 17  2  0  0  0
 14 15  2  0  0  0
 17 15  1  0  0  0
 15 16  1  0  0  0
  8 11  1  0  0  0
 16 19  1  0  0  0
M  END
> <minimizedAffinity>
-7.11892

$$$$
5L4J_6JD_A_201


 19 20  0  0  0  0  0  0  0  0999 V2000
  -44.1923    1.5455   68.9859 O   0  0  0  0  0  0  0  0  0  0  0  0
  -43.3271    0.5320   69.4845 S   0  0  0  0  0  0  0  0  0  0  0  0
  -43.7915   -0.8115   69.5243 O   0  0  0  0  0  0  0  0  0  0  0  0
  -41.8661    0.5808   68.5073 C   0  0  0  0  0  0  0  0  0  0  0  0
  -41.3828   -0.5818   67.8687 C   0  0  0  0  0  0  0  0  0  0  0  0
  -40.2139   -0.5075   67.1035 C   0  0  0  0  0  0  0  0  0  0  0  0
  -39.5246    0.6925   66.9842 C   0  0  0  0  0  0  0  0  0  0  0  0
  -38.3713    0.7669   66.2372 O   0  0  0  0  0  0  0  0  0  0  0  0
  -39.9935    1.8369   67.6205 C   0  0  0  0  0  0  0  0  0  0  0  0
  -41.1601    1.7890   68.3855 C   0  0  0  0  0  0  0  0  0  0  0  0
  -37.9131    1.5808   66.1625 H   0  0  0  0  0  0  0  0  0  0  0  0
  -42.8832    0.9993   71.1207 C   0  0  0  0  0  0  0  0  0  0  0  0
  -43.7056    1.8789   71.8491 C   0  0  0  0  0  0  0  0  0  0  0  0
  -43.3381    2.2502   73.1503 C   0  0  0  0  0  0  0  0  0  0  0  0
  -42.1683    1.7587   73.7200 C   0  0  0  0  0  0  0  0  0  0  0  0
  -41.7984    2.1177   74.9955 O   0  0  0  0  0  0  0  0  0  0  0  0
  -41.3540    0.8939   72.9987 C   0  0  0  0  0  0  0  0  0  0  0  0
  -41.7104    0.5203   71.7046 C   0  0  0  0  0  0  0  0  0  0  0  0
  -42.3379    2.7000   75.4934 H   0  0  0  0  0  0  0  0  0  0  0  0
  8  7  1  0  0  0
  7  9  2  0  0  0
  7  6  1  0  0  0
  9 10  1  0  0  0
  6  5  2  0  0  0
 10  4  2  0  0  0
  5  4  1  0  0  0
  4  2  1  0  0  0
  2  3  2  0  0  0
  2  1  2  0  0  0
  2 12  1  0  0  0
 12 13  2  0  0  0
 12 18  1  0  0  0
 13 14  1  0  0  0
 18 17  2  0  0  0
 14 15  2  0  0  0
 17 15  1  0  0  0
 15 16  1  0  0  0
  8 11  1  0  0  0
 16 19  1  0  0  0
M  END
> <minimizedAffinity>
-7.03621

$$$$
5L4J_6JD_A_201


 19 20  0  0  0  0  0  0  0  0999 V2000
  -43.0053    2.6033   73.1416 O   0  0  0  0  0  0  0  0  0  0  0  0
  -42.4395    1.6042   72.3013 S   0  0  0  0  0  0  0  0  0  0  0  0
  -41.0447    1.6441   72.0273 O   0  0  0  0  0  0  0  0  0  0  0  0
  -42.8127    0.0496   73.0331 C   0  0  0  0  0  0  0  0  0  0  0  0
  -43.8885   -0.0857   73.9372 C   0  0  0  0  0  0  0  0  0  0  0  0
  -44.1531   -1.3366   74.5051 C   0  0  0  0  0  0  0  0  0  0  0  0
  -43.3578   -2.4329   74.1970 C   0  0  0  0  0  0  0  0  0  0  0  0
  -43.6122   -3.6631   74.7589 O   0  0  0  0  0  0  0  0  0  0  0  0
  -42.2914   -2.2999   73.3142 C   0  0  0  0  0  0  0  0  0  0  0  0
  -42.0105   -1.0631   72.7311 C   0  0  0  0  0  0  0  0  0  0  0  0
  -43.0702   -4.3970   74.5451 H   0  0  0  0  0  0  0  0  0  0  0  0
  -43.2946    1.6838   70.7667 C   0  0  0  0  0  0  0  0  0  0  0  0
  -44.2249    2.7133   70.5318 C   0  0  0  0  0  0  0  0  0  0  0  0
  -44.9060    2.7627   69.3072 C   0  0  0  0  0  0  0  0  0  0  0  0
  -44.6704    1.8013   68.3300 C   0  0  0  0  0  0  0  0  0  0  0  0
  -45.3342    1.8404   67.1257 O   0  0  0  0  0  0  0  0  0  0  0  0
  -43.7552    0.7821   68.5642 C   0  0  0  0  0  0  0  0  0  0  0  0
  -43.0746    0.7242   69.7785 C   0  0  0  0  0  0  0  0  0  0  0  0
  -45.9540    2.5219   66.9542 H   0  0  0  0  0  0  0  0  0  0  0  0
  8  7  1  0  0  0
  7  9  2  0  0  0
  7  6  1  0  0  0
  9 10  1  0  0  0
  6  5  2  0  0  0
 10  4  2  0  0  0
  5  4  1  0  0  0
  4  2  1  0  0  0
  2  3  2  0  0  0
  2  1  2  0  0  0
  2 12  1  0  0  0
 12 13  2  0  0  0
 12 18  1  0  0  0
 13 14  1  0  0  0
 18 17  2  0  0  0
 14 15  2  0  0  0
 17 15  1  0  0  0
 15 16  1  0  0  0
  8 11  1  0  0  0
 16 19  1  0  0  0
M  END
> <minimizedAffinity>
-6.86820

$$$$
5L4J_6JD_A_201


 19 20  0  0  0  0  0  0  0  0999 V2000
  -43.2196   -1.7326   68.4416 O   0  0  0  0  0  0  0  0  0  0  0  0
  -43.0382   -0.3833   68.8549 S   0  0  0  0  0  0  0  0  0  0  0  0
  -44.0658    0.5627   68.5877 O   0  0  0  0  0  0  0  0  0  0  0  0
  -42.7554   -0.4138   70.5901 C   0  0  0  0  0  0  0  0  0  0  0  0
  -41.8990   -1.3762   71.1674 C   0  0  0  0  0  0  0  0  0  0  0  0
  -41.7016   -1.3747   72.5524 C   0  0  0  0  0  0  0  0  0  0  0  0
  -42.3523   -0.4473   73.3561 C   0  0  0  0  0  0  0  0  0  0  0  0
  -42.1647   -0.4476   74.7194 O   0  0  0  0  0  0  0  0  0  0  0  0
  -43.2041    0.4955   72.7906 C   0  0  0  0  0  0  0  0  0  0  0  0
  -43.4134    0.5171   71.4107 C   0  0  0  0  0  0  0  0  0  0  0  0
  -42.6079    0.1819   75.2535 H   0  0  0  0  0  0  0  0  0  0  0  0
  -41.5625    0.1907   68.0899 C   0  0  0  0  0  0  0  0  0  0  0  0
  -41.1101    1.5018   68.3282 C   0  0  0  0  0  0  0  0  0  0  0  0
  -39.9359    1.9511   67.7072 C   0  0  0  0  0  0  0  0  0  0  0  0
  -39.2221    1.1122   66.8579 C   0  0  0  0  0  0  0  0  0  0  0  0
  -38.0696    1.5437   66.2430 O   0  0  0  0  0  0  0  0  0  0  0  0
  -39.6718   -0.1809   66.6190 C   0  0  0  0  0  0  0  0  0  0  0  0
  -40.8381   -0.6356   67.2307 C   0  0  0  0  0  0  0  0  0  0  0  0
  -37.7548    2.4131   66.3950 H   0  0  0  0  0  0  0  0  0  0  0  0
  8  7  1  0  0  0
  7  9  2  0  0  0
  7  6  1  0  0  0
  9 10  1  0  0  0
  6  5  2  0  0  0
 10  4  2  0  0  0
  5  4  1  0  0  0
  4  2  1  0  0  0
  2  3  2  0  0  0
  2  1  2  0  0  0
  2 12  1  0  0  0
 12 13  2  0  0  0
 12 18  1  0  0  0
 13 14  1  0  0  0
 18 17  2  0  0  0
 14 15  2  0  0  0
 17 15  1  0  0  0
 15 16  1  0  0  0
  8 11  1  0  0  0
 16 19  1  0  0  0
M  END
> <minimizedAffinity>
-6.77909

$$$$
