4MSN_2ZQ_A_900


 13 14  0  0  0  0  0  0  0  0999 V2000
    3.8779  -27.4271  -34.6789 C   0  0  0  0  0  0  0  0  0  0  0  0
    4.2220  -28.5078  -33.8577 C   0  0  0  0  0  0  0  0  0  0  0  0
    4.1360  -27.4856  -36.0518 C   0  0  0  0  0  0  0  0  0  0  0  0
    4.8191  -29.6494  -34.3838 C   0  0  0  0  0  0  0  0  0  0  0  0
    4.7373  -28.6357  -36.5721 C   0  0  0  0  0  0  0  0  0  0  0  0
    5.0776  -29.7103  -35.7508 C   0  0  0  0  0  0  0  0  0  0  0  0
    3.0350  -26.2458  -32.8110 C   0  0  0  0  0  0  0  0  0  0  0  0
    3.3591  -27.2994  -31.9577 C   0  0  0  0  0  0  0  0  0  0  0  0
    3.2959  -26.3270  -34.1419 N   0  0  0  0  0  0  0  0  0  0  0  0
    3.9575  -28.4427  -32.4888 C   0  0  0  0  0  0  0  0  0  0  0  0
    3.8167  -26.4626  -36.8674 N   0  0  0  0  0  0  0  0  0  0  0  0
    2.7805  -26.4965  -37.5158 O   0  0  0  0  0  0  0  0  0  0  0  0
    4.5375  -25.4842  -36.9892 O   0  0  0  0  0  0  0  0  0  0  0  0
 12 11  2  0  0  0
 11 13  1  0  0  0
 11  3  1  0  0  0
  5  3  2  0  0  0
  5  6  1  0  0  0
  3  1  1  0  0  0
  6  4  2  0  0  0
  1  9  2  0  0  0
  1  2  1  0  0  0
  4  2  1  0  0  0
  9  7  1  0  0  0
  2 10  2  0  0  0
  7  8  2  0  0  0
 10  8  1  0  0  0
M  CHG 1  11   1
M  CHG 1  13  -1
M  END
> <minimizedAffinity>
-6.82847

$$$$
4MSN_2ZQ_A_900


 13 14  0  0  0  0  0  0  0  0999 V2000
    3.9374  -27.7386  -34.9292 C   0  0  0  0  0  0  0  0  0  0  0  0
    4.4829  -28.9723  -35.3048 C   0  0  0  0  0  0  0  0  0  0  0  0
    3.8956  -27.3775  -33.5790 C   0  0  0  0  0  0  0  0  0  0  0  0
    4.9899  -29.8537  -34.3547 C   0  0  0  0  0  0  0  0  0  0  0  0
    4.4061  -28.2693  -32.6308 C   0  0  0  0  0  0  0  0  0  0  0  0
    4.9492  -29.4968  -33.0092 C   0  0  0  0  0  0  0  0  0  0  0  0
    3.4803  -27.2251  -37.1924 C   0  0  0  0  0  0  0  0  0  0  0  0
    4.0163  -28.4422  -37.6105 C   0  0  0  0  0  0  0  0  0  0  0  0
    3.4513  -26.8973  -35.8743 N   0  0  0  0  0  0  0  0  0  0  0  0
    4.5242  -29.3234  -36.6549 C   0  0  0  0  0  0  0  0  0  0  0  0
    3.3774  -26.1979  -33.1866 N   0  0  0  0  0  0  0  0  0  0  0  0
    2.2623  -26.1546  -32.6868 O   0  0  0  0  0  0  0  0  0  0  0  0
    3.9890  -25.1487  -33.3160 O   0  0  0  0  0  0  0  0  0  0  0  0
 12 11  2  0  0  0
 11 13  1  0  0  0
 11  3  1  0  0  0
  5  3  2  0  0  0
  5  6  1  0  0  0
  3  1  1  0  0  0
  6  4  2  0  0  0
  1  9  2  0  0  0
  1  2  1  0  0  0
  4  2  1  0  0  0
  9  7  1  0  0  0
  2 10  2  0  0  0
  7  8  2  0  0  0
 10  8  1  0  0  0
M  CHG 1  11   1
M  CHG 1  13  -1
M  END
> <minimizedAffinity>
-6.41917

$$$$
4MSN_2ZQ_A_900


 13 14  0  0  0  0  0  0  0  0999 V2000
    4.6282  -29.0146  -33.7055 C   0  0  0  0  0  0  0  0  0  0  0  0
    4.4337  -28.5495  -35.0118 C   0  0  0  0  0  0  0  0  0  0  0  0
    4.1839  -28.2519  -32.6211 C   0  0  0  0  0  0  0  0  0  0  0  0
    3.8008  -27.3345  -35.2559 C   0  0  0  0  0  0  0  0  0  0  0  0
    3.5500  -27.0317  -32.8751 C   0  0  0  0  0  0  0  0  0  0  0  0
    3.3575  -26.5725  -34.1778 C   0  0  0  0  0  0  0  0  0  0  0  0
    5.6872  -30.9617  -34.5313 C   0  0  0  0  0  0  0  0  0  0  0  0
    5.5123  -30.5377  -35.8477 C   0  0  0  0  0  0  0  0  0  0  0  0
    5.2463  -30.2024  -33.4946 N   0  0  0  0  0  0  0  0  0  0  0  0
    4.8769  -29.3188  -36.0887 C   0  0  0  0  0  0  0  0  0  0  0  0
    4.3562  -28.6724  -31.3533 N   0  0  0  0  0  0  0  0  0  0  0  0
    3.3959  -29.0505  -30.6975 O   0  0  0  0  0  0  0  0  0  0  0  0
    5.4557  -28.6882  -30.8217 O   0  0  0  0  0  0  0  0  0  0  0  0
 12 11  2  0  0  0
 11 13  1  0  0  0
 11  3  1  0  0  0
  5  3  2  0  0  0
  5  6  1  0  0  0
  3  1  1  0  0  0
  6  4  2  0  0  0
  1  9  2  0  0  0
  1  2  1  0  0  0
  4  2  1  0  0  0
  9  7  1  0  0  0
  2 10  2  0  0  0
  7  8  2  0  0  0
 10  8  1  0  0  0
M  CHG 1  11   1
M  CHG 1  13  -1
M  END
> <minimizedAffinity>
-6.41449

$$$$
4MSN_2ZQ_A_900


 13 14  0  0  0  0  0  0  0  0999 V2000
    4.6141  -28.3661  -33.8408 C   0  0  0  0  0  0  0  0  0  0  0  0
    5.0026  -29.4888  -34.5821 C   0  0  0  0  0  0  0  0  0  0  0  0
    4.0090  -27.2820  -34.4838 C   0  0  0  0  0  0  0  0  0  0  0  0
    4.7960  -29.5494  -35.9570 C   0  0  0  0  0  0  0  0  0  0  0  0
    3.8063  -27.3506  -35.8655 C   0  0  0  0  0  0  0  0  0  0  0  0
    4.1939  -28.4709  -36.6001 C   0  0  0  0  0  0  0  0  0  0  0  0
    5.4114  -29.3729  -31.8544 C   0  0  0  0  0  0  0  0  0  0  0  0
    5.8116  -30.5107  -32.5533 C   0  0  0  0  0  0  0  0  0  0  0  0
    4.8252  -28.3325  -32.5023 N   0  0  0  0  0  0  0  0  0  0  0  0
    5.6026  -30.5682  -33.9319 C   0  0  0  0  0  0  0  0  0  0  0  0
    3.6243  -26.1885  -33.7982 N   0  0  0  0  0  0  0  0  0  0  0  0
    2.5595  -26.1856  -33.1971 O   0  0  0  0  0  0  0  0  0  0  0  0
    4.3099  -25.1786  -33.7550 O   0  0  0  0  0  0  0  0  0  0  0  0
 12 11  2  0  0  0
 11 13  1  0  0  0
 11  3  1  0  0  0
  5  3  2  0  0  0
  5  6  1  0  0  0
  3  1  1  0  0  0
  6  4  2  0  0  0
  1  9  2  0  0  0
  1  2  1  0  0  0
  4  2  1  0  0  0
  9  7  1  0  0  0
  2 10  2  0  0  0
  7  8  2  0  0  0
 10  8  1  0  0  0
M  CHG 1  11   1
M  CHG 1  13  -1
M  END
> <minimizedAffinity>
-6.19970

$$$$
4MSN_2ZQ_A_900


 13 14  0  0  0  0  0  0  0  0999 V2000
    5.0926  -28.5345  -33.3019 C   0  0  0  0  0  0  0  0  0  0  0  0
    5.2554  -29.4394  -32.2458 C   0  0  0  0  0  0  0  0  0  0  0  0
    4.0474  -27.6063  -33.2691 C   0  0  0  0  0  0  0  0  0  0  0  0
    4.3924  -29.4334  -31.1541 C   0  0  0  0  0  0  0  0  0  0  0  0
    3.1842  -27.6079  -32.1692 C   0  0  0  0  0  0  0  0  0  0  0  0
    3.3503  -28.5103  -31.1190 C   0  0  0  0  0  0  0  0  0  0  0  0
    6.9708  -29.4521  -34.4087 C   0  0  0  0  0  0  0  0  0  0  0  0
    7.1707  -30.3692  -33.3780 C   0  0  0  0  0  0  0  0  0  0  0  0
    5.9477  -28.5599  -34.3533 N   0  0  0  0  0  0  0  0  0  0  0  0
    6.3035  -30.3601  -32.2847 C   0  0  0  0  0  0  0  0  0  0  0  0
    3.8650  -26.7232  -34.2695 N   0  0  0  0  0  0  0  0  0  0  0  0
    4.3358  -25.5978  -34.1865 O   0  0  0  0  0  0  0  0  0  0  0  0
    3.2326  -27.0076  -35.2749 O   0  0  0  0  0  0  0  0  0  0  0  0
 12 11  2  0  0  0
 11 13  1  0  0  0
 11  3  1  0  0  0
  5  3  2  0  0  0
  5  6  1  0  0  0
  3  1  1  0  0  0
  6  4  2  0  0  0
  1  9  2  0  0  0
  1  2  1  0  0  0
  4  2  1  0  0  0
  9  7  1  0  0  0
  2 10  2  0  0  0
  7  8  2  0  0  0
 10  8  1  0  0  0
M  CHG 1  11   1
M  CHG 1  13  -1
M  END
> <minimizedAffinity>
-6.16141

$$$$
4MSN_2ZQ_A_900


 13 14  0  0  0  0  0  0  0  0999 V2000
    4.5199  -28.8387  -33.7441 C   0  0  0  0  0  0  0  0  0  0  0  0
    4.8295  -29.3659  -35.0038 C   0  0  0  0  0  0  0  0  0  0  0  0
    4.8853  -29.5356  -32.5883 C   0  0  0  0  0  0  0  0  0  0  0  0
    5.5001  -30.5786  -35.1310 C   0  0  0  0  0  0  0  0  0  0  0  0
    5.5578  -30.7539  -32.7250 C   0  0  0  0  0  0  0  0  0  0  0  0
    5.8649  -31.2751  -33.9816 C   0  0  0  0  0  0  0  0  0  0  0  0
    3.5013  -26.9585  -34.7552 C   0  0  0  0  0  0  0  0  0  0  0  0
    3.7915  -27.4457  -36.0287 C   0  0  0  0  0  0  0  0  0  0  0  0
    3.8672  -27.6546  -33.6474 N   0  0  0  0  0  0  0  0  0  0  0  0
    4.4644  -28.6620  -36.1524 C   0  0  0  0  0  0  0  0  0  0  0  0
    4.6019  -29.0544  -31.3629 N   0  0  0  0  0  0  0  0  0  0  0  0
    5.4854  -28.5533  -30.6821 O   0  0  0  0  0  0  0  0  0  0  0  0
    3.4749  -29.1027  -30.8946 O   0  0  0  0  0  0  0  0  0  0  0  0
 12 11  2  0  0  0
 11 13  1  0  0  0
 11  3  1  0  0  0
  5  3  2  0  0  0
  5  6  1  0  0  0
  3  1  1  0  0  0
  6  4  2  0  0  0
  1  9  2  0  0  0
  1  2  1  0  0  0
  4  2  1  0  0  0
  9  7  1  0  0  0
  2 10  2  0  0  0
  7  8  2  0  0  0
 10  8  1  0  0  0
M  CHG 1  11   1
M  CHG 1  13  -1
M  END
> <minimizedAffinity>
-6.03348

$$$$
4MSN_2ZQ_A_900


 13 14  0  0  0  0  0  0  0  0999 V2000
    5.0397  -28.7741  -33.0858 C   0  0  0  0  0  0  0  0  0  0  0  0
    5.5131  -28.8473  -34.4016 C   0  0  0  0  0  0  0  0  0  0  0  0
    3.9960  -27.8993  -32.7686 C   0  0  0  0  0  0  0  0  0  0  0  0
    4.9612  -28.0621  -35.4092 C   0  0  0  0  0  0  0  0  0  0  0  0
    3.4480  -27.1131  -33.7868 C   0  0  0  0  0  0  0  0  0  0  0  0
    3.9219  -27.1896  -35.0961 C   0  0  0  0  0  0  0  0  0  0  0  0
    6.6084  -30.4085  -32.4055 C   0  0  0  0  0  0  0  0  0  0  0  0
    7.1088  -30.5146  -33.7023 C   0  0  0  0  0  0  0  0  0  0  0  0
    5.5934  -29.5508  -32.1228 N   0  0  0  0  0  0  0  0  0  0  0  0
    6.5527  -29.7259  -34.7103 C   0  0  0  0  0  0  0  0  0  0  0  0
    3.5189  -27.8066  -31.5127 N   0  0  0  0  0  0  0  0  0  0  0  0
    3.6126  -26.7537  -30.8980 O   0  0  0  0  0  0  0  0  0  0  0  0
    2.9885  -28.7529  -30.9515 O   0  0  0  0  0  0  0  0  0  0  0  0
 12 11  2  0  0  0
 11 13  1  0  0  0
 11  3  1  0  0  0
  5  3  2  0  0  0
  5  6  1  0  0  0
  3  1  1  0  0  0
  6  4  2  0  0  0
  1  9  2  0  0  0
  1  2  1  0  0  0
  4  2  1  0  0  0
  9  7  1  0  0  0
  2 10  2  0  0  0
  7  8  2  0  0  0
 10  8  1  0  0  0
M  CHG 1  11   1
M  CHG 1  13  -1
M  END
> <minimizedAffinity>
-5.96985

$$$$
4MSN_2ZQ_A_900


 13 14  0  0  0  0  0  0  0  0999 V2000
    4.5592  -28.5543  -33.8018 C   0  0  0  0  0  0  0  0  0  0  0  0
    3.8625  -27.5304  -34.4553 C   0  0  0  0  0  0  0  0  0  0  0  0
    5.2857  -29.4881  -34.5469 C   0  0  0  0  0  0  0  0  0  0  0  0
    3.8793  -27.4207  -35.8425 C   0  0  0  0  0  0  0  0  0  0  0  0
    5.2964  -29.3714  -35.9402 C   0  0  0  0  0  0  0  0  0  0  0  0
    4.6018  -28.3496  -36.5871 C   0  0  0  0  0  0  0  0  0  0  0  0
    3.8293  -27.7435  -31.7031 C   0  0  0  0  0  0  0  0  0  0  0  0
    3.1235  -26.7073  -32.3126 C   0  0  0  0  0  0  0  0  0  0  0  0
    4.5280  -28.6383  -32.4493 N   0  0  0  0  0  0  0  0  0  0  0  0
    3.1428  -26.6002  -33.7039 C   0  0  0  0  0  0  0  0  0  0  0  0
    5.9659  -30.4839  -33.9474 N   0  0  0  0  0  0  0  0  0  0  0  0
    5.4229  -31.5603  -33.7431 O   0  0  0  0  0  0  0  0  0  0  0  0
    7.1261  -30.3500  -33.5900 O   0  0  0  0  0  0  0  0  0  0  0  0
 12 11  2  0  0  0
 11 13  1  0  0  0
 11  3  1  0  0  0
  5  3  2  0  0  0
  5  6  1  0  0  0
  3  1  1  0  0  0
  6  4  2  0  0  0
  1  9  2  0  0  0
  1  2  1  0  0  0
  4  2  1  0  0  0
  9  7  1  0  0  0
  2 10  2  0  0  0
  7  8  2  0  0  0
 10  8  1  0  0  0
M  CHG 1  11   1
M  CHG 1  13  -1
M  END
> <minimizedAffinity>
-5.92767

$$$$
4MSN_2ZQ_A_900


 13 14  0  0  0  0  0  0  0  0999 V2000
    5.1640  -28.9137  -34.3448 C   0  0  0  0  0  0  0  0  0  0  0  0
    4.2299  -27.9968  -33.8473 C   0  0  0  0  0  0  0  0  0  0  0  0
    5.8893  -29.7184  -33.4608 C   0  0  0  0  0  0  0  0  0  0  0  0
    4.0051  -27.8695  -32.4799 C   0  0  0  0  0  0  0  0  0  0  0  0
    5.6581  -29.5832  -32.0884 C   0  0  0  0  0  0  0  0  0  0  0  0
    4.7263  -28.6694  -31.5971 C   0  0  0  0  0  0  0  0  0  0  0  0
    4.6714  -28.2488  -36.5607 C   0  0  0  0  0  0  0  0  0  0  0  0
    3.7305  -27.3248  -36.1087 C   0  0  0  0  0  0  0  0  0  0  0  0
    5.3633  -29.0194  -35.6814 N   0  0  0  0  0  0  0  0  0  0  0  0
    3.5075  -27.2000  -34.7368 C   0  0  0  0  0  0  0  0  0  0  0  0
    6.7943  -30.6094  -33.9088 N   0  0  0  0  0  0  0  0  0  0  0  0
    7.9528  -30.2652  -34.0944 O   0  0  0  0  0  0  0  0  0  0  0  0
    6.4962  -31.7702  -34.1443 O   0  0  0  0  0  0  0  0  0  0  0  0
 12 11  2  0  0  0
 11 13  1  0  0  0
 11  3  1  0  0  0
  5  3  2  0  0  0
  5  6  1  0  0  0
  3  1  1  0  0  0
  6  4  2  0  0  0
  1  9  2  0  0  0
  1  2  1  0  0  0
  4  2  1  0  0  0
  9  7  1  0  0  0
  2 10  2  0  0  0
  7  8  2  0  0  0
 10  8  1  0  0  0
M  CHG 1  11   1
M  CHG 1  13  -1
M  END
> <minimizedAffinity>
-5.84468

$$$$
4MSN_2ZQ_A_900


 13 14  0  0  0  0  0  0  0  0999 V2000
    4.5645  -28.4735  -32.6287 C   0  0  0  0  0  0  0  0  0  0  0  0
    4.3294  -27.9697  -33.9138 C   0  0  0  0  0  0  0  0  0  0  0  0
    5.3918  -29.5877  -32.4578 C   0  0  0  0  0  0  0  0  0  0  0  0
    4.9079  -28.5586  -35.0341 C   0  0  0  0  0  0  0  0  0  0  0  0
    5.9681  -30.1741  -33.5887 C   0  0  0  0  0  0  0  0  0  0  0  0
    5.7321  -29.6687  -34.8669 C   0  0  0  0  0  0  0  0  0  0  0  0
    3.1823  -26.7974  -31.6933 C   0  0  0  0  0  0  0  0  0  0  0  0
    2.9232  -26.2620  -32.9541 C   0  0  0  0  0  0  0  0  0  0  0  0
    3.9901  -27.8808  -31.5535 N   0  0  0  0  0  0  0  0  0  0  0  0
    3.5053  -26.8550  -34.0752 C   0  0  0  0  0  0  0  0  0  0  0  0
    5.6370  -30.0953  -31.2347 N   0  0  0  0  0  0  0  0  0  0  0  0
    6.4256  -31.0204  -31.1021 O   0  0  0  0  0  0  0  0  0  0  0  0
    5.0893  -29.6608  -30.2332 O   0  0  0  0  0  0  0  0  0  0  0  0
 12 11  2  0  0  0
 11 13  1  0  0  0
 11  3  1  0  0  0
  5  3  2  0  0  0
  5  6  1  0  0  0
  3  1  1  0  0  0
  6  4  2  0  0  0
  1  9  2  0  0  0
  1  2  1  0  0  0
  4  2  1  0  0  0
  9  7  1  0  0  0
  2 10  2  0  0  0
  7  8  2  0  0  0
 10  8  1  0  0  0
M  CHG 1  11   1
M  CHG 1  13  -1
M  END
> <minimizedAffinity>
-5.80993

$$$$
