1W11_SK1_U_1247


 39 40  0  0  0  0  0  0  0  0999 V2000
   31.3168   11.5141   30.3183 N   0  0  0  0  0  0  0  0  0  0  0  0
   32.2249   12.0898   31.1801 C   0  0  0  0  0  0  0  0  0  0  0  0
   31.8701   12.6176   32.2159 O   0  0  0  0  0  0  0  0  0  0  0  0
   31.6049   11.1185   29.4641 H   0  0  0  0  0  0  0  0  0  0  0  0
   29.9462   11.5116   30.7072 C   0  0  0  0  0  0  0  0  0  0  0  0
   29.1842   12.4385   29.7550 C   0  0  0  0  0  0  0  0  0  0  0  0
   29.4231    9.4518   29.5517 N   0  0  0  0  0  0  0  0  0  0  0  0
   29.3260   10.1392   30.7417 C   0  0  0  0  0  0  0  0  0  0  0  0
   28.7911    9.7313   31.7434 O   0  0  0  0  0  0  0  0  0  0  0  0
   29.9221    9.8485   28.8014 H   0  0  0  0  0  0  0  0  0  0  0  0
   28.8087    8.1691   29.3906 C   0  0  0  0  0  0  0  0  0  0  0  0
   31.6624    5.2753   27.8375 C   0  0  0  0  0  0  0  0  0  0  0  0
   30.5391    4.8206   28.5508 C   0  0  0  0  0  0  0  0  0  0  0  0
   29.6466    5.7684   29.0836 C   0  0  0  0  0  0  0  0  0  0  0  0
   29.7714    7.1497   28.8262 C   0  0  0  0  0  0  0  0  0  0  0  0
   30.8312    7.5713   28.0170 C   0  0  0  0  0  0  0  0  0  0  0  0
   31.7687    6.6507   27.5441 C   0  0  0  0  0  0  0  0  0  0  0  0
   32.8011    3.1114   27.7247 N   0  0  0  0  0  0  0  0  0  0  0  0
   32.6914    4.4186   27.4139 C   0  0  0  0  0  0  0  0  0  0  0  0
   33.6784    4.8876   26.6370 N   0  0  0  0  0  0  0  0  0  0  0  0
   33.5595    2.5858   27.3815 H   0  0  0  0  0  0  0  0  0  0  0  0
   32.1228    2.6823   28.2949 H   0  0  0  0  0  0  0  0  0  0  0  0
   34.3994    4.2864   26.3405 H   0  0  0  0  0  0  0  0  0  0  0  0
   33.6904   12.0171   30.7993 C   0  0  0  0  0  0  0  0  0  0  0  0
   34.4563   10.9154   31.5470 C   0  0  0  0  0  0  0  0  0  0  0  0
   33.5105    9.9686   31.9830 O   0  0  0  0  0  0  0  0  0  0  0  0
   32.8625   10.4013   32.5607 H   0  0  0  0  0  0  0  0  0  0  0  0
   33.8832   11.7088   29.4232 N   0  0  0  0  0  0  0  0  0  0  0  0
   33.0417   11.2018   29.1490 H   0  0  0  0  0  0  0  0  0  0  0  0
   34.1578   12.7618   28.1944 S   0  0  0  0  0  0  0  0  0  0  0  0
   35.0609   12.0098   27.3082 O   0  0  0  0  0  0  0  0  0  0  0  0
   34.7489   13.9157   28.8271 O   0  0  0  0  0  0  0  0  0  0  0  0
   32.5586   13.2383   27.5213 C   0  0  0  0  0  0  0  0  0  0  0  0
   32.3621   12.2549   26.3886 C   0  0  0  0  0  0  0  0  0  0  0  0
   31.9371   10.9452   26.6351 C   0  0  0  0  0  0  0  0  0  0  0  0
   32.0024   10.0290   25.5827 C   0  0  0  0  0  0  0  0  0  0  0  0
   32.4751   10.4102   24.3199 C   0  0  0  0  0  0  0  0  0  0  0  0
   32.8131   11.7466   24.0590 C   0  0  0  0  0  0  0  0  0  0  0  0
   32.6507   12.6914   25.0831 C   0  0  0  0  0  0  0  0  0  0  0  0
  7 11  1  0  0  0
  7  8  1  0  0  0
 18 19  1  0  0  0
 19 20  2  0  0  0
 19 12  1  0  0  0
 12 13  2  0  0  0
 12 17  1  0  0  0
 13 14  1  0  0  0
 14 15  2  0  0  0
 15 16  1  0  0  0
 15 11  1  0  0  0
 16 17  2  0  0  0
  8  9  2  0  0  0
  8  5  1  0  0  0
  5  1  1  0  0  0
  5  6  1  0  0  0
  1  2  1  0  0  0
  2  3  2  0  0  0
  2 24  1  0  0  0
 24 25  1  0  0  0
 24 28  1  0  0  0
 25 26  1  0  0  0
 28 30  1  0  0  0
 30 31  2  0  0  0
 30 32  2  0  0  0
 30 33  1  0  0  0
 33 34  1  0  0  0
 34 35  2  0  0  0
 34 39  1  0  0  0
 35 36  1  0  0  0
 36 37  2  0  0  0
 37 38  1  0  0  0
 38 39  2  0  0  0
  7 10  1  0  0  0
 18 21  1  0  0  0
 18 22  1  0  0  0
 20 23  1  0  0  0
  1  4  1  0  0  0
 26 27  1  0  0  0
 28 29  1  0  0  0
M  END
> <minimizedAffinity>
-8.19483

$$$$
1W11_SK1_U_1247


 39 40  0  0  0  0  0  0  0  0999 V2000
   29.3814   11.4992   29.9923 N   0  0  0  0  0  0  0  0  0  0  0  0
   30.5253   11.1944   30.6976 C   0  0  0  0  0  0  0  0  0  0  0  0
   30.4998   10.4467   31.6556 O   0  0  0  0  0  0  0  0  0  0  0  0
   29.4009   12.1323   29.2386 H   0  0  0  0  0  0  0  0  0  0  0  0
   28.1696   10.8656   30.3921 C   0  0  0  0  0  0  0  0  0  0  0  0
   27.0823   11.9410   30.4810 C   0  0  0  0  0  0  0  0  0  0  0  0
   28.5493    8.6217   29.5722 N   0  0  0  0  0  0  0  0  0  0  0  0
   27.7457    9.7376   29.4882 C   0  0  0  0  0  0  0  0  0  0  0  0
   26.7886    9.8572   28.7633 O   0  0  0  0  0  0  0  0  0  0  0  0
   29.2812    8.5992   30.2303 H   0  0  0  0  0  0  0  0  0  0  0  0
   28.3351    7.4945   28.7164 C   0  0  0  0  0  0  0  0  0  0  0  0
   31.9617    5.2384   27.8873 C   0  0  0  0  0  0  0  0  0  0  0  0
   31.9055    6.6018   27.5472 C   0  0  0  0  0  0  0  0  0  0  0  0
   30.7126    7.3092   27.7822 C   0  0  0  0  0  0  0  0  0  0  0  0
   29.6147    6.7336   28.4554 C   0  0  0  0  0  0  0  0  0  0  0  0
   29.7342    5.4095   28.8891 C   0  0  0  0  0  0  0  0  0  0  0  0
   30.8824    4.6709   28.5959 C   0  0  0  0  0  0  0  0  0  0  0  0
   34.2817    4.8370   27.2174 N   0  0  0  0  0  0  0  0  0  0  0  0
   33.0434    4.4128   27.5404 C   0  0  0  0  0  0  0  0  0  0  0  0
   32.8878    3.0815   27.5057 N   0  0  0  0  0  0  0  0  0  0  0  0
   34.9812    4.1839   26.9866 H   0  0  0  0  0  0  0  0  0  0  0  0
   34.4864    5.8000   27.2123 H   0  0  0  0  0  0  0  0  0  0  0  0
   33.6466    2.5034   27.2624 H   0  0  0  0  0  0  0  0  0  0  0  0
   31.8253   11.8082   30.2168 C   0  0  0  0  0  0  0  0  0  0  0  0
   32.9868   11.6162   31.2034 C   0  0  0  0  0  0  0  0  0  0  0  0
   33.2414   10.2345   31.2883 O   0  0  0  0  0  0  0  0  0  0  0  0
   32.4420    9.7765   31.5918 H   0  0  0  0  0  0  0  0  0  0  0  0
   32.2911   11.2233   29.0056 N   0  0  0  0  0  0  0  0  0  0  0  0
   31.6036   10.5039   28.7820 H   0  0  0  0  0  0  0  0  0  0  0  0
   32.5835   11.9821   27.5799 S   0  0  0  0  0  0  0  0  0  0  0  0
   33.8784   11.4194   27.1637 O   0  0  0  0  0  0  0  0  0  0  0  0
   32.6091   13.3859   27.9114 O   0  0  0  0  0  0  0  0  0  0  0  0
   31.1738   11.6767   26.5042 C   0  0  0  0  0  0  0  0  0  0  0  0
   31.7955   11.6733   25.1250 C   0  0  0  0  0  0  0  0  0  0  0  0
   32.1435   10.4749   24.4929 C   0  0  0  0  0  0  0  0  0  0  0  0
   32.9213   10.5499   23.3351 C   0  0  0  0  0  0  0  0  0  0  0  0
   33.3367   11.7855   22.8213 C   0  0  0  0  0  0  0  0  0  0  0  0
   32.9068   12.9836   23.4113 C   0  0  0  0  0  0  0  0  0  0  0  0
   32.0406   12.9155   24.5126 C   0  0  0  0  0  0  0  0  0  0  0  0
  7 11  1  0  0  0
  7  8  1  0  0  0
 18 19  1  0  0  0
 19 20  2  0  0  0
 19 12  1  0  0  0
 12 13  2  0  0  0
 12 17  1  0  0  0
 13 14  1  0  0  0
 14 15  2  0  0  0
 15 16  1  0  0  0
 15 11  1  0  0  0
 16 17  2  0  0  0
  8  9  2  0  0  0
  8  5  1  0  0  0
  5  1  1  0  0  0
  5  6  1  0  0  0
  1  2  1  0  0  0
  2  3  2  0  0  0
  2 24  1  0  0  0
 24 25  1  0  0  0
 24 28  1  0  0  0
 25 26  1  0  0  0
 28 30  1  0  0  0
 30 31  2  0  0  0
 30 32  2  0  0  0
 30 33  1  0  0  0
 33 34  1  0  0  0
 34 35  2  0  0  0
 34 39  1  0  0  0
 35 36  1  0  0  0
 36 37  2  0  0  0
 37 38  1  0  0  0
 38 39  2  0  0  0
  7 10  1  0  0  0
 18 21  1  0  0  0
 18 22  1  0  0  0
 20 23  1  0  0  0
  1  4  1  0  0  0
 26 27  1  0  0  0
 28 29  1  0  0  0
M  END
> <minimizedAffinity>
-7.75909

$$$$
1W11_SK1_U_1247


 39 40  0  0  0  0  0  0  0  0999 V2000
   29.3620   11.5941   30.2453 N   0  0  0  0  0  0  0  0  0  0  0  0
   30.4582   11.0730   30.8979 C   0  0  0  0  0  0  0  0  0  0  0  0
   30.3545   10.1322   31.6606 O   0  0  0  0  0  0  0  0  0  0  0  0
   29.4451   12.3779   29.6554 H   0  0  0  0  0  0  0  0  0  0  0  0
   28.1043   10.9584   30.4544 C   0  0  0  0  0  0  0  0  0  0  0  0
   27.0428   12.0523   30.6073 C   0  0  0  0  0  0  0  0  0  0  0  0
   28.5172    8.8552   29.3330 N   0  0  0  0  0  0  0  0  0  0  0  0
   27.7274    9.9835   29.3696 C   0  0  0  0  0  0  0  0  0  0  0  0
   26.8159   10.2238   28.6165 O   0  0  0  0  0  0  0  0  0  0  0  0
   29.2085    8.7242   30.0216 H   0  0  0  0  0  0  0  0  0  0  0  0
   28.3469    7.8707   28.3081 C   0  0  0  0  0  0  0  0  0  0  0  0
   31.8431    5.3449   27.7365 C   0  0  0  0  0  0  0  0  0  0  0  0
   31.9214    6.7123   27.4176 C   0  0  0  0  0  0  0  0  0  0  0  0
   30.7718    7.5089   27.5674 C   0  0  0  0  0  0  0  0  0  0  0  0
   29.5806    7.0141   28.1385 C   0  0  0  0  0  0  0  0  0  0  0  0
   29.5605    5.6798   28.5565 C   0  0  0  0  0  0  0  0  0  0  0  0
   30.6681    4.8562   28.3445 C   0  0  0  0  0  0  0  0  0  0  0  0
   32.8322    3.1072   27.6568 N   0  0  0  0  0  0  0  0  0  0  0  0
   32.8823    4.4405   27.4640 C   0  0  0  0  0  0  0  0  0  0  0  0
   34.0484    4.8855   26.9741 N   0  0  0  0  0  0  0  0  0  0  0  0
   33.6122    2.5483   27.4367 H   0  0  0  0  0  0  0  0  0  0  0  0
   32.0155    2.6924   28.0179 H   0  0  0  0  0  0  0  0  0  0  0  0
   34.7764    4.2509   26.7833 H   0  0  0  0  0  0  0  0  0  0  0  0
   31.8064   11.7024   30.6082 C   0  0  0  0  0  0  0  0  0  0  0  0
   32.8402   11.4565   31.7174 C   0  0  0  0  0  0  0  0  0  0  0  0
   33.3054   10.1360   31.5724 O   0  0  0  0  0  0  0  0  0  0  0  0
   32.5590    9.5206   31.6438 H   0  0  0  0  0  0  0  0  0  0  0  0
   32.4157   11.1744   29.4351 N   0  0  0  0  0  0  0  0  0  0  0  0
   31.7703   10.4561   29.1066 H   0  0  0  0  0  0  0  0  0  0  0  0
   32.8533   11.9956   28.0830 S   0  0  0  0  0  0  0  0  0  0  0  0
   31.9562   13.1625   28.0982 O   0  0  0  0  0  0  0  0  0  0  0  0
   32.6254   11.0678   27.0021 O   0  0  0  0  0  0  0  0  0  0  0  0
   34.6199   12.3188   28.1930 C   0  0  0  0  0  0  0  0  0  0  0  0
   34.6720   13.7606   28.6483 C   0  0  0  0  0  0  0  0  0  0  0  0
   34.6754   14.8100   27.7233 C   0  0  0  0  0  0  0  0  0  0  0  0
   34.9606   16.0938   28.1942 C   0  0  0  0  0  0  0  0  0  0  0  0
   35.2311   16.3238   29.5497 C   0  0  0  0  0  0  0  0  0  0  0  0
   35.1361   15.2801   30.4825 C   0  0  0  0  0  0  0  0  0  0  0  0
   34.7484   14.0101   30.0303 C   0  0  0  0  0  0  0  0  0  0  0  0
  7 11  1  0  0  0
  7  8  1  0  0  0
 18 19  1  0  0  0
 19 20  2  0  0  0
 19 12  1  0  0  0
 12 13  2  0  0  0
 12 17  1  0  0  0
 13 14  1  0  0  0
 14 15  2  0  0  0
 15 16  1  0  0  0
 15 11  1  0  0  0
 16 17  2  0  0  0
  8  9  2  0  0  0
  8  5  1  0  0  0
  5  1  1  0  0  0
  5  6  1  0  0  0
  1  2  1  0  0  0
  2  3  2  0  0  0
  2 24  1  0  0  0
 24 25  1  0  0  0
 24 28  1  0  0  0
 25 26  1  0  0  0
 28 30  1  0  0  0
 30 31  2  0  0  0
 30 32  2  0  0  0
 30 33  1  0  0  0
 33 34  1  0  0  0
 34 35  2  0  0  0
 34 39  1  0  0  0
 35 36  1  0  0  0
 36 37  2  0  0  0
 37 38  1  0  0  0
 38 39  2  0  0  0
  7 10  1  0  0  0
 18 21  1  0  0  0
 18 22  1  0  0  0
 20 23  1  0  0  0
  1  4  1  0  0  0
 26 27  1  0  0  0
 28 29  1  0  0  0
M  END
> <minimizedAffinity>
-6.98434

$$$$
1W11_SK1_U_1247


 39 40  0  0  0  0  0  0  0  0999 V2000
   30.3228   11.9026   29.9317 N   0  0  0  0  0  0  0  0  0  0  0  0
   31.4652   11.8322   30.6991 C   0  0  0  0  0  0  0  0  0  0  0  0
   31.4658   11.2922   31.7879 O   0  0  0  0  0  0  0  0  0  0  0  0
   30.3185   12.3714   29.0659 H   0  0  0  0  0  0  0  0  0  0  0  0
   29.1482   11.2731   30.4354 C   0  0  0  0  0  0  0  0  0  0  0  0
   28.1723   12.3722   30.8670 C   0  0  0  0  0  0  0  0  0  0  0  0
   28.8607    9.0062   29.6416 N   0  0  0  0  0  0  0  0  0  0  0  0
   28.5011   10.3239   29.4610 C   0  0  0  0  0  0  0  0  0  0  0  0
   27.7532   10.7341   28.6077 O   0  0  0  0  0  0  0  0  0  0  0  0
   29.4413    8.7609   30.3979 H   0  0  0  0  0  0  0  0  0  0  0  0
   28.4023    7.9889   28.7451 C   0  0  0  0  0  0  0  0  0  0  0  0
   31.6386    5.2429   27.7884 C   0  0  0  0  0  0  0  0  0  0  0  0
   30.5659    4.7946   28.5794 C   0  0  0  0  0  0  0  0  0  0  0  0
   29.5472    5.7042   28.9163 C   0  0  0  0  0  0  0  0  0  0  0  0
   29.5006    7.0126   28.3911 C   0  0  0  0  0  0  0  0  0  0  0  0
   30.5169    7.4016   27.5127 C   0  0  0  0  0  0  0  0  0  0  0  0
   31.5753    6.5361   27.2292 C   0  0  0  0  0  0  0  0  0  0  0  0
   32.8417    3.1171   27.6278 N   0  0  0  0  0  0  0  0  0  0  0  0
   32.7784    4.4609   27.5403 C   0  0  0  0  0  0  0  0  0  0  0  0
   33.9315    5.0476   27.1884 N   0  0  0  0  0  0  0  0  0  0  0  0
   33.6869    2.6505   27.4351 H   0  0  0  0  0  0  0  0  0  0  0  0
   32.0427    2.6023   27.8844 H   0  0  0  0  0  0  0  0  0  0  0  0
   34.7302    4.4988   27.0147 H   0  0  0  0  0  0  0  0  0  0  0  0
   32.7314   12.4328   30.1213 C   0  0  0  0  0  0  0  0  0  0  0  0
   33.8990   12.4591   31.1190 C   0  0  0  0  0  0  0  0  0  0  0  0
   33.4758   13.1957   32.2412 O   0  0  0  0  0  0  0  0  0  0  0  0
   33.2282   14.0920   31.9649 H   0  0  0  0  0  0  0  0  0  0  0  0
   33.2313   11.6928   29.0129 N   0  0  0  0  0  0  0  0  0  0  0  0
   32.7921   10.7757   29.0921 H   0  0  0  0  0  0  0  0  0  0  0  0
   33.1138   12.0786   27.4218 S   0  0  0  0  0  0  0  0  0  0  0  0
   31.6767   12.3471   27.2506 O   0  0  0  0  0  0  0  0  0  0  0  0
   33.6014   10.9127   26.7261 O   0  0  0  0  0  0  0  0  0  0  0  0
   34.2451   13.4425   27.1098 C   0  0  0  0  0  0  0  0  0  0  0  0
   34.4998   13.3367   25.6222 C   0  0  0  0  0  0  0  0  0  0  0  0
   35.7261   12.8770   25.1307 C   0  0  0  0  0  0  0  0  0  0  0  0
   35.9786   13.0256   23.7650 C   0  0  0  0  0  0  0  0  0  0  0  0
   35.0329   13.6130   22.9140 C   0  0  0  0  0  0  0  0  0  0  0  0
   33.7715   13.9876   23.4008 C   0  0  0  0  0  0  0  0  0  0  0  0
   33.4747   13.7451   24.7502 C   0  0  0  0  0  0  0  0  0  0  0  0
  7 11  1  0  0  0
  7  8  1  0  0  0
 18 19  1  0  0  0
 19 20  2  0  0  0
 19 12  1  0  0  0
 12 13  2  0  0  0
 12 17  1  0  0  0
 13 14  1  0  0  0
 14 15  2  0  0  0
 15 16  1  0  0  0
 15 11  1  0  0  0
 16 17  2  0  0  0
  8  9  2  0  0  0
  8  5  1  0  0  0
  5  1  1  0  0  0
  5  6  1  0  0  0
  1  2  1  0  0  0
  2  3  2  0  0  0
  2 24  1  0  0  0
 24 25  1  0  0  0
 24 28  1  0  0  0
 25 26  1  0  0  0
 28 30  1  0  0  0
 30 31  2  0  0  0
 30 32  2  0  0  0
 30 33  1  0  0  0
 33 34  1  0  0  0
 34 35  2  0  0  0
 34 39  1  0  0  0
 35 36  1  0  0  0
 36 37  2  0  0  0
 37 38  1  0  0  0
 38 39  2  0  0  0
  7 10  1  0  0  0
 18 21  1  0  0  0
 18 22  1  0  0  0
 20 23  1  0  0  0
  1  4  1  0  0  0
 26 27  1  0  0  0
 28 29  1  0  0  0
M  END
> <minimizedAffinity>
-6.66200

$$$$
1W11_SK1_U_1247


 39 40  0  0  0  0  0  0  0  0999 V2000
   32.8972   12.4947   30.2070 N   0  0  0  0  0  0  0  0  0  0  0  0
   32.6388   13.5998   30.9885 C   0  0  0  0  0  0  0  0  0  0  0  0
   33.1625   14.6732   30.7626 O   0  0  0  0  0  0  0  0  0  0  0  0
   32.4978   11.6191   30.4145 H   0  0  0  0  0  0  0  0  0  0  0  0
   33.7628   12.6639   29.0882 C   0  0  0  0  0  0  0  0  0  0  0  0
   35.1588   12.1815   29.4947 C   0  0  0  0  0  0  0  0  0  0  0  0
   31.9344   11.7117   27.8226 N   0  0  0  0  0  0  0  0  0  0  0  0
   33.2884   11.9655   27.8407 C   0  0  0  0  0  0  0  0  0  0  0  0
   34.0682   11.6637   26.9708 O   0  0  0  0  0  0  0  0  0  0  0  0
   31.3693   12.0399   28.5590 H   0  0  0  0  0  0  0  0  0  0  0  0
   31.3376   10.9776   26.7485 C   0  0  0  0  0  0  0  0  0  0  0  0
   30.2732    6.9560   28.0224 C   0  0  0  0  0  0  0  0  0  0  0  0
   29.5978    8.0565   28.5794 C   0  0  0  0  0  0  0  0  0  0  0  0
   29.9804    9.3529   28.1900 C   0  0  0  0  0  0  0  0  0  0  0  0
   30.9313    9.5855   27.1743 C   0  0  0  0  0  0  0  0  0  0  0  0
   31.5077    8.4743   26.5509 C   0  0  0  0  0  0  0  0  0  0  0  0
   31.1946    7.1826   26.9790 C   0  0  0  0  0  0  0  0  0  0  0  0
   30.4858    4.5250   27.8293 N   0  0  0  0  0  0  0  0  0  0  0  0
   30.0780    5.6391   28.4695 C   0  0  0  0  0  0  0  0  0  0  0  0
   29.4325    5.4102   29.6222 N   0  0  0  0  0  0  0  0  0  0  0  0
   30.3046    3.6392   28.2188 H   0  0  0  0  0  0  0  0  0  0  0  0
   30.9649    4.5973   26.9722 H   0  0  0  0  0  0  0  0  0  0  0  0
   29.2960    4.4868   29.9350 H   0  0  0  0  0  0  0  0  0  0  0  0
   31.6537   13.4327   32.1285 C   0  0  0  0  0  0  0  0  0  0  0  0
   31.7645   14.5364   33.1910 C   0  0  0  0  0  0  0  0  0  0  0  0
   31.5946   13.9272   34.4484 O   0  0  0  0  0  0  0  0  0  0  0  0
   30.7286   13.4913   34.4822 H   0  0  0  0  0  0  0  0  0  0  0  0
   30.2995   13.4956   31.6947 N   0  0  0  0  0  0  0  0  0  0  0  0
   30.2343   14.3668   31.1682 H   0  0  0  0  0  0  0  0  0  0  0  0
   29.4917   12.3939   30.7849 S   0  0  0  0  0  0  0  0  0  0  0  0
   30.0462   11.1111   31.2468 O   0  0  0  0  0  0  0  0  0  0  0  0
   29.8132   12.7394   29.4217 O   0  0  0  0  0  0  0  0  0  0  0  0
   27.7315   12.6653   31.0410 C   0  0  0  0  0  0  0  0  0  0  0  0
   27.1153   12.0986   29.7809 C   0  0  0  0  0  0  0  0  0  0  0  0
   26.9632   10.7187   29.6091 C   0  0  0  0  0  0  0  0  0  0  0  0
   26.6096   10.2543   28.3401 C   0  0  0  0  0  0  0  0  0  0  0  0
   26.4102   11.1420   27.2744 C   0  0  0  0  0  0  0  0  0  0  0  0
   26.4766   12.5283   27.4796 C   0  0  0  0  0  0  0  0  0  0  0  0
   26.7290   13.0028   28.7753 C   0  0  0  0  0  0  0  0  0  0  0  0
  7 11  1  0  0  0
  7  8  1  0  0  0
 18 19  1  0  0  0
 19 20  2  0  0  0
 19 12  1  0  0  0
 12 13  2  0  0  0
 12 17  1  0  0  0
 13 14  1  0  0  0
 14 15  2  0  0  0
 15 16  1  0  0  0
 15 11  1  0  0  0
 16 17  2  0  0  0
  8  9  2  0  0  0
  8  5  1  0  0  0
  5  1  1  0  0  0
  5  6  1  0  0  0
  1  2  1  0  0  0
  2  3  2  0  0  0
  2 24  1  0  0  0
 24 25  1  0  0  0
 24 28  1  0  0  0
 25 26  1  0  0  0
 28 30  1  0  0  0
 30 31  2  0  0  0
 30 32  2  0  0  0
 30 33  1  0  0  0
 33 34  1  0  0  0
 34 35  2  0  0  0
 34 39  1  0  0  0
 35 36  1  0  0  0
 36 37  2  0  0  0
 37 38  1  0  0  0
 38 39  2  0  0  0
  7 10  1  0  0  0
 18 21  1  0  0  0
 18 22  1  0  0  0
 20 23  1  0  0  0
  1  4  1  0  0  0
 26 27  1  0  0  0
 28 29  1  0  0  0
M  END
> <minimizedAffinity>
-6.65470

$$$$
1W11_SK1_U_1247


 39 40  0  0  0  0  0  0  0  0999 V2000
   29.7525   12.4367   29.2774 N   0  0  0  0  0  0  0  0  0  0  0  0
   28.8483   13.1780   30.0066 C   0  0  0  0  0  0  0  0  0  0  0  0
   27.6498   13.0205   29.8796 O   0  0  0  0  0  0  0  0  0  0  0  0
   30.7214   12.5918   29.3581 H   0  0  0  0  0  0  0  0  0  0  0  0
   29.2358   11.4379   28.4027 C   0  0  0  0  0  0  0  0  0  0  0  0
   30.1117   11.4126   27.1462 C   0  0  0  0  0  0  0  0  0  0  0  0
   28.6039    9.1119   28.1981 N   0  0  0  0  0  0  0  0  0  0  0  0
   29.1428   10.0706   29.0279 C   0  0  0  0  0  0  0  0  0  0  0  0
   29.5080    9.8876   30.1632 O   0  0  0  0  0  0  0  0  0  0  0  0
   28.3791    9.3456   27.2685 H   0  0  0  0  0  0  0  0  0  0  0  0
   28.3661    7.7810   28.6682 C   0  0  0  0  0  0  0  0  0  0  0  0
   31.7163    5.1693   27.7276 C   0  0  0  0  0  0  0  0  0  0  0  0
   30.6990    4.7050   28.5803 C   0  0  0  0  0  0  0  0  0  0  0  0
   29.6432    5.5741   28.9098 C   0  0  0  0  0  0  0  0  0  0  0  0
   29.5045    6.8490   28.3220 C   0  0  0  0  0  0  0  0  0  0  0  0
   30.4657    7.2465   27.3872 C   0  0  0  0  0  0  0  0  0  0  0  0
   31.5605    6.4263   27.1073 C   0  0  0  0  0  0  0  0  0  0  0  0
   34.0833    4.9649   27.1381 N   0  0  0  0  0  0  0  0  0  0  0  0
   32.8889    4.4387   27.4758 C   0  0  0  0  0  0  0  0  0  0  0  0
   32.8769    3.1005   27.5582 N   0  0  0  0  0  0  0  0  0  0  0  0
   34.8545    4.3737   26.9796 H   0  0  0  0  0  0  0  0  0  0  0  0
   34.1844    5.9402   27.0500 H   0  0  0  0  0  0  0  0  0  0  0  0
   33.6993    2.5890   27.3816 H   0  0  0  0  0  0  0  0  0  0  0  0
   29.4064   14.1825   30.9953 C   0  0  0  0  0  0  0  0  0  0  0  0
   28.3168   14.9504   31.7584 C   0  0  0  0  0  0  0  0  0  0  0  0
   27.5818   15.6882   30.8115 O   0  0  0  0  0  0  0  0  0  0  0  0
   28.1762   16.2939   30.3415 H   0  0  0  0  0  0  0  0  0  0  0  0
   30.1864   13.5696   32.0161 N   0  0  0  0  0  0  0  0  0  0  0  0
   29.7577   12.6551   32.1585 H   0  0  0  0  0  0  0  0  0  0  0  0
   31.8015   13.2776   31.9970 S   0  0  0  0  0  0  0  0  0  0  0  0
   31.8901   11.9410   31.3869 O   0  0  0  0  0  0  0  0  0  0  0  0
   32.2009   13.3414   33.3817 O   0  0  0  0  0  0  0  0  0  0  0  0
   32.5872   14.6347   31.1146 C   0  0  0  0  0  0  0  0  0  0  0  0
   33.3197   13.9301   29.9940 C   0  0  0  0  0  0  0  0  0  0  0  0
   32.8203   13.9390   28.6873 C   0  0  0  0  0  0  0  0  0  0  0  0
   33.4117   13.0813   27.7570 C   0  0  0  0  0  0  0  0  0  0  0  0
   34.4732   12.2415   28.1196 C   0  0  0  0  0  0  0  0  0  0  0  0
   35.0250   12.3061   29.4079 C   0  0  0  0  0  0  0  0  0  0  0  0
   34.5023   13.2398   30.3150 C   0  0  0  0  0  0  0  0  0  0  0  0
  7 11  1  0  0  0
  7  8  1  0  0  0
 18 19  1  0  0  0
 19 20  2  0  0  0
 19 12  1  0  0  0
 12 13  2  0  0  0
 12 17  1  0  0  0
 13 14  1  0  0  0
 14 15  2  0  0  0
 15 16  1  0  0  0
 15 11  1  0  0  0
 16 17  2  0  0  0
  8  9  2  0  0  0
  8  5  1  0  0  0
  5  1  1  0  0  0
  5  6  1  0  0  0
  1  2  1  0  0  0
  2  3  2  0  0  0
  2 24  1  0  0  0
 24 25  1  0  0  0
 24 28  1  0  0  0
 25 26  1  0  0  0
 28 30  1  0  0  0
 30 31  2  0  0  0
 30 32  2  0  0  0
 30 33  1  0  0  0
 33 34  1  0  0  0
 34 35  2  0  0  0
 34 39  1  0  0  0
 35 36  1  0  0  0
 36 37  2  0  0  0
 37 38  1  0  0  0
 38 39  2  0  0  0
  7 10  1  0  0  0
 18 21  1  0  0  0
 18 22  1  0  0  0
 20 23  1  0  0  0
  1  4  1  0  0  0
 26 27  1  0  0  0
 28 29  1  0  0  0
M  END
> <minimizedAffinity>
-6.60011

$$$$
1W11_SK1_U_1247


 39 40  0  0  0  0  0  0  0  0999 V2000
   31.9724   11.6411   30.5687 N   0  0  0  0  0  0  0  0  0  0  0  0
   30.8679   12.2444   31.1299 C   0  0  0  0  0  0  0  0  0  0  0  0
   30.9781   13.0856   32.0004 O   0  0  0  0  0  0  0  0  0  0  0  0
   31.8773   10.9355   29.8888 H   0  0  0  0  0  0  0  0  0  0  0  0
   33.2568   12.0747   31.0070 C   0  0  0  0  0  0  0  0  0  0  0  0
   33.9885   10.8633   31.5935 C   0  0  0  0  0  0  0  0  0  0  0  0
   33.9851   12.1192   28.7007 N   0  0  0  0  0  0  0  0  0  0  0  0
   34.0764   12.7353   29.9296 C   0  0  0  0  0  0  0  0  0  0  0  0
   34.7477   13.7070   30.1766 O   0  0  0  0  0  0  0  0  0  0  0  0
   33.3718   11.3580   28.5839 H   0  0  0  0  0  0  0  0  0  0  0  0
   34.7694   12.5700   27.5915 C   0  0  0  0  0  0  0  0  0  0  0  0
   33.1062   11.3558   23.7588 C   0  0  0  0  0  0  0  0  0  0  0  0
   32.5092   10.8954   24.9458 C   0  0  0  0  0  0  0  0  0  0  0  0
   33.0820   11.2612   26.1774 C   0  0  0  0  0  0  0  0  0  0  0  0
   34.1580   12.1690   26.2687 C   0  0  0  0  0  0  0  0  0  0  0  0
   34.6632   12.7063   25.0805 C   0  0  0  0  0  0  0  0  0  0  0  0
   34.1554   12.2942   23.8467 C   0  0  0  0  0  0  0  0  0  0  0  0
   31.8992   11.5782   21.6408 N   0  0  0  0  0  0  0  0  0  0  0  0
   32.7098   10.9115   22.4870 C   0  0  0  0  0  0  0  0  0  0  0  0
   33.1390    9.7281   22.0253 N   0  0  0  0  0  0  0  0  0  0  0  0
   31.6739   11.1885   20.7653 H   0  0  0  0  0  0  0  0  0  0  0  0
   31.5326   12.4548   21.8984 H   0  0  0  0  0  0  0  0  0  0  0  0
   32.8606    9.4173   21.1336 H   0  0  0  0  0  0  0  0  0  0  0  0
   29.5068   11.8371   30.6013 C   0  0  0  0  0  0  0  0  0  0  0  0
   28.6535   13.0294   30.1436 C   0  0  0  0  0  0  0  0  0  0  0  0
   28.2527   13.7267   31.2987 O   0  0  0  0  0  0  0  0  0  0  0  0
   27.7475   13.1329   31.8758 H   0  0  0  0  0  0  0  0  0  0  0  0
   29.5941   11.0036   29.4507 N   0  0  0  0  0  0  0  0  0  0  0  0
   30.4818   11.2529   29.0147 H   0  0  0  0  0  0  0  0  0  0  0  0
   29.5483    9.3637   29.4017 S   0  0  0  0  0  0  0  0  0  0  0  0
   28.4495    9.0344   30.3240 O   0  0  0  0  0  0  0  0  0  0  0  0
   30.8574    8.9481   29.8429 O   0  0  0  0  0  0  0  0  0  0  0  0
   29.3468    8.8783   27.6809 C   0  0  0  0  0  0  0  0  0  0  0  0
   29.8742    7.4604   27.6656 C   0  0  0  0  0  0  0  0  0  0  0  0
   29.2029    6.4331   28.3371 C   0  0  0  0  0  0  0  0  0  0  0  0
   29.8601    5.2089   28.4805 C   0  0  0  0  0  0  0  0  0  0  0  0
   31.1488    5.0148   27.9656 C   0  0  0  0  0  0  0  0  0  0  0  0
   31.7758    6.0214   27.2160 C   0  0  0  0  0  0  0  0  0  0  0  0
   31.0779    7.2152   26.9806 C   0  0  0  0  0  0  0  0  0  0  0  0
  7 11  1  0  0  0
  7  8  1  0  0  0
 18 19  1  0  0  0
 19 20  2  0  0  0
 19 12  1  0  0  0
 12 13  2  0  0  0
 12 17  1  0  0  0
 13 14  1  0  0  0
 14 15  2  0  0  0
 15 16  1  0  0  0
 15 11  1  0  0  0
 16 17  2  0  0  0
  8  9  2  0  0  0
  8  5  1  0  0  0
  5  1  1  0  0  0
  5  6  1  0  0  0
  1  2  1  0  0  0
  2  3  2  0  0  0
  2 24  1  0  0  0
 24 25  1  0  0  0
 24 28  1  0  0  0
 25 26  1  0  0  0
 28 30  1  0  0  0
 30 31  2  0  0  0
 30 32  2  0  0  0
 30 33  1  0  0  0
 33 34  1  0  0  0
 34 35  2  0  0  0
 34 39  1  0  0  0
 35 36  1  0  0  0
 36 37  2  0  0  0
 37 38  1  0  0  0
 38 39  2  0  0  0
  7 10  1  0  0  0
 18 21  1  0  0  0
 18 22  1  0  0  0
 20 23  1  0  0  0
  1  4  1  0  0  0
 26 27  1  0  0  0
 28 29  1  0  0  0
M  END
> <minimizedAffinity>
-6.53081

$$$$
1W11_SK1_U_1247


 39 40  0  0  0  0  0  0  0  0999 V2000
   32.3440   13.0134   29.5377 N   0  0  0  0  0  0  0  0  0  0  0  0
   33.6473   13.2615   29.1654 C   0  0  0  0  0  0  0  0  0  0  0  0
   34.5819   12.7384   29.7401 O   0  0  0  0  0  0  0  0  0  0  0  0
   31.5917   13.4660   29.0922 H   0  0  0  0  0  0  0  0  0  0  0  0
   32.1236   12.0789   30.5902 C   0  0  0  0  0  0  0  0  0  0  0  0
   31.9001   12.8691   31.8834 C   0  0  0  0  0  0  0  0  0  0  0  0
   30.7290   10.9129   28.9942 N   0  0  0  0  0  0  0  0  0  0  0  0
   30.9845   11.1279   30.3309 C   0  0  0  0  0  0  0  0  0  0  0  0
   30.3729   10.6366   31.2476 O   0  0  0  0  0  0  0  0  0  0  0  0
   31.3147   11.3214   28.3164 H   0  0  0  0  0  0  0  0  0  0  0  0
   29.6243   10.1041   28.5770 C   0  0  0  0  0  0  0  0  0  0  0  0
   30.7995    5.9212   28.3495 C   0  0  0  0  0  0  0  0  0  0  0  0
   29.5591    6.2583   28.9197 C   0  0  0  0  0  0  0  0  0  0  0  0
   29.2097    7.6167   29.0253 C   0  0  0  0  0  0  0  0  0  0  0  0
   30.0021    8.6444   28.4721 C   0  0  0  0  0  0  0  0  0  0  0  0
   31.1763    8.2787   27.8063 C   0  0  0  0  0  0  0  0  0  0  0  0
   31.5748    6.9412   27.7599 C   0  0  0  0  0  0  0  0  0  0  0  0
   31.0445    3.6714   29.2825 N   0  0  0  0  0  0  0  0  0  0  0  0
   31.3062    4.6114   28.3523 C   0  0  0  0  0  0  0  0  0  0  0  0
   32.1295    4.2080   27.3739 N   0  0  0  0  0  0  0  0  0  0  0  0
   31.4454    2.7757   29.2036 H   0  0  0  0  0  0  0  0  0  0  0  0
   30.4524    3.8806   30.0408 H   0  0  0  0  0  0  0  0  0  0  0  0
   32.4843    3.2896   27.3766 H   0  0  0  0  0  0  0  0  0  0  0  0
   33.8717   14.1941   27.9916 C   0  0  0  0  0  0  0  0  0  0  0  0
   33.7283   15.6780   28.3614 C   0  0  0  0  0  0  0  0  0  0  0  0
   33.5871   15.7504   29.7600 O   0  0  0  0  0  0  0  0  0  0  0  0
   32.8071   15.2423   30.0329 H   0  0  0  0  0  0  0  0  0  0  0  0
   35.1855   14.0901   27.4539 N   0  0  0  0  0  0  0  0  0  0  0  0
   35.6626   13.4212   28.0583 H   0  0  0  0  0  0  0  0  0  0  0  0
   35.6070   13.6529   25.9290 S   0  0  0  0  0  0  0  0  0  0  0  0
   35.9377   12.2258   26.0721 O   0  0  0  0  0  0  0  0  0  0  0  0
   36.7232   14.5055   25.5997 O   0  0  0  0  0  0  0  0  0  0  0  0
   34.2324   14.0708   24.8458 C   0  0  0  0  0  0  0  0  0  0  0  0
   33.7680   12.7183   24.3520 C   0  0  0  0  0  0  0  0  0  0  0  0
   34.2660   12.1736   23.1637 C   0  0  0  0  0  0  0  0  0  0  0  0
   33.6290   11.0430   22.6469 C   0  0  0  0  0  0  0  0  0  0  0  0
   32.5289   10.4707   23.2993 C   0  0  0  0  0  0  0  0  0  0  0  0
   32.0949   10.9704   24.5364 C   0  0  0  0  0  0  0  0  0  0  0  0
   32.7964   12.0410   25.1104 C   0  0  0  0  0  0  0  0  0  0  0  0
  7 11  1  0  0  0
  7  8  1  0  0  0
 18 19  1  0  0  0
 19 20  2  0  0  0
 19 12  1  0  0  0
 12 13  2  0  0  0
 12 17  1  0  0  0
 13 14  1  0  0  0
 14 15  2  0  0  0
 15 16  1  0  0  0
 15 11  1  0  0  0
 16 17  2  0  0  0
  8  9  2  0  0  0
  8  5  1  0  0  0
  5  1  1  0  0  0
  5  6  1  0  0  0
  1  2  1  0  0  0
  2  3  2  0  0  0
  2 24  1  0  0  0
 24 25  1  0  0  0
 24 28  1  0  0  0
 25 26  1  0  0  0
 28 30  1  0  0  0
 30 31  2  0  0  0
 30 32  2  0  0  0
 30 33  1  0  0  0
 33 34  1  0  0  0
 34 35  2  0  0  0
 34 39  1  0  0  0
 35 36  1  0  0  0
 36 37  2  0  0  0
 37 38  1  0  0  0
 38 39  2  0  0  0
  7 10  1  0  0  0
 18 21  1  0  0  0
 18 22  1  0  0  0
 20 23  1  0  0  0
  1  4  1  0  0  0
 26 27  1  0  0  0
 28 29  1  0  0  0
M  END
> <minimizedAffinity>
-6.39989

$$$$
1W11_SK1_U_1247


 39 40  0  0  0  0  0  0  0  0999 V2000
   27.9805   12.0018   29.3537 N   0  0  0  0  0  0  0  0  0  0  0  0
   26.8717   11.7843   28.5650 C   0  0  0  0  0  0  0  0  0  0  0  0
   26.4874   12.6168   27.7671 O   0  0  0  0  0  0  0  0  0  0  0  0
   28.2677   11.3394   30.0231 H   0  0  0  0  0  0  0  0  0  0  0  0
   28.6966   13.2191   29.1664 C   0  0  0  0  0  0  0  0  0  0  0  0
   28.4301   14.1145   30.3804 C   0  0  0  0  0  0  0  0  0  0  0  0
   30.5247   11.7451   28.5858 N   0  0  0  0  0  0  0  0  0  0  0  0
   30.1745   13.0279   28.9462 C   0  0  0  0  0  0  0  0  0  0  0  0
   30.9427   13.9456   29.0994 O   0  0  0  0  0  0  0  0  0  0  0  0
   29.8204   11.0733   28.4376 H   0  0  0  0  0  0  0  0  0  0  0  0
   31.8979   11.3751   28.4239 C   0  0  0  0  0  0  0  0  0  0  0  0
   32.8577   10.9262   24.2041 C   0  0  0  0  0  0  0  0  0  0  0  0
   33.4759   11.9481   24.9464 C   0  0  0  0  0  0  0  0  0  0  0  0
   33.1253   12.1088   26.2991 C   0  0  0  0  0  0  0  0  0  0  0  0
   32.2692   11.2092   26.9682 C   0  0  0  0  0  0  0  0  0  0  0  0
   31.7556   10.1309   26.2406 C   0  0  0  0  0  0  0  0  0  0  0  0
   32.0334   10.0015   24.8783 C   0  0  0  0  0  0  0  0  0  0  0  0
   34.1367   10.3785   22.1900 N   0  0  0  0  0  0  0  0  0  0  0  0
   33.0166   10.7935   22.8151 C   0  0  0  0  0  0  0  0  0  0  0  0
   32.0029   11.0964   21.9914 N   0  0  0  0  0  0  0  0  0  0  0  0
   34.1577   10.3156   21.2078 H   0  0  0  0  0  0  0  0  0  0  0  0
   34.9336   10.1384   22.7158 H   0  0  0  0  0  0  0  0  0  0  0  0
   32.1150   11.0031   21.0178 H   0  0  0  0  0  0  0  0  0  0  0  0
   26.1620   10.4529   28.7116 C   0  0  0  0  0  0  0  0  0  0  0  0
   25.6011    9.9166   27.3860 C   0  0  0  0  0  0  0  0  0  0  0  0
   24.8571    8.7592   27.6826 O   0  0  0  0  0  0  0  0  0  0  0  0
   25.4321    8.1063   28.1117 H   0  0  0  0  0  0  0  0  0  0  0  0
   27.0265    9.4201   29.1722 N   0  0  0  0  0  0  0  0  0  0  0  0
   26.4033    8.6588   29.4411 H   0  0  0  0  0  0  0  0  0  0  0  0
   28.2427    8.6941   28.3429 S   0  0  0  0  0  0  0  0  0  0  0  0
   28.6785    9.7428   27.4066 O   0  0  0  0  0  0  0  0  0  0  0  0
   27.6283    7.5445   27.7249 O   0  0  0  0  0  0  0  0  0  0  0  0
   29.4497    8.1167   29.5460 C   0  0  0  0  0  0  0  0  0  0  0  0
   30.0995    6.9479   28.8386 C   0  0  0  0  0  0  0  0  0  0  0  0
   29.7023    5.6329   29.1025 C   0  0  0  0  0  0  0  0  0  0  0  0
   30.4942    4.5985   28.5984 C   0  0  0  0  0  0  0  0  0  0  0  0
   31.6472    4.8690   27.8495 C   0  0  0  0  0  0  0  0  0  0  0  0
   31.9859    6.1886   27.5143 C   0  0  0  0  0  0  0  0  0  0  0  0
   31.1370    7.2250   27.9303 C   0  0  0  0  0  0  0  0  0  0  0  0
  7 11  1  0  0  0
  7  8  1  0  0  0
 18 19  1  0  0  0
 19 20  2  0  0  0
 19 12  1  0  0  0
 12 13  2  0  0  0
 12 17  1  0  0  0
 13 14  1  0  0  0
 14 15  2  0  0  0
 15 16  1  0  0  0
 15 11  1  0  0  0
 16 17  2  0  0  0
  8  9  2  0  0  0
  8  5  1  0  0  0
  5  1  1  0  0  0
  5  6  1  0  0  0
  1  2  1  0  0  0
  2  3  2  0  0  0
  2 24  1  0  0  0
 24 25  1  0  0  0
 24 28  1  0  0  0
 25 26  1  0  0  0
 28 30  1  0  0  0
 30 31  2  0  0  0
 30 32  2  0  0  0
 30 33  1  0  0  0
 33 34  1  0  0  0
 34 35  2  0  0  0
 34 39  1  0  0  0
 35 36  1  0  0  0
 36 37  2  0  0  0
 37 38  1  0  0  0
 38 39  2  0  0  0
  7 10  1  0  0  0
 18 21  1  0  0  0
 18 22  1  0  0  0
 20 23  1  0  0  0
  1  4  1  0  0  0
 26 27  1  0  0  0
 28 29  1  0  0  0
M  END
> <minimizedAffinity>
-6.32386

$$$$
1W11_SK1_U_1247


 39 40  0  0  0  0  0  0  0  0999 V2000
   28.2779   10.1950   29.1156 N   0  0  0  0  0  0  0  0  0  0  0  0
   29.2286    9.4139   28.4952 C   0  0  0  0  0  0  0  0  0  0  0  0
   29.3607    9.4149   27.2869 O   0  0  0  0  0  0  0  0  0  0  0  0
   28.1512   10.1648   30.0914 H   0  0  0  0  0  0  0  0  0  0  0  0
   27.4847   11.0477   28.2949 C   0  0  0  0  0  0  0  0  0  0  0  0
   26.0857   11.1296   28.9136 C   0  0  0  0  0  0  0  0  0  0  0  0
   28.9621   12.5016   27.0480 N   0  0  0  0  0  0  0  0  0  0  0  0
   28.0725   12.4204   28.0969 C   0  0  0  0  0  0  0  0  0  0  0  0
   27.7692   13.3305   28.8287 O   0  0  0  0  0  0  0  0  0  0  0  0
   29.1099   11.7148   26.4750 H   0  0  0  0  0  0  0  0  0  0  0  0
   29.6746   13.7137   26.7796 C   0  0  0  0  0  0  0  0  0  0  0  0
   33.6863   12.9369   25.2856 C   0  0  0  0  0  0  0  0  0  0  0  0
   33.4007   14.1794   25.8790 C   0  0  0  0  0  0  0  0  0  0  0  0
   32.0893   14.4332   26.3198 C   0  0  0  0  0  0  0  0  0  0  0  0
   31.0821   13.4457   26.2986 C   0  0  0  0  0  0  0  0  0  0  0  0
   31.4183   12.1788   25.8108 C   0  0  0  0  0  0  0  0  0  0  0  0
   32.6944   11.9345   25.2992 C   0  0  0  0  0  0  0  0  0  0  0  0
   35.0898   12.3706   23.3616 N   0  0  0  0  0  0  0  0  0  0  0  0
   34.9155   12.6546   24.6679 C   0  0  0  0  0  0  0  0  0  0  0  0
   36.0444   12.6476   25.3913 N   0  0  0  0  0  0  0  0  0  0  0  0
   35.9921   12.1846   23.0144 H   0  0  0  0  0  0  0  0  0  0  0  0
   34.3148   12.3492   22.7548 H   0  0  0  0  0  0  0  0  0  0  0  0
   36.9058   12.4496   24.9576 H   0  0  0  0  0  0  0  0  0  0  0  0
   30.1239    8.5701   29.3808 C   0  0  0  0  0  0  0  0  0  0  0  0
   30.5934    7.2725   28.7062 C   0  0  0  0  0  0  0  0  0  0  0  0
   31.8024    7.5572   28.0442 O   0  0  0  0  0  0  0  0  0  0  0  0
   31.6563    8.2603   27.3922 H   0  0  0  0  0  0  0  0  0  0  0  0
   31.3292    9.2390   29.7358 N   0  0  0  0  0  0  0  0  0  0  0  0
   31.7412    9.5234   28.8471 H   0  0  0  0  0  0  0  0  0  0  0  0
   31.4927   10.5480   30.7123 S   0  0  0  0  0  0  0  0  0  0  0  0
   32.7667   10.2901   31.4029 O   0  0  0  0  0  0  0  0  0  0  0  0
   30.3255   10.5200   31.5596 O   0  0  0  0  0  0  0  0  0  0  0  0
   31.4065   12.0140   29.6726 C   0  0  0  0  0  0  0  0  0  0  0  0
   32.8071   12.5780   29.7667 C   0  0  0  0  0  0  0  0  0  0  0  0
   33.0992   13.6469   30.6205 C   0  0  0  0  0  0  0  0  0  0  0  0
   34.3434   14.2675   30.4868 C   0  0  0  0  0  0  0  0  0  0  0  0
   35.2705   13.8315   29.5309 C   0  0  0  0  0  0  0  0  0  0  0  0
   35.0035   12.7023   28.7423 C   0  0  0  0  0  0  0  0  0  0  0  0
   33.7987   12.0128   28.9449 C   0  0  0  0  0  0  0  0  0  0  0  0
  7 11  1  0  0  0
  7  8  1  0  0  0
 18 19  1  0  0  0
 19 20  2  0  0  0
 19 12  1  0  0  0
 12 13  2  0  0  0
 12 17  1  0  0  0
 13 14  1  0  0  0
 14 15  2  0  0  0
 15 16  1  0  0  0
 15 11  1  0  0  0
 16 17  2  0  0  0
  8  9  2  0  0  0
  8  5  1  0  0  0
  5  1  1  0  0  0
  5  6  1  0  0  0
  1  2  1  0  0  0
  2  3  2  0  0  0
  2 24  1  0  0  0
 24 25  1  0  0  0
 24 28  1  0  0  0
 25 26  1  0  0  0
 28 30  1  0  0  0
 30 31  2  0  0  0
 30 32  2  0  0  0
 30 33  1  0  0  0
 33 34  1  0  0  0
 34 35  2  0  0  0
 34 39  1  0  0  0
 35 36  1  0  0  0
 36 37  2  0  0  0
 37 38  1  0  0  0
 38 39  2  0  0  0
  7 10  1  0  0  0
 18 21  1  0  0  0
 18 22  1  0  0  0
 20 23  1  0  0  0
  1  4  1  0  0  0
 26 27  1  0  0  0
 28 29  1  0  0  0
M  END
> <minimizedAffinity>
-6.17245

$$$$
