6EY8_C4T_A_302


 31 34  0  0  0  0  0  0  0  0999 V2000
   -0.6510   33.9800   23.5441 C   0  0  0  0  0  0  0  0  0  0  0  0
   -1.8048   33.6174   24.2775 C   0  0  0  0  0  0  0  0  0  0  0  0
   -1.7077   32.9269   25.4583 C   0  0  0  0  0  0  0  0  0  0  0  0
   -3.0295   33.8857   23.7845 O   0  0  0  0  0  0  0  0  0  0  0  0
    0.7318   33.0370   25.2686 C   0  0  0  0  0  0  0  0  0  0  0  0
   -0.4440   32.6559   25.9784 C   0  0  0  0  0  0  0  0  0  0  0  0
    1.8518   32.5894   26.0804 C   0  0  0  0  0  0  0  0  0  0  0  0
    0.6343   33.6611   24.0219 C   0  0  0  0  0  0  0  0  0  0  0  0
   -0.0398   32.0528   27.1306 N   0  0  0  0  0  0  0  0  0  0  0  0
    1.3498   32.0937   27.1685 N   0  0  0  0  0  0  0  0  0  0  0  0
   -3.1175   34.3563   22.9790 H   0  0  0  0  0  0  0  0  0  0  0  0
   -0.6270   31.6579   27.8151 H   0  0  0  0  0  0  0  0  0  0  0  0
   -0.4329   36.6927   20.8577 C   0  0  0  0  0  0  0  0  0  0  0  0
   -0.7541   34.7200   22.2646 C   0  0  0  0  0  0  0  0  0  0  0  0
   -0.3624   36.0263   22.1588 N   0  0  0  0  0  0  0  0  0  0  0  0
   -1.1245   34.1072   21.2790 O   0  0  0  0  0  0  0  0  0  0  0  0
   -0.0272   36.8747   23.3240 C   0  0  0  0  0  0  0  0  0  0  0  0
    2.4425   36.5102   22.9673 C   0  0  0  0  0  0  0  0  0  0  0  0
    3.7198   36.4121   23.4883 C   0  0  0  0  0  0  0  0  0  0  0  0
    1.3796   36.7968   23.8267 C   0  0  0  0  0  0  0  0  0  0  0  0
    3.9270   36.6085   24.8575 C   0  0  0  0  0  0  0  0  0  0  0  0
    2.8655   36.8695   25.7228 C   0  0  0  0  0  0  0  0  0  0  0  0
    1.5839   36.9822   25.1940 C   0  0  0  0  0  0  0  0  0  0  0  0
    5.5389   36.4893   25.4814 Cl  0  0  0  0  0  0  0  0  0  0  0  0
    3.3249   32.8293   25.8070 C   0  0  0  0  0  0  0  0  0  0  0  0
    4.1058   31.6606   25.2592 C   0  0  0  0  0  0  0  0  0  0  0  0
    5.5019   31.7093   25.2738 C   0  0  0  0  0  0  0  0  0  0  0  0
    6.2457   30.5996   24.8566 C   0  0  0  0  0  0  0  0  0  0  0  0
    3.4533   30.4868   24.8667 C   0  0  0  0  0  0  0  0  0  0  0  0
    5.5846   29.4338   24.4474 C   0  0  0  0  0  0  0  0  0  0  0  0
    4.1924   29.3745   24.4667 C   0  0  0  0  0  0  0  0  0  0  0  0
 13 15  1  0  0  0
 16 14  2  0  0  0
 15 14  1  0  0  0
 15 17  1  0  0  0
 14  1  1  0  0  0
 28 30  2  0  0  0
 28 27  1  0  0  0
 30 31  1  0  0  0
 18 19  2  0  0  0
 18 20  1  0  0  0
 17 20  1  0  0  0
 19 21  1  0  0  0
  1  8  2  0  0  0
  1  2  1  0  0  0
 27 26  2  0  0  0
  4  2  1  0  0  0
 20 23  2  0  0  0
  8  5  1  0  0  0
 31 29  2  0  0  0
  2  3  2  0  0  0
 26 29  1  0  0  0
 26 25  1  0  0  0
 21 24  1  0  0  0
 21 22  2  0  0  0
 23 22  1  0  0  0
  5  6  2  0  0  0
  5  7  1  0  0  0
  3  6  1  0  0  0
 25  7  1  0  0  0
  6  9  1  0  0  0
  7 10  2  0  0  0
  9 10  1  0  0  0
  4 11  1  0  0  0
  9 12  1  0  0  0
M  END
> <minimizedAffinity>
-11.07169

$$$$
6EY8_C4T_A_302


 31 34  0  0  0  0  0  0  0  0999 V2000
    3.1937   36.5898   25.8145 C   0  0  0  0  0  0  0  0  0  0  0  0
    2.7598   37.9282   25.6697 C   0  0  0  0  0  0  0  0  0  0  0  0
    1.6223   38.2338   24.9674 C   0  0  0  0  0  0  0  0  0  0  0  0
    3.5046   38.9360   26.1640 O   0  0  0  0  0  0  0  0  0  0  0  0
    1.2476   35.8381   24.6217 C   0  0  0  0  0  0  0  0  0  0  0  0
    0.8425   37.1954   24.4630 C   0  0  0  0  0  0  0  0  0  0  0  0
    0.2250   35.0366   23.9693 C   0  0  0  0  0  0  0  0  0  0  0  0
    2.4524   35.5295   25.2593 C   0  0  0  0  0  0  0  0  0  0  0  0
   -0.3412   37.1850   23.7894 N   0  0  0  0  0  0  0  0  0  0  0  0
   -0.6955   35.8583   23.5704 N   0  0  0  0  0  0  0  0  0  0  0  0
    4.2855   38.7485   26.6468 H   0  0  0  0  0  0  0  0  0  0  0  0
   -0.8547   37.9763   23.5076 H   0  0  0  0  0  0  0  0  0  0  0  0
    6.6935   35.3631   26.7470 C   0  0  0  0  0  0  0  0  0  0  0  0
    4.4262   36.2581   26.5670 C   0  0  0  0  0  0  0  0  0  0  0  0
    5.4777   35.6162   25.9726 N   0  0  0  0  0  0  0  0  0  0  0  0
    4.5141   36.6465   27.7183 O   0  0  0  0  0  0  0  0  0  0  0  0
    5.4037   34.9998   24.6293 C   0  0  0  0  0  0  0  0  0  0  0  0
    6.2292   32.7767   23.7714 C   0  0  0  0  0  0  0  0  0  0  0  0
    6.1175   31.3988   23.7325 C   0  0  0  0  0  0  0  0  0  0  0  0
    5.3541   33.5055   24.5798 C   0  0  0  0  0  0  0  0  0  0  0  0
    5.1418   30.7603   24.5046 C   0  0  0  0  0  0  0  0  0  0  0  0
    4.2497   31.4855   25.2932 C   0  0  0  0  0  0  0  0  0  0  0  0
    4.3737   32.8701   25.3420 C   0  0  0  0  0  0  0  0  0  0  0  0
    5.0308   29.0322   24.4439 Cl  0  0  0  0  0  0  0  0  0  0  0  0
    0.1450   33.5218   23.9317 C   0  0  0  0  0  0  0  0  0  0  0  0
   -0.2301   32.8364   25.2222 C   0  0  0  0  0  0  0  0  0  0  0  0
    0.7824   32.3498   26.0526 C   0  0  0  0  0  0  0  0  0  0  0  0
    0.4615   31.7939   27.2963 C   0  0  0  0  0  0  0  0  0  0  0  0
   -1.5608   32.8054   25.6538 C   0  0  0  0  0  0  0  0  0  0  0  0
   -0.8755   31.7496   27.7136 C   0  0  0  0  0  0  0  0  0  0  0  0
   -1.8810   32.2675   26.8994 C   0  0  0  0  0  0  0  0  0  0  0  0
 13 15  1  0  0  0
 16 14  2  0  0  0
 15 14  1  0  0  0
 15 17  1  0  0  0
 14  1  1  0  0  0
 28 30  2  0  0  0
 28 27  1  0  0  0
 30 31  1  0  0  0
 18 19  2  0  0  0
 18 20  1  0  0  0
 17 20  1  0  0  0
 19 21  1  0  0  0
  1  8  2  0  0  0
  1  2  1  0  0  0
 27 26  2  0  0  0
  4  2  1  0  0  0
 20 23  2  0  0  0
  8  5  1  0  0  0
 31 29  2  0  0  0
  2  3  2  0  0  0
 26 29  1  0  0  0
 26 25  1  0  0  0
 21 24  1  0  0  0
 21 22  2  0  0  0
 23 22  1  0  0  0
  5  6  2  0  0  0
  5  7  1  0  0  0
  3  6  1  0  0  0
 25  7  1  0  0  0
  6  9  1  0  0  0
  7 10  2  0  0  0
  9 10  1  0  0  0
  4 11  1  0  0  0
  9 12  1  0  0  0
M  END
> <minimizedAffinity>
-9.78128

$$$$
6EY8_C4T_A_302


 31 34  0  0  0  0  0  0  0  0999 V2000
    5.3931   36.9301   25.2056 C   0  0  0  0  0  0  0  0  0  0  0  0
    5.1593   38.1011   25.9636 C   0  0  0  0  0  0  0  0  0  0  0  0
    3.8862   38.5574   26.1911 C   0  0  0  0  0  0  0  0  0  0  0  0
    6.1977   38.8304   26.4161 O   0  0  0  0  0  0  0  0  0  0  0  0
    3.0217   36.6041   24.9925 C   0  0  0  0  0  0  0  0  0  0  0  0
    2.8082   37.8020   25.7348 C   0  0  0  0  0  0  0  0  0  0  0  0
    1.6996   36.0937   24.6680 C   0  0  0  0  0  0  0  0  0  0  0  0
    4.3186   36.1855   24.6829 C   0  0  0  0  0  0  0  0  0  0  0  0
    1.4615   37.9650   25.8555 N   0  0  0  0  0  0  0  0  0  0  0  0
    0.8441   36.8775   25.2473 N   0  0  0  0  0  0  0  0  0  0  0  0
    7.0754   38.5361   26.2710 H   0  0  0  0  0  0  0  0  0  0  0  0
    1.0060   38.7189   26.2953 H   0  0  0  0  0  0  0  0  0  0  0  0
    8.5333   34.7525   25.0647 C   0  0  0  0  0  0  0  0  0  0  0  0
    6.7681   36.4394   24.9529 C   0  0  0  0  0  0  0  0  0  0  0  0
    7.1824   35.2115   25.3906 N   0  0  0  0  0  0  0  0  0  0  0  0
    7.5036   37.1288   24.2690 O   0  0  0  0  0  0  0  0  0  0  0  0
    6.4036   34.3745   26.3302 C   0  0  0  0  0  0  0  0  0  0  0  0
    6.9622   32.0388   25.5610 C   0  0  0  0  0  0  0  0  0  0  0  0
    6.5450   30.8112   25.0797 C   0  0  0  0  0  0  0  0  0  0  0  0
    6.0061   33.0161   25.8458 C   0  0  0  0  0  0  0  0  0  0  0  0
    5.1804   30.5664   24.8950 C   0  0  0  0  0  0  0  0  0  0  0  0
    4.2246   31.5478   25.1538 C   0  0  0  0  0  0  0  0  0  0  0  0
    4.6458   32.7764   25.6516 C   0  0  0  0  0  0  0  0  0  0  0  0
    4.6854   29.0162   24.3000 Cl  0  0  0  0  0  0  0  0  0  0  0  0
    1.3776   34.7914   23.9589 C   0  0  0  0  0  0  0  0  0  0  0  0
    0.3886   33.8805   24.6430 C   0  0  0  0  0  0  0  0  0  0  0  0
    0.8553   32.9411   25.5656 C   0  0  0  0  0  0  0  0  0  0  0  0
   -0.0520   32.1499   26.2795 C   0  0  0  0  0  0  0  0  0  0  0  0
   -0.9878   34.0580   24.4646 C   0  0  0  0  0  0  0  0  0  0  0  0
   -1.4287   32.3209   26.0817 C   0  0  0  0  0  0  0  0  0  0  0  0
   -1.8937   33.2828   25.1869 C   0  0  0  0  0  0  0  0  0  0  0  0
 13 15  1  0  0  0
 16 14  2  0  0  0
 15 14  1  0  0  0
 15 17  1  0  0  0
 14  1  1  0  0  0
 28 30  2  0  0  0
 28 27  1  0  0  0
 30 31  1  0  0  0
 18 19  2  0  0  0
 18 20  1  0  0  0
 17 20  1  0  0  0
 19 21  1  0  0  0
  1  8  2  0  0  0
  1  2  1  0  0  0
 27 26  2  0  0  0
  4  2  1  0  0  0
 20 23  2  0  0  0
  8  5  1  0  0  0
 31 29  2  0  0  0
  2  3  2  0  0  0
 26 29  1  0  0  0
 26 25  1  0  0  0
 21 24  1  0  0  0
 21 22  2  0  0  0
 23 22  1  0  0  0
  5  6  2  0  0  0
  5  7  1  0  0  0
  3  6  1  0  0  0
 25  7  1  0  0  0
  6  9  1  0  0  0
  7 10  2  0  0  0
  9 10  1  0  0  0
  4 11  1  0  0  0
  9 12  1  0  0  0
M  END
> <minimizedAffinity>
-9.68093

$$$$
6EY8_C4T_A_302


 31 34  0  0  0  0  0  0  0  0999 V2000
    3.0661   36.1506   24.7767 C   0  0  0  0  0  0  0  0  0  0  0  0
    3.2486   36.9353   25.9392 C   0  0  0  0  0  0  0  0  0  0  0  0
    4.3231   36.7377   26.7679 C   0  0  0  0  0  0  0  0  0  0  0  0
    2.3217   37.8482   26.2892 O   0  0  0  0  0  0  0  0  0  0  0  0
    5.1393   35.0205   25.2238 C   0  0  0  0  0  0  0  0  0  0  0  0
    5.2902   35.8025   26.4058 C   0  0  0  0  0  0  0  0  0  0  0  0
    6.3041   34.1521   25.1673 C   0  0  0  0  0  0  0  0  0  0  0  0
    4.0004   35.1577   24.4256 C   0  0  0  0  0  0  0  0  0  0  0  0
    6.4679   35.4350   26.9829 N   0  0  0  0  0  0  0  0  0  0  0  0
    7.0647   34.4822   26.1644 N   0  0  0  0  0  0  0  0  0  0  0  0
    1.5800   37.9983   25.7368 H   0  0  0  0  0  0  0  0  0  0  0  0
    6.8319   35.7822   27.8291 H   0  0  0  0  0  0  0  0  0  0  0  0
   -0.1093   35.6045   22.7172 C   0  0  0  0  0  0  0  0  0  0  0  0
    1.9021   36.3580   23.8838 C   0  0  0  0  0  0  0  0  0  0  0  0
    1.0576   35.3326   23.5577 N   0  0  0  0  0  0  0  0  0  0  0  0
    1.6660   37.4924   23.5077 O   0  0  0  0  0  0  0  0  0  0  0  0
    1.3423   33.9126   23.8620 C   0  0  0  0  0  0  0  0  0  0  0  0
   -0.9138   33.4208   24.8757 C   0  0  0  0  0  0  0  0  0  0  0  0
   -1.6691   32.8282   25.8712 C   0  0  0  0  0  0  0  0  0  0  0  0
    0.4734   33.2608   24.8908 C   0  0  0  0  0  0  0  0  0  0  0  0
   -1.0367   32.0760   26.8662 C   0  0  0  0  0  0  0  0  0  0  0  0
    0.3499   31.9349   26.8995 C   0  0  0  0  0  0  0  0  0  0  0  0
    1.1059   32.5196   25.8888 C   0  0  0  0  0  0  0  0  0  0  0  0
   -2.0084   31.3367   28.0956 Cl  0  0  0  0  0  0  0  0  0  0  0  0
    6.6626   33.1847   24.0547 C   0  0  0  0  0  0  0  0  0  0  0  0
    5.8619   31.9078   23.9904 C   0  0  0  0  0  0  0  0  0  0  0  0
    6.0330   31.0524   22.8993 C   0  0  0  0  0  0  0  0  0  0  0  0
    5.3702   29.8202   22.8646 C   0  0  0  0  0  0  0  0  0  0  0  0
    5.0604   31.5125   25.0670 C   0  0  0  0  0  0  0  0  0  0  0  0
    4.5545   29.4394   23.9385 C   0  0  0  0  0  0  0  0  0  0  0  0
    4.4126   30.2783   25.0423 C   0  0  0  0  0  0  0  0  0  0  0  0
 13 15  1  0  0  0
 16 14  2  0  0  0
 15 14  1  0  0  0
 15 17  1  0  0  0
 14  1  1  0  0  0
 28 30  2  0  0  0
 28 27  1  0  0  0
 30 31  1  0  0  0
 18 19  2  0  0  0
 18 20  1  0  0  0
 17 20  1  0  0  0
 19 21  1  0  0  0
  1  8  2  0  0  0
  1  2  1  0  0  0
 27 26  2  0  0  0
  4  2  1  0  0  0
 20 23  2  0  0  0
  8  5  1  0  0  0
 31 29  2  0  0  0
  2  3  2  0  0  0
 26 29  1  0  0  0
 26 25  1  0  0  0
 21 24  1  0  0  0
 21 22  2  0  0  0
 23 22  1  0  0  0
  5  6  2  0  0  0
  5  7  1  0  0  0
  3  6  1  0  0  0
 25  7  1  0  0  0
  6  9  1  0  0  0
  7 10  2  0  0  0
  9 10  1  0  0  0
  4 11  1  0  0  0
  9 12  1  0  0  0
M  END
> <minimizedAffinity>
-9.50618

$$$$
6EY8_C4T_A_302


 31 34  0  0  0  0  0  0  0  0999 V2000
    6.8559   33.1509   23.9103 C   0  0  0  0  0  0  0  0  0  0  0  0
    8.1401   33.3818   24.4563 C   0  0  0  0  0  0  0  0  0  0  0  0
    8.4208   34.5313   25.1493 C   0  0  0  0  0  0  0  0  0  0  0  0
    9.1342   32.4990   24.2390 O   0  0  0  0  0  0  0  0  0  0  0  0
    6.0860   35.2161   24.8682 C   0  0  0  0  0  0  0  0  0  0  0  0
    7.3943   35.4430   25.3862 C   0  0  0  0  0  0  0  0  0  0  0  0
    5.2874   36.3572   25.2851 C   0  0  0  0  0  0  0  0  0  0  0  0
    5.8208   34.0889   24.0857 C   0  0  0  0  0  0  0  0  0  0  0  0
    7.3554   36.6172   26.0751 N   0  0  0  0  0  0  0  0  0  0  0  0
    6.0497   37.0937   26.0321 N   0  0  0  0  0  0  0  0  0  0  0  0
    8.9632   31.7075   23.7676 H   0  0  0  0  0  0  0  0  0  0  0  0
    8.1165   37.0514   26.5239 H   0  0  0  0  0  0  0  0  0  0  0  0
    5.3926   29.7850   22.8370 C   0  0  0  0  0  0  0  0  0  0  0  0
    6.5526   31.9127   23.1552 C   0  0  0  0  0  0  0  0  0  0  0  0
    5.7013   30.9627   23.6491 N   0  0  0  0  0  0  0  0  0  0  0  0
    7.0211   31.7969   22.0367 O   0  0  0  0  0  0  0  0  0  0  0  0
    5.1970   30.9628   25.0403 C   0  0  0  0  0  0  0  0  0  0  0  0
    2.7660   30.2946   24.9829 C   0  0  0  0  0  0  0  0  0  0  0  0
    1.4335   30.6332   25.1327 C   0  0  0  0  0  0  0  0  0  0  0  0
    3.7431   31.2625   25.2257 C   0  0  0  0  0  0  0  0  0  0  0  0
    1.0879   31.9286   25.5305 C   0  0  0  0  0  0  0  0  0  0  0  0
    2.0588   32.9049   25.7493 C   0  0  0  0  0  0  0  0  0  0  0  0
    3.3988   32.5577   25.6122 C   0  0  0  0  0  0  0  0  0  0  0  0
   -0.5888   32.3223   25.7198 Cl  0  0  0  0  0  0  0  0  0  0  0  0
    3.7999   36.5556   25.0599 C   0  0  0  0  0  0  0  0  0  0  0  0
    3.3846   37.0240   23.6874 C   0  0  0  0  0  0  0  0  0  0  0  0
    2.7838   36.1159   22.8122 C   0  0  0  0  0  0  0  0  0  0  0  0
    2.3073   36.5508   21.5702 C   0  0  0  0  0  0  0  0  0  0  0  0
    3.4713   38.3761   23.3376 C   0  0  0  0  0  0  0  0  0  0  0  0
    2.4144   37.9032   21.2195 C   0  0  0  0  0  0  0  0  0  0  0  0
    2.9822   38.8145   22.1080 C   0  0  0  0  0  0  0  0  0  0  0  0
 13 15  1  0  0  0
 16 14  2  0  0  0
 15 14  1  0  0  0
 15 17  1  0  0  0
 14  1  1  0  0  0
 28 30  2  0  0  0
 28 27  1  0  0  0
 30 31  1  0  0  0
 18 19  2  0  0  0
 18 20  1  0  0  0
 17 20  1  0  0  0
 19 21  1  0  0  0
  1  8  2  0  0  0
  1  2  1  0  0  0
 27 26  2  0  0  0
  4  2  1  0  0  0
 20 23  2  0  0  0
  8  5  1  0  0  0
 31 29  2  0  0  0
  2  3  2  0  0  0
 26 29  1  0  0  0
 26 25  1  0  0  0
 21 24  1  0  0  0
 21 22  2  0  0  0
 23 22  1  0  0  0
  5  6  2  0  0  0
  5  7  1  0  0  0
  3  6  1  0  0  0
 25  7  1  0  0  0
  6  9  1  0  0  0
  7 10  2  0  0  0
  9 10  1  0  0  0
  4 11  1  0  0  0
  9 12  1  0  0  0
M  END
> <minimizedAffinity>
-9.37299

$$$$
6EY8_C4T_A_302


 31 34  0  0  0  0  0  0  0  0999 V2000
    1.1195   36.6417   24.8239 C   0  0  0  0  0  0  0  0  0  0  0  0
   -0.0042   36.6126   23.9654 C   0  0  0  0  0  0  0  0  0  0  0  0
   -0.4994   35.4279   23.4839 C   0  0  0  0  0  0  0  0  0  0  0  0
   -0.5644   37.7645   23.5482 O   0  0  0  0  0  0  0  0  0  0  0  0
    1.1849   34.2394   24.8068 C   0  0  0  0  0  0  0  0  0  0  0  0
    0.0691   34.2331   23.9200 C   0  0  0  0  0  0  0  0  0  0  0  0
    1.5233   32.8438   25.0337 C   0  0  0  0  0  0  0  0  0  0  0  0
    1.7470   35.4478   25.2276 C   0  0  0  0  0  0  0  0  0  0  0  0
   -0.2362   32.9299   23.6680 N   0  0  0  0  0  0  0  0  0  0  0  0
    0.6322   32.1373   24.4106 N   0  0  0  0  0  0  0  0  0  0  0  0
   -0.2407   38.5846   23.8653 H   0  0  0  0  0  0  0  0  0  0  0  0
   -0.9456   32.6065   23.0668 H   0  0  0  0  0  0  0  0  0  0  0  0
    3.3166   39.7173   25.4034 C   0  0  0  0  0  0  0  0  0  0  0  0
    1.6602   37.9211   25.3397 C   0  0  0  0  0  0  0  0  0  0  0  0
    2.8560   38.4215   24.9029 N   0  0  0  0  0  0  0  0  0  0  0  0
    0.9692   38.5636   26.1102 O   0  0  0  0  0  0  0  0  0  0  0  0
    3.8101   37.6502   24.0754 C   0  0  0  0  0  0  0  0  0  0  0  0
    4.7489   36.0705   25.8023 C   0  0  0  0  0  0  0  0  0  0  0  0
    5.8423   35.5394   26.4619 C   0  0  0  0  0  0  0  0  0  0  0  0
    4.9575   37.0137   24.7939 C   0  0  0  0  0  0  0  0  0  0  0  0
    7.1319   35.9464   26.1052 C   0  0  0  0  0  0  0  0  0  0  0  0
    7.3435   36.9064   25.1167 C   0  0  0  0  0  0  0  0  0  0  0  0
    6.2429   37.4281   24.4448 C   0  0  0  0  0  0  0  0  0  0  0  0
    8.4839   35.2574   26.9416 Cl  0  0  0  0  0  0  0  0  0  0  0  0
    2.5879   32.3086   25.9734 C   0  0  0  0  0  0  0  0  0  0  0  0
    3.7091   31.5224   25.3406 C   0  0  0  0  0  0  0  0  0  0  0  0
    4.9929   32.0724   25.3117 C   0  0  0  0  0  0  0  0  0  0  0  0
    6.0648   31.3231   24.8134 C   0  0  0  0  0  0  0  0  0  0  0  0
    3.5044   30.2070   24.9096 C   0  0  0  0  0  0  0  0  0  0  0  0
    5.8484   30.0127   24.3665 C   0  0  0  0  0  0  0  0  0  0  0  0
    4.5737   29.4529   24.4286 C   0  0  0  0  0  0  0  0  0  0  0  0
 13 15  1  0  0  0
 16 14  2  0  0  0
 15 14  1  0  0  0
 15 17  1  0  0  0
 14  1  1  0  0  0
 28 30  2  0  0  0
 28 27  1  0  0  0
 30 31  1  0  0  0
 18 19  2  0  0  0
 18 20  1  0  0  0
 17 20  1  0  0  0
 19 21  1  0  0  0
  1  8  2  0  0  0
  1  2  1  0  0  0
 27 26  2  0  0  0
  4  2  1  0  0  0
 20 23  2  0  0  0
  8  5  1  0  0  0
 31 29  2  0  0  0
  2  3  2  0  0  0
 26 29  1  0  0  0
 26 25  1  0  0  0
 21 24  1  0  0  0
 21 22  2  0  0  0
 23 22  1  0  0  0
  5  6  2  0  0  0
  5  7  1  0  0  0
  3  6  1  0  0  0
 25  7  1  0  0  0
  6  9  1  0  0  0
  7 10  2  0  0  0
  9 10  1  0  0  0
  4 11  1  0  0  0
  9 12  1  0  0  0
M  END
> <minimizedAffinity>
-9.25928

$$$$
6EY8_C4T_A_302


 31 34  0  0  0  0  0  0  0  0999 V2000
    1.1455   36.7589   24.8789 C   0  0  0  0  0  0  0  0  0  0  0  0
   -0.0067   36.6780   24.0625 C   0  0  0  0  0  0  0  0  0  0  0  0
   -0.4610   35.4723   23.5930 C   0  0  0  0  0  0  0  0  0  0  0  0
   -0.6377   37.8026   23.6727 O   0  0  0  0  0  0  0  0  0  0  0  0
    1.3274   34.3628   24.8459 C   0  0  0  0  0  0  0  0  0  0  0  0
    0.1809   34.3051   24.0010 C   0  0  0  0  0  0  0  0  0  0  0  0
    1.7419   32.9847   25.0523 C   0  0  0  0  0  0  0  0  0  0  0  0
    1.8452   35.5957   25.2523 C   0  0  0  0  0  0  0  0  0  0  0  0
   -0.0695   32.9896   23.7532 N   0  0  0  0  0  0  0  0  0  0  0  0
    0.8637   32.2376   24.4586 N   0  0  0  0  0  0  0  0  0  0  0  0
   -0.3429   38.6364   23.9822 H   0  0  0  0  0  0  0  0  0  0  0  0
   -0.7842   32.6340   23.1770 H   0  0  0  0  0  0  0  0  0  0  0  0
    3.0175   40.0755   25.2232 C   0  0  0  0  0  0  0  0  0  0  0  0
    1.6419   38.0613   25.3814 C   0  0  0  0  0  0  0  0  0  0  0  0
    2.6037   38.7677   24.7129 N   0  0  0  0  0  0  0  0  0  0  0  0
    1.1101   38.5315   26.3714 O   0  0  0  0  0  0  0  0  0  0  0  0
    3.3875   38.2145   23.5860 C   0  0  0  0  0  0  0  0  0  0  0  0
    2.7055   36.9039   21.5424 C   0  0  0  0  0  0  0  0  0  0  0  0
    2.0668   36.8550   20.3167 C   0  0  0  0  0  0  0  0  0  0  0  0
    2.6797   38.0934   22.2736 C   0  0  0  0  0  0  0  0  0  0  0  0
    1.4024   37.9878   19.8356 C   0  0  0  0  0  0  0  0  0  0  0  0
    1.3959   39.1847   20.5504 C   0  0  0  0  0  0  0  0  0  0  0  0
    2.0264   39.2268   21.7896 C   0  0  0  0  0  0  0  0  0  0  0  0
    0.6025   37.8953   18.3014 Cl  0  0  0  0  0  0  0  0  0  0  0  0
    2.8656   32.4987   25.9488 C   0  0  0  0  0  0  0  0  0  0  0  0
    3.8817   31.5812   25.3153 C   0  0  0  0  0  0  0  0  0  0  0  0
    5.2195   31.9804   25.2641 C   0  0  0  0  0  0  0  0  0  0  0  0
    6.1925   31.1069   24.7651 C   0  0  0  0  0  0  0  0  0  0  0  0
    3.5229   30.2921   24.9061 C   0  0  0  0  0  0  0  0  0  0  0  0
    5.8223   29.8240   24.3400 C   0  0  0  0  0  0  0  0  0  0  0  0
    4.4929   29.4144   24.4245 C   0  0  0  0  0  0  0  0  0  0  0  0
 13 15  1  0  0  0
 16 14  2  0  0  0
 15 14  1  0  0  0
 15 17  1  0  0  0
 14  1  1  0  0  0
 28 30  2  0  0  0
 28 27  1  0  0  0
 30 31  1  0  0  0
 18 19  2  0  0  0
 18 20  1  0  0  0
 17 20  1  0  0  0
 19 21  1  0  0  0
  1  8  2  0  0  0
  1  2  1  0  0  0
 27 26  2  0  0  0
  4  2  1  0  0  0
 20 23  2  0  0  0
  8  5  1  0  0  0
 31 29  2  0  0  0
  2  3  2  0  0  0
 26 29  1  0  0  0
 26 25  1  0  0  0
 21 24  1  0  0  0
 21 22  2  0  0  0
 23 22  1  0  0  0
  5  6  2  0  0  0
  5  7  1  0  0  0
  3  6  1  0  0  0
 25  7  1  0  0  0
  6  9  1  0  0  0
  7 10  2  0  0  0
  9 10  1  0  0  0
  4 11  1  0  0  0
  9 12  1  0  0  0
M  END
> <minimizedAffinity>
-9.17788

$$$$
6EY8_C4T_A_302


 31 34  0  0  0  0  0  0  0  0999 V2000
   -0.1582   33.3902   25.0542 C   0  0  0  0  0  0  0  0  0  0  0  0
   -1.4375   33.6084   24.4916 C   0  0  0  0  0  0  0  0  0  0  0  0
   -1.6332   34.5545   23.5185 C   0  0  0  0  0  0  0  0  0  0  0  0
   -2.5046   32.9326   24.9600 O   0  0  0  0  0  0  0  0  0  0  0  0
    0.7703   35.0244   23.5568 C   0  0  0  0  0  0  0  0  0  0  0  0
   -0.5319   35.2491   23.0227 C   0  0  0  0  0  0  0  0  0  0  0  0
    1.6598   35.9158   22.8301 C   0  0  0  0  0  0  0  0  0  0  0  0
    0.9574   34.1253   24.6102 C   0  0  0  0  0  0  0  0  0  0  0  0
   -0.4073   36.1842   22.0405 N   0  0  0  0  0  0  0  0  0  0  0  0
    0.9408   36.5060   21.9266 N   0  0  0  0  0  0  0  0  0  0  0  0
   -2.3922   32.2821   25.6249 H   0  0  0  0  0  0  0  0  0  0  0  0
   -1.1413   36.5647   21.5059 H   0  0  0  0  0  0  0  0  0  0  0  0
    1.1735   30.4178   27.0578 C   0  0  0  0  0  0  0  0  0  0  0  0
    0.0540   32.3732   26.1106 C   0  0  0  0  0  0  0  0  0  0  0  0
    0.9632   31.3625   25.9600 N   0  0  0  0  0  0  0  0  0  0  0  0
   -0.5488   32.5068   27.1608 O   0  0  0  0  0  0  0  0  0  0  0  0
    1.6356   31.0540   24.6783 C   0  0  0  0  0  0  0  0  0  0  0  0
    3.6944   29.6259   24.3932 C   0  0  0  0  0  0  0  0  0  0  0  0
    5.0658   29.4790   24.4945 C   0  0  0  0  0  0  0  0  0  0  0  0
    3.1169   30.8519   24.7308 C   0  0  0  0  0  0  0  0  0  0  0  0
    5.8487   30.5559   24.9226 C   0  0  0  0  0  0  0  0  0  0  0  0
    5.2739   31.7733   25.2849 C   0  0  0  0  0  0  0  0  0  0  0  0
    3.8959   31.9231   25.1681 C   0  0  0  0  0  0  0  0  0  0  0  0
    7.5652   30.3468   25.0309 Cl  0  0  0  0  0  0  0  0  0  0  0  0
    3.1690   35.9999   22.9634 C   0  0  0  0  0  0  0  0  0  0  0  0
    3.7059   36.3140   24.3378 C   0  0  0  0  0  0  0  0  0  0  0  0
    3.1376   37.3618   25.0663 C   0  0  0  0  0  0  0  0  0  0  0  0
    3.5572   37.6111   26.3780 C   0  0  0  0  0  0  0  0  0  0  0  0
    4.6645   35.4887   24.9359 C   0  0  0  0  0  0  0  0  0  0  0  0
    4.5311   36.7914   26.9638 C   0  0  0  0  0  0  0  0  0  0  0  0
    5.0717   35.7248   26.2481 C   0  0  0  0  0  0  0  0  0  0  0  0
 13 15  1  0  0  0
 16 14  2  0  0  0
 15 14  1  0  0  0
 15 17  1  0  0  0
 14  1  1  0  0  0
 28 30  2  0  0  0
 28 27  1  0  0  0
 30 31  1  0  0  0
 18 19  2  0  0  0
 18 20  1  0  0  0
 17 20  1  0  0  0
 19 21  1  0  0  0
  1  8  2  0  0  0
  1  2  1  0  0  0
 27 26  2  0  0  0
  4  2  1  0  0  0
 20 23  2  0  0  0
  8  5  1  0  0  0
 31 29  2  0  0  0
  2  3  2  0  0  0
 26 29  1  0  0  0
 26 25  1  0  0  0
 21 24  1  0  0  0
 21 22  2  0  0  0
 23 22  1  0  0  0
  5  6  2  0  0  0
  5  7  1  0  0  0
  3  6  1  0  0  0
 25  7  1  0  0  0
  6  9  1  0  0  0
  7 10  2  0  0  0
  9 10  1  0  0  0
  4 11  1  0  0  0
  9 12  1  0  0  0
M  END
> <minimizedAffinity>
-9.11148

$$$$
6EY8_C4T_A_302


 31 34  0  0  0  0  0  0  0  0999 V2000
    5.6325   33.0107   25.7596 C   0  0  0  0  0  0  0  0  0  0  0  0
    6.2625   31.8933   25.1639 C   0  0  0  0  0  0  0  0  0  0  0  0
    5.5550   30.7595   24.8564 C   0  0  0  0  0  0  0  0  0  0  0  0
    7.5932   31.9014   24.9543 O   0  0  0  0  0  0  0  0  0  0  0  0
    3.5182   31.8752   25.6350 C   0  0  0  0  0  0  0  0  0  0  0  0
    4.1769   30.7490   25.0611 C   0  0  0  0  0  0  0  0  0  0  0  0
    2.1117   31.5164   25.7179 C   0  0  0  0  0  0  0  0  0  0  0  0
    4.2512   32.9971   26.0316 C   0  0  0  0  0  0  0  0  0  0  0  0
    3.2219   29.8124   24.8055 N   0  0  0  0  0  0  0  0  0  0  0  0
    1.9906   30.3499   25.1646 N   0  0  0  0  0  0  0  0  0  0  0  0
    8.0949   32.6662   25.1578 H   0  0  0  0  0  0  0  0  0  0  0  0
    3.3758   28.9143   24.4326 H   0  0  0  0  0  0  0  0  0  0  0  0
    6.9726   36.5918   25.8111 C   0  0  0  0  0  0  0  0  0  0  0  0
    6.3966   34.2340   26.0989 C   0  0  0  0  0  0  0  0  0  0  0  0
    6.2345   35.3974   25.3982 N   0  0  0  0  0  0  0  0  0  0  0  0
    7.1208   34.2015   27.0780 O   0  0  0  0  0  0  0  0  0  0  0  0
    5.4810   35.4867   24.1276 C   0  0  0  0  0  0  0  0  0  0  0  0
    3.4882   36.5725   23.0280 C   0  0  0  0  0  0  0  0  0  0  0  0
    2.2696   37.2168   23.1403 C   0  0  0  0  0  0  0  0  0  0  0  0
    4.1426   36.1523   24.1880 C   0  0  0  0  0  0  0  0  0  0  0  0
    1.7114   37.4285   24.4050 C   0  0  0  0  0  0  0  0  0  0  0  0
    2.3731   37.0335   25.5667 C   0  0  0  0  0  0  0  0  0  0  0  0
    3.5915   36.3726   25.4503 C   0  0  0  0  0  0  0  0  0  0  0  0
    0.1790   38.2296   24.5155 Cl  0  0  0  0  0  0  0  0  0  0  0  0
    0.9729   32.4069   26.1791 C   0  0  0  0  0  0  0  0  0  0  0  0
    0.1479   33.0576   25.0967 C   0  0  0  0  0  0  0  0  0  0  0  0
   -1.2373   33.1432   25.2567 C   0  0  0  0  0  0  0  0  0  0  0  0
   -2.0109   33.8240   24.3097 C   0  0  0  0  0  0  0  0  0  0  0  0
    0.7645   33.6890   24.0109 C   0  0  0  0  0  0  0  0  0  0  0  0
   -1.3878   34.4382   23.2151 C   0  0  0  0  0  0  0  0  0  0  0  0
   -0.0023   34.3820   23.0755 C   0  0  0  0  0  0  0  0  0  0  0  0
 13 15  1  0  0  0
 16 14  2  0  0  0
 15 14  1  0  0  0
 15 17  1  0  0  0
 14  1  1  0  0  0
 28 30  2  0  0  0
 28 27  1  0  0  0
 30 31  1  0  0  0
 18 19  2  0  0  0
 18 20  1  0  0  0
 17 20  1  0  0  0
 19 21  1  0  0  0
  1  8  2  0  0  0
  1  2  1  0  0  0
 27 26  2  0  0  0
  4  2  1  0  0  0
 20 23  2  0  0  0
  8  5  1  0  0  0
 31 29  2  0  0  0
  2  3  2  0  0  0
 26 29  1  0  0  0
 26 25  1  0  0  0
 21 24  1  0  0  0
 21 22  2  0  0  0
 23 22  1  0  0  0
  5  6  2  0  0  0
  5  7  1  0  0  0
  3  6  1  0  0  0
 25  7  1  0  0  0
  6  9  1  0  0  0
  7 10  2  0  0  0
  9 10  1  0  0  0
  4 11  1  0  0  0
  9 12  1  0  0  0
M  END
> <minimizedAffinity>
-9.10596

$$$$
6EY8_C4T_A_302


 31 34  0  0  0  0  0  0  0  0999 V2000
    4.4803   31.4471   23.9175 C   0  0  0  0  0  0  0  0  0  0  0  0
    4.0526   30.2117   24.4574 C   0  0  0  0  0  0  0  0  0  0  0  0
    2.8898   30.1163   25.1780 C   0  0  0  0  0  0  0  0  0  0  0  0
    4.8260   29.1161   24.3302 O   0  0  0  0  0  0  0  0  0  0  0  0
    2.4800   32.4917   24.7439 C   0  0  0  0  0  0  0  0  0  0  0  0
    2.0807   31.2434   25.3039 C   0  0  0  0  0  0  0  0  0  0  0  0
    1.4243   33.4348   25.0755 C   0  0  0  0  0  0  0  0  0  0  0  0
    3.7073   32.6117   24.0862 C   0  0  0  0  0  0  0  0  0  0  0  0
    0.8702   31.4381   25.8969 N   0  0  0  0  0  0  0  0  0  0  0  0
    0.4954   32.7592   25.6773 N   0  0  0  0  0  0  0  0  0  0  0  0
    5.6244   29.1603   23.8419 H   0  0  0  0  0  0  0  0  0  0  0  0
    0.3525   30.7635   26.3930 H   0  0  0  0  0  0  0  0  0  0  0  0
    8.1277   32.0276   22.9263 C   0  0  0  0  0  0  0  0  0  0  0  0
    5.7398   31.5537   23.1445 C   0  0  0  0  0  0  0  0  0  0  0  0
    6.8990   31.9953   23.7208 N   0  0  0  0  0  0  0  0  0  0  0  0
    5.7377   31.1581   21.9923 O   0  0  0  0  0  0  0  0  0  0  0  0
    6.9589   32.6123   25.0646 C   0  0  0  0  0  0  0  0  0  0  0  0
    8.1682   34.7293   25.7087 C   0  0  0  0  0  0  0  0  0  0  0  0
    8.2065   36.1108   25.7607 C   0  0  0  0  0  0  0  0  0  0  0  0
    7.0713   34.1033   25.1127 C   0  0  0  0  0  0  0  0  0  0  0  0
    7.1570   36.8546   25.2117 C   0  0  0  0  0  0  0  0  0  0  0  0
    6.0483   36.2333   24.6386 C   0  0  0  0  0  0  0  0  0  0  0  0
    6.0192   34.8441   24.5744 C   0  0  0  0  0  0  0  0  0  0  0  0
    7.2358   38.5840   25.2822 Cl  0  0  0  0  0  0  0  0  0  0  0  0
    1.3294   34.8837   24.6348 C   0  0  0  0  0  0  0  0  0  0  0  0
    0.6380   35.1421   23.3191 C   0  0  0  0  0  0  0  0  0  0  0  0
   -0.4224   34.3176   22.9352 C   0  0  0  0  0  0  0  0  0  0  0  0
   -1.1371   34.5954   21.7643 C   0  0  0  0  0  0  0  0  0  0  0  0
    0.9570   36.2692   22.5539 C   0  0  0  0  0  0  0  0  0  0  0  0
   -0.7996   35.7158   20.9934 C   0  0  0  0  0  0  0  0  0  0  0  0
    0.2356   36.5574   21.3964 C   0  0  0  0  0  0  0  0  0  0  0  0
 13 15  1  0  0  0
 16 14  2  0  0  0
 15 14  1  0  0  0
 15 17  1  0  0  0
 14  1  1  0  0  0
 28 30  2  0  0  0
 28 27  1  0  0  0
 30 31  1  0  0  0
 18 19  2  0  0  0
 18 20  1  0  0  0
 17 20  1  0  0  0
 19 21  1  0  0  0
  1  8  2  0  0  0
  1  2  1  0  0  0
 27 26  2  0  0  0
  4  2  1  0  0  0
 20 23  2  0  0  0
  8  5  1  0  0  0
 31 29  2  0  0  0
  2  3  2  0  0  0
 26 29  1  0  0  0
 26 25  1  0  0  0
 21 24  1  0  0  0
 21 22  2  0  0  0
 23 22  1  0  0  0
  5  6  2  0  0  0
  5  7  1  0  0  0
  3  6  1  0  0  0
 25  7  1  0  0  0
  6  9  1  0  0  0
  7 10  2  0  0  0
  9 10  1  0  0  0
  4 11  1  0  0  0
  9 12  1  0  0  0
M  END
> <minimizedAffinity>
-9.05385

$$$$
