5TYA_7QS_A_302


 14 15  0  0  0  0  0  0  0  0999 V2000
   -4.5843    1.6566   16.4414 C   0  0  0  0  0  0  0  0  0  0  0  0
   -6.7690    1.8184   16.8102 C   0  0  0  0  0  0  0  0  0  0  0  0
   -4.7205    3.1689   16.3916 C   0  0  0  0  0  0  0  0  0  0  0  0
   -5.6763    1.0781   16.7945 N   0  0  0  0  0  0  0  0  0  0  0  0
   -3.5047    1.1092   16.2177 O   0  0  0  0  0  0  0  0  0  0  0  0
   -7.9420    1.4663   16.7670 O   0  0  0  0  0  0  0  0  0  0  0  0
   -6.5088    3.5264   16.7335 S   0  0  0  0  0  0  0  0  0  0  0  0
   -5.6969    0.1254   17.0421 H   0  0  0  0  0  0  0  0  0  0  0  0
   -3.6891    4.5849   12.4377 C   0  0  0  0  0  0  0  0  0  0  0  0
   -4.6471    3.6233   12.6106 C   0  0  0  0  0  0  0  0  0  0  0  0
   -3.1029    5.0848   13.5443 C   0  0  0  0  0  0  0  0  0  0  0  0
   -4.9830    3.1928   13.8818 C   0  0  0  0  0  0  0  0  0  0  0  0
   -3.4060    4.6775   14.8155 C   0  0  0  0  0  0  0  0  0  0  0  0
   -4.3609    3.6958   14.9891 C   0  0  0  0  0  0  0  0  0  0  0  0
  9 11  2  0  0  0
  9 10  1  0  0  0
 11 13  1  0  0  0
 10 12  2  0  0  0
  5  1  2  0  0  0
 13 14  2  0  0  0
 12 14  1  0  0  0
 14  3  1  0  0  0
  1  4  1  0  0  0
  1  3  1  0  0  0
  4  2  1  0  0  0
  3  7  1  0  0  0
  2  6  2  0  0  0
  2  7  1  0  0  0
  4  8  1  0  0  0
M  END
> <minimizedAffinity>
-6.29999

$$$$
5TYA_7QS_A_302


 14 15  0  0  0  0  0  0  0  0999 V2000
   -4.3533    1.9846   16.1644 C   0  0  0  0  0  0  0  0  0  0  0  0
   -6.3324    2.8744   16.6404 C   0  0  0  0  0  0  0  0  0  0  0  0
   -4.4674    2.9458   14.9935 C   0  0  0  0  0  0  0  0  0  0  0  0
   -5.3069    2.1319   17.0135 N   0  0  0  0  0  0  0  0  0  0  0  0
   -3.3969    1.2160   16.2633 O   0  0  0  0  0  0  0  0  0  0  0  0
   -7.4741    2.8952   17.0851 O   0  0  0  0  0  0  0  0  0  0  0  0
   -6.0712    3.8472   15.2346 S   0  0  0  0  0  0  0  0  0  0  0  0
   -5.2739    1.7099   17.9024 H   0  0  0  0  0  0  0  0  0  0  0  0
   -4.6848    0.7822   11.2554 C   0  0  0  0  0  0  0  0  0  0  0  0
   -4.9508    2.1234   11.3061 C   0  0  0  0  0  0  0  0  0  0  0  0
   -4.3317    0.1744   12.4061 C   0  0  0  0  0  0  0  0  0  0  0  0
   -4.8581    2.8090   12.5041 C   0  0  0  0  0  0  0  0  0  0  0  0
   -4.2368    0.8202   13.6092 C   0  0  0  0  0  0  0  0  0  0  0  0
   -4.5209    2.1700   13.6634 C   0  0  0  0  0  0  0  0  0  0  0  0
  9 11  2  0  0  0
  9 10  1  0  0  0
 11 13  1  0  0  0
 10 12  2  0  0  0
  5  1  2  0  0  0
 13 14  2  0  0  0
 12 14  1  0  0  0
 14  3  1  0  0  0
  1  4  1  0  0  0
  1  3  1  0  0  0
  4  2  1  0  0  0
  3  7  1  0  0  0
  2  6  2  0  0  0
  2  7  1  0  0  0
  4  8  1  0  0  0
M  END
> <minimizedAffinity>
-6.08429

$$$$
5TYA_7QS_A_302


 14 15  0  0  0  0  0  0  0  0999 V2000
   -4.6355    3.7349   12.8831 C   0  0  0  0  0  0  0  0  0  0  0  0
   -2.5177    4.3871   13.0399 C   0  0  0  0  0  0  0  0  0  0  0  0
   -4.7720    4.7015   14.0472 C   0  0  0  0  0  0  0  0  0  0  0  0
   -3.4599    3.7567   12.3640 N   0  0  0  0  0  0  0  0  0  0  0  0
   -5.5981    3.0766   12.4890 O   0  0  0  0  0  0  0  0  0  0  0  0
   -1.3003    4.2705   12.9613 O   0  0  0  0  0  0  0  0  0  0  0  0
   -3.0790    5.4121   14.3147 S   0  0  0  0  0  0  0  0  0  0  0  0
   -3.2707    3.3227   11.5008 H   0  0  0  0  0  0  0  0  0  0  0  0
   -6.0086    2.5410   17.5835 C   0  0  0  0  0  0  0  0  0  0  0  0
   -4.8512    2.2143   16.9308 C   0  0  0  0  0  0  0  0  0  0  0  0
   -6.7281    3.5717   17.0954 C   0  0  0  0  0  0  0  0  0  0  0  0
   -4.4555    2.9259   15.8123 C   0  0  0  0  0  0  0  0  0  0  0  0
   -6.3698    4.2924   15.9883 C   0  0  0  0  0  0  0  0  0  0  0  0
   -5.2106    3.9524   15.3202 C   0  0  0  0  0  0  0  0  0  0  0  0
  9 11  2  0  0  0
  9 10  1  0  0  0
 11 13  1  0  0  0
 10 12  2  0  0  0
  5  1  2  0  0  0
 13 14  2  0  0  0
 12 14  1  0  0  0
 14  3  1  0  0  0
  1  4  1  0  0  0
  1  3  1  0  0  0
  4  2  1  0  0  0
  3  7  1  0  0  0
  2  6  2  0  0  0
  2  7  1  0  0  0
  4  8  1  0  0  0
M  END
> <minimizedAffinity>
-5.96956

$$$$
5TYA_7QS_A_302


 14 15  0  0  0  0  0  0  0  0999 V2000
   -4.6405    3.6865   12.8532 C   0  0  0  0  0  0  0  0  0  0  0  0
   -2.5189    4.3201   13.0339 C   0  0  0  0  0  0  0  0  0  0  0  0
   -4.7780    4.6381   14.0294 C   0  0  0  0  0  0  0  0  0  0  0  0
   -3.4611    3.7062   12.3427 N   0  0  0  0  0  0  0  0  0  0  0  0
   -5.6052    3.0410   12.4434 O   0  0  0  0  0  0  0  0  0  0  0  0
   -1.3019    4.1951   12.9622 O   0  0  0  0  0  0  0  0  0  0  0  0
   -3.0815    5.3320   14.3186 S   0  0  0  0  0  0  0  0  0  0  0  0
   -3.2690    3.2825   11.4751 H   0  0  0  0  0  0  0  0  0  0  0  0
   -6.0415    2.5541   17.6019 C   0  0  0  0  0  0  0  0  0  0  0  0
   -6.7587    3.6140   17.1173 C   0  0  0  0  0  0  0  0  0  0  0  0
   -4.9474    2.1756   16.9106 C   0  0  0  0  0  0  0  0  0  0  0  0
   -6.3559    4.2600   15.9621 C   0  0  0  0  0  0  0  0  0  0  0  0
   -4.5170    2.7958   15.7688 C   0  0  0  0  0  0  0  0  0  0  0  0
   -5.2313    3.8752   15.2890 C   0  0  0  0  0  0  0  0  0  0  0  0
  9 11  2  0  0  0
  9 10  1  0  0  0
 11 13  1  0  0  0
 10 12  2  0  0  0
  5  1  2  0  0  0
 13 14  2  0  0  0
 12 14  1  0  0  0
 14  3  1  0  0  0
  1  4  1  0  0  0
  1  3  1  0  0  0
  4  2  1  0  0  0
  3  7  1  0  0  0
  2  6  2  0  0  0
  2  7  1  0  0  0
  4  8  1  0  0  0
M  END
> <minimizedAffinity>
-5.95251

$$$$
5TYA_7QS_A_302


 14 15  0  0  0  0  0  0  0  0999 V2000
   -4.1012    1.2642   13.1491 C   0  0  0  0  0  0  0  0  0  0  0  0
   -3.2069    1.6182   11.1466 C   0  0  0  0  0  0  0  0  0  0  0  0
   -5.0206    2.3763   12.6735 C   0  0  0  0  0  0  0  0  0  0  0  0
   -3.2947    0.8690   12.2297 N   0  0  0  0  0  0  0  0  0  0  0  0
   -4.2076    0.7941   14.2817 O   0  0  0  0  0  0  0  0  0  0  0  0
   -2.3103    1.6696   10.3127 O   0  0  0  0  0  0  0  0  0  0  0  0
   -4.4601    2.7944   10.9548 S   0  0  0  0  0  0  0  0  0  0  0  0
   -2.7660    0.0445   12.3290 H   0  0  0  0  0  0  0  0  0  0  0  0
   -4.6408    5.9013   15.1498 C   0  0  0  0  0  0  0  0  0  0  0  0
   -5.8245    5.2187   15.0780 C   0  0  0  0  0  0  0  0  0  0  0  0
   -3.6005    5.4184   14.4408 C   0  0  0  0  0  0  0  0  0  0  0  0
   -5.9282    4.0806   14.2983 C   0  0  0  0  0  0  0  0  0  0  0  0
   -3.6698    4.3000   13.6546 C   0  0  0  0  0  0  0  0  0  0  0  0
   -4.8685    3.6206   13.5694 C   0  0  0  0  0  0  0  0  0  0  0  0
  9 11  2  0  0  0
  9 10  1  0  0  0
 11 13  1  0  0  0
 10 12  2  0  0  0
  5  1  2  0  0  0
 13 14  2  0  0  0
 12 14  1  0  0  0
 14  3  1  0  0  0
  1  4  1  0  0  0
  1  3  1  0  0  0
  4  2  1  0  0  0
  3  7  1  0  0  0
  2  6  2  0  0  0
  2  7  1  0  0  0
  4  8  1  0  0  0
M  END
> <minimizedAffinity>
-5.84853

$$$$
5TYA_7QS_A_302


 14 15  0  0  0  0  0  0  0  0999 V2000
   -4.1001    1.4249   13.1727 C   0  0  0  0  0  0  0  0  0  0  0  0
   -3.1895    1.7234   11.1685 C   0  0  0  0  0  0  0  0  0  0  0  0
   -4.9759    2.5657   12.6834 C   0  0  0  0  0  0  0  0  0  0  0  0
   -3.3074    0.9898   12.2594 N   0  0  0  0  0  0  0  0  0  0  0  0
   -4.2261    0.9713   14.3101 O   0  0  0  0  0  0  0  0  0  0  0  0
   -2.2902    1.7321   10.3361 O   0  0  0  0  0  0  0  0  0  0  0  0
   -4.3971    2.9440   10.9616 S   0  0  0  0  0  0  0  0  0  0  0  0
   -2.8103    0.1470   12.3685 H   0  0  0  0  0  0  0  0  0  0  0  0
   -4.3779    6.0307   15.2010 C   0  0  0  0  0  0  0  0  0  0  0  0
   -3.3419    5.4978   14.4834 C   0  0  0  0  0  0  0  0  0  0  0  0
   -5.5876    5.4492   15.0720 C   0  0  0  0  0  0  0  0  0  0  0  0
   -3.5499    4.4015   13.6655 C   0  0  0  0  0  0  0  0  0  0  0  0
   -5.8272    4.3605   14.2777 C   0  0  0  0  0  0  0  0  0  0  0  0
   -4.7786    3.8129   13.5663 C   0  0  0  0  0  0  0  0  0  0  0  0
  9 11  2  0  0  0
  9 10  1  0  0  0
 11 13  1  0  0  0
 10 12  2  0  0  0
  5  1  2  0  0  0
 13 14  2  0  0  0
 12 14  1  0  0  0
 14  3  1  0  0  0
  1  4  1  0  0  0
  1  3  1  0  0  0
  4  2  1  0  0  0
  3  7  1  0  0  0
  2  6  2  0  0  0
  2  7  1  0  0  0
  4  8  1  0  0  0
M  END
> <minimizedAffinity>
-5.82537

$$$$
5TYA_7QS_A_302


 14 15  0  0  0  0  0  0  0  0999 V2000
   -5.7794    3.7739   15.8579 C   0  0  0  0  0  0  0  0  0  0  0  0
   -4.5069    1.9533   15.8213 C   0  0  0  0  0  0  0  0  0  0  0  0
   -5.4448    3.7498   14.3761 C   0  0  0  0  0  0  0  0  0  0  0  0
   -5.3522    2.7295   16.4733 N   0  0  0  0  0  0  0  0  0  0  0  0
   -6.4421    4.6904   16.3438 O   0  0  0  0  0  0  0  0  0  0  0  0
   -3.7121    1.1324   16.2641 O   0  0  0  0  0  0  0  0  0  0  0  0
   -4.4011    2.2375   14.1187 S   0  0  0  0  0  0  0  0  0  0  0  0
   -5.6426    2.5179   17.3899 H   0  0  0  0  0  0  0  0  0  0  0  0
   -3.1683    7.2800   13.3481 C   0  0  0  0  0  0  0  0  0  0  0  0
   -2.8113    6.5011   14.4150 C   0  0  0  0  0  0  0  0  0  0  0  0
   -4.2363    6.8900   12.6232 C   0  0  0  0  0  0  0  0  0  0  0  0
   -3.5351    5.3628   14.7219 C   0  0  0  0  0  0  0  0  0  0  0  0
   -4.9784    5.7742   12.9024 C   0  0  0  0  0  0  0  0  0  0  0  0
   -4.6280    4.9973   13.9883 C   0  0  0  0  0  0  0  0  0  0  0  0
  9 11  2  0  0  0
  9 10  1  0  0  0
 11 13  1  0  0  0
 10 12  2  0  0  0
  5  1  2  0  0  0
 13 14  2  0  0  0
 12 14  1  0  0  0
 14  3  1  0  0  0
  1  4  1  0  0  0
  1  3  1  0  0  0
  4  2  1  0  0  0
  3  7  1  0  0  0
  2  6  2  0  0  0
  2  7  1  0  0  0
  4  8  1  0  0  0
M  END
> <minimizedAffinity>
-5.73214

$$$$
5TYA_7QS_A_302


 14 15  0  0  0  0  0  0  0  0999 V2000
   -3.5831    3.6067   14.3835 C   0  0  0  0  0  0  0  0  0  0  0  0
   -4.5965    2.8844   16.2237 C   0  0  0  0  0  0  0  0  0  0  0  0
   -4.9200    3.2141   13.7778 C   0  0  0  0  0  0  0  0  0  0  0  0
   -3.5811    3.5165   15.6656 N   0  0  0  0  0  0  0  0  0  0  0  0
   -2.6623    4.0161   13.6766 O   0  0  0  0  0  0  0  0  0  0  0  0
   -4.6715    2.3707   17.3338 O   0  0  0  0  0  0  0  0  0  0  0  0
   -5.9592    2.6149   15.1934 S   0  0  0  0  0  0  0  0  0  0  0  0
   -2.8548    3.9018   16.2071 H   0  0  0  0  0  0  0  0  0  0  0  0
   -4.3374   -0.0071   10.9519 C   0  0  0  0  0  0  0  0  0  0  0  0
   -4.0407   -0.1744   12.2772 C   0  0  0  0  0  0  0  0  0  0  0  0
   -4.8373    1.1863   10.5724 C   0  0  0  0  0  0  0  0  0  0  0  0
   -4.2505    0.8568   13.1753 C   0  0  0  0  0  0  0  0  0  0  0  0
   -5.0511    2.2295   11.4324 C   0  0  0  0  0  0  0  0  0  0  0  0
   -4.7366    2.0662   12.7666 C   0  0  0  0  0  0  0  0  0  0  0  0
  9 11  2  0  0  0
  9 10  1  0  0  0
 11 13  1  0  0  0
 10 12  2  0  0  0
  5  1  2  0  0  0
 13 14  2  0  0  0
 12 14  1  0  0  0
 14  3  1  0  0  0
  1  4  1  0  0  0
  1  3  1  0  0  0
  4  2  1  0  0  0
  3  7  1  0  0  0
  2  6  2  0  0  0
  2  7  1  0  0  0
  4  8  1  0  0  0
M  END
> <minimizedAffinity>
-5.65557

$$$$
5TYA_7QS_A_302


 14 15  0  0  0  0  0  0  0  0999 V2000
   -4.0078    1.5093   12.6112 C   0  0  0  0  0  0  0  0  0  0  0  0
   -2.4463    3.0298   12.1808 C   0  0  0  0  0  0  0  0  0  0  0  0
   -4.7815    2.7581   12.9986 C   0  0  0  0  0  0  0  0  0  0  0  0
   -2.8693    1.7835   12.0813 N   0  0  0  0  0  0  0  0  0  0  0  0
   -4.4969    0.3892   12.7573 O   0  0  0  0  0  0  0  0  0  0  0  0
   -1.3065    3.4694   12.0840 O   0  0  0  0  0  0  0  0  0  0  0  0
   -3.6429    4.1833   12.6589 S   0  0  0  0  0  0  0  0  0  0  0  0
   -2.3367    1.0947   11.6218 H   0  0  0  0  0  0  0  0  0  0  0  0
   -5.7255    2.7582   17.2189 C   0  0  0  0  0  0  0  0  0  0  0  0
   -6.4096    3.5608   16.3470 C   0  0  0  0  0  0  0  0  0  0  0  0
   -4.7695    1.9568   16.7069 C   0  0  0  0  0  0  0  0  0  0  0  0
   -6.1125    3.5371   14.9960 C   0  0  0  0  0  0  0  0  0  0  0  0
   -4.4454    1.9130   15.3778 C   0  0  0  0  0  0  0  0  0  0  0  0
   -5.1244    2.7345   14.5005 C   0  0  0  0  0  0  0  0  0  0  0  0
  9 11  2  0  0  0
  9 10  1  0  0  0
 11 13  1  0  0  0
 10 12  2  0  0  0
  5  1  2  0  0  0
 13 14  2  0  0  0
 12 14  1  0  0  0
 14  3  1  0  0  0
  1  4  1  0  0  0
  1  3  1  0  0  0
  4  2  1  0  0  0
  3  7  1  0  0  0
  2  6  2  0  0  0
  2  7  1  0  0  0
  4  8  1  0  0  0
M  END
> <minimizedAffinity>
-5.55824

$$$$
5TYA_7QS_A_302


 14 15  0  0  0  0  0  0  0  0999 V2000
   -4.4799    3.0680   11.7485 C   0  0  0  0  0  0  0  0  0  0  0  0
   -2.2620    3.1533   11.8429 C   0  0  0  0  0  0  0  0  0  0  0  0
   -4.3287    4.2848   12.6455 C   0  0  0  0  0  0  0  0  0  0  0  0
   -3.3522    2.6529   11.2923 N   0  0  0  0  0  0  0  0  0  0  0  0
   -5.5915    2.6141   11.4772 O   0  0  0  0  0  0  0  0  0  0  0  0
   -1.1223    2.7028   11.8488 O   0  0  0  0  0  0  0  0  0  0  0  0
   -2.5020    4.5637   12.8145 S   0  0  0  0  0  0  0  0  0  0  0  0
   -3.3038    1.9914   10.5648 H   0  0  0  0  0  0  0  0  0  0  0  0
   -6.0347    3.4413   16.5288 C   0  0  0  0  0  0  0  0  0  0  0  0
   -5.1224    2.5922   15.9639 C   0  0  0  0  0  0  0  0  0  0  0  0
   -6.3579    4.5544   15.8398 C   0  0  0  0  0  0  0  0  0  0  0  0
   -4.5682    2.8830   14.7301 C   0  0  0  0  0  0  0  0  0  0  0  0
   -5.8343    4.8695   14.6150 C   0  0  0  0  0  0  0  0  0  0  0  0
   -4.9262    4.0048   14.0378 C   0  0  0  0  0  0  0  0  0  0  0  0
  9 11  2  0  0  0
  9 10  1  0  0  0
 11 13  1  0  0  0
 10 12  2  0  0  0
  5  1  2  0  0  0
 13 14  2  0  0  0
 12 14  1  0  0  0
 14  3  1  0  0  0
  1  4  1  0  0  0
  1  3  1  0  0  0
  4  2  1  0  0  0
  3  7  1  0  0  0
  2  6  2  0  0  0
  2  7  1  0  0  0
  4  8  1  0  0  0
M  END
> <minimizedAffinity>
-5.52336

$$$$
