5H5F_SAM_A_301


 33 35  0  0  0  0  0  0  0  0999 V2000
  -19.6327   22.9284   27.0692 C   0  0  0  0  0  0  0  0  0  0  0  0
  -19.8352   21.8377   27.9784 O   0  0  0  0  0  0  0  0  0  0  0  0
  -21.0232   23.4653   26.7618 C   0  0  0  0  0  0  0  0  0  0  0  0
  -21.1242   24.0052   25.4435 O   0  0  0  0  0  0  0  0  0  0  0  0
  -21.9368   22.2813   26.9622 C   0  0  0  0  0  0  0  0  0  0  0  0
  -21.9591   21.4818   25.7728 O   0  0  0  0  0  0  0  0  0  0  0  0
  -21.2258   21.4916   28.0361 C   0  0  0  0  0  0  0  0  0  0  0  0
  -20.9049   23.3180   24.7950 H   0  0  0  0  0  0  0  0  0  0  0  0
  -21.0541   21.2191   25.5427 H   0  0  0  0  0  0  0  0  0  0  0  0
  -21.7458   21.8431   29.3845 N   0  0  0  0  0  0  0  0  0  0  0  0
  -21.0771   22.4820   30.3674 C   0  0  0  0  0  0  0  0  0  0  0  0
  -21.8434   22.6068   31.4835 N   0  0  0  0  0  0  0  0  0  0  0  0
  -23.0287   22.0228   31.2156 C   0  0  0  0  0  0  0  0  0  0  0  0
  -24.2931   21.7913   31.9430 C   0  0  0  0  0  0  0  0  0  0  0  0
  -24.4611   22.2173   33.2192 N   0  0  0  0  0  0  0  0  0  0  0  0
  -25.2791   21.1471   31.2851 N   0  0  0  0  0  0  0  0  0  0  0  0
  -25.1270   20.7056   30.0274 C   0  0  0  0  0  0  0  0  0  0  0  0
  -24.0128   20.8819   29.3041 N   0  0  0  0  0  0  0  0  0  0  0  0
  -22.9490   21.5191   29.8383 C   0  0  0  0  0  0  0  0  0  0  0  0
  -23.7294   22.6857   33.6822 H   0  0  0  0  0  0  0  0  0  0  0  0
  -25.3149   22.0582   33.6828 H   0  0  0  0  0  0  0  0  0  0  0  0
  -18.6420   23.9718   27.6245 C   0  0  0  0  0  0  0  0  0  0  0  0
  -19.2206   25.1359   28.6705 S   0  0  0  0  0  0  0  0  0  0  0  0
  -17.9052   25.9261   29.2842 C   0  0  0  0  0  0  0  0  0  0  0  0
  -19.9711   26.3242   27.7431 C   0  0  0  0  0  0  0  0  0  0  0  0
  -19.5464   27.7807   27.9914 C   0  0  0  0  0  0  0  0  0  0  0  0
  -21.7278   28.5022   27.1588 N   0  0  0  0  0  0  0  0  0  0  0  0
  -20.7655   28.6925   28.2406 C   0  0  0  0  0  0  0  0  0  0  0  0
  -22.5381   29.1017   27.3151 H   0  0  0  0  0  0  0  0  0  0  0  0
  -22.0257   27.5269   27.1364 H   0  0  0  0  0  0  0  0  0  0  0  0
  -20.3665   30.1459   28.3643 C   0  0  0  0  0  0  0  0  0  0  0  0
  -19.6648   30.5053   29.3377 O   0  0  0  0  0  0  0  0  0  0  0  0
  -20.7477   30.9678   27.5031 O   0  0  0  0  0  0  0  0  0  0  0  0
 27 28  1  0  0  0
 28 31  1  0  0  0
 28 26  1  0  0  0
 31 32  2  0  0  0
 31 33  1  0  0  0
 26 25  1  0  0  0
 25 23  1  0  0  0
 23 24  1  0  0  0
 23 22  1  0  0  0
 22  1  1  0  0  0
  1  2  1  0  0  0
  1  3  1  0  0  0
  2  7  1  0  0  0
  3  4  1  0  0  0
  3  5  1  0  0  0
  5  6  1  0  0  0
  5  7  1  0  0  0
  7 10  1  0  0  0
 10 11  1  0  0  0
 10 19  1  0  0  0
 11 12  2  0  0  0
 12 13  1  0  0  0
 13 14  1  0  0  0
 13 19  2  0  0  0
 14 15  1  0  0  0
 14 16  2  0  0  0
 16 17  1  0  0  0
 17 18  2  0  0  0
 18 19  1  0  0  0
 27 29  1  0  0  0
 27 30  1  0  0  0
  4  8  1  0  0  0
  6  9  1  0  0  0
 15 20  1  0  0  0
 15 21  1  0  0  0
M  CHG 1  23   1
M  CHG 1  33  -1
M  END
> <minimizedAffinity>
-11.39755

$$$$
5H5F_SAM_A_301


 33 35  0  0  0  0  0  0  0  0999 V2000
  -19.7835   25.6128   28.5110 C   0  0  0  0  0  0  0  0  0  0  0  0
  -20.1248   24.7547   29.6084 O   0  0  0  0  0  0  0  0  0  0  0  0
  -19.4380   24.6812   27.3582 C   0  0  0  0  0  0  0  0  0  0  0  0
  -18.4506   25.2309   26.4850 O   0  0  0  0  0  0  0  0  0  0  0  0
  -18.9631   23.4147   28.0269 C   0  0  0  0  0  0  0  0  0  0  0  0
  -17.5769   23.5400   28.3693 O   0  0  0  0  0  0  0  0  0  0  0  0
  -19.7568   23.4005   29.3122 C   0  0  0  0  0  0  0  0  0  0  0  0
  -17.6424   25.4178   26.9878 H   0  0  0  0  0  0  0  0  0  0  0  0
  -17.4509   24.3246   28.9255 H   0  0  0  0  0  0  0  0  0  0  0  0
  -20.9977   22.5949   29.1600 N   0  0  0  0  0  0  0  0  0  0  0  0
  -21.4152   21.9559   28.0470 C   0  0  0  0  0  0  0  0  0  0  0  0
  -22.6133   21.3460   28.2497 N   0  0  0  0  0  0  0  0  0  0  0  0
  -22.9806   21.6101   29.5198 C   0  0  0  0  0  0  0  0  0  0  0  0
  -24.1284   21.2813   30.3892 C   0  0  0  0  0  0  0  0  0  0  0  0
  -25.1607   20.5260   29.9395 N   0  0  0  0  0  0  0  0  0  0  0  0
  -24.1060   21.7541   31.6525 N   0  0  0  0  0  0  0  0  0  0  0  0
  -23.1005   22.5146   32.1116 C   0  0  0  0  0  0  0  0  0  0  0  0
  -22.0264   22.8501   31.3841 N   0  0  0  0  0  0  0  0  0  0  0  0
  -21.9160   22.4365   30.1035 C   0  0  0  0  0  0  0  0  0  0  0  0
  -25.1585   20.1903   29.0140 H   0  0  0  0  0  0  0  0  0  0  0  0
  -25.9125   20.3134   30.5384 H   0  0  0  0  0  0  0  0  0  0  0  0
  -20.8952   26.6376   28.2068 C   0  0  0  0  0  0  0  0  0  0  0  0
  -20.5423   28.2605   28.3668 S   0  0  0  0  0  0  0  0  0  0  0  0
  -20.9037   28.9749   26.9210 C   0  0  0  0  0  0  0  0  0  0  0  0
  -21.6839   28.9282   29.4091 C   0  0  0  0  0  0  0  0  0  0  0  0
  -22.8488   28.0250   29.8456 C   0  0  0  0  0  0  0  0  0  0  0  0
  -25.0249   28.5266   30.8382 N   0  0  0  0  0  0  0  0  0  0  0  0
  -24.2117   28.7178   29.6403 C   0  0  0  0  0  0  0  0  0  0  0  0
  -25.9289   28.9817   30.7116 H   0  0  0  0  0  0  0  0  0  0  0  0
  -24.5480   28.9355   31.6417 H   0  0  0  0  0  0  0  0  0  0  0  0
  -24.9258   28.2039   28.4103 C   0  0  0  0  0  0  0  0  0  0  0  0
  -26.1692   28.0561   28.4438 O   0  0  0  0  0  0  0  0  0  0  0  0
  -24.2686   27.9259   27.3840 O   0  0  0  0  0  0  0  0  0  0  0  0
 27 28  1  0  0  0
 28 31  1  0  0  0
 28 26  1  0  0  0
 31 32  2  0  0  0
 31 33  1  0  0  0
 26 25  1  0  0  0
 25 23  1  0  0  0
 23 24  1  0  0  0
 23 22  1  0  0  0
 22  1  1  0  0  0
  1  2  1  0  0  0
  1  3  1  0  0  0
  2  7  1  0  0  0
  3  4  1  0  0  0
  3  5  1  0  0  0
  5  6  1  0  0  0
  5  7  1  0  0  0
  7 10  1  0  0  0
 10 11  1  0  0  0
 10 19  1  0  0  0
 11 12  2  0  0  0
 12 13  1  0  0  0
 13 14  1  0  0  0
 13 19  2  0  0  0
 14 15  1  0  0  0
 14 16  2  0  0  0
 16 17  1  0  0  0
 17 18  2  0  0  0
 18 19  1  0  0  0
 27 29  1  0  0  0
 27 30  1  0  0  0
  4  8  1  0  0  0
  6  9  1  0  0  0
 15 20  1  0  0  0
 15 21  1  0  0  0
M  CHG 1  23   1
M  CHG 1  33  -1
M  END
> <minimizedAffinity>
-8.76710

$$$$
5H5F_SAM_A_301


 33 35  0  0  0  0  0  0  0  0999 V2000
  -20.4212   23.5484   27.9635 C   0  0  0  0  0  0  0  0  0  0  0  0
  -20.4375   22.3832   28.7995 O   0  0  0  0  0  0  0  0  0  0  0  0
  -21.5807   23.3700   26.9940 C   0  0  0  0  0  0  0  0  0  0  0  0
  -21.3309   23.9706   25.7226 O   0  0  0  0  0  0  0  0  0  0  0  0
  -21.7585   21.8751   26.8909 C   0  0  0  0  0  0  0  0  0  0  0  0
  -20.8414   21.3453   25.9252 O   0  0  0  0  0  0  0  0  0  0  0  0
  -21.3219   21.3942   28.2548 C   0  0  0  0  0  0  0  0  0  0  0  0
  -20.5341   23.5795   25.3312 H   0  0  0  0  0  0  0  0  0  0  0  0
  -19.9363   21.5968   26.1668 H   0  0  0  0  0  0  0  0  0  0  0  0
  -22.4894   21.2501   29.1648 N   0  0  0  0  0  0  0  0  0  0  0  0
  -23.5675   20.4602   28.9777 C   0  0  0  0  0  0  0  0  0  0  0  0
  -24.4633   20.6018   29.9905 N   0  0  0  0  0  0  0  0  0  0  0  0
  -23.9544   21.5143   30.8427 C   0  0  0  0  0  0  0  0  0  0  0  0
  -24.3741   22.1384   32.1137 C   0  0  0  0  0  0  0  0  0  0  0  0
  -25.5506   21.8141   32.7044 N   0  0  0  0  0  0  0  0  0  0  0  0
  -23.5368   23.0381   32.6701 N   0  0  0  0  0  0  0  0  0  0  0  0
  -22.3752   23.3826   32.0939 C   0  0  0  0  0  0  0  0  0  0  0  0
  -21.9269   22.8570   30.9457 N   0  0  0  0  0  0  0  0  0  0  0  0
  -22.6629   21.9372   30.2857 C   0  0  0  0  0  0  0  0  0  0  0  0
  -26.1481   21.1551   32.2825 H   0  0  0  0  0  0  0  0  0  0  0  0
  -25.8075   22.2376   33.5553 H   0  0  0  0  0  0  0  0  0  0  0  0
  -20.4564   24.8535   28.7846 C   0  0  0  0  0  0  0  0  0  0  0  0
  -19.0133   25.6268   29.1060 S   0  0  0  0  0  0  0  0  0  0  0  0
  -17.8167   24.7119   28.4260 C   0  0  0  0  0  0  0  0  0  0  0  0
  -18.9757   27.0356   28.1844 C   0  0  0  0  0  0  0  0  0  0  0  0
  -20.2683   27.4295   27.4515 C   0  0  0  0  0  0  0  0  0  0  0  0
  -22.4232   28.5559   27.6969 N   0  0  0  0  0  0  0  0  0  0  0  0
  -21.0706   28.4830   28.2427 C   0  0  0  0  0  0  0  0  0  0  0  0
  -22.9617   29.2507   28.2143 H   0  0  0  0  0  0  0  0  0  0  0  0
  -22.8736   27.6446   27.7815 H   0  0  0  0  0  0  0  0  0  0  0  0
  -20.4001   29.8383   28.2174 C   0  0  0  0  0  0  0  0  0  0  0  0
  -20.8849   30.7457   27.5029 O   0  0  0  0  0  0  0  0  0  0  0  0
  -19.3705   30.0322   28.8992 O   0  0  0  0  0  0  0  0  0  0  0  0
 27 28  1  0  0  0
 28 31  1  0  0  0
 28 26  1  0  0  0
 31 32  2  0  0  0
 31 33  1  0  0  0
 26 25  1  0  0  0
 25 23  1  0  0  0
 23 24  1  0  0  0
 23 22  1  0  0  0
 22  1  1  0  0  0
  1  2  1  0  0  0
  1  3  1  0  0  0
  2  7  1  0  0  0
  3  4  1  0  0  0
  3  5  1  0  0  0
  5  6  1  0  0  0
  5  7  1  0  0  0
  7 10  1  0  0  0
 10 11  1  0  0  0
 10 19  1  0  0  0
 11 12  2  0  0  0
 12 13  1  0  0  0
 13 14  1  0  0  0
 13 19  2  0  0  0
 14 15  1  0  0  0
 14 16  2  0  0  0
 16 17  1  0  0  0
 17 18  2  0  0  0
 18 19  1  0  0  0
 27 29  1  0  0  0
 27 30  1  0  0  0
  4  8  1  0  0  0
  6  9  1  0  0  0
 15 20  1  0  0  0
 15 21  1  0  0  0
M  CHG 1  23   1
M  CHG 1  33  -1
M  END
> <minimizedAffinity>
-8.40580

$$$$
