1JQY_A32_D_104


 38 40  0  0  0  0  0  0  0  0999 V2000
   50.1255   -1.1255   -2.1909 C   0  0  0  0  0  0  0  0  0  0  0  0
   51.3137   -1.7888   -2.4931 C   0  0  0  0  0  0  0  0  0  0  0  0
   51.2899   -2.7472   -3.5232 C   0  0  0  0  0  0  0  0  0  0  0  0
   50.0231   -2.9621   -4.1599 C   0  0  0  0  0  0  0  0  0  0  0  0
   48.8351   -2.2747   -3.8367 C   0  0  0  0  0  0  0  0  0  0  0  0
   48.8856   -1.3033   -2.7950 C   0  0  0  0  0  0  0  0  0  0  0  0
   47.5595   -2.4163   -4.4481 C   0  0  0  0  0  0  0  0  0  0  0  0
   46.7452   -1.4875   -4.0871 O   0  0  0  0  0  0  0  0  0  0  0  0
   47.2751   -3.2868   -5.2795 N   0  0  0  0  0  0  0  0  0  0  0  0
   46.3214   -3.2903   -5.5238 H   0  0  0  0  0  0  0  0  0  0  0  0
   48.0248   -4.2792   -5.9556 C   0  0  0  0  0  0  0  0  0  0  0  0
   47.2294   -5.6165   -6.0022 C   0  0  0  0  0  0  0  0  0  0  0  0
   48.0729   -6.5895   -6.8137 C   0  0  0  0  0  0  0  0  0  0  0  0
   47.5525   -9.2534   -3.6797 O   0  0  0  0  0  0  0  0  0  0  0  0
   48.8443   -8.7119   -3.7664 C   0  0  0  0  0  0  0  0  0  0  0  0
   49.2824   -7.8953   -4.9573 C   0  0  0  0  0  0  0  0  0  0  0  0
   48.4477   -7.9036   -6.2058 N   0  0  0  0  0  0  0  0  0  0  0  0
   47.2907   -8.8583   -6.1002 C   0  0  0  0  0  0  0  0  0  0  0  0
   46.6299   -8.9234   -4.7259 C   0  0  0  0  0  0  0  0  0  0  0  0
   52.3703   -3.5429   -3.9608 N   0  0  0  0  0  0  0  0  0  0  0  0
   52.5930   -4.5810   -3.2441 O   0  0  0  0  0  0  0  0  0  0  0  0
   53.1016   -3.2407   -4.9292 O   0  0  0  0  0  0  0  0  0  0  0  0
   50.0857   -0.1301   -1.1408 O   0  0  0  0  0  0  0  0  0  0  0  0
   49.9983    1.2322   -1.6784 C   0  0  0  0  0  0  0  0  0  0  0  0
   50.9662    2.2806   -1.0586 C   0  0  0  0  0  0  0  0  0  0  0  0
   52.3526    2.0661   -1.3355 O   0  0  0  0  0  0  0  0  0  0  0  0
   50.7640    2.2825    0.4700 C   0  0  0  0  0  0  0  0  0  0  0  0
   51.5039    3.3823    0.9667 O   0  0  0  0  0  0  0  0  0  0  0  0
   49.2530    2.6520    0.6883 C   0  0  0  0  0  0  0  0  0  0  0  0
   49.0276    4.0186    0.4043 O   0  0  0  0  0  0  0  0  0  0  0  0
   48.3044    1.7033   -0.0604 C   0  0  0  0  0  0  0  0  0  0  0  0
   48.6463    1.6836   -1.4678 O   0  0  0  0  0  0  0  0  0  0  0  0
   52.6340    1.2243   -0.9442 H   0  0  0  0  0  0  0  0  0  0  0  0
   51.2138    4.1943    0.5225 H   0  0  0  0  0  0  0  0  0  0  0  0
   49.2267    4.1920   -0.5291 H   0  0  0  0  0  0  0  0  0  0  0  0
   46.8047    2.0184    0.1011 C   0  0  0  0  0  0  0  0  0  0  0  0
   46.5513    2.8168    1.2340 O   0  0  0  0  0  0  0  0  0  0  0  0
   46.8324    2.3434    2.0326 H   0  0  0  0  0  0  0  0  0  0  0  0
 24 23  1  0  0  0
 24 25  1  0  0  0
 24 32  1  0  0  0
 23  1  1  0  0  0
 25 26  1  0  0  0
 25 27  1  0  0  0
 27 28  1  0  0  0
 27 29  1  0  0  0
 29 30  1  0  0  0
 29 31  1  0  0  0
 31 32  1  0  0  0
 31 36  1  0  0  0
 36 37  1  0  0  0
  1  2  2  0  0  0
  1  6  1  0  0  0
  2  3  1  0  0  0
  3  4  2  0  0  0
  3 20  1  0  0  0
  4  5  1  0  0  0
  5  6  2  0  0  0
  5  7  1  0  0  0
 20 21  1  0  0  0
 20 22  2  0  0  0
  7  8  2  0  0  0
  7  9  1  0  0  0
  9 11  1  0  0  0
 14 15  1  0  0  0
 14 19  1  0  0  0
 15 16  1  0  0  0
 16 17  1  0  0  0
 17 18  1  0  0  0
 17 13  1  0  0  0
 18 19  1  0  0  0
 13 12  1  0  0  0
 12 11  1  0  0  0
 26 33  1  0  0  0
 28 34  1  0  0  0
 30 35  1  0  0  0
 37 38  1  0  0  0
  9 10  1  0  0  0
M  CHG 1  20   1
M  CHG 1  21  -1
M  END
> <minimizedAffinity>
-8.01420

$$$$
1JQY_A32_D_104


 38 40  0  0  0  0  0  0  0  0999 V2000
   50.8016   -0.5760   -2.5443 C   0  0  0  0  0  0  0  0  0  0  0  0
   51.0181   -1.9483   -2.4305 C   0  0  0  0  0  0  0  0  0  0  0  0
   51.3813   -2.6566   -3.5909 C   0  0  0  0  0  0  0  0  0  0  0  0
   51.4791   -1.8885   -4.7979 C   0  0  0  0  0  0  0  0  0  0  0  0
   51.2573   -0.4987   -4.8853 C   0  0  0  0  0  0  0  0  0  0  0  0
   50.8978    0.1984   -3.6953 C   0  0  0  0  0  0  0  0  0  0  0  0
   51.3687    0.3246   -6.0389 C   0  0  0  0  0  0  0  0  0  0  0  0
   52.5958    0.5540   -6.3517 O   0  0  0  0  0  0  0  0  0  0  0  0
   50.4085    0.7248   -6.7082 N   0  0  0  0  0  0  0  0  0  0  0  0
   50.6682    1.3594   -7.4147 H   0  0  0  0  0  0  0  0  0  0  0  0
   49.0169    0.4674   -6.6775 C   0  0  0  0  0  0  0  0  0  0  0  0
   48.6945   -0.8436   -7.4524 C   0  0  0  0  0  0  0  0  0  0  0  0
   47.1973   -1.0734   -7.3028 C   0  0  0  0  0  0  0  0  0  0  0  0
   47.2832   -1.4864   -3.1784 O   0  0  0  0  0  0  0  0  0  0  0  0
   47.7918   -2.5914   -3.8783 C   0  0  0  0  0  0  0  0  0  0  0  0
   47.6482   -2.7152   -5.3752 C   0  0  0  0  0  0  0  0  0  0  0  0
   46.6947   -1.8113   -6.1029 N   0  0  0  0  0  0  0  0  0  0  0  0
   45.9149   -0.9408   -5.1566 C   0  0  0  0  0  0  0  0  0  0  0  0
   46.7007   -0.4298   -3.9522 C   0  0  0  0  0  0  0  0  0  0  0  0
   51.6159   -4.0446   -3.6938 N   0  0  0  0  0  0  0  0  0  0  0  0
   50.7329   -4.6867   -4.3638 O   0  0  0  0  0  0  0  0  0  0  0  0
   52.5680   -4.6268   -3.1296 O   0  0  0  0  0  0  0  0  0  0  0  0
   50.4244    0.2072   -1.3869 O   0  0  0  0  0  0  0  0  0  0  0  0
   50.2498    1.6260   -1.7171 C   0  0  0  0  0  0  0  0  0  0  0  0
   51.0844    2.6361   -0.8784 C   0  0  0  0  0  0  0  0  0  0  0  0
   52.4980    2.5755   -1.0851 O   0  0  0  0  0  0  0  0  0  0  0  0
   50.7937    2.3828    0.6146 C   0  0  0  0  0  0  0  0  0  0  0  0
   51.4043    3.4451    1.3234 O   0  0  0  0  0  0  0  0  0  0  0  0
   49.2460    2.5955    0.7779 C   0  0  0  0  0  0  0  0  0  0  0  0
   48.9190    3.9681    0.6886 O   0  0  0  0  0  0  0  0  0  0  0  0
   48.4294    1.7054   -0.1714 C   0  0  0  0  0  0  0  0  0  0  0  0
   48.8535    1.9329   -1.5376 O   0  0  0  0  0  0  0  0  0  0  0  0
   52.8286    1.7071   -0.8066 H   0  0  0  0  0  0  0  0  0  0  0  0
   51.0708    4.2917    0.9875 H   0  0  0  0  0  0  0  0  0  0  0  0
   49.1564    4.3005   -0.1912 H   0  0  0  0  0  0  0  0  0  0  0  0
   46.9010    1.8742   -0.0714 C   0  0  0  0  0  0  0  0  0  0  0  0
   46.5237    2.6055    1.0723 O   0  0  0  0  0  0  0  0  0  0  0  0
   46.8126    2.1325    1.8683 H   0  0  0  0  0  0  0  0  0  0  0  0
 24 23  1  0  0  0
 24 25  1  0  0  0
 24 32  1  0  0  0
 23  1  1  0  0  0
 25 26  1  0  0  0
 25 27  1  0  0  0
 27 28  1  0  0  0
 27 29  1  0  0  0
 29 30  1  0  0  0
 29 31  1  0  0  0
 31 32  1  0  0  0
 31 36  1  0  0  0
 36 37  1  0  0  0
  1  2  2  0  0  0
  1  6  1  0  0  0
  2  3  1  0  0  0
  3  4  2  0  0  0
  3 20  1  0  0  0
  4  5  1  0  0  0
  5  6  2  0  0  0
  5  7  1  0  0  0
 20 21  1  0  0  0
 20 22  2  0  0  0
  7  8  2  0  0  0
  7  9  1  0  0  0
  9 11  1  0  0  0
 14 15  1  0  0  0
 14 19  1  0  0  0
 15 16  1  0  0  0
 16 17  1  0  0  0
 17 18  1  0  0  0
 17 13  1  0  0  0
 18 19  1  0  0  0
 13 12  1  0  0  0
 12 11  1  0  0  0
 26 33  1  0  0  0
 28 34  1  0  0  0
 30 35  1  0  0  0
 37 38  1  0  0  0
  9 10  1  0  0  0
M  CHG 1  20   1
M  CHG 1  21  -1
M  END
> <minimizedAffinity>
-7.98118

$$$$
1JQY_A32_D_104


 38 40  0  0  0  0  0  0  0  0999 V2000
   49.8048   -1.0629   -2.2771 C   0  0  0  0  0  0  0  0  0  0  0  0
   48.5595   -1.2621   -2.8707 C   0  0  0  0  0  0  0  0  0  0  0  0
   48.4654   -2.2161   -3.9009 C   0  0  0  0  0  0  0  0  0  0  0  0
   49.6815   -2.8883   -4.2553 C   0  0  0  0  0  0  0  0  0  0  0  0
   50.9295   -2.6698   -3.6361 C   0  0  0  0  0  0  0  0  0  0  0  0
   50.9984   -1.7043   -2.5901 C   0  0  0  0  0  0  0  0  0  0  0  0
   52.1608   -3.3229   -3.9164 C   0  0  0  0  0  0  0  0  0  0  0  0
   52.4810   -4.1648   -2.9973 O   0  0  0  0  0  0  0  0  0  0  0  0
   52.8214   -3.1571   -4.9489 N   0  0  0  0  0  0  0  0  0  0  0  0
   53.6905   -3.6191   -4.9295 H   0  0  0  0  0  0  0  0  0  0  0  0
   52.5975   -2.4465   -6.1526 C   0  0  0  0  0  0  0  0  0  0  0  0
   52.9664   -0.9455   -5.9684 C   0  0  0  0  0  0  0  0  0  0  0  0
   51.7305   -0.1484   -6.3606 C   0  0  0  0  0  0  0  0  0  0  0  0
   49.6359    3.3143   -5.4596 O   0  0  0  0  0  0  0  0  0  0  0  0
   50.8764    3.2070   -4.8123 C   0  0  0  0  0  0  0  0  0  0  0  0
   51.6803    1.9305   -4.8472 C   0  0  0  0  0  0  0  0  0  0  0  0
   51.0296    0.6606   -5.3160 N   0  0  0  0  0  0  0  0  0  0  0  0
   49.5654    0.8528   -5.6000 C   0  0  0  0  0  0  0  0  0  0  0  0
   49.2008    2.1911   -6.2367 C   0  0  0  0  0  0  0  0  0  0  0  0
   47.3115   -2.5447   -4.6442 N   0  0  0  0  0  0  0  0  0  0  0  0
   47.2390   -3.7726   -5.0018 O   0  0  0  0  0  0  0  0  0  0  0  0
   46.4514   -1.7053   -4.9896 O   0  0  0  0  0  0  0  0  0  0  0  0
   49.9657   -0.0946   -1.2132 O   0  0  0  0  0  0  0  0  0  0  0  0
   49.8813    1.2840   -1.7080 C   0  0  0  0  0  0  0  0  0  0  0  0
   50.8707    2.3044   -1.0755 C   0  0  0  0  0  0  0  0  0  0  0  0
   52.2495    2.0859   -1.3850 O   0  0  0  0  0  0  0  0  0  0  0  0
   50.6970    2.2621    0.4560 C   0  0  0  0  0  0  0  0  0  0  0  0
   51.4566    3.3397    0.9714 O   0  0  0  0  0  0  0  0  0  0  0  0
   49.1939    2.6384    0.7138 C   0  0  0  0  0  0  0  0  0  0  0  0
   48.9764    4.0150    0.4753 O   0  0  0  0  0  0  0  0  0  0  0  0
   48.2225    1.7214   -0.0448 C   0  0  0  0  0  0  0  0  0  0  0  0
   48.5379    1.7410   -1.4584 O   0  0  0  0  0  0  0  0  0  0  0  0
   52.5301    1.2302   -1.0245 H   0  0  0  0  0  0  0  0  0  0  0  0
   51.1660    4.1673    0.5572 H   0  0  0  0  0  0  0  0  0  0  0  0
   49.1597    4.2146   -0.4561 H   0  0  0  0  0  0  0  0  0  0  0  0
   46.7291    2.0449    0.1545 C   0  0  0  0  0  0  0  0  0  0  0  0
   46.5047    2.8120    1.3148 O   0  0  0  0  0  0  0  0  0  0  0  0
   46.7964    2.3128    2.0937 H   0  0  0  0  0  0  0  0  0  0  0  0
 24 23  1  0  0  0
 24 25  1  0  0  0
 24 32  1  0  0  0
 23  1  1  0  0  0
 25 26  1  0  0  0
 25 27  1  0  0  0
 27 28  1  0  0  0
 27 29  1  0  0  0
 29 30  1  0  0  0
 29 31  1  0  0  0
 31 32  1  0  0  0
 31 36  1  0  0  0
 36 37  1  0  0  0
  1  2  2  0  0  0
  1  6  1  0  0  0
  2  3  1  0  0  0
  3  4  2  0  0  0
  3 20  1  0  0  0
  4  5  1  0  0  0
  5  6  2  0  0  0
  5  7  1  0  0  0
 20 21  1  0  0  0
 20 22  2  0  0  0
  7  8  2  0  0  0
  7  9  1  0  0  0
  9 11  1  0  0  0
 14 15  1  0  0  0
 14 19  1  0  0  0
 15 16  1  0  0  0
 16 17  1  0  0  0
 17 18  1  0  0  0
 17 13  1  0  0  0
 18 19  1  0  0  0
 13 12  1  0  0  0
 12 11  1  0  0  0
 26 33  1  0  0  0
 28 34  1  0  0  0
 30 35  1  0  0  0
 37 38  1  0  0  0
  9 10  1  0  0  0
M  CHG 1  20   1
M  CHG 1  21  -1
M  END
> <minimizedAffinity>
-7.92258

$$$$
1JQY_A32_D_104


 38 40  0  0  0  0  0  0  0  0999 V2000
   51.2305   -0.1022   -2.8071 C   0  0  0  0  0  0  0  0  0  0  0  0
   51.9040    0.7279   -3.7018 C   0  0  0  0  0  0  0  0  0  0  0  0
   52.6448    0.1219   -4.7334 C   0  0  0  0  0  0  0  0  0  0  0  0
   52.6474   -1.3120   -4.7538 C   0  0  0  0  0  0  0  0  0  0  0  0
   51.9543   -2.1293   -3.8372 C   0  0  0  0  0  0  0  0  0  0  0  0
   51.2047   -1.4926   -2.8058 C   0  0  0  0  0  0  0  0  0  0  0  0
   51.8893   -3.5494   -3.8212 C   0  0  0  0  0  0  0  0  0  0  0  0
   52.3848   -4.0433   -2.7410 O   0  0  0  0  0  0  0  0  0  0  0  0
   51.3626   -4.2356   -4.7053 N   0  0  0  0  0  0  0  0  0  0  0  0
   51.4938   -5.2023   -4.5732 H   0  0  0  0  0  0  0  0  0  0  0  0
   50.6120   -3.9309   -5.8662 C   0  0  0  0  0  0  0  0  0  0  0  0
   49.0983   -4.1901   -5.6121 C   0  0  0  0  0  0  0  0  0  0  0  0
   48.4185   -2.8287   -5.6437 C   0  0  0  0  0  0  0  0  0  0  0  0
   46.5879   -0.0338   -3.1888 O   0  0  0  0  0  0  0  0  0  0  0  0
   47.1828   -1.1024   -2.5007 C   0  0  0  0  0  0  0  0  0  0  0  0
   47.7068   -2.3176   -3.2257 C   0  0  0  0  0  0  0  0  0  0  0  0
   47.3277   -2.5415   -4.6616 N   0  0  0  0  0  0  0  0  0  0  0  0
   46.3481   -1.5103   -5.1500 C   0  0  0  0  0  0  0  0  0  0  0  0
   46.5794   -0.0975   -4.6208 C   0  0  0  0  0  0  0  0  0  0  0  0
   53.4148    0.7782   -5.7174 N   0  0  0  0  0  0  0  0  0  0  0  0
   54.3746    0.0791   -6.1979 O   0  0  0  0  0  0  0  0  0  0  0  0
   53.2296    1.9669   -6.0586 O   0  0  0  0  0  0  0  0  0  0  0  0
   50.4528    0.4614   -1.7242 O   0  0  0  0  0  0  0  0  0  0  0  0
   50.2411    1.9034   -1.8926 C   0  0  0  0  0  0  0  0  0  0  0  0
   51.0636    2.8342   -0.9560 C   0  0  0  0  0  0  0  0  0  0  0  0
   52.4753    2.8314   -1.1836 O   0  0  0  0  0  0  0  0  0  0  0  0
   50.7992    2.4099    0.5026 C   0  0  0  0  0  0  0  0  0  0  0  0
   51.3948    3.4016    1.3184 O   0  0  0  0  0  0  0  0  0  0  0  0
   49.2493    2.5654    0.7056 C   0  0  0  0  0  0  0  0  0  0  0  0
   48.8896    3.9311    0.7731 O   0  0  0  0  0  0  0  0  0  0  0  0
   48.4406    1.7664   -0.3278 C   0  0  0  0  0  0  0  0  0  0  0  0
   48.8407    2.1543   -1.6648 O   0  0  0  0  0  0  0  0  0  0  0  0
   52.8295    1.9459   -1.0071 H   0  0  0  0  0  0  0  0  0  0  0  0
   51.0373    4.2719    1.0825 H   0  0  0  0  0  0  0  0  0  0  0  0
   49.1074    4.3647   -0.0669 H   0  0  0  0  0  0  0  0  0  0  0  0
   46.9102    1.8858   -0.1929 C   0  0  0  0  0  0  0  0  0  0  0  0
   46.5342    2.5480    0.9925 O   0  0  0  0  0  0  0  0  0  0  0  0
   46.8511    2.0444    1.7586 H   0  0  0  0  0  0  0  0  0  0  0  0
 24 23  1  0  0  0
 24 25  1  0  0  0
 24 32  1  0  0  0
 23  1  1  0  0  0
 25 26  1  0  0  0
 25 27  1  0  0  0
 27 28  1  0  0  0
 27 29  1  0  0  0
 29 30  1  0  0  0
 29 31  1  0  0  0
 31 32  1  0  0  0
 31 36  1  0  0  0
 36 37  1  0  0  0
  1  2  2  0  0  0
  1  6  1  0  0  0
  2  3  1  0  0  0
  3  4  2  0  0  0
  3 20  1  0  0  0
  4  5  1  0  0  0
  5  6  2  0  0  0
  5  7  1  0  0  0
 20 21  1  0  0  0
 20 22  2  0  0  0
  7  8  2  0  0  0
  7  9  1  0  0  0
  9 11  1  0  0  0
 14 15  1  0  0  0
 14 19  1  0  0  0
 15 16  1  0  0  0
 16 17  1  0  0  0
 17 18  1  0  0  0
 17 13  1  0  0  0
 18 19  1  0  0  0
 13 12  1  0  0  0
 12 11  1  0  0  0
 26 33  1  0  0  0
 28 34  1  0  0  0
 30 35  1  0  0  0
 37 38  1  0  0  0
  9 10  1  0  0  0
M  CHG 1  20   1
M  CHG 1  21  -1
M  END
> <minimizedAffinity>
-7.88782

$$$$
1JQY_A32_D_104


 38 40  0  0  0  0  0  0  0  0999 V2000
   49.2212   -0.0324   -1.7749 C   0  0  0  0  0  0  0  0  0  0  0  0
   48.2852    0.7398   -1.0890 C   0  0  0  0  0  0  0  0  0  0  0  0
   48.7608    1.7946   -0.2881 C   0  0  0  0  0  0  0  0  0  0  0  0
   50.1841    1.9641   -0.2428 C   0  0  0  0  0  0  0  0  0  0  0  0
   51.1102    1.1696   -0.9496 C   0  0  0  0  0  0  0  0  0  0  0  0
   50.6042    0.1121   -1.7602 C   0  0  0  0  0  0  0  0  0  0  0  0
   52.5252    1.3044   -0.9738 C   0  0  0  0  0  0  0  0  0  0  0  0
   53.0585    1.0018    0.1576 O   0  0  0  0  0  0  0  0  0  0  0  0
   53.1816    1.6124   -1.9760 N   0  0  0  0  0  0  0  0  0  0  0  0
   54.1374    1.7496   -1.7842 H   0  0  0  0  0  0  0  0  0  0  0  0
   52.8551    1.8101   -3.3391 C   0  0  0  0  0  0  0  0  0  0  0  0
   52.6164    3.3221   -3.6219 C   0  0  0  0  0  0  0  0  0  0  0  0
   53.7436    4.0720   -2.9264 C   0  0  0  0  0  0  0  0  0  0  0  0
   52.0119    7.5227   -1.4154 O   0  0  0  0  0  0  0  0  0  0  0  0
   53.4016    7.4490   -1.2341 C   0  0  0  0  0  0  0  0  0  0  0  0
   54.1721    6.1843   -1.5232 C   0  0  0  0  0  0  0  0  0  0  0  0
   53.4279    4.8943   -1.7176 N   0  0  0  0  0  0  0  0  0  0  0  0
   51.9517    5.0578   -1.4821 C   0  0  0  0  0  0  0  0  0  0  0  0
   51.3606    6.3754   -1.9759 C   0  0  0  0  0  0  0  0  0  0  0  0
   47.9858    2.6694    0.5031 N   0  0  0  0  0  0  0  0  0  0  0  0
   48.6440    3.6290    1.0387 O   0  0  0  0  0  0  0  0  0  0  0  0
   46.7670    2.5004    0.7263 O   0  0  0  0  0  0  0  0  0  0  0  0
   48.7941   -1.1322   -2.6135 O   0  0  0  0  0  0  0  0  0  0  0  0
   49.2224   -0.9594   -4.0061 C   0  0  0  0  0  0  0  0  0  0  0  0
   48.4372    0.0911   -4.8428 C   0  0  0  0  0  0  0  0  0  0  0  0
   48.6114    1.4493   -4.4308 O   0  0  0  0  0  0  0  0  0  0  0  0
   46.9366   -0.2565   -4.7719 C   0  0  0  0  0  0  0  0  0  0  0  0
   46.2890    0.5896   -5.7037 O   0  0  0  0  0  0  0  0  0  0  0  0
   46.8186   -1.7081   -5.3603 C   0  0  0  0  0  0  0  0  0  0  0  0
   47.0065   -1.6951   -6.7616 O   0  0  0  0  0  0  0  0  0  0  0  0
   47.7218   -2.7119   -4.6276 C   0  0  0  0  0  0  0  0  0  0  0  0
   49.0916   -2.2414   -4.6506 O   0  0  0  0  0  0  0  0  0  0  0  0
   48.2686    1.5604   -3.5302 H   0  0  0  0  0  0  0  0  0  0  0  0
   46.6875    0.4705   -6.5800 H   0  0  0  0  0  0  0  0  0  0  0  0
   47.9018   -1.3820   -6.9649 H   0  0  0  0  0  0  0  0  0  0  0  0
   47.6636   -4.1551   -5.1645 C   0  0  0  0  0  0  0  0  0  0  0  0
   46.5517   -4.3621   -6.0047 O   0  0  0  0  0  0  0  0  0  0  0  0
   45.7351   -4.2094   -5.5038 H   0  0  0  0  0  0  0  0  0  0  0  0
 24 23  1  0  0  0
 24 25  1  0  0  0
 24 32  1  0  0  0
 23  1  1  0  0  0
 25 26  1  0  0  0
 25 27  1  0  0  0
 27 28  1  0  0  0
 27 29  1  0  0  0
 29 30  1  0  0  0
 29 31  1  0  0  0
 31 32  1  0  0  0
 31 36  1  0  0  0
 36 37  1  0  0  0
  1  2  2  0  0  0
  1  6  1  0  0  0
  2  3  1  0  0  0
  3  4  2  0  0  0
  3 20  1  0  0  0
  4  5  1  0  0  0
  5  6  2  0  0  0
  5  7  1  0  0  0
 20 21  1  0  0  0
 20 22  2  0  0  0
  7  8  2  0  0  0
  7  9  1  0  0  0
  9 11  1  0  0  0
 14 15  1  0  0  0
 14 19  1  0  0  0
 15 16  1  0  0  0
 16 17  1  0  0  0
 17 18  1  0  0  0
 17 13  1  0  0  0
 18 19  1  0  0  0
 13 12  1  0  0  0
 12 11  1  0  0  0
 26 33  1  0  0  0
 28 34  1  0  0  0
 30 35  1  0  0  0
 37 38  1  0  0  0
  9 10  1  0  0  0
M  CHG 1  20   1
M  CHG 1  21  -1
M  END
> <minimizedAffinity>
-7.81156

$$$$
1JQY_A32_D_104


 38 40  0  0  0  0  0  0  0  0999 V2000
   50.1538   -0.8888   -2.2798 C   0  0  0  0  0  0  0  0  0  0  0  0
   48.8526   -1.1354   -2.7147 C   0  0  0  0  0  0  0  0  0  0  0  0
   48.6742   -2.0296   -3.7865 C   0  0  0  0  0  0  0  0  0  0  0  0
   49.8675   -2.5958   -4.3450 C   0  0  0  0  0  0  0  0  0  0  0  0
   51.1736   -2.3314   -3.8839 C   0  0  0  0  0  0  0  0  0  0  0  0
   51.3286   -1.4283   -2.7922 C   0  0  0  0  0  0  0  0  0  0  0  0
   52.3910   -2.8819   -4.3698 C   0  0  0  0  0  0  0  0  0  0  0  0
   53.1985   -1.9722   -4.7900 O   0  0  0  0  0  0  0  0  0  0  0  0
   52.6769   -4.0849   -4.3374 N   0  0  0  0  0  0  0  0  0  0  0  0
   53.5194   -4.2940   -4.8019 H   0  0  0  0  0  0  0  0  0  0  0  0
   52.0544   -5.2258   -3.7765 C   0  0  0  0  0  0  0  0  0  0  0  0
   51.5793   -6.1887   -4.9035 C   0  0  0  0  0  0  0  0  0  0  0  0
   50.0577   -6.1553   -4.8834 C   0  0  0  0  0  0  0  0  0  0  0  0
   48.1580   -9.3867   -6.6550 O   0  0  0  0  0  0  0  0  0  0  0  0
   47.3064   -8.5550   -5.9116 C   0  0  0  0  0  0  0  0  0  0  0  0
   47.8452   -7.4587   -5.0257 C   0  0  0  0  0  0  0  0  0  0  0  0
   49.3082   -7.4347   -4.6874 N   0  0  0  0  0  0  0  0  0  0  0  0
   50.0304   -8.6338   -5.2370 C   0  0  0  0  0  0  0  0  0  0  0  0
   49.5610   -9.0959   -6.6138 C   0  0  0  0  0  0  0  0  0  0  0  0
   47.4505   -2.3900   -4.3904 N   0  0  0  0  0  0  0  0  0  0  0  0
   47.3934   -3.6030   -4.7979 O   0  0  0  0  0  0  0  0  0  0  0  0
   46.5113   -1.5860   -4.5786 O   0  0  0  0  0  0  0  0  0  0  0  0
   50.4020    0.0221   -1.1826 O   0  0  0  0  0  0  0  0  0  0  0  0
   50.3473    1.4245   -1.6102 C   0  0  0  0  0  0  0  0  0  0  0  0
   51.1484    2.4399   -0.7456 C   0  0  0  0  0  0  0  0  0  0  0  0
   52.5698    2.2916   -0.7952 O   0  0  0  0  0  0  0  0  0  0  0  0
   50.6892    2.2970    0.7194 C   0  0  0  0  0  0  0  0  0  0  0  0
   51.2846    3.3680    1.4280 O   0  0  0  0  0  0  0  0  0  0  0  0
   49.1482    2.6012    0.7029 C   0  0  0  0  0  0  0  0  0  0  0  0
   48.9143    3.9809    0.5007 O   0  0  0  0  0  0  0  0  0  0  0  0
   48.3837    1.6975   -0.2763 C   0  0  0  0  0  0  0  0  0  0  0  0
   48.9606    1.8156   -1.5997 O   0  0  0  0  0  0  0  0  0  0  0  0
   52.8174    1.4263   -0.4336 H   0  0  0  0  0  0  0  0  0  0  0  0
   51.0386    4.2083    1.0105 H   0  0  0  0  0  0  0  0  0  0  0  0
   49.2615    4.2441   -0.3660 H   0  0  0  0  0  0  0  0  0  0  0  0
   46.8659    1.9529   -0.3512 C   0  0  0  0  0  0  0  0  0  0  0  0
   46.3336    1.6097   -1.6097 O   0  0  0  0  0  0  0  0  0  0  0  0
   46.7500    2.1539   -2.2962 H   0  0  0  0  0  0  0  0  0  0  0  0
 24 23  1  0  0  0
 24 25  1  0  0  0
 24 32  1  0  0  0
 23  1  1  0  0  0
 25 26  1  0  0  0
 25 27  1  0  0  0
 27 28  1  0  0  0
 27 29  1  0  0  0
 29 30  1  0  0  0
 29 31  1  0  0  0
 31 32  1  0  0  0
 31 36  1  0  0  0
 36 37  1  0  0  0
  1  2  2  0  0  0
  1  6  1  0  0  0
  2  3  1  0  0  0
  3  4  2  0  0  0
  3 20  1  0  0  0
  4  5  1  0  0  0
  5  6  2  0  0  0
  5  7  1  0  0  0
 20 21  1  0  0  0
 20 22  2  0  0  0
  7  8  2  0  0  0
  7  9  1  0  0  0
  9 11  1  0  0  0
 14 15  1  0  0  0
 14 19  1  0  0  0
 15 16  1  0  0  0
 16 17  1  0  0  0
 17 18  1  0  0  0
 17 13  1  0  0  0
 18 19  1  0  0  0
 13 12  1  0  0  0
 12 11  1  0  0  0
 26 33  1  0  0  0
 28 34  1  0  0  0
 30 35  1  0  0  0
 37 38  1  0  0  0
  9 10  1  0  0  0
M  CHG 1  20   1
M  CHG 1  21  -1
M  END
> <minimizedAffinity>
-7.77801

$$$$
1JQY_A32_D_104


 38 40  0  0  0  0  0  0  0  0999 V2000
   49.7610    1.3291   -2.2833 C   0  0  0  0  0  0  0  0  0  0  0  0
   49.5510    2.1653   -1.1880 C   0  0  0  0  0  0  0  0  0  0  0  0
   48.3563    2.0112   -0.4606 C   0  0  0  0  0  0  0  0  0  0  0  0
   47.4513    1.0046   -0.9340 C   0  0  0  0  0  0  0  0  0  0  0  0
   47.6895    0.1690   -2.0446 C   0  0  0  0  0  0  0  0  0  0  0  0
   48.9098    0.3387   -2.7611 C   0  0  0  0  0  0  0  0  0  0  0  0
   46.8523   -0.8655   -2.5447 C   0  0  0  0  0  0  0  0  0  0  0  0
   46.4873   -1.6813   -1.6188 O   0  0  0  0  0  0  0  0  0  0  0  0
   46.4619   -0.9448   -3.7158 N   0  0  0  0  0  0  0  0  0  0  0  0
   45.9681   -1.7758   -3.9026 H   0  0  0  0  0  0  0  0  0  0  0  0
   46.5718   -0.0987   -4.8453 C   0  0  0  0  0  0  0  0  0  0  0  0
   46.7973   -0.9449   -6.1322 C   0  0  0  0  0  0  0  0  0  0  0  0
   48.1169   -1.6781   -5.9380 C   0  0  0  0  0  0  0  0  0  0  0  0
   49.7749   -5.4052   -5.1970 O   0  0  0  0  0  0  0  0  0  0  0  0
   48.4055   -5.4348   -5.5024 C   0  0  0  0  0  0  0  0  0  0  0  0
   47.5863   -4.1707   -5.5912 C   0  0  0  0  0  0  0  0  0  0  0  0
   48.1508   -2.8858   -5.0563 N   0  0  0  0  0  0  0  0  0  0  0  0
   49.4820   -3.0936   -4.3883 C   0  0  0  0  0  0  0  0  0  0  0  0
   50.3906   -4.1178   -5.0626 C   0  0  0  0  0  0  0  0  0  0  0  0
   47.9430    2.7711    0.6547 N   0  0  0  0  0  0  0  0  0  0  0  0
   48.8983    3.3091    1.3173 O   0  0  0  0  0  0  0  0  0  0  0  0
   46.7507    2.8694    1.0186 O   0  0  0  0  0  0  0  0  0  0  0  0
   50.9697    1.4401   -3.0719 O   0  0  0  0  0  0  0  0  0  0  0  0
   51.9879    0.4691   -2.6560 C   0  0  0  0  0  0  0  0  0  0  0  0
   53.1819    1.0329   -1.8333 C   0  0  0  0  0  0  0  0  0  0  0  0
   52.8477    1.5137   -0.5288 O   0  0  0  0  0  0  0  0  0  0  0  0
   53.8208    2.1854   -2.6342 C   0  0  0  0  0  0  0  0  0  0  0  0
   55.0144    2.5269   -1.9543 O   0  0  0  0  0  0  0  0  0  0  0  0
   54.2737    1.5441   -3.9947 C   0  0  0  0  0  0  0  0  0  0  0  0
   55.4034    0.7155   -3.8039 O   0  0  0  0  0  0  0  0  0  0  0  0
   53.1168    0.8480   -4.7276 C   0  0  0  0  0  0  0  0  0  0  0  0
   52.5095   -0.1360   -3.8551 O   0  0  0  0  0  0  0  0  0  0  0  0
   52.2391    2.2649   -0.6071 H   0  0  0  0  0  0  0  0  0  0  0  0
   55.5741    1.7394   -1.8682 H   0  0  0  0  0  0  0  0  0  0  0  0
   55.1708   -0.0171   -3.2122 H   0  0  0  0  0  0  0  0  0  0  0  0
   53.4965    0.1854   -6.0659 C   0  0  0  0  0  0  0  0  0  0  0  0
   54.4014   -0.8802   -5.8902 O   0  0  0  0  0  0  0  0  0  0  0  0
   55.2209   -0.5463   -5.4930 H   0  0  0  0  0  0  0  0  0  0  0  0
 24 23  1  0  0  0
 24 25  1  0  0  0
 24 32  1  0  0  0
 23  1  1  0  0  0
 25 26  1  0  0  0
 25 27  1  0  0  0
 27 28  1  0  0  0
 27 29  1  0  0  0
 29 30  1  0  0  0
 29 31  1  0  0  0
 31 32  1  0  0  0
 31 36  1  0  0  0
 36 37  1  0  0  0
  1  2  2  0  0  0
  1  6  1  0  0  0
  2  3  1  0  0  0
  3  4  2  0  0  0
  3 20  1  0  0  0
  4  5  1  0  0  0
  5  6  2  0  0  0
  5  7  1  0  0  0
 20 21  1  0  0  0
 20 22  2  0  0  0
  7  8  2  0  0  0
  7  9  1  0  0  0
  9 11  1  0  0  0
 14 15  1  0  0  0
 14 19  1  0  0  0
 15 16  1  0  0  0
 16 17  1  0  0  0
 17 18  1  0  0  0
 17 13  1  0  0  0
 18 19  1  0  0  0
 13 12  1  0  0  0
 12 11  1  0  0  0
 26 33  1  0  0  0
 28 34  1  0  0  0
 30 35  1  0  0  0
 37 38  1  0  0  0
  9 10  1  0  0  0
M  CHG 1  20   1
M  CHG 1  21  -1
M  END
> <minimizedAffinity>
-7.77622

$$$$
1JQY_A32_D_104


 38 40  0  0  0  0  0  0  0  0999 V2000
   49.2712   -0.0427   -1.8033 C   0  0  0  0  0  0  0  0  0  0  0  0
   48.3224    0.6905   -1.0923 C   0  0  0  0  0  0  0  0  0  0  0  0
   48.7759    1.7585   -0.2962 C   0  0  0  0  0  0  0  0  0  0  0  0
   50.1924    1.9813   -0.2816 C   0  0  0  0  0  0  0  0  0  0  0  0
   51.1317    1.2257   -1.0133 C   0  0  0  0  0  0  0  0  0  0  0  0
   50.6478    0.1539   -1.8184 C   0  0  0  0  0  0  0  0  0  0  0  0
   52.5398    1.4139   -1.0681 C   0  0  0  0  0  0  0  0  0  0  0  0
   53.1518    0.7493   -0.1517 O   0  0  0  0  0  0  0  0  0  0  0  0
   53.1231    2.0827   -1.9298 N   0  0  0  0  0  0  0  0  0  0  0  0
   54.0874    2.1789   -1.7563 H   0  0  0  0  0  0  0  0  0  0  0  0
   52.7035    2.7395   -3.1115 C   0  0  0  0  0  0  0  0  0  0  0  0
   53.8448    2.7249   -4.1700 C   0  0  0  0  0  0  0  0  0  0  0  0
   54.0488    1.2682   -4.5612 C   0  0  0  0  0  0  0  0  0  0  0  0
   52.4045   -2.0503   -6.4248 O   0  0  0  0  0  0  0  0  0  0  0  0
   51.8012   -0.8336   -6.7785 C   0  0  0  0  0  0  0  0  0  0  0  0
   52.1175    0.4488   -6.0489 C   0  0  0  0  0  0  0  0  0  0  0  0
   52.8498    0.3918   -4.7389 N   0  0  0  0  0  0  0  0  0  0  0  0
   53.0791   -1.0237   -4.2860 C   0  0  0  0  0  0  0  0  0  0  0  0
   53.4065   -2.0137   -5.4004 C   0  0  0  0  0  0  0  0  0  0  0  0
   47.9865    2.5996    0.5170 N   0  0  0  0  0  0  0  0  0  0  0  0
   48.6352    3.5334    1.1070 O   0  0  0  0  0  0  0  0  0  0  0  0
   46.7632    2.4238    0.7083 O   0  0  0  0  0  0  0  0  0  0  0  0
   48.8671   -1.1536   -2.6385 O   0  0  0  0  0  0  0  0  0  0  0  0
   49.2733   -0.9665   -4.0358 C   0  0  0  0  0  0  0  0  0  0  0  0
   48.4585    0.0741   -4.8564 C   0  0  0  0  0  0  0  0  0  0  0  0
   48.6143    1.4331   -4.4398 O   0  0  0  0  0  0  0  0  0  0  0  0
   46.9653   -0.3003   -4.7670 C   0  0  0  0  0  0  0  0  0  0  0  0
   46.2903    0.5388   -5.6857 O   0  0  0  0  0  0  0  0  0  0  0  0
   46.8649   -1.7508   -5.3612 C   0  0  0  0  0  0  0  0  0  0  0  0
   47.0335   -1.7276   -6.7649 O   0  0  0  0  0  0  0  0  0  0  0  0
   47.7955   -2.7421   -4.6460 C   0  0  0  0  0  0  0  0  0  0  0  0
   49.1563   -2.2474   -4.6850 O   0  0  0  0  0  0  0  0  0  0  0  0
   48.2819    1.5337   -3.5341 H   0  0  0  0  0  0  0  0  0  0  0  0
   46.6789    0.4311   -6.5678 H   0  0  0  0  0  0  0  0  0  0  0  0
   47.9203   -1.3978   -6.9786 H   0  0  0  0  0  0  0  0  0  0  0  0
   47.7554   -4.1835   -5.1895 C   0  0  0  0  0  0  0  0  0  0  0  0
   46.6022   -4.4252   -5.9621 O   0  0  0  0  0  0  0  0  0  0  0  0
   45.8129   -4.3045   -5.4113 H   0  0  0  0  0  0  0  0  0  0  0  0
 24 23  1  0  0  0
 24 25  1  0  0  0
 24 32  1  0  0  0
 23  1  1  0  0  0
 25 26  1  0  0  0
 25 27  1  0  0  0
 27 28  1  0  0  0
 27 29  1  0  0  0
 29 30  1  0  0  0
 29 31  1  0  0  0
 31 32  1  0  0  0
 31 36  1  0  0  0
 36 37  1  0  0  0
  1  2  2  0  0  0
  1  6  1  0  0  0
  2  3  1  0  0  0
  3  4  2  0  0  0
  3 20  1  0  0  0
  4  5  1  0  0  0
  5  6  2  0  0  0
  5  7  1  0  0  0
 20 21  1  0  0  0
 20 22  2  0  0  0
  7  8  2  0  0  0
  7  9  1  0  0  0
  9 11  1  0  0  0
 14 15  1  0  0  0
 14 19  1  0  0  0
 15 16  1  0  0  0
 16 17  1  0  0  0
 17 18  1  0  0  0
 17 13  1  0  0  0
 18 19  1  0  0  0
 13 12  1  0  0  0
 12 11  1  0  0  0
 26 33  1  0  0  0
 28 34  1  0  0  0
 30 35  1  0  0  0
 37 38  1  0  0  0
  9 10  1  0  0  0
M  CHG 1  20   1
M  CHG 1  21  -1
M  END
> <minimizedAffinity>
-7.67739

$$$$
1JQY_A32_D_104


 38 40  0  0  0  0  0  0  0  0999 V2000
   49.0977    0.2716   -2.0048 C   0  0  0  0  0  0  0  0  0  0  0  0
   48.2585    1.0042   -1.1669 C   0  0  0  0  0  0  0  0  0  0  0  0
   48.8541    1.8668   -0.2281 C   0  0  0  0  0  0  0  0  0  0  0  0
   50.2878    1.8962   -0.2145 C   0  0  0  0  0  0  0  0  0  0  0  0
   51.1144    1.1461   -1.0762 C   0  0  0  0  0  0  0  0  0  0  0  0
   50.4882    0.2851   -2.0237 C   0  0  0  0  0  0  0  0  0  0  0  0
   52.5348    1.1534   -1.1363 C   0  0  0  0  0  0  0  0  0  0  0  0
   53.0569    0.3033   -0.3234 O   0  0  0  0  0  0  0  0  0  0  0  0
   53.1983    1.8440   -1.9192 N   0  0  0  0  0  0  0  0  0  0  0  0
   54.1675    1.7901   -1.7551 H   0  0  0  0  0  0  0  0  0  0  0  0
   52.8648    2.6950   -3.0001 C   0  0  0  0  0  0  0  0  0  0  0  0
   52.4500    4.0992   -2.4718 C   0  0  0  0  0  0  0  0  0  0  0  0
   51.2291    4.5178   -3.2786 C   0  0  0  0  0  0  0  0  0  0  0  0
   49.2075    4.8897   -6.8792 O   0  0  0  0  0  0  0  0  0  0  0  0
   49.1643    3.6010   -6.3252 C   0  0  0  0  0  0  0  0  0  0  0  0
   50.0133    3.2208   -5.1371 C   0  0  0  0  0  0  0  0  0  0  0  0
   51.1411    4.1195   -4.7176 N   0  0  0  0  0  0  0  0  0  0  0  0
   51.3187    5.2750   -5.6634 C   0  0  0  0  0  0  0  0  0  0  0  0
   50.0231    5.8636   -6.2150 C   0  0  0  0  0  0  0  0  0  0  0  0
   48.1877    2.6684    0.7234 N   0  0  0  0  0  0  0  0  0  0  0  0
   48.9619    3.3505    1.4824 O   0  0  0  0  0  0  0  0  0  0  0  0
   46.9458    2.6756    0.8704 O   0  0  0  0  0  0  0  0  0  0  0  0
   48.5451   -0.6335   -2.9899 O   0  0  0  0  0  0  0  0  0  0  0  0
   48.4101    0.0022   -4.3052 C   0  0  0  0  0  0  0  0  0  0  0  0
   47.0745   -0.2548   -5.0605 C   0  0  0  0  0  0  0  0  0  0  0  0
   45.9148    0.3267   -4.4593 O   0  0  0  0  0  0  0  0  0  0  0  0
   46.8631   -1.7785   -5.1660 C   0  0  0  0  0  0  0  0  0  0  0  0
   45.7580   -1.9668   -6.0304 O   0  0  0  0  0  0  0  0  0  0  0  0
   48.1134   -2.3179   -5.9489 C   0  0  0  0  0  0  0  0  0  0  0  0
   48.0392   -1.9598   -7.3147 O   0  0  0  0  0  0  0  0  0  0  0  0
   49.4385   -1.9217   -5.2800 C   0  0  0  0  0  0  0  0  0  0  0  0
   49.4932   -0.4828   -5.1223 O   0  0  0  0  0  0  0  0  0  0  0  0
   45.7715   -0.0681   -3.5849 H   0  0  0  0  0  0  0  0  0  0  0  0
   45.9310   -1.5261   -6.8770 H   0  0  0  0  0  0  0  0  0  0  0  0
   48.0524   -0.9934   -7.3968 H   0  0  0  0  0  0  0  0  0  0  0  0
   50.7074   -2.4091   -6.0058 C   0  0  0  0  0  0  0  0  0  0  0  0
   50.4686   -3.5718   -6.7648 O   0  0  0  0  0  0  0  0  0  0  0  0
   50.1815   -4.2882   -6.1771 H   0  0  0  0  0  0  0  0  0  0  0  0
 24 23  1  0  0  0
 24 25  1  0  0  0
 24 32  1  0  0  0
 23  1  1  0  0  0
 25 26  1  0  0  0
 25 27  1  0  0  0
 27 28  1  0  0  0
 27 29  1  0  0  0
 29 30  1  0  0  0
 29 31  1  0  0  0
 31 32  1  0  0  0
 31 36  1  0  0  0
 36 37  1  0  0  0
  1  2  2  0  0  0
  1  6  1  0  0  0
  2  3  1  0  0  0
  3  4  2  0  0  0
  3 20  1  0  0  0
  4  5  1  0  0  0
  5  6  2  0  0  0
  5  7  1  0  0  0
 20 21  1  0  0  0
 20 22  2  0  0  0
  7  8  2  0  0  0
  7  9  1  0  0  0
  9 11  1  0  0  0
 14 15  1  0  0  0
 14 19  1  0  0  0
 15 16  1  0  0  0
 16 17  1  0  0  0
 17 18  1  0  0  0
 17 13  1  0  0  0
 18 19  1  0  0  0
 13 12  1  0  0  0
 12 11  1  0  0  0
 26 33  1  0  0  0
 28 34  1  0  0  0
 30 35  1  0  0  0
 37 38  1  0  0  0
  9 10  1  0  0  0
M  CHG 1  20   1
M  CHG 1  21  -1
M  END
> <minimizedAffinity>
-7.43849

$$$$
1JQY_A32_D_104


 38 40  0  0  0  0  0  0  0  0999 V2000
   50.6688    0.7391   -2.5660 C   0  0  0  0  0  0  0  0  0  0  0  0
   49.3402    0.8981   -2.1752 C   0  0  0  0  0  0  0  0  0  0  0  0
   48.5459   -0.2572   -2.0547 C   0  0  0  0  0  0  0  0  0  0  0  0
   49.1862   -1.5020   -2.3659 C   0  0  0  0  0  0  0  0  0  0  0  0
   50.5344   -1.6358   -2.7569 C   0  0  0  0  0  0  0  0  0  0  0  0
   51.3211   -0.4522   -2.8646 C   0  0  0  0  0  0  0  0  0  0  0  0
   51.2362   -2.8376   -3.0470 C   0  0  0  0  0  0  0  0  0  0  0  0
   52.1483   -3.0869   -2.1740 O   0  0  0  0  0  0  0  0  0  0  0  0
   50.9676   -3.5949   -3.9874 N   0  0  0  0  0  0  0  0  0  0  0  0
   51.6164   -4.3283   -4.0898 H   0  0  0  0  0  0  0  0  0  0  0  0
   49.9288   -3.6348   -4.9482 C   0  0  0  0  0  0  0  0  0  0  0  0
   50.4277   -3.0581   -6.3052 C   0  0  0  0  0  0  0  0  0  0  0  0
   50.0148   -1.5932   -6.3268 C   0  0  0  0  0  0  0  0  0  0  0  0
   45.9347   -2.3254   -6.4029 O   0  0  0  0  0  0  0  0  0  0  0  0
   46.5903   -2.5930   -7.6146 C   0  0  0  0  0  0  0  0  0  0  0  0
   48.0257   -2.1888   -7.8445 C   0  0  0  0  0  0  0  0  0  0  0  0
   48.6823   -1.2253   -6.8978 N   0  0  0  0  0  0  0  0  0  0  0  0
   47.7184   -0.7088   -5.8656 C   0  0  0  0  0  0  0  0  0  0  0  0
   46.7104   -1.7336   -5.3528 C   0  0  0  0  0  0  0  0  0  0  0  0
   47.1802   -0.3096   -1.7020 N   0  0  0  0  0  0  0  0  0  0  0  0
   46.6224   -1.4464   -1.8955 O   0  0  0  0  0  0  0  0  0  0  0  0
   46.5352    0.6806   -1.2929 O   0  0  0  0  0  0  0  0  0  0  0  0
   51.5357    1.8893   -2.7090 O   0  0  0  0  0  0  0  0  0  0  0  0
   52.0780    2.3319   -1.4196 C   0  0  0  0  0  0  0  0  0  0  0  0
   51.6036    3.7248   -0.9147 C   0  0  0  0  0  0  0  0  0  0  0  0
   50.2193    3.8054   -0.5653 O   0  0  0  0  0  0  0  0  0  0  0  0
   51.8949    4.7643   -2.0157 C   0  0  0  0  0  0  0  0  0  0  0  0
   51.6427    6.0328   -1.4404 O   0  0  0  0  0  0  0  0  0  0  0  0
   53.4475    4.7016   -2.2453 C   0  0  0  0  0  0  0  0  0  0  0  0
   54.1365    5.2880   -1.1588 O   0  0  0  0  0  0  0  0  0  0  0  0
   53.9317    3.2845   -2.5882 C   0  0  0  0  0  0  0  0  0  0  0  0
   53.5123    2.3627   -1.5526 O   0  0  0  0  0  0  0  0  0  0  0  0
   49.6771    3.6423   -1.3529 H   0  0  0  0  0  0  0  0  0  0  0  0
   52.1786    6.1365   -0.6385 H   0  0  0  0  0  0  0  0  0  0  0  0
   53.9521    4.7855   -0.3498 H   0  0  0  0  0  0  0  0  0  0  0  0
   55.4502    3.1502   -2.8135 C   0  0  0  0  0  0  0  0  0  0  0  0
   56.1589    3.0607   -1.5991 O   0  0  0  0  0  0  0  0  0  0  0  0
   56.0163    3.8684   -1.0812 H   0  0  0  0  0  0  0  0  0  0  0  0
 24 23  1  0  0  0
 24 25  1  0  0  0
 24 32  1  0  0  0
 23  1  1  0  0  0
 25 26  1  0  0  0
 25 27  1  0  0  0
 27 28  1  0  0  0
 27 29  1  0  0  0
 29 30  1  0  0  0
 29 31  1  0  0  0
 31 32  1  0  0  0
 31 36  1  0  0  0
 36 37  1  0  0  0
  1  2  2  0  0  0
  1  6  1  0  0  0
  2  3  1  0  0  0
  3  4  2  0  0  0
  3 20  1  0  0  0
  4  5  1  0  0  0
  5  6  2  0  0  0
  5  7  1  0  0  0
 20 21  1  0  0  0
 20 22  2  0  0  0
  7  8  2  0  0  0
  7  9  1  0  0  0
  9 11  1  0  0  0
 14 15  1  0  0  0
 14 19  1  0  0  0
 15 16  1  0  0  0
 16 17  1  0  0  0
 17 18  1  0  0  0
 17 13  1  0  0  0
 18 19  1  0  0  0
 13 12  1  0  0  0
 12 11  1  0  0  0
 26 33  1  0  0  0
 28 34  1  0  0  0
 30 35  1  0  0  0
 37 38  1  0  0  0
  9 10  1  0  0  0
M  CHG 1  20   1
M  CHG 1  21  -1
M  END
> <minimizedAffinity>
-7.42230

$$$$
