5EP7_5QR_A_1201


 22 23  0  0  0  0  0  0  0  0999 V2000
  -14.8700   -9.3395   23.4946 C   0  0  0  0  0  0  0  0  0  0  0  0
  -15.1316  -10.4658   23.6845 O   0  0  0  0  0  0  0  0  0  0  0  0
  -15.7531   -8.3169   22.9619 N   0  0  0  0  0  0  0  0  0  0  0  0
  -15.3943   -7.4005   22.9864 H   0  0  0  0  0  0  0  0  0  0  0  0
  -12.4330   -8.4733   23.1301 C   0  0  0  0  0  0  0  0  0  0  0  0
   -9.9439   -7.5838   25.5429 O   0  0  0  0  0  0  0  0  0  0  0  0
  -10.9809   -7.9674   25.0778 C   0  0  0  0  0  0  0  0  0  0  0  0
  -11.9920   -8.3370   25.8506 N   0  0  0  0  0  0  0  0  0  0  0  0
  -11.8737   -8.2712   27.3329 C   0  0  0  0  0  0  0  0  0  0  0  0
  -11.2183   -8.0614   23.6713 C   0  0  0  0  0  0  0  0  0  0  0  0
  -13.4305   -8.8709   23.9942 C   0  0  0  0  0  0  0  0  0  0  0  0
  -13.1571   -8.7573   25.3744 C   0  0  0  0  0  0  0  0  0  0  0  0
  -19.3632   -9.0915   22.4436 C   0  0  0  0  0  0  0  0  0  0  0  0
  -17.1184   -8.4455   22.3848 C   0  0  0  0  0  0  0  0  0  0  0  0
  -17.1924   -7.8882   21.2277 C   0  0  0  0  0  0  0  0  0  0  0  0
  -18.4369   -7.8885   20.5952 C   0  0  0  0  0  0  0  0  0  0  0  0
  -19.4884   -8.4935   21.2098 C   0  0  0  0  0  0  0  0  0  0  0  0
  -18.1543   -9.0206   23.0728 C   0  0  0  0  0  0  0  0  0  0  0  0
  -18.4506   -7.2985   19.2150 C   0  0  0  0  0  0  0  0  0  0  0  0
  -17.4323   -7.0089   18.5936 O   0  0  0  0  0  0  0  0  0  0  0  0
  -19.5242   -7.1597   18.5944 O   0  0  0  0  0  0  0  0  0  0  0  0
  -16.5938   -7.0914   19.0037 H   0  0  0  0  0  0  0  0  0  0  0  0
 21 19  2  0  0  0
 19 20  1  0  0  0
 19 16  1  0  0  0
 16 17  2  0  0  0
 16 15  1  0  0  0
 17 13  1  0  0  0
 13 18  2  0  0  0
 15 14  2  0  0  0
 14 18  1  0  0  0
 14  3  1  0  0  0
  3  1  1  0  0  0
  9  8  1  0  0  0
 12  8  1  0  0  0
 12 11  2  0  0  0
  1  2  2  0  0  0
  1 11  1  0  0  0
  8  7  1  0  0  0
 11  5  1  0  0  0
  7  6  2  0  0  0
  7 10  1  0  0  0
  5 10  2  0  0  0
  3  4  1  0  0  0
 20 22  1  0  0  0
M  END
> <minimizedAffinity>
-7.37571

$$$$
5EP7_5QR_A_1201


 22 23  0  0  0  0  0  0  0  0999 V2000
  -14.9119   -9.5833   23.8610 C   0  0  0  0  0  0  0  0  0  0  0  0
  -15.1197  -10.7191   24.0604 O   0  0  0  0  0  0  0  0  0  0  0  0
  -15.7769   -8.6478   23.1640 N   0  0  0  0  0  0  0  0  0  0  0  0
  -15.4898   -7.7067   23.1996 H   0  0  0  0  0  0  0  0  0  0  0  0
  -13.3686   -9.0450   25.8983 C   0  0  0  0  0  0  0  0  0  0  0  0
  -10.1116   -7.5630   25.9636 O   0  0  0  0  0  0  0  0  0  0  0  0
  -11.1513   -7.9890   25.5433 C   0  0  0  0  0  0  0  0  0  0  0  0
  -11.4235   -7.9955   24.2463 N   0  0  0  0  0  0  0  0  0  0  0  0
  -10.4302   -7.4836   23.2630 C   0  0  0  0  0  0  0  0  0  0  0  0
  -12.1762   -8.5185   26.3873 C   0  0  0  0  0  0  0  0  0  0  0  0
  -13.5963   -8.9920   24.5400 C   0  0  0  0  0  0  0  0  0  0  0  0
  -12.5569   -8.4666   23.7423 C   0  0  0  0  0  0  0  0  0  0  0  0
  -19.0880   -9.9473   22.0463 C   0  0  0  0  0  0  0  0  0  0  0  0
  -17.0315   -8.8971   22.4042 C   0  0  0  0  0  0  0  0  0  0  0  0
  -17.1234   -8.1200   21.3831 C   0  0  0  0  0  0  0  0  0  0  0  0
  -18.2826   -8.2117   20.6107 C   0  0  0  0  0  0  0  0  0  0  0  0
  -19.2317   -9.1238   20.9523 C   0  0  0  0  0  0  0  0  0  0  0  0
  -17.9780   -9.7939   22.8252 C   0  0  0  0  0  0  0  0  0  0  0  0
  -18.3037   -7.3424   19.3871 C   0  0  0  0  0  0  0  0  0  0  0  0
  -17.2917   -7.0083   18.7779 O   0  0  0  0  0  0  0  0  0  0  0  0
  -19.3867   -6.9906   18.8768 O   0  0  0  0  0  0  0  0  0  0  0  0
  -16.4469   -7.2418   19.1091 H   0  0  0  0  0  0  0  0  0  0  0  0
 21 19  2  0  0  0
 19 20  1  0  0  0
 19 16  1  0  0  0
 16 17  2  0  0  0
 16 15  1  0  0  0
 17 13  1  0  0  0
 13 18  2  0  0  0
 15 14  2  0  0  0
 14 18  1  0  0  0
 14  3  1  0  0  0
  3  1  1  0  0  0
  9  8  1  0  0  0
 12  8  1  0  0  0
 12 11  2  0  0  0
  1  2  2  0  0  0
  1 11  1  0  0  0
  8  7  1  0  0  0
 11  5  1  0  0  0
  7  6  2  0  0  0
  7 10  1  0  0  0
  5 10  2  0  0  0
  3  4  1  0  0  0
 20 22  1  0  0  0
M  END
> <minimizedAffinity>
-7.15102

$$$$
5EP7_5QR_A_1201


 22 23  0  0  0  0  0  0  0  0999 V2000
  -16.2000   -7.8481   22.8036 C   0  0  0  0  0  0  0  0  0  0  0  0
  -16.2515   -6.8448   23.4067 O   0  0  0  0  0  0  0  0  0  0  0  0
  -15.3829   -9.0090   23.1105 N   0  0  0  0  0  0  0  0  0  0  0  0
  -15.5628   -9.8044   22.5590 H   0  0  0  0  0  0  0  0  0  0  0  0
  -17.4688   -6.9624   20.6995 C   0  0  0  0  0  0  0  0  0  0  0  0
  -19.7731   -8.6537   18.5459 O   0  0  0  0  0  0  0  0  0  0  0  0
  -19.0161   -8.4496   19.4537 C   0  0  0  0  0  0  0  0  0  0  0  0
  -18.7207   -9.3942   20.3351 N   0  0  0  0  0  0  0  0  0  0  0  0
  -19.3142  -10.7539   20.2132 C   0  0  0  0  0  0  0  0  0  0  0  0
  -18.3742   -7.1902   19.6668 C   0  0  0  0  0  0  0  0  0  0  0  0
  -17.2319   -7.9821   21.5959 C   0  0  0  0  0  0  0  0  0  0  0  0
  -17.8814   -9.2103   21.3462 C   0  0  0  0  0  0  0  0  0  0  0  0
  -13.4417  -10.0263   26.1269 C   0  0  0  0  0  0  0  0  0  0  0  0
  -14.3151   -9.1774   24.1327 C   0  0  0  0  0  0  0  0  0  0  0  0
  -13.2306   -8.5819   23.7800 C   0  0  0  0  0  0  0  0  0  0  0  0
  -12.1274   -8.7060   24.6263 C   0  0  0  0  0  0  0  0  0  0  0  0
  -12.2578   -9.4153   25.7792 C   0  0  0  0  0  0  0  0  0  0  0  0
  -14.4866   -9.9478   25.2526 C   0  0  0  0  0  0  0  0  0  0  0  0
  -10.9138   -7.9267   24.2101 C   0  0  0  0  0  0  0  0  0  0  0  0
  -10.7467   -7.4917   23.0745 O   0  0  0  0  0  0  0  0  0  0  0  0
  -10.0471   -7.6058   25.0485 O   0  0  0  0  0  0  0  0  0  0  0  0
  -11.3626   -7.6968   22.3988 H   0  0  0  0  0  0  0  0  0  0  0  0
 21 19  2  0  0  0
 19 20  1  0  0  0
 19 16  1  0  0  0
 16 17  2  0  0  0
 16 15  1  0  0  0
 17 13  1  0  0  0
 13 18  2  0  0  0
 15 14  2  0  0  0
 14 18  1  0  0  0
 14  3  1  0  0  0
  3  1  1  0  0  0
  9  8  1  0  0  0
 12  8  1  0  0  0
 12 11  2  0  0  0
  1  2  2  0  0  0
  1 11  1  0  0  0
  8  7  1  0  0  0
 11  5  1  0  0  0
  7  6  2  0  0  0
  7 10  1  0  0  0
  5 10  2  0  0  0
  3  4  1  0  0  0
 20 22  1  0  0  0
M  END
> <minimizedAffinity>
-7.00507

$$$$
5EP7_5QR_A_1201


 22 23  0  0  0  0  0  0  0  0999 V2000
  -15.5263   -8.8082   23.3953 C   0  0  0  0  0  0  0  0  0  0  0  0
  -15.6781   -7.6464   23.3893 O   0  0  0  0  0  0  0  0  0  0  0  0
  -14.6128   -9.5639   24.2342 N   0  0  0  0  0  0  0  0  0  0  0  0
  -14.7111  -10.5422   24.1838 H   0  0  0  0  0  0  0  0  0  0  0  0
  -16.6642  -11.0076   22.5646 C   0  0  0  0  0  0  0  0  0  0  0  0
  -19.2302  -11.4619   20.1115 O   0  0  0  0  0  0  0  0  0  0  0  0
  -18.4218  -10.9228   20.8149 C   0  0  0  0  0  0  0  0  0  0  0  0
  -18.2535   -9.6084   20.7953 N   0  0  0  0  0  0  0  0  0  0  0  0
  -19.0824   -8.7536   19.9020 C   0  0  0  0  0  0  0  0  0  0  0  0
  -17.5782  -11.6352   21.7228 C   0  0  0  0  0  0  0  0  0  0  0  0
  -16.5221   -9.6399   22.4691 C   0  0  0  0  0  0  0  0  0  0  0  0
  -17.3775   -8.9746   21.5645 C   0  0  0  0  0  0  0  0  0  0  0  0
  -12.5618   -8.8312   27.2605 C   0  0  0  0  0  0  0  0  0  0  0  0
  -13.5508   -9.0826   25.1584 C   0  0  0  0  0  0  0  0  0  0  0  0
  -12.5997   -8.5006   24.5168 C   0  0  0  0  0  0  0  0  0  0  0  0
  -11.5088   -8.0476   25.2607 C   0  0  0  0  0  0  0  0  0  0  0  0
  -11.5164   -8.2148   26.6103 C   0  0  0  0  0  0  0  0  0  0  0  0
  -13.5861   -9.3256   26.5063 C   0  0  0  0  0  0  0  0  0  0  0  0
  -10.4663   -7.3053   24.4762 C   0  0  0  0  0  0  0  0  0  0  0  0
   -9.6560   -6.5372   24.9864 O   0  0  0  0  0  0  0  0  0  0  0  0
  -10.3220   -7.5151   23.2546 O   0  0  0  0  0  0  0  0  0  0  0  0
   -9.7104   -6.3383   25.9004 H   0  0  0  0  0  0  0  0  0  0  0  0
 21 19  2  0  0  0
 19 20  1  0  0  0
 19 16  1  0  0  0
 16 17  2  0  0  0
 16 15  1  0  0  0
 17 13  1  0  0  0
 13 18  2  0  0  0
 15 14  2  0  0  0
 14 18  1  0  0  0
 14  3  1  0  0  0
  3  1  1  0  0  0
  9  8  1  0  0  0
 12  8  1  0  0  0
 12 11  2  0  0  0
  1  2  2  0  0  0
  1 11  1  0  0  0
  8  7  1  0  0  0
 11  5  1  0  0  0
  7  6  2  0  0  0
  7 10  1  0  0  0
  5 10  2  0  0  0
  3  4  1  0  0  0
 20 22  1  0  0  0
M  END
> <minimizedAffinity>
-6.85279

$$$$
5EP7_5QR_A_1201


 22 23  0  0  0  0  0  0  0  0999 V2000
  -15.5507   -9.1809   23.4224 C   0  0  0  0  0  0  0  0  0  0  0  0
  -15.7685   -8.0313   23.3589 O   0  0  0  0  0  0  0  0  0  0  0  0
  -14.5933   -9.8402   24.2931 N   0  0  0  0  0  0  0  0  0  0  0  0
  -14.6358  -10.8238   24.2923 H   0  0  0  0  0  0  0  0  0  0  0  0
  -17.3820   -9.6134   21.6110 C   0  0  0  0  0  0  0  0  0  0  0  0
  -18.6613  -12.7109   20.3554 O   0  0  0  0  0  0  0  0  0  0  0  0
  -18.0198  -11.9340   21.0062 C   0  0  0  0  0  0  0  0  0  0  0  0
  -17.1330  -12.3461   21.9006 N   0  0  0  0  0  0  0  0  0  0  0  0
  -16.8943  -13.7998   22.1140 C   0  0  0  0  0  0  0  0  0  0  0  0
  -18.1506  -10.5160   20.8813 C   0  0  0  0  0  0  0  0  0  0  0  0
  -16.4999  -10.1134   22.5446 C   0  0  0  0  0  0  0  0  0  0  0  0
  -16.3977  -11.5186   22.6323 C   0  0  0  0  0  0  0  0  0  0  0  0
  -12.6011   -8.8068   27.2705 C   0  0  0  0  0  0  0  0  0  0  0  0
  -13.5580   -9.2534   25.1859 C   0  0  0  0  0  0  0  0  0  0  0  0
  -12.6194   -8.6913   24.5091 C   0  0  0  0  0  0  0  0  0  0  0  0
  -11.5522   -8.1457   25.2248 C   0  0  0  0  0  0  0  0  0  0  0  0
  -11.5694   -8.2079   26.5832 C   0  0  0  0  0  0  0  0  0  0  0  0
  -13.6003   -9.3923   26.5484 C   0  0  0  0  0  0  0  0  0  0  0  0
  -10.5260   -7.4318   24.3938 C   0  0  0  0  0  0  0  0  0  0  0  0
  -10.4066   -7.5922   23.1826 O   0  0  0  0  0  0  0  0  0  0  0  0
   -9.7946   -6.5574   24.9013 O   0  0  0  0  0  0  0  0  0  0  0  0
  -10.9278   -8.2338   22.7414 H   0  0  0  0  0  0  0  0  0  0  0  0
 21 19  2  0  0  0
 19 20  1  0  0  0
 19 16  1  0  0  0
 16 17  2  0  0  0
 16 15  1  0  0  0
 17 13  1  0  0  0
 13 18  2  0  0  0
 15 14  2  0  0  0
 14 18  1  0  0  0
 14  3  1  0  0  0
  3  1  1  0  0  0
  9  8  1  0  0  0
 12  8  1  0  0  0
 12 11  2  0  0  0
  1  2  2  0  0  0
  1 11  1  0  0  0
  8  7  1  0  0  0
 11  5  1  0  0  0
  7  6  2  0  0  0
  7 10  1  0  0  0
  5 10  2  0  0  0
  3  4  1  0  0  0
 20 22  1  0  0  0
M  END
> <minimizedAffinity>
-6.78225

$$$$
5EP7_5QR_A_1201


 22 23  0  0  0  0  0  0  0  0999 V2000
  -16.0689   -7.7997   22.7285 C   0  0  0  0  0  0  0  0  0  0  0  0
  -16.0826   -6.7647   23.2778 O   0  0  0  0  0  0  0  0  0  0  0  0
  -15.2318   -8.9437   23.0445 N   0  0  0  0  0  0  0  0  0  0  0  0
  -15.4461   -9.7677   22.5504 H   0  0  0  0  0  0  0  0  0  0  0  0
  -17.5772   -6.9809   20.7596 C   0  0  0  0  0  0  0  0  0  0  0  0
  -19.8819   -8.8227   18.7336 O   0  0  0  0  0  0  0  0  0  0  0  0
  -19.0766   -8.5728   19.5869 C   0  0  0  0  0  0  0  0  0  0  0  0
  -18.6269   -9.5087   20.4103 N   0  0  0  0  0  0  0  0  0  0  0  0
  -19.1016  -10.9143   20.2884 C   0  0  0  0  0  0  0  0  0  0  0  0
  -18.5375   -7.2650   19.7925 C   0  0  0  0  0  0  0  0  0  0  0  0
  -17.1773   -7.9975   21.6000 C   0  0  0  0  0  0  0  0  0  0  0  0
  -17.7299   -9.2740   21.3595 C   0  0  0  0  0  0  0  0  0  0  0  0
  -11.9149   -8.6408   24.7204 C   0  0  0  0  0  0  0  0  0  0  0  0
  -14.0991   -9.0580   24.0024 C   0  0  0  0  0  0  0  0  0  0  0  0
  -14.4443   -9.7012   25.0617 C   0  0  0  0  0  0  0  0  0  0  0  0
  -13.4883   -9.8342   26.0703 C   0  0  0  0  0  0  0  0  0  0  0  0
  -12.2484   -9.3107   25.8761 C   0  0  0  0  0  0  0  0  0  0  0  0
  -12.8849   -8.4647   23.7767 C   0  0  0  0  0  0  0  0  0  0  0  0
  -13.9151  -10.6613   27.2480 C   0  0  0  0  0  0  0  0  0  0  0  0
  -13.1319  -11.3001   27.9447 O   0  0  0  0  0  0  0  0  0  0  0  0
  -15.1036  -10.6589   27.6282 O   0  0  0  0  0  0  0  0  0  0  0  0
  -12.2250  -11.3412   27.7129 H   0  0  0  0  0  0  0  0  0  0  0  0
 21 19  2  0  0  0
 19 20  1  0  0  0
 19 16  1  0  0  0
 16 17  2  0  0  0
 16 15  1  0  0  0
 17 13  1  0  0  0
 13 18  2  0  0  0
 15 14  2  0  0  0
 14 18  1  0  0  0
 14  3  1  0  0  0
  3  1  1  0  0  0
  9  8  1  0  0  0
 12  8  1  0  0  0
 12 11  2  0  0  0
  1  2  2  0  0  0
  1 11  1  0  0  0
  8  7  1  0  0  0
 11  5  1  0  0  0
  7  6  2  0  0  0
  7 10  1  0  0  0
  5 10  2  0  0  0
  3  4  1  0  0  0
 20 22  1  0  0  0
M  END
> <minimizedAffinity>
-6.55454

$$$$
5EP7_5QR_A_1201


 22 23  0  0  0  0  0  0  0  0999 V2000
  -13.8392  -10.0171   26.2574 C   0  0  0  0  0  0  0  0  0  0  0  0
  -14.7740   -9.4575   25.8260 O   0  0  0  0  0  0  0  0  0  0  0  0
  -12.4484   -9.7914   25.9050 N   0  0  0  0  0  0  0  0  0  0  0  0
  -11.7931  -10.2730   26.4599 H   0  0  0  0  0  0  0  0  0  0  0  0
  -15.1876  -10.8892   28.3173 C   0  0  0  0  0  0  0  0  0  0  0  0
  -14.7339  -13.8710   30.2437 O   0  0  0  0  0  0  0  0  0  0  0  0
  -14.5577  -13.0257   29.4111 C   0  0  0  0  0  0  0  0  0  0  0  0
  -13.5814  -13.1236   28.5204 N   0  0  0  0  0  0  0  0  0  0  0  0
  -12.6760  -14.3052   28.5182 C   0  0  0  0  0  0  0  0  0  0  0  0
  -15.3692  -11.8537   29.3046 C   0  0  0  0  0  0  0  0  0  0  0  0
  -14.1335  -11.0420   27.4424 C   0  0  0  0  0  0  0  0  0  0  0  0
  -13.3606  -12.2153   27.5787 C   0  0  0  0  0  0  0  0  0  0  0  0
  -11.6777   -8.1889   22.6279 C   0  0  0  0  0  0  0  0  0  0  0  0
  -11.8646   -8.9422   24.8320 C   0  0  0  0  0  0  0  0  0  0  0  0
  -10.9988   -8.1172   25.3062 C   0  0  0  0  0  0  0  0  0  0  0  0
  -10.4115   -7.2207   24.4116 C   0  0  0  0  0  0  0  0  0  0  0  0
  -10.7559   -7.2803   23.0974 C   0  0  0  0  0  0  0  0  0  0  0  0
  -12.2883   -9.0102   23.5308 C   0  0  0  0  0  0  0  0  0  0  0  0
   -9.3510   -6.3361   24.9997 C   0  0  0  0  0  0  0  0  0  0  0  0
   -8.7623   -6.5908   26.0464 O   0  0  0  0  0  0  0  0  0  0  0  0
   -8.9533   -5.3262   24.3841 O   0  0  0  0  0  0  0  0  0  0  0  0
   -9.0134   -7.3361   26.5557 H   0  0  0  0  0  0  0  0  0  0  0  0
 21 19  2  0  0  0
 19 20  1  0  0  0
 19 16  1  0  0  0
 16 17  2  0  0  0
 16 15  1  0  0  0
 17 13  1  0  0  0
 13 18  2  0  0  0
 15 14  2  0  0  0
 14 18  1  0  0  0
 14  3  1  0  0  0
  3  1  1  0  0  0
  9  8  1  0  0  0
 12  8  1  0  0  0
 12 11  2  0  0  0
  1  2  2  0  0  0
  1 11  1  0  0  0
  8  7  1  0  0  0
 11  5  1  0  0  0
  7  6  2  0  0  0
  7 10  1  0  0  0
  5 10  2  0  0  0
  3  4  1  0  0  0
 20 22  1  0  0  0
M  END
> <minimizedAffinity>
-6.47979

$$$$
5EP7_5QR_A_1201


 22 23  0  0  0  0  0  0  0  0999 V2000
  -14.7248   -8.7779   23.6304 C   0  0  0  0  0  0  0  0  0  0  0  0
  -15.1548   -7.6882   23.6579 O   0  0  0  0  0  0  0  0  0  0  0  0
  -13.4040   -9.2051   24.0575 N   0  0  0  0  0  0  0  0  0  0  0  0
  -13.2644  -10.1795   24.0727 H   0  0  0  0  0  0  0  0  0  0  0  0
  -15.5924  -11.2398   23.5388 C   0  0  0  0  0  0  0  0  0  0  0  0
  -18.5887  -12.5494   22.0843 O   0  0  0  0  0  0  0  0  0  0  0  0
  -17.7411  -11.7678   22.4155 C   0  0  0  0  0  0  0  0  0  0  0  0
  -17.8453  -10.4755   22.1409 N   0  0  0  0  0  0  0  0  0  0  0  0
  -19.0367   -9.9497   21.4199 C   0  0  0  0  0  0  0  0  0  0  0  0
  -16.5598  -12.1506   23.1235 C   0  0  0  0  0  0  0  0  0  0  0  0
  -15.7523   -9.9153   23.1924 C   0  0  0  0  0  0  0  0  0  0  0  0
  -16.9347   -9.5791   22.4985 C   0  0  0  0  0  0  0  0  0  0  0  0
  -10.6269   -7.6675   26.0133 C   0  0  0  0  0  0  0  0  0  0  0  0
  -12.2302   -8.3922   24.4756 C   0  0  0  0  0  0  0  0  0  0  0  0
  -11.7621   -7.7054   23.4936 C   0  0  0  0  0  0  0  0  0  0  0  0
  -10.6223   -6.9366   23.7356 C   0  0  0  0  0  0  0  0  0  0  0  0
  -10.0863   -6.9281   24.9854 C   0  0  0  0  0  0  0  0  0  0  0  0
  -11.7007   -8.4633   25.7373 C   0  0  0  0  0  0  0  0  0  0  0  0
  -10.1655   -6.0931   22.5811 C   0  0  0  0  0  0  0  0  0  0  0  0
   -8.9875   -5.8231   22.3657 O   0  0  0  0  0  0  0  0  0  0  0  0
  -10.9798   -5.6981   21.7220 O   0  0  0  0  0  0  0  0  0  0  0  0
   -8.3266   -6.0918   22.9731 H   0  0  0  0  0  0  0  0  0  0  0  0
 21 19  2  0  0  0
 19 20  1  0  0  0
 19 16  1  0  0  0
 16 17  2  0  0  0
 16 15  1  0  0  0
 17 13  1  0  0  0
 13 18  2  0  0  0
 15 14  2  0  0  0
 14 18  1  0  0  0
 14  3  1  0  0  0
  3  1  1  0  0  0
  9  8  1  0  0  0
 12  8  1  0  0  0
 12 11  2  0  0  0
  1  2  2  0  0  0
  1 11  1  0  0  0
  8  7  1  0  0  0
 11  5  1  0  0  0
  7  6  2  0  0  0
  7 10  1  0  0  0
  5 10  2  0  0  0
  3  4  1  0  0  0
 20 22  1  0  0  0
M  END
> <minimizedAffinity>
-6.47542

$$$$
5EP7_5QR_A_1201


 22 23  0  0  0  0  0  0  0  0999 V2000
  -15.0614  -10.3827   24.6599 C   0  0  0  0  0  0  0  0  0  0  0  0
  -15.3968  -11.1567   25.4732 O   0  0  0  0  0  0  0  0  0  0  0  0
  -15.7602  -10.0513   23.4306 N   0  0  0  0  0  0  0  0  0  0  0  0
  -15.3877   -9.2896   22.9303 H   0  0  0  0  0  0  0  0  0  0  0  0
  -13.3423   -9.3136   26.3104 C   0  0  0  0  0  0  0  0  0  0  0  0
  -10.3683   -7.4485   25.6140 O   0  0  0  0  0  0  0  0  0  0  0  0
  -11.3815   -8.0666   25.4399 C   0  0  0  0  0  0  0  0  0  0  0  0
  -11.8313   -8.3302   24.2215 N   0  0  0  0  0  0  0  0  0  0  0  0
  -11.0759   -7.8755   23.0221 C   0  0  0  0  0  0  0  0  0  0  0  0
  -12.1850   -8.5665   26.5113 C   0  0  0  0  0  0  0  0  0  0  0  0
  -13.7662   -9.5241   25.0159 C   0  0  0  0  0  0  0  0  0  0  0  0
  -12.9414   -9.0186   23.9879 C   0  0  0  0  0  0  0  0  0  0  0  0
  -19.1955  -10.7391   22.1550 C   0  0  0  0  0  0  0  0  0  0  0  0
  -16.9539  -10.6895   22.8133 C   0  0  0  0  0  0  0  0  0  0  0  0
  -16.6653  -11.8398   22.3147 C   0  0  0  0  0  0  0  0  0  0  0  0
  -17.6860  -12.5260   21.6545 C   0  0  0  0  0  0  0  0  0  0  0  0
  -18.9246  -11.9677   21.5956 C   0  0  0  0  0  0  0  0  0  0  0  0
  -18.1667  -10.0566   22.7367 C   0  0  0  0  0  0  0  0  0  0  0  0
  -17.3188  -13.8960   21.1629 C   0  0  0  0  0  0  0  0  0  0  0  0
  -16.8414  -14.1102   20.0525 O   0  0  0  0  0  0  0  0  0  0  0  0
  -17.4034  -14.8855   21.9185 O   0  0  0  0  0  0  0  0  0  0  0  0
  -16.7508  -13.4084   19.4382 H   0  0  0  0  0  0  0  0  0  0  0  0
 21 19  2  0  0  0
 19 20  1  0  0  0
 19 16  1  0  0  0
 16 17  2  0  0  0
 16 15  1  0  0  0
 17 13  1  0  0  0
 13 18  2  0  0  0
 15 14  2  0  0  0
 14 18  1  0  0  0
 14  3  1  0  0  0
  3  1  1  0  0  0
  9  8  1  0  0  0
 12  8  1  0  0  0
 12 11  2  0  0  0
  1  2  2  0  0  0
  1 11  1  0  0  0
  8  7  1  0  0  0
 11  5  1  0  0  0
  7  6  2  0  0  0
  7 10  1  0  0  0
  5 10  2  0  0  0
  3  4  1  0  0  0
 20 22  1  0  0  0
M  END
> <minimizedAffinity>
-6.37728

$$$$
5EP7_5QR_A_1201


 22 23  0  0  0  0  0  0  0  0999 V2000
  -16.3930   -9.5806   22.9342 C   0  0  0  0  0  0  0  0  0  0  0  0
  -16.7409   -8.4957   23.2083 O   0  0  0  0  0  0  0  0  0  0  0  0
  -15.3397  -10.3470   23.5765 N   0  0  0  0  0  0  0  0  0  0  0  0
  -15.2712  -11.2861   23.2889 H   0  0  0  0  0  0  0  0  0  0  0  0
  -18.1677   -9.6656   21.0197 C   0  0  0  0  0  0  0  0  0  0  0  0
  -19.1928  -12.4225   18.9808 O   0  0  0  0  0  0  0  0  0  0  0  0
  -18.6193  -11.7939   19.8263 C   0  0  0  0  0  0  0  0  0  0  0  0
  -17.7123  -12.3564   20.6120 N   0  0  0  0  0  0  0  0  0  0  0  0
  -17.3647  -13.7953   20.4554 C   0  0  0  0  0  0  0  0  0  0  0  0
  -18.8574  -10.4043   20.0623 C   0  0  0  0  0  0  0  0  0  0  0  0
  -17.2591  -10.3232   21.8208 C   0  0  0  0  0  0  0  0  0  0  0  0
  -17.0501  -11.6930   21.5512 C   0  0  0  0  0  0  0  0  0  0  0  0
  -13.5171   -9.8080   26.7842 C   0  0  0  0  0  0  0  0  0  0  0  0
  -14.3488   -9.9271   24.6037 C   0  0  0  0  0  0  0  0  0  0  0  0
  -13.3533   -9.3110   24.0703 C   0  0  0  0  0  0  0  0  0  0  0  0
  -12.3203   -8.9085   24.9186 C   0  0  0  0  0  0  0  0  0  0  0  0
  -12.4270   -9.1574   26.2512 C   0  0  0  0  0  0  0  0  0  0  0  0
  -14.4830  -10.2515   25.9281 C   0  0  0  0  0  0  0  0  0  0  0  0
  -11.2233   -8.1241   24.2594 C   0  0  0  0  0  0  0  0  0  0  0  0
  -11.2697   -7.7468   23.0922 O   0  0  0  0  0  0  0  0  0  0  0  0
  -10.2354   -7.7380   24.9168 O   0  0  0  0  0  0  0  0  0  0  0  0
  -11.9862   -8.0025   22.5452 H   0  0  0  0  0  0  0  0  0  0  0  0
 21 19  2  0  0  0
 19 20  1  0  0  0
 19 16  1  0  0  0
 16 17  2  0  0  0
 16 15  1  0  0  0
 17 13  1  0  0  0
 13 18  2  0  0  0
 15 14  2  0  0  0
 14 18  1  0  0  0
 14  3  1  0  0  0
  3  1  1  0  0  0
  9  8  1  0  0  0
 12  8  1  0  0  0
 12 11  2  0  0  0
  1  2  2  0  0  0
  1 11  1  0  0  0
  8  7  1  0  0  0
 11  5  1  0  0  0
  7  6  2  0  0  0
  7 10  1  0  0  0
  5 10  2  0  0  0
  3  4  1  0  0  0
 20 22  1  0  0  0
M  END
> <minimizedAffinity>
-6.33234

$$$$
