2PQZ_G0G_A_2501


 40 44  0  0  0  0  0  0  0  0999 V2000
   12.2393  -20.3815  -18.2041 C   0  0  0  0  0  0  0  0  0  0  0  0
   13.4664  -19.6644  -18.8357 C   0  0  0  0  0  0  0  0  0  0  0  0
   13.5201  -18.2801  -18.3145 N   0  0  0  0  0  0  0  0  0  0  0  0
   12.1848  -17.9470  -17.7365 C   0  0  0  0  0  0  0  0  0  0  0  0
   11.5754  -19.2819  -17.2629 C   0  0  0  0  0  0  0  0  0  0  0  0
   13.7391  -17.6340  -19.0728 H   0  0  0  0  0  0  0  0  0  0  0  0
   11.3921  -20.9922  -19.2565 N   0  0  0  0  0  0  0  0  0  0  0  0
   10.7141  -22.9949  -17.7112 O   0  0  0  0  0  0  0  0  0  0  0  0
   10.9265  -22.6572  -19.1031 S   0  0  0  0  0  0  0  0  0  0  0  0
    9.8944  -22.9195  -20.1200 O   0  0  0  0  0  0  0  0  0  0  0  0
   12.4568  -23.3209  -19.7257 C   0  0  0  0  0  0  0  0  0  0  0  0
   12.8333  -23.0474  -21.0746 C   0  0  0  0  0  0  0  0  0  0  0  0
   14.0480  -23.6064  -21.6103 C   0  0  0  0  0  0  0  0  0  0  0  0
   14.8669  -24.4090  -20.7733 C   0  0  0  0  0  0  0  0  0  0  0  0
   14.4947  -24.6633  -19.4140 C   0  0  0  0  0  0  0  0  0  0  0  0
   13.3045  -24.0939  -18.8920 C   0  0  0  0  0  0  0  0  0  0  0  0
   10.9748  -20.2942  -20.4893 C   0  0  0  0  0  0  0  0  0  0  0  0
    9.6785  -19.4947  -20.4088 C   0  0  0  0  0  0  0  0  0  0  0  0
    8.7785  -19.6255  -19.3158 C   0  0  0  0  0  0  0  0  0  0  0  0
    7.5663  -18.8855  -19.2777 C   0  0  0  0  0  0  0  0  0  0  0  0
    7.2620  -17.9747  -20.3274 C   0  0  0  0  0  0  0  0  0  0  0  0
    8.1514  -17.8526  -21.4280 C   0  0  0  0  0  0  0  0  0  0  0  0
    9.3706  -18.5667  -21.4419 C   0  0  0  0  0  0  0  0  0  0  0  0
   12.0380  -19.6798  -15.8609 N   0  0  0  0  0  0  0  0  0  0  0  0
   11.9355  -18.4463  -14.7090 S   0  0  0  0  0  0  0  0  0  0  0  0
   12.3215  -18.9370  -13.3806 O   0  0  0  0  0  0  0  0  0  0  0  0
   12.6528  -17.2663  -15.2375 O   0  0  0  0  0  0  0  0  0  0  0  0
   10.3178  -17.7919  -14.7096 C   0  0  0  0  0  0  0  0  0  0  0  0
   10.1607  -16.3685  -14.6583 C   0  0  0  0  0  0  0  0  0  0  0  0
    8.8721  -15.7745  -14.6855 C   0  0  0  0  0  0  0  0  0  0  0  0
    7.7368  -16.6056  -14.7257 C   0  0  0  0  0  0  0  0  0  0  0  0
    7.8962  -18.0209  -14.7897 C   0  0  0  0  0  0  0  0  0  0  0  0
    9.1786  -18.6330  -14.7601 C   0  0  0  0  0  0  0  0  0  0  0  0
   12.4958  -21.0297  -15.4093 C   0  0  0  0  0  0  0  0  0  0  0  0
   14.0259  -21.1645  -15.3105 C   0  0  0  0  0  0  0  0  0  0  0  0
   14.8587  -20.0280  -15.4691 C   0  0  0  0  0  0  0  0  0  0  0  0
   16.2679  -20.2169  -15.3762 C   0  0  0  0  0  0  0  0  0  0  0  0
   16.8326  -21.4887  -15.0792 C   0  0  0  0  0  0  0  0  0  0  0  0
   16.0033  -22.6508  -14.9834 C   0  0  0  0  0  0  0  0  0  0  0  0
   14.6014  -22.4415  -15.0308 C   0  0  0  0  0  0  0  0  0  0  0  0
  8  9  2  0  0  0
  9 11  1  0  0  0
  9 10  2  0  0  0
  9  7  1  0  0  0
  7 17  1  0  0  0
  7  1  1  0  0  0
 17 18  1  0  0  0
 18 23  1  0  0  0
 18 19  2  0  0  0
 19 20  1  0  0  0
 20 21  2  0  0  0
 21 22  1  0  0  0
 22 23  2  0  0  0
  1  2  1  0  0  0
  1  5  1  0  0  0
  2  3  1  0  0  0
  3  4  1  0  0  0
  4  5  1  0  0  0
  5 24  1  0  0  0
 24 34  1  0  0  0
 24 25  1  0  0  0
 25 26  2  0  0  0
 25 28  1  0  0  0
 25 27  2  0  0  0
 28 29  1  0  0  0
 28 33  2  0  0  0
 29 30  2  0  0  0
 30 31  1  0  0  0
 31 32  2  0  0  0
 32 33  1  0  0  0
 34 35  1  0  0  0
 35 40  1  0  0  0
 35 36  2  0  0  0
 36 37  1  0  0  0
 37 38  2  0  0  0
 38 39  1  0  0  0
 39 40  2  0  0  0
 11 16  1  0  0  0
 11 12  2  0  0  0
 12 13  1  0  0  0
 13 14  2  0  0  0
 14 15  1  0  0  0
 15 16  2  0  0  0
  3  6  1  0  0  0
M  END
> <minimizedAffinity>
-11.40333

$$$$
2PQZ_G0G_A_2501


 40 44  0  0  0  0  0  0  0  0999 V2000
   12.8045  -20.8985  -18.2738 C   0  0  0  0  0  0  0  0  0  0  0  0
   14.1448  -20.3254  -18.8161 C   0  0  0  0  0  0  0  0  0  0  0  0
   14.2214  -18.8916  -18.4566 N   0  0  0  0  0  0  0  0  0  0  0  0
   12.8481  -18.4252  -18.1034 C   0  0  0  0  0  0  0  0  0  0  0  0
   12.0995  -19.6602  -17.5631 C   0  0  0  0  0  0  0  0  0  0  0  0
   14.5750  -18.3554  -19.2489 H   0  0  0  0  0  0  0  0  0  0  0  0
   12.0591  -21.5925  -19.3513 N   0  0  0  0  0  0  0  0  0  0  0  0
    9.9948  -23.0693  -19.9967 O   0  0  0  0  0  0  0  0  0  0  0  0
   10.3965  -22.0158  -19.0883 S   0  0  0  0  0  0  0  0  0  0  0  0
   10.2011  -22.1435  -17.6344 O   0  0  0  0  0  0  0  0  0  0  0  0
    9.7387  -20.4325  -19.5686 C   0  0  0  0  0  0  0  0  0  0  0  0
    8.7683  -19.8026  -18.7334 C   0  0  0  0  0  0  0  0  0  0  0  0
    8.1947  -18.5398  -19.1225 C   0  0  0  0  0  0  0  0  0  0  0  0
    8.6241  -17.9288  -20.3297 C   0  0  0  0  0  0  0  0  0  0  0  0
    9.6138  -18.5554  -21.1538 C   0  0  0  0  0  0  0  0  0  0  0  0
   10.1840  -19.7910  -20.7524 C   0  0  0  0  0  0  0  0  0  0  0  0
   12.6644  -22.0287  -20.6258 C   0  0  0  0  0  0  0  0  0  0  0  0
   13.6008  -23.2304  -20.5543 C   0  0  0  0  0  0  0  0  0  0  0  0
   13.5819  -24.1370  -19.4590 C   0  0  0  0  0  0  0  0  0  0  0  0
   14.4815  -25.2353  -19.4070 C   0  0  0  0  0  0  0  0  0  0  0  0
   15.3907  -25.4545  -20.4791 C   0  0  0  0  0  0  0  0  0  0  0  0
   15.4227  -24.5425  -21.5672 C   0  0  0  0  0  0  0  0  0  0  0  0
   14.5021  -23.4723  -21.6278 C   0  0  0  0  0  0  0  0  0  0  0  0
   12.3555  -19.9040  -16.0754 N   0  0  0  0  0  0  0  0  0  0  0  0
   12.0372  -18.5755  -15.0791 S   0  0  0  0  0  0  0  0  0  0  0  0
   12.3147  -18.8965  -13.6740 O   0  0  0  0  0  0  0  0  0  0  0  0
   12.7158  -17.3965  -15.6585 O   0  0  0  0  0  0  0  0  0  0  0  0
   10.3841  -18.0665  -15.3099 C   0  0  0  0  0  0  0  0  0  0  0  0
    9.3446  -18.8308  -14.6865 C   0  0  0  0  0  0  0  0  0  0  0  0
    7.9830  -18.4510  -14.8125 C   0  0  0  0  0  0  0  0  0  0  0  0
    7.6563  -17.3271  -15.5944 C   0  0  0  0  0  0  0  0  0  0  0  0
    8.6933  -16.5609  -16.2028 C   0  0  0  0  0  0  0  0  0  0  0  0
   10.0617  -16.9284  -16.0900 C   0  0  0  0  0  0  0  0  0  0  0  0
   12.7837  -21.1829  -15.4297 C   0  0  0  0  0  0  0  0  0  0  0  0
   14.3086  -21.3151  -15.2670 C   0  0  0  0  0  0  0  0  0  0  0  0
   15.1395  -20.1679  -15.3289 C   0  0  0  0  0  0  0  0  0  0  0  0
   16.5443  -20.3544  -15.1803 C   0  0  0  0  0  0  0  0  0  0  0  0
   17.1038  -21.6370  -14.9223 C   0  0  0  0  0  0  0  0  0  0  0  0
   16.2795  -22.8065  -14.9241 C   0  0  0  0  0  0  0  0  0  0  0  0
   14.8797  -22.6018  -15.0259 C   0  0  0  0  0  0  0  0  0  0  0  0
  8  9  2  0  0  0
  9 11  1  0  0  0
  9 10  2  0  0  0
  9  7  1  0  0  0
  7 17  1  0  0  0
  7  1  1  0  0  0
 17 18  1  0  0  0
 18 23  1  0  0  0
 18 19  2  0  0  0
 19 20  1  0  0  0
 20 21  2  0  0  0
 21 22  1  0  0  0
 22 23  2  0  0  0
  1  2  1  0  0  0
  1  5  1  0  0  0
  2  3  1  0  0  0
  3  4  1  0  0  0
  4  5  1  0  0  0
  5 24  1  0  0  0
 24 34  1  0  0  0
 24 25  1  0  0  0
 25 26  2  0  0  0
 25 28  1  0  0  0
 25 27  2  0  0  0
 28 29  1  0  0  0
 28 33  2  0  0  0
 29 30  2  0  0  0
 30 31  1  0  0  0
 31 32  2  0  0  0
 32 33  1  0  0  0
 34 35  1  0  0  0
 35 40  1  0  0  0
 35 36  2  0  0  0
 36 37  1  0  0  0
 37 38  2  0  0  0
 38 39  1  0  0  0
 39 40  2  0  0  0
 11 16  1  0  0  0
 11 12  2  0  0  0
 12 13  1  0  0  0
 13 14  2  0  0  0
 14 15  1  0  0  0
 15 16  2  0  0  0
  3  6  1  0  0  0
M  END
> <minimizedAffinity>
-11.04688

$$$$
2PQZ_G0G_A_2501


 40 44  0  0  0  0  0  0  0  0999 V2000
   11.7975  -19.3221  -17.1883 C   0  0  0  0  0  0  0  0  0  0  0  0
   12.0428  -17.8532  -17.6370 C   0  0  0  0  0  0  0  0  0  0  0  0
   13.0272  -17.8587  -18.7423 N   0  0  0  0  0  0  0  0  0  0  0  0
   13.7307  -19.1752  -18.7340 C   0  0  0  0  0  0  0  0  0  0  0  0
   12.7365  -20.1910  -18.1363 C   0  0  0  0  0  0  0  0  0  0  0  0
   13.7020  -17.1058  -18.6074 H   0  0  0  0  0  0  0  0  0  0  0  0
   11.9796  -19.4582  -15.7232 N   0  0  0  0  0  0  0  0  0  0  0  0
   12.1637  -18.3730  -13.3468 O   0  0  0  0  0  0  0  0  0  0  0  0
   11.8625  -18.0437  -14.7242 S   0  0  0  0  0  0  0  0  0  0  0  0
   12.5663  -16.9546  -15.4218 O   0  0  0  0  0  0  0  0  0  0  0  0
   10.1192  -17.7934  -14.9856 C   0  0  0  0  0  0  0  0  0  0  0  0
    9.6768  -16.5838  -15.5998 C   0  0  0  0  0  0  0  0  0  0  0  0
    8.2686  -16.3441  -15.7855 C   0  0  0  0  0  0  0  0  0  0  0  0
    7.3388  -17.3331  -15.3701 C   0  0  0  0  0  0  0  0  0  0  0  0
    7.7894  -18.5544  -14.7731 C   0  0  0  0  0  0  0  0  0  0  0  0
    9.1796  -18.7870  -14.6102 C   0  0  0  0  0  0  0  0  0  0  0  0
   12.3394  -20.7222  -15.0494 C   0  0  0  0  0  0  0  0  0  0  0  0
   13.8252  -21.0630  -14.9984 C   0  0  0  0  0  0  0  0  0  0  0  0
   14.8310  -20.0909  -15.2534 C   0  0  0  0  0  0  0  0  0  0  0  0
   16.2075  -20.4414  -15.2220 C   0  0  0  0  0  0  0  0  0  0  0  0
   16.5896  -21.7728  -14.8972 C   0  0  0  0  0  0  0  0  0  0  0  0
   15.5873  -22.7498  -14.6568 C   0  0  0  0  0  0  0  0  0  0  0  0
   14.2221  -22.3855  -14.6568 C   0  0  0  0  0  0  0  0  0  0  0  0
   11.7718  -20.7587  -19.1780 N   0  0  0  0  0  0  0  0  0  0  0  0
   11.3736  -22.3868  -18.9556 S   0  0  0  0  0  0  0  0  0  0  0  0
   11.1232  -22.6757  -17.5385 O   0  0  0  0  0  0  0  0  0  0  0  0
   10.3104  -22.7337  -19.9228 O   0  0  0  0  0  0  0  0  0  0  0  0
   12.6513  -23.3848  -19.6010 C   0  0  0  0  0  0  0  0  0  0  0  0
   13.0800  -23.1524  -20.9485 C   0  0  0  0  0  0  0  0  0  0  0  0
   14.1342  -23.9110  -21.5206 C   0  0  0  0  0  0  0  0  0  0  0  0
   14.7357  -24.9295  -20.7577 C   0  0  0  0  0  0  0  0  0  0  0  0
   14.3162  -25.1500  -19.4131 C   0  0  0  0  0  0  0  0  0  0  0  0
   13.2601  -24.4022  -18.8251 C   0  0  0  0  0  0  0  0  0  0  0  0
   11.1161  -20.0196  -20.3004 C   0  0  0  0  0  0  0  0  0  0  0  0
    9.8145  -19.3049  -19.8952 C   0  0  0  0  0  0  0  0  0  0  0  0
    9.0254  -19.8009  -18.8269 C   0  0  0  0  0  0  0  0  0  0  0  0
    7.8265  -19.1019  -18.5041 C   0  0  0  0  0  0  0  0  0  0  0  0
    7.4496  -17.9117  -19.1867 C   0  0  0  0  0  0  0  0  0  0  0  0
    8.2054  -17.4429  -20.3076 C   0  0  0  0  0  0  0  0  0  0  0  0
    9.4198  -18.1197  -20.5878 C   0  0  0  0  0  0  0  0  0  0  0  0
  8  9  2  0  0  0
  9 11  1  0  0  0
  9 10  2  0  0  0
  9  7  1  0  0  0
  7 17  1  0  0  0
  7  1  1  0  0  0
 17 18  1  0  0  0
 18 23  1  0  0  0
 18 19  2  0  0  0
 19 20  1  0  0  0
 20 21  2  0  0  0
 21 22  1  0  0  0
 22 23  2  0  0  0
  1  2  1  0  0  0
  1  5  1  0  0  0
  2  3  1  0  0  0
  3  4  1  0  0  0
  4  5  1  0  0  0
  5 24  1  0  0  0
 24 34  1  0  0  0
 24 25  1  0  0  0
 25 26  2  0  0  0
 25 28  1  0  0  0
 25 27  2  0  0  0
 28 29  1  0  0  0
 28 33  2  0  0  0
 29 30  2  0  0  0
 30 31  1  0  0  0
 31 32  2  0  0  0
 32 33  1  0  0  0
 34 35  1  0  0  0
 35 40  1  0  0  0
 35 36  2  0  0  0
 36 37  1  0  0  0
 37 38  2  0  0  0
 38 39  1  0  0  0
 39 40  2  0  0  0
 11 16  1  0  0  0
 11 12  2  0  0  0
 12 13  1  0  0  0
 13 14  2  0  0  0
 14 15  1  0  0  0
 15 16  2  0  0  0
  3  6  1  0  0  0
M  END
> <minimizedAffinity>
-10.41630

$$$$
2PQZ_G0G_A_2501


 40 44  0  0  0  0  0  0  0  0999 V2000
   11.2949  -18.9228  -16.8407 C   0  0  0  0  0  0  0  0  0  0  0  0
   11.8354  -17.5667  -16.3042 C   0  0  0  0  0  0  0  0  0  0  0  0
   12.9124  -17.8444  -15.3276 N   0  0  0  0  0  0  0  0  0  0  0  0
   12.7973  -19.2696  -14.8988 C   0  0  0  0  0  0  0  0  0  0  0  0
   12.1578  -20.0247  -16.0813 C   0  0  0  0  0  0  0  0  0  0  0  0
   12.8116  -17.2313  -14.5187 H   0  0  0  0  0  0  0  0  0  0  0  0
    9.8198  -18.9873  -16.7062 N   0  0  0  0  0  0  0  0  0  0  0  0
    8.3280  -19.1940  -14.5636 O   0  0  0  0  0  0  0  0  0  0  0  0
    9.0633  -18.2214  -15.3447 S   0  0  0  0  0  0  0  0  0  0  0  0
   10.0670  -17.3418  -14.7226 O   0  0  0  0  0  0  0  0  0  0  0  0
    7.9836  -17.1852  -16.3093 C   0  0  0  0  0  0  0  0  0  0  0  0
    6.5720  -17.3091  -16.1421 C   0  0  0  0  0  0  0  0  0  0  0  0
    5.6796  -16.5080  -16.9401 C   0  0  0  0  0  0  0  0  0  0  0  0
    6.2251  -15.5861  -17.8716 C   0  0  0  0  0  0  0  0  0  0  0  0
    7.6431  -15.4509  -18.0206 C   0  0  0  0  0  0  0  0  0  0  0  0
    8.5128  -16.2332  -17.2175 C   0  0  0  0  0  0  0  0  0  0  0  0
    8.9389  -19.7390  -17.6226 C   0  0  0  0  0  0  0  0  0  0  0  0
    8.6441  -19.0835  -18.9679 C   0  0  0  0  0  0  0  0  0  0  0  0
    9.6796  -18.6007  -19.8144 C   0  0  0  0  0  0  0  0  0  0  0  0
    9.3754  -17.9732  -21.0522 C   0  0  0  0  0  0  0  0  0  0  0  0
    8.0204  -17.8559  -21.4699 C   0  0  0  0  0  0  0  0  0  0  0  0
    6.9830  -18.3234  -20.6201 C   0  0  0  0  0  0  0  0  0  0  0  0
    7.2953  -18.9763  -19.4066 C   0  0  0  0  0  0  0  0  0  0  0  0
   13.1830  -20.4644  -17.1271 N   0  0  0  0  0  0  0  0  0  0  0  0
   14.2836  -21.6294  -16.5882 S   0  0  0  0  0  0  0  0  0  0  0  0
   15.5699  -21.0134  -16.2411 O   0  0  0  0  0  0  0  0  0  0  0  0
   13.6147  -22.4461  -15.5529 O   0  0  0  0  0  0  0  0  0  0  0  0
   14.4669  -22.8579  -17.8138 C   0  0  0  0  0  0  0  0  0  0  0  0
   15.6803  -22.8820  -18.5756 C   0  0  0  0  0  0  0  0  0  0  0  0
   15.9012  -23.8740  -19.5661 C   0  0  0  0  0  0  0  0  0  0  0  0
   14.8919  -24.8210  -19.8224 C   0  0  0  0  0  0  0  0  0  0  0  0
   13.6910  -24.8028  -19.0542 C   0  0  0  0  0  0  0  0  0  0  0  0
   13.4515  -23.8149  -18.0607 C   0  0  0  0  0  0  0  0  0  0  0  0
   13.2629  -20.0261  -18.5545 C   0  0  0  0  0  0  0  0  0  0  0  0
   12.5957  -21.0014  -19.5408 C   0  0  0  0  0  0  0  0  0  0  0  0
   11.3001  -21.5140  -19.2782 C   0  0  0  0  0  0  0  0  0  0  0  0
   10.7382  -22.4200  -20.2235 C   0  0  0  0  0  0  0  0  0  0  0  0
   11.4204  -22.7649  -21.4236 C   0  0  0  0  0  0  0  0  0  0  0  0
   12.7536  -22.3039  -21.6633 C   0  0  0  0  0  0  0  0  0  0  0  0
   13.2819  -21.3668  -20.7390 C   0  0  0  0  0  0  0  0  0  0  0  0
  8  9  2  0  0  0
  9 11  1  0  0  0
  9 10  2  0  0  0
  9  7  1  0  0  0
  7 17  1  0  0  0
  7  1  1  0  0  0
 17 18  1  0  0  0
 18 23  1  0  0  0
 18 19  2  0  0  0
 19 20  1  0  0  0
 20 21  2  0  0  0
 21 22  1  0  0  0
 22 23  2  0  0  0
  1  2  1  0  0  0
  1  5  1  0  0  0
  2  3  1  0  0  0
  3  4  1  0  0  0
  4  5  1  0  0  0
  5 24  1  0  0  0
 24 34  1  0  0  0
 24 25  1  0  0  0
 25 26  2  0  0  0
 25 28  1  0  0  0
 25 27  2  0  0  0
 28 29  1  0  0  0
 28 33  2  0  0  0
 29 30  2  0  0  0
 30 31  1  0  0  0
 31 32  2  0  0  0
 32 33  1  0  0  0
 34 35  1  0  0  0
 35 40  1  0  0  0
 35 36  2  0  0  0
 36 37  1  0  0  0
 37 38  2  0  0  0
 38 39  1  0  0  0
 39 40  2  0  0  0
 11 16  1  0  0  0
 11 12  2  0  0  0
 12 13  1  0  0  0
 13 14  2  0  0  0
 14 15  1  0  0  0
 15 16  2  0  0  0
  3  6  1  0  0  0
M  END
> <minimizedAffinity>
-10.36455

$$$$
2PQZ_G0G_A_2501


 40 44  0  0  0  0  0  0  0  0999 V2000
   12.1817  -20.4625  -15.8594 C   0  0  0  0  0  0  0  0  0  0  0  0
   12.4929  -20.5977  -14.3416 C   0  0  0  0  0  0  0  0  0  0  0  0
   12.3947  -19.2573  -13.7215 N   0  0  0  0  0  0  0  0  0  0  0  0
   12.4623  -18.2349  -14.8070 C   0  0  0  0  0  0  0  0  0  0  0  0
   11.8940  -18.9107  -16.0711 C   0  0  0  0  0  0  0  0  0  0  0  0
   13.1675  -19.1208  -13.0700 H   0  0  0  0  0  0  0  0  0  0  0  0
   13.2570  -21.0823  -16.6705 N   0  0  0  0  0  0  0  0  0  0  0  0
   14.7617  -19.5228  -18.1411 O   0  0  0  0  0  0  0  0  0  0  0  0
   14.7546  -20.2297  -16.8774 S   0  0  0  0  0  0  0  0  0  0  0  0
   15.0429  -19.5358  -15.6111 O   0  0  0  0  0  0  0  0  0  0  0  0
   15.7766  -21.6869  -16.9213 C   0  0  0  0  0  0  0  0  0  0  0  0
   16.3118  -22.1954  -15.7001 C   0  0  0  0  0  0  0  0  0  0  0  0
   17.1724  -23.3504  -15.7172 C   0  0  0  0  0  0  0  0  0  0  0  0
   17.4582  -23.9806  -16.9567 C   0  0  0  0  0  0  0  0  0  0  0  0
   16.9016  -23.4785  -18.1769 C   0  0  0  0  0  0  0  0  0  0  0  0
   16.0419  -22.3502  -18.1463 C   0  0  0  0  0  0  0  0  0  0  0  0
   13.1127  -22.3615  -17.3944 C   0  0  0  0  0  0  0  0  0  0  0  0
   12.3680  -22.3064  -18.7243 C   0  0  0  0  0  0  0  0  0  0  0  0
   13.0296  -22.0083  -19.9471 C   0  0  0  0  0  0  0  0  0  0  0  0
   12.3070  -21.9408  -21.1685 C   0  0  0  0  0  0  0  0  0  0  0  0
   10.9098  -22.2087  -21.1779 C   0  0  0  0  0  0  0  0  0  0  0  0
   10.2432  -22.4919  -19.9562 C   0  0  0  0  0  0  0  0  0  0  0  0
   10.9745  -22.5904  -18.7512 C   0  0  0  0  0  0  0  0  0  0  0  0
   10.3688  -18.8336  -16.1490 N   0  0  0  0  0  0  0  0  0  0  0  0
    9.6773  -17.6035  -15.2177 S   0  0  0  0  0  0  0  0  0  0  0  0
    9.3574  -18.0850  -13.8686 O   0  0  0  0  0  0  0  0  0  0  0  0
   10.5374  -16.4060  -15.3306 O   0  0  0  0  0  0  0  0  0  0  0  0
    8.2634  -16.9890  -16.0351 C   0  0  0  0  0  0  0  0  0  0  0  0
    8.4519  -16.1069  -17.1486 C   0  0  0  0  0  0  0  0  0  0  0  0
    7.3428  -15.5972  -17.8725 C   0  0  0  0  0  0  0  0  0  0  0  0
    6.0413  -15.9392  -17.4596 C   0  0  0  0  0  0  0  0  0  0  0  0
    5.8568  -16.8273  -16.3596 C   0  0  0  0  0  0  0  0  0  0  0  0
    6.9556  -17.3446  -15.6213 C   0  0  0  0  0  0  0  0  0  0  0  0
    9.4634  -19.6723  -16.9933 C   0  0  0  0  0  0  0  0  0  0  0  0
    9.4171  -19.2410  -18.4701 C   0  0  0  0  0  0  0  0  0  0  0  0
   10.6127  -18.9269  -19.1643 C   0  0  0  0  0  0  0  0  0  0  0  0
   10.5054  -18.5250  -20.5272 C   0  0  0  0  0  0  0  0  0  0  0  0
    9.2513  -18.4892  -21.1983 C   0  0  0  0  0  0  0  0  0  0  0  0
    8.0356  -18.7407  -20.4868 C   0  0  0  0  0  0  0  0  0  0  0  0
    8.1599  -19.1848  -19.1457 C   0  0  0  0  0  0  0  0  0  0  0  0
  8  9  2  0  0  0
  9 11  1  0  0  0
  9 10  2  0  0  0
  9  7  1  0  0  0
  7 17  1  0  0  0
  7  1  1  0  0  0
 17 18  1  0  0  0
 18 23  1  0  0  0
 18 19  2  0  0  0
 19 20  1  0  0  0
 20 21  2  0  0  0
 21 22  1  0  0  0
 22 23  2  0  0  0
  1  2  1  0  0  0
  1  5  1  0  0  0
  2  3  1  0  0  0
  3  4  1  0  0  0
  4  5  1  0  0  0
  5 24  1  0  0  0
 24 34  1  0  0  0
 24 25  1  0  0  0
 25 26  2  0  0  0
 25 28  1  0  0  0
 25 27  2  0  0  0
 28 29  1  0  0  0
 28 33  2  0  0  0
 29 30  2  0  0  0
 30 31  1  0  0  0
 31 32  2  0  0  0
 32 33  1  0  0  0
 34 35  1  0  0  0
 35 40  1  0  0  0
 35 36  2  0  0  0
 36 37  1  0  0  0
 37 38  2  0  0  0
 38 39  1  0  0  0
 39 40  2  0  0  0
 11 16  1  0  0  0
 11 12  2  0  0  0
 12 13  1  0  0  0
 13 14  2  0  0  0
 14 15  1  0  0  0
 15 16  2  0  0  0
  3  6  1  0  0  0
M  END
> <minimizedAffinity>
-10.34975

$$$$
2PQZ_G0G_A_2501


 40 44  0  0  0  0  0  0  0  0999 V2000
    8.9608  -18.8536  -18.1389 C   0  0  0  0  0  0  0  0  0  0  0  0
    8.2582  -19.4147  -19.4080 C   0  0  0  0  0  0  0  0  0  0  0  0
    9.1942  -19.3051  -20.5494 N   0  0  0  0  0  0  0  0  0  0  0  0
   10.2665  -18.3339  -20.1818 C   0  0  0  0  0  0  0  0  0  0  0  0
   10.4003  -18.4006  -18.6471 C   0  0  0  0  0  0  0  0  0  0  0  0
    8.6951  -18.9725  -21.3744 H   0  0  0  0  0  0  0  0  0  0  0  0
    8.1098  -17.8352  -17.4778 N   0  0  0  0  0  0  0  0  0  0  0  0
    8.2482  -15.3557  -18.3096 O   0  0  0  0  0  0  0  0  0  0  0  0
    7.4384  -16.5499  -18.4316 S   0  0  0  0  0  0  0  0  0  0  0  0
    7.0990  -17.1127  -19.7492 O   0  0  0  0  0  0  0  0  0  0  0  0
    5.9214  -16.4257  -17.5079 C   0  0  0  0  0  0  0  0  0  0  0  0
    5.7389  -15.3240  -16.6196 C   0  0  0  0  0  0  0  0  0  0  0  0
    4.5356  -15.2247  -15.8338 C   0  0  0  0  0  0  0  0  0  0  0  0
    3.5349  -16.2217  -15.9740 C   0  0  0  0  0  0  0  0  0  0  0  0
    3.7143  -17.3142  -16.8825 C   0  0  0  0  0  0  0  0  0  0  0  0
    4.8962  -17.3930  -17.6635 C   0  0  0  0  0  0  0  0  0  0  0  0
    7.8533  -17.7906  -16.0241 C   0  0  0  0  0  0  0  0  0  0  0  0
    9.0430  -17.4382  -15.1372 C   0  0  0  0  0  0  0  0  0  0  0  0
    9.7252  -18.4188  -14.3659 C   0  0  0  0  0  0  0  0  0  0  0  0
   10.8162  -18.0588  -13.5302 C   0  0  0  0  0  0  0  0  0  0  0  0
   11.2573  -16.7068  -13.4884 C   0  0  0  0  0  0  0  0  0  0  0  0
   10.5688  -15.7222  -14.2458 C   0  0  0  0  0  0  0  0  0  0  0  0
    9.5065  -16.0939  -15.1002 C   0  0  0  0  0  0  0  0  0  0  0  0
   11.3196  -19.5301  -18.1812 N   0  0  0  0  0  0  0  0  0  0  0  0
   12.7925  -19.0158  -17.5294 S   0  0  0  0  0  0  0  0  0  0  0  0
   13.7782  -18.7737  -18.5896 O   0  0  0  0  0  0  0  0  0  0  0  0
   12.5147  -17.9099  -16.5881 O   0  0  0  0  0  0  0  0  0  0  0  0
   13.3586  -20.2017  -16.3812 C   0  0  0  0  0  0  0  0  0  0  0  0
   14.5127  -20.9799  -16.7215 C   0  0  0  0  0  0  0  0  0  0  0  0
   15.0389  -21.9395  -15.8178 C   0  0  0  0  0  0  0  0  0  0  0  0
   14.3882  -22.1488  -14.5874 C   0  0  0  0  0  0  0  0  0  0  0  0
   13.2479  -21.3641  -14.2459 C   0  0  0  0  0  0  0  0  0  0  0  0
   12.7054  -20.4012  -15.1397 C   0  0  0  0  0  0  0  0  0  0  0  0
   11.0242  -20.9959  -18.1858 C   0  0  0  0  0  0  0  0  0  0  0  0
   11.9314  -21.8082  -19.1273 C   0  0  0  0  0  0  0  0  0  0  0  0
   12.2319  -21.3273  -20.4267 C   0  0  0  0  0  0  0  0  0  0  0  0
   13.0698  -22.1278  -21.2558 C   0  0  0  0  0  0  0  0  0  0  0  0
   13.6386  -23.3454  -20.7881 C   0  0  0  0  0  0  0  0  0  0  0  0
   13.2874  -23.8688  -19.5036 C   0  0  0  0  0  0  0  0  0  0  0  0
   12.4915  -23.0406  -18.6717 C   0  0  0  0  0  0  0  0  0  0  0  0
  8  9  2  0  0  0
  9 11  1  0  0  0
  9 10  2  0  0  0
  9  7  1  0  0  0
  7 17  1  0  0  0
  7  1  1  0  0  0
 17 18  1  0  0  0
 18 23  1  0  0  0
 18 19  2  0  0  0
 19 20  1  0  0  0
 20 21  2  0  0  0
 21 22  1  0  0  0
 22 23  2  0  0  0
  1  2  1  0  0  0
  1  5  1  0  0  0
  2  3  1  0  0  0
  3  4  1  0  0  0
  4  5  1  0  0  0
  5 24  1  0  0  0
 24 34  1  0  0  0
 24 25  1  0  0  0
 25 26  2  0  0  0
 25 28  1  0  0  0
 25 27  2  0  0  0
 28 29  1  0  0  0
 28 33  2  0  0  0
 29 30  2  0  0  0
 30 31  1  0  0  0
 31 32  2  0  0  0
 32 33  1  0  0  0
 34 35  1  0  0  0
 35 40  1  0  0  0
 35 36  2  0  0  0
 36 37  1  0  0  0
 37 38  2  0  0  0
 38 39  1  0  0  0
 39 40  2  0  0  0
 11 16  1  0  0  0
 11 12  2  0  0  0
 12 13  1  0  0  0
 13 14  2  0  0  0
 14 15  1  0  0  0
 15 16  2  0  0  0
  3  6  1  0  0  0
M  END
> <minimizedAffinity>
-10.28185

$$$$
2PQZ_G0G_A_2501


 40 44  0  0  0  0  0  0  0  0999 V2000
   10.8669  -19.6749  -19.1976 C   0  0  0  0  0  0  0  0  0  0  0  0
   11.1464  -19.5926  -20.7254 C   0  0  0  0  0  0  0  0  0  0  0  0
    9.8497  -19.5343  -21.4369 N   0  0  0  0  0  0  0  0  0  0  0  0
    8.7832  -19.9996  -20.5019 C   0  0  0  0  0  0  0  0  0  0  0  0
    9.2788  -19.6625  -19.0813 C   0  0  0  0  0  0  0  0  0  0  0  0
    9.8784  -20.1402  -22.2570 H   0  0  0  0  0  0  0  0  0  0  0  0
   11.5946  -20.8171  -18.5942 N   0  0  0  0  0  0  0  0  0  0  0  0
   10.6651  -22.9192  -17.3388 O   0  0  0  0  0  0  0  0  0  0  0  0
   10.8899  -22.4014  -18.6721 S   0  0  0  0  0  0  0  0  0  0  0  0
    9.8046  -22.3503  -19.6660 O   0  0  0  0  0  0  0  0  0  0  0  0
   12.2877  -23.1718  -19.4612 C   0  0  0  0  0  0  0  0  0  0  0  0
   12.5748  -22.8579  -20.8233 C   0  0  0  0  0  0  0  0  0  0  0  0
   13.6777  -23.4990  -21.4925 C   0  0  0  0  0  0  0  0  0  0  0  0
   14.4792  -24.4236  -20.7729 C   0  0  0  0  0  0  0  0  0  0  0  0
   14.1990  -24.7193  -19.3999 C   0  0  0  0  0  0  0  0  0  0  0  0
   13.1204  -24.0696  -18.7460 C   0  0  0  0  0  0  0  0  0  0  0  0
   12.8621  -20.6873  -17.8476 C   0  0  0  0  0  0  0  0  0  0  0  0
   12.7576  -20.1483  -16.4246 C   0  0  0  0  0  0  0  0  0  0  0  0
   12.7168  -18.7542  -16.1475 C   0  0  0  0  0  0  0  0  0  0  0  0
   12.6425  -18.2791  -14.8107 C   0  0  0  0  0  0  0  0  0  0  0  0
   12.5726  -19.2072  -13.7346 C   0  0  0  0  0  0  0  0  0  0  0  0
   12.6283  -20.6000  -14.0068 C   0  0  0  0  0  0  0  0  0  0  0  0
   12.6681  -21.0647  -15.3405 C   0  0  0  0  0  0  0  0  0  0  0  0
    8.9583  -18.2258  -18.6676 N   0  0  0  0  0  0  0  0  0  0  0  0
    7.4575  -17.6576  -19.2002 S   0  0  0  0  0  0  0  0  0  0  0  0
    7.6095  -16.8170  -20.3938 O   0  0  0  0  0  0  0  0  0  0  0  0
    6.5370  -18.8114  -19.2887 O   0  0  0  0  0  0  0  0  0  0  0  0
    6.6744  -16.7962  -17.9004 C   0  0  0  0  0  0  0  0  0  0  0  0
    5.7789  -17.5205  -17.0478 C   0  0  0  0  0  0  0  0  0  0  0  0
    5.1342  -16.8831  -15.9559 C   0  0  0  0  0  0  0  0  0  0  0  0
    5.3552  -15.5101  -15.7382 C   0  0  0  0  0  0  0  0  0  0  0  0
    6.2566  -14.7949  -16.5800 C   0  0  0  0  0  0  0  0  0  0  0  0
    6.9083  -15.4162  -17.6798 C   0  0  0  0  0  0  0  0  0  0  0  0
    9.7887  -17.3257  -17.8094 C   0  0  0  0  0  0  0  0  0  0  0  0
    9.4683  -17.4320  -16.3077 C   0  0  0  0  0  0  0  0  0  0  0  0
    9.0685  -18.6702  -15.7445 C   0  0  0  0  0  0  0  0  0  0  0  0
    8.7765  -18.7043  -14.3503 C   0  0  0  0  0  0  0  0  0  0  0  0
    8.9302  -17.5539  -13.5271 C   0  0  0  0  0  0  0  0  0  0  0  0
    9.2691  -16.2871  -14.0996 C   0  0  0  0  0  0  0  0  0  0  0  0
    9.6026  -16.2771  -15.4780 C   0  0  0  0  0  0  0  0  0  0  0  0
  8  9  2  0  0  0
  9 11  1  0  0  0
  9 10  2  0  0  0
  9  7  1  0  0  0
  7 17  1  0  0  0
  7  1  1  0  0  0
 17 18  1  0  0  0
 18 23  1  0  0  0
 18 19  2  0  0  0
 19 20  1  0  0  0
 20 21  2  0  0  0
 21 22  1  0  0  0
 22 23  2  0  0  0
  1  2  1  0  0  0
  1  5  1  0  0  0
  2  3  1  0  0  0
  3  4  1  0  0  0
  4  5  1  0  0  0
  5 24  1  0  0  0
 24 34  1  0  0  0
 24 25  1  0  0  0
 25 26  2  0  0  0
 25 28  1  0  0  0
 25 27  2  0  0  0
 28 29  1  0  0  0
 28 33  2  0  0  0
 29 30  2  0  0  0
 30 31  1  0  0  0
 31 32  2  0  0  0
 32 33  1  0  0  0
 34 35  1  0  0  0
 35 40  1  0  0  0
 35 36  2  0  0  0
 36 37  1  0  0  0
 37 38  2  0  0  0
 38 39  1  0  0  0
 39 40  2  0  0  0
 11 16  1  0  0  0
 11 12  2  0  0  0
 12 13  1  0  0  0
 13 14  2  0  0  0
 14 15  1  0  0  0
 15 16  2  0  0  0
  3  6  1  0  0  0
M  END
> <minimizedAffinity>
-10.08691

$$$$
2PQZ_G0G_A_2501


 40 44  0  0  0  0  0  0  0  0999 V2000
   10.4023  -19.7671  -17.8470 C   0  0  0  0  0  0  0  0  0  0  0  0
    9.1482  -20.4881  -18.4183 C   0  0  0  0  0  0  0  0  0  0  0  0
    9.4805  -21.0135  -19.7615 N   0  0  0  0  0  0  0  0  0  0  0  0
   10.7057  -20.3124  -20.2468 C   0  0  0  0  0  0  0  0  0  0  0  0
   11.5032  -19.9177  -18.9876 C   0  0  0  0  0  0  0  0  0  0  0  0
    8.7061  -20.8387  -20.4020 H   0  0  0  0  0  0  0  0  0  0  0  0
   10.0575  -18.3973  -17.3966 N   0  0  0  0  0  0  0  0  0  0  0  0
    9.8402  -19.2684  -14.9363 O   0  0  0  0  0  0  0  0  0  0  0  0
   10.0316  -18.0507  -15.6960 S   0  0  0  0  0  0  0  0  0  0  0  0
   11.1569  -17.1433  -15.4162 O   0  0  0  0  0  0  0  0  0  0  0  0
    8.5559  -17.0558  -15.7466 C   0  0  0  0  0  0  0  0  0  0  0  0
    7.2916  -17.6792  -15.5250 C   0  0  0  0  0  0  0  0  0  0  0  0
    6.0821  -16.9003  -15.5997 C   0  0  0  0  0  0  0  0  0  0  0  0
    6.1715  -15.5103  -15.8736 C   0  0  0  0  0  0  0  0  0  0  0  0
    7.4445  -14.8858  -16.0747 C   0  0  0  0  0  0  0  0  0  0  0  0
    8.6303  -15.6594  -15.9824 C   0  0  0  0  0  0  0  0  0  0  0  0
    9.6491  -17.3072  -18.3054 C   0  0  0  0  0  0  0  0  0  0  0  0
    8.5457  -17.6370  -19.3053 C   0  0  0  0  0  0  0  0  0  0  0  0
    7.2247  -17.9612  -18.8908 C   0  0  0  0  0  0  0  0  0  0  0  0
    6.2219  -18.2871  -19.8429 C   0  0  0  0  0  0  0  0  0  0  0  0
    6.5300  -18.2558  -21.2315 C   0  0  0  0  0  0  0  0  0  0  0  0
    7.8522  -17.9473  -21.6483 C   0  0  0  0  0  0  0  0  0  0  0  0
    8.8347  -17.5914  -20.6973 C   0  0  0  0  0  0  0  0  0  0  0  0
   12.4002  -21.0459  -18.4769 N   0  0  0  0  0  0  0  0  0  0  0  0
   13.8283  -20.5287  -17.7339 S   0  0  0  0  0  0  0  0  0  0  0  0
   15.0038  -20.9766  -18.4902 O   0  0  0  0  0  0  0  0  0  0  0  0
   13.7024  -19.0814  -17.4589 O   0  0  0  0  0  0  0  0  0  0  0  0
   13.8620  -21.1067  -16.0877 C   0  0  0  0  0  0  0  0  0  0  0  0
   13.1203  -20.3828  -15.0982 C   0  0  0  0  0  0  0  0  0  0  0  0
   13.0845  -20.8192  -13.7482 C   0  0  0  0  0  0  0  0  0  0  0  0
   13.8221  -21.9596  -13.3785 C   0  0  0  0  0  0  0  0  0  0  0  0
   14.5487  -22.6853  -14.3674 C   0  0  0  0  0  0  0  0  0  0  0  0
   14.5984  -22.2611  -15.7231 C   0  0  0  0  0  0  0  0  0  0  0  0
   12.1148  -22.5133  -18.5112 C   0  0  0  0  0  0  0  0  0  0  0  0
   13.0405  -23.3031  -19.4538 C   0  0  0  0  0  0  0  0  0  0  0  0
   13.1764  -22.9216  -20.8126 C   0  0  0  0  0  0  0  0  0  0  0  0
   14.0409  -23.6966  -21.6386 C   0  0  0  0  0  0  0  0  0  0  0  0
   14.7923  -24.7866  -21.1171 C   0  0  0  0  0  0  0  0  0  0  0  0
   14.6103  -25.2175  -19.7649 C   0  0  0  0  0  0  0  0  0  0  0  0
   13.7842  -24.4099  -18.9422 C   0  0  0  0  0  0  0  0  0  0  0  0
  8  9  2  0  0  0
  9 11  1  0  0  0
  9 10  2  0  0  0
  9  7  1  0  0  0
  7 17  1  0  0  0
  7  1  1  0  0  0
 17 18  1  0  0  0
 18 23  1  0  0  0
 18 19  2  0  0  0
 19 20  1  0  0  0
 20 21  2  0  0  0
 21 22  1  0  0  0
 22 23  2  0  0  0
  1  2  1  0  0  0
  1  5  1  0  0  0
  2  3  1  0  0  0
  3  4  1  0  0  0
  4  5  1  0  0  0
  5 24  1  0  0  0
 24 34  1  0  0  0
 24 25  1  0  0  0
 25 26  2  0  0  0
 25 28  1  0  0  0
 25 27  2  0  0  0
 28 29  1  0  0  0
 28 33  2  0  0  0
 29 30  2  0  0  0
 30 31  1  0  0  0
 31 32  2  0  0  0
 32 33  1  0  0  0
 34 35  1  0  0  0
 35 40  1  0  0  0
 35 36  2  0  0  0
 36 37  1  0  0  0
 37 38  2  0  0  0
 38 39  1  0  0  0
 39 40  2  0  0  0
 11 16  1  0  0  0
 11 12  2  0  0  0
 12 13  1  0  0  0
 13 14  2  0  0  0
 14 15  1  0  0  0
 15 16  2  0  0  0
  3  6  1  0  0  0
M  END
> <minimizedAffinity>
-10.03987

$$$$
2PQZ_G0G_A_2501


 40 44  0  0  0  0  0  0  0  0999 V2000
   12.4761  -21.7098  -18.9325 C   0  0  0  0  0  0  0  0  0  0  0  0
   11.4940  -22.6368  -19.7040 C   0  0  0  0  0  0  0  0  0  0  0  0
   10.1463  -22.4904  -19.1097 N   0  0  0  0  0  0  0  0  0  0  0  0
   10.2961  -21.8671  -17.7616 C   0  0  0  0  0  0  0  0  0  0  0  0
   11.5740  -21.0067  -17.8245 C   0  0  0  0  0  0  0  0  0  0  0  0
    9.7073  -23.4067  -19.0196 H   0  0  0  0  0  0  0  0  0  0  0  0
   13.6631  -22.4715  -18.4752 N   0  0  0  0  0  0  0  0  0  0  0  0
   16.2687  -22.2086  -18.4475 O   0  0  0  0  0  0  0  0  0  0  0  0
   15.0616  -21.6027  -17.9256 S   0  0  0  0  0  0  0  0  0  0  0  0
   14.7858  -20.1677  -18.1069 O   0  0  0  0  0  0  0  0  0  0  0  0
   14.8228  -21.9686  -16.1995 C   0  0  0  0  0  0  0  0  0  0  0  0
   15.7563  -22.8195  -15.5357 C   0  0  0  0  0  0  0  0  0  0  0  0
   15.5607  -23.1595  -14.1496 C   0  0  0  0  0  0  0  0  0  0  0  0
   14.4451  -22.6204  -13.4568 C   0  0  0  0  0  0  0  0  0  0  0  0
   13.5228  -21.7502  -14.1225 C   0  0  0  0  0  0  0  0  0  0  0  0
   13.7344  -21.4088  -15.4833 C   0  0  0  0  0  0  0  0  0  0  0  0
   13.7717  -23.9433  -18.5303 C   0  0  0  0  0  0  0  0  0  0  0  0
   14.7704  -24.5114  -19.5334 C   0  0  0  0  0  0  0  0  0  0  0  0
   15.8299  -25.3729  -19.1371 C   0  0  0  0  0  0  0  0  0  0  0  0
   16.7601  -25.8692  -20.0895 C   0  0  0  0  0  0  0  0  0  0  0  0
   16.6123  -25.5305  -21.4634 C   0  0  0  0  0  0  0  0  0  0  0  0
   15.5643  -24.6582  -21.8604 C   0  0  0  0  0  0  0  0  0  0  0  0
   14.6237  -24.1962  -20.9126 C   0  0  0  0  0  0  0  0  0  0  0  0
   11.3211  -19.6116  -18.3969 N   0  0  0  0  0  0  0  0  0  0  0  0
   11.5069  -18.3504  -17.2862 S   0  0  0  0  0  0  0  0  0  0  0  0
   12.6455  -18.6014  -16.3947 O   0  0  0  0  0  0  0  0  0  0  0  0
   11.4926  -17.0756  -18.0352 O   0  0  0  0  0  0  0  0  0  0  0  0
   10.0215  -18.1468  -16.3933 C   0  0  0  0  0  0  0  0  0  0  0  0
    9.1681  -17.0479  -16.7358 C   0  0  0  0  0  0  0  0  0  0  0  0
    7.9331  -16.8460  -16.0663 C   0  0  0  0  0  0  0  0  0  0  0  0
    7.5678  -17.7218  -15.0268 C   0  0  0  0  0  0  0  0  0  0  0  0
    8.4125  -18.8219  -14.6968 C   0  0  0  0  0  0  0  0  0  0  0  0
    9.6540  -19.0375  -15.3543 C   0  0  0  0  0  0  0  0  0  0  0  0
   10.9997  -19.2608  -19.8145 C   0  0  0  0  0  0  0  0  0  0  0  0
    9.5192  -18.9090  -20.0458 C   0  0  0  0  0  0  0  0  0  0  0  0
    8.5191  -19.3984  -19.1680 C   0  0  0  0  0  0  0  0  0  0  0  0
    7.1652  -19.0464  -19.4386 C   0  0  0  0  0  0  0  0  0  0  0  0
    6.8190  -18.1870  -20.5185 C   0  0  0  0  0  0  0  0  0  0  0  0
    7.8141  -17.7435  -21.4460 C   0  0  0  0  0  0  0  0  0  0  0  0
    9.1616  -18.0616  -21.1386 C   0  0  0  0  0  0  0  0  0  0  0  0
  8  9  2  0  0  0
  9 11  1  0  0  0
  9 10  2  0  0  0
  9  7  1  0  0  0
  7 17  1  0  0  0
  7  1  1  0  0  0
 17 18  1  0  0  0
 18 23  1  0  0  0
 18 19  2  0  0  0
 19 20  1  0  0  0
 20 21  2  0  0  0
 21 22  1  0  0  0
 22 23  2  0  0  0
  1  2  1  0  0  0
  1  5  1  0  0  0
  2  3  1  0  0  0
  3  4  1  0  0  0
  4  5  1  0  0  0
  5 24  1  0  0  0
 24 34  1  0  0  0
 24 25  1  0  0  0
 25 26  2  0  0  0
 25 28  1  0  0  0
 25 27  2  0  0  0
 28 29  1  0  0  0
 28 33  2  0  0  0
 29 30  2  0  0  0
 30 31  1  0  0  0
 31 32  2  0  0  0
 32 33  1  0  0  0
 34 35  1  0  0  0
 35 40  1  0  0  0
 35 36  2  0  0  0
 36 37  1  0  0  0
 37 38  2  0  0  0
 38 39  1  0  0  0
 39 40  2  0  0  0
 11 16  1  0  0  0
 11 12  2  0  0  0
 12 13  1  0  0  0
 13 14  2  0  0  0
 14 15  1  0  0  0
 15 16  2  0  0  0
  3  6  1  0  0  0
M  END
> <minimizedAffinity>
-10.03802

$$$$
2PQZ_G0G_A_2501


 40 44  0  0  0  0  0  0  0  0999 V2000
   11.0065  -20.6896  -17.9666 C   0  0  0  0  0  0  0  0  0  0  0  0
    9.9122  -21.7112  -17.5448 C   0  0  0  0  0  0  0  0  0  0  0  0
   10.5765  -22.9731  -17.1485 N   0  0  0  0  0  0  0  0  0  0  0  0
   11.9668  -22.9591  -17.6917 C   0  0  0  0  0  0  0  0  0  0  0  0
   12.3788  -21.4760  -17.7822 C   0  0  0  0  0  0  0  0  0  0  0  0
   10.0643  -23.7679  -17.5312 H   0  0  0  0  0  0  0  0  0  0  0  0
   10.7076  -20.1267  -19.3052 N   0  0  0  0  0  0  0  0  0  0  0  0
   10.8224  -17.7453  -18.2216 O   0  0  0  0  0  0  0  0  0  0  0  0
   10.6314  -18.4033  -19.4971 S   0  0  0  0  0  0  0  0  0  0  0  0
   11.4536  -18.0556  -20.6680 O   0  0  0  0  0  0  0  0  0  0  0  0
    8.9301  -18.3645  -20.0208 C   0  0  0  0  0  0  0  0  0  0  0  0
    7.9085  -18.7032  -19.0840 C   0  0  0  0  0  0  0  0  0  0  0  0
    6.5285  -18.7156  -19.4972 C   0  0  0  0  0  0  0  0  0  0  0  0
    6.2048  -18.3672  -20.8347 C   0  0  0  0  0  0  0  0  0  0  0  0
    7.2325  -18.0080  -21.7652 C   0  0  0  0  0  0  0  0  0  0  0  0
    8.5868  -17.9830  -21.3428 C   0  0  0  0  0  0  0  0  0  0  0  0
   10.3852  -20.9444  -20.4920 C   0  0  0  0  0  0  0  0  0  0  0  0
   11.5301  -21.7606  -21.0831 C   0  0  0  0  0  0  0  0  0  0  0  0
   11.3009  -22.9356  -21.8503 C   0  0  0  0  0  0  0  0  0  0  0  0
   12.3871  -23.6899  -22.3697 C   0  0  0  0  0  0  0  0  0  0  0  0
   13.7217  -23.2480  -22.1513 C   0  0  0  0  0  0  0  0  0  0  0  0
   13.9548  -22.0832  -21.3728 C   0  0  0  0  0  0  0  0  0  0  0  0
   12.8685  -21.3203  -20.8885 C   0  0  0  0  0  0  0  0  0  0  0  0
   12.9316  -20.9333  -16.4639 N   0  0  0  0  0  0  0  0  0  0  0  0
   14.5286  -20.3836  -16.5430 S   0  0  0  0  0  0  0  0  0  0  0  0
   14.6664  -19.3173  -17.5420 O   0  0  0  0  0  0  0  0  0  0  0  0
   14.9809  -20.0933  -15.1655 O   0  0  0  0  0  0  0  0  0  0  0  0
   15.5838  -21.7301  -16.8873 C   0  0  0  0  0  0  0  0  0  0  0  0
   16.4189  -22.2257  -15.8335 C   0  0  0  0  0  0  0  0  0  0  0  0
   17.2770  -23.3365  -16.0428 C   0  0  0  0  0  0  0  0  0  0  0  0
   17.3290  -23.9295  -17.3183 C   0  0  0  0  0  0  0  0  0  0  0  0
   16.4877  -23.4428  -18.3613 C   0  0  0  0  0  0  0  0  0  0  0  0
   15.6248  -22.3296  -18.1706 C   0  0  0  0  0  0  0  0  0  0  0  0
   12.1986  -20.7858  -15.1689 C   0  0  0  0  0  0  0  0  0  0  0  0
   11.5816  -19.3911  -14.9611 C   0  0  0  0  0  0  0  0  0  0  0  0
   12.4138  -18.2566  -14.7854 C   0  0  0  0  0  0  0  0  0  0  0  0
   11.7847  -16.9935  -14.5883 C   0  0  0  0  0  0  0  0  0  0  0  0
   10.3692  -16.8515  -14.6198 C   0  0  0  0  0  0  0  0  0  0  0  0
    9.5230  -18.0000  -14.7306 C   0  0  0  0  0  0  0  0  0  0  0  0
   10.1611  -19.2431  -14.9732 C   0  0  0  0  0  0  0  0  0  0  0  0
  8  9  2  0  0  0
  9 11  1  0  0  0
  9 10  2  0  0  0
  9  7  1  0  0  0
  7 17  1  0  0  0
  7  1  1  0  0  0
 17 18  1  0  0  0
 18 23  1  0  0  0
 18 19  2  0  0  0
 19 20  1  0  0  0
 20 21  2  0  0  0
 21 22  1  0  0  0
 22 23  2  0  0  0
  1  2  1  0  0  0
  1  5  1  0  0  0
  2  3  1  0  0  0
  3  4  1  0  0  0
  4  5  1  0  0  0
  5 24  1  0  0  0
 24 34  1  0  0  0
 24 25  1  0  0  0
 25 26  2  0  0  0
 25 28  1  0  0  0
 25 27  2  0  0  0
 28 29  1  0  0  0
 28 33  2  0  0  0
 29 30  2  0  0  0
 30 31  1  0  0  0
 31 32  2  0  0  0
 32 33  1  0  0  0
 34 35  1  0  0  0
 35 40  1  0  0  0
 35 36  2  0  0  0
 36 37  1  0  0  0
 37 38  2  0  0  0
 38 39  1  0  0  0
 39 40  2  0  0  0
 11 16  1  0  0  0
 11 12  2  0  0  0
 12 13  1  0  0  0
 13 14  2  0  0  0
 14 15  1  0  0  0
 15 16  2  0  0  0
  3  6  1  0  0  0
M  END
> <minimizedAffinity>
-10.01816

$$$$
