2OT1_N3P_A_3001


 28 30  0  0  0  0  0  0  0  0999 V2000
   47.7969   40.1285   59.9813 C   0  0  0  0  0  0  0  0  0  0  0  0
   47.3853   41.4574   59.9390 C   0  0  0  0  0  0  0  0  0  0  0  0
   47.4275   39.2528   58.9638 C   0  0  0  0  0  0  0  0  0  0  0  0
   46.6016   41.9115   58.8828 C   0  0  0  0  0  0  0  0  0  0  0  0
   46.2708   38.8320   56.8923 C   0  0  0  0  0  0  0  0  0  0  0  0
   45.4487   41.4870   56.8077 C   0  0  0  0  0  0  0  0  0  0  0  0
   45.4849   39.2814   55.8311 C   0  0  0  0  0  0  0  0  0  0  0  0
   45.0744   40.6076   55.7916 C   0  0  0  0  0  0  0  0  0  0  0  0
   46.6455   39.7055   57.9040 C   0  0  0  0  0  0  0  0  0  0  0  0
   46.2320   41.0388   57.8640 C   0  0  0  0  0  0  0  0  0  0  0  0
   44.1910   41.2033   54.6695 C   0  0  0  0  0  0  0  0  0  0  0  0
   42.8802   40.9342   54.7279 N   0  0  0  0  0  0  0  0  0  0  0  0
   44.6965   41.8920   53.7628 O   0  0  0  0  0  0  0  0  0  0  0  0
   42.5668   40.2779   55.3915 H   0  0  0  0  0  0  0  0  0  0  0  0
   40.5701   43.3542   53.1344 C   0  0  0  0  0  0  0  0  0  0  0  0
   40.4176   41.1377   52.0761 C   0  0  0  0  0  0  0  0  0  0  0  0
   41.5566   42.8679   54.0126 C   0  0  0  0  0  0  0  0  0  0  0  0
   41.4038   40.6507   52.9538 C   0  0  0  0  0  0  0  0  0  0  0  0
   40.0149   42.4846   52.1800 C   0  0  0  0  0  0  0  0  0  0  0  0
   41.9694   41.5162   53.9246 C   0  0  0  0  0  0  0  0  0  0  0  0
   38.7893   43.0850   51.1131 Cl  0  0  0  0  0  0  0  0  0  0  0  0
   45.1687   38.4687   54.7853 O   0  0  0  0  0  0  0  0  0  0  0  0
   42.9705   37.9691   56.0219 O   0  0  0  0  0  0  0  0  0  0  0  0
   43.3654   36.9861   53.6907 O   0  0  0  0  0  0  0  0  0  0  0  0
   44.7152   36.1012   55.7042 O   0  0  0  0  0  0  0  0  0  0  0  0
   43.9945   37.4130   55.1100 P   0  0  0  0  0  0  0  0  0  0  0  0
   42.6495   36.3473   53.8334 H   0  0  0  0  0  0  0  0  0  0  0  0
   44.0454   35.4325   55.9164 H   0  0  0  0  0  0  0  0  0  0  0  0
  1  2  1  0  0  0
  1  3  2  0  0  0
  2  4  2  0  0  0
 15 17  1  0  0  0
 15 19  2  0  0  0
 16 18  2  0  0  0
 16 19  1  0  0  0
 17 20  2  0  0  0
 18 20  1  0  0  0
  3  9  1  0  0  0
  4 10  1  0  0  0
  5  9  2  0  0  0
  5  7  1  0  0  0
  6 10  2  0  0  0
  6  8  1  0  0  0
 11 13  2  0  0  0
 11  8  1  0  0  0
 11 12  1  0  0  0
 19 21  1  0  0  0
 20 12  1  0  0  0
  7  8  2  0  0  0
  7 22  1  0  0  0
  9 10  1  0  0  0
 23 26  2  0  0  0
 24 26  1  0  0  0
 25 26  1  0  0  0
 22 26  1  0  0  0
 12 14  1  0  0  0
 24 27  1  0  0  0
 25 28  1  0  0  0
M  END
> <minimizedAffinity>
-8.06121

$$$$
2OT1_N3P_A_3001


 28 30  0  0  0  0  0  0  0  0999 V2000
   44.7983   35.0845   49.6331 C   0  0  0  0  0  0  0  0  0  0  0  0
   45.6870   36.1503   49.7394 C   0  0  0  0  0  0  0  0  0  0  0  0
   43.9952   34.7373   50.7162 C   0  0  0  0  0  0  0  0  0  0  0  0
   45.7769   36.8676   50.9282 C   0  0  0  0  0  0  0  0  0  0  0  0
   43.2860   35.1061   52.9893 C   0  0  0  0  0  0  0  0  0  0  0  0
   45.0613   37.2358   53.2015 C   0  0  0  0  0  0  0  0  0  0  0  0
   43.3721   35.8211   54.1839 C   0  0  0  0  0  0  0  0  0  0  0  0
   44.2604   36.8836   54.2880 C   0  0  0  0  0  0  0  0  0  0  0  0
   44.0812   35.4553   51.9063 C   0  0  0  0  0  0  0  0  0  0  0  0
   44.9746   36.5235   52.0119 C   0  0  0  0  0  0  0  0  0  0  0  0
   44.4439   37.7313   55.5695 C   0  0  0  0  0  0  0  0  0  0  0  0
   45.7007   38.0474   55.9079 N   0  0  0  0  0  0  0  0  0  0  0  0
   43.4567   38.0865   56.2414 O   0  0  0  0  0  0  0  0  0  0  0  0
   46.4387   37.6258   55.4110 H   0  0  0  0  0  0  0  0  0  0  0  0
   46.7073   39.5429   59.1455 C   0  0  0  0  0  0  0  0  0  0  0  0
   46.0831   41.2748   57.5125 C   0  0  0  0  0  0  0  0  0  0  0  0
   46.4501   38.5451   58.1868 C   0  0  0  0  0  0  0  0  0  0  0  0
   45.8256   40.2779   56.5534 C   0  0  0  0  0  0  0  0  0  0  0  0
   46.5208   40.8914   58.7964 C   0  0  0  0  0  0  0  0  0  0  0  0
   46.0055   38.9128   56.8936 C   0  0  0  0  0  0  0  0  0  0  0  0
   46.8232   42.1137   59.9862 Cl  0  0  0  0  0  0  0  0  0  0  0  0
   42.5493   35.5527   55.2352 O   0  0  0  0  0  0  0  0  0  0  0  0
   40.2808   34.7132   54.3633 O   0  0  0  0  0  0  0  0  0  0  0  0
   40.3573   36.3225   56.3536 O   0  0  0  0  0  0  0  0  0  0  0  0
   40.9671   37.1678   53.9929 O   0  0  0  0  0  0  0  0  0  0  0  0
   40.9955   35.8702   54.9462 P   0  0  0  0  0  0  0  0  0  0  0  0
   39.4167   36.5258   56.2316 H   0  0  0  0  0  0  0  0  0  0  0  0
   40.0474   37.3997   53.7897 H   0  0  0  0  0  0  0  0  0  0  0  0
  1  2  1  0  0  0
  1  3  2  0  0  0
  2  4  2  0  0  0
 15 17  1  0  0  0
 15 19  2  0  0  0
 16 18  2  0  0  0
 16 19  1  0  0  0
 17 20  2  0  0  0
 18 20  1  0  0  0
  3  9  1  0  0  0
  4 10  1  0  0  0
  5  9  2  0  0  0
  5  7  1  0  0  0
  6 10  2  0  0  0
  6  8  1  0  0  0
 11 13  2  0  0  0
 11  8  1  0  0  0
 11 12  1  0  0  0
 19 21  1  0  0  0
 20 12  1  0  0  0
  7  8  2  0  0  0
  7 22  1  0  0  0
  9 10  1  0  0  0
 23 26  2  0  0  0
 24 26  1  0  0  0
 25 26  1  0  0  0
 22 26  1  0  0  0
 12 14  1  0  0  0
 24 27  1  0  0  0
 25 28  1  0  0  0
M  END
> <minimizedAffinity>
-7.98543

$$$$
2OT1_N3P_A_3001


 28 30  0  0  0  0  0  0  0  0999 V2000
   45.8901   38.9074   57.1472 C   0  0  0  0  0  0  0  0  0  0  0  0
   46.4400   38.6709   58.4036 C   0  0  0  0  0  0  0  0  0  0  0  0
   45.6929   40.2141   56.7085 C   0  0  0  0  0  0  0  0  0  0  0  0
   46.7899   39.7388   59.2241 C   0  0  0  0  0  0  0  0  0  0  0  0
   45.8427   42.5880   57.0934 C   0  0  0  0  0  0  0  0  0  0  0  0
   46.9418   42.1154   59.6035 C   0  0  0  0  0  0  0  0  0  0  0  0
   46.1911   43.6626   57.9117 C   0  0  0  0  0  0  0  0  0  0  0  0
   46.7387   43.4241   59.1655 C   0  0  0  0  0  0  0  0  0  0  0  0
   46.0449   41.2847   57.5266 C   0  0  0  0  0  0  0  0  0  0  0  0
   46.5951   41.0456   58.7877 C   0  0  0  0  0  0  0  0  0  0  0  0
   47.1457   44.5420   60.1551 C   0  0  0  0  0  0  0  0  0  0  0  0
   48.2236   45.2688   59.8327 N   0  0  0  0  0  0  0  0  0  0  0  0
   46.4914   44.7350   61.1976 O   0  0  0  0  0  0  0  0  0  0  0  0
   48.7702   44.9799   59.0665 H   0  0  0  0  0  0  0  0  0  0  0  0
   48.6391   48.7708   60.9708 C   0  0  0  0  0  0  0  0  0  0  0  0
   50.0131   47.2250   62.3043 C   0  0  0  0  0  0  0  0  0  0  0  0
   48.1508   47.6875   60.2165 C   0  0  0  0  0  0  0  0  0  0  0  0
   49.5255   46.1413   61.5507 C   0  0  0  0  0  0  0  0  0  0  0  0
   49.5617   48.5257   62.0022 C   0  0  0  0  0  0  0  0  0  0  0  0
   48.5973   46.3748   60.5040 C   0  0  0  0  0  0  0  0  0  0  0  0
   50.1714   49.8654   62.9158 Cl  0  0  0  0  0  0  0  0  0  0  0  0
   46.0785   44.9500   57.4826 O   0  0  0  0  0  0  0  0  0  0  0  0
   44.0263   45.2170   59.0085 O   0  0  0  0  0  0  0  0  0  0  0  0
   44.7848   47.1794   57.5488 O   0  0  0  0  0  0  0  0  0  0  0  0
   43.7174   45.1005   56.4541 O   0  0  0  0  0  0  0  0  0  0  0  0
   44.6133   45.5857   57.7013 P   0  0  0  0  0  0  0  0  0  0  0  0
   43.9247   47.6105   57.6727 H   0  0  0  0  0  0  0  0  0  0  0  0
   42.8207   45.4599   56.5410 H   0  0  0  0  0  0  0  0  0  0  0  0
  1  2  1  0  0  0
  1  3  2  0  0  0
  2  4  2  0  0  0
 15 17  1  0  0  0
 15 19  2  0  0  0
 16 18  2  0  0  0
 16 19  1  0  0  0
 17 20  2  0  0  0
 18 20  1  0  0  0
  3  9  1  0  0  0
  4 10  1  0  0  0
  5  9  2  0  0  0
  5  7  1  0  0  0
  6 10  2  0  0  0
  6  8  1  0  0  0
 11 13  2  0  0  0
 11  8  1  0  0  0
 11 12  1  0  0  0
 19 21  1  0  0  0
 20 12  1  0  0  0
  7  8  2  0  0  0
  7 22  1  0  0  0
  9 10  1  0  0  0
 23 26  2  0  0  0
 24 26  1  0  0  0
 25 26  1  0  0  0
 22 26  1  0  0  0
 12 14  1  0  0  0
 24 27  1  0  0  0
 25 28  1  0  0  0
M  END
> <minimizedAffinity>
-7.75404

$$$$
2OT1_N3P_A_3001


 28 30  0  0  0  0  0  0  0  0999 V2000
   43.7298   38.4170   53.6393 C   0  0  0  0  0  0  0  0  0  0  0  0
   42.9851   39.5849   53.5036 C   0  0  0  0  0  0  0  0  0  0  0  0
   44.7667   38.3567   54.5666 C   0  0  0  0  0  0  0  0  0  0  0  0
   43.2775   40.6941   54.2909 C   0  0  0  0  0  0  0  0  0  0  0  0
   46.0974   39.4081   56.2782 C   0  0  0  0  0  0  0  0  0  0  0  0
   44.6091   41.7413   56.0072 C   0  0  0  0  0  0  0  0  0  0  0  0
   46.3956   40.5172   57.0701 C   0  0  0  0  0  0  0  0  0  0  0  0
   45.6517   41.6818   56.9321 C   0  0  0  0  0  0  0  0  0  0  0  0
   45.0596   39.4646   55.3580 C   0  0  0  0  0  0  0  0  0  0  0  0
   44.3124   40.6362   55.2193 C   0  0  0  0  0  0  0  0  0  0  0  0
   45.9085   42.9705   57.7493 C   0  0  0  0  0  0  0  0  0  0  0  0
   45.5841   42.9346   59.0484 N   0  0  0  0  0  0  0  0  0  0  0  0
   46.3890   43.9821   57.2037 O   0  0  0  0  0  0  0  0  0  0  0  0
   45.0882   42.1536   59.3850 H   0  0  0  0  0  0  0  0  0  0  0  0
   47.3463   45.0813   61.5017 C   0  0  0  0  0  0  0  0  0  0  0  0
   45.0699   45.9052   61.0604 C   0  0  0  0  0  0  0  0  0  0  0  0
   47.1430   44.0289   60.5895 C   0  0  0  0  0  0  0  0  0  0  0  0
   44.8658   44.8533   60.1484 C   0  0  0  0  0  0  0  0  0  0  0  0
   46.3093   46.0033   61.7246 C   0  0  0  0  0  0  0  0  0  0  0  0
   45.9022   43.9132   59.9171 C   0  0  0  0  0  0  0  0  0  0  0  0
   46.5601   47.2866   62.8609 Cl  0  0  0  0  0  0  0  0  0  0  0  0
   47.3545   40.4655   58.0355 O   0  0  0  0  0  0  0  0  0  0  0  0
   45.8840   40.1657   60.1233 O   0  0  0  0  0  0  0  0  0  0  0  0
   46.5164   38.1234   58.7141 O   0  0  0  0  0  0  0  0  0  0  0  0
   48.3139   39.3117   60.1340 O   0  0  0  0  0  0  0  0  0  0  0  0
   46.9550   39.5556   59.3049 P   0  0  0  0  0  0  0  0  0  0  0  0
   46.2651   37.5359   59.4438 H   0  0  0  0  0  0  0  0  0  0  0  0
   48.1239   38.7654   60.9127 H   0  0  0  0  0  0  0  0  0  0  0  0
  1  2  1  0  0  0
  1  3  2  0  0  0
  2  4  2  0  0  0
 15 17  1  0  0  0
 15 19  2  0  0  0
 16 18  2  0  0  0
 16 19  1  0  0  0
 17 20  2  0  0  0
 18 20  1  0  0  0
  3  9  1  0  0  0
  4 10  1  0  0  0
  5  9  2  0  0  0
  5  7  1  0  0  0
  6 10  2  0  0  0
  6  8  1  0  0  0
 11 13  2  0  0  0
 11  8  1  0  0  0
 11 12  1  0  0  0
 19 21  1  0  0  0
 20 12  1  0  0  0
  7  8  2  0  0  0
  7 22  1  0  0  0
  9 10  1  0  0  0
 23 26  2  0  0  0
 24 26  1  0  0  0
 25 26  1  0  0  0
 22 26  1  0  0  0
 12 14  1  0  0  0
 24 27  1  0  0  0
 25 28  1  0  0  0
M  END
> <minimizedAffinity>
-7.48438

$$$$
2OT1_N3P_A_3001


 28 30  0  0  0  0  0  0  0  0999 V2000
   47.1921   39.3754   58.9015 C   0  0  0  0  0  0  0  0  0  0  0  0
   47.0452   40.7361   58.6486 C   0  0  0  0  0  0  0  0  0  0  0  0
   46.5552   38.4433   58.0866 C   0  0  0  0  0  0  0  0  0  0  0  0
   46.2594   41.1669   57.5842 C   0  0  0  0  0  0  0  0  0  0  0  0
   45.1294   37.9438   56.2094 C   0  0  0  0  0  0  0  0  0  0  0  0
   44.8362   40.6624   55.7040 C   0  0  0  0  0  0  0  0  0  0  0  0
   44.3399   38.3697   55.1411 C   0  0  0  0  0  0  0  0  0  0  0  0
   44.1939   39.7280   54.8914 C   0  0  0  0  0  0  0  0  0  0  0  0
   45.7704   38.8717   57.0188 C   0  0  0  0  0  0  0  0  0  0  0  0
   45.6228   40.2375   56.7674 C   0  0  0  0  0  0  0  0  0  0  0  0
   43.3316   40.3055   53.7436 C   0  0  0  0  0  0  0  0  0  0  0  0
   42.0040   40.2879   53.9201 N   0  0  0  0  0  0  0  0  0  0  0  0
   43.8672   40.7545   52.7123 O   0  0  0  0  0  0  0  0  0  0  0  0
   41.6419   39.8010   54.6953 H   0  0  0  0  0  0  0  0  0  0  0  0
   39.9458   42.8209   52.1651 C   0  0  0  0  0  0  0  0  0  0  0  0
   39.4788   40.5525   51.3334 C   0  0  0  0  0  0  0  0  0  0  0  0
   40.9001   42.2981   53.0578 C   0  0  0  0  0  0  0  0  0  0  0  0
   40.4327   40.0289   52.2256 C   0  0  0  0  0  0  0  0  0  0  0  0
   39.2494   41.9432   51.3168 C   0  0  0  0  0  0  0  0  0  0  0  0
   41.1396   40.9028   53.0904 C   0  0  0  0  0  0  0  0  0  0  0  0
   38.0643   42.5914   50.2322 Cl  0  0  0  0  0  0  0  0  0  0  0  0
   43.7643   37.4826   54.2833 O   0  0  0  0  0  0  0  0  0  0  0  0
   42.7841   35.3941   55.4184 O   0  0  0  0  0  0  0  0  0  0  0  0
   41.8772   37.7106   56.0255 O   0  0  0  0  0  0  0  0  0  0  0  0
   41.3748   36.7015   53.7042 O   0  0  0  0  0  0  0  0  0  0  0  0
   42.4678   36.7380   54.8862 P   0  0  0  0  0  0  0  0  0  0  0  0
   41.0905   37.3042   56.4215 H   0  0  0  0  0  0  0  0  0  0  0  0
   40.5711   36.2600   54.0205 H   0  0  0  0  0  0  0  0  0  0  0  0
  1  2  1  0  0  0
  1  3  2  0  0  0
  2  4  2  0  0  0
 15 17  1  0  0  0
 15 19  2  0  0  0
 16 18  2  0  0  0
 16 19  1  0  0  0
 17 20  2  0  0  0
 18 20  1  0  0  0
  3  9  1  0  0  0
  4 10  1  0  0  0
  5  9  2  0  0  0
  5  7  1  0  0  0
  6 10  2  0  0  0
  6  8  1  0  0  0
 11 13  2  0  0  0
 11  8  1  0  0  0
 11 12  1  0  0  0
 19 21  1  0  0  0
 20 12  1  0  0  0
  7  8  2  0  0  0
  7 22  1  0  0  0
  9 10  1  0  0  0
 23 26  2  0  0  0
 24 26  1  0  0  0
 25 26  1  0  0  0
 22 26  1  0  0  0
 12 14  1  0  0  0
 24 27  1  0  0  0
 25 28  1  0  0  0
M  END
> <minimizedAffinity>
-7.40380

$$$$
2OT1_N3P_A_3001


 28 30  0  0  0  0  0  0  0  0999 V2000
   45.8928   34.7074   53.3767 C   0  0  0  0  0  0  0  0  0  0  0  0
   46.1871   35.5054   52.2750 C   0  0  0  0  0  0  0  0  0  0  0  0
   44.6564   34.8199   54.0071 C   0  0  0  0  0  0  0  0  0  0  0  0
   45.2486   36.4184   51.8045 C   0  0  0  0  0  0  0  0  0  0  0  0
   42.4836   35.8489   54.1679 C   0  0  0  0  0  0  0  0  0  0  0  0
   43.0715   37.4429   51.9666 C   0  0  0  0  0  0  0  0  0  0  0  0
   41.5389   36.7629   53.7011 C   0  0  0  0  0  0  0  0  0  0  0  0
   41.8352   37.5588   52.6022 C   0  0  0  0  0  0  0  0  0  0  0  0
   43.7142   35.7309   53.5364 C   0  0  0  0  0  0  0  0  0  0  0  0
   44.0117   36.5320   52.4318 C   0  0  0  0  0  0  0  0  0  0  0  0
   40.8657   38.6118   52.0142 C   0  0  0  0  0  0  0  0  0  0  0  0
   40.7456   39.7629   52.6883 N   0  0  0  0  0  0  0  0  0  0  0  0
   40.2337   38.3767   50.9666 O   0  0  0  0  0  0  0  0  0  0  0  0
   41.1690   39.8321   53.5744 H   0  0  0  0  0  0  0  0  0  0  0  0
   38.3195   41.9543   50.9436 C   0  0  0  0  0  0  0  0  0  0  0  0
   40.0399   43.2709   52.1108 C   0  0  0  0  0  0  0  0  0  0  0  0
   38.9152   40.7655   51.4049 C   0  0  0  0  0  0  0  0  0  0  0  0
   40.6361   42.0829   52.5724 C   0  0  0  0  0  0  0  0  0  0  0  0
   38.8886   43.1884   51.3017 C   0  0  0  0  0  0  0  0  0  0  0  0
   40.0748   40.8305   52.2150 C   0  0  0  0  0  0  0  0  0  0  0  0
   38.1602   44.6473   50.7168 Cl  0  0  0  0  0  0  0  0  0  0  0  0
   40.2954   36.8446   54.2500 O   0  0  0  0  0  0  0  0  0  0  0  0
   41.6330   37.7367   56.2565 O   0  0  0  0  0  0  0  0  0  0  0  0
   39.4299   38.8642   55.5993 O   0  0  0  0  0  0  0  0  0  0  0  0
   39.4044   36.5062   56.6472 O   0  0  0  0  0  0  0  0  0  0  0  0
   40.2735   37.4984   55.7234 P   0  0  0  0  0  0  0  0  0  0  0  0
   39.3877   39.2980   56.4658 H   0  0  0  0  0  0  0  0  0  0  0  0
   39.3619   36.8590   57.5498 H   0  0  0  0  0  0  0  0  0  0  0  0
  1  2  1  0  0  0
  1  3  2  0  0  0
  2  4  2  0  0  0
 15 17  1  0  0  0
 15 19  2  0  0  0
 16 18  2  0  0  0
 16 19  1  0  0  0
 17 20  2  0  0  0
 18 20  1  0  0  0
  3  9  1  0  0  0
  4 10  1  0  0  0
  5  9  2  0  0  0
  5  7  1  0  0  0
  6 10  2  0  0  0
  6  8  1  0  0  0
 11 13  2  0  0  0
 11  8  1  0  0  0
 11 12  1  0  0  0
 19 21  1  0  0  0
 20 12  1  0  0  0
  7  8  2  0  0  0
  7 22  1  0  0  0
  9 10  1  0  0  0
 23 26  2  0  0  0
 24 26  1  0  0  0
 25 26  1  0  0  0
 22 26  1  0  0  0
 12 14  1  0  0  0
 24 27  1  0  0  0
 25 28  1  0  0  0
M  END
> <minimizedAffinity>
-7.27043

$$$$
2OT1_N3P_A_3001


 28 30  0  0  0  0  0  0  0  0999 V2000
   49.3341   49.9342   62.7097 C   0  0  0  0  0  0  0  0  0  0  0  0
   50.3972   49.0360   62.7058 C   0  0  0  0  0  0  0  0  0  0  0  0
   48.1570   49.6223   62.0347 C   0  0  0  0  0  0  0  0  0  0  0  0
   50.2869   47.8277   62.0249 C   0  0  0  0  0  0  0  0  0  0  0  0
   46.8724   48.1028   60.6757 C   0  0  0  0  0  0  0  0  0  0  0  0
   48.9964   46.3081   60.6681 C   0  0  0  0  0  0  0  0  0  0  0  0
   46.7562   46.8931   59.9908 C   0  0  0  0  0  0  0  0  0  0  0  0
   47.8187   45.9988   59.9874 C   0  0  0  0  0  0  0  0  0  0  0  0
   48.0429   48.4123   61.3547 C   0  0  0  0  0  0  0  0  0  0  0  0
   49.1113   47.5128   61.3504 C   0  0  0  0  0  0  0  0  0  0  0  0
   47.7987   44.6392   59.2488 C   0  0  0  0  0  0  0  0  0  0  0  0
   46.9430   43.7168   59.7080 N   0  0  0  0  0  0  0  0  0  0  0  0
   48.5545   44.4327   58.2802 O   0  0  0  0  0  0  0  0  0  0  0  0
   46.4724   43.8957   60.5540 H   0  0  0  0  0  0  0  0  0  0  0  0
   45.9074   41.1758   57.2174 C   0  0  0  0  0  0  0  0  0  0  0  0
   46.7508   40.1232   59.2757 C   0  0  0  0  0  0  0  0  0  0  0  0
   46.1536   42.4482   57.7663 C   0  0  0  0  0  0  0  0  0  0  0  0
   46.9972   41.3950   59.8252 C   0  0  0  0  0  0  0  0  0  0  0  0
   46.2085   40.0328   57.9777 C   0  0  0  0  0  0  0  0  0  0  0  0
   46.6940   42.5569   59.0706 C   0  0  0  0  0  0  0  0  0  0  0  0
   45.8875   38.4699   57.3028 Cl  0  0  0  0  0  0  0  0  0  0  0  0
   45.5935   46.5278   59.3833 O   0  0  0  0  0  0  0  0  0  0  0  0
   44.8136   46.3176   61.8243 O   0  0  0  0  0  0  0  0  0  0  0  0
   43.1578   47.0786   60.0254 O   0  0  0  0  0  0  0  0  0  0  0  0
   43.9803   44.6329   60.0632 O   0  0  0  0  0  0  0  0  0  0  0  0
   44.4118   46.1450   60.4108 P   0  0  0  0  0  0  0  0  0  0  0  0
   42.4158   46.8848   60.6193 H   0  0  0  0  0  0  0  0  0  0  0  0
   43.2670   44.3552   60.6589 H   0  0  0  0  0  0  0  0  0  0  0  0
  1  2  1  0  0  0
  1  3  2  0  0  0
  2  4  2  0  0  0
 15 17  1  0  0  0
 15 19  2  0  0  0
 16 18  2  0  0  0
 16 19  1  0  0  0
 17 20  2  0  0  0
 18 20  1  0  0  0
  3  9  1  0  0  0
  4 10  1  0  0  0
  5  9  2  0  0  0
  5  7  1  0  0  0
  6 10  2  0  0  0
  6  8  1  0  0  0
 11 13  2  0  0  0
 11  8  1  0  0  0
 11 12  1  0  0  0
 19 21  1  0  0  0
 20 12  1  0  0  0
  7  8  2  0  0  0
  7 22  1  0  0  0
  9 10  1  0  0  0
 23 26  2  0  0  0
 24 26  1  0  0  0
 25 26  1  0  0  0
 22 26  1  0  0  0
 12 14  1  0  0  0
 24 27  1  0  0  0
 25 28  1  0  0  0
M  END
> <minimizedAffinity>
-7.12737

$$$$
2OT1_N3P_A_3001


 28 30  0  0  0  0  0  0  0  0999 V2000
   49.1295   47.7767   61.4441 C   0  0  0  0  0  0  0  0  0  0  0  0
   49.2170   46.6767   62.2923 C   0  0  0  0  0  0  0  0  0  0  0  0
   48.4618   47.6658   60.2274 C   0  0  0  0  0  0  0  0  0  0  0  0
   48.6412   45.4647   61.9245 C   0  0  0  0  0  0  0  0  0  0  0  0
   47.2217   46.3407   58.6423 C   0  0  0  0  0  0  0  0  0  0  0  0
   47.3963   44.1432   60.3372 C   0  0  0  0  0  0  0  0  0  0  0  0
   46.6428   45.1281   58.2679 C   0  0  0  0  0  0  0  0  0  0  0  0
   46.7324   44.0316   59.1155 C   0  0  0  0  0  0  0  0  0  0  0  0
   47.8820   46.4547   59.8581 C   0  0  0  0  0  0  0  0  0  0  0  0
   47.9722   45.3515   60.7097 C   0  0  0  0  0  0  0  0  0  0  0  0
   46.1388   42.6400   58.7903 C   0  0  0  0  0  0  0  0  0  0  0  0
   46.1993   42.2430   57.5125 N   0  0  0  0  0  0  0  0  0  0  0  0
   45.6292   41.9425   59.6880 O   0  0  0  0  0  0  0  0  0  0  0  0
   46.4926   42.8934   56.8342 H   0  0  0  0  0  0  0  0  0  0  0  0
   45.9060   38.5602   57.2244 C   0  0  0  0  0  0  0  0  0  0  0  0
   44.7311   39.7003   55.3872 C   0  0  0  0  0  0  0  0  0  0  0  0
   46.2774   39.8069   57.7617 C   0  0  0  0  0  0  0  0  0  0  0  0
   45.1020   40.9472   55.9236 C   0  0  0  0  0  0  0  0  0  0  0  0
   45.1396   38.5235   56.0469 C   0  0  0  0  0  0  0  0  0  0  0  0
   45.8790   40.9987   57.1090 C   0  0  0  0  0  0  0  0  0  0  0  0
   44.6999   36.9856   55.3817 Cl  0  0  0  0  0  0  0  0  0  0  0  0
   45.9213   45.0082   57.1193 O   0  0  0  0  0  0  0  0  0  0  0  0
   43.9361   45.8240   58.5351 O   0  0  0  0  0  0  0  0  0  0  0  0
   44.7213   47.2137   56.5328 O   0  0  0  0  0  0  0  0  0  0  0  0
   43.5337   44.9560   56.1438 O   0  0  0  0  0  0  0  0  0  0  0  0
   44.4914   45.7511   57.1656 P   0  0  0  0  0  0  0  0  0  0  0  0
   43.8842   47.7036   56.5382 H   0  0  0  0  0  0  0  0  0  0  0  0
   42.6557   45.3682   56.1364 H   0  0  0  0  0  0  0  0  0  0  0  0
  1  2  1  0  0  0
  1  3  2  0  0  0
  2  4  2  0  0  0
 15 17  1  0  0  0
 15 19  2  0  0  0
 16 18  2  0  0  0
 16 19  1  0  0  0
 17 20  2  0  0  0
 18 20  1  0  0  0
  3  9  1  0  0  0
  4 10  1  0  0  0
  5  9  2  0  0  0
  5  7  1  0  0  0
  6 10  2  0  0  0
  6  8  1  0  0  0
 11 13  2  0  0  0
 11  8  1  0  0  0
 11 12  1  0  0  0
 19 21  1  0  0  0
 20 12  1  0  0  0
  7  8  2  0  0  0
  7 22  1  0  0  0
  9 10  1  0  0  0
 23 26  2  0  0  0
 24 26  1  0  0  0
 25 26  1  0  0  0
 22 26  1  0  0  0
 12 14  1  0  0  0
 24 27  1  0  0  0
 25 28  1  0  0  0
M  END
> <minimizedAffinity>
-7.05570

$$$$
2OT1_N3P_A_3001


 28 30  0  0  0  0  0  0  0  0999 V2000
   43.9886   34.9901   50.5046 C   0  0  0  0  0  0  0  0  0  0  0  0
   45.3149   34.9012   50.9167 C   0  0  0  0  0  0  0  0  0  0  0  0
   43.0972   35.8039   51.1986 C   0  0  0  0  0  0  0  0  0  0  0  0
   45.7510   35.6219   52.0241 C   0  0  0  0  0  0  0  0  0  0  0  0
   42.6427   37.3352   53.0027 C   0  0  0  0  0  0  0  0  0  0  0  0
   45.2928   37.1579   53.8258 C   0  0  0  0  0  0  0  0  0  0  0  0
   43.0740   38.0598   54.1139 C   0  0  0  0  0  0  0  0  0  0  0  0
   44.3977   37.9687   54.5239 C   0  0  0  0  0  0  0  0  0  0  0  0
   43.5318   36.5286   52.3056 C   0  0  0  0  0  0  0  0  0  0  0  0
   44.8627   36.4370   52.7188 C   0  0  0  0  0  0  0  0  0  0  0  0
   44.9741   38.7178   55.7491 C   0  0  0  0  0  0  0  0  0  0  0  0
   45.2725   40.0123   55.5780 N   0  0  0  0  0  0  0  0  0  0  0  0
   45.1490   38.1244   56.8305 O   0  0  0  0  0  0  0  0  0  0  0  0
   45.2353   40.3842   54.6672 H   0  0  0  0  0  0  0  0  0  0  0  0
   45.7386   42.9664   57.7662 C   0  0  0  0  0  0  0  0  0  0  0  0
   46.8455   40.9759   58.6980 C   0  0  0  0  0  0  0  0  0  0  0  0
   45.2885   42.2047   56.6716 C   0  0  0  0  0  0  0  0  0  0  0  0
   46.3960   40.2136   57.6040 C   0  0  0  0  0  0  0  0  0  0  0  0
   46.5095   42.3434   58.7625 C   0  0  0  0  0  0  0  0  0  0  0  0
   45.6209   40.8307   56.5892 C   0  0  0  0  0  0  0  0  0  0  0  0
   47.0744   43.2904   60.0985 Cl  0  0  0  0  0  0  0  0  0  0  0  0
   42.2455   38.9196   54.7686 O   0  0  0  0  0  0  0  0  0  0  0  0
   43.1078   40.7808   53.2184 O   0  0  0  0  0  0  0  0  0  0  0  0
   40.7109   39.9196   52.9538 O   0  0  0  0  0  0  0  0  0  0  0  0
   41.3505   41.3259   55.0207 O   0  0  0  0  0  0  0  0  0  0  0  0
   41.9267   40.2708   53.9493 P   0  0  0  0  0  0  0  0  0  0  0  0
   40.4803   40.7060   52.4350 H   0  0  0  0  0  0  0  0  0  0  0  0
   41.1425   42.1608   54.5727 H   0  0  0  0  0  0  0  0  0  0  0  0
  1  2  1  0  0  0
  1  3  2  0  0  0
  2  4  2  0  0  0
 15 17  1  0  0  0
 15 19  2  0  0  0
 16 18  2  0  0  0
 16 19  1  0  0  0
 17 20  2  0  0  0
 18 20  1  0  0  0
  3  9  1  0  0  0
  4 10  1  0  0  0
  5  9  2  0  0  0
  5  7  1  0  0  0
  6 10  2  0  0  0
  6  8  1  0  0  0
 11 13  2  0  0  0
 11  8  1  0  0  0
 11 12  1  0  0  0
 19 21  1  0  0  0
 20 12  1  0  0  0
  7  8  2  0  0  0
  7 22  1  0  0  0
  9 10  1  0  0  0
 23 26  2  0  0  0
 24 26  1  0  0  0
 25 26  1  0  0  0
 22 26  1  0  0  0
 12 14  1  0  0  0
 24 27  1  0  0  0
 25 28  1  0  0  0
M  END
> <minimizedAffinity>
-6.42027

$$$$
2OT1_N3P_A_3001


 28 30  0  0  0  0  0  0  0  0999 V2000
   40.8228   34.9904   55.5814 C   0  0  0  0  0  0  0  0  0  0  0  0
   39.4826   35.3655   55.5690 C   0  0  0  0  0  0  0  0  0  0  0  0
   41.7483   35.6897   54.8115 C   0  0  0  0  0  0  0  0  0  0  0  0
   39.0653   36.4366   54.7851 C   0  0  0  0  0  0  0  0  0  0  0  0
   42.2543   37.4579   53.2547 C   0  0  0  0  0  0  0  0  0  0  0  0
   39.5767   38.2076   53.2303 C   0  0  0  0  0  0  0  0  0  0  0  0
   41.8418   38.5323   52.4664 C   0  0  0  0  0  0  0  0  0  0  0  0
   40.5037   38.9041   52.4548 C   0  0  0  0  0  0  0  0  0  0  0  0
   41.3338   36.7640   54.0281 C   0  0  0  0  0  0  0  0  0  0  0  0
   39.9883   37.1380   54.0156 C   0  0  0  0  0  0  0  0  0  0  0  0
   39.9402   40.0692   51.6066 C   0  0  0  0  0  0  0  0  0  0  0  0
   39.8382   41.2601   52.2112 N   0  0  0  0  0  0  0  0  0  0  0  0
   39.5989   39.8844   50.4228 O   0  0  0  0  0  0  0  0  0  0  0  0
   39.9993   41.3072   53.1812 H   0  0  0  0  0  0  0  0  0  0  0  0
   38.0127   44.0134   50.5322 C   0  0  0  0  0  0  0  0  0  0  0  0
   40.4466   44.3658   50.4442 C   0  0  0  0  0  0  0  0  0  0  0  0
   38.2108   42.8184   51.2489 C   0  0  0  0  0  0  0  0  0  0  0  0
   40.6456   43.1711   51.1607 C   0  0  0  0  0  0  0  0  0  0  0  0
   39.1307   44.7695   50.1402 C   0  0  0  0  0  0  0  0  0  0  0  0
   39.5265   42.3962   51.5587 C   0  0  0  0  0  0  0  0  0  0  0  0
   38.8807   46.2307   49.2440 Cl  0  0  0  0  0  0  0  0  0  0  0  0
   42.7335   39.2808   51.7601 O   0  0  0  0  0  0  0  0  0  0  0  0
   42.8332   37.1801   50.2809 O   0  0  0  0  0  0  0  0  0  0  0  0
   42.4628   39.4732   49.2031 O   0  0  0  0  0  0  0  0  0  0  0  0
   44.7622   38.8855   50.2164 O   0  0  0  0  0  0  0  0  0  0  0  0
   43.1812   38.6159   50.3615 P   0  0  0  0  0  0  0  0  0  0  0  0
   42.7025   39.1100   48.3362 H   0  0  0  0  0  0  0  0  0  0  0  0
   45.0807   38.5016   49.3845 H   0  0  0  0  0  0  0  0  0  0  0  0
  1  2  1  0  0  0
  1  3  2  0  0  0
  2  4  2  0  0  0
 15 17  1  0  0  0
 15 19  2  0  0  0
 16 18  2  0  0  0
 16 19  1  0  0  0
 17 20  2  0  0  0
 18 20  1  0  0  0
  3  9  1  0  0  0
  4 10  1  0  0  0
  5  9  2  0  0  0
  5  7  1  0  0  0
  6 10  2  0  0  0
  6  8  1  0  0  0
 11 13  2  0  0  0
 11  8  1  0  0  0
 11 12  1  0  0  0
 19 21  1  0  0  0
 20 12  1  0  0  0
  7  8  2  0  0  0
  7 22  1  0  0  0
  9 10  1  0  0  0
 23 26  2  0  0  0
 24 26  1  0  0  0
 25 26  1  0  0  0
 22 26  1  0  0  0
 12 14  1  0  0  0
 24 27  1  0  0  0
 25 28  1  0  0  0
M  END
> <minimizedAffinity>
-6.40158

$$$$
