3MS9_MS9_A_516


 14 14  0  0  0  0  0  0  0  0999 V2000
    1.1086   58.8834   30.2161 Cl  0  0  0  0  0  0  0  0  0  0  0  0
   -0.6416   58.9626   30.2936 C   0  0  0  0  0  0  0  0  0  0  0  0
   -1.2572   60.1464   30.6435 C   0  0  0  0  0  0  0  0  0  0  0  0
   -2.6841   60.2638   30.7152 C   0  0  0  0  0  0  0  0  0  0  0  0
   -3.4662   59.0952   30.4685 C   0  0  0  0  0  0  0  0  0  0  0  0
   -2.8063   57.8526   30.1803 C   0  0  0  0  0  0  0  0  0  0  0  0
   -1.3863   57.7819   30.0343 C   0  0  0  0  0  0  0  0  0  0  0  0
   -3.2126   61.4813   31.0600 N   0  0  0  0  0  0  0  0  0  0  0  0
   -2.6174   62.2497   31.2170 H   0  0  0  0  0  0  0  0  0  0  0  0
   -4.1872   61.5871   31.1506 H   0  0  0  0  0  0  0  0  0  0  0  0
   -4.9714   59.1021   30.6078 C   0  0  0  0  0  0  0  0  0  0  0  0
   -5.5558   60.2230   30.5716 O   0  0  0  0  0  0  0  0  0  0  0  0
   -5.5669   57.8882   30.9086 O   0  0  0  0  0  0  0  0  0  0  0  0
   -7.0050   58.0524   30.8839 C   0  0  0  0  0  0  0  0  0  0  0  0
  2  1  1  0  0  0
  7  2  2  0  0  0
  2  3  1  0  0  0
  3  4  2  0  0  0
  5  4  1  0  0  0
  4  8  1  0  0  0
  6  5  2  0  0  0
  5 11  1  0  0  0
  7  6  1  0  0  0
 13 11  1  0  0  0
 11 12  2  0  0  0
 14 13  1  0  0  0
  8  9  1  0  0  0
  8 10  1  0  0  0
M  END
> <minimizedAffinity>
-6.09455

$$$$
3MS9_MS9_A_516


 14 14  0  0  0  0  0  0  0  0999 V2000
   -1.8578   57.1773   29.9463 Cl  0  0  0  0  0  0  0  0  0  0  0  0
   -2.2199   58.8224   30.4343 C   0  0  0  0  0  0  0  0  0  0  0  0
   -3.5165   59.2874   30.3604 C   0  0  0  0  0  0  0  0  0  0  0  0
   -3.8644   60.6215   30.7529 C   0  0  0  0  0  0  0  0  0  0  0  0
   -2.8143   61.4917   31.1750 C   0  0  0  0  0  0  0  0  0  0  0  0
   -1.4596   61.0148   31.1734 C   0  0  0  0  0  0  0  0  0  0  0  0
   -1.1506   59.6559   30.8558 C   0  0  0  0  0  0  0  0  0  0  0  0
   -5.1799   60.9973   30.6579 N   0  0  0  0  0  0  0  0  0  0  0  0
   -5.8571   60.3479   30.3596 H   0  0  0  0  0  0  0  0  0  0  0  0
   -5.4471   61.9165   30.8879 H   0  0  0  0  0  0  0  0  0  0  0  0
   -3.0734   62.9397   31.5229 C   0  0  0  0  0  0  0  0  0  0  0  0
   -2.2386   63.5173   32.2770 O   0  0  0  0  0  0  0  0  0  0  0  0
   -4.2828   63.4667   31.1008 O   0  0  0  0  0  0  0  0  0  0  0  0
   -4.1919   64.9115   31.1051 C   0  0  0  0  0  0  0  0  0  0  0  0
  2  1  1  0  0  0
  7  2  2  0  0  0
  2  3  1  0  0  0
  3  4  2  0  0  0
  5  4  1  0  0  0
  4  8  1  0  0  0
  6  5  2  0  0  0
  5 11  1  0  0  0
  7  6  1  0  0  0
 13 11  1  0  0  0
 11 12  2  0  0  0
 14 13  1  0  0  0
  8  9  1  0  0  0
  8 10  1  0  0  0
M  END
> <minimizedAffinity>
-5.87119

$$$$
3MS9_MS9_A_516


 14 14  0  0  0  0  0  0  0  0999 V2000
   -2.8053   65.0080   32.1345 Cl  0  0  0  0  0  0  0  0  0  0  0  0
   -2.9548   63.3236   31.6700 C   0  0  0  0  0  0  0  0  0  0  0  0
   -1.9024   62.4588   31.8874 C   0  0  0  0  0  0  0  0  0  0  0  0
   -1.9776   61.0723   31.5311 C   0  0  0  0  0  0  0  0  0  0  0  0
   -3.1629   60.6097   30.8835 C   0  0  0  0  0  0  0  0  0  0  0  0
   -4.2185   61.5402   30.5961 C   0  0  0  0  0  0  0  0  0  0  0  0
   -4.1517   62.8985   31.0354 C   0  0  0  0  0  0  0  0  0  0  0  0
   -0.8887   60.2810   31.7934 N   0  0  0  0  0  0  0  0  0  0  0  0
   -0.1005   60.6618   32.2440 H   0  0  0  0  0  0  0  0  0  0  0  0
   -0.8951   59.3321   31.5310 H   0  0  0  0  0  0  0  0  0  0  0  0
   -3.2966   59.1863   30.3927 C   0  0  0  0  0  0  0  0  0  0  0  0
   -4.3306   58.5448   30.7371 O   0  0  0  0  0  0  0  0  0  0  0  0
   -2.2023   58.6602   29.7261 O   0  0  0  0  0  0  0  0  0  0  0  0
   -2.0357   57.2763   30.1173 C   0  0  0  0  0  0  0  0  0  0  0  0
  2  1  1  0  0  0
  7  2  2  0  0  0
  2  3  1  0  0  0
  3  4  2  0  0  0
  5  4  1  0  0  0
  4  8  1  0  0  0
  6  5  2  0  0  0
  5 11  1  0  0  0
  7  6  1  0  0  0
 13 11  1  0  0  0
 11 12  2  0  0  0
 14 13  1  0  0  0
  8  9  1  0  0  0
  8 10  1  0  0  0
M  END
> <minimizedAffinity>
-5.62667

$$$$
3MS9_MS9_A_516


 14 14  0  0  0  0  0  0  0  0999 V2000
   -7.2577   58.5359   30.2100 Cl  0  0  0  0  0  0  0  0  0  0  0  0
   -5.6647   59.2071   30.5056 C   0  0  0  0  0  0  0  0  0  0  0  0
   -5.5096   60.5727   30.6233 C   0  0  0  0  0  0  0  0  0  0  0  0
   -4.2299   61.1694   30.8708 C   0  0  0  0  0  0  0  0  0  0  0  0
   -3.0912   60.3108   30.9372 C   0  0  0  0  0  0  0  0  0  0  0  0
   -3.2600   58.8987   30.7365 C   0  0  0  0  0  0  0  0  0  0  0  0
   -4.5571   58.3213   30.5731 C   0  0  0  0  0  0  0  0  0  0  0  0
   -4.1684   62.5346   30.9854 N   0  0  0  0  0  0  0  0  0  0  0  0
   -4.9923   63.0708   30.9307 H   0  0  0  0  0  0  0  0  0  0  0  0
   -3.3004   62.9785   31.1223 H   0  0  0  0  0  0  0  0  0  0  0  0
   -1.6922   60.8576   31.1063 C   0  0  0  0  0  0  0  0  0  0  0  0
   -1.5156   61.7464   31.9883 O   0  0  0  0  0  0  0  0  0  0  0  0
   -0.7522   60.4396   30.1788 O   0  0  0  0  0  0  0  0  0  0  0  0
    0.2484   59.6396   30.8532 C   0  0  0  0  0  0  0  0  0  0  0  0
  2  1  1  0  0  0
  7  2  2  0  0  0
  2  3  1  0  0  0
  3  4  2  0  0  0
  5  4  1  0  0  0
  4  8  1  0  0  0
  6  5  2  0  0  0
  5 11  1  0  0  0
  7  6  1  0  0  0
 13 11  1  0  0  0
 11 12  2  0  0  0
 14 13  1  0  0  0
  8  9  1  0  0  0
  8 10  1  0  0  0
M  END
> <minimizedAffinity>
-5.43120

$$$$
3MS9_MS9_A_516


 14 14  0  0  0  0  0  0  0  0999 V2000
   -7.1773   59.5282   30.4191 Cl  0  0  0  0  0  0  0  0  0  0  0  0
   -5.4305   59.6487   30.5173 C   0  0  0  0  0  0  0  0  0  0  0  0
   -4.6612   58.5065   30.4363 C   0  0  0  0  0  0  0  0  0  0  0  0
   -3.2301   58.5529   30.5052 C   0  0  0  0  0  0  0  0  0  0  0  0
   -2.6098   59.8207   30.7204 C   0  0  0  0  0  0  0  0  0  0  0  0
   -3.4297   60.9892   30.8787 C   0  0  0  0  0  0  0  0  0  0  0  0
   -4.8491   60.9274   30.7239 C   0  0  0  0  0  0  0  0  0  0  0  0
   -2.5429   57.3704   30.4045 N   0  0  0  0  0  0  0  0  0  0  0  0
   -3.0310   56.5285   30.2556 H   0  0  0  0  0  0  0  0  0  0  0  0
   -1.5614   57.3634   30.4812 H   0  0  0  0  0  0  0  0  0  0  0  0
   -1.1143   59.9545   30.8945 C   0  0  0  0  0  0  0  0  0  0  0  0
   -0.6953   60.4589   31.9758 O   0  0  0  0  0  0  0  0  0  0  0  0
   -0.3365   59.6449   29.7909 O   0  0  0  0  0  0  0  0  0  0  0  0
    0.7448   58.7772   30.2078 C   0  0  0  0  0  0  0  0  0  0  0  0
  2  1  1  0  0  0
  7  2  2  0  0  0
  2  3  1  0  0  0
  3  4  2  0  0  0
  5  4  1  0  0  0
  4  8  1  0  0  0
  6  5  2  0  0  0
  5 11  1  0  0  0
  7  6  1  0  0  0
 13 11  1  0  0  0
 11 12  2  0  0  0
 14 13  1  0  0  0
  8  9  1  0  0  0
  8 10  1  0  0  0
M  END
> <minimizedAffinity>
-5.36613

$$$$
3MS9_MS9_A_516


 14 14  0  0  0  0  0  0  0  0999 V2000
   -0.5874   60.1683   29.9475 Cl  0  0  0  0  0  0  0  0  0  0  0  0
   -2.2120   59.5469   30.1710 C   0  0  0  0  0  0  0  0  0  0  0  0
   -3.2636   60.4252   30.3305 C   0  0  0  0  0  0  0  0  0  0  0  0
   -4.6101   59.9673   30.5102 C   0  0  0  0  0  0  0  0  0  0  0  0
   -4.8359   58.5593   30.5791 C   0  0  0  0  0  0  0  0  0  0  0  0
   -3.7195   57.6606   30.4874 C   0  0  0  0  0  0  0  0  0  0  0  0
   -2.3988   58.1405   30.2264 C   0  0  0  0  0  0  0  0  0  0  0  0
   -5.5966   60.9097   30.6498 N   0  0  0  0  0  0  0  0  0  0  0  0
   -5.3745   61.8671   30.5917 H   0  0  0  0  0  0  0  0  0  0  0  0
   -6.5268   60.6289   30.8079 H   0  0  0  0  0  0  0  0  0  0  0  0
   -6.2076   57.9868   30.8543 C   0  0  0  0  0  0  0  0  0  0  0  0
   -7.2067   58.6349   30.4289 O   0  0  0  0  0  0  0  0  0  0  0  0
   -6.2556   56.8732   31.6766 O   0  0  0  0  0  0  0  0  0  0  0  0
   -7.5210   56.1983   31.4787 C   0  0  0  0  0  0  0  0  0  0  0  0
  2  1  1  0  0  0
  7  2  2  0  0  0
  2  3  1  0  0  0
  3  4  2  0  0  0
  5  4  1  0  0  0
  4  8  1  0  0  0
  6  5  2  0  0  0
  5 11  1  0  0  0
  7  6  1  0  0  0
 13 11  1  0  0  0
 11 12  2  0  0  0
 14 13  1  0  0  0
  8  9  1  0  0  0
  8 10  1  0  0  0
M  END
> <minimizedAffinity>
-5.10642

$$$$
3MS9_MS9_A_516


 14 14  0  0  0  0  0  0  0  0999 V2000
    0.7982   58.6409   30.1957 Cl  0  0  0  0  0  0  0  0  0  0  0  0
   -0.8175   59.2818   30.4287 C   0  0  0  0  0  0  0  0  0  0  0  0
   -1.9065   58.4403   30.3350 C   0  0  0  0  0  0  0  0  0  0  0  0
   -3.2462   58.9144   30.5231 C   0  0  0  0  0  0  0  0  0  0  0  0
   -3.4371   60.3098   30.7568 C   0  0  0  0  0  0  0  0  0  0  0  0
   -2.2979   61.1841   30.7755 C   0  0  0  0  0  0  0  0  0  0  0  0
   -0.9675   60.6734   30.6669 C   0  0  0  0  0  0  0  0  0  0  0  0
   -4.2694   58.0067   30.4237 N   0  0  0  0  0  0  0  0  0  0  0  0
   -4.0703   57.0563   30.2613 H   0  0  0  0  0  0  0  0  0  0  0  0
   -5.2030   58.3055   30.5146 H   0  0  0  0  0  0  0  0  0  0  0  0
   -4.8174   60.9137   30.8789 C   0  0  0  0  0  0  0  0  0  0  0  0
   -4.9036   62.0812   31.3573 O   0  0  0  0  0  0  0  0  0  0  0  0
   -5.8826   60.0770   30.5895 O   0  0  0  0  0  0  0  0  0  0  0  0
   -7.1007   60.6778   31.0908 C   0  0  0  0  0  0  0  0  0  0  0  0
  2  1  1  0  0  0
  7  2  2  0  0  0
  2  3  1  0  0  0
  3  4  2  0  0  0
  5  4  1  0  0  0
  4  8  1  0  0  0
  6  5  2  0  0  0
  5 11  1  0  0  0
  7  6  1  0  0  0
 13 11  1  0  0  0
 11 12  2  0  0  0
 14 13  1  0  0  0
  8  9  1  0  0  0
  8 10  1  0  0  0
M  END
> <minimizedAffinity>
-4.88894

$$$$
3MS9_MS9_A_516


 14 14  0  0  0  0  0  0  0  0999 V2000
  -10.3031   55.7591   31.3373 Cl  0  0  0  0  0  0  0  0  0  0  0  0
   -8.8293   56.6951   31.1718 C   0  0  0  0  0  0  0  0  0  0  0  0
   -8.8398   57.8619   30.4362 C   0  0  0  0  0  0  0  0  0  0  0  0
   -7.6633   58.6651   30.2762 C   0  0  0  0  0  0  0  0  0  0  0  0
   -6.4464   58.1948   30.8562 C   0  0  0  0  0  0  0  0  0  0  0  0
   -6.4366   56.9397   31.5542 C   0  0  0  0  0  0  0  0  0  0  0  0
   -7.6403   56.1996   31.7690 C   0  0  0  0  0  0  0  0  0  0  0  0
   -7.7660   59.8162   29.5379 N   0  0  0  0  0  0  0  0  0  0  0  0
   -8.6363   60.0856   29.1646 H   0  0  0  0  0  0  0  0  0  0  0  0
   -6.9695   60.3731   29.3811 H   0  0  0  0  0  0  0  0  0  0  0  0
   -5.1390   58.9290   30.6650 C   0  0  0  0  0  0  0  0  0  0  0  0
   -5.1824   60.1912   30.6000 O   0  0  0  0  0  0  0  0  0  0  0  0
   -4.0214   58.1445   30.4322 O   0  0  0  0  0  0  0  0  0  0  0  0
   -2.8519   58.9965   30.3856 C   0  0  0  0  0  0  0  0  0  0  0  0
  2  1  1  0  0  0
  7  2  2  0  0  0
  2  3  1  0  0  0
  3  4  2  0  0  0
  5  4  1  0  0  0
  4  8  1  0  0  0
  6  5  2  0  0  0
  5 11  1  0  0  0
  7  6  1  0  0  0
 13 11  1  0  0  0
 11 12  2  0  0  0
 14 13  1  0  0  0
  8  9  1  0  0  0
  8 10  1  0  0  0
M  END
> <minimizedAffinity>
-4.73941

$$$$
3MS9_MS9_A_516


 14 14  0  0  0  0  0  0  0  0999 V2000
   -9.1789   58.2332   30.7849 Cl  0  0  0  0  0  0  0  0  0  0  0  0
   -7.4349   58.4140   30.8180 C   0  0  0  0  0  0  0  0  0  0  0  0
   -6.8717   59.6516   30.5859 C   0  0  0  0  0  0  0  0  0  0  0  0
   -5.4524   59.8522   30.6080 C   0  0  0  0  0  0  0  0  0  0  0  0
   -4.6176   58.7140   30.8223 C   0  0  0  0  0  0  0  0  0  0  0  0
   -5.2181   57.4198   30.9864 C   0  0  0  0  0  0  0  0  0  0  0  0
   -6.6374   57.2609   31.0419 C   0  0  0  0  0  0  0  0  0  0  0  0
   -4.9783   61.1183   30.3780 N   0  0  0  0  0  0  0  0  0  0  0  0
   -5.6081   61.8618   30.2375 H   0  0  0  0  0  0  0  0  0  0  0  0
   -4.0081   61.2837   30.3534 H   0  0  0  0  0  0  0  0  0  0  0  0
   -3.1101   58.8137   30.7744 C   0  0  0  0  0  0  0  0  0  0  0  0
   -2.5808   59.8734   31.2172 O   0  0  0  0  0  0  0  0  0  0  0  0
   -2.4468   57.7922   30.1148 O   0  0  0  0  0  0  0  0  0  0  0  0
   -1.0738   58.1927   29.8904 C   0  0  0  0  0  0  0  0  0  0  0  0
  2  1  1  0  0  0
  7  2  2  0  0  0
  2  3  1  0  0  0
  3  4  2  0  0  0
  5  4  1  0  0  0
  4  8  1  0  0  0
  6  5  2  0  0  0
  5 11  1  0  0  0
  7  6  1  0  0  0
 13 11  1  0  0  0
 11 12  2  0  0  0
 14 13  1  0  0  0
  8  9  1  0  0  0
  8 10  1  0  0  0
M  END
> <minimizedAffinity>
-4.66920

$$$$
3MS9_MS9_A_516


 14 14  0  0  0  0  0  0  0  0999 V2000
   -0.8020   58.1701   30.3631 Cl  0  0  0  0  0  0  0  0  0  0  0  0
   -2.4649   58.7249   30.4134 C   0  0  0  0  0  0  0  0  0  0  0  0
   -2.7356   60.0769   30.3734 C   0  0  0  0  0  0  0  0  0  0  0  0
   -4.0775   60.5801   30.4058 C   0  0  0  0  0  0  0  0  0  0  0  0
   -5.1433   59.6397   30.5402 C   0  0  0  0  0  0  0  0  0  0  0  0
   -4.8392   58.2410   30.6571 C   0  0  0  0  0  0  0  0  0  0  0  0
   -3.4985   57.7598   30.5395 C   0  0  0  0  0  0  0  0  0  0  0  0
   -4.2563   61.9387   30.3502 N   0  0  0  0  0  0  0  0  0  0  0  0
   -3.4779   62.5342   30.2568 H   0  0  0  0  0  0  0  0  0  0  0  0
   -5.1630   62.3184   30.4038 H   0  0  0  0  0  0  0  0  0  0  0  0
   -6.5825   60.0828   30.6715 C   0  0  0  0  0  0  0  0  0  0  0  0
   -7.4276   59.5612   29.8886 O   0  0  0  0  0  0  0  0  0  0  0  0
   -6.8261   61.1311   31.5435 O   0  0  0  0  0  0  0  0  0  0  0  0
   -8.2229   61.1100   31.9236 C   0  0  0  0  0  0  0  0  0  0  0  0
  2  1  1  0  0  0
  7  2  2  0  0  0
  2  3  1  0  0  0
  3  4  2  0  0  0
  5  4  1  0  0  0
  4  8  1  0  0  0
  6  5  2  0  0  0
  5 11  1  0  0  0
  7  6  1  0  0  0
 13 11  1  0  0  0
 11 12  2  0  0  0
 14 13  1  0  0  0
  8  9  1  0  0  0
  8 10  1  0  0  0
M  END
> <minimizedAffinity>
-4.51618

$$$$
