4G8Y_0FT_A_201


 28 30  0  0  0  0  0  0  0  0999 V2000
   37.7121    1.3413   24.1236 C   0  0  0  0  0  0  0  0  0  0  0  0
   38.7012    0.4545   23.6515 C   0  0  0  0  0  0  0  0  0  0  0  0
   36.6912    0.5111   24.5759 N   0  0  0  0  0  0  0  0  0  0  0  0
   37.0059   -0.7601   24.3780 N   0  0  0  0  0  0  0  0  0  0  0  0
   38.1525   -0.8366   23.8144 N   0  0  0  0  0  0  0  0  0  0  0  0
   38.8673   -2.0183   23.4796 C   0  0  0  0  0  0  0  0  0  0  0  0
   39.6326   -1.8936   22.3053 O   0  0  0  0  0  0  0  0  0  0  0  0
   38.8278   -2.3035   21.1509 C   0  0  0  0  0  0  0  0  0  0  0  0
   37.4605   -2.6767   21.7340 C   0  0  0  0  0  0  0  0  0  0  0  0
   36.4961   -1.6380   21.6098 O   0  0  0  0  0  0  0  0  0  0  0  0
   37.7885   -3.0390   23.1793 C   0  0  0  0  0  0  0  0  0  0  0  0
   38.3633   -4.3366   23.2618 O   0  0  0  0  0  0  0  0  0  0  0  0
   36.8201   -0.8407   22.0572 H   0  0  0  0  0  0  0  0  0  0  0  0
   39.1408   -4.3831   22.6837 H   0  0  0  0  0  0  0  0  0  0  0  0
   39.5333   -3.3991   20.3906 C   0  0  0  0  0  0  0  0  0  0  0  0
   39.0672   -3.4717   19.0479 O   0  0  0  0  0  0  0  0  0  0  0  0
   39.2449   -2.6309   18.5981 H   0  0  0  0  0  0  0  0  0  0  0  0
   37.7960    2.8915   24.2094 C   0  0  0  0  0  0  0  0  0  0  0  0
   34.9749    5.8327   23.3702 C   0  0  0  0  0  0  0  0  0  0  0  0
   36.1096    5.7275   22.5889 C   0  0  0  0  0  0  0  0  0  0  0  0
   37.0159    4.7397   22.8903 C   0  0  0  0  0  0  0  0  0  0  0  0
   36.7665    3.8659   23.9261 N   0  0  0  0  0  0  0  0  0  0  0  0
   34.7785    4.9787   24.3900 N   0  0  0  0  0  0  0  0  0  0  0  0
   35.4595    3.2694   25.5885 O   0  0  0  0  0  0  0  0  0  0  0  0
   35.6820    4.0138   24.6734 C   0  0  0  0  0  0  0  0  0  0  0  0
   34.0500    6.8117   23.0943 O   0  0  0  0  0  0  0  0  0  0  0  0
   36.3261    6.6645   21.4663 C   0  0  0  0  0  0  0  0  0  0  0  0
   33.9647    5.0572   24.9383 H   0  0  0  0  0  0  0  0  0  0  0  0
 12 11  1  0  0  0
 11  6  1  0  0  0
 11  9  1  0  0  0
 16 15  1  0  0  0
  6  7  1  0  0  0
  6  5  1  0  0  0
 15  8  1  0  0  0
 27 20  1  0  0  0
  7  8  1  0  0  0
  9  8  1  0  0  0
  9 10  1  0  0  0
  2  5  1  0  0  0
  2  1  2  0  0  0
  5  4  1  0  0  0
 20 21  2  0  0  0
 20 19  1  0  0  0
 21 22  1  0  0  0
 26 19  2  0  0  0
 19 23  1  0  0  0
  1 18  1  0  0  0
  1  3  1  0  0  0
  4  3  2  0  0  0
 22 18  1  0  0  0
 22 25  1  0  0  0
 23 25  1  0  0  0
 25 24  2  0  0  0
 23 28  1  0  0  0
 16 17  1  0  0  0
 10 13  1  0  0  0
 12 14  1  0  0  0
M  END
> <minimizedAffinity>
-7.42494

$$$$
4G8Y_0FT_A_201


 28 30  0  0  0  0  0  0  0  0999 V2000
   37.3245    1.2439   23.9615 C   0  0  0  0  0  0  0  0  0  0  0  0
   37.2758    0.3501   22.8723 C   0  0  0  0  0  0  0  0  0  0  0  0
   37.1824    0.4312   25.0819 N   0  0  0  0  0  0  0  0  0  0  0  0
   37.0333   -0.8342   24.7204 N   0  0  0  0  0  0  0  0  0  0  0  0
   37.0504   -0.9215   23.4435 N   0  0  0  0  0  0  0  0  0  0  0  0
   36.9708   -2.1064   22.6631 C   0  0  0  0  0  0  0  0  0  0  0  0
   37.0295   -3.2847   23.4302 O   0  0  0  0  0  0  0  0  0  0  0  0
   38.4248   -3.7143   23.5613 C   0  0  0  0  0  0  0  0  0  0  0  0
   39.2374   -2.6554   22.8082 C   0  0  0  0  0  0  0  0  0  0  0  0
   39.8123   -1.6761   23.6655 O   0  0  0  0  0  0  0  0  0  0  0  0
   38.2275   -2.0854   21.8168 C   0  0  0  0  0  0  0  0  0  0  0  0
   38.0416   -2.9652   20.7158 O   0  0  0  0  0  0  0  0  0  0  0  0
   39.1100   -1.2333   24.1672 H   0  0  0  0  0  0  0  0  0  0  0  0
   37.7845   -3.8417   21.0421 H   0  0  0  0  0  0  0  0  0  0  0  0
   38.5795   -5.1302   23.0640 C   0  0  0  0  0  0  0  0  0  0  0  0
   37.3690   -5.6039   22.4847 O   0  0  0  0  0  0  0  0  0  0  0  0
   37.1315   -5.0440   21.7291 H   0  0  0  0  0  0  0  0  0  0  0  0
   37.5820    2.7766   23.9155 C   0  0  0  0  0  0  0  0  0  0  0  0
   34.9857    5.9759   23.3352 C   0  0  0  0  0  0  0  0  0  0  0  0
   36.0745    5.8157   22.4998 C   0  0  0  0  0  0  0  0  0  0  0  0
   36.9063    4.7436   22.7161 C   0  0  0  0  0  0  0  0  0  0  0  0
   36.6272    3.8446   23.7222 N   0  0  0  0  0  0  0  0  0  0  0  0
   34.7604    5.0930   24.3238 N   0  0  0  0  0  0  0  0  0  0  0  0
   35.3441    3.2782   25.4136 O   0  0  0  0  0  0  0  0  0  0  0  0
   35.5905    4.0449   24.5234 C   0  0  0  0  0  0  0  0  0  0  0  0
   34.1357    7.0396   23.1447 O   0  0  0  0  0  0  0  0  0  0  0  0
   36.3226    6.7845   21.4112 C   0  0  0  0  0  0  0  0  0  0  0  0
   33.9792    5.2116   24.9112 H   0  0  0  0  0  0  0  0  0  0  0  0
 12 11  1  0  0  0
 11  6  1  0  0  0
 11  9  1  0  0  0
 16 15  1  0  0  0
  6  7  1  0  0  0
  6  5  1  0  0  0
 15  8  1  0  0  0
 27 20  1  0  0  0
  7  8  1  0  0  0
  9  8  1  0  0  0
  9 10  1  0  0  0
  2  5  1  0  0  0
  2  1  2  0  0  0
  5  4  1  0  0  0
 20 21  2  0  0  0
 20 19  1  0  0  0
 21 22  1  0  0  0
 26 19  2  0  0  0
 19 23  1  0  0  0
  1 18  1  0  0  0
  1  3  1  0  0  0
  4  3  2  0  0  0
 22 18  1  0  0  0
 22 25  1  0  0  0
 23 25  1  0  0  0
 25 24  2  0  0  0
 23 28  1  0  0  0
 16 17  1  0  0  0
 10 13  1  0  0  0
 12 14  1  0  0  0
M  END
> <minimizedAffinity>
-7.40757

$$$$
4G8Y_0FT_A_201


 28 30  0  0  0  0  0  0  0  0999 V2000
   38.3282    1.6365   23.3388 C   0  0  0  0  0  0  0  0  0  0  0  0
   37.4481    0.6808   22.7913 C   0  0  0  0  0  0  0  0  0  0  0  0
   39.5902    1.2200   22.9269 N   0  0  0  0  0  0  0  0  0  0  0  0
   39.5016    0.1040   22.2191 N   0  0  0  0  0  0  0  0  0  0  0  0
   38.2771   -0.2606   22.1426 N   0  0  0  0  0  0  0  0  0  0  0  0
   37.7563   -1.3754   21.4317 C   0  0  0  0  0  0  0  0  0  0  0  0
   36.5707   -1.8886   21.9897 O   0  0  0  0  0  0  0  0  0  0  0  0
   36.9006   -2.9307   22.9663 C   0  0  0  0  0  0  0  0  0  0  0  0
   38.4318   -2.9951   22.9744 C   0  0  0  0  0  0  0  0  0  0  0  0
   39.0171   -2.2737   24.0522 O   0  0  0  0  0  0  0  0  0  0  0  0
   38.8078   -2.4535   21.5985 C   0  0  0  0  0  0  0  0  0  0  0  0
   38.6063   -3.4363   20.5914 O   0  0  0  0  0  0  0  0  0  0  0  0
   38.7431   -1.3444   24.0058 H   0  0  0  0  0  0  0  0  0  0  0  0
   37.6897   -3.7519   20.6263 H   0  0  0  0  0  0  0  0  0  0  0  0
   36.1960   -4.2162   22.6097 C   0  0  0  0  0  0  0  0  0  0  0  0
   37.1055   -5.3107   22.5946 O   0  0  0  0  0  0  0  0  0  0  0  0
   37.4981   -5.4170   23.4753 H   0  0  0  0  0  0  0  0  0  0  0  0
   37.9543    2.9187   24.1349 C   0  0  0  0  0  0  0  0  0  0  0  0
   34.9634    5.7253   23.4349 C   0  0  0  0  0  0  0  0  0  0  0  0
   36.1180    5.7496   22.6766 C   0  0  0  0  0  0  0  0  0  0  0  0
   37.0811    4.8030   22.9301 C   0  0  0  0  0  0  0  0  0  0  0  0
   36.8689    3.8429   23.8953 N   0  0  0  0  0  0  0  0  0  0  0  0
   34.8030    4.7895   24.3869 N   0  0  0  0  0  0  0  0  0  0  0  0
   35.5706    3.0458   25.4787 O   0  0  0  0  0  0  0  0  0  0  0  0
   35.7621    3.8667   24.6241 C   0  0  0  0  0  0  0  0  0  0  0  0
   33.9817    6.6602   23.2056 O   0  0  0  0  0  0  0  0  0  0  0  0
   36.2950    6.7768   21.6283 C   0  0  0  0  0  0  0  0  0  0  0  0
   33.9749    4.7760   24.9190 H   0  0  0  0  0  0  0  0  0  0  0  0
 12 11  1  0  0  0
 11  6  1  0  0  0
 11  9  1  0  0  0
 16 15  1  0  0  0
  6  7  1  0  0  0
  6  5  1  0  0  0
 15  8  1  0  0  0
 27 20  1  0  0  0
  7  8  1  0  0  0
  9  8  1  0  0  0
  9 10  1  0  0  0
  2  5  1  0  0  0
  2  1  2  0  0  0
  5  4  1  0  0  0
 20 21  2  0  0  0
 20 19  1  0  0  0
 21 22  1  0  0  0
 26 19  2  0  0  0
 19 23  1  0  0  0
  1 18  1  0  0  0
  1  3  1  0  0  0
  4  3  2  0  0  0
 22 18  1  0  0  0
 22 25  1  0  0  0
 23 25  1  0  0  0
 25 24  2  0  0  0
 23 28  1  0  0  0
 16 17  1  0  0  0
 10 13  1  0  0  0
 12 14  1  0  0  0
M  END
> <minimizedAffinity>
-7.35699

$$$$
4G8Y_0FT_A_201


 28 30  0  0  0  0  0  0  0  0999 V2000
   36.0896    3.6904   23.5575 C   0  0  0  0  0  0  0  0  0  0  0  0
   37.1036    3.0915   22.7825 C   0  0  0  0  0  0  0  0  0  0  0  0
   36.1429    3.0188   24.7749 N   0  0  0  0  0  0  0  0  0  0  0  0
   37.0774    2.0807   24.7458 N   0  0  0  0  0  0  0  0  0  0  0  0
   37.6387    2.0683   23.5956 N   0  0  0  0  0  0  0  0  0  0  0  0
   38.7194    1.2461   23.1767 C   0  0  0  0  0  0  0  0  0  0  0  0
   38.6461    0.8761   21.8209 O   0  0  0  0  0  0  0  0  0  0  0  0
   37.9115   -0.3862   21.6972 C   0  0  0  0  0  0  0  0  0  0  0  0
   37.5109   -0.7531   23.1303 C   0  0  0  0  0  0  0  0  0  0  0  0
   36.1706   -0.3953   23.4464 O   0  0  0  0  0  0  0  0  0  0  0  0
   38.5543   -0.0300   23.9766 C   0  0  0  0  0  0  0  0  0  0  0  0
   39.7921   -0.7290   23.9667 O   0  0  0  0  0  0  0  0  0  0  0  0
   36.0533    0.5597   23.3234 H   0  0  0  0  0  0  0  0  0  0  0  0
   40.0839   -0.8570   23.0505 H   0  0  0  0  0  0  0  0  0  0  0  0
   38.7546   -1.4072   20.9743 C   0  0  0  0  0  0  0  0  0  0  0  0
   37.9757   -2.5353   20.5921 O   0  0  0  0  0  0  0  0  0  0  0  0
   37.2676   -2.2514   19.9930 H   0  0  0  0  0  0  0  0  0  0  0  0
   35.1896    4.8966   23.1668 C   0  0  0  0  0  0  0  0  0  0  0  0
   35.0743    8.5760   25.1064 C   0  0  0  0  0  0  0  0  0  0  0  0
   36.2920    8.0078   24.7851 C   0  0  0  0  0  0  0  0  0  0  0  0
   36.2920    6.7956   24.1381 C   0  0  0  0  0  0  0  0  0  0  0  0
   35.1000    6.1945   23.7970 N   0  0  0  0  0  0  0  0  0  0  0  0
   33.9314    7.9469   24.7814 N   0  0  0  0  0  0  0  0  0  0  0  0
   32.9043    6.2337   23.8693 O   0  0  0  0  0  0  0  0  0  0  0  0
   33.9502    6.7536   24.1464 C   0  0  0  0  0  0  0  0  0  0  0  0
   35.0416    9.7878   25.7550 O   0  0  0  0  0  0  0  0  0  0  0  0
   37.5495    8.6991   25.1401 C   0  0  0  0  0  0  0  0  0  0  0  0
   33.0680    8.3615   25.0092 H   0  0  0  0  0  0  0  0  0  0  0  0
 12 11  1  0  0  0
 11  6  1  0  0  0
 11  9  1  0  0  0
 16 15  1  0  0  0
  6  7  1  0  0  0
  6  5  1  0  0  0
 15  8  1  0  0  0
 27 20  1  0  0  0
  7  8  1  0  0  0
  9  8  1  0  0  0
  9 10  1  0  0  0
  2  5  1  0  0  0
  2  1  2  0  0  0
  5  4  1  0  0  0
 20 21  2  0  0  0
 20 19  1  0  0  0
 21 22  1  0  0  0
 26 19  2  0  0  0
 19 23  1  0  0  0
  1 18  1  0  0  0
  1  3  1  0  0  0
  4  3  2  0  0  0
 22 18  1  0  0  0
 22 25  1  0  0  0
 23 25  1  0  0  0
 25 24  2  0  0  0
 23 28  1  0  0  0
 16 17  1  0  0  0
 10 13  1  0  0  0
 12 14  1  0  0  0
M  END
> <minimizedAffinity>
-7.02247

$$$$
4G8Y_0FT_A_201


 28 30  0  0  0  0  0  0  0  0999 V2000
   36.7289    3.2147   24.2135 C   0  0  0  0  0  0  0  0  0  0  0  0
   36.8819    4.3980   23.4625 C   0  0  0  0  0  0  0  0  0  0  0  0
   35.4503    3.3112   24.7537 N   0  0  0  0  0  0  0  0  0  0  0  0
   34.8808    4.4520   24.3952 N   0  0  0  0  0  0  0  0  0  0  0  0
   35.6906    5.1275   23.6699 N   0  0  0  0  0  0  0  0  0  0  0  0
   35.4435    6.3802   23.0461 C   0  0  0  0  0  0  0  0  0  0  0  0
   36.4969    7.2997   23.2043 O   0  0  0  0  0  0  0  0  0  0  0  0
   36.2745    8.0950   24.4153 C   0  0  0  0  0  0  0  0  0  0  0  0
   34.9719    7.5513   25.0123 C   0  0  0  0  0  0  0  0  0  0  0  0
   35.1848    6.6226   26.0690 O   0  0  0  0  0  0  0  0  0  0  0  0
   34.2615    6.9514   23.8027 C   0  0  0  0  0  0  0  0  0  0  0  0
   33.6668    7.9669   23.0053 O   0  0  0  0  0  0  0  0  0  0  0  0
   35.7145    5.8781   25.7433 H   0  0  0  0  0  0  0  0  0  0  0  0
   34.3416    8.6164   22.7527 H   0  0  0  0  0  0  0  0  0  0  0  0
   36.2726    9.5651   24.0763 C   0  0  0  0  0  0  0  0  0  0  0  0
   36.0789    9.7678   22.6810 O   0  0  0  0  0  0  0  0  0  0  0  0
   35.2226    9.3969   22.4162 H   0  0  0  0  0  0  0  0  0  0  0  0
   37.7289    2.0292   24.3232 C   0  0  0  0  0  0  0  0  0  0  0  0
   37.9668   -1.2312   21.7490 C   0  0  0  0  0  0  0  0  0  0  0  0
   38.4610   -0.0043   21.3497 C   0  0  0  0  0  0  0  0  0  0  0  0
   38.3725    1.0483   22.2284 C   0  0  0  0  0  0  0  0  0  0  0  0
   37.8331    0.8582   23.4820 N   0  0  0  0  0  0  0  0  0  0  0  0
   37.4226   -1.3723   22.9704 N   0  0  0  0  0  0  0  0  0  0  0  0
   36.8554   -0.5012   24.9046 O   0  0  0  0  0  0  0  0  0  0  0  0
   37.3421   -0.3251   23.8215 C   0  0  0  0  0  0  0  0  0  0  0  0
   38.0398   -2.3034   20.8915 O   0  0  0  0  0  0  0  0  0  0  0  0
   39.0612    0.1520   20.0079 C   0  0  0  0  0  0  0  0  0  0  0  0
   37.0777   -2.2513   23.2490 H   0  0  0  0  0  0  0  0  0  0  0  0
 12 11  1  0  0  0
 11  6  1  0  0  0
 11  9  1  0  0  0
 16 15  1  0  0  0
  6  7  1  0  0  0
  6  5  1  0  0  0
 15  8  1  0  0  0
 27 20  1  0  0  0
  7  8  1  0  0  0
  9  8  1  0  0  0
  9 10  1  0  0  0
  2  5  1  0  0  0
  2  1  2  0  0  0
  5  4  1  0  0  0
 20 21  2  0  0  0
 20 19  1  0  0  0
 21 22  1  0  0  0
 26 19  2  0  0  0
 19 23  1  0  0  0
  1 18  1  0  0  0
  1  3  1  0  0  0
  4  3  2  0  0  0
 22 18  1  0  0  0
 22 25  1  0  0  0
 23 25  1  0  0  0
 25 24  2  0  0  0
 23 28  1  0  0  0
 16 17  1  0  0  0
 10 13  1  0  0  0
 12 14  1  0  0  0
M  END
> <minimizedAffinity>
-6.88410

$$$$
4G8Y_0FT_A_201


 28 30  0  0  0  0  0  0  0  0999 V2000
   38.5598    2.0979   22.8867 C   0  0  0  0  0  0  0  0  0  0  0  0
   38.4231    0.7206   22.6182 C   0  0  0  0  0  0  0  0  0  0  0  0
   39.4448    2.5533   21.9145 N   0  0  0  0  0  0  0  0  0  0  0  0
   39.8370    1.5530   21.1400 N   0  0  0  0  0  0  0  0  0  0  0  0
   39.2909    0.4645   21.5339 N   0  0  0  0  0  0  0  0  0  0  0  0
   39.4138   -0.8211   20.9410 C   0  0  0  0  0  0  0  0  0  0  0  0
   40.1489   -0.8140   19.7410 O   0  0  0  0  0  0  0  0  0  0  0  0
   39.2385   -0.6096   18.6106 C   0  0  0  0  0  0  0  0  0  0  0  0
   37.8496   -0.4646   19.2421 C   0  0  0  0  0  0  0  0  0  0  0  0
   37.4368    0.8897   19.3826 O   0  0  0  0  0  0  0  0  0  0  0  0
   37.9950   -1.2021   20.5698 C   0  0  0  0  0  0  0  0  0  0  0  0
   37.9440   -2.6099   20.3792 O   0  0  0  0  0  0  0  0  0  0  0  0
   38.0801    1.3689   19.9280 H   0  0  0  0  0  0  0  0  0  0  0  0
   38.6189   -2.8736   19.7343 H   0  0  0  0  0  0  0  0  0  0  0  0
   39.3880   -1.7337   17.6155 C   0  0  0  0  0  0  0  0  0  0  0  0
   38.1392   -2.3716   17.3731 O   0  0  0  0  0  0  0  0  0  0  0  0
   37.5127   -1.7275   17.0075 H   0  0  0  0  0  0  0  0  0  0  0  0
   37.8082    2.9298   23.9640 C   0  0  0  0  0  0  0  0  0  0  0  0
   34.8741    5.8294   23.4189 C   0  0  0  0  0  0  0  0  0  0  0  0
   35.9974    5.8303   22.6145 C   0  0  0  0  0  0  0  0  0  0  0  0
   36.9421    4.8534   22.8176 C   0  0  0  0  0  0  0  0  0  0  0  0
   36.7412    3.8876   23.7795 N   0  0  0  0  0  0  0  0  0  0  0  0
   34.7253    4.8865   24.3658 N   0  0  0  0  0  0  0  0  0  0  0  0
   35.4855    3.1079   25.4053 O   0  0  0  0  0  0  0  0  0  0  0  0
   35.6660    3.9338   24.5531 C   0  0  0  0  0  0  0  0  0  0  0  0
   33.9116    6.7948   23.2406 O   0  0  0  0  0  0  0  0  0  0  0  0
   36.1616    6.8652   21.5717 C   0  0  0  0  0  0  0  0  0  0  0  0
   33.9193    4.8899   24.9311 H   0  0  0  0  0  0  0  0  0  0  0  0
 12 11  1  0  0  0
 11  6  1  0  0  0
 11  9  1  0  0  0
 16 15  1  0  0  0
  6  7  1  0  0  0
  6  5  1  0  0  0
 15  8  1  0  0  0
 27 20  1  0  0  0
  7  8  1  0  0  0
  9  8  1  0  0  0
  9 10  1  0  0  0
  2  5  1  0  0  0
  2  1  2  0  0  0
  5  4  1  0  0  0
 20 21  2  0  0  0
 20 19  1  0  0  0
 21 22  1  0  0  0
 26 19  2  0  0  0
 19 23  1  0  0  0
  1 18  1  0  0  0
  1  3  1  0  0  0
  4  3  2  0  0  0
 22 18  1  0  0  0
 22 25  1  0  0  0
 23 25  1  0  0  0
 25 24  2  0  0  0
 23 28  1  0  0  0
 16 17  1  0  0  0
 10 13  1  0  0  0
 12 14  1  0  0  0
M  END
> <minimizedAffinity>
-6.73717

$$$$
4G8Y_0FT_A_201


 28 30  0  0  0  0  0  0  0  0999 V2000
   38.2210    2.5366   22.7496 C   0  0  0  0  0  0  0  0  0  0  0  0
   38.6964    1.3211   23.2828 C   0  0  0  0  0  0  0  0  0  0  0  0
   37.9882    2.2571   21.4066 N   0  0  0  0  0  0  0  0  0  0  0  0
   38.3130    1.0029   21.1313 N   0  0  0  0  0  0  0  0  0  0  0  0
   38.7584    0.4325   22.1870 N   0  0  0  0  0  0  0  0  0  0  0  0
   39.1649   -0.9223   22.3241 C   0  0  0  0  0  0  0  0  0  0  0  0
   38.5912   -1.7767   21.3643 O   0  0  0  0  0  0  0  0  0  0  0  0
   37.3325   -2.3201   21.8828 C   0  0  0  0  0  0  0  0  0  0  0  0
   37.1702   -1.6885   23.2697 C   0  0  0  0  0  0  0  0  0  0  0  0
   36.2957   -0.5662   23.2753 O   0  0  0  0  0  0  0  0  0  0  0  0
   38.6044   -1.3501   23.6653 C   0  0  0  0  0  0  0  0  0  0  0  0
   39.3028   -2.5119   24.0933 O   0  0  0  0  0  0  0  0  0  0  0  0
   36.6297    0.1070   22.6619 H   0  0  0  0  0  0  0  0  0  0  0  0
   39.2609   -3.1884   23.3994 H   0  0  0  0  0  0  0  0  0  0  0  0
   37.3684   -3.8280   21.8534 C   0  0  0  0  0  0  0  0  0  0  0  0
   38.6996   -4.3048   21.6921 O   0  0  0  0  0  0  0  0  0  0  0  0
   39.2429   -4.0054   22.4379 H   0  0  0  0  0  0  0  0  0  0  0  0
   37.9293    3.8560   23.5187 C   0  0  0  0  0  0  0  0  0  0  0  0
   34.6418    6.4021   23.3663 C   0  0  0  0  0  0  0  0  0  0  0  0
   35.7139    6.6146   22.5211 C   0  0  0  0  0  0  0  0  0  0  0  0
   36.7790    5.7496   22.5936 C   0  0  0  0  0  0  0  0  0  0  0  0
   36.7462    4.6852   23.4679 N   0  0  0  0  0  0  0  0  0  0  0  0
   34.6570    5.3682   24.2257 N   0  0  0  0  0  0  0  0  0  0  0  0
   35.6792    3.6141   25.0623 O   0  0  0  0  0  0  0  0  0  0  0  0
   35.7144    4.5280   24.2848 C   0  0  0  0  0  0  0  0  0  0  0  0
   33.5617    7.2513   23.3182 O   0  0  0  0  0  0  0  0  0  0  0  0
   35.6979    7.7498   21.5744 C   0  0  0  0  0  0  0  0  0  0  0  0
   33.8866    5.2208   24.8207 H   0  0  0  0  0  0  0  0  0  0  0  0
 12 11  1  0  0  0
 11  6  1  0  0  0
 11  9  1  0  0  0
 16 15  1  0  0  0
  6  7  1  0  0  0
  6  5  1  0  0  0
 15  8  1  0  0  0
 27 20  1  0  0  0
  7  8  1  0  0  0
  9  8  1  0  0  0
  9 10  1  0  0  0
  2  5  1  0  0  0
  2  1  2  0  0  0
  5  4  1  0  0  0
 20 21  2  0  0  0
 20 19  1  0  0  0
 21 22  1  0  0  0
 26 19  2  0  0  0
 19 23  1  0  0  0
  1 18  1  0  0  0
  1  3  1  0  0  0
  4  3  2  0  0  0
 22 18  1  0  0  0
 22 25  1  0  0  0
 23 25  1  0  0  0
 25 24  2  0  0  0
 23 28  1  0  0  0
 16 17  1  0  0  0
 10 13  1  0  0  0
 12 14  1  0  0  0
M  END
> <minimizedAffinity>
-6.60980

$$$$
4G8Y_0FT_A_201


 28 30  0  0  0  0  0  0  0  0999 V2000
   37.4441    3.8212   22.4789 C   0  0  0  0  0  0  0  0  0  0  0  0
   37.4255    5.2258   22.3593 C   0  0  0  0  0  0  0  0  0  0  0  0
   36.1199    3.4785   22.7333 N   0  0  0  0  0  0  0  0  0  0  0  0
   35.3635    4.5641   22.7923 N   0  0  0  0  0  0  0  0  0  0  0  0
   36.0882    5.6035   22.6114 N   0  0  0  0  0  0  0  0  0  0  0  0
   35.6516    6.9545   22.5513 C   0  0  0  0  0  0  0  0  0  0  0  0
   36.5215    7.8512   23.1990 O   0  0  0  0  0  0  0  0  0  0  0  0
   36.1157    8.0012   24.5995 C   0  0  0  0  0  0  0  0  0  0  0  0
   34.9050    7.0757   24.7621 C   0  0  0  0  0  0  0  0  0  0  0  0
   35.2341    5.8199   25.3445 O   0  0  0  0  0  0  0  0  0  0  0  0
   34.3589    6.9683   23.3416 C   0  0  0  0  0  0  0  0  0  0  0  0
   33.6286    8.1351   22.9866 O   0  0  0  0  0  0  0  0  0  0  0  0
   35.8981    5.3733   24.7963 H   0  0  0  0  0  0  0  0  0  0  0  0
   34.1894    8.9171   23.1086 H   0  0  0  0  0  0  0  0  0  0  0  0
   35.8711    9.4561   24.9148 C   0  0  0  0  0  0  0  0  0  0  0  0
   34.5901    9.6428   25.5060 O   0  0  0  0  0  0  0  0  0  0  0  0
   34.5410    9.1428   26.3358 H   0  0  0  0  0  0  0  0  0  0  0  0
   38.6571    2.8711   22.2703 C   0  0  0  0  0  0  0  0  0  0  0  0
   38.9109   -1.1035   23.4751 C   0  0  0  0  0  0  0  0  0  0  0  0
   38.2403   -0.7810   22.3110 C   0  0  0  0  0  0  0  0  0  0  0  0
   38.1830    0.5407   21.9398 C   0  0  0  0  0  0  0  0  0  0  0  0
   38.8120    1.5004   22.7026 N   0  0  0  0  0  0  0  0  0  0  0  0
   39.4897   -0.1364   24.2083 N   0  0  0  0  0  0  0  0  0  0  0  0
   39.9608    1.9868   24.5113 O   0  0  0  0  0  0  0  0  0  0  0  0
   39.4217    1.1594   23.8289 C   0  0  0  0  0  0  0  0  0  0  0  0
   38.9845   -2.4173   23.8735 O   0  0  0  0  0  0  0  0  0  0  0  0
   37.6050   -1.8433   21.5028 C   0  0  0  0  0  0  0  0  0  0  0  0
   39.9702   -0.3755   25.0337 H   0  0  0  0  0  0  0  0  0  0  0  0
 12 11  1  0  0  0
 11  6  1  0  0  0
 11  9  1  0  0  0
 16 15  1  0  0  0
  6  7  1  0  0  0
  6  5  1  0  0  0
 15  8  1  0  0  0
 27 20  1  0  0  0
  7  8  1  0  0  0
  9  8  1  0  0  0
  9 10  1  0  0  0
  2  5  1  0  0  0
  2  1  2  0  0  0
  5  4  1  0  0  0
 20 21  2  0  0  0
 20 19  1  0  0  0
 21 22  1  0  0  0
 26 19  2  0  0  0
 19 23  1  0  0  0
  1 18  1  0  0  0
  1  3  1  0  0  0
  4  3  2  0  0  0
 22 18  1  0  0  0
 22 25  1  0  0  0
 23 25  1  0  0  0
 25 24  2  0  0  0
 23 28  1  0  0  0
 16 17  1  0  0  0
 10 13  1  0  0  0
 12 14  1  0  0  0
M  END
> <minimizedAffinity>
-6.34459

$$$$
4G8Y_0FT_A_201


 28 30  0  0  0  0  0  0  0  0999 V2000
   37.2118    3.6675   23.1335 C   0  0  0  0  0  0  0  0  0  0  0  0
   36.4219    4.6807   22.5529 C   0  0  0  0  0  0  0  0  0  0  0  0
   36.6640    3.4851   24.3994 N   0  0  0  0  0  0  0  0  0  0  0  0
   35.6546    4.3207   24.5922 N   0  0  0  0  0  0  0  0  0  0  0  0
   35.5001    5.0549   23.5552 N   0  0  0  0  0  0  0  0  0  0  0  0
   34.4981    6.0399   23.3425 C   0  0  0  0  0  0  0  0  0  0  0  0
   34.7862    6.9066   22.2720 O   0  0  0  0  0  0  0  0  0  0  0  0
   35.5280    8.0689   22.7694 C   0  0  0  0  0  0  0  0  0  0  0  0
   35.6935    7.8192   24.2724 C   0  0  0  0  0  0  0  0  0  0  0  0
   36.9670    7.2849   24.6146 O   0  0  0  0  0  0  0  0  0  0  0  0
   34.5301    6.8874   24.5980 C   0  0  0  0  0  0  0  0  0  0  0  0
   33.3080    7.6086   24.6837 O   0  0  0  0  0  0  0  0  0  0  0  0
   37.1048    6.4494   24.1415 H   0  0  0  0  0  0  0  0  0  0  0  0
   33.1661    8.1032   23.8614 H   0  0  0  0  0  0  0  0  0  0  0  0
   34.8087    9.3411   22.3952 C   0  0  0  0  0  0  0  0  0  0  0  0
   34.0322    9.1617   21.2161 O   0  0  0  0  0  0  0  0  0  0  0  0
   33.3661    8.4734   21.3692 H   0  0  0  0  0  0  0  0  0  0  0  0
   38.3663    2.8694   22.4645 C   0  0  0  0  0  0  0  0  0  0  0  0
   38.5406    0.8875   18.8101 C   0  0  0  0  0  0  0  0  0  0  0  0
   38.3455    0.1669   19.9726 C   0  0  0  0  0  0  0  0  0  0  0  0
   38.2855    0.8551   21.1605 C   0  0  0  0  0  0  0  0  0  0  0  0
   38.3855    2.2293   21.1686 N   0  0  0  0  0  0  0  0  0  0  0  0
   38.6609    2.2257   18.8599 N   0  0  0  0  0  0  0  0  0  0  0  0
   38.7057    4.0821   20.0318 O   0  0  0  0  0  0  0  0  0  0  0  0
   38.6013    2.8863   20.0379 C   0  0  0  0  0  0  0  0  0  0  0  0
   38.6061    0.2272   17.6060 O   0  0  0  0  0  0  0  0  0  0  0  0
   38.2111   -1.3042   19.9193 C   0  0  0  0  0  0  0  0  0  0  0  0
   38.7943    2.7320   18.0262 H   0  0  0  0  0  0  0  0  0  0  0  0
 12 11  1  0  0  0
 11  6  1  0  0  0
 11  9  1  0  0  0
 16 15  1  0  0  0
  6  7  1  0  0  0
  6  5  1  0  0  0
 15  8  1  0  0  0
 27 20  1  0  0  0
  7  8  1  0  0  0
  9  8  1  0  0  0
  9 10  1  0  0  0
  2  5  1  0  0  0
  2  1  2  0  0  0
  5  4  1  0  0  0
 20 21  2  0  0  0
 20 19  1  0  0  0
 21 22  1  0  0  0
 26 19  2  0  0  0
 19 23  1  0  0  0
  1 18  1  0  0  0
  1  3  1  0  0  0
  4  3  2  0  0  0
 22 18  1  0  0  0
 22 25  1  0  0  0
 23 25  1  0  0  0
 25 24  2  0  0  0
 23 28  1  0  0  0
 16 17  1  0  0  0
 10 13  1  0  0  0
 12 14  1  0  0  0
M  END
> <minimizedAffinity>
-6.32794

$$$$
4G8Y_0FT_A_201


 28 30  0  0  0  0  0  0  0  0999 V2000
   37.1457    3.0514   23.3224 C   0  0  0  0  0  0  0  0  0  0  0  0
   36.0099    3.7265   23.8143 C   0  0  0  0  0  0  0  0  0  0  0  0
   37.6017    3.8551   22.2822 N   0  0  0  0  0  0  0  0  0  0  0  0
   36.8115    4.9069   22.1287 N   0  0  0  0  0  0  0  0  0  0  0  0
   35.8561    4.8546   22.9788 N   0  0  0  0  0  0  0  0  0  0  0  0
   34.8277    5.8156   23.1744 C   0  0  0  0  0  0  0  0  0  0  0  0
   34.8796    6.8826   22.2583 O   0  0  0  0  0  0  0  0  0  0  0  0
   35.7049    7.9612   22.8097 C   0  0  0  0  0  0  0  0  0  0  0  0
   36.1852    7.4375   24.1676 C   0  0  0  0  0  0  0  0  0  0  0  0
   37.5044    6.9060   24.1282 O   0  0  0  0  0  0  0  0  0  0  0  0
   35.1207    6.4091   24.5374 C   0  0  0  0  0  0  0  0  0  0  0  0
   33.9413    7.0445   25.0129 O   0  0  0  0  0  0  0  0  0  0  0  0
   37.5426    6.1831   23.4827 H   0  0  0  0  0  0  0  0  0  0  0  0
   33.6268    7.6797   24.3507 H   0  0  0  0  0  0  0  0  0  0  0  0
   34.9176    9.2475   22.8484 C   0  0  0  0  0  0  0  0  0  0  0  0
   33.5361    9.0090   22.6033 O   0  0  0  0  0  0  0  0  0  0  0  0
   33.1833    8.4196   23.2882 H   0  0  0  0  0  0  0  0  0  0  0  0
   37.7934    1.7559   23.8876 C   0  0  0  0  0  0  0  0  0  0  0  0
   41.8349    1.2051   24.7096 C   0  0  0  0  0  0  0  0  0  0  0  0
   41.2907    2.4738   24.7632 C   0  0  0  0  0  0  0  0  0  0  0  0
   39.9510    2.6174   24.4934 C   0  0  0  0  0  0  0  0  0  0  0  0
   39.1805    1.5103   24.2122 N   0  0  0  0  0  0  0  0  0  0  0  0
   41.0572    0.1515   24.4051 N   0  0  0  0  0  0  0  0  0  0  0  0
   39.0850   -0.6598   23.8815 O   0  0  0  0  0  0  0  0  0  0  0  0
   39.7411    0.3114   24.1405 C   0  0  0  0  0  0  0  0  0  0  0  0
   43.1727    1.0294   24.9735 O   0  0  0  0  0  0  0  0  0  0  0  0
   42.1441    3.6330   25.0996 C   0  0  0  0  0  0  0  0  0  0  0  0
   41.4519   -0.7499   24.3744 H   0  0  0  0  0  0  0  0  0  0  0  0
 12 11  1  0  0  0
 11  6  1  0  0  0
 11  9  1  0  0  0
 16 15  1  0  0  0
  6  7  1  0  0  0
  6  5  1  0  0  0
 15  8  1  0  0  0
 27 20  1  0  0  0
  7  8  1  0  0  0
  9  8  1  0  0  0
  9 10  1  0  0  0
  2  5  1  0  0  0
  2  1  2  0  0  0
  5  4  1  0  0  0
 20 21  2  0  0  0
 20 19  1  0  0  0
 21 22  1  0  0  0
 26 19  2  0  0  0
 19 23  1  0  0  0
  1 18  1  0  0  0
  1  3  1  0  0  0
  4  3  2  0  0  0
 22 18  1  0  0  0
 22 25  1  0  0  0
 23 25  1  0  0  0
 25 24  2  0  0  0
 23 28  1  0  0  0
 16 17  1  0  0  0
 10 13  1  0  0  0
 12 14  1  0  0  0
M  END
> <minimizedAffinity>
-6.23309

$$$$
