2JH6_894_D_1249


 29 31  0  0  0  0  0  0  0  0999 V2000
    5.0403   19.6255   50.5431 C   0  0  0  0  0  0  0  0  0  0  0  0
    3.8551   20.2202   51.3443 C   0  0  0  0  0  0  0  0  0  0  0  0
    2.6807   19.2960   50.9541 C   0  0  0  0  0  0  0  0  0  0  0  0
    4.4080   18.8394   49.4018 C   0  0  0  0  0  0  0  0  0  0  0  0
    4.9941   18.5242   48.3681 O   0  0  0  0  0  0  0  0  0  0  0  0
    3.1218   18.5887   49.7392 N   0  0  0  0  0  0  0  0  0  0  0  0
    6.0210   20.6206   50.1170 N   0  0  0  0  0  0  0  0  0  0  0  0
    6.0219   20.6134   49.0970 H   0  0  0  0  0  0  0  0  0  0  0  0
    7.5537   20.4977   50.5808 S   0  0  0  0  0  0  0  0  0  0  0  0
    7.7244   19.3145   51.3668 O   0  0  0  0  0  0  0  0  0  0  0  0
    7.8109   21.7746   51.1773 O   0  0  0  0  0  0  0  0  0  0  0  0
    8.6033   20.2833   49.1490 C   0  0  0  0  0  0  0  0  0  0  0  0
   10.0132   20.8343   49.3946 C   0  0  0  0  0  0  0  0  0  0  0  0
   10.2675   25.4158   46.1171 Cl  0  0  0  0  0  0  0  0  0  0  0  0
   10.4116   23.8658   46.8781 C   0  0  0  0  0  0  0  0  0  0  0  0
   11.3013   22.8323   46.3951 C   0  0  0  0  0  0  0  0  0  0  0  0
   11.2412   21.6813   47.2603 C   0  0  0  0  0  0  0  0  0  0  0  0
   10.3130   21.8744   48.3457 C   0  0  0  0  0  0  0  0  0  0  0  0
    9.5877   23.4245   48.3213 S   0  0  0  0  0  0  0  0  0  0  0  0
    2.2309   17.7214   48.9498 C   0  0  0  0  0  0  0  0  0  0  0  0
    1.4304   16.7458   49.8398 C   0  0  0  0  0  0  0  0  0  0  0  0
    1.2692   18.5301   48.0823 C   0  0  0  0  0  0  0  0  0  0  0  0
    0.4376   19.2459   48.6084 O   0  0  0  0  0  0  0  0  0  0  0  0
    1.3730   18.4418   46.7349 N   0  0  0  0  0  0  0  0  0  0  0  0
    0.4589   19.2114   45.8871 C   0  0  0  0  0  0  0  0  0  0  0  0
    1.2527   19.9970   44.8537 C   0  0  0  0  0  0  0  0  0  0  0  0
    2.1634   19.1342   44.1497 O   0  0  0  0  0  0  0  0  0  0  0  0
    3.1090   18.4952   45.0204 C   0  0  0  0  0  0  0  0  0  0  0  0
    2.3386   17.6030   46.0040 C   0  0  0  0  0  0  0  0  0  0  0  0
 18 13  1  0  0  0
  9 10  2  0  0  0
  9 11  2  0  0  0
  9  7  1  0  0  0
  7  1  1  0  0  0
  1  2  1  0  0  0
  2  3  1  0  0  0
  1  4  1  0  0  0
  4  5  2  0  0  0
  3  6  1  0  0  0
  4  6  1  0  0  0
  6 20  1  0  0  0
 20 21  1  0  0  0
 20 22  1  0  0  0
 22 23  2  0  0  0
 22 24  1  0  0  0
 24 25  1  0  0  0
 25 26  1  0  0  0
 26 27  1  0  0  0
 27 28  1  0  0  0
 24 29  1  0  0  0
 28 29  1  0  0  0
 15 19  1  0  0  0
 18 19  1  0  0  0
 13 12  1  0  0  0
  9 12  1  0  0  0
 14 15  1  0  0  0
 15 16  2  0  0  0
 16 17  1  0  0  0
 17 18  2  0  0  0
  7  8  1  0  0  0
M  END
> <minimizedAffinity>
-8.05325

$$$$
2JH6_894_D_1249


 29 31  0  0  0  0  0  0  0  0999 V2000
    3.9516   19.9882   51.4505 C   0  0  0  0  0  0  0  0  0  0  0  0
    2.5049   20.1856   51.9685 C   0  0  0  0  0  0  0  0  0  0  0  0
    1.7100   19.1255   51.1749 C   0  0  0  0  0  0  0  0  0  0  0  0
    3.8110   19.2996   50.0991 C   0  0  0  0  0  0  0  0  0  0  0  0
    4.6810   19.2914   49.2306 O   0  0  0  0  0  0  0  0  0  0  0  0
    2.5793   18.7413   50.0491 N   0  0  0  0  0  0  0  0  0  0  0  0
    4.7387   21.2183   51.4196 N   0  0  0  0  0  0  0  0  0  0  0  0
    4.7090   21.5614   50.4595 H   0  0  0  0  0  0  0  0  0  0  0  0
    6.2840   21.2023   51.8564 S   0  0  0  0  0  0  0  0  0  0  0  0
    6.6875   19.8607   52.1466 O   0  0  0  0  0  0  0  0  0  0  0  0
    6.3327   22.1859   52.8970 O   0  0  0  0  0  0  0  0  0  0  0  0
    7.3052   21.7292   50.4863 C   0  0  0  0  0  0  0  0  0  0  0  0
    8.6331   20.9632   50.4442 C   0  0  0  0  0  0  0  0  0  0  0  0
   11.0720   24.1096   46.4507 Cl  0  0  0  0  0  0  0  0  0  0  0  0
   10.5360   22.8818   47.5494 C   0  0  0  0  0  0  0  0  0  0  0  0
   11.1292   21.5634   47.6056 C   0  0  0  0  0  0  0  0  0  0  0  0
   10.5107   20.7848   48.6487 C   0  0  0  0  0  0  0  0  0  0  0  0
    9.4773   21.5243   49.3286 C   0  0  0  0  0  0  0  0  0  0  0  0
    9.3147   23.1216   48.7357 S   0  0  0  0  0  0  0  0  0  0  0  0
    2.1318   17.8618   48.9559 C   0  0  0  0  0  0  0  0  0  0  0  0
    1.4862   16.5616   49.4825 C   0  0  0  0  0  0  0  0  0  0  0  0
    1.1612   18.5709   48.0143 C   0  0  0  0  0  0  0  0  0  0  0  0
    0.2700   19.2609   48.4731 O   0  0  0  0  0  0  0  0  0  0  0  0
    1.3235   18.4252   46.6777 N   0  0  0  0  0  0  0  0  0  0  0  0
    0.4018   19.0990   45.7595 C   0  0  0  0  0  0  0  0  0  0  0  0
    1.1904   19.8800   44.7187 C   0  0  0  0  0  0  0  0  0  0  0  0
    2.1759   19.0397   44.0925 O   0  0  0  0  0  0  0  0  0  0  0  0
    3.1207   18.4990   45.0283 C   0  0  0  0  0  0  0  0  0  0  0  0
    2.3634   17.6107   46.0256 C   0  0  0  0  0  0  0  0  0  0  0  0
 18 13  1  0  0  0
  9 10  2  0  0  0
  9 11  2  0  0  0
  9  7  1  0  0  0
  7  1  1  0  0  0
  1  2  1  0  0  0
  2  3  1  0  0  0
  1  4  1  0  0  0
  4  5  2  0  0  0
  3  6  1  0  0  0
  4  6  1  0  0  0
  6 20  1  0  0  0
 20 21  1  0  0  0
 20 22  1  0  0  0
 22 23  2  0  0  0
 22 24  1  0  0  0
 24 25  1  0  0  0
 25 26  1  0  0  0
 26 27  1  0  0  0
 27 28  1  0  0  0
 24 29  1  0  0  0
 28 29  1  0  0  0
 15 19  1  0  0  0
 18 19  1  0  0  0
 13 12  1  0  0  0
  9 12  1  0  0  0
 14 15  1  0  0  0
 15 16  2  0  0  0
 16 17  1  0  0  0
 17 18  2  0  0  0
  7  8  1  0  0  0
M  END
> <minimizedAffinity>
-7.93254

$$$$
2JH6_894_D_1249


 29 31  0  0  0  0  0  0  0  0999 V2000
    5.9752   18.8665   49.5826 C   0  0  0  0  0  0  0  0  0  0  0  0
    5.2641   20.2347   49.4318 C   0  0  0  0  0  0  0  0  0  0  0  0
    3.7711   19.8412   49.3904 C   0  0  0  0  0  0  0  0  0  0  0  0
    4.9800   17.8310   49.0753 C   0  0  0  0  0  0  0  0  0  0  0  0
    5.2844   16.6985   48.7064 O   0  0  0  0  0  0  0  0  0  0  0  0
    3.7513   18.3976   49.0967 N   0  0  0  0  0  0  0  0  0  0  0  0
    7.2843   18.8093   48.9371 N   0  0  0  0  0  0  0  0  0  0  0  0
    7.1627   18.2793   48.0741 H   0  0  0  0  0  0  0  0  0  0  0  0
    8.5379   18.1615   49.7039 S   0  0  0  0  0  0  0  0  0  0  0  0
    9.2841   17.3426   48.7985 O   0  0  0  0  0  0  0  0  0  0  0  0
    7.9327   17.5577   50.8535 O   0  0  0  0  0  0  0  0  0  0  0  0
    9.6600   19.4521   50.2261 C   0  0  0  0  0  0  0  0  0  0  0  0
    8.9963   20.8335   50.1725 C   0  0  0  0  0  0  0  0  0  0  0  0
   10.5802   24.7360   46.4230 Cl  0  0  0  0  0  0  0  0  0  0  0  0
   10.3124   23.3210   47.3864 C   0  0  0  0  0  0  0  0  0  0  0  0
   11.0316   22.0825   47.1815 C   0  0  0  0  0  0  0  0  0  0  0  0
   10.6321   21.1078   48.1650 C   0  0  0  0  0  0  0  0  0  0  0  0
    9.6301   21.6291   49.0601 C   0  0  0  0  0  0  0  0  0  0  0  0
    9.2389   23.2621   48.7282 S   0  0  0  0  0  0  0  0  0  0  0  0
    2.5110   17.6545   48.8167 C   0  0  0  0  0  0  0  0  0  0  0  0
    1.8537   17.1134   50.1051 C   0  0  0  0  0  0  0  0  0  0  0  0
    1.5020   18.4995   48.0427 C   0  0  0  0  0  0  0  0  0  0  0  0
    0.7307   19.2223   48.6458 O   0  0  0  0  0  0  0  0  0  0  0  0
    1.4968   18.4351   46.6900 N   0  0  0  0  0  0  0  0  0  0  0  0
    0.5360   19.2397   45.9312 C   0  0  0  0  0  0  0  0  0  0  0  0
    1.2628   20.0284   44.8520 C   0  0  0  0  0  0  0  0  0  0  0  0
    2.0956   19.1606   44.0627 O   0  0  0  0  0  0  0  0  0  0  0  0
    3.0925   18.4854   44.8441 C   0  0  0  0  0  0  0  0  0  0  0  0
    2.3827   17.5906   45.8701 C   0  0  0  0  0  0  0  0  0  0  0  0
 18 13  1  0  0  0
  9 10  2  0  0  0
  9 11  2  0  0  0
  9  7  1  0  0  0
  7  1  1  0  0  0
  1  2  1  0  0  0
  2  3  1  0  0  0
  1  4  1  0  0  0
  4  5  2  0  0  0
  3  6  1  0  0  0
  4  6  1  0  0  0
  6 20  1  0  0  0
 20 21  1  0  0  0
 20 22  1  0  0  0
 22 23  2  0  0  0
 22 24  1  0  0  0
 24 25  1  0  0  0
 25 26  1  0  0  0
 26 27  1  0  0  0
 27 28  1  0  0  0
 24 29  1  0  0  0
 28 29  1  0  0  0
 15 19  1  0  0  0
 18 19  1  0  0  0
 13 12  1  0  0  0
  9 12  1  0  0  0
 14 15  1  0  0  0
 15 16  2  0  0  0
 16 17  1  0  0  0
 17 18  2  0  0  0
  7  8  1  0  0  0
M  END
> <minimizedAffinity>
-7.78036

$$$$
2JH6_894_D_1249


 29 31  0  0  0  0  0  0  0  0999 V2000
    4.9556   19.5942   50.1283 C   0  0  0  0  0  0  0  0  0  0  0  0
    5.8259   18.7236   49.1876 C   0  0  0  0  0  0  0  0  0  0  0  0
    4.7726   17.9935   48.3257 C   0  0  0  0  0  0  0  0  0  0  0  0
    3.5840   18.9320   50.1446 C   0  0  0  0  0  0  0  0  0  0  0  0
    2.7402   19.1052   51.0217 O   0  0  0  0  0  0  0  0  0  0  0  0
    3.4995   18.1362   49.0534 N   0  0  0  0  0  0  0  0  0  0  0  0
    5.5410   19.7976   51.4510 N   0  0  0  0  0  0  0  0  0  0  0  0
    4.8163   19.5674   52.1309 H   0  0  0  0  0  0  0  0  0  0  0  0
    6.1238   21.2353   51.8666 S   0  0  0  0  0  0  0  0  0  0  0  0
    5.5699   21.6330   53.1244 O   0  0  0  0  0  0  0  0  0  0  0  0
    5.8633   22.0338   50.7060 O   0  0  0  0  0  0  0  0  0  0  0  0
    7.8886   21.1193   52.1299 C   0  0  0  0  0  0  0  0  0  0  0  0
    8.5517   20.1851   51.1104 C   0  0  0  0  0  0  0  0  0  0  0  0
   11.3467   22.1910   46.6427 Cl  0  0  0  0  0  0  0  0  0  0  0  0
   10.4950   21.9179   48.1266 C   0  0  0  0  0  0  0  0  0  0  0  0
   10.1001   22.9889   49.0153 C   0  0  0  0  0  0  0  0  0  0  0  0
    9.3652   22.4588   50.1359 C   0  0  0  0  0  0  0  0  0  0  0  0
    9.2411   21.0247   50.0654 C   0  0  0  0  0  0  0  0  0  0  0  0
    9.9580   20.3722   48.6548 S   0  0  0  0  0  0  0  0  0  0  0  0
    2.2637   17.4453   48.6478 C   0  0  0  0  0  0  0  0  0  0  0  0
    1.5296   16.8125   49.8501 C   0  0  0  0  0  0  0  0  0  0  0  0
    1.3116   18.3730   47.8966 C   0  0  0  0  0  0  0  0  0  0  0  0
    0.5696   19.1097   48.5193 O   0  0  0  0  0  0  0  0  0  0  0  0
    1.3239   18.3647   46.5424 N   0  0  0  0  0  0  0  0  0  0  0  0
    0.4176   19.2489   45.8055 C   0  0  0  0  0  0  0  0  0  0  0  0
    1.2006   20.0422   44.7698 C   0  0  0  0  0  0  0  0  0  0  0  0
    1.9994   19.1652   43.9559 O   0  0  0  0  0  0  0  0  0  0  0  0
    2.9481   18.4073   44.7214 C   0  0  0  0  0  0  0  0  0  0  0  0
    2.1773   17.5094   45.6996 C   0  0  0  0  0  0  0  0  0  0  0  0
 18 13  1  0  0  0
  9 10  2  0  0  0
  9 11  2  0  0  0
  9  7  1  0  0  0
  7  1  1  0  0  0
  1  2  1  0  0  0
  2  3  1  0  0  0
  1  4  1  0  0  0
  4  5  2  0  0  0
  3  6  1  0  0  0
  4  6  1  0  0  0
  6 20  1  0  0  0
 20 21  1  0  0  0
 20 22  1  0  0  0
 22 23  2  0  0  0
 22 24  1  0  0  0
 24 25  1  0  0  0
 25 26  1  0  0  0
 26 27  1  0  0  0
 27 28  1  0  0  0
 24 29  1  0  0  0
 28 29  1  0  0  0
 15 19  1  0  0  0
 18 19  1  0  0  0
 13 12  1  0  0  0
  9 12  1  0  0  0
 14 15  1  0  0  0
 15 16  2  0  0  0
 16 17  1  0  0  0
 17 18  2  0  0  0
  7  8  1  0  0  0
M  END
> <minimizedAffinity>
-7.66683

$$$$
2JH6_894_D_1249


 29 31  0  0  0  0  0  0  0  0999 V2000
    4.6801   20.1995   50.1333 C   0  0  0  0  0  0  0  0  0  0  0  0
    5.1833   19.6743   48.7654 C   0  0  0  0  0  0  0  0  0  0  0  0
    6.7054   19.9251   48.8418 C   0  0  0  0  0  0  0  0  0  0  0  0
    5.7546   21.1626   50.6212 C   0  0  0  0  0  0  0  0  0  0  0  0
    5.5728   22.0326   51.4706 O   0  0  0  0  0  0  0  0  0  0  0  0
    6.8924   20.8861   49.9428 N   0  0  0  0  0  0  0  0  0  0  0  0
    3.3367   20.7710   50.0863 N   0  0  0  0  0  0  0  0  0  0  0  0
    3.3643   21.6304   50.6350 H   0  0  0  0  0  0  0  0  0  0  0  0
    2.0779   19.9257   50.6155 S   0  0  0  0  0  0  0  0  0  0  0  0
    0.9302   20.7757   50.7016 O   0  0  0  0  0  0  0  0  0  0  0  0
    2.5827   19.3124   51.8078 O   0  0  0  0  0  0  0  0  0  0  0  0
    1.6550   18.6608   49.4244 C   0  0  0  0  0  0  0  0  0  0  0  0
    0.7714   19.2159   48.3006 C   0  0  0  0  0  0  0  0  0  0  0  0
    3.8804   17.2319   44.0351 Cl  0  0  0  0  0  0  0  0  0  0  0  0
    2.8143   18.0840   45.1026 C   0  0  0  0  0  0  0  0  0  0  0  0
    1.9533   19.1594   44.6608 C   0  0  0  0  0  0  0  0  0  0  0  0
    1.1491   19.6343   45.7583 C   0  0  0  0  0  0  0  0  0  0  0  0
    1.4329   18.9218   46.9784 C   0  0  0  0  0  0  0  0  0  0  0  0
    2.6035   17.6918   46.7634 S   0  0  0  0  0  0  0  0  0  0  0  0
    8.1903   21.5118   50.2476 C   0  0  0  0  0  0  0  0  0  0  0  0
    8.5635   21.3796   51.7403 C   0  0  0  0  0  0  0  0  0  0  0  0
    9.3147   20.9421   49.3859 C   0  0  0  0  0  0  0  0  0  0  0  0
    9.4255   19.7371   49.2569 O   0  0  0  0  0  0  0  0  0  0  0  0
   10.1628   21.7986   48.7684 N   0  0  0  0  0  0  0  0  0  0  0  0
   11.2469   21.2693   47.9371 C   0  0  0  0  0  0  0  0  0  0  0  0
   11.2287   21.9459   46.5744 C   0  0  0  0  0  0  0  0  0  0  0  0
   11.2078   23.3771   46.7182 O   0  0  0  0  0  0  0  0  0  0  0  0
   10.0617   23.8460   47.4442 C   0  0  0  0  0  0  0  0  0  0  0  0
   10.1162   23.2678   48.8654 C   0  0  0  0  0  0  0  0  0  0  0  0
 18 13  1  0  0  0
  9 10  2  0  0  0
  9 11  2  0  0  0
  9  7  1  0  0  0
  7  1  1  0  0  0
  1  2  1  0  0  0
  2  3  1  0  0  0
  1  4  1  0  0  0
  4  5  2  0  0  0
  3  6  1  0  0  0
  4  6  1  0  0  0
  6 20  1  0  0  0
 20 21  1  0  0  0
 20 22  1  0  0  0
 22 23  2  0  0  0
 22 24  1  0  0  0
 24 25  1  0  0  0
 25 26  1  0  0  0
 26 27  1  0  0  0
 27 28  1  0  0  0
 24 29  1  0  0  0
 28 29  1  0  0  0
 15 19  1  0  0  0
 18 19  1  0  0  0
 13 12  1  0  0  0
  9 12  1  0  0  0
 14 15  1  0  0  0
 15 16  2  0  0  0
 16 17  1  0  0  0
 17 18  2  0  0  0
  7  8  1  0  0  0
M  END
> <minimizedAffinity>
-7.63096

$$$$
2JH6_894_D_1249


 29 31  0  0  0  0  0  0  0  0999 V2000
    6.2442   19.2662   49.5668 C   0  0  0  0  0  0  0  0  0  0  0  0
    5.6701   20.7039   49.6290 C   0  0  0  0  0  0  0  0  0  0  0  0
    4.1447   20.4648   49.5892 C   0  0  0  0  0  0  0  0  0  0  0  0
    5.1392   18.4111   48.9605 C   0  0  0  0  0  0  0  0  0  0  0  0
    5.3203   17.3167   48.4305 O   0  0  0  0  0  0  0  0  0  0  0  0
    3.9740   19.0844   49.1034 N   0  0  0  0  0  0  0  0  0  0  0  0
    7.5258   19.1738   48.8721 N   0  0  0  0  0  0  0  0  0  0  0  0
    7.3722   18.5902   48.0498 H   0  0  0  0  0  0  0  0  0  0  0  0
    8.8144   18.5805   49.6250 S   0  0  0  0  0  0  0  0  0  0  0  0
    9.4294   17.5794   48.8084 O   0  0  0  0  0  0  0  0  0  0  0  0
    8.2938   18.2114   50.9077 O   0  0  0  0  0  0  0  0  0  0  0  0
   10.0430   19.8644   49.8241 C   0  0  0  0  0  0  0  0  0  0  0  0
    9.3990   21.2533   49.9148 C   0  0  0  0  0  0  0  0  0  0  0  0
   10.4754   25.2672   46.1035 Cl  0  0  0  0  0  0  0  0  0  0  0  0
   10.3721   23.8367   47.0756 C   0  0  0  0  0  0  0  0  0  0  0  0
   11.1828   22.6626   46.8359 C   0  0  0  0  0  0  0  0  0  0  0  0
   10.9122   21.6599   47.8350 C   0  0  0  0  0  0  0  0  0  0  0  0
    9.9119   22.0970   48.7759 C   0  0  0  0  0  0  0  0  0  0  0  0
    9.3699   23.6905   48.4652 S   0  0  0  0  0  0  0  0  0  0  0  0
    2.6596   18.5094   48.7708 C   0  0  0  0  0  0  0  0  0  0  0  0
    1.5008   19.2843   49.4352 C   0  0  0  0  0  0  0  0  0  0  0  0
    2.4319   18.4411   47.2625 C   0  0  0  0  0  0  0  0  0  0  0  0
    2.4440   19.4638   46.6029 O   0  0  0  0  0  0  0  0  0  0  0  0
    2.2332   17.2320   46.6857 N   0  0  0  0  0  0  0  0  0  0  0  0
    2.0139   17.1478   45.2396 C   0  0  0  0  0  0  0  0  0  0  0  0
    2.9574   16.1191   44.6343 C   0  0  0  0  0  0  0  0  0  0  0  0
    2.8688   14.8700   45.3425 O   0  0  0  0  0  0  0  0  0  0  0  0
    3.2056   14.9942   46.7323 C   0  0  0  0  0  0  0  0  0  0  0  0
    2.1952   15.9414   47.3949 C   0  0  0  0  0  0  0  0  0  0  0  0
 18 13  1  0  0  0
  9 10  2  0  0  0
  9 11  2  0  0  0
  9  7  1  0  0  0
  7  1  1  0  0  0
  1  2  1  0  0  0
  2  3  1  0  0  0
  1  4  1  0  0  0
  4  5  2  0  0  0
  3  6  1  0  0  0
  4  6  1  0  0  0
  6 20  1  0  0  0
 20 21  1  0  0  0
 20 22  1  0  0  0
 22 23  2  0  0  0
 22 24  1  0  0  0
 24 25  1  0  0  0
 25 26  1  0  0  0
 26 27  1  0  0  0
 27 28  1  0  0  0
 24 29  1  0  0  0
 28 29  1  0  0  0
 15 19  1  0  0  0
 18 19  1  0  0  0
 13 12  1  0  0  0
  9 12  1  0  0  0
 14 15  1  0  0  0
 15 16  2  0  0  0
 16 17  1  0  0  0
 17 18  2  0  0  0
  7  8  1  0  0  0
M  END
> <minimizedAffinity>
-7.58834

$$$$
2JH6_894_D_1249


 29 31  0  0  0  0  0  0  0  0999 V2000
    6.1925   18.7278   49.7554 C   0  0  0  0  0  0  0  0  0  0  0  0
    6.3481   17.2568   50.2160 C   0  0  0  0  0  0  0  0  0  0  0  0
    5.9114   16.4596   48.9672 C   0  0  0  0  0  0  0  0  0  0  0  0
    5.2130   18.6892   48.5896 C   0  0  0  0  0  0  0  0  0  0  0  0
    4.5716   19.6589   48.1898 O   0  0  0  0  0  0  0  0  0  0  0  0
    5.1833   17.4204   48.1202 N   0  0  0  0  0  0  0  0  0  0  0  0
    5.8143   19.6437   50.8287 N   0  0  0  0  0  0  0  0  0  0  0  0
    4.9249   20.0625   50.5568 H   0  0  0  0  0  0  0  0  0  0  0  0
    6.7869   20.8531   51.2417 S   0  0  0  0  0  0  0  0  0  0  0  0
    7.8354   20.3611   52.0819 O   0  0  0  0  0  0  0  0  0  0  0  0
    5.8782   21.8315   51.7608 O   0  0  0  0  0  0  0  0  0  0  0  0
    7.5976   21.5015   49.7857 C   0  0  0  0  0  0  0  0  0  0  0  0
    9.1162   21.2967   49.8463 C   0  0  0  0  0  0  0  0  0  0  0  0
   10.7162   25.2003   46.1049 Cl  0  0  0  0  0  0  0  0  0  0  0  0
   10.4433   23.7846   47.0658 C   0  0  0  0  0  0  0  0  0  0  0  0
   11.1598   22.5447   46.8606 C   0  0  0  0  0  0  0  0  0  0  0  0
   10.7561   21.5696   47.8420 C   0  0  0  0  0  0  0  0  0  0  0  0
    9.7538   22.0923   48.7361 C   0  0  0  0  0  0  0  0  0  0  0  0
    9.3673   23.7266   48.4058 S   0  0  0  0  0  0  0  0  0  0  0  0
    4.4618   17.0246   46.8988 C   0  0  0  0  0  0  0  0  0  0  0  0
    4.9900   15.6958   46.3159 C   0  0  0  0  0  0  0  0  0  0  0  0
    2.9569   16.9185   47.1344 C   0  0  0  0  0  0  0  0  0  0  0  0
    2.5347   16.2209   48.0377 O   0  0  0  0  0  0  0  0  0  0  0  0
    2.1191   17.6196   46.3340 N   0  0  0  0  0  0  0  0  0  0  0  0
    0.6723   17.5301   46.5462 C   0  0  0  0  0  0  0  0  0  0  0  0
    0.0773   18.9276   46.6372 C   0  0  0  0  0  0  0  0  0  0  0  0
    0.4847   19.7272   45.5128 O   0  0  0  0  0  0  0  0  0  0  0  0
    1.9097   19.8737   45.4224 C   0  0  0  0  0  0  0  0  0  0  0  0
    2.5293   18.4845   45.2143 C   0  0  0  0  0  0  0  0  0  0  0  0
 18 13  1  0  0  0
  9 10  2  0  0  0
  9 11  2  0  0  0
  9  7  1  0  0  0
  7  1  1  0  0  0
  1  2  1  0  0  0
  2  3  1  0  0  0
  1  4  1  0  0  0
  4  5  2  0  0  0
  3  6  1  0  0  0
  4  6  1  0  0  0
  6 20  1  0  0  0
 20 21  1  0  0  0
 20 22  1  0  0  0
 22 23  2  0  0  0
 22 24  1  0  0  0
 24 25  1  0  0  0
 25 26  1  0  0  0
 26 27  1  0  0  0
 27 28  1  0  0  0
 24 29  1  0  0  0
 28 29  1  0  0  0
 15 19  1  0  0  0
 18 19  1  0  0  0
 13 12  1  0  0  0
  9 12  1  0  0  0
 14 15  1  0  0  0
 15 16  2  0  0  0
 16 17  1  0  0  0
 17 18  2  0  0  0
  7  8  1  0  0  0
M  END
> <minimizedAffinity>
-7.42911

$$$$
2JH6_894_D_1249


 29 31  0  0  0  0  0  0  0  0999 V2000
    5.5287   17.4603   48.7109 C   0  0  0  0  0  0  0  0  0  0  0  0
    6.3847   16.1880   48.9317 C   0  0  0  0  0  0  0  0  0  0  0  0
    7.4854   16.6800   49.8971 C   0  0  0  0  0  0  0  0  0  0  0  0
    6.4392   18.6306   49.0593 C   0  0  0  0  0  0  0  0  0  0  0  0
    6.2569   19.7872   48.6844 O   0  0  0  0  0  0  0  0  0  0  0  0
    7.4531   18.1507   49.8161 N   0  0  0  0  0  0  0  0  0  0  0  0
    4.9266   17.5414   47.3825 N   0  0  0  0  0  0  0  0  0  0  0  0
    5.4334   18.2664   46.8747 H   0  0  0  0  0  0  0  0  0  0  0  0
    3.3633   17.8713   47.2204 S   0  0  0  0  0  0  0  0  0  0  0  0
    2.6539   16.6782   46.8733 O   0  0  0  0  0  0  0  0  0  0  0  0
    3.3621   18.9745   46.3064 O   0  0  0  0  0  0  0  0  0  0  0  0
    2.6897   18.3949   48.7920 C   0  0  0  0  0  0  0  0  0  0  0  0
    2.8426   19.9071   48.9964 C   0  0  0  0  0  0  0  0  0  0  0  0
    3.9597   21.0753   54.3986 Cl  0  0  0  0  0  0  0  0  0  0  0  0
    3.2773   20.6793   52.8560 C   0  0  0  0  0  0  0  0  0  0  0  0
    1.8561   20.5093   52.6450 C   0  0  0  0  0  0  0  0  0  0  0  0
    1.5895   20.2378   51.2550 C   0  0  0  0  0  0  0  0  0  0  0  0
    2.8004   20.1997   50.4745 C   0  0  0  0  0  0  0  0  0  0  0  0
    4.1950   20.5321   51.4094 S   0  0  0  0  0  0  0  0  0  0  0  0
    8.4548   19.0107   50.4689 C   0  0  0  0  0  0  0  0  0  0  0  0
    9.0917   18.3304   51.7002 C   0  0  0  0  0  0  0  0  0  0  0  0
    9.5513   19.4462   49.4996 C   0  0  0  0  0  0  0  0  0  0  0  0
   10.1251   18.6132   48.8231 O   0  0  0  0  0  0  0  0  0  0  0  0
    9.8542   20.7627   49.4043 N   0  0  0  0  0  0  0  0  0  0  0  0
   10.9031   21.1984   48.4789 C   0  0  0  0  0  0  0  0  0  0  0  0
   10.3787   22.3227   47.5980 C   0  0  0  0  0  0  0  0  0  0  0  0
    9.7948   23.3653   48.3990 O   0  0  0  0  0  0  0  0  0  0  0  0
    8.6974   22.9019   49.2000 C   0  0  0  0  0  0  0  0  0  0  0  0
    9.2237   21.8443   50.1807 C   0  0  0  0  0  0  0  0  0  0  0  0
 18 13  1  0  0  0
  9 10  2  0  0  0
  9 11  2  0  0  0
  9  7  1  0  0  0
  7  1  1  0  0  0
  1  2  1  0  0  0
  2  3  1  0  0  0
  1  4  1  0  0  0
  4  5  2  0  0  0
  3  6  1  0  0  0
  4  6  1  0  0  0
  6 20  1  0  0  0
 20 21  1  0  0  0
 20 22  1  0  0  0
 22 23  2  0  0  0
 22 24  1  0  0  0
 24 25  1  0  0  0
 25 26  1  0  0  0
 26 27  1  0  0  0
 27 28  1  0  0  0
 24 29  1  0  0  0
 28 29  1  0  0  0
 15 19  1  0  0  0
 18 19  1  0  0  0
 13 12  1  0  0  0
  9 12  1  0  0  0
 14 15  1  0  0  0
 15 16  2  0  0  0
 16 17  1  0  0  0
 17 18  2  0  0  0
  7  8  1  0  0  0
M  END
> <minimizedAffinity>
-7.26639

$$$$
2JH6_894_D_1249


 29 31  0  0  0  0  0  0  0  0999 V2000
    5.6568   19.8085   49.5170 C   0  0  0  0  0  0  0  0  0  0  0  0
    4.6781   20.9434   49.9098 C   0  0  0  0  0  0  0  0  0  0  0  0
    3.3188   20.2135   49.9804 C   0  0  0  0  0  0  0  0  0  0  0  0
    4.7944   18.7299   48.8744 C   0  0  0  0  0  0  0  0  0  0  0  0
    5.2233   17.8505   48.1300 O   0  0  0  0  0  0  0  0  0  0  0  0
    3.5151   18.9432   49.2604 N   0  0  0  0  0  0  0  0  0  0  0  0
    6.7754   20.2556   48.6909 N   0  0  0  0  0  0  0  0  0  0  0  0
    7.0549   19.4583   48.1195 H   0  0  0  0  0  0  0  0  0  0  0  0
    8.1123   20.8235   49.3762 S   0  0  0  0  0  0  0  0  0  0  0  0
    7.8830   22.1554   49.8459 O   0  0  0  0  0  0  0  0  0  0  0  0
    9.1074   20.6002   48.3701 O   0  0  0  0  0  0  0  0  0  0  0  0
    8.5034   19.8584   50.8299 C   0  0  0  0  0  0  0  0  0  0  0  0
    9.7921   19.0488   50.6406 C   0  0  0  0  0  0  0  0  0  0  0  0
    9.6781   13.5446   49.4211 Cl  0  0  0  0  0  0  0  0  0  0  0  0
    9.3537   15.2083   49.7803 C   0  0  0  0  0  0  0  0  0  0  0  0
    8.0160   15.7253   49.9714 C   0  0  0  0  0  0  0  0  0  0  0  0
    8.0683   17.1257   50.3076 C   0  0  0  0  0  0  0  0  0  0  0  0
    9.4224   17.6173   50.3471 C   0  0  0  0  0  0  0  0  0  0  0  0
   10.5752   16.3923   50.0307 S   0  0  0  0  0  0  0  0  0  0  0  0
    2.4121   18.0147   48.9596 C   0  0  0  0  0  0  0  0  0  0  0  0
    1.7456   17.4685   50.2411 C   0  0  0  0  0  0  0  0  0  0  0  0
    1.3539   18.6565   48.0653 C   0  0  0  0  0  0  0  0  0  0  0  0
    0.4646   19.3212   48.5635 O   0  0  0  0  0  0  0  0  0  0  0  0
    1.4372   18.4811   46.7250 N   0  0  0  0  0  0  0  0  0  0  0  0
    0.4308   19.0904   45.8519 C   0  0  0  0  0  0  0  0  0  0  0  0
    1.1172   19.8746   44.7433 C   0  0  0  0  0  0  0  0  0  0  0  0
    2.0965   19.0592   44.0758 O   0  0  0  0  0  0  0  0  0  0  0  0
    3.1213   18.5843   44.9617 C   0  0  0  0  0  0  0  0  0  0  0  0
    2.4681   17.6930   46.0276 C   0  0  0  0  0  0  0  0  0  0  0  0
 18 13  1  0  0  0
  9 10  2  0  0  0
  9 11  2  0  0  0
  9  7  1  0  0  0
  7  1  1  0  0  0
  1  2  1  0  0  0
  2  3  1  0  0  0
  1  4  1  0  0  0
  4  5  2  0  0  0
  3  6  1  0  0  0
  4  6  1  0  0  0
  6 20  1  0  0  0
 20 21  1  0  0  0
 20 22  1  0  0  0
 22 23  2  0  0  0
 22 24  1  0  0  0
 24 25  1  0  0  0
 25 26  1  0  0  0
 26 27  1  0  0  0
 27 28  1  0  0  0
 24 29  1  0  0  0
 28 29  1  0  0  0
 15 19  1  0  0  0
 18 19  1  0  0  0
 13 12  1  0  0  0
  9 12  1  0  0  0
 14 15  1  0  0  0
 15 16  2  0  0  0
 16 17  1  0  0  0
 17 18  2  0  0  0
  7  8  1  0  0  0
M  END
> <minimizedAffinity>
-7.17671

$$$$
2JH6_894_D_1249


 29 31  0  0  0  0  0  0  0  0999 V2000
    5.7353   19.6391   49.4840 C   0  0  0  0  0  0  0  0  0  0  0  0
    4.8038   20.7933   49.9316 C   0  0  0  0  0  0  0  0  0  0  0  0
    3.4236   20.1054   50.0166 C   0  0  0  0  0  0  0  0  0  0  0  0
    4.8230   18.6067   48.8345 C   0  0  0  0  0  0  0  0  0  0  0  0
    5.2050   17.7349   48.0563 O   0  0  0  0  0  0  0  0  0  0  0  0
    3.5610   18.8498   49.2581 N   0  0  0  0  0  0  0  0  0  0  0  0
    6.8476   20.0730   48.6424 N   0  0  0  0  0  0  0  0  0  0  0  0
    6.7757   19.5506   47.7693 H   0  0  0  0  0  0  0  0  0  0  0  0
    8.3614   19.9113   49.1538 S   0  0  0  0  0  0  0  0  0  0  0  0
    9.2294   20.7125   48.3465 O   0  0  0  0  0  0  0  0  0  0  0  0
    8.5422   18.4903   49.1744 O   0  0  0  0  0  0  0  0  0  0  0  0
    8.5111   20.5581   50.8142 C   0  0  0  0  0  0  0  0  0  0  0  0
    8.2080   19.4857   51.8677 C   0  0  0  0  0  0  0  0  0  0  0  0
    5.4467   22.8128   55.4874 Cl  0  0  0  0  0  0  0  0  0  0  0  0
    6.1107   21.5256   54.5364 C   0  0  0  0  0  0  0  0  0  0  0  0
    5.6614   20.1547   54.6453 C   0  0  0  0  0  0  0  0  0  0  0  0
    6.3596   19.3264   53.6949 C   0  0  0  0  0  0  0  0  0  0  0  0
    7.3085   20.0841   52.9188 C   0  0  0  0  0  0  0  0  0  0  0  0
    7.2999   21.7492   53.3148 S   0  0  0  0  0  0  0  0  0  0  0  0
    2.4215   17.9655   48.9603 C   0  0  0  0  0  0  0  0  0  0  0  0
    1.7517   17.4276   50.2435 C   0  0  0  0  0  0  0  0  0  0  0  0
    1.3762   18.6564   48.0876 C   0  0  0  0  0  0  0  0  0  0  0  0
    0.5170   19.3453   48.6054 O   0  0  0  0  0  0  0  0  0  0  0  0
    1.4373   18.4961   46.7442 N   0  0  0  0  0  0  0  0  0  0  0  0
    0.4429   19.1523   45.8916 C   0  0  0  0  0  0  0  0  0  0  0  0
    1.1434   19.9266   44.7849 C   0  0  0  0  0  0  0  0  0  0  0  0
    2.0851   19.0861   44.0947 O   0  0  0  0  0  0  0  0  0  0  0  0
    3.1028   18.5635   44.9617 C   0  0  0  0  0  0  0  0  0  0  0  0
    2.4311   17.6816   46.0238 C   0  0  0  0  0  0  0  0  0  0  0  0
 18 13  1  0  0  0
  9 10  2  0  0  0
  9 11  2  0  0  0
  9  7  1  0  0  0
  7  1  1  0  0  0
  1  2  1  0  0  0
  2  3  1  0  0  0
  1  4  1  0  0  0
  4  5  2  0  0  0
  3  6  1  0  0  0
  4  6  1  0  0  0
  6 20  1  0  0  0
 20 21  1  0  0  0
 20 22  1  0  0  0
 22 23  2  0  0  0
 22 24  1  0  0  0
 24 25  1  0  0  0
 25 26  1  0  0  0
 26 27  1  0  0  0
 27 28  1  0  0  0
 24 29  1  0  0  0
 28 29  1  0  0  0
 15 19  1  0  0  0
 18 19  1  0  0  0
 13 12  1  0  0  0
  9 12  1  0  0  0
 14 15  1  0  0  0
 15 16  2  0  0  0
 16 17  1  0  0  0
 17 18  2  0  0  0
  7  8  1  0  0  0
M  END
> <minimizedAffinity>
-7.16896

$$$$
