1J16_BEN_A_1


 12 12  0  0  0  0  0  0  0  0999 V2000
    8.0205   49.3305   53.9114 C   0  0  0  0  0  0  0  0  0  0  0  0
    7.5710   50.1200   54.9801 C   0  0  0  0  0  0  0  0  0  0  0  0
    7.2477   49.5425   56.2188 C   0  0  0  0  0  0  0  0  0  0  0  0
    7.4471   48.1744   56.4120 C   0  0  0  0  0  0  0  0  0  0  0  0
    7.8436   47.3726   55.3338 C   0  0  0  0  0  0  0  0  0  0  0  0
    8.1455   47.9478   54.0901 C   0  0  0  0  0  0  0  0  0  0  0  0
    8.4701   49.9792   52.6195 C   0  0  0  0  0  0  0  0  0  0  0  0
    7.7560   50.9467   52.0953 N   0  0  0  0  0  0  0  0  0  0  0  0
    9.5746   49.5733   52.0494 N   0  0  0  0  0  0  0  0  0  0  0  0
    6.9266   51.2411   52.5366 H   0  0  0  0  0  0  0  0  0  0  0  0
   10.0996   48.8460   52.4552 H   0  0  0  0  0  0  0  0  0  0  0  0
    9.8812   49.9950   51.2143 H   0  0  0  0  0  0  0  0  0  0  0  0
  1  2  2  0  0  0
  1  6  1  0  0  0
  1  7  1  0  0  0
  2  3  1  0  0  0
  3  4  2  0  0  0
  4  5  1  0  0  0
  5  6  2  0  0  0
  7  8  2  0  0  0
  7  9  1  0  0  0
  8 10  1  0  0  0
  9 11  1  0  0  0
  9 12  1  0  0  0
M  END
> <minimizedAffinity>
-5.89910

$$$$
1J16_BEN_A_1


 12 12  0  0  0  0  0  0  0  0999 V2000
    7.6814   49.5970   54.9731 C   0  0  0  0  0  0  0  0  0  0  0  0
    7.7422   49.4680   56.3684 C   0  0  0  0  0  0  0  0  0  0  0  0
    8.0370   48.2324   56.9674 C   0  0  0  0  0  0  0  0  0  0  0  0
    8.3468   47.1349   56.1621 C   0  0  0  0  0  0  0  0  0  0  0  0
    8.2348   47.2432   54.7699 C   0  0  0  0  0  0  0  0  0  0  0  0
    7.9187   48.4732   54.1731 C   0  0  0  0  0  0  0  0  0  0  0  0
    7.4724   50.9566   54.3407 C   0  0  0  0  0  0  0  0  0  0  0  0
    7.0202   51.9495   55.0691 N   0  0  0  0  0  0  0  0  0  0  0  0
    7.7588   51.1258   53.0761 N   0  0  0  0  0  0  0  0  0  0  0  0
    6.8091   51.8062   56.0199 H   0  0  0  0  0  0  0  0  0  0  0  0
    8.0973   50.3706   52.5428 H   0  0  0  0  0  0  0  0  0  0  0  0
    7.6359   52.0082   52.6573 H   0  0  0  0  0  0  0  0  0  0  0  0
  1  2  2  0  0  0
  1  6  1  0  0  0
  1  7  1  0  0  0
  2  3  1  0  0  0
  3  4  2  0  0  0
  4  5  1  0  0  0
  5  6  2  0  0  0
  7  8  2  0  0  0
  7  9  1  0  0  0
  8 10  1  0  0  0
  9 11  1  0  0  0
  9 12  1  0  0  0
M  END
> <minimizedAffinity>
-5.83167

$$$$
1J16_BEN_A_1


 12 12  0  0  0  0  0  0  0  0999 V2000
    7.7773   49.6275   54.9432 C   0  0  0  0  0  0  0  0  0  0  0  0
    7.9434   48.4794   54.1547 C   0  0  0  0  0  0  0  0  0  0  0  0
    8.0938   47.2137   54.7444 C   0  0  0  0  0  0  0  0  0  0  0  0
    8.0024   47.0868   56.1317 C   0  0  0  0  0  0  0  0  0  0  0  0
    7.8911   48.2348   56.9269 C   0  0  0  0  0  0  0  0  0  0  0  0
    7.7628   49.5015   56.3372 C   0  0  0  0  0  0  0  0  0  0  0  0
    7.5058   50.9673   54.2927 C   0  0  0  0  0  0  0  0  0  0  0  0
    7.7451   51.1288   53.0131 N   0  0  0  0  0  0  0  0  0  0  0  0
    7.0227   51.9441   55.0154 N   0  0  0  0  0  0  0  0  0  0  0  0
    8.1088   50.3836   52.4824 H   0  0  0  0  0  0  0  0  0  0  0  0
    6.8485   51.8072   55.9747 H   0  0  0  0  0  0  0  0  0  0  0  0
    6.8333   52.8165   54.6003 H   0  0  0  0  0  0  0  0  0  0  0  0
  1  2  2  0  0  0
  1  6  1  0  0  0
  1  7  1  0  0  0
  2  3  1  0  0  0
  3  4  2  0  0  0
  4  5  1  0  0  0
  5  6  2  0  0  0
  7  8  2  0  0  0
  7  9  1  0  0  0
  8 10  1  0  0  0
  9 11  1  0  0  0
  9 12  1  0  0  0
M  END
> <minimizedAffinity>
-5.78399

$$$$
1J16_BEN_A_1


 12 12  0  0  0  0  0  0  0  0999 V2000
    7.8124   48.6681   54.7057 C   0  0  0  0  0  0  0  0  0  0  0  0
    8.1291   49.0762   53.4017 C   0  0  0  0  0  0  0  0  0  0  0  0
    8.1347   50.4363   53.0518 C   0  0  0  0  0  0  0  0  0  0  0  0
    7.8941   51.3994   54.0335 C   0  0  0  0  0  0  0  0  0  0  0  0
    7.5242   50.9969   55.3234 C   0  0  0  0  0  0  0  0  0  0  0  0
    7.4978   49.6365   55.6662 C   0  0  0  0  0  0  0  0  0  0  0  0
    7.9185   47.2092   55.0958 C   0  0  0  0  0  0  0  0  0  0  0  0
    7.0725   46.3398   54.5966 N   0  0  0  0  0  0  0  0  0  0  0  0
    8.8634   46.8329   55.9177 N   0  0  0  0  0  0  0  0  0  0  0  0
    6.3665   46.6387   53.9790 H   0  0  0  0  0  0  0  0  0  0  0  0
    9.4907   47.4975   56.2839 H   0  0  0  0  0  0  0  0  0  0  0  0
    8.9475   45.8851   56.1703 H   0  0  0  0  0  0  0  0  0  0  0  0
  1  2  2  0  0  0
  1  6  1  0  0  0
  1  7  1  0  0  0
  2  3  1  0  0  0
  3  4  2  0  0  0
  4  5  1  0  0  0
  5  6  2  0  0  0
  7  8  2  0  0  0
  7  9  1  0  0  0
  8 10  1  0  0  0
  9 11  1  0  0  0
  9 12  1  0  0  0
M  END
> <minimizedAffinity>
-5.45224

$$$$
1J16_BEN_A_1


 12 12  0  0  0  0  0  0  0  0999 V2000
    7.8670   48.6364   55.5391 C   0  0  0  0  0  0  0  0  0  0  0  0
    8.1518   48.3763   54.1905 C   0  0  0  0  0  0  0  0  0  0  0  0
    8.1225   49.4048   53.2347 C   0  0  0  0  0  0  0  0  0  0  0  0
    7.8794   50.7170   53.6445 C   0  0  0  0  0  0  0  0  0  0  0  0
    7.5412   50.9749   54.9794 C   0  0  0  0  0  0  0  0  0  0  0  0
    7.5495   49.9425   55.9297 C   0  0  0  0  0  0  0  0  0  0  0  0
    8.0108   47.5413   56.5745 C   0  0  0  0  0  0  0  0  0  0  0  0
    8.5471   47.8152   57.7399 N   0  0  0  0  0  0  0  0  0  0  0  0
    7.5851   46.3367   56.2961 N   0  0  0  0  0  0  0  0  0  0  0  0
    8.8628   48.7272   57.9344 H   0  0  0  0  0  0  0  0  0  0  0  0
    7.1850   46.1469   55.4169 H   0  0  0  0  0  0  0  0  0  0  0  0
    7.6648   45.6195   56.9658 H   0  0  0  0  0  0  0  0  0  0  0  0
  1  2  2  0  0  0
  1  6  1  0  0  0
  1  7  1  0  0  0
  2  3  1  0  0  0
  3  4  2  0  0  0
  4  5  1  0  0  0
  5  6  2  0  0  0
  7  8  2  0  0  0
  7  9  1  0  0  0
  8 10  1  0  0  0
  9 11  1  0  0  0
  9 12  1  0  0  0
M  END
> <minimizedAffinity>
-5.33540

$$$$
1J16_BEN_A_1


 12 12  0  0  0  0  0  0  0  0999 V2000
    7.8087   48.8154   54.9753 C   0  0  0  0  0  0  0  0  0  0  0  0
    7.5399   50.0138   55.6529 C   0  0  0  0  0  0  0  0  0  0  0  0
    7.6145   51.2502   54.9911 C   0  0  0  0  0  0  0  0  0  0  0  0
    7.8873   51.2815   53.6223 C   0  0  0  0  0  0  0  0  0  0  0  0
    8.2097   50.0941   52.9524 C   0  0  0  0  0  0  0  0  0  0  0  0
    8.1561   48.8611   53.6202 C   0  0  0  0  0  0  0  0  0  0  0  0
    7.6165   47.4851   55.6719 C   0  0  0  0  0  0  0  0  0  0  0  0
    7.7497   47.4086   56.9747 N   0  0  0  0  0  0  0  0  0  0  0  0
    7.3067   46.4302   54.9641 N   0  0  0  0  0  0  0  0  0  0  0  0
    7.9833   48.2119   57.4937 H   0  0  0  0  0  0  0  0  0  0  0  0
    7.2103   46.5039   53.9871 H   0  0  0  0  0  0  0  0  0  0  0  0
    7.1698   45.5623   55.4082 H   0  0  0  0  0  0  0  0  0  0  0  0
  1  2  2  0  0  0
  1  6  1  0  0  0
  1  7  1  0  0  0
  2  3  1  0  0  0
  3  4  2  0  0  0
  4  5  1  0  0  0
  5  6  2  0  0  0
  7  8  2  0  0  0
  7  9  1  0  0  0
  8 10  1  0  0  0
  9 11  1  0  0  0
  9 12  1  0  0  0
M  END
> <minimizedAffinity>
-5.24658

$$$$
1J16_BEN_A_1


 12 12  0  0  0  0  0  0  0  0999 V2000
    8.4304   47.5863   56.4158 C   0  0  0  0  0  0  0  0  0  0  0  0
    8.0417   48.8257   56.9452 C   0  0  0  0  0  0  0  0  0  0  0  0
    7.5857   49.8575   56.1088 C   0  0  0  0  0  0  0  0  0  0  0  0
    7.4470   49.6216   54.7398 C   0  0  0  0  0  0  0  0  0  0  0  0
    7.8842   48.4058   54.1981 C   0  0  0  0  0  0  0  0  0  0  0  0
    8.3603   47.3832   55.0326 C   0  0  0  0  0  0  0  0  0  0  0  0
    8.8138   46.4487   57.3381 C   0  0  0  0  0  0  0  0  0  0  0  0
    8.6196   46.5661   58.6302 N   0  0  0  0  0  0  0  0  0  0  0  0
    9.3229   45.3564   56.8308 N   0  0  0  0  0  0  0  0  0  0  0  0
    8.2353   47.3950   58.9969 H   0  0  0  0  0  0  0  0  0  0  0  0
    9.4625   45.2836   55.8590 H   0  0  0  0  0  0  0  0  0  0  0  0
    9.5666   44.6067   57.4206 H   0  0  0  0  0  0  0  0  0  0  0  0
  1  2  2  0  0  0
  1  6  1  0  0  0
  1  7  1  0  0  0
  2  3  1  0  0  0
  3  4  2  0  0  0
  4  5  1  0  0  0
  5  6  2  0  0  0
  7  8  2  0  0  0
  7  9  1  0  0  0
  8 10  1  0  0  0
  9 11  1  0  0  0
  9 12  1  0  0  0
M  END
> <minimizedAffinity>
-5.16595

$$$$
1J16_BEN_A_1


 12 12  0  0  0  0  0  0  0  0999 V2000
    8.1371   48.9797   56.5785 C   0  0  0  0  0  0  0  0  0  0  0  0
    7.7532   49.9459   55.6369 C   0  0  0  0  0  0  0  0  0  0  0  0
    7.4848   49.5901   54.3051 C   0  0  0  0  0  0  0  0  0  0  0  0
    7.5285   48.2458   53.9309 C   0  0  0  0  0  0  0  0  0  0  0  0
    7.9635   47.2838   54.8518 C   0  0  0  0  0  0  0  0  0  0  0  0
    8.2525   47.6438   56.1768 C   0  0  0  0  0  0  0  0  0  0  0  0
    8.3150   49.3599   58.0330 C   0  0  0  0  0  0  0  0  0  0  0  0
    7.5238   50.2570   58.5717 N   0  0  0  0  0  0  0  0  0  0  0  0
    9.2498   48.7774   58.7377 N   0  0  0  0  0  0  0  0  0  0  0  0
    6.8246   50.6867   58.0278 H   0  0  0  0  0  0  0  0  0  0  0  0
    9.8357   48.1061   58.3189 H   0  0  0  0  0  0  0  0  0  0  0  0
    9.3677   49.0100   59.6870 H   0  0  0  0  0  0  0  0  0  0  0  0
  1  2  2  0  0  0
  1  6  1  0  0  0
  1  7  1  0  0  0
  2  3  1  0  0  0
  3  4  2  0  0  0
  4  5  1  0  0  0
  5  6  2  0  0  0
  7  8  2  0  0  0
  7  9  1  0  0  0
  8 10  1  0  0  0
  9 11  1  0  0  0
  9 12  1  0  0  0
M  END
> <minimizedAffinity>
-4.58664

$$$$
1J16_BEN_A_1


 12 12  0  0  0  0  0  0  0  0999 V2000
    7.8930   48.9497   55.9149 C   0  0  0  0  0  0  0  0  0  0  0  0
    8.2292   49.3852   57.2051 C   0  0  0  0  0  0  0  0  0  0  0  0
    8.7508   48.4927   58.1558 C   0  0  0  0  0  0  0  0  0  0  0  0
    9.0074   47.1705   57.7886 C   0  0  0  0  0  0  0  0  0  0  0  0
    8.6238   46.7164   56.5200 C   0  0  0  0  0  0  0  0  0  0  0  0
    8.0824   47.6043   55.5781 C   0  0  0  0  0  0  0  0  0  0  0  0
    7.4370   49.9440   54.8684 C   0  0  0  0  0  0  0  0  0  0  0  0
    6.9792   51.1156   55.2409 N   0  0  0  0  0  0  0  0  0  0  0  0
    7.5181   49.6248   53.6029 N   0  0  0  0  0  0  0  0  0  0  0  0
    6.9243   51.3411   56.1977 H   0  0  0  0  0  0  0  0  0  0  0  0
    7.8639   48.7415   53.3393 H   0  0  0  0  0  0  0  0  0  0  0  0
    7.2335   50.2677   52.9138 H   0  0  0  0  0  0  0  0  0  0  0  0
  1  2  2  0  0  0
  1  6  1  0  0  0
  1  7  1  0  0  0
  2  3  1  0  0  0
  3  4  2  0  0  0
  4  5  1  0  0  0
  5  6  2  0  0  0
  7  8  2  0  0  0
  7  9  1  0  0  0
  8 10  1  0  0  0
  9 11  1  0  0  0
  9 12  1  0  0  0
M  END
> <minimizedAffinity>
-4.58376

$$$$
1J16_BEN_A_1


 12 12  0  0  0  0  0  0  0  0999 V2000
    8.7851   47.0415   57.3093 C   0  0  0  0  0  0  0  0  0  0  0  0
    9.2796   45.7333   57.4159 C   0  0  0  0  0  0  0  0  0  0  0  0
   10.2657   45.4086   58.3618 C   0  0  0  0  0  0  0  0  0  0  0  0
   10.7062   46.3843   59.2577 C   0  0  0  0  0  0  0  0  0  0  0  0
   10.2567   47.7042   59.1213 C   0  0  0  0  0  0  0  0  0  0  0  0
    9.2873   48.0321   58.1613 C   0  0  0  0  0  0  0  0  0  0  0  0
    7.6453   47.3518   56.3626 C   0  0  0  0  0  0  0  0  0  0  0  0
    6.9075   48.4182   56.5612 N   0  0  0  0  0  0  0  0  0  0  0  0
    7.4196   46.5568   55.3493 N   0  0  0  0  0  0  0  0  0  0  0  0
    7.0900   49.0070   57.3288 H   0  0  0  0  0  0  0  0  0  0  0  0
    7.9822   45.7603   55.2137 H   0  0  0  0  0  0  0  0  0  0  0  0
    6.6872   46.7546   54.7219 H   0  0  0  0  0  0  0  0  0  0  0  0
  1  2  2  0  0  0
  1  6  1  0  0  0
  1  7  1  0  0  0
  2  3  1  0  0  0
  3  4  2  0  0  0
  4  5  1  0  0  0
  5  6  2  0  0  0
  7  8  2  0  0  0
  7  9  1  0  0  0
  8 10  1  0  0  0
  9 11  1  0  0  0
  9 12  1  0  0  0
M  END
> <minimizedAffinity>
-4.45597

$$$$
