1NP0_NGT_A_557


 17 18  0  0  0  0  0  0  0  0999 V2000
    4.9475   22.3746   35.6044 C   0  0  0  0  0  0  0  0  0  0  0  0
    5.3646   23.7957   36.0879 C   0  0  0  0  0  0  0  0  0  0  0  0
    6.9386   23.8994   36.3161 C   0  0  0  0  0  0  0  0  0  0  0  0
    7.5324   22.6369   36.8969 C   0  0  0  0  0  0  0  0  0  0  0  0
    7.1264   21.4356   36.0621 C   0  0  0  0  0  0  0  0  0  0  0  0
    4.8573   24.2281   33.9208 C   0  0  0  0  0  0  0  0  0  0  0  0
    4.4587   24.9567   32.6716 C   0  0  0  0  0  0  0  0  0  0  0  0
    4.9693   24.7332   35.0719 N   0  0  0  0  0  0  0  0  0  0  0  0
    5.1095   22.4836   33.7902 S   0  0  0  0  0  0  0  0  0  0  0  0
    7.2286   25.0108   37.1498 O   0  0  0  0  0  0  0  0  0  0  0  0
    8.9405   22.7584   36.9243 O   0  0  0  0  0  0  0  0  0  0  0  0
    5.6940   21.2884   36.0701 O   0  0  0  0  0  0  0  0  0  0  0  0
    6.8156   24.8804   38.0177 H   0  0  0  0  0  0  0  0  0  0  0  0
    9.2716   22.8867   36.0216 H   0  0  0  0  0  0  0  0  0  0  0  0
    7.7249   20.1210   36.5411 C   0  0  0  0  0  0  0  0  0  0  0  0
    9.1202   20.0733   36.2719 O   0  0  0  0  0  0  0  0  0  0  0  0
    9.2676   20.1443   35.3158 H   0  0  0  0  0  0  0  0  0  0  0  0
  1  2  1  0  0  0
  1  9  1  0  0  0
  1 12  1  0  0  0
  2  3  1  0  0  0
  2  8  1  0  0  0
  3  4  1  0  0  0
  3 10  1  0  0  0
  4  5  1  0  0  0
  4 11  1  0  0  0
  5 15  1  0  0  0
  5 12  1  0  0  0
 15 16  1  0  0  0
  6  7  1  0  0  0
  6  8  2  0  0  0
  6  9  1  0  0  0
 10 13  1  0  0  0
 11 14  1  0  0  0
 16 17  1  0  0  0
M  END
> <minimizedAffinity>
-7.33924

$$$$
1NP0_NGT_A_557


 17 18  0  0  0  0  0  0  0  0999 V2000
    6.9991   20.9605   34.8189 C   0  0  0  0  0  0  0  0  0  0  0  0
    7.6651   21.3404   36.1751 C   0  0  0  0  0  0  0  0  0  0  0  0
    6.8387   22.4691   36.9389 C   0  0  0  0  0  0  0  0  0  0  0  0
    6.2525   23.5019   36.0043 C   0  0  0  0  0  0  0  0  0  0  0  0
    5.4594   22.8209   34.9033 C   0  0  0  0  0  0  0  0  0  0  0  0
    6.8404   19.2894   36.6791 C   0  0  0  0  0  0  0  0  0  0  0  0
    6.6475   17.9578   37.3424 C   0  0  0  0  0  0  0  0  0  0  0  0
    7.7081   20.1532   36.9851 N   0  0  0  0  0  0  0  0  0  0  0  0
    5.8174   19.6500   35.2836 S   0  0  0  0  0  0  0  0  0  0  0  0
    7.6656   23.0932   37.9089 O   0  0  0  0  0  0  0  0  0  0  0  0
    5.4163   24.3709   36.7417 O   0  0  0  0  0  0  0  0  0  0  0  0
    6.3217   21.9684   34.1267 O   0  0  0  0  0  0  0  0  0  0  0  0
    8.4122   23.5267   37.4666 H   0  0  0  0  0  0  0  0  0  0  0  0
    4.7001   23.8606   37.1509 H   0  0  0  0  0  0  0  0  0  0  0  0
    4.7837   23.7876   33.9418 C   0  0  0  0  0  0  0  0  0  0  0  0
    3.6508   24.3952   34.5491 O   0  0  0  0  0  0  0  0  0  0  0  0
    3.0087   23.7104   34.7934 H   0  0  0  0  0  0  0  0  0  0  0  0
  1  2  1  0  0  0
  1  9  1  0  0  0
  1 12  1  0  0  0
  2  3  1  0  0  0
  2  8  1  0  0  0
  3  4  1  0  0  0
  3 10  1  0  0  0
  4  5  1  0  0  0
  4 11  1  0  0  0
  5 15  1  0  0  0
  5 12  1  0  0  0
 15 16  1  0  0  0
  6  7  1  0  0  0
  6  8  2  0  0  0
  6  9  1  0  0  0
 10 13  1  0  0  0
 11 14  1  0  0  0
 16 17  1  0  0  0
M  END
> <minimizedAffinity>
-6.61005

$$$$
1NP0_NGT_A_557


 17 18  0  0  0  0  0  0  0  0999 V2000
    6.7439   22.9849   35.7273 C   0  0  0  0  0  0  0  0  0  0  0  0
    6.1255   21.9597   34.7305 C   0  0  0  0  0  0  0  0  0  0  0  0
    5.0772   20.9995   35.4513 C   0  0  0  0  0  0  0  0  0  0  0  0
    5.4961   20.6189   36.8525 C   0  0  0  0  0  0  0  0  0  0  0  0
    5.8198   21.8643   37.6583 C   0  0  0  0  0  0  0  0  0  0  0  0
    5.1031   23.8660   34.0511 C   0  0  0  0  0  0  0  0  0  0  0  0
    4.3919   24.8703   33.1934 C   0  0  0  0  0  0  0  0  0  0  0  0
    5.4554   22.7060   33.7003 N   0  0  0  0  0  0  0  0  0  0  0  0
    5.5705   24.3813   35.6759 S   0  0  0  0  0  0  0  0  0  0  0  0
    4.8736   19.8367   34.6635 O   0  0  0  0  0  0  0  0  0  0  0  0
    4.4478   19.8980   37.4687 O   0  0  0  0  0  0  0  0  0  0  0  0
    6.9158   22.5750   37.0526 O   0  0  0  0  0  0  0  0  0  0  0  0
    5.7087   19.3498   34.5837 H   0  0  0  0  0  0  0  0  0  0  0  0
    3.6531   20.4528   37.5075 H   0  0  0  0  0  0  0  0  0  0  0  0
    6.2000   21.5816   39.1044 C   0  0  0  0  0  0  0  0  0  0  0  0
    6.9946   22.6354   39.6332 O   0  0  0  0  0  0  0  0  0  0  0  0
    7.8102   22.7169   39.1145 H   0  0  0  0  0  0  0  0  0  0  0  0
  1  2  1  0  0  0
  1  9  1  0  0  0
  1 12  1  0  0  0
  2  3  1  0  0  0
  2  8  1  0  0  0
  3  4  1  0  0  0
  3 10  1  0  0  0
  4  5  1  0  0  0
  4 11  1  0  0  0
  5 15  1  0  0  0
  5 12  1  0  0  0
 15 16  1  0  0  0
  6  7  1  0  0  0
  6  8  2  0  0  0
  6  9  1  0  0  0
 10 13  1  0  0  0
 11 14  1  0  0  0
 16 17  1  0  0  0
M  END
> <minimizedAffinity>
-6.34676

$$$$
1NP0_NGT_A_557


 17 18  0  0  0  0  0  0  0  0999 V2000
    5.6404   20.3346   34.7499 C   0  0  0  0  0  0  0  0  0  0  0  0
    6.9912   19.7130   35.2149 C   0  0  0  0  0  0  0  0  0  0  0  0
    7.7181   20.6309   36.2963 C   0  0  0  0  0  0  0  0  0  0  0  0
    7.5565   22.1073   36.0176 C   0  0  0  0  0  0  0  0  0  0  0  0
    6.0884   22.4474   35.8334 C   0  0  0  0  0  0  0  0  0  0  0  0
    5.5216   18.3180   36.2323 C   0  0  0  0  0  0  0  0  0  0  0  0
    4.9337   17.1023   36.8853 C   0  0  0  0  0  0  0  0  0  0  0  0
    6.7012   18.4311   35.7980 N   0  0  0  0  0  0  0  0  0  0  0  0
    4.4412   19.6912   35.9654 S   0  0  0  0  0  0  0  0  0  0  0  0
    9.0938   20.2889   36.3665 O   0  0  0  0  0  0  0  0  0  0  0  0
    8.0960   22.8433   37.0972 O   0  0  0  0  0  0  0  0  0  0  0  0
    5.5512   21.7289   34.7072 O   0  0  0  0  0  0  0  0  0  0  0  0
    9.5136   20.4597   35.5089 H   0  0  0  0  0  0  0  0  0  0  0  0
    7.6239   22.6140   37.9129 H   0  0  0  0  0  0  0  0  0  0  0  0
    5.8227   23.9278   35.6019 C   0  0  0  0  0  0  0  0  0  0  0  0
    5.4149   24.5625   36.8070 O   0  0  0  0  0  0  0  0  0  0  0  0
    4.5960   24.1528   37.1272 H   0  0  0  0  0  0  0  0  0  0  0  0
  1  2  1  0  0  0
  1  9  1  0  0  0
  1 12  1  0  0  0
  2  3  1  0  0  0
  2  8  1  0  0  0
  3  4  1  0  0  0
  3 10  1  0  0  0
  4  5  1  0  0  0
  4 11  1  0  0  0
  5 15  1  0  0  0
  5 12  1  0  0  0
 15 16  1  0  0  0
  6  7  1  0  0  0
  6  8  2  0  0  0
  6  9  1  0  0  0
 10 13  1  0  0  0
 11 14  1  0  0  0
 16 17  1  0  0  0
M  END
> <minimizedAffinity>
-5.95434

$$$$
1NP0_NGT_A_557


 17 18  0  0  0  0  0  0  0  0999 V2000
    5.4459   20.7876   36.7526 C   0  0  0  0  0  0  0  0  0  0  0  0
    6.9595   20.8037   37.1215 C   0  0  0  0  0  0  0  0  0  0  0  0
    7.8443   20.0966   36.0001 C   0  0  0  0  0  0  0  0  0  0  0  0
    7.1687   18.8883   35.3939 C   0  0  0  0  0  0  0  0  0  0  0  0
    5.7750   19.2535   34.9150 C   0  0  0  0  0  0  0  0  0  0  0  0
    6.6365   22.9872   36.6031 C   0  0  0  0  0  0  0  0  0  0  0  0
    6.8096   24.4762   36.5470 C   0  0  0  0  0  0  0  0  0  0  0  0
    7.3612   22.1786   37.2463 N   0  0  0  0  0  0  0  0  0  0  0  0
    5.2384   22.3065   35.7629 S   0  0  0  0  0  0  0  0  0  0  0  0
    9.1056   19.7372   36.5424 O   0  0  0  0  0  0  0  0  0  0  0  0
    7.9480   18.4167   34.3130 O   0  0  0  0  0  0  0  0  0  0  0  0
    4.9696   19.6936   36.0245 O   0  0  0  0  0  0  0  0  0  0  0  0
    8.9785   19.0976   37.2605 H   0  0  0  0  0  0  0  0  0  0  0  0
    8.0272   19.1137   33.6431 H   0  0  0  0  0  0  0  0  0  0  0  0
    5.0360   18.1086   34.2377 C   0  0  0  0  0  0  0  0  0  0  0  0
    5.6271   16.8589   34.5697 O   0  0  0  0  0  0  0  0  0  0  0  0
    6.5489   16.8469   34.2679 H   0  0  0  0  0  0  0  0  0  0  0  0
  1  2  1  0  0  0
  1  9  1  0  0  0
  1 12  1  0  0  0
  2  3  1  0  0  0
  2  8  1  0  0  0
  3  4  1  0  0  0
  3 10  1  0  0  0
  4  5  1  0  0  0
  4 11  1  0  0  0
  5 15  1  0  0  0
  5 12  1  0  0  0
 15 16  1  0  0  0
  6  7  1  0  0  0
  6  8  2  0  0  0
  6  9  1  0  0  0
 10 13  1  0  0  0
 11 14  1  0  0  0
 16 17  1  0  0  0
M  END
> <minimizedAffinity>
-5.82701

$$$$
1NP0_NGT_A_557


 17 18  0  0  0  0  0  0  0  0999 V2000
    7.1020   22.3157   35.8574 C   0  0  0  0  0  0  0  0  0  0  0  0
    6.5230   21.4553   34.6948 C   0  0  0  0  0  0  0  0  0  0  0  0
    5.5850   20.2876   35.2397 C   0  0  0  0  0  0  0  0  0  0  0  0
    6.0925   19.6785   36.5262 C   0  0  0  0  0  0  0  0  0  0  0  0
    6.3525   20.7660   37.5532 C   0  0  0  0  0  0  0  0  0  0  0  0
    5.3265   23.3635   34.4335 C   0  0  0  0  0  0  0  0  0  0  0  0
    4.5026   24.4514   33.8107 C   0  0  0  0  0  0  0  0  0  0  0  0
    5.7528   22.3283   33.8509 N   0  0  0  0  0  0  0  0  0  0  0  0
    5.8220   23.5904   36.1148 S   0  0  0  0  0  0  0  0  0  0  0  0
    5.4389   19.2875   34.2434 O   0  0  0  0  0  0  0  0  0  0  0  0
    5.1313   18.7649   37.0159 O   0  0  0  0  0  0  0  0  0  0  0  0
    7.3625   21.6716   37.0705 O   0  0  0  0  0  0  0  0  0  0  0  0
    6.3053   18.8983   34.0464 H   0  0  0  0  0  0  0  0  0  0  0  0
    4.2981   19.2318   37.1850 H   0  0  0  0  0  0  0  0  0  0  0  0
    6.8158   20.2405   38.9041 C   0  0  0  0  0  0  0  0  0  0  0  0
    7.7850   19.2130   38.7412 O   0  0  0  0  0  0  0  0  0  0  0  0
    7.3948   18.4761   38.2457 H   0  0  0  0  0  0  0  0  0  0  0  0
  1  2  1  0  0  0
  1  9  1  0  0  0
  1 12  1  0  0  0
  2  3  1  0  0  0
  2  8  1  0  0  0
  3  4  1  0  0  0
  3 10  1  0  0  0
  4  5  1  0  0  0
  4 11  1  0  0  0
  5 15  1  0  0  0
  5 12  1  0  0  0
 15 16  1  0  0  0
  6  7  1  0  0  0
  6  8  2  0  0  0
  6  9  1  0  0  0
 10 13  1  0  0  0
 11 14  1  0  0  0
 16 17  1  0  0  0
M  END
> <minimizedAffinity>
-5.71324

$$$$
1NP0_NGT_A_557


 17 18  0  0  0  0  0  0  0  0999 V2000
    5.2881   21.4138   36.6746 C   0  0  0  0  0  0  0  0  0  0  0  0
    6.4677   22.4295   36.7374 C   0  0  0  0  0  0  0  0  0  0  0  0
    7.8471   21.7538   36.3121 C   0  0  0  0  0  0  0  0  0  0  0  0
    7.9764   20.3278   36.7954 C   0  0  0  0  0  0  0  0  0  0  0  0
    6.7604   19.5211   36.3765 C   0  0  0  0  0  0  0  0  0  0  0  0
    5.3677   23.1852   34.9044 C   0  0  0  0  0  0  0  0  0  0  0  0
    4.8699   24.0915   33.8177 C   0  0  0  0  0  0  0  0  0  0  0  0
    6.1649   23.5028   35.8297 N   0  0  0  0  0  0  0  0  0  0  0  0
    4.7125   21.5443   34.9480 S   0  0  0  0  0  0  0  0  0  0  0  0
    8.9303   22.5373   36.7888 O   0  0  0  0  0  0  0  0  0  0  0  0
    9.1503   19.7595   36.2501 O   0  0  0  0  0  0  0  0  0  0  0  0
    5.5704   20.0764   36.9672 O   0  0  0  0  0  0  0  0  0  0  0  0
    8.9061   22.5667   37.7581 H   0  0  0  0  0  0  0  0  0  0  0  0
    9.0947   19.7697   35.2818 H   0  0  0  0  0  0  0  0  0  0  0  0
    6.8273   18.0536   36.7734 C   0  0  0  0  0  0  0  0  0  0  0  0
    7.3490   17.9089   38.0881 O   0  0  0  0  0  0  0  0  0  0  0  0
    8.2469   18.2744   38.1217 H   0  0  0  0  0  0  0  0  0  0  0  0
  1  2  1  0  0  0
  1  9  1  0  0  0
  1 12  1  0  0  0
  2  3  1  0  0  0
  2  8  1  0  0  0
  3  4  1  0  0  0
  3 10  1  0  0  0
  4  5  1  0  0  0
  4 11  1  0  0  0
  5 15  1  0  0  0
  5 12  1  0  0  0
 15 16  1  0  0  0
  6  7  1  0  0  0
  6  8  2  0  0  0
  6  9  1  0  0  0
 10 13  1  0  0  0
 11 14  1  0  0  0
 16 17  1  0  0  0
M  END
> <minimizedAffinity>
-5.65893

$$$$
1NP0_NGT_A_557


 17 18  0  0  0  0  0  0  0  0999 V2000
    7.5702   20.4230   35.6039 C   0  0  0  0  0  0  0  0  0  0  0  0
    7.6397   19.8548   37.0528 C   0  0  0  0  0  0  0  0  0  0  0  0
    6.6771   20.6514   38.0423 C   0  0  0  0  0  0  0  0  0  0  0  0
    6.6332   22.1338   37.7524 C   0  0  0  0  0  0  0  0  0  0  0  0
    6.3146   22.3712   36.2871 C   0  0  0  0  0  0  0  0  0  0  0  0
    6.4952   18.1970   36.0124 C   0  0  0  0  0  0  0  0  0  0  0  0
    5.9212   16.8482   35.6939 C   0  0  0  0  0  0  0  0  0  0  0  0
    7.2307   18.4774   36.9988 N   0  0  0  0  0  0  0  0  0  0  0  0
    6.1877   19.4970   34.8551 S   0  0  0  0  0  0  0  0  0  0  0  0
    7.0759   20.4221   39.3849 O   0  0  0  0  0  0  0  0  0  0  0  0
    5.6489   22.7357   38.5693 O   0  0  0  0  0  0  0  0  0  0  0  0
    7.3403   21.7941   35.4575 O   0  0  0  0  0  0  0  0  0  0  0  0
    7.9754   20.7602   39.5173 H   0  0  0  0  0  0  0  0  0  0  0  0
    4.7837   22.3420   38.3763 H   0  0  0  0  0  0  0  0  0  0  0  0
    6.1949   23.8412   35.9122 C   0  0  0  0  0  0  0  0  0  0  0  0
    5.0684   24.4341   36.5454 O   0  0  0  0  0  0  0  0  0  0  0  0
    4.2604   23.9803   36.2588 H   0  0  0  0  0  0  0  0  0  0  0  0
  1  2  1  0  0  0
  1  9  1  0  0  0
  1 12  1  0  0  0
  2  3  1  0  0  0
  2  8  1  0  0  0
  3  4  1  0  0  0
  3 10  1  0  0  0
  4  5  1  0  0  0
  4 11  1  0  0  0
  5 15  1  0  0  0
  5 12  1  0  0  0
 15 16  1  0  0  0
  6  7  1  0  0  0
  6  8  2  0  0  0
  6  9  1  0  0  0
 10 13  1  0  0  0
 11 14  1  0  0  0
 16 17  1  0  0  0
M  END
> <minimizedAffinity>
-5.62621

$$$$
1NP0_NGT_A_557


 17 18  0  0  0  0  0  0  0  0999 V2000
    5.8450   20.5444   35.5136 C   0  0  0  0  0  0  0  0  0  0  0  0
    6.7100   20.9360   36.7488 C   0  0  0  0  0  0  0  0  0  0  0  0
    6.2706   22.3452   37.3500 C   0  0  0  0  0  0  0  0  0  0  0  0
    5.8783   23.3420   36.2841 C   0  0  0  0  0  0  0  0  0  0  0  0
    4.8392   22.7359   35.3579 C   0  0  0  0  0  0  0  0  0  0  0  0
    5.4462   19.2767   37.6377 C   0  0  0  0  0  0  0  0  0  0  0  0
    4.9872   18.1599   38.5278 C   0  0  0  0  0  0  0  0  0  0  0  0
    6.5285   19.9166   37.7465 N   0  0  0  0  0  0  0  0  0  0  0  0
    4.4204   19.6787   36.2557 S   0  0  0  0  0  0  0  0  0  0  0  0
    7.3157   22.8683   38.1551 O   0  0  0  0  0  0  0  0  0  0  0  0
    5.3615   24.5025   36.9041 O   0  0  0  0  0  0  0  0  0  0  0  0
    5.3815   21.5784   34.6951 O   0  0  0  0  0  0  0  0  0  0  0  0
    8.1024   23.0169   37.6074 H   0  0  0  0  0  0  0  0  0  0  0  0
    4.5816   24.2676   37.4309 H   0  0  0  0  0  0  0  0  0  0  0  0
    4.3415   23.6894   34.2814 C   0  0  0  0  0  0  0  0  0  0  0  0
    5.1154   23.5611   33.0956 O   0  0  0  0  0  0  0  0  0  0  0  0
    6.0412   23.7768   33.2888 H   0  0  0  0  0  0  0  0  0  0  0  0
  1  2  1  0  0  0
  1  9  1  0  0  0
  1 12  1  0  0  0
  2  3  1  0  0  0
  2  8  1  0  0  0
  3  4  1  0  0  0
  3 10  1  0  0  0
  4  5  1  0  0  0
  4 11  1  0  0  0
  5 15  1  0  0  0
  5 12  1  0  0  0
 15 16  1  0  0  0
  6  7  1  0  0  0
  6  8  2  0  0  0
  6  9  1  0  0  0
 10 13  1  0  0  0
 11 14  1  0  0  0
 16 17  1  0  0  0
M  END
> <minimizedAffinity>
-5.38800

$$$$
1NP0_NGT_A_557


 17 18  0  0  0  0  0  0  0  0999 V2000
    5.0854   21.6866   35.9177 C   0  0  0  0  0  0  0  0  0  0  0  0
    5.5834   21.7875   37.3904 C   0  0  0  0  0  0  0  0  0  0  0  0
    6.8705   20.8807   37.6380 C   0  0  0  0  0  0  0  0  0  0  0  0
    6.8201   19.5712   36.8854 C   0  0  0  0  0  0  0  0  0  0  0  0
    6.5394   19.8233   35.4149 C   0  0  0  0  0  0  0  0  0  0  0  0
    6.1990   23.8234   36.6049 C   0  0  0  0  0  0  0  0  0  0  0  0
    6.5797   25.2735   36.5568 C   0  0  0  0  0  0  0  0  0  0  0  0
    5.9162   23.1634   37.6427 N   0  0  0  0  0  0  0  0  0  0  0  0
    6.0462   22.9790   35.0597 S   0  0  0  0  0  0  0  0  0  0  0  0
    7.0293   20.6456   39.0286 O   0  0  0  0  0  0  0  0  0  0  0  0
    8.0560   18.9022   37.0384 O   0  0  0  0  0  0  0  0  0  0  0  0
    5.2608   20.4667   35.2581 O   0  0  0  0  0  0  0  0  0  0  0  0
    6.2603   20.1590   39.3642 H   0  0  0  0  0  0  0  0  0  0  0  0
    8.7689   19.4543   36.6807 H   0  0  0  0  0  0  0  0  0  0  0  0
    6.5249   18.5614   34.5646 C   0  0  0  0  0  0  0  0  0  0  0  0
    7.8463   18.0851   34.3445 O   0  0  0  0  0  0  0  0  0  0  0  0
    8.3601   18.7617   33.8763 H   0  0  0  0  0  0  0  0  0  0  0  0
  1  2  1  0  0  0
  1  9  1  0  0  0
  1 12  1  0  0  0
  2  3  1  0  0  0
  2  8  1  0  0  0
  3  4  1  0  0  0
  3 10  1  0  0  0
  4  5  1  0  0  0
  4 11  1  0  0  0
  5 15  1  0  0  0
  5 12  1  0  0  0
 15 16  1  0  0  0
  6  7  1  0  0  0
  6  8  2  0  0  0
  6  9  1  0  0  0
 10 13  1  0  0  0
 11 14  1  0  0  0
 16 17  1  0  0  0
M  END
> <minimizedAffinity>
-5.37464

$$$$
