6FUJ_E8B_A_301


 24 25  0  0  0  0  0  0  0  0999 V2000
    6.6863   51.1425   72.9345 C   0  0  0  0  0  0  0  0  0  0  0  0
    7.9175   49.0994   72.4651 C   0  0  0  0  0  0  0  0  0  0  0  0
    8.8893   49.8103   71.8231 C   0  0  0  0  0  0  0  0  0  0  0  0
    6.8499   49.7800   73.0538 C   0  0  0  0  0  0  0  0  0  0  0  0
    8.7608   51.1938   71.6850 C   0  0  0  0  0  0  0  0  0  0  0  0
    7.6788   51.8720   72.2425 C   0  0  0  0  0  0  0  0  0  0  0  0
    4.0535   52.0480   75.5217 C   0  0  0  0  0  0  0  0  0  0  0  0
    5.1436   51.4507   74.9140 C   0  0  0  0  0  0  0  0  0  0  0  0
    5.5412   51.8264   73.6065 C   0  0  0  0  0  0  0  0  0  0  0  0
    3.6676   53.2858   73.4863 C   0  0  0  0  0  0  0  0  0  0  0  0
    3.3232   52.9772   74.8076 C   0  0  0  0  0  0  0  0  0  0  0  0
    4.7767   52.7505   72.8638 C   0  0  0  0  0  0  0  0  0  0  0  0
    4.9158   51.3334   77.7674 N   0  0  0  0  0  0  0  0  0  0  0  0
    3.7518   51.6431   76.9403 C   0  0  0  0  0  0  0  0  0  0  0  0
    4.6076   51.0720   78.7039 H   0  0  0  0  0  0  0  0  0  0  0  0
    5.5200   52.1532   77.8247 H   0  0  0  0  0  0  0  0  0  0  0  0
    9.9465   47.2991   71.6665 O   0  0  0  0  0  0  0  0  0  0  0  0
    8.9520   46.9382   72.2753 C   0  0  0  0  0  0  0  0  0  0  0  0
    8.0736   47.7291   72.6931 N   0  0  0  0  0  0  0  0  0  0  0  0
    7.3881   47.3224   73.2710 H   0  0  0  0  0  0  0  0  0  0  0  0
    8.7052   45.4716   72.6271 C   0  0  0  0  0  0  0  0  0  0  0  0
    7.6438   44.7770   71.7121 C   0  0  0  0  0  0  0  0  0  0  0  0
    7.3685   45.5281   70.3952 C   0  0  0  0  0  0  0  0  0  0  0  0
    6.3138   44.4354   72.4147 C   0  0  0  0  0  0  0  0  0  0  0  0
 23 22  1  0  0  0
 17 18  2  0  0  0
 22 21  1  0  0  0
 22 24  1  0  0  0
 21 18  1  0  0  0
 10 11  2  0  0  0
 10 12  1  0  0  0
 18 19  1  0  0  0
 11  7  1  0  0  0
 12  9  2  0  0  0
 13 14  1  0  0  0
  7 14  1  0  0  0
  7  8  2  0  0  0
 19  2  1  0  0  0
  9  8  1  0  0  0
  9  1  1  0  0  0
  4  2  2  0  0  0
  4  1  1  0  0  0
  2  3  1  0  0  0
  1  6  2  0  0  0
  3  5  2  0  0  0
  6  5  1  0  0  0
 13 15  1  0  0  0
 13 16  1  0  0  0
 19 20  1  0  0  0
M  END
> <minimizedAffinity>
-7.67632

$$$$
6FUJ_E8B_A_301


 24 25  0  0  0  0  0  0  0  0999 V2000
    5.6870   51.5363   73.5215 C   0  0  0  0  0  0  0  0  0  0  0  0
    3.8403   53.1174   73.5058 C   0  0  0  0  0  0  0  0  0  0  0  0
    3.5348   52.8021   74.7978 C   0  0  0  0  0  0  0  0  0  0  0  0
    4.9428   52.5134   72.8980 C   0  0  0  0  0  0  0  0  0  0  0  0
    4.2686   51.8191   75.4647 C   0  0  0  0  0  0  0  0  0  0  0  0
    5.3488   51.1901   74.8488 C   0  0  0  0  0  0  0  0  0  0  0  0
    8.3508   49.0418   72.4598 C   0  0  0  0  0  0  0  0  0  0  0  0
    7.2247   49.5845   73.0530 C   0  0  0  0  0  0  0  0  0  0  0  0
    6.8739   50.9408   72.8379 C   0  0  0  0  0  0  0  0  0  0  0  0
    8.8575   51.2216   71.5570 C   0  0  0  0  0  0  0  0  0  0  0  0
    9.1604   49.8623   71.6998 C   0  0  0  0  0  0  0  0  0  0  0  0
    7.7176   51.7882   72.0896 C   0  0  0  0  0  0  0  0  0  0  0  0
    9.9699   47.1247   72.4300 N   0  0  0  0  0  0  0  0  0  0  0  0
    8.6022   47.5736   72.6807 C   0  0  0  0  0  0  0  0  0  0  0  0
   10.0365   46.1224   72.6067 H   0  0  0  0  0  0  0  0  0  0  0  0
   10.6099   47.6224   73.0490 H   0  0  0  0  0  0  0  0  0  0  0  0
    1.7754   53.0927   71.5742 O   0  0  0  0  0  0  0  0  0  0  0  0
    2.3062   54.1244   71.9536 C   0  0  0  0  0  0  0  0  0  0  0  0
    3.1776   54.1615   72.8540 N   0  0  0  0  0  0  0  0  0  0  0  0
    3.4349   55.0654   73.1474 H   0  0  0  0  0  0  0  0  0  0  0  0
    1.9193   55.4901   71.3874 C   0  0  0  0  0  0  0  0  0  0  0  0
    2.1585   55.6213   69.8473 C   0  0  0  0  0  0  0  0  0  0  0  0
    3.2465   56.6451   69.4700 C   0  0  0  0  0  0  0  0  0  0  0  0
    0.8830   55.8742   69.0175 C   0  0  0  0  0  0  0  0  0  0  0  0
 23 22  1  0  0  0
 17 18  2  0  0  0
 22 21  1  0  0  0
 22 24  1  0  0  0
 21 18  1  0  0  0
 10 11  2  0  0  0
 10 12  1  0  0  0
 18 19  1  0  0  0
 11  7  1  0  0  0
 12  9  2  0  0  0
 13 14  1  0  0  0
  7 14  1  0  0  0
  7  8  2  0  0  0
 19  2  1  0  0  0
  9  8  1  0  0  0
  9  1  1  0  0  0
  4  2  2  0  0  0
  4  1  1  0  0  0
  2  3  1  0  0  0
  1  6  2  0  0  0
  3  5  2  0  0  0
  6  5  1  0  0  0
 13 15  1  0  0  0
 13 16  1  0  0  0
 19 20  1  0  0  0
M  END
> <minimizedAffinity>
-7.59432

$$$$
6FUJ_E8B_A_301


 24 25  0  0  0  0  0  0  0  0999 V2000
    6.4586   50.9356   73.2049 C   0  0  0  0  0  0  0  0  0  0  0  0
    7.7554   48.9642   72.6199 C   0  0  0  0  0  0  0  0  0  0  0  0
    8.6927   49.7407   72.0030 C   0  0  0  0  0  0  0  0  0  0  0  0
    6.6722   49.5757   73.2542 C   0  0  0  0  0  0  0  0  0  0  0  0
    8.5132   51.1237   71.9356 C   0  0  0  0  0  0  0  0  0  0  0  0
    7.4152   51.7339   72.5388 C   0  0  0  0  0  0  0  0  0  0  0  0
    3.4185   53.0906   73.9526 C   0  0  0  0  0  0  0  0  0  0  0  0
    4.4647   52.4889   73.2760 C   0  0  0  0  0  0  0  0  0  0  0  0
    5.2990   51.5435   73.9234 C   0  0  0  0  0  0  0  0  0  0  0  0
    4.1133   51.9260   75.9488 C   0  0  0  0  0  0  0  0  0  0  0  0
    3.2373   52.7964   75.2894 C   0  0  0  0  0  0  0  0  0  0  0  0
    5.1358   51.2674   75.2971 C   0  0  0  0  0  0  0  0  0  0  0  0
    1.1001   53.7978   73.3026 N   0  0  0  0  0  0  0  0  0  0  0  0
    2.5372   54.0225   73.1637 C   0  0  0  0  0  0  0  0  0  0  0  0
    0.5935   54.4755   72.7331 H   0  0  0  0  0  0  0  0  0  0  0  0
    0.8319   53.9074   74.2806 H   0  0  0  0  0  0  0  0  0  0  0  0
    9.8614   47.2889   71.7515 O   0  0  0  0  0  0  0  0  0  0  0  0
    8.8761   46.8579   72.3289 C   0  0  0  0  0  0  0  0  0  0  0  0
    7.9633   47.5908   72.7774 N   0  0  0  0  0  0  0  0  0  0  0  0
    7.2888   47.1277   73.3251 H   0  0  0  0  0  0  0  0  0  0  0  0
    8.6840   45.3662   72.6002 C   0  0  0  0  0  0  0  0  0  0  0  0
    7.5898   44.7011   71.7021 C   0  0  0  0  0  0  0  0  0  0  0  0
    7.2941   45.4751   70.4030 C   0  0  0  0  0  0  0  0  0  0  0  0
    6.2723   44.3696   72.4325 C   0  0  0  0  0  0  0  0  0  0  0  0
 23 22  1  0  0  0
 17 18  2  0  0  0
 22 21  1  0  0  0
 22 24  1  0  0  0
 21 18  1  0  0  0
 10 11  2  0  0  0
 10 12  1  0  0  0
 18 19  1  0  0  0
 11  7  1  0  0  0
 12  9  2  0  0  0
 13 14  1  0  0  0
  7 14  1  0  0  0
  7  8  2  0  0  0
 19  2  1  0  0  0
  9  8  1  0  0  0
  9  1  1  0  0  0
  4  2  2  0  0  0
  4  1  1  0  0  0
  2  3  1  0  0  0
  1  6  2  0  0  0
  3  5  2  0  0  0
  6  5  1  0  0  0
 13 15  1  0  0  0
 13 16  1  0  0  0
 19 20  1  0  0  0
M  END
> <minimizedAffinity>
-7.28127

$$$$
6FUJ_E8B_A_301


 24 25  0  0  0  0  0  0  0  0999 V2000
    5.1990   53.0545   72.9103 C   0  0  0  0  0  0  0  0  0  0  0  0
    6.5154   51.0472   73.2958 C   0  0  0  0  0  0  0  0  0  0  0  0
    5.7355   50.7186   74.3662 C   0  0  0  0  0  0  0  0  0  0  0  0
    6.2086   52.1885   72.5521 C   0  0  0  0  0  0  0  0  0  0  0  0
    4.7001   51.5696   74.7580 C   0  0  0  0  0  0  0  0  0  0  0  0
    4.4127   52.7272   74.0375 C   0  0  0  0  0  0  0  0  0  0  0  0
    3.7038   55.2490   70.1912 C   0  0  0  0  0  0  0  0  0  0  0  0
    3.9546   54.1599   71.0070 C   0  0  0  0  0  0  0  0  0  0  0  0
    4.8934   54.2473   72.0653 C   0  0  0  0  0  0  0  0  0  0  0  0
    5.4146   56.4646   71.3824 C   0  0  0  0  0  0  0  0  0  0  0  0
    4.4285   56.4072   70.3904 C   0  0  0  0  0  0  0  0  0  0  0  0
    5.6581   55.4184   72.2486 C   0  0  0  0  0  0  0  0  0  0  0  0
    2.0406   53.7574   69.0481 N   0  0  0  0  0  0  0  0  0  0  0  0
    2.6344   55.0890   69.1431 C   0  0  0  0  0  0  0  0  0  0  0  0
    1.3322   53.7526   68.3142 H   0  0  0  0  0  0  0  0  0  0  0  0
    1.6085   53.5135   69.9393 H   0  0  0  0  0  0  0  0  0  0  0  0
    8.7657   51.4673   71.6358 O   0  0  0  0  0  0  0  0  0  0  0  0
    8.4509   50.3617   72.0464 C   0  0  0  0  0  0  0  0  0  0  0  0
    7.4956   50.1641   72.8338 N   0  0  0  0  0  0  0  0  0  0  0  0
    7.4249   49.2453   73.1802 H   0  0  0  0  0  0  0  0  0  0  0  0
    9.2317   49.1040   71.6668 C   0  0  0  0  0  0  0  0  0  0  0  0
    8.3895   47.7896   71.7641 C   0  0  0  0  0  0  0  0  0  0  0  0
    8.7726   46.8901   72.9551 C   0  0  0  0  0  0  0  0  0  0  0  0
    8.3429   46.9578   70.4659 C   0  0  0  0  0  0  0  0  0  0  0  0
 23 22  1  0  0  0
 17 18  2  0  0  0
 22 21  1  0  0  0
 22 24  1  0  0  0
 21 18  1  0  0  0
 10 11  2  0  0  0
 10 12  1  0  0  0
 18 19  1  0  0  0
 11  7  1  0  0  0
 12  9  2  0  0  0
 13 14  1  0  0  0
  7 14  1  0  0  0
  7  8  2  0  0  0
 19  2  1  0  0  0
  9  8  1  0  0  0
  9  1  1  0  0  0
  4  2  2  0  0  0
  4  1  1  0  0  0
  2  3  1  0  0  0
  1  6  2  0  0  0
  3  5  2  0  0  0
  6  5  1  0  0  0
 13 15  1  0  0  0
 13 16  1  0  0  0
 19 20  1  0  0  0
M  END
> <minimizedAffinity>
-7.07250

$$$$
6FUJ_E8B_A_301


 24 25  0  0  0  0  0  0  0  0999 V2000
    3.6650   52.7124   72.8352 C   0  0  0  0  0  0  0  0  0  0  0  0
    5.0112   51.0603   74.0052 C   0  0  0  0  0  0  0  0  0  0  0  0
    4.5124   51.4762   75.2053 C   0  0  0  0  0  0  0  0  0  0  0  0
    4.5458   51.6534   72.8299 C   0  0  0  0  0  0  0  0  0  0  0  0
    3.6145   52.5445   75.2512 C   0  0  0  0  0  0  0  0  0  0  0  0
    3.1739   53.1609   74.0817 C   0  0  0  0  0  0  0  0  0  0  0  0
    3.4759   54.8390   69.6908 C   0  0  0  0  0  0  0  0  0  0  0  0
    3.9462   54.2623   70.8573 C   0  0  0  0  0  0  0  0  0  0  0  0
    3.1766   53.2937   71.5491 C   0  0  0  0  0  0  0  0  0  0  0  0
    1.4231   53.6020   69.9729 C   0  0  0  0  0  0  0  0  0  0  0  0
    2.2156   54.4961   69.2432 C   0  0  0  0  0  0  0  0  0  0  0  0
    1.8758   52.9675   71.1115 C   0  0  0  0  0  0  0  0  0  0  0  0
    3.8614   57.1445   68.7778 N   0  0  0  0  0  0  0  0  0  0  0  0
    4.3940   55.7993   68.9819 C   0  0  0  0  0  0  0  0  0  0  0  0
    4.5544   57.7145   68.2927 H   0  0  0  0  0  0  0  0  0  0  0  0
    3.6468   57.5660   69.6815 H   0  0  0  0  0  0  0  0  0  0  0  0
    7.5981   50.7205   72.9153 O   0  0  0  0  0  0  0  0  0  0  0  0
    6.9582   49.7941   73.3867 C   0  0  0  0  0  0  0  0  0  0  0  0
    5.8380   49.9356   73.9314 N   0  0  0  0  0  0  0  0  0  0  0  0
    5.4864   49.1304   74.3757 H   0  0  0  0  0  0  0  0  0  0  0  0
    7.4923   48.3622   73.3952 C   0  0  0  0  0  0  0  0  0  0  0  0
    7.7188   47.7687   71.9659 C   0  0  0  0  0  0  0  0  0  0  0  0
    6.9226   46.4780   71.6931 C   0  0  0  0  0  0  0  0  0  0  0  0
    9.1987   47.5697   71.5792 C   0  0  0  0  0  0  0  0  0  0  0  0
 23 22  1  0  0  0
 17 18  2  0  0  0
 22 21  1  0  0  0
 22 24  1  0  0  0
 21 18  1  0  0  0
 10 11  2  0  0  0
 10 12  1  0  0  0
 18 19  1  0  0  0
 11  7  1  0  0  0
 12  9  2  0  0  0
 13 14  1  0  0  0
  7 14  1  0  0  0
  7  8  2  0  0  0
 19  2  1  0  0  0
  9  8  1  0  0  0
  9  1  1  0  0  0
  4  2  2  0  0  0
  4  1  1  0  0  0
  2  3  1  0  0  0
  1  6  2  0  0  0
  3  5  2  0  0  0
  6  5  1  0  0  0
 13 15  1  0  0  0
 13 16  1  0  0  0
 19 20  1  0  0  0
M  END
> <minimizedAffinity>
-6.91890

$$$$
6FUJ_E8B_A_301


 24 25  0  0  0  0  0  0  0  0999 V2000
    5.0134   53.6741   72.4478 C   0  0  0  0  0  0  0  0  0  0  0  0
    2.9222   54.6089   71.6332 C   0  0  0  0  0  0  0  0  0  0  0  0
    3.4652   55.8607   71.6198 C   0  0  0  0  0  0  0  0  0  0  0  0
    3.7184   53.5232   72.0035 C   0  0  0  0  0  0  0  0  0  0  0  0
    4.7764   56.0534   72.0595 C   0  0  0  0  0  0  0  0  0  0  0  0
    5.5628   54.9757   72.4619 C   0  0  0  0  0  0  0  0  0  0  0  0
    7.7942   51.0833   72.4365 C   0  0  0  0  0  0  0  0  0  0  0  0
    7.0563   52.2160   72.1416 C   0  0  0  0  0  0  0  0  0  0  0  0
    5.8321   52.4776   72.8063 C   0  0  0  0  0  0  0  0  0  0  0  0
    6.0379   50.3995   73.9437 C   0  0  0  0  0  0  0  0  0  0  0  0
    7.2867   50.1809   73.3501 C   0  0  0  0  0  0  0  0  0  0  0  0
    5.2965   51.5406   73.7147 C   0  0  0  0  0  0  0  0  0  0  0  0
    9.3169   49.6592   71.0398 N   0  0  0  0  0  0  0  0  0  0  0  0
    9.1194   50.9270   71.7387 C   0  0  0  0  0  0  0  0  0  0  0  0
   10.2386   49.6518   70.6029 H   0  0  0  0  0  0  0  0  0  0  0  0
    8.5998   49.5510   70.3225 H   0  0  0  0  0  0  0  0  0  0  0  0
    0.4255   54.2516   72.9116 O   0  0  0  0  0  0  0  0  0  0  0  0
    0.5609   54.1657   71.7015 C   0  0  0  0  0  0  0  0  0  0  0  0
    1.6452   54.3833   71.1112 N   0  0  0  0  0  0  0  0  0  0  0  0
    1.5887   54.3975   70.1284 H   0  0  0  0  0  0  0  0  0  0  0  0
   -0.6074   53.8226   70.7779 C   0  0  0  0  0  0  0  0  0  0  0  0
   -0.1821   53.0382   69.4933 C   0  0  0  0  0  0  0  0  0  0  0  0
   -0.5375   53.7569   68.1775 C   0  0  0  0  0  0  0  0  0  0  0  0
   -0.6651   51.5741   69.4442 C   0  0  0  0  0  0  0  0  0  0  0  0
 23 22  1  0  0  0
 17 18  2  0  0  0
 22 21  1  0  0  0
 22 24  1  0  0  0
 21 18  1  0  0  0
 10 11  2  0  0  0
 10 12  1  0  0  0
 18 19  1  0  0  0
 11  7  1  0  0  0
 12  9  2  0  0  0
 13 14  1  0  0  0
  7 14  1  0  0  0
  7  8  2  0  0  0
 19  2  1  0  0  0
  9  8  1  0  0  0
  9  1  1  0  0  0
  4  2  2  0  0  0
  4  1  1  0  0  0
  2  3  1  0  0  0
  1  6  2  0  0  0
  3  5  2  0  0  0
  6  5  1  0  0  0
 13 15  1  0  0  0
 13 16  1  0  0  0
 19 20  1  0  0  0
M  END
> <minimizedAffinity>
-6.86887

$$$$
6FUJ_E8B_A_301


 24 25  0  0  0  0  0  0  0  0999 V2000
    3.1498   53.3713   71.6582 C   0  0  0  0  0  0  0  0  0  0  0  0
    2.7604   55.3334   70.2765 C   0  0  0  0  0  0  0  0  0  0  0  0
    1.9691   54.6070   69.4350 C   0  0  0  0  0  0  0  0  0  0  0  0
    3.3042   54.7164   71.4049 C   0  0  0  0  0  0  0  0  0  0  0  0
    1.7856   53.2413   69.6607 C   0  0  0  0  0  0  0  0  0  0  0  0
    2.3549   52.6153   70.7678 C   0  0  0  0  0  0  0  0  0  0  0  0
    5.3137   51.2463   73.9488 C   0  0  0  0  0  0  0  0  0  0  0  0
    4.8056   51.8470   72.8107 C   0  0  0  0  0  0  0  0  0  0  0  0
    3.7290   52.7651   72.8941 C   0  0  0  0  0  0  0  0  0  0  0  0
    3.5977   52.3556   75.2328 C   0  0  0  0  0  0  0  0  0  0  0  0
    4.7138   51.5134   75.1634 C   0  0  0  0  0  0  0  0  0  0  0  0
    3.0940   53.0131   74.1291 C   0  0  0  0  0  0  0  0  0  0  0  0
    6.2500   48.9180   73.9490 N   0  0  0  0  0  0  0  0  0  0  0  0
    6.5077   50.3456   73.7742 C   0  0  0  0  0  0  0  0  0  0  0  0
    7.1159   48.3968   73.8112 H   0  0  0  0  0  0  0  0  0  0  0  0
    5.5565   48.6117   73.2666 H   0  0  0  0  0  0  0  0  0  0  0  0
    4.6378   56.8871   68.8422 O   0  0  0  0  0  0  0  0  0  0  0  0
    3.7606   57.3869   69.5283 C   0  0  0  0  0  0  0  0  0  0  0  0
    2.8811   56.7172   70.1197 N   0  0  0  0  0  0  0  0  0  0  0  0
    2.1651   57.2477   70.5382 H   0  0  0  0  0  0  0  0  0  0  0  0
    3.6264   58.9000   69.6958 C   0  0  0  0  0  0  0  0  0  0  0  0
    2.2678   59.3427   70.3319 C   0  0  0  0  0  0  0  0  0  0  0  0
    1.6705   60.6164   69.7033 C   0  0  0  0  0  0  0  0  0  0  0  0
    2.2885   59.4704   71.8689 C   0  0  0  0  0  0  0  0  0  0  0  0
 23 22  1  0  0  0
 17 18  2  0  0  0
 22 21  1  0  0  0
 22 24  1  0  0  0
 21 18  1  0  0  0
 10 11  2  0  0  0
 10 12  1  0  0  0
 18 19  1  0  0  0
 11  7  1  0  0  0
 12  9  2  0  0  0
 13 14  1  0  0  0
  7 14  1  0  0  0
  7  8  2  0  0  0
 19  2  1  0  0  0
  9  8  1  0  0  0
  9  1  1  0  0  0
  4  2  2  0  0  0
  4  1  1  0  0  0
  2  3  1  0  0  0
  1  6  2  0  0  0
  3  5  2  0  0  0
  6  5  1  0  0  0
 13 15  1  0  0  0
 13 16  1  0  0  0
 19 20  1  0  0  0
M  END
> <minimizedAffinity>
-6.82554

$$$$
6FUJ_E8B_A_301


 24 25  0  0  0  0  0  0  0  0999 V2000
    3.1832   52.4807   72.3338 C   0  0  0  0  0  0  0  0  0  0  0  0
    2.8817   54.1679   70.6095 C   0  0  0  0  0  0  0  0  0  0  0  0
    1.7397   53.5547   70.1829 C   0  0  0  0  0  0  0  0  0  0  0  0
    3.5650   53.6484   71.7108 C   0  0  0  0  0  0  0  0  0  0  0  0
    1.3183   52.3709   70.7917 C   0  0  0  0  0  0  0  0  0  0  0  0
    2.0173   51.8315   71.8697 C   0  0  0  0  0  0  0  0  0  0  0  0
    4.1401   51.7695   75.9426 C   0  0  0  0  0  0  0  0  0  0  0  0
    3.4263   52.1873   74.8335 C   0  0  0  0  0  0  0  0  0  0  0  0
    3.9324   51.9818   73.5256 C   0  0  0  0  0  0  0  0  0  0  0  0
    5.9183   51.0739   74.4670 C   0  0  0  0  0  0  0  0  0  0  0  0
    5.3837   51.2000   75.7546 C   0  0  0  0  0  0  0  0  0  0  0  0
    5.2167   51.4308   73.3336 C   0  0  0  0  0  0  0  0  0  0  0  0
    3.1561   53.3372   77.6373 N   0  0  0  0  0  0  0  0  0  0  0  0
    3.4900   51.9583   77.2877 C   0  0  0  0  0  0  0  0  0  0  0  0
    2.7233   53.3585   78.5607 H   0  0  0  0  0  0  0  0  0  0  0  0
    2.5059   53.7148   76.9481 H   0  0  0  0  0  0  0  0  0  0  0  0
    4.7104   54.8119   68.5512 O   0  0  0  0  0  0  0  0  0  0  0  0
    4.1290   55.6650   69.2025 C   0  0  0  0  0  0  0  0  0  0  0  0
    3.2683   55.4002   70.0746 N   0  0  0  0  0  0  0  0  0  0  0  0
    2.7909   56.1804   70.4389 H   0  0  0  0  0  0  0  0  0  0  0  0
    4.3695   57.1578   68.9801 C   0  0  0  0  0  0  0  0  0  0  0  0
    3.8262   58.0598   70.1366 C   0  0  0  0  0  0  0  0  0  0  0  0
    3.0704   59.3109   69.6492 C   0  0  0  0  0  0  0  0  0  0  0  0
    4.8786   58.4550   71.1928 C   0  0  0  0  0  0  0  0  0  0  0  0
 23 22  1  0  0  0
 17 18  2  0  0  0
 22 21  1  0  0  0
 22 24  1  0  0  0
 21 18  1  0  0  0
 10 11  2  0  0  0
 10 12  1  0  0  0
 18 19  1  0  0  0
 11  7  1  0  0  0
 12  9  2  0  0  0
 13 14  1  0  0  0
  7 14  1  0  0  0
  7  8  2  0  0  0
 19  2  1  0  0  0
  9  8  1  0  0  0
  9  1  1  0  0  0
  4  2  2  0  0  0
  4  1  1  0  0  0
  2  3  1  0  0  0
  1  6  2  0  0  0
  3  5  2  0  0  0
  6  5  1  0  0  0
 13 15  1  0  0  0
 13 16  1  0  0  0
 19 20  1  0  0  0
M  END
> <minimizedAffinity>
-6.81202

$$$$
6FUJ_E8B_A_301


 24 25  0  0  0  0  0  0  0  0999 V2000
    4.4703   55.4304   72.3646 C   0  0  0  0  0  0  0  0  0  0  0  0
    3.5290   57.4604   71.4142 C   0  0  0  0  0  0  0  0  0  0  0  0
    4.7748   57.9019   71.0752 C   0  0  0  0  0  0  0  0  0  0  0  0
    3.3883   56.2074   72.0140 C   0  0  0  0  0  0  0  0  0  0  0  0
    5.8962   57.1405   71.4106 C   0  0  0  0  0  0  0  0  0  0  0  0
    5.7610   55.9046   72.0398 C   0  0  0  0  0  0  0  0  0  0  0  0
    5.0941   51.8491   73.4739 C   0  0  0  0  0  0  0  0  0  0  0  0
    5.2962   53.1129   72.9483 C   0  0  0  0  0  0  0  0  0  0  0  0
    4.2651   54.0849   72.9795 C   0  0  0  0  0  0  0  0  0  0  0  0
    2.8065   52.4663   73.9319 C   0  0  0  0  0  0  0  0  0  0  0  0
    3.8483   51.5323   73.9779 C   0  0  0  0  0  0  0  0  0  0  0  0
    2.9824   53.7522   73.4634 C   0  0  0  0  0  0  0  0  0  0  0  0
    5.9928   49.5528   73.9396 N   0  0  0  0  0  0  0  0  0  0  0  0
    6.2694   50.9078   73.4682 C   0  0  0  0  0  0  0  0  0  0  0  0
    6.8470   48.9970   73.8973 H   0  0  0  0  0  0  0  0  0  0  0  0
    5.2798   49.1260   73.3482 H   0  0  0  0  0  0  0  0  0  0  0  0
    1.7368   57.0174   69.2723 O   0  0  0  0  0  0  0  0  0  0  0  0
    1.6467   57.9828   70.0138 C   0  0  0  0  0  0  0  0  0  0  0  0
    2.3914   58.1629   71.0061 N   0  0  0  0  0  0  0  0  0  0  0  0
    2.1356   58.9150   71.5875 H   0  0  0  0  0  0  0  0  0  0  0  0
    0.5732   59.0537   69.8227 C   0  0  0  0  0  0  0  0  0  0  0  0
    0.8145   60.3429   70.6747 C   0  0  0  0  0  0  0  0  0  0  0  0
   -0.4188   60.7999   71.4773 C   0  0  0  0  0  0  0  0  0  0  0  0
    1.4055   61.5317   69.8894 C   0  0  0  0  0  0  0  0  0  0  0  0
 23 22  1  0  0  0
 17 18  2  0  0  0
 22 21  1  0  0  0
 22 24  1  0  0  0
 21 18  1  0  0  0
 10 11  2  0  0  0
 10 12  1  0  0  0
 18 19  1  0  0  0
 11  7  1  0  0  0
 12  9  2  0  0  0
 13 14  1  0  0  0
  7 14  1  0  0  0
  7  8  2  0  0  0
 19  2  1  0  0  0
  9  8  1  0  0  0
  9  1  1  0  0  0
  4  2  2  0  0  0
  4  1  1  0  0  0
  2  3  1  0  0  0
  1  6  2  0  0  0
  3  5  2  0  0  0
  6  5  1  0  0  0
 13 15  1  0  0  0
 13 16  1  0  0  0
 19 20  1  0  0  0
M  END
> <minimizedAffinity>
-6.66934

$$$$
6FUJ_E8B_A_301


 24 25  0  0  0  0  0  0  0  0999 V2000
    3.3424   52.4901   72.7028 C   0  0  0  0  0  0  0  0  0  0  0  0
    4.8637   51.0375   73.9218 C   0  0  0  0  0  0  0  0  0  0  0  0
    4.4107   51.5297   75.1111 C   0  0  0  0  0  0  0  0  0  0  0  0
    4.2904   51.4912   72.7322 C   0  0  0  0  0  0  0  0  0  0  0  0
    3.4475   52.5405   75.1224 C   0  0  0  0  0  0  0  0  0  0  0  0
    2.8976   53.0194   73.9349 C   0  0  0  0  0  0  0  0  0  0  0  0
    1.5382   52.3735   69.3597 C   0  0  0  0  0  0  0  0  0  0  0  0
    2.0556   51.9903   70.5844 C   0  0  0  0  0  0  0  0  0  0  0  0
    2.7404   52.9206   71.4056 C   0  0  0  0  0  0  0  0  0  0  0  0
    2.5005   54.5602   69.7001 C   0  0  0  0  0  0  0  0  0  0  0  0
    1.7520   53.6664   68.9251 C   0  0  0  0  0  0  0  0  0  0  0  0
    2.9885   54.2319   70.9483 C   0  0  0  0  0  0  0  0  0  0  0  0
    0.3813   51.7190   67.2311 N   0  0  0  0  0  0  0  0  0  0  0  0
    0.7585   51.3398   68.5908 C   0  0  0  0  0  0  0  0  0  0  0  0
   -0.1398   50.9567   66.7977 H   0  0  0  0  0  0  0  0  0  0  0  0
    1.2219   51.9096   66.6857 H   0  0  0  0  0  0  0  0  0  0  0  0
    7.5024   50.8400   72.9247 O   0  0  0  0  0  0  0  0  0  0  0  0
    6.9030   49.8828   73.3879 C   0  0  0  0  0  0  0  0  0  0  0  0
    5.7582   49.9636   73.8924 N   0  0  0  0  0  0  0  0  0  0  0  0
    5.4401   49.1445   74.3364 H   0  0  0  0  0  0  0  0  0  0  0  0
    7.5209   48.4858   73.4354 C   0  0  0  0  0  0  0  0  0  0  0  0
    7.6878   47.8256   72.0274 C   0  0  0  0  0  0  0  0  0  0  0  0
    6.9858   46.4607   71.8912 C   0  0  0  0  0  0  0  0  0  0  0  0
    9.1457   47.7227   71.5339 C   0  0  0  0  0  0  0  0  0  0  0  0
 23 22  1  0  0  0
 17 18  2  0  0  0
 22 21  1  0  0  0
 22 24  1  0  0  0
 21 18  1  0  0  0
 10 11  2  0  0  0
 10 12  1  0  0  0
 18 19  1  0  0  0
 11  7  1  0  0  0
 12  9  2  0  0  0
 13 14  1  0  0  0
  7 14  1  0  0  0
  7  8  2  0  0  0
 19  2  1  0  0  0
  9  8  1  0  0  0
  9  1  1  0  0  0
  4  2  2  0  0  0
  4  1  1  0  0  0
  2  3  1  0  0  0
  1  6  2  0  0  0
  3  5  2  0  0  0
  6  5  1  0  0  0
 13 15  1  0  0  0
 13 16  1  0  0  0
 19 20  1  0  0  0
M  END
> <minimizedAffinity>
-6.65812

$$$$
