4DJO_MK5_A_101


 43 44  0  0  0  0  0  0  0  0999 V2000
   18.1953   32.3537   14.9858 C   0  0  0  0  0  0  0  0  0  0  0  0
   18.2932   31.7020   13.6755 N   0  0  0  0  0  0  0  0  0  0  0  0
   18.2155   30.3919   13.4781 C   0  0  0  0  0  0  0  0  0  0  0  0
   18.0476   29.5653   14.3710 O   0  0  0  0  0  0  0  0  0  0  0  0
   18.4259   32.2766   12.8872 H   0  0  0  0  0  0  0  0  0  0  0  0
   18.3427   29.9558   12.1942 O   0  0  0  0  0  0  0  0  0  0  0  0
   17.4012   28.9051   11.9669 C   0  0  0  0  0  0  0  0  0  0  0  0
   17.9449   27.9790   10.8794 C   0  0  0  0  0  0  0  0  0  0  0  0
   18.3686   26.7070   11.4787 N   0  0  0  0  0  0  0  0  0  0  0  0
   18.0581   25.5494   10.9119 C   0  0  0  0  0  0  0  0  0  0  0  0
   17.4387   25.4695    9.8518 O   0  0  0  0  0  0  0  0  0  0  0  0
   18.8908   26.7139   12.3133 H   0  0  0  0  0  0  0  0  0  0  0  0
   18.5419   24.2824   11.6279 C   0  0  0  0  0  0  0  0  0  0  0  0
   20.0735   23.6128   10.9567 Cl  0  0  0  0  0  0  0  0  0  0  0  0
   17.2544   23.0651   11.4395 Cl  0  0  0  0  0  0  0  0  0  0  0  0
   19.2817   31.8020   15.9092 C   0  0  0  0  0  0  0  0  0  0  0  0
   18.6887   31.2608   17.0861 O   0  0  0  0  0  0  0  0  0  0  0  0
   18.2150   31.9614   17.5611 H   0  0  0  0  0  0  0  0  0  0  0  0
   20.3141   32.8847   16.2611 C   0  0  0  0  0  0  0  0  0  0  0  0
   21.6446   32.2473   16.2478 N   0  0  0  0  0  0  0  0  0  0  0  0
   22.2642   32.2102   14.7010 S   0  0  0  0  0  0  0  0  0  0  0  0
   21.5825   33.2764   13.8933 O   0  0  0  0  0  0  0  0  0  0  0  0
   23.7286   32.4438   14.7647 O   0  0  0  0  0  0  0  0  0  0  0  0
   21.4433   28.1654   12.7982 C   0  0  0  0  0  0  0  0  0  0  0  0
   21.7866   29.2554   12.0049 C   0  0  0  0  0  0  0  0  0  0  0  0
   22.0341   30.4952   12.5839 C   0  0  0  0  0  0  0  0  0  0  0  0
   21.3404   28.3207   14.1771 C   0  0  0  0  0  0  0  0  0  0  0  0
   21.5883   29.5606   14.7545 C   0  0  0  0  0  0  0  0  0  0  0  0
   21.9365   30.6492   13.9612 C   0  0  0  0  0  0  0  0  0  0  0  0
   22.3544   26.4526   11.5225 C   0  0  0  0  0  0  0  0  0  0  0  0
   21.1992   26.9572   12.2060 O   0  0  0  0  0  0  0  0  0  0  0  0
   22.5318   32.9217   17.2182 C   0  0  0  0  0  0  0  0  0  0  0  0
   22.0597   34.3447   17.5338 C   0  0  0  0  0  0  0  0  0  0  0  0
   22.1506   34.6774   19.0343 C   0  0  0  0  0  0  0  0  0  0  0  0
   22.8187   35.3762   16.7029 C   0  0  0  0  0  0  0  0  0  0  0  0
   21.9879   36.6437   16.5499 C   0  0  0  0  0  0  0  0  0  0  0  0
   16.7844   32.1281   15.5547 C   0  0  0  0  0  0  0  0  0  0  0  0
   16.2500   33.4279   16.1658 C   0  0  0  0  0  0  0  0  0  0  0  0
   16.7025   34.6505   15.6854 C   0  0  0  0  0  0  0  0  0  0  0  0
   16.2376   35.8372   16.2361 C   0  0  0  0  0  0  0  0  0  0  0  0
   15.3106   35.8014   17.2726 C   0  0  0  0  0  0  0  0  0  0  0  0
   14.8583   34.5809   17.7584 C   0  0  0  0  0  0  0  0  0  0  0  0
   15.3247   33.3963   17.1984 C   0  0  0  0  0  0  0  0  0  0  0  0
 14 13  1  0  0  0
 13 10  1  0  0  0
 13 15  1  0  0  0
 41 42  2  0  0  0
 41 40  1  0  0  0
  9 10  1  0  0  0
  9  8  1  0  0  0
 10 11  2  0  0  0
 42 43  1  0  0  0
  8  7  1  0  0  0
 40 39  2  0  0  0
  7  6  1  0  0  0
 43 38  2  0  0  0
 39 38  1  0  0  0
  6  3  1  0  0  0
  4  3  2  0  0  0
 38 37  1  0  0  0
  3  2  1  0  0  0
 22 21  2  0  0  0
  2  1  1  0  0  0
 37  1  1  0  0  0
 23 21  2  0  0  0
 36 35  1  0  0  0
  1 16  1  0  0  0
 21 20  1  0  0  0
 21 29  1  0  0  0
 35 33  1  0  0  0
 20 19  1  0  0  0
 20 32  1  0  0  0
 16 19  1  0  0  0
 16 17  1  0  0  0
 29 28  2  0  0  0
 29 26  1  0  0  0
 28 27  1  0  0  0
 33 32  1  0  0  0
 33 34  1  0  0  0
 26 25  2  0  0  0
 27 24  2  0  0  0
 25 24  1  0  0  0
 24 31  1  0  0  0
 31 30  1  0  0  0
 17 18  1  0  0  0
  2  5  1  0  0  0
  9 12  1  0  0  0
M  END
> <minimizedAffinity>
-8.72301

$$$$
4DJO_MK5_A_101


 43 44  0  0  0  0  0  0  0  0999 V2000
   19.9182   29.4121   14.2027 C   0  0  0  0  0  0  0  0  0  0  0  0
   21.0193   29.0817   13.2920 N   0  0  0  0  0  0  0  0  0  0  0  0
   21.3977   29.8314   12.2644 C   0  0  0  0  0  0  0  0  0  0  0  0
   20.8725   30.8974   11.9537 O   0  0  0  0  0  0  0  0  0  0  0  0
   21.5123   28.2451   13.4543 H   0  0  0  0  0  0  0  0  0  0  0  0
   22.4323   29.3646   11.5117 O   0  0  0  0  0  0  0  0  0  0  0  0
   23.1652   28.4055   12.2765 C   0  0  0  0  0  0  0  0  0  0  0  0
   24.0793   27.6177   11.3387 C   0  0  0  0  0  0  0  0  0  0  0  0
   23.2951   26.6088   10.6148 N   0  0  0  0  0  0  0  0  0  0  0  0
   23.6373   25.3284   10.6453 C   0  0  0  0  0  0  0  0  0  0  0  0
   24.5926   24.9075   11.2966 O   0  0  0  0  0  0  0  0  0  0  0  0
   22.5038   26.8874   10.0995 H   0  0  0  0  0  0  0  0  0  0  0  0
   22.7549   24.3623    9.8454 C   0  0  0  0  0  0  0  0  0  0  0  0
   22.5053   24.8607    8.1325 Cl  0  0  0  0  0  0  0  0  0  0  0  0
   21.1730   24.3171   10.6643 Cl  0  0  0  0  0  0  0  0  0  0  0  0
   20.4816   29.7128   15.5918 C   0  0  0  0  0  0  0  0  0  0  0  0
   19.9391   28.8012   16.5427 O   0  0  0  0  0  0  0  0  0  0  0  0
   18.9754   28.9060   16.5779 H   0  0  0  0  0  0  0  0  0  0  0  0
   20.2016   31.1672   16.0019 C   0  0  0  0  0  0  0  0  0  0  0  0
   19.4067   31.7851   14.9235 N   0  0  0  0  0  0  0  0  0  0  0  0
   17.8023   31.8921   15.3620 S   0  0  0  0  0  0  0  0  0  0  0  0
   16.9621   31.6693   14.1379 O   0  0  0  0  0  0  0  0  0  0  0  0
   17.5183   30.8674   16.3975 O   0  0  0  0  0  0  0  0  0  0  0  0
   16.9359   36.0505   16.9781 C   0  0  0  0  0  0  0  0  0  0  0  0
   17.6894   35.1518   17.7262 C   0  0  0  0  0  0  0  0  0  0  0  0
   17.9524   33.8773   17.2361 C   0  0  0  0  0  0  0  0  0  0  0  0
   16.4376   35.6674   15.7366 C   0  0  0  0  0  0  0  0  0  0  0  0
   16.7015   34.3932   15.2480 C   0  0  0  0  0  0  0  0  0  0  0  0
   17.4593   33.4965   15.9944 C   0  0  0  0  0  0  0  0  0  0  0  0
   16.1886   37.2401   18.8268 C   0  0  0  0  0  0  0  0  0  0  0  0
   16.6855   37.2965   17.4828 O   0  0  0  0  0  0  0  0  0  0  0  0
   19.9993   33.0856   14.5478 C   0  0  0  0  0  0  0  0  0  0  0  0
   21.3735   33.2968   15.1916 C   0  0  0  0  0  0  0  0  0  0  0  0
   22.5299   33.0820   14.1981 C   0  0  0  0  0  0  0  0  0  0  0  0
   21.4711   34.6715   15.8481 C   0  0  0  0  0  0  0  0  0  0  0  0
   22.7350   34.7628   16.6935 C   0  0  0  0  0  0  0  0  0  0  0  0
   18.9177   28.2442   14.2257 C   0  0  0  0  0  0  0  0  0  0  0  0
   18.3813   27.9839   12.8139 C   0  0  0  0  0  0  0  0  0  0  0  0
   17.5979   28.9455   12.1878 C   0  0  0  0  0  0  0  0  0  0  0  0
   17.0940   28.7204   10.9139 C   0  0  0  0  0  0  0  0  0  0  0  0
   17.3782   27.5263   10.2594 C   0  0  0  0  0  0  0  0  0  0  0  0
   18.1582   26.5606   10.8834 C   0  0  0  0  0  0  0  0  0  0  0  0
   18.6637   26.7953   12.1576 C   0  0  0  0  0  0  0  0  0  0  0  0
 14 13  1  0  0  0
 13 10  1  0  0  0
 13 15  1  0  0  0
 41 42  2  0  0  0
 41 40  1  0  0  0
  9 10  1  0  0  0
  9  8  1  0  0  0
 10 11  2  0  0  0
 42 43  1  0  0  0
  8  7  1  0  0  0
 40 39  2  0  0  0
  7  6  1  0  0  0
 43 38  2  0  0  0
 39 38  1  0  0  0
  6  3  1  0  0  0
  4  3  2  0  0  0
 38 37  1  0  0  0
  3  2  1  0  0  0
 22 21  2  0  0  0
  2  1  1  0  0  0
 37  1  1  0  0  0
 23 21  2  0  0  0
 36 35  1  0  0  0
  1 16  1  0  0  0
 21 20  1  0  0  0
 21 29  1  0  0  0
 35 33  1  0  0  0
 20 19  1  0  0  0
 20 32  1  0  0  0
 16 19  1  0  0  0
 16 17  1  0  0  0
 29 28  2  0  0  0
 29 26  1  0  0  0
 28 27  1  0  0  0
 33 32  1  0  0  0
 33 34  1  0  0  0
 26 25  2  0  0  0
 27 24  2  0  0  0
 25 24  1  0  0  0
 24 31  1  0  0  0
 31 30  1  0  0  0
 17 18  1  0  0  0
  2  5  1  0  0  0
  9 12  1  0  0  0
M  END
> <minimizedAffinity>
-8.64097

$$$$
4DJO_MK5_A_101


 43 44  0  0  0  0  0  0  0  0999 V2000
   17.9958   31.2388   15.0576 C   0  0  0  0  0  0  0  0  0  0  0  0
   17.4456   32.5791   15.2855 N   0  0  0  0  0  0  0  0  0  0  0  0
   16.2625   32.8244   15.8346 C   0  0  0  0  0  0  0  0  0  0  0  0
   15.4853   31.9562   16.2229 O   0  0  0  0  0  0  0  0  0  0  0  0
   17.9922   33.3509   15.0120 H   0  0  0  0  0  0  0  0  0  0  0  0
   15.9017   34.1320   15.9571 O   0  0  0  0  0  0  0  0  0  0  0  0
   17.0045   34.8685   16.4894 C   0  0  0  0  0  0  0  0  0  0  0  0
   16.6387   36.3520   16.5254 C   0  0  0  0  0  0  0  0  0  0  0  0
   17.7739   37.1296   17.0385 N   0  0  0  0  0  0  0  0  0  0  0  0
   17.7677   38.4546   16.9954 C   0  0  0  0  0  0  0  0  0  0  0  0
   16.8160   39.1046   16.5644 O   0  0  0  0  0  0  0  0  0  0  0  0
   18.5507   36.6602   17.4200 H   0  0  0  0  0  0  0  0  0  0  0  0
   19.0088   39.1657   17.5486 C   0  0  0  0  0  0  0  0  0  0  0  0
   20.2085   39.6161   16.2827 Cl  0  0  0  0  0  0  0  0  0  0  0  0
   19.7793   38.0357   18.6907 Cl  0  0  0  0  0  0  0  0  0  0  0  0
   19.2466   31.0511   15.9164 C   0  0  0  0  0  0  0  0  0  0  0  0
   18.8779   30.6126   17.2208 O   0  0  0  0  0  0  0  0  0  0  0  0
   18.3196   31.2848   17.6420 H   0  0  0  0  0  0  0  0  0  0  0  0
   20.0734   32.3448   15.9839 C   0  0  0  0  0  0  0  0  0  0  0  0
   21.4976   31.9613   15.9493 N   0  0  0  0  0  0  0  0  0  0  0  0
   22.0739   31.9777   14.3855 S   0  0  0  0  0  0  0  0  0  0  0  0
   21.2723   32.9725   13.5970 O   0  0  0  0  0  0  0  0  0  0  0  0
   23.5110   32.3482   14.4074 O   0  0  0  0  0  0  0  0  0  0  0  0
   21.5839   27.8676   12.5088 C   0  0  0  0  0  0  0  0  0  0  0  0
   21.7990   28.9828   11.7054 C   0  0  0  0  0  0  0  0  0  0  0  0
   21.9450   30.2422   12.2766 C   0  0  0  0  0  0  0  0  0  0  0  0
   21.5073   28.0167   13.8901 C   0  0  0  0  0  0  0  0  0  0  0  0
   21.6537   29.2762   14.4596 C   0  0  0  0  0  0  0  0  0  0  0  0
   21.8737   30.3904   13.6561 C   0  0  0  0  0  0  0  0  0  0  0  0
   22.6860   26.1249   11.4413 C   0  0  0  0  0  0  0  0  0  0  0  0
   21.4379   26.6400   11.9244 O   0  0  0  0  0  0  0  0  0  0  0  0
   22.2700   32.8237   16.8675 C   0  0  0  0  0  0  0  0  0  0  0  0
   21.5550   34.1499   17.1459 C   0  0  0  0  0  0  0  0  0  0  0  0
   21.7253   34.6175   18.6029 C   0  0  0  0  0  0  0  0  0  0  0  0
   22.0050   35.2358   16.1720 C   0  0  0  0  0  0  0  0  0  0  0  0
   22.4080   36.4921   16.9334 C   0  0  0  0  0  0  0  0  0  0  0  0
   18.2931   31.0661   13.5586 C   0  0  0  0  0  0  0  0  0  0  0  0
   18.1180   29.5985   13.1536 C   0  0  0  0  0  0  0  0  0  0  0  0
   17.9456   28.6302   14.1350 C   0  0  0  0  0  0  0  0  0  0  0  0
   17.7977   27.2947   13.7857 C   0  0  0  0  0  0  0  0  0  0  0  0
   17.8189   26.9247   12.4449 C   0  0  0  0  0  0  0  0  0  0  0  0
   17.9946   27.8893   11.4607 C   0  0  0  0  0  0  0  0  0  0  0  0
   18.1370   29.2259   11.8179 C   0  0  0  0  0  0  0  0  0  0  0  0
 14 13  1  0  0  0
 13 10  1  0  0  0
 13 15  1  0  0  0
 41 42  2  0  0  0
 41 40  1  0  0  0
  9 10  1  0  0  0
  9  8  1  0  0  0
 10 11  2  0  0  0
 42 43  1  0  0  0
  8  7  1  0  0  0
 40 39  2  0  0  0
  7  6  1  0  0  0
 43 38  2  0  0  0
 39 38  1  0  0  0
  6  3  1  0  0  0
  4  3  2  0  0  0
 38 37  1  0  0  0
  3  2  1  0  0  0
 22 21  2  0  0  0
  2  1  1  0  0  0
 37  1  1  0  0  0
 23 21  2  0  0  0
 36 35  1  0  0  0
  1 16  1  0  0  0
 21 20  1  0  0  0
 21 29  1  0  0  0
 35 33  1  0  0  0
 20 19  1  0  0  0
 20 32  1  0  0  0
 16 19  1  0  0  0
 16 17  1  0  0  0
 29 28  2  0  0  0
 29 26  1  0  0  0
 28 27  1  0  0  0
 33 32  1  0  0  0
 33 34  1  0  0  0
 26 25  2  0  0  0
 27 24  2  0  0  0
 25 24  1  0  0  0
 24 31  1  0  0  0
 31 30  1  0  0  0
 17 18  1  0  0  0
  2  5  1  0  0  0
  9 12  1  0  0  0
M  END
> <minimizedAffinity>
-8.57714

$$$$
4DJO_MK5_A_101


 43 44  0  0  0  0  0  0  0  0999 V2000
   21.1311   28.1033   13.1853 C   0  0  0  0  0  0  0  0  0  0  0  0
   19.9255   28.4200   12.4123 N   0  0  0  0  0  0  0  0  0  0  0  0
   19.0765   27.5173   11.9374 C   0  0  0  0  0  0  0  0  0  0  0  0
   19.1962   26.3046   12.0918 O   0  0  0  0  0  0  0  0  0  0  0  0
   19.7326   29.3686   12.2333 H   0  0  0  0  0  0  0  0  0  0  0  0
   18.0145   27.9875   11.2262 O   0  0  0  0  0  0  0  0  0  0  0  0
   17.6659   27.0282   10.2261 C   0  0  0  0  0  0  0  0  0  0  0  0
   18.5686   27.2302    9.0094 C   0  0  0  0  0  0  0  0  0  0  0  0
   19.5217   26.1173    8.9099 N   0  0  0  0  0  0  0  0  0  0  0  0
   19.8740   25.6250    7.7304 C   0  0  0  0  0  0  0  0  0  0  0  0
   19.4612   26.0821    6.6653 O   0  0  0  0  0  0  0  0  0  0  0  0
   19.9044   25.7314    9.7307 H   0  0  0  0  0  0  0  0  0  0  0  0
   20.8675   24.4567    7.7429 C   0  0  0  0  0  0  0  0  0  0  0  0
   22.5489   24.9327    7.3060 Cl  0  0  0  0  0  0  0  0  0  0  0  0
   20.2795   23.2725    6.5483 Cl  0  0  0  0  0  0  0  0  0  0  0  0
   21.0202   28.7272   14.5766 C   0  0  0  0  0  0  0  0  0  0  0  0
   20.9333   27.7021   15.5621 O   0  0  0  0  0  0  0  0  0  0  0  0
   20.1381   27.1693   15.4052 H   0  0  0  0  0  0  0  0  0  0  0  0
   19.8164   29.6785   14.6644 C   0  0  0  0  0  0  0  0  0  0  0  0
   20.2941   31.0292   14.3121 N   0  0  0  0  0  0  0  0  0  0  0  0
   19.1600   31.8337   13.3930 S   0  0  0  0  0  0  0  0  0  0  0  0
   19.8537   32.9343   12.6437 O   0  0  0  0  0  0  0  0  0  0  0  0
   18.5272   30.8692   12.4591 O   0  0  0  0  0  0  0  0  0  0  0  0
   15.9834   33.6732   16.0726 C   0  0  0  0  0  0  0  0  0  0  0  0
   16.8524   34.4892   15.3555 C   0  0  0  0  0  0  0  0  0  0  0  0
   17.8281   33.9291   14.5382 C   0  0  0  0  0  0  0  0  0  0  0  0
   16.0978   32.2898   15.9758 C   0  0  0  0  0  0  0  0  0  0  0  0
   17.0735   31.7314   15.1583 C   0  0  0  0  0  0  0  0  0  0  0  0
   17.9391   32.5479   14.4374 C   0  0  0  0  0  0  0  0  0  0  0  0
   15.4013   35.5751   17.2706 C   0  0  0  0  0  0  0  0  0  0  0  0
   15.0353   34.2464   16.8741 O   0  0  0  0  0  0  0  0  0  0  0  0
   20.6791   31.7589   15.5380 C   0  0  0  0  0  0  0  0  0  0  0  0
   22.1744   32.0919   15.5612 C   0  0  0  0  0  0  0  0  0  0  0  0
   22.8505   31.8658   14.1966 C   0  0  0  0  0  0  0  0  0  0  0  0
   22.4162   33.5154   16.0567 C   0  0  0  0  0  0  0  0  0  0  0  0
   21.1493   34.3478   15.9064 C   0  0  0  0  0  0  0  0  0  0  0  0
   22.3654   28.6112   12.4212 C   0  0  0  0  0  0  0  0  0  0  0  0
   23.1529   27.4278   11.8487 C   0  0  0  0  0  0  0  0  0  0  0  0
   22.4718   26.3137   11.3740 C   0  0  0  0  0  0  0  0  0  0  0  0
   23.1706   25.2282   10.8633 C   0  0  0  0  0  0  0  0  0  0  0  0
   24.5607   25.2579   10.8236 C   0  0  0  0  0  0  0  0  0  0  0  0
   25.2458   26.3685   11.3006 C   0  0  0  0  0  0  0  0  0  0  0  0
   24.5389   27.4544   11.8061 C   0  0  0  0  0  0  0  0  0  0  0  0
 14 13  1  0  0  0
 13 10  1  0  0  0
 13 15  1  0  0  0
 41 42  2  0  0  0
 41 40  1  0  0  0
  9 10  1  0  0  0
  9  8  1  0  0  0
 10 11  2  0  0  0
 42 43  1  0  0  0
  8  7  1  0  0  0
 40 39  2  0  0  0
  7  6  1  0  0  0
 43 38  2  0  0  0
 39 38  1  0  0  0
  6  3  1  0  0  0
  4  3  2  0  0  0
 38 37  1  0  0  0
  3  2  1  0  0  0
 22 21  2  0  0  0
  2  1  1  0  0  0
 37  1  1  0  0  0
 23 21  2  0  0  0
 36 35  1  0  0  0
  1 16  1  0  0  0
 21 20  1  0  0  0
 21 29  1  0  0  0
 35 33  1  0  0  0
 20 19  1  0  0  0
 20 32  1  0  0  0
 16 19  1  0  0  0
 16 17  1  0  0  0
 29 28  2  0  0  0
 29 26  1  0  0  0
 28 27  1  0  0  0
 33 32  1  0  0  0
 33 34  1  0  0  0
 26 25  2  0  0  0
 27 24  2  0  0  0
 25 24  1  0  0  0
 24 31  1  0  0  0
 31 30  1  0  0  0
 17 18  1  0  0  0
  2  5  1  0  0  0
  9 12  1  0  0  0
M  END
> <minimizedAffinity>
-8.47446

$$$$
4DJO_MK5_A_101


 43 44  0  0  0  0  0  0  0  0999 V2000
   19.1052   30.9469   14.9844 C   0  0  0  0  0  0  0  0  0  0  0  0
   20.1670   31.9107   14.6763 N   0  0  0  0  0  0  0  0  0  0  0  0
   21.0634   32.3492   15.5511 C   0  0  0  0  0  0  0  0  0  0  0  0
   21.1146   31.9966   16.7266 O   0  0  0  0  0  0  0  0  0  0  0  0
   20.2182   32.2566   13.7559 H   0  0  0  0  0  0  0  0  0  0  0  0
   21.9714   33.2572   15.0972 O   0  0  0  0  0  0  0  0  0  0  0  0
   23.1617   33.1528   15.8809 C   0  0  0  0  0  0  0  0  0  0  0  0
   23.3924   34.4758   16.6104 C   0  0  0  0  0  0  0  0  0  0  0  0
   22.3449   34.6735   17.6205 N   0  0  0  0  0  0  0  0  0  0  0  0
   21.4266   35.6185   17.4744 C   0  0  0  0  0  0  0  0  0  0  0  0
   21.3733   36.3514   16.4875 O   0  0  0  0  0  0  0  0  0  0  0  0
   22.3243   34.0960   18.4176 H   0  0  0  0  0  0  0  0  0  0  0  0
   20.3863   35.7443   18.5942 C   0  0  0  0  0  0  0  0  0  0  0  0
   20.9991   35.2380   20.2106 Cl  0  0  0  0  0  0  0  0  0  0  0  0
   19.0209   34.6915   18.1446 Cl  0  0  0  0  0  0  0  0  0  0  0  0
   19.5774   29.5388   14.6218 C   0  0  0  0  0  0  0  0  0  0  0  0
   20.5515   29.0968   15.5628 O   0  0  0  0  0  0  0  0  0  0  0  0
   21.3189   29.6895   15.5363 H   0  0  0  0  0  0  0  0  0  0  0  0
   20.1338   29.4909   13.1901 C   0  0  0  0  0  0  0  0  0  0  0  0
   19.9130   28.1259   12.6757 N   0  0  0  0  0  0  0  0  0  0  0  0
   18.3227   27.9176   12.2224 S   0  0  0  0  0  0  0  0  0  0  0  0
   17.4943   27.7592   13.4645 O   0  0  0  0  0  0  0  0  0  0  0  0
   17.8880   29.1007   11.4387 O   0  0  0  0  0  0  0  0  0  0  0  0
   17.8794   24.1598    9.7050 C   0  0  0  0  0  0  0  0  0  0  0  0
   17.9172   24.0722   11.0928 C   0  0  0  0  0  0  0  0  0  0  0  0
   18.0571   25.2198   11.8655 C   0  0  0  0  0  0  0  0  0  0  0  0
   17.9899   25.4026    9.0888 C   0  0  0  0  0  0  0  0  0  0  0  0
   18.1295   26.5489    9.8624 C   0  0  0  0  0  0  0  0  0  0  0  0
   18.1622   26.4612   11.2505 C   0  0  0  0  0  0  0  0  0  0  0  0
   18.0204   23.2435    7.5762 C   0  0  0  0  0  0  0  0  0  0  0  0
   17.7467   23.0172    8.9656 O   0  0  0  0  0  0  0  0  0  0  0  0
   20.8739   27.8391   11.5904 C   0  0  0  0  0  0  0  0  0  0  0  0
   21.9420   26.8292   12.0224 C   0  0  0  0  0  0  0  0  0  0  0  0
   21.7481   25.4490   11.3682 C   0  0  0  0  0  0  0  0  0  0  0  0
   23.3473   27.3627   11.7560 C   0  0  0  0  0  0  0  0  0  0  0  0
   24.3346   26.2089   11.6356 C   0  0  0  0  0  0  0  0  0  0  0  0
   17.8303   31.3431   14.2209 C   0  0  0  0  0  0  0  0  0  0  0  0
   17.0965   32.4620   14.9680 C   0  0  0  0  0  0  0  0  0  0  0  0
   16.2492   32.1443   16.0223 C   0  0  0  0  0  0  0  0  0  0  0  0
   15.5676   33.1450   16.7017 C   0  0  0  0  0  0  0  0  0  0  0  0
   15.7370   34.4737   16.3266 C   0  0  0  0  0  0  0  0  0  0  0  0
   16.5805   34.7954   15.2706 C   0  0  0  0  0  0  0  0  0  0  0  0
   17.2640   33.7880   14.5979 C   0  0  0  0  0  0  0  0  0  0  0  0
 14 13  1  0  0  0
 13 10  1  0  0  0
 13 15  1  0  0  0
 41 42  2  0  0  0
 41 40  1  0  0  0
  9 10  1  0  0  0
  9  8  1  0  0  0
 10 11  2  0  0  0
 42 43  1  0  0  0
  8  7  1  0  0  0
 40 39  2  0  0  0
  7  6  1  0  0  0
 43 38  2  0  0  0
 39 38  1  0  0  0
  6  3  1  0  0  0
  4  3  2  0  0  0
 38 37  1  0  0  0
  3  2  1  0  0  0
 22 21  2  0  0  0
  2  1  1  0  0  0
 37  1  1  0  0  0
 23 21  2  0  0  0
 36 35  1  0  0  0
  1 16  1  0  0  0
 21 20  1  0  0  0
 21 29  1  0  0  0
 35 33  1  0  0  0
 20 19  1  0  0  0
 20 32  1  0  0  0
 16 19  1  0  0  0
 16 17  1  0  0  0
 29 28  2  0  0  0
 29 26  1  0  0  0
 28 27  1  0  0  0
 33 32  1  0  0  0
 33 34  1  0  0  0
 26 25  2  0  0  0
 27 24  2  0  0  0
 25 24  1  0  0  0
 24 31  1  0  0  0
 31 30  1  0  0  0
 17 18  1  0  0  0
  2  5  1  0  0  0
  9 12  1  0  0  0
M  END
> <minimizedAffinity>
-8.40216

$$$$
4DJO_MK5_A_101


 43 44  0  0  0  0  0  0  0  0999 V2000
   18.6061   30.8204   15.2128 C   0  0  0  0  0  0  0  0  0  0  0  0
   18.5807   29.5677   14.4502 N   0  0  0  0  0  0  0  0  0  0  0  0
   18.4613   29.4914   13.1307 C   0  0  0  0  0  0  0  0  0  0  0  0
   18.3615   30.4634   12.3865 O   0  0  0  0  0  0  0  0  0  0  0  0
   18.6576   28.7244   14.9525 H   0  0  0  0  0  0  0  0  0  0  0  0
   18.4402   28.2427   12.5873 O   0  0  0  0  0  0  0  0  0  0  0  0
   19.7477   27.6740   12.6834 C   0  0  0  0  0  0  0  0  0  0  0  0
   20.2676   27.3859   11.2754 C   0  0  0  0  0  0  0  0  0  0  0  0
   21.7310   27.2648   11.3031 N   0  0  0  0  0  0  0  0  0  0  0  0
   22.3142   26.0902   11.4972 C   0  0  0  0  0  0  0  0  0  0  0  0
   21.6811   25.0434   11.6286 O   0  0  0  0  0  0  0  0  0  0  0  0
   22.2868   28.0674   11.1757 H   0  0  0  0  0  0  0  0  0  0  0  0
   23.8477   26.0799   11.5183 C   0  0  0  0  0  0  0  0  0  0  0  0
   24.5895   27.6017   10.9030 Cl  0  0  0  0  0  0  0  0  0  0  0  0
   24.3646   24.7297   10.4768 Cl  0  0  0  0  0  0  0  0  0  0  0  0
   19.7737   30.7902   16.1992 C   0  0  0  0  0  0  0  0  0  0  0  0
   19.5917   29.7302   17.1335 O   0  0  0  0  0  0  0  0  0  0  0  0
   18.7751   29.8783   17.6356 H   0  0  0  0  0  0  0  0  0  0  0  0
   19.9269   32.1389   16.9200 C   0  0  0  0  0  0  0  0  0  0  0  0
   20.9365   32.9218   16.1822 N   0  0  0  0  0  0  0  0  0  0  0  0
   21.3518   34.2951   17.0306 S   0  0  0  0  0  0  0  0  0  0  0  0
   22.1334   33.8825   18.2441 O   0  0  0  0  0  0  0  0  0  0  0  0
   22.1587   35.1772   16.1509 O   0  0  0  0  0  0  0  0  0  0  0  0
   17.6163   36.4863   18.4091 C   0  0  0  0  0  0  0  0  0  0  0  0
   17.8591   35.1830   18.8308 C   0  0  0  0  0  0  0  0  0  0  0  0
   18.9990   34.5086   18.4072 C   0  0  0  0  0  0  0  0  0  0  0  0
   18.5163   37.1135   17.5530 C   0  0  0  0  0  0  0  0  0  0  0  0
   19.6554   36.4382   17.1306 C   0  0  0  0  0  0  0  0  0  0  0  0
   19.9003   35.1366   17.5566 C   0  0  0  0  0  0  0  0  0  0  0  0
   16.6730   38.5473   18.9127 C   0  0  0  0  0  0  0  0  0  0  0  0
   16.4859   37.1277   18.8343 O   0  0  0  0  0  0  0  0  0  0  0  0
   22.0937   32.0633   15.8547 C   0  0  0  0  0  0  0  0  0  0  0  0
   22.4708   32.1504   14.3723 C   0  0  0  0  0  0  0  0  0  0  0  0
   23.8516   32.7948   14.1515 C   0  0  0  0  0  0  0  0  0  0  0  0
   22.3983   30.7809   13.7018 C   0  0  0  0  0  0  0  0  0  0  0  0
   21.7215   30.8954   12.3420 C   0  0  0  0  0  0  0  0  0  0  0  0
   17.2544   31.0034   15.9232 C   0  0  0  0  0  0  0  0  0  0  0  0
   16.7812   32.4546   15.7869 C   0  0  0  0  0  0  0  0  0  0  0  0
   17.3228   33.2644   14.7963 C   0  0  0  0  0  0  0  0  0  0  0  0
   16.9140   34.5848   14.6671 C   0  0  0  0  0  0  0  0  0  0  0  0
   15.9539   35.0988   15.5325 C   0  0  0  0  0  0  0  0  0  0  0  0
   15.4124   34.2935   16.5267 C   0  0  0  0  0  0  0  0  0  0  0  0
   15.8231   32.9702   16.6469 C   0  0  0  0  0  0  0  0  0  0  0  0
 14 13  1  0  0  0
 13 10  1  0  0  0
 13 15  1  0  0  0
 41 42  2  0  0  0
 41 40  1  0  0  0
  9 10  1  0  0  0
  9  8  1  0  0  0
 10 11  2  0  0  0
 42 43  1  0  0  0
  8  7  1  0  0  0
 40 39  2  0  0  0
  7  6  1  0  0  0
 43 38  2  0  0  0
 39 38  1  0  0  0
  6  3  1  0  0  0
  4  3  2  0  0  0
 38 37  1  0  0  0
  3  2  1  0  0  0
 22 21  2  0  0  0
  2  1  1  0  0  0
 37  1  1  0  0  0
 23 21  2  0  0  0
 36 35  1  0  0  0
  1 16  1  0  0  0
 21 20  1  0  0  0
 21 29  1  0  0  0
 35 33  1  0  0  0
 20 19  1  0  0  0
 20 32  1  0  0  0
 16 19  1  0  0  0
 16 17  1  0  0  0
 29 28  2  0  0  0
 29 26  1  0  0  0
 28 27  1  0  0  0
 33 32  1  0  0  0
 33 34  1  0  0  0
 26 25  2  0  0  0
 27 24  2  0  0  0
 25 24  1  0  0  0
 24 31  1  0  0  0
 31 30  1  0  0  0
 17 18  1  0  0  0
  2  5  1  0  0  0
  9 12  1  0  0  0
M  END
> <minimizedAffinity>
-8.34637

$$$$
4DJO_MK5_A_101


 43 44  0  0  0  0  0  0  0  0999 V2000
   19.7607   31.5012   14.0238 C   0  0  0  0  0  0  0  0  0  0  0  0
   20.6346   31.8013   15.1629 N   0  0  0  0  0  0  0  0  0  0  0  0
   20.6718   31.1001   16.2890 C   0  0  0  0  0  0  0  0  0  0  0  0
   19.9798   30.1101   16.5121 O   0  0  0  0  0  0  0  0  0  0  0  0
   21.2357   32.5772   15.0868 H   0  0  0  0  0  0  0  0  0  0  0  0
   21.5341   31.5296   17.2517 O   0  0  0  0  0  0  0  0  0  0  0  0
   22.3414   32.5794   16.7149 C   0  0  0  0  0  0  0  0  0  0  0  0
   22.3795   33.7356   17.7137 C   0  0  0  0  0  0  0  0  0  0  0  0
   21.0258   34.2733   17.9005 N   0  0  0  0  0  0  0  0  0  0  0  0
   20.6114   35.3300   17.2153 C   0  0  0  0  0  0  0  0  0  0  0  0
   21.3071   35.8940   16.3716 O   0  0  0  0  0  0  0  0  0  0  0  0
   20.4172   33.8430   18.5437 H   0  0  0  0  0  0  0  0  0  0  0  0
   19.1836   35.8141   17.4964 C   0  0  0  0  0  0  0  0  0  0  0  0
   19.1085   37.2641   18.5625 Cl  0  0  0  0  0  0  0  0  0  0  0  0
   18.3361   34.4686   18.3003 Cl  0  0  0  0  0  0  0  0  0  0  0  0
   20.6040   30.9749   12.8623 C   0  0  0  0  0  0  0  0  0  0  0  0
   20.8283   32.0155   11.9155 O   0  0  0  0  0  0  0  0  0  0  0  0
   19.9781   32.3176   11.5596 H   0  0  0  0  0  0  0  0  0  0  0  0
   19.9372   29.7602   12.1975 C   0  0  0  0  0  0  0  0  0  0  0  0
   19.6395   28.7824   13.2614 N   0  0  0  0  0  0  0  0  0  0  0  0
   18.0868   28.1971   13.1055 S   0  0  0  0  0  0  0  0  0  0  0  0
   17.7301   27.4623   14.3651 O   0  0  0  0  0  0  0  0  0  0  0  0
   17.1650   29.3371   12.8738 O   0  0  0  0  0  0  0  0  0  0  0  0
   17.8982   25.2855    9.6209 C   0  0  0  0  0  0  0  0  0  0  0  0
   17.8632   26.6568    9.3898 C   0  0  0  0  0  0  0  0  0  0  0  0
   17.9164   27.5500   10.4544 C   0  0  0  0  0  0  0  0  0  0  0  0
   17.9792   24.8073   10.9251 C   0  0  0  0  0  0  0  0  0  0  0  0
   18.0325   25.7013   11.9881 C   0  0  0  0  0  0  0  0  0  0  0  0
   18.0026   27.0727   11.7563 C   0  0  0  0  0  0  0  0  0  0  0  0
   16.9236   24.8802    7.5528 C   0  0  0  0  0  0  0  0  0  0  0  0
   17.8392   24.4262    8.5588 O   0  0  0  0  0  0  0  0  0  0  0  0
   20.6678   27.7212   13.2670 C   0  0  0  0  0  0  0  0  0  0  0  0
   21.5737   27.7942   12.0335 C   0  0  0  0  0  0  0  0  0  0  0  0
   23.0201   28.1867   12.3860 C   0  0  0  0  0  0  0  0  0  0  0  0
   21.5433   26.4862   11.2470 C   0  0  0  0  0  0  0  0  0  0  0  0
   22.9111   25.8168   11.2852 C   0  0  0  0  0  0  0  0  0  0  0  0
   18.9798   32.7700   13.6421 C   0  0  0  0  0  0  0  0  0  0  0  0
   17.7516   32.9231   14.5457 C   0  0  0  0  0  0  0  0  0  0  0  0
   17.1928   34.1803   14.7396 C   0  0  0  0  0  0  0  0  0  0  0  0
   16.0874   34.3380   15.5647 C   0  0  0  0  0  0  0  0  0  0  0  0
   15.5343   33.2300   16.1982 C   0  0  0  0  0  0  0  0  0  0  0  0
   16.0922   31.9716   16.0099 C   0  0  0  0  0  0  0  0  0  0  0  0
   17.1964   31.8205   15.1778 C   0  0  0  0  0  0  0  0  0  0  0  0
 14 13  1  0  0  0
 13 10  1  0  0  0
 13 15  1  0  0  0
 41 42  2  0  0  0
 41 40  1  0  0  0
  9 10  1  0  0  0
  9  8  1  0  0  0
 10 11  2  0  0  0
 42 43  1  0  0  0
  8  7  1  0  0  0
 40 39  2  0  0  0
  7  6  1  0  0  0
 43 38  2  0  0  0
 39 38  1  0  0  0
  6  3  1  0  0  0
  4  3  2  0  0  0
 38 37  1  0  0  0
  3  2  1  0  0  0
 22 21  2  0  0  0
  2  1  1  0  0  0
 37  1  1  0  0  0
 23 21  2  0  0  0
 36 35  1  0  0  0
  1 16  1  0  0  0
 21 20  1  0  0  0
 21 29  1  0  0  0
 35 33  1  0  0  0
 20 19  1  0  0  0
 20 32  1  0  0  0
 16 19  1  0  0  0
 16 17  1  0  0  0
 29 28  2  0  0  0
 29 26  1  0  0  0
 28 27  1  0  0  0
 33 32  1  0  0  0
 33 34  1  0  0  0
 26 25  2  0  0  0
 27 24  2  0  0  0
 25 24  1  0  0  0
 24 31  1  0  0  0
 31 30  1  0  0  0
 17 18  1  0  0  0
  2  5  1  0  0  0
  9 12  1  0  0  0
M  END
> <minimizedAffinity>
-8.18267

$$$$
4DJO_MK5_A_101


 43 44  0  0  0  0  0  0  0  0999 V2000
   20.8599   35.1984   18.1328 C   0  0  0  0  0  0  0  0  0  0  0  0
   21.1626   33.8267   17.7108 N   0  0  0  0  0  0  0  0  0  0  0  0
   22.3853   33.3565   17.4981 C   0  0  0  0  0  0  0  0  0  0  0  0
   23.4139   34.0140   17.6334 O   0  0  0  0  0  0  0  0  0  0  0  0
   20.4057   33.2117   17.5759 H   0  0  0  0  0  0  0  0  0  0  0  0
   22.4827   32.0595   17.0942 O   0  0  0  0  0  0  0  0  0  0  0  0
   21.5512   31.8335   16.0344 C   0  0  0  0  0  0  0  0  0  0  0  0
   22.2980   31.8715   14.7015 C   0  0  0  0  0  0  0  0  0  0  0  0
   22.2059   30.5612   14.0448 N   0  0  0  0  0  0  0  0  0  0  0  0
   21.7655   30.4525   12.7990 C   0  0  0  0  0  0  0  0  0  0  0  0
   21.4461   31.4248   12.1160 O   0  0  0  0  0  0  0  0  0  0  0  0
   22.4749   29.7519   14.5367 H   0  0  0  0  0  0  0  0  0  0  0  0
   21.6999   29.0360   12.2149 C   0  0  0  0  0  0  0  0  0  0  0  0
   21.1121   27.7982   13.3840 Cl  0  0  0  0  0  0  0  0  0  0  0  0
   23.3571   28.6108   11.7167 Cl  0  0  0  0  0  0  0  0  0  0  0  0
   19.4732   35.2372   18.7753 C   0  0  0  0  0  0  0  0  0  0  0  0
   19.5125   34.6062   20.0520 O   0  0  0  0  0  0  0  0  0  0  0  0
   19.7710   33.6774   19.9458 H   0  0  0  0  0  0  0  0  0  0  0  0
   18.4220   34.5784   17.8680 C   0  0  0  0  0  0  0  0  0  0  0  0
   17.5715   35.6542   17.3240 N   0  0  0  0  0  0  0  0  0  0  0  0
   16.5067   35.0483   16.1939 S   0  0  0  0  0  0  0  0  0  0  0  0
   15.1921   34.7932   16.8726 O   0  0  0  0  0  0  0  0  0  0  0  0
   16.3576   36.0365   15.0966 O   0  0  0  0  0  0  0  0  0  0  0  0
   18.0909   31.1126   14.5643 C   0  0  0  0  0  0  0  0  0  0  0  0
   18.5468   32.3197   14.0444 C   0  0  0  0  0  0  0  0  0  0  0  0
   18.0607   33.5254   14.5381 C   0  0  0  0  0  0  0  0  0  0  0  0
   17.1379   31.1140   15.5783 C   0  0  0  0  0  0  0  0  0  0  0  0
   16.6531   32.3200   16.0709 C   0  0  0  0  0  0  0  0  0  0  0  0
   17.1131   33.5270   15.5541 C   0  0  0  0  0  0  0  0  0  0  0  0
   18.0483   29.6542   12.7581 C   0  0  0  0  0  0  0  0  0  0  0  0
   18.5792   29.9394   14.0593 O   0  0  0  0  0  0  0  0  0  0  0  0
   16.9056   36.3728   18.4302 C   0  0  0  0  0  0  0  0  0  0  0  0
   16.5334   37.8070   18.0403 C   0  0  0  0  0  0  0  0  0  0  0  0
   15.8093   38.5575   19.1730 C   0  0  0  0  0  0  0  0  0  0  0  0
   17.7579   38.5874   17.5691 C   0  0  0  0  0  0  0  0  0  0  0  0
   18.6065   39.0067   18.7626 C   0  0  0  0  0  0  0  0  0  0  0  0
   20.9583   36.1319   16.9145 C   0  0  0  0  0  0  0  0  0  0  0  0
   21.5815   37.4699   17.3267 C   0  0  0  0  0  0  0  0  0  0  0  0
   21.6392   38.5129   16.4105 C   0  0  0  0  0  0  0  0  0  0  0  0
   22.2113   39.7275   16.7640 C   0  0  0  0  0  0  0  0  0  0  0  0
   22.7266   39.9020   18.0442 C   0  0  0  0  0  0  0  0  0  0  0  0
   22.6742   38.8605   18.9622 C   0  0  0  0  0  0  0  0  0  0  0  0
   22.0949   37.6483   18.6026 C   0  0  0  0  0  0  0  0  0  0  0  0
 14 13  1  0  0  0
 13 10  1  0  0  0
 13 15  1  0  0  0
 41 42  2  0  0  0
 41 40  1  0  0  0
  9 10  1  0  0  0
  9  8  1  0  0  0
 10 11  2  0  0  0
 42 43  1  0  0  0
  8  7  1  0  0  0
 40 39  2  0  0  0
  7  6  1  0  0  0
 43 38  2  0  0  0
 39 38  1  0  0  0
  6  3  1  0  0  0
  4  3  2  0  0  0
 38 37  1  0  0  0
  3  2  1  0  0  0
 22 21  2  0  0  0
  2  1  1  0  0  0
 37  1  1  0  0  0
 23 21  2  0  0  0
 36 35  1  0  0  0
  1 16  1  0  0  0
 21 20  1  0  0  0
 21 29  1  0  0  0
 35 33  1  0  0  0
 20 19  1  0  0  0
 20 32  1  0  0  0
 16 19  1  0  0  0
 16 17  1  0  0  0
 29 28  2  0  0  0
 29 26  1  0  0  0
 28 27  1  0  0  0
 33 32  1  0  0  0
 33 34  1  0  0  0
 26 25  2  0  0  0
 27 24  2  0  0  0
 25 24  1  0  0  0
 24 31  1  0  0  0
 31 30  1  0  0  0
 17 18  1  0  0  0
  2  5  1  0  0  0
  9 12  1  0  0  0
M  END
> <minimizedAffinity>
-8.08734

$$$$
4DJO_MK5_A_101


 43 44  0  0  0  0  0  0  0  0999 V2000
   19.1795   29.4642   12.8295 C   0  0  0  0  0  0  0  0  0  0  0  0
   20.2189   28.4397   12.6839 N   0  0  0  0  0  0  0  0  0  0  0  0
   21.4415   28.6675   12.2205 C   0  0  0  0  0  0  0  0  0  0  0  0
   21.8523   29.7677   11.8605 O   0  0  0  0  0  0  0  0  0  0  0  0
   19.9940   27.5185   12.9485 H   0  0  0  0  0  0  0  0  0  0  0  0
   22.2765   27.5948   12.1376 O   0  0  0  0  0  0  0  0  0  0  0  0
   23.6283   28.0557   12.1858 C   0  0  0  0  0  0  0  0  0  0  0  0
   24.4175   27.3964   11.0552 C   0  0  0  0  0  0  0  0  0  0  0  0
   23.5490   26.4665   10.3219 N   0  0  0  0  0  0  0  0  0  0  0  0
   23.7391   25.1564   10.3929 C   0  0  0  0  0  0  0  0  0  0  0  0
   24.6143   24.6451   11.0904 O   0  0  0  0  0  0  0  0  0  0  0  0
   22.8151   26.8211    9.7698 H   0  0  0  0  0  0  0  0  0  0  0  0
   22.7809   24.2782    9.5789 C   0  0  0  0  0  0  0  0  0  0  0  0
   22.5028   24.8736    7.9017 Cl  0  0  0  0  0  0  0  0  0  0  0  0
   21.2263   24.2740   10.4495 Cl  0  0  0  0  0  0  0  0  0  0  0  0
   19.4199   30.2513   14.1179 C   0  0  0  0  0  0  0  0  0  0  0  0
   18.3346   30.0501   15.0186 O   0  0  0  0  0  0  0  0  0  0  0  0
   17.5146   30.3743   14.6145 H   0  0  0  0  0  0  0  0  0  0  0  0
   19.6227   31.7464   13.8258 C   0  0  0  0  0  0  0  0  0  0  0  0
   19.9281   32.4095   15.1079 N   0  0  0  0  0  0  0  0  0  0  0  0
   21.5439   32.8092   15.1938 S   0  0  0  0  0  0  0  0  0  0  0  0
   22.3025   31.6080   15.6791 O   0  0  0  0  0  0  0  0  0  0  0  0
   22.0080   33.2246   13.8466 O   0  0  0  0  0  0  0  0  0  0  0  0
   22.1177   36.1980   18.1673 C   0  0  0  0  0  0  0  0  0  0  0  0
   21.9386   36.4754   16.8160 C   0  0  0  0  0  0  0  0  0  0  0  0
   21.7671   35.4404   15.9033 C   0  0  0  0  0  0  0  0  0  0  0  0
   22.1326   34.8771   18.6046 C   0  0  0  0  0  0  0  0  0  0  0  0
   21.9608   33.8436   17.6911 C   0  0  0  0  0  0  0  0  0  0  0  0
   21.7767   34.1217   16.3405 C   0  0  0  0  0  0  0  0  0  0  0  0
   21.8701   38.4843   18.4875 C   0  0  0  0  0  0  0  0  0  0  0  0
   22.2899   37.2319   19.0456 O   0  0  0  0  0  0  0  0  0  0  0  0
   19.0277   33.5654   15.2999 C   0  0  0  0  0  0  0  0  0  0  0  0
   17.9110   33.2616   16.3039 C   0  0  0  0  0  0  0  0  0  0  0  0
   18.0073   34.1273   17.5735 C   0  0  0  0  0  0  0  0  0  0  0  0
   16.5345   33.3978   15.6580 C   0  0  0  0  0  0  0  0  0  0  0  0
   15.5145   32.5510   16.4084 C   0  0  0  0  0  0  0  0  0  0  0  0
   17.7997   28.7851   12.8165 C   0  0  0  0  0  0  0  0  0  0  0  0
   17.7842   27.6459   11.7915 C   0  0  0  0  0  0  0  0  0  0  0  0
   17.9112   26.3312   12.2226 C   0  0  0  0  0  0  0  0  0  0  0  0
   17.9113   25.2884   11.3061 C   0  0  0  0  0  0  0  0  0  0  0  0
   17.7799   25.5616    9.9485 C   0  0  0  0  0  0  0  0  0  0  0  0
   17.6563   26.8751    9.5129 C   0  0  0  0  0  0  0  0  0  0  0  0
   17.6519   27.9142   10.4373 C   0  0  0  0  0  0  0  0  0  0  0  0
 14 13  1  0  0  0
 13 10  1  0  0  0
 13 15  1  0  0  0
 41 42  2  0  0  0
 41 40  1  0  0  0
  9 10  1  0  0  0
  9  8  1  0  0  0
 10 11  2  0  0  0
 42 43  1  0  0  0
  8  7  1  0  0  0
 40 39  2  0  0  0
  7  6  1  0  0  0
 43 38  2  0  0  0
 39 38  1  0  0  0
  6  3  1  0  0  0
  4  3  2  0  0  0
 38 37  1  0  0  0
  3  2  1  0  0  0
 22 21  2  0  0  0
  2  1  1  0  0  0
 37  1  1  0  0  0
 23 21  2  0  0  0
 36 35  1  0  0  0
  1 16  1  0  0  0
 21 20  1  0  0  0
 21 29  1  0  0  0
 35 33  1  0  0  0
 20 19  1  0  0  0
 20 32  1  0  0  0
 16 19  1  0  0  0
 16 17  1  0  0  0
 29 28  2  0  0  0
 29 26  1  0  0  0
 28 27  1  0  0  0
 33 32  1  0  0  0
 33 34  1  0  0  0
 26 25  2  0  0  0
 27 24  2  0  0  0
 25 24  1  0  0  0
 24 31  1  0  0  0
 31 30  1  0  0  0
 17 18  1  0  0  0
  2  5  1  0  0  0
  9 12  1  0  0  0
M  END
> <minimizedAffinity>
-7.94410

$$$$
4DJO_MK5_A_101


 43 44  0  0  0  0  0  0  0  0999 V2000
   19.1062   28.9981   13.0714 C   0  0  0  0  0  0  0  0  0  0  0  0
   20.3501   28.2226   13.1243 N   0  0  0  0  0  0  0  0  0  0  0  0
   21.4941   28.5947   12.5639 C   0  0  0  0  0  0  0  0  0  0  0  0
   21.6506   29.6381   11.9351 O   0  0  0  0  0  0  0  0  0  0  0  0
   20.3353   27.3661   13.6096 H   0  0  0  0  0  0  0  0  0  0  0  0
   22.5490   27.7439   12.6986 O   0  0  0  0  0  0  0  0  0  0  0  0
   23.7265   28.3847   12.2035 C   0  0  0  0  0  0  0  0  0  0  0  0
   24.3780   27.4832   11.1554 C   0  0  0  0  0  0  0  0  0  0  0  0
   23.3790   26.5546   10.6110 N   0  0  0  0  0  0  0  0  0  0  0  0
   23.5954   25.2467   10.6060 C   0  0  0  0  0  0  0  0  0  0  0  0
   24.6097   24.7354   11.0788 O   0  0  0  0  0  0  0  0  0  0  0  0
   22.5365   26.9085   10.2446 H   0  0  0  0  0  0  0  0  0  0  0  0
   22.4902   24.3700   10.0041 C   0  0  0  0  0  0  0  0  0  0  0  0
   21.8662   24.9750    8.4263 Cl  0  0  0  0  0  0  0  0  0  0  0  0
   21.1520   24.3543   11.1804 Cl  0  0  0  0  0  0  0  0  0  0  0  0
   19.0617   29.9669   14.2532 C   0  0  0  0  0  0  0  0  0  0  0  0
   17.9624   29.6471   15.1011 O   0  0  0  0  0  0  0  0  0  0  0  0
   17.1341   29.7373   14.6045 H   0  0  0  0  0  0  0  0  0  0  0  0
   18.9809   31.4248   13.7736 C   0  0  0  0  0  0  0  0  0  0  0  0
   19.5332   32.2739   14.8462 N   0  0  0  0  0  0  0  0  0  0  0  0
   18.3185   33.1210   15.6110 S   0  0  0  0  0  0  0  0  0  0  0  0
   17.5614   33.9002   14.5749 O   0  0  0  0  0  0  0  0  0  0  0  0
   17.4297   32.1597   16.3103 O   0  0  0  0  0  0  0  0  0  0  0  0
   20.0857   36.0563   18.5969 C   0  0  0  0  0  0  0  0  0  0  0  0
   20.6132   35.9609   17.3132 C   0  0  0  0  0  0  0  0  0  0  0  0
   20.0772   35.0606   16.3989 C   0  0  0  0  0  0  0  0  0  0  0  0
   19.0214   35.2404   18.9681 C   0  0  0  0  0  0  0  0  0  0  0  0
   18.4866   34.3412   18.0530 C   0  0  0  0  0  0  0  0  0  0  0  0
   19.0112   34.2496   16.7677 C   0  0  0  0  0  0  0  0  0  0  0  0
   21.8206   37.5561   18.9598 C   0  0  0  0  0  0  0  0  0  0  0  0
   20.6326   36.9450   19.4808 O   0  0  0  0  0  0  0  0  0  0  0  0
   20.3436   31.4511   15.7681 C   0  0  0  0  0  0  0  0  0  0  0  0
   21.8350   31.7904   15.6789 C   0  0  0  0  0  0  0  0  0  0  0  0
   22.1638   32.6936   14.4762 C   0  0  0  0  0  0  0  0  0  0  0  0
   22.3390   32.4132   16.9783 C   0  0  0  0  0  0  0  0  0  0  0  0
   23.3202   33.5388   16.6770 C   0  0  0  0  0  0  0  0  0  0  0  0
   17.9108   28.0304   13.0724 C   0  0  0  0  0  0  0  0  0  0  0  0
   17.8698   27.2442   11.7576 C   0  0  0  0  0  0  0  0  0  0  0  0
   17.8407   25.8555   11.7874 C   0  0  0  0  0  0  0  0  0  0  0  0
   17.8157   25.1279   10.6053 C   0  0  0  0  0  0  0  0  0  0  0  0
   17.8163   25.7937    9.3839 C   0  0  0  0  0  0  0  0  0  0  0  0
   17.8490   27.1822    9.3497 C   0  0  0  0  0  0  0  0  0  0  0  0
   17.8688   27.9046   10.5380 C   0  0  0  0  0  0  0  0  0  0  0  0
 14 13  1  0  0  0
 13 10  1  0  0  0
 13 15  1  0  0  0
 41 42  2  0  0  0
 41 40  1  0  0  0
  9 10  1  0  0  0
  9  8  1  0  0  0
 10 11  2  0  0  0
 42 43  1  0  0  0
  8  7  1  0  0  0
 40 39  2  0  0  0
  7  6  1  0  0  0
 43 38  2  0  0  0
 39 38  1  0  0  0
  6  3  1  0  0  0
  4  3  2  0  0  0
 38 37  1  0  0  0
  3  2  1  0  0  0
 22 21  2  0  0  0
  2  1  1  0  0  0
 37  1  1  0  0  0
 23 21  2  0  0  0
 36 35  1  0  0  0
  1 16  1  0  0  0
 21 20  1  0  0  0
 21 29  1  0  0  0
 35 33  1  0  0  0
 20 19  1  0  0  0
 20 32  1  0  0  0
 16 19  1  0  0  0
 16 17  1  0  0  0
 29 28  2  0  0  0
 29 26  1  0  0  0
 28 27  1  0  0  0
 33 32  1  0  0  0
 33 34  1  0  0  0
 26 25  2  0  0  0
 27 24  2  0  0  0
 25 24  1  0  0  0
 24 31  1  0  0  0
 31 30  1  0  0  0
 17 18  1  0  0  0
  2  5  1  0  0  0
  9 12  1  0  0  0
M  END
> <minimizedAffinity>
-7.92834

$$$$
