6EUX_BYB_A_601


 32 36  0  0  0  0  0  0  0  0999 V2000
   24.6582  -21.3603   -8.0863 C   0  0  0  0  0  0  0  0  0  0  0  0
   24.0600  -22.4915   -7.6818 N   0  0  0  0  0  0  0  0  0  0  0  0
   24.6788  -23.3620   -6.8768 C   0  0  0  0  0  0  0  0  0  0  0  0
   25.9847  -23.0572   -6.4527 C   0  0  0  0  0  0  0  0  0  0  0  0
   26.5737  -21.8678   -6.8812 C   0  0  0  0  0  0  0  0  0  0  0  0
   25.8883  -21.0458   -7.6782 N   0  0  0  0  0  0  0  0  0  0  0  0
   26.6436  -23.9151   -5.6440 F   0  0  0  0  0  0  0  0  0  0  0  0
   22.4571  -17.3377   -7.1669 C   0  0  0  0  0  0  0  0  0  0  0  0
   21.9557  -16.7837   -8.3453 C   0  0  0  0  0  0  0  0  0  0  0  0
   23.1301  -18.5439   -7.2343 C   0  0  0  0  0  0  0  0  0  0  0  0
   23.2819  -19.1662   -8.4866 C   0  0  0  0  0  0  0  0  0  0  0  0
   22.7392  -18.5542   -9.6331 C   0  0  0  0  0  0  0  0  0  0  0  0
   22.0906  -17.3917   -9.5170 N   0  0  0  0  0  0  0  0  0  0  0  0
   23.0356  -19.3696  -10.6946 N   0  0  0  0  0  0  0  0  0  0  0  0
   23.7591  -20.4795  -10.2476 N   0  0  0  0  0  0  0  0  0  0  0  0
   23.9136  -20.4081   -8.9391 C   0  0  0  0  0  0  0  0  0  0  0  0
   22.3079  -16.7163   -5.9671 F   0  0  0  0  0  0  0  0  0  0  0  0
   22.7782  -19.1995  -11.6295 H   0  0  0  0  0  0  0  0  0  0  0  0
   24.0744  -24.5477   -6.4525 N   0  0  0  0  0  0  0  0  0  0  0  0
   24.5359  -25.1105   -5.7896 H   0  0  0  0  0  0  0  0  0  0  0  0
   22.7657  -24.9775   -6.9708 C   0  0  0  0  0  0  0  0  0  0  0  0
   22.7546  -26.5057   -7.2509 C   0  0  0  0  0  0  0  0  0  0  0  0
   22.8032  -27.3165   -5.9290 C   0  0  0  0  0  0  0  0  0  0  0  0
   21.6230  -26.9082   -5.0164 C   0  0  0  0  0  0  0  0  0  0  0  0
   20.7511  -25.8717   -5.7588 C   0  0  0  0  0  0  0  0  0  0  0  0
   21.6072  -24.6025   -6.0019 C   0  0  0  0  0  0  0  0  0  0  0  0
   21.4445  -26.8363   -8.0082 C   0  0  0  0  0  0  0  0  0  0  0  0
   20.2399  -26.4775   -7.0981 C   0  0  0  0  0  0  0  0  0  0  0  0
   20.7403  -23.4546   -6.5003 C   0  0  0  0  0  0  0  0  0  0  0  0
   19.6509  -23.0990   -5.8037 O   0  0  0  0  0  0  0  0  0  0  0  0
   20.9934  -22.8409   -7.5151 O   0  0  0  0  0  0  0  0  0  0  0  0
   21.7478  -23.0663   -8.0231 H   0  0  0  0  0  0  0  0  0  0  0  0
 15 14  1  0  0  0
 15 16  2  0  0  0
  6  5  2  0  0  0
  6  1  1  0  0  0
  5  4  1  0  0  0
 14 12  1  0  0  0
 16  1  1  0  0  0
 16 11  1  0  0  0
  1  2  2  0  0  0
  4  7  1  0  0  0
  4  3  2  0  0  0
 12 11  2  0  0  0
 12 13  1  0  0  0
 11 10  1  0  0  0
 13  9  2  0  0  0
  2  3  1  0  0  0
  3 19  1  0  0  0
  9  8  1  0  0  0
 10  8  2  0  0  0
 19 21  1  0  0  0
  8 17  1  0  0  0
 21 22  1  0  0  0
 21 26  1  0  0  0
 30 29  2  0  0  0
 29 26  1  0  0  0
 29 31  1  0  0  0
 22 23  1  0  0  0
 22 27  1  0  0  0
 26 25  1  0  0  0
 23 24  1  0  0  0
 27 28  1  0  0  0
 25 24  1  0  0  0
 25 28  1  0  0  0
 14 18  1  0  0  0
 19 20  1  0  0  0
 31 32  1  0  0  0
M  END
> <minimizedAffinity>
-9.49950

$$$$
6EUX_BYB_A_601


 32 36  0  0  0  0  0  0  0  0999 V2000
   20.6992  -25.2502   -6.7944 C   0  0  0  0  0  0  0  0  0  0  0  0
   21.5199  -24.2784   -7.2227 N   0  0  0  0  0  0  0  0  0  0  0  0
   22.8205  -24.2722   -6.9114 C   0  0  0  0  0  0  0  0  0  0  0  0
   23.3161  -25.3247   -6.1210 C   0  0  0  0  0  0  0  0  0  0  0  0
   22.4397  -26.3255   -5.7021 C   0  0  0  0  0  0  0  0  0  0  0  0
   21.1558  -26.2660   -6.0609 N   0  0  0  0  0  0  0  0  0  0  0  0
   24.6232  -25.3491   -5.7814 F   0  0  0  0  0  0  0  0  0  0  0  0
   18.0055  -28.3801   -8.9897 C   0  0  0  0  0  0  0  0  0  0  0  0
   16.6978  -27.9038   -9.0883 C   0  0  0  0  0  0  0  0  0  0  0  0
   18.9582  -27.5831   -8.3817 C   0  0  0  0  0  0  0  0  0  0  0  0
   18.5730  -26.3236   -7.8879 C   0  0  0  0  0  0  0  0  0  0  0  0
   17.2367  -25.9032   -8.0329 C   0  0  0  0  0  0  0  0  0  0  0  0
   16.3534  -26.7055   -8.6342 N   0  0  0  0  0  0  0  0  0  0  0  0
   17.1503  -24.6573   -7.4673 N   0  0  0  0  0  0  0  0  0  0  0  0
   18.3989  -24.2826   -6.9617 N   0  0  0  0  0  0  0  0  0  0  0  0
   19.2781  -25.2361   -7.2050 C   0  0  0  0  0  0  0  0  0  0  0  0
   18.3562  -29.6043   -9.4652 F   0  0  0  0  0  0  0  0  0  0  0  0
   16.3332  -24.1098   -7.4237 H   0  0  0  0  0  0  0  0  0  0  0  0
   23.6872  -23.2648   -7.3417 N   0  0  0  0  0  0  0  0  0  0  0  0
   24.6556  -23.4414   -7.3608 H   0  0  0  0  0  0  0  0  0  0  0  0
   23.1905  -21.9464   -7.7672 C   0  0  0  0  0  0  0  0  0  0  0  0
   23.9626  -20.8047   -7.0499 C   0  0  0  0  0  0  0  0  0  0  0  0
   25.4277  -20.7188   -7.5534 C   0  0  0  0  0  0  0  0  0  0  0  0
   25.4474  -20.5270   -9.0880 C   0  0  0  0  0  0  0  0  0  0  0  0
   23.9934  -20.4201   -9.5982 C   0  0  0  0  0  0  0  0  0  0  0  0
   23.2779  -21.7646   -9.3102 C   0  0  0  0  0  0  0  0  0  0  0  0
   23.2334  -19.4743   -7.3623 C   0  0  0  0  0  0  0  0  0  0  0  0
   23.2753  -19.2321   -8.8945 C   0  0  0  0  0  0  0  0  0  0  0  0
   21.9269  -21.8173  -10.0098 C   0  0  0  0  0  0  0  0  0  0  0  0
   21.7698  -21.2000  -11.1900 O   0  0  0  0  0  0  0  0  0  0  0  0
   20.9723  -22.3984   -9.5390 O   0  0  0  0  0  0  0  0  0  0  0  0
   21.0514  -22.8390   -8.7158 H   0  0  0  0  0  0  0  0  0  0  0  0
 15 14  1  0  0  0
 15 16  2  0  0  0
  6  5  2  0  0  0
  6  1  1  0  0  0
  5  4  1  0  0  0
 14 12  1  0  0  0
 16  1  1  0  0  0
 16 11  1  0  0  0
  1  2  2  0  0  0
  4  7  1  0  0  0
  4  3  2  0  0  0
 12 11  2  0  0  0
 12 13  1  0  0  0
 11 10  1  0  0  0
 13  9  2  0  0  0
  2  3  1  0  0  0
  3 19  1  0  0  0
  9  8  1  0  0  0
 10  8  2  0  0  0
 19 21  1  0  0  0
  8 17  1  0  0  0
 21 22  1  0  0  0
 21 26  1  0  0  0
 30 29  2  0  0  0
 29 26  1  0  0  0
 29 31  1  0  0  0
 22 23  1  0  0  0
 22 27  1  0  0  0
 26 25  1  0  0  0
 23 24  1  0  0  0
 27 28  1  0  0  0
 25 24  1  0  0  0
 25 28  1  0  0  0
 14 18  1  0  0  0
 19 20  1  0  0  0
 31 32  1  0  0  0
M  END
> <minimizedAffinity>
-9.41679

$$$$
6EUX_BYB_A_601


 32 36  0  0  0  0  0  0  0  0999 V2000
   21.5869  -22.3353  -10.5481 C   0  0  0  0  0  0  0  0  0  0  0  0
   20.8147  -22.8995   -9.6065 N   0  0  0  0  0  0  0  0  0  0  0  0
   20.0786  -23.9862   -9.8629 C   0  0  0  0  0  0  0  0  0  0  0  0
   20.1387  -24.5353  -11.1563 C   0  0  0  0  0  0  0  0  0  0  0  0
   20.9600  -23.9324  -12.1087 C   0  0  0  0  0  0  0  0  0  0  0  0
   21.6712  -22.8540  -11.7738 N   0  0  0  0  0  0  0  0  0  0  0  0
   19.4046  -25.6293  -11.4543 F   0  0  0  0  0  0  0  0  0  0  0  0
   25.2104  -21.7671   -7.6466 C   0  0  0  0  0  0  0  0  0  0  0  0
   25.6882  -20.4585   -7.7246 C   0  0  0  0  0  0  0  0  0  0  0  0
   24.1243  -22.1247   -8.4245 C   0  0  0  0  0  0  0  0  0  0  0  0
   23.5427  -21.1562   -9.2623 C   0  0  0  0  0  0  0  0  0  0  0  0
   24.0711  -19.8508   -9.2811 C   0  0  0  0  0  0  0  0  0  0  0  0
   25.1174  -19.5506   -8.5061 N   0  0  0  0  0  0  0  0  0  0  0  0
   23.3198  -19.1326  -10.1751 N   0  0  0  0  0  0  0  0  0  0  0  0
   22.3329  -19.9548  -10.7276 N   0  0  0  0  0  0  0  0  0  0  0  0
   22.4178  -21.1617  -10.2008 C   0  0  0  0  0  0  0  0  0  0  0  0
   25.7919  -22.6913   -6.8371 F   0  0  0  0  0  0  0  0  0  0  0  0
   23.4546  -18.1825  -10.3947 H   0  0  0  0  0  0  0  0  0  0  0  0
   19.2634  -24.5817   -8.8975 N   0  0  0  0  0  0  0  0  0  0  0  0
   18.2877  -24.4644   -8.9553 H   0  0  0  0  0  0  0  0  0  0  0  0
   19.8253  -25.3799   -7.7960 C   0  0  0  0  0  0  0  0  0  0  0  0
   19.0736  -26.7320   -7.6510 C   0  0  0  0  0  0  0  0  0  0  0  0
   19.3758  -27.6706   -8.8489 C   0  0  0  0  0  0  0  0  0  0  0  0
   20.9016  -27.8914   -8.9737 C   0  0  0  0  0  0  0  0  0  0  0  0
   21.6110  -27.1513   -7.8185 C   0  0  0  0  0  0  0  0  0  0  0  0
   21.3495  -25.6322   -7.9821 C   0  0  0  0  0  0  0  0  0  0  0  0
   19.5560  -27.4009   -6.3400 C   0  0  0  0  0  0  0  0  0  0  0  0
   21.0791  -27.6756   -6.4530 C   0  0  0  0  0  0  0  0  0  0  0  0
   22.2234  -24.8288   -7.0291 C   0  0  0  0  0  0  0  0  0  0  0  0
   23.4406  -25.2878   -6.7033 O   0  0  0  0  0  0  0  0  0  0  0  0
   21.8611  -23.7788   -6.5425 O   0  0  0  0  0  0  0  0  0  0  0  0
   21.0158  -23.4326   -6.7512 H   0  0  0  0  0  0  0  0  0  0  0  0
 15 14  1  0  0  0
 15 16  2  0  0  0
  6  5  2  0  0  0
  6  1  1  0  0  0
  5  4  1  0  0  0
 14 12  1  0  0  0
 16  1  1  0  0  0
 16 11  1  0  0  0
  1  2  2  0  0  0
  4  7  1  0  0  0
  4  3  2  0  0  0
 12 11  2  0  0  0
 12 13  1  0  0  0
 11 10  1  0  0  0
 13  9  2  0  0  0
  2  3  1  0  0  0
  3 19  1  0  0  0
  9  8  1  0  0  0
 10  8  2  0  0  0
 19 21  1  0  0  0
  8 17  1  0  0  0
 21 22  1  0  0  0
 21 26  1  0  0  0
 30 29  2  0  0  0
 29 26  1  0  0  0
 29 31  1  0  0  0
 22 23  1  0  0  0
 22 27  1  0  0  0
 26 25  1  0  0  0
 23 24  1  0  0  0
 27 28  1  0  0  0
 25 24  1  0  0  0
 25 28  1  0  0  0
 14 18  1  0  0  0
 19 20  1  0  0  0
 31 32  1  0  0  0
M  END
> <minimizedAffinity>
-9.41662

$$$$
6EUX_BYB_A_601


 32 36  0  0  0  0  0  0  0  0999 V2000
   21.9330  -24.3380   -7.4265 C   0  0  0  0  0  0  0  0  0  0  0  0
   22.2825  -25.5444   -7.8994 N   0  0  0  0  0  0  0  0  0  0  0  0
   21.9675  -26.6698   -7.2492 C   0  0  0  0  0  0  0  0  0  0  0  0
   21.2462  -26.5589   -6.0469 C   0  0  0  0  0  0  0  0  0  0  0  0
   20.8877  -25.2914   -5.5887 C   0  0  0  0  0  0  0  0  0  0  0  0
   21.2319  -24.2152   -6.2986 N   0  0  0  0  0  0  0  0  0  0  0  0
   20.9152  -27.6733   -5.3592 F   0  0  0  0  0  0  0  0  0  0  0  0
   25.7358  -21.6210   -7.5932 C   0  0  0  0  0  0  0  0  0  0  0  0
   25.5703  -20.6206   -8.5516 C   0  0  0  0  0  0  0  0  0  0  0  0
   24.7046  -22.5189   -7.3859 C   0  0  0  0  0  0  0  0  0  0  0  0
   23.5291  -22.3883   -8.1473 C   0  0  0  0  0  0  0  0  0  0  0  0
   23.4277  -21.3464   -9.0895 C   0  0  0  0  0  0  0  0  0  0  0  0
   24.4482  -20.4987   -9.2492 N   0  0  0  0  0  0  0  0  0  0  0  0
   22.1939  -21.4619   -9.6758 N   0  0  0  0  0  0  0  0  0  0  0  0
   21.5151  -22.5567   -9.1317 N   0  0  0  0  0  0  0  0  0  0  0  0
   22.2649  -23.1261   -8.2072 C   0  0  0  0  0  0  0  0  0  0  0  0
   26.8833  -21.7362   -6.8736 F   0  0  0  0  0  0  0  0  0  0  0  0
   21.8396  -20.8649  -10.3739 H   0  0  0  0  0  0  0  0  0  0  0  0
   22.3300  -27.9330   -7.7226 N   0  0  0  0  0  0  0  0  0  0  0  0
   23.1411  -28.3634   -7.3676 H   0  0  0  0  0  0  0  0  0  0  0  0
   21.5309  -28.6371   -8.7383 C   0  0  0  0  0  0  0  0  0  0  0  0
   22.4341  -29.5287   -9.6347 C   0  0  0  0  0  0  0  0  0  0  0  0
   22.9901  -30.7391   -8.8390 C   0  0  0  0  0  0  0  0  0  0  0  0
   21.8225  -31.5554   -8.2368 C   0  0  0  0  0  0  0  0  0  0  0  0
   20.4862  -30.9247   -8.6862 C   0  0  0  0  0  0  0  0  0  0  0  0
   20.4019  -29.4939   -8.0959 C   0  0  0  0  0  0  0  0  0  0  0  0
   21.5689  -30.0422  -10.8123 C   0  0  0  0  0  0  0  0  0  0  0  0
   20.4114  -30.9033  -10.2406 C   0  0  0  0  0  0  0  0  0  0  0  0
   19.0082  -28.9124   -8.2880 C   0  0  0  0  0  0  0  0  0  0  0  0
   17.9491  -29.7342   -8.3251 O   0  0  0  0  0  0  0  0  0  0  0  0
   18.8110  -27.7225   -8.4135 O   0  0  0  0  0  0  0  0  0  0  0  0
   19.5312  -27.1234   -8.3918 H   0  0  0  0  0  0  0  0  0  0  0  0
 15 14  1  0  0  0
 15 16  2  0  0  0
  6  5  2  0  0  0
  6  1  1  0  0  0
  5  4  1  0  0  0
 14 12  1  0  0  0
 16  1  1  0  0  0
 16 11  1  0  0  0
  1  2  2  0  0  0
  4  7  1  0  0  0
  4  3  2  0  0  0
 12 11  2  0  0  0
 12 13  1  0  0  0
 11 10  1  0  0  0
 13  9  2  0  0  0
  2  3  1  0  0  0
  3 19  1  0  0  0
  9  8  1  0  0  0
 10  8  2  0  0  0
 19 21  1  0  0  0
  8 17  1  0  0  0
 21 22  1  0  0  0
 21 26  1  0  0  0
 30 29  2  0  0  0
 29 26  1  0  0  0
 29 31  1  0  0  0
 22 23  1  0  0  0
 22 27  1  0  0  0
 26 25  1  0  0  0
 23 24  1  0  0  0
 27 28  1  0  0  0
 25 24  1  0  0  0
 25 28  1  0  0  0
 14 18  1  0  0  0
 19 20  1  0  0  0
 31 32  1  0  0  0
M  END
> <minimizedAffinity>
-9.35522

$$$$
6EUX_BYB_A_601


 32 36  0  0  0  0  0  0  0  0999 V2000
   24.4414  -24.1512   -6.4110 C   0  0  0  0  0  0  0  0  0  0  0  0
   23.1709  -24.2853   -6.8220 N   0  0  0  0  0  0  0  0  0  0  0  0
   22.3890  -25.2719   -6.3705 C   0  0  0  0  0  0  0  0  0  0  0  0
   22.9335  -26.1727   -5.4377 C   0  0  0  0  0  0  0  0  0  0  0  0
   24.2533  -25.9988   -5.0218 C   0  0  0  0  0  0  0  0  0  0  0  0
   24.9679  -24.9842   -5.5123 N   0  0  0  0  0  0  0  0  0  0  0  0
   22.1759  -27.1855   -4.9636 F   0  0  0  0  0  0  0  0  0  0  0  0
   23.5681  -20.7467   -9.4962 C   0  0  0  0  0  0  0  0  0  0  0  0
   24.6529  -19.8721   -9.5669 C   0  0  0  0  0  0  0  0  0  0  0  0
   23.6459  -21.8333   -8.6442 C   0  0  0  0  0  0  0  0  0  0  0  0
   24.8150  -22.0157   -7.8837 C   0  0  0  0  0  0  0  0  0  0  0  0
   25.8755  -21.0984   -8.0150 C   0  0  0  0  0  0  0  0  0  0  0  0
   25.7567  -20.0676   -8.8569 N   0  0  0  0  0  0  0  0  0  0  0  0
   26.8681  -21.5171   -7.1672 N   0  0  0  0  0  0  0  0  0  0  0  0
   26.4578  -22.6739   -6.4974 N   0  0  0  0  0  0  0  0  0  0  0  0
   25.2502  -23.0155   -6.9053 C   0  0  0  0  0  0  0  0  0  0  0  0
   22.4430  -20.5483  -10.2329 F   0  0  0  0  0  0  0  0  0  0  0  0
   27.7377  -21.0712   -7.0481 H   0  0  0  0  0  0  0  0  0  0  0  0
   21.0673  -25.4312   -6.7934 N   0  0  0  0  0  0  0  0  0  0  0  0
   20.3833  -24.7971   -6.4781 H   0  0  0  0  0  0  0  0  0  0  0  0
   20.6706  -26.5222   -7.6981 C   0  0  0  0  0  0  0  0  0  0  0  0
   19.3100  -27.1349   -7.2651 C   0  0  0  0  0  0  0  0  0  0  0  0
   18.1453  -26.1400   -7.5118 C   0  0  0  0  0  0  0  0  0  0  0  0
   18.1186  -25.7179   -8.9995 C   0  0  0  0  0  0  0  0  0  0  0  0
   19.2263  -26.4827   -9.7571 C   0  0  0  0  0  0  0  0  0  0  0  0
   20.5977  -26.0495   -9.1789 C   0  0  0  0  0  0  0  0  0  0  0  0
   19.0799  -28.4140   -8.1078 C   0  0  0  0  0  0  0  0  0  0  0  0
   19.0045  -28.0157   -9.6058 C   0  0  0  0  0  0  0  0  0  0  0  0
   21.7367  -26.5705  -10.0441 C   0  0  0  0  0  0  0  0  0  0  0  0
   21.6976  -26.3818  -11.3712 O   0  0  0  0  0  0  0  0  0  0  0  0
   22.6897  -27.1595   -9.5800 O   0  0  0  0  0  0  0  0  0  0  0  0
   22.7451  -27.3066   -8.6562 H   0  0  0  0  0  0  0  0  0  0  0  0
 15 14  1  0  0  0
 15 16  2  0  0  0
  6  5  2  0  0  0
  6  1  1  0  0  0
  5  4  1  0  0  0
 14 12  1  0  0  0
 16  1  1  0  0  0
 16 11  1  0  0  0
  1  2  2  0  0  0
  4  7  1  0  0  0
  4  3  2  0  0  0
 12 11  2  0  0  0
 12 13  1  0  0  0
 11 10  1  0  0  0
 13  9  2  0  0  0
  2  3  1  0  0  0
  3 19  1  0  0  0
  9  8  1  0  0  0
 10  8  2  0  0  0
 19 21  1  0  0  0
  8 17  1  0  0  0
 21 22  1  0  0  0
 21 26  1  0  0  0
 30 29  2  0  0  0
 29 26  1  0  0  0
 29 31  1  0  0  0
 22 23  1  0  0  0
 22 27  1  0  0  0
 26 25  1  0  0  0
 23 24  1  0  0  0
 27 28  1  0  0  0
 25 24  1  0  0  0
 25 28  1  0  0  0
 14 18  1  0  0  0
 19 20  1  0  0  0
 31 32  1  0  0  0
M  END
> <minimizedAffinity>
-9.33855

$$$$
6EUX_BYB_A_601


 32 36  0  0  0  0  0  0  0  0999 V2000
   24.3351  -23.9461   -6.6035 C   0  0  0  0  0  0  0  0  0  0  0  0
   23.0220  -24.0690   -6.8528 N   0  0  0  0  0  0  0  0  0  0  0  0
   22.3004  -25.0669   -6.3313 C   0  0  0  0  0  0  0  0  0  0  0  0
   22.9560  -25.9922   -5.4993 C   0  0  0  0  0  0  0  0  0  0  0  0
   24.3186  -25.8296   -5.2504 C   0  0  0  0  0  0  0  0  0  0  0  0
   24.9686  -24.8027   -5.8013 N   0  0  0  0  0  0  0  0  0  0  0  0
   22.2612  -27.0168   -4.9591 F   0  0  0  0  0  0  0  0  0  0  0  0
   23.2416  -20.7396   -9.8276 C   0  0  0  0  0  0  0  0  0  0  0  0
   24.2810  -19.8184   -9.9612 C   0  0  0  0  0  0  0  0  0  0  0  0
   23.3876  -21.7790   -8.9271 C   0  0  0  0  0  0  0  0  0  0  0  0
   24.5776  -21.8685   -8.1825 C   0  0  0  0  0  0  0  0  0  0  0  0
   25.5895  -20.9087   -8.3782 C   0  0  0  0  0  0  0  0  0  0  0  0
   25.4055  -19.9264   -9.2652 N   0  0  0  0  0  0  0  0  0  0  0  0
   26.6164  -21.2382   -7.5318 N   0  0  0  0  0  0  0  0  0  0  0  0
   26.2750  -22.3798   -6.8000 N   0  0  0  0  0  0  0  0  0  0  0  0
   25.0785  -22.7980   -7.1670 C   0  0  0  0  0  0  0  0  0  0  0  0
   22.0953  -20.6310  -10.5499 F   0  0  0  0  0  0  0  0  0  0  0  0
   27.4651  -20.7458   -7.4513 H   0  0  0  0  0  0  0  0  0  0  0  0
   20.9351  -25.2146   -6.5865 N   0  0  0  0  0  0  0  0  0  0  0  0
   20.2927  -25.0786   -5.8529 H   0  0  0  0  0  0  0  0  0  0  0  0
   20.4317  -25.5684   -7.9235 C   0  0  0  0  0  0  0  0  0  0  0  0
   21.1978  -26.7915   -8.4990 C   0  0  0  0  0  0  0  0  0  0  0  0
   20.8440  -28.0879   -7.7234 C   0  0  0  0  0  0  0  0  0  0  0  0
   19.3154  -28.3213   -7.7564 C   0  0  0  0  0  0  0  0  0  0  0  0
   18.6578  -27.2145   -8.6097 C   0  0  0  0  0  0  0  0  0  0  0  0
   18.9019  -25.8529   -7.9101 C   0  0  0  0  0  0  0  0  0  0  0  0
   20.7831  -26.9514   -9.9828 C   0  0  0  0  0  0  0  0  0  0  0  0
   19.2580  -27.2312  -10.0455 C   0  0  0  0  0  0  0  0  0  0  0  0
   18.0700  -24.7560   -8.5598 C   0  0  0  0  0  0  0  0  0  0  0  0
   16.7342  -24.7838   -8.4438 O   0  0  0  0  0  0  0  0  0  0  0  0
   18.5687  -23.8470   -9.1888 O   0  0  0  0  0  0  0  0  0  0  0  0
   19.4994  -23.8007   -9.2872 H   0  0  0  0  0  0  0  0  0  0  0  0
 15 14  1  0  0  0
 15 16  2  0  0  0
  6  5  2  0  0  0
  6  1  1  0  0  0
  5  4  1  0  0  0
 14 12  1  0  0  0
 16  1  1  0  0  0
 16 11  1  0  0  0
  1  2  2  0  0  0
  4  7  1  0  0  0
  4  3  2  0  0  0
 12 11  2  0  0  0
 12 13  1  0  0  0
 11 10  1  0  0  0
 13  9  2  0  0  0
  2  3  1  0  0  0
  3 19  1  0  0  0
  9  8  1  0  0  0
 10  8  2  0  0  0
 19 21  1  0  0  0
  8 17  1  0  0  0
 21 22  1  0  0  0
 21 26  1  0  0  0
 30 29  2  0  0  0
 29 26  1  0  0  0
 29 31  1  0  0  0
 22 23  1  0  0  0
 22 27  1  0  0  0
 26 25  1  0  0  0
 23 24  1  0  0  0
 27 28  1  0  0  0
 25 24  1  0  0  0
 25 28  1  0  0  0
 14 18  1  0  0  0
 19 20  1  0  0  0
 31 32  1  0  0  0
M  END
> <minimizedAffinity>
-9.28781

$$$$
6EUX_BYB_A_601


 32 36  0  0  0  0  0  0  0  0999 V2000
   21.6840  -23.1058   -8.0370 C   0  0  0  0  0  0  0  0  0  0  0  0
   21.3037  -24.1958   -8.7215 N   0  0  0  0  0  0  0  0  0  0  0  0
   20.4908  -25.1120   -8.1844 C   0  0  0  0  0  0  0  0  0  0  0  0
   20.0322  -24.9005   -6.8717 C   0  0  0  0  0  0  0  0  0  0  0  0
   20.4363  -23.7518   -6.1918 C   0  0  0  0  0  0  0  0  0  0  0  0
   21.2431  -22.8794   -6.7989 N   0  0  0  0  0  0  0  0  0  0  0  0
   19.2145  -25.8070   -6.2938 F   0  0  0  0  0  0  0  0  0  0  0  0
   26.0977  -21.7507   -7.2923 C   0  0  0  0  0  0  0  0  0  0  0  0
   26.4726  -20.7940   -8.2361 C   0  0  0  0  0  0  0  0  0  0  0  0
   24.8142  -22.2635   -7.3406 C   0  0  0  0  0  0  0  0  0  0  0  0
   23.9364  -21.8001   -8.3372 C   0  0  0  0  0  0  0  0  0  0  0  0
   24.3802  -20.8237   -9.2500 C   0  0  0  0  0  0  0  0  0  0  0  0
   25.6275  -20.3529   -9.1591 N   0  0  0  0  0  0  0  0  0  0  0  0
   23.3320  -20.5670  -10.0955 N   0  0  0  0  0  0  0  0  0  0  0  0
   22.2377  -21.3630   -9.7433 N   0  0  0  0  0  0  0  0  0  0  0  0
   22.5471  -22.0992   -8.6928 C   0  0  0  0  0  0  0  0  0  0  0  0
   26.9636  -22.1925   -6.3421 F   0  0  0  0  0  0  0  0  0  0  0  0
   23.3474  -19.9204  -10.8377 H   0  0  0  0  0  0  0  0  0  0  0  0
   20.0913  -26.2560   -8.8792 N   0  0  0  0  0  0  0  0  0  0  0  0
   19.5417  -26.1570   -9.6900 H   0  0  0  0  0  0  0  0  0  0  0  0
   20.4705  -27.6055   -8.4307 C   0  0  0  0  0  0  0  0  0  0  0  0
   19.2659  -28.5819   -8.5294 C   0  0  0  0  0  0  0  0  0  0  0  0
   18.9065  -28.8781  -10.0093 C   0  0  0  0  0  0  0  0  0  0  0  0
   20.1425  -29.4408  -10.7496 C   0  0  0  0  0  0  0  0  0  0  0  0
   21.3075  -29.5800   -9.7451 C   0  0  0  0  0  0  0  0  0  0  0  0
   21.6800  -28.1647   -9.2345 C   0  0  0  0  0  0  0  0  0  0  0  0
   19.6699  -29.9009   -7.8251 C   0  0  0  0  0  0  0  0  0  0  0  0
   20.8833  -30.5132   -8.5740 C   0  0  0  0  0  0  0  0  0  0  0  0
   22.9778  -28.2022   -8.4397 C   0  0  0  0  0  0  0  0  0  0  0  0
   23.0762  -27.4988   -7.3022 O   0  0  0  0  0  0  0  0  0  0  0  0
   23.9410  -28.8469   -8.7963 O   0  0  0  0  0  0  0  0  0  0  0  0
   23.9024  -29.3485   -9.5868 H   0  0  0  0  0  0  0  0  0  0  0  0
 15 14  1  0  0  0
 15 16  2  0  0  0
  6  5  2  0  0  0
  6  1  1  0  0  0
  5  4  1  0  0  0
 14 12  1  0  0  0
 16  1  1  0  0  0
 16 11  1  0  0  0
  1  2  2  0  0  0
  4  7  1  0  0  0
  4  3  2  0  0  0
 12 11  2  0  0  0
 12 13  1  0  0  0
 11 10  1  0  0  0
 13  9  2  0  0  0
  2  3  1  0  0  0
  3 19  1  0  0  0
  9  8  1  0  0  0
 10  8  2  0  0  0
 19 21  1  0  0  0
  8 17  1  0  0  0
 21 22  1  0  0  0
 21 26  1  0  0  0
 30 29  2  0  0  0
 29 26  1  0  0  0
 29 31  1  0  0  0
 22 23  1  0  0  0
 22 27  1  0  0  0
 26 25  1  0  0  0
 23 24  1  0  0  0
 27 28  1  0  0  0
 25 24  1  0  0  0
 25 28  1  0  0  0
 14 18  1  0  0  0
 19 20  1  0  0  0
 31 32  1  0  0  0
M  END
> <minimizedAffinity>
-9.25127

$$$$
6EUX_BYB_A_601


 32 36  0  0  0  0  0  0  0  0999 V2000
   22.7758  -22.4048   -8.6552 C   0  0  0  0  0  0  0  0  0  0  0  0
   22.0843  -23.1301   -7.7625 N   0  0  0  0  0  0  0  0  0  0  0  0
   20.9101  -23.6896   -8.0735 C   0  0  0  0  0  0  0  0  0  0  0  0
   20.4138  -23.5042   -9.3764 C   0  0  0  0  0  0  0  0  0  0  0  0
   21.1623  -22.7552  -10.2841 C   0  0  0  0  0  0  0  0  0  0  0  0
   22.3299  -22.2352   -9.9007 N   0  0  0  0  0  0  0  0  0  0  0  0
   19.2283  -24.0493   -9.7254 F   0  0  0  0  0  0  0  0  0  0  0  0
   26.1165  -23.8734   -5.7305 C   0  0  0  0  0  0  0  0  0  0  0  0
   27.2086  -23.0061   -5.7738 C   0  0  0  0  0  0  0  0  0  0  0  0
   25.0159  -23.5947   -6.5202 C   0  0  0  0  0  0  0  0  0  0  0  0
   25.0390  -22.4481   -7.3345 C   0  0  0  0  0  0  0  0  0  0  0  0
   26.1717  -21.6113   -7.3185 C   0  0  0  0  0  0  0  0  0  0  0  0
   27.2084  -21.9181   -6.5332 N   0  0  0  0  0  0  0  0  0  0  0  0
   25.9203  -20.5883   -8.1958 N   0  0  0  0  0  0  0  0  0  0  0  0
   24.6581  -20.7620   -8.7718 N   0  0  0  0  0  0  0  0  0  0  0  0
   24.0918  -21.8458   -8.2758 C   0  0  0  0  0  0  0  0  0  0  0  0
   26.1168  -24.9816   -4.9434 F   0  0  0  0  0  0  0  0  0  0  0  0
   26.5351  -19.8444   -8.3907 H   0  0  0  0  0  0  0  0  0  0  0  0
   20.1733  -24.4407   -7.1547 N   0  0  0  0  0  0  0  0  0  0  0  0
   19.5160  -23.9852   -6.5805 H   0  0  0  0  0  0  0  0  0  0  0  0
   20.3541  -25.8954   -7.0227 C   0  0  0  0  0  0  0  0  0  0  0  0
   19.0092  -26.5926   -6.6775 C   0  0  0  0  0  0  0  0  0  0  0  0
   18.0316  -26.5482   -7.8815 C   0  0  0  0  0  0  0  0  0  0  0  0
   18.6927  -27.1946   -9.1214 C   0  0  0  0  0  0  0  0  0  0  0  0
   20.0870  -27.7279   -8.7249 C   0  0  0  0  0  0  0  0  0  0  0  0
   20.9674  -26.5221   -8.3082 C   0  0  0  0  0  0  0  0  0  0  0  0
   19.3207  -28.0679   -6.3231 C   0  0  0  0  0  0  0  0  0  0  0  0
   19.9462  -28.7563   -7.5652 C   0  0  0  0  0  0  0  0  0  0  0  0
   22.4210  -26.9452   -8.1489 C   0  0  0  0  0  0  0  0  0  0  0  0
   22.9594  -27.8028   -9.0282 O   0  0  0  0  0  0  0  0  0  0  0  0
   23.1226  -26.5375   -7.2477 O   0  0  0  0  0  0  0  0  0  0  0  0
   22.7746  -25.9373   -6.6179 H   0  0  0  0  0  0  0  0  0  0  0  0
 15 14  1  0  0  0
 15 16  2  0  0  0
  6  5  2  0  0  0
  6  1  1  0  0  0
  5  4  1  0  0  0
 14 12  1  0  0  0
 16  1  1  0  0  0
 16 11  1  0  0  0
  1  2  2  0  0  0
  4  7  1  0  0  0
  4  3  2  0  0  0
 12 11  2  0  0  0
 12 13  1  0  0  0
 11 10  1  0  0  0
 13  9  2  0  0  0
  2  3  1  0  0  0
  3 19  1  0  0  0
  9  8  1  0  0  0
 10  8  2  0  0  0
 19 21  1  0  0  0
  8 17  1  0  0  0
 21 22  1  0  0  0
 21 26  1  0  0  0
 30 29  2  0  0  0
 29 26  1  0  0  0
 29 31  1  0  0  0
 22 23  1  0  0  0
 22 27  1  0  0  0
 26 25  1  0  0  0
 23 24  1  0  0  0
 27 28  1  0  0  0
 25 24  1  0  0  0
 25 28  1  0  0  0
 14 18  1  0  0  0
 19 20  1  0  0  0
 31 32  1  0  0  0
M  END
> <minimizedAffinity>
-9.06416

$$$$
6EUX_BYB_A_601


 32 36  0  0  0  0  0  0  0  0999 V2000
   21.8472  -23.7465   -7.7687 C   0  0  0  0  0  0  0  0  0  0  0  0
   22.2214  -25.0069   -8.0383 N   0  0  0  0  0  0  0  0  0  0  0  0
   21.5887  -26.0555   -7.5011 C   0  0  0  0  0  0  0  0  0  0  0  0
   20.5038  -25.8040   -6.6420 C   0  0  0  0  0  0  0  0  0  0  0  0
   20.1325  -24.4832   -6.3917 C   0  0  0  0  0  0  0  0  0  0  0  0
   20.8087  -23.4900   -6.9723 N   0  0  0  0  0  0  0  0  0  0  0  0
   19.8440  -26.8378   -6.0761 F   0  0  0  0  0  0  0  0  0  0  0  0
   26.1004  -21.8938   -7.1777 C   0  0  0  0  0  0  0  0  0  0  0  0
   26.3109  -20.8689   -8.1008 C   0  0  0  0  0  0  0  0  0  0  0  0
   24.8862  -22.5558   -7.1861 C   0  0  0  0  0  0  0  0  0  0  0  0
   23.9104  -22.1697   -8.1228 C   0  0  0  0  0  0  0  0  0  0  0  0
   24.1884  -21.1181   -9.0174 C   0  0  0  0  0  0  0  0  0  0  0  0
   25.3738  -20.5035   -8.9663 N   0  0  0  0  0  0  0  0  0  0  0  0
   23.0758  -20.9624   -9.8031 N   0  0  0  0  0  0  0  0  0  0  0  0
   22.1031  -21.8956   -9.4312 N   0  0  0  0  0  0  0  0  0  0  0  0
   22.5503  -22.6225   -8.4249 C   0  0  0  0  0  0  0  0  0  0  0  0
   27.0595  -22.2583   -6.2861 F   0  0  0  0  0  0  0  0  0  0  0  0
   22.9767  -20.2951  -10.5201 H   0  0  0  0  0  0  0  0  0  0  0  0
   21.9695  -27.3734   -7.7642 N   0  0  0  0  0  0  0  0  0  0  0  0
   22.4872  -27.8671   -7.0878 H   0  0  0  0  0  0  0  0  0  0  0  0
   21.6170  -28.0432   -9.0264 C   0  0  0  0  0  0  0  0  0  0  0  0
   21.4713  -29.5762   -8.8192 C   0  0  0  0  0  0  0  0  0  0  0  0
   20.2133  -29.9088   -7.9742 C   0  0  0  0  0  0  0  0  0  0  0  0
   18.9538  -29.3149   -8.6476 C   0  0  0  0  0  0  0  0  0  0  0  0
   19.3658  -28.6422   -9.9755 C   0  0  0  0  0  0  0  0  0  0  0  0
   20.3143  -27.4609   -9.6474 C   0  0  0  0  0  0  0  0  0  0  0  0
   21.3386  -30.2300  -10.2170 C   0  0  0  0  0  0  0  0  0  0  0  0
   20.0566  -29.6854  -10.9011 C   0  0  0  0  0  0  0  0  0  0  0  0
   20.5554  -26.6037  -10.8821 C   0  0  0  0  0  0  0  0  0  0  0  0
   21.8075  -26.4250  -11.3278 O   0  0  0  0  0  0  0  0  0  0  0  0
   19.6527  -26.0655  -11.4871 O   0  0  0  0  0  0  0  0  0  0  0  0
   18.7673  -26.1719  -11.1997 H   0  0  0  0  0  0  0  0  0  0  0  0
 15 14  1  0  0  0
 15 16  2  0  0  0
  6  5  2  0  0  0
  6  1  1  0  0  0
  5  4  1  0  0  0
 14 12  1  0  0  0
 16  1  1  0  0  0
 16 11  1  0  0  0
  1  2  2  0  0  0
  4  7  1  0  0  0
  4  3  2  0  0  0
 12 11  2  0  0  0
 12 13  1  0  0  0
 11 10  1  0  0  0
 13  9  2  0  0  0
  2  3  1  0  0  0
  3 19  1  0  0  0
  9  8  1  0  0  0
 10  8  2  0  0  0
 19 21  1  0  0  0
  8 17  1  0  0  0
 21 22  1  0  0  0
 21 26  1  0  0  0
 30 29  2  0  0  0
 29 26  1  0  0  0
 29 31  1  0  0  0
 22 23  1  0  0  0
 22 27  1  0  0  0
 26 25  1  0  0  0
 23 24  1  0  0  0
 27 28  1  0  0  0
 25 24  1  0  0  0
 25 28  1  0  0  0
 14 18  1  0  0  0
 19 20  1  0  0  0
 31 32  1  0  0  0
M  END
> <minimizedAffinity>
-9.05341

$$$$
6EUX_BYB_A_601


 32 36  0  0  0  0  0  0  0  0999 V2000
   22.4707  -25.8599   -6.2371 C   0  0  0  0  0  0  0  0  0  0  0  0
   22.9042  -24.7846   -6.9132 N   0  0  0  0  0  0  0  0  0  0  0  0
   24.0990  -24.2368   -6.6664 C   0  0  0  0  0  0  0  0  0  0  0  0
   24.9040  -24.8253   -5.6746 C   0  0  0  0  0  0  0  0  0  0  0  0
   24.4295  -25.9491   -4.9985 C   0  0  0  0  0  0  0  0  0  0  0  0
   23.2288  -26.4426   -5.3074 N   0  0  0  0  0  0  0  0  0  0  0  0
   26.1146  -24.2963   -5.3935 F   0  0  0  0  0  0  0  0  0  0  0  0
   21.2659  -29.7780   -8.4883 C   0  0  0  0  0  0  0  0  0  0  0  0
   19.8778  -29.9196   -8.4977 C   0  0  0  0  0  0  0  0  0  0  0  0
   21.8155  -28.6651   -7.8784 C   0  0  0  0  0  0  0  0  0  0  0  0
   20.9550  -27.7188   -7.2932 C   0  0  0  0  0  0  0  0  0  0  0  0
   19.5624  -27.9215   -7.3510 C   0  0  0  0  0  0  0  0  0  0  0  0
   19.0779  -29.0090   -7.9577 N   0  0  0  0  0  0  0  0  0  0  0  0
   18.9809  -26.8590   -6.7088 N   0  0  0  0  0  0  0  0  0  0  0  0
   19.9731  -25.9924   -6.2399 N   0  0  0  0  0  0  0  0  0  0  0  0
   21.1609  -26.4558   -6.5800 C   0  0  0  0  0  0  0  0  0  0  0  0
   22.0813  -30.7083   -9.0516 F   0  0  0  0  0  0  0  0  0  0  0  0
   18.0121  -26.7263   -6.5950 H   0  0  0  0  0  0  0  0  0  0  0  0
   24.5626  -23.1132   -7.3547 N   0  0  0  0  0  0  0  0  0  0  0  0
   25.4945  -23.0959   -7.6719 H   0  0  0  0  0  0  0  0  0  0  0  0
   23.6943  -21.9544   -7.6181 C   0  0  0  0  0  0  0  0  0  0  0  0
   24.3871  -20.6324   -7.1861 C   0  0  0  0  0  0  0  0  0  0  0  0
   25.5801  -20.2960   -8.1193 C   0  0  0  0  0  0  0  0  0  0  0  0
   25.0963  -20.2186   -9.5864 C   0  0  0  0  0  0  0  0  0  0  0  0
   23.5681  -20.4397   -9.6223 C   0  0  0  0  0  0  0  0  0  0  0  0
   23.2730  -21.8741   -9.1139 C   0  0  0  0  0  0  0  0  0  0  0  0
   23.3341  -19.4996   -7.2701 C   0  0  0  0  0  0  0  0  0  0  0  0
   22.8611  -19.3684   -8.7422 C   0  0  0  0  0  0  0  0  0  0  0  0
   21.8173  -22.2448   -9.3602 C   0  0  0  0  0  0  0  0  0  0  0  0
   21.1446  -22.9349   -8.4276 O   0  0  0  0  0  0  0  0  0  0  0  0
   21.2317  -21.9419  -10.3780 O   0  0  0  0  0  0  0  0  0  0  0  0
   21.6753  -21.4597  -11.0479 H   0  0  0  0  0  0  0  0  0  0  0  0
 15 14  1  0  0  0
 15 16  2  0  0  0
  6  5  2  0  0  0
  6  1  1  0  0  0
  5  4  1  0  0  0
 14 12  1  0  0  0
 16  1  1  0  0  0
 16 11  1  0  0  0
  1  2  2  0  0  0
  4  7  1  0  0  0
  4  3  2  0  0  0
 12 11  2  0  0  0
 12 13  1  0  0  0
 11 10  1  0  0  0
 13  9  2  0  0  0
  2  3  1  0  0  0
  3 19  1  0  0  0
  9  8  1  0  0  0
 10  8  2  0  0  0
 19 21  1  0  0  0
  8 17  1  0  0  0
 21 22  1  0  0  0
 21 26  1  0  0  0
 30 29  2  0  0  0
 29 26  1  0  0  0
 29 31  1  0  0  0
 22 23  1  0  0  0
 22 27  1  0  0  0
 26 25  1  0  0  0
 23 24  1  0  0  0
 27 28  1  0  0  0
 25 24  1  0  0  0
 25 28  1  0  0  0
 14 18  1  0  0  0
 19 20  1  0  0  0
 31 32  1  0  0  0
M  END
> <minimizedAffinity>
-8.89023

$$$$
