5ER1_0HT_E_327


 43 43  0  0  0  0  0  0  0  0999 V2000
   36.8085  -11.9288    5.3555 C   0  0  0  0  0  0  0  0  0  0  0  0
   37.3361  -11.7780    4.2442 O   0  0  0  0  0  0  0  0  0  0  0  0
   37.4528  -12.2406    6.4580 N   0  0  0  0  0  0  0  0  0  0  0  0
   36.9471  -12.2996    7.3006 H   0  0  0  0  0  0  0  0  0  0  0  0
   38.8931  -12.5036    6.4825 C   0  0  0  0  0  0  0  0  0  0  0  0
   39.1431  -14.0015    6.3002 C   0  0  0  0  0  0  0  0  0  0  0  0
   39.3950  -14.7295    7.2725 O   0  0  0  0  0  0  0  0  0  0  0  0
   39.0483  -14.4137    5.0519 N   0  0  0  0  0  0  0  0  0  0  0  0
   38.8363  -13.7529    4.3536 H   0  0  0  0  0  0  0  0  0  0  0  0
   39.2446  -15.8153    4.6550 C   0  0  0  0  0  0  0  0  0  0  0  0
   40.5286  -15.9503    3.8337 C   0  0  0  0  0  0  0  0  0  0  0  0
   40.5053  -15.8763    2.5966 O   0  0  0  0  0  0  0  0  0  0  0  0
   41.6873  -17.3023    5.3310 C   0  0  0  0  0  0  0  0  0  0  0  0
   41.7709  -16.1622    4.4880 O   0  0  0  0  0  0  0  0  0  0  0  0
   38.0642  -16.2881    3.8028 C   0  0  0  0  0  0  0  0  0  0  0  0
   36.8134  -16.6000    4.6272 C   0  0  0  0  0  0  0  0  0  0  0  0
   35.5450  -16.5131    4.0388 C   0  0  0  0  0  0  0  0  0  0  0  0
   36.9359  -16.9753    5.9707 C   0  0  0  0  0  0  0  0  0  0  0  0
   34.4012  -16.8033    4.7929 C   0  0  0  0  0  0  0  0  0  0  0  0
   35.7921  -17.2662    6.7241 C   0  0  0  0  0  0  0  0  0  0  0  0
   34.5248  -17.1806    6.1355 C   0  0  0  0  0  0  0  0  0  0  0  0
   39.4857  -12.0441    7.8140 C   0  0  0  0  0  0  0  0  0  0  0  0
   39.9774  -10.5959    7.7812 C   0  0  0  0  0  0  0  0  0  0  0  0
   38.4864  -12.1220    8.9698 C   0  0  0  0  0  0  0  0  0  0  0  0
   39.0821  -12.7480   10.2322 C   0  0  0  0  0  0  0  0  0  0  0  0
   35.3048  -11.7629    5.5391 C   0  0  0  0  0  0  0  0  0  0  0  0
   34.7057  -13.0031    4.8718 C   0  0  0  0  0  0  0  0  0  0  0  0
   33.3884  -13.4471    5.5132 C   0  0  0  0  0  0  0  0  0  0  0  0
   34.3978  -12.7973    3.3885 C   0  0  0  0  0  0  0  0  0  0  0  0
   34.8433  -10.5368    4.8656 N   0  0  0  0  0  0  0  0  0  0  0  0
   34.8931  -10.7280    3.8649 H   0  0  0  0  0  0  0  0  0  0  0  0
   35.4267   -9.3630    5.0443 C   0  0  0  0  0  0  0  0  0  0  0  0
   34.1864   -8.6138    3.0833 O   0  0  0  0  0  0  0  0  0  0  0  0
   35.3730   -8.4293    3.8269 C   0  0  0  0  0  0  0  0  0  0  0  0
   33.4192   -8.5124    3.6681 H   0  0  0  0  0  0  0  0  0  0  0  0
   36.5750   -8.5894    2.9049 C   0  0  0  0  0  0  0  0  0  0  0  0
   36.4867   -9.8646    2.1772 N   0  0  0  0  0  0  0  0  0  0  0  0
   35.6205   -9.8898    1.6393 H   0  0  0  0  0  0  0  0  0  0  0  0
   36.4962  -10.6373    2.8430 H   0  0  0  0  0  0  0  0  0  0  0  0
   36.5238   -7.4210    1.9217 C   0  0  0  0  0  0  0  0  0  0  0  0
   37.2410   -6.1739    2.4377 C   0  0  0  0  0  0  0  0  0  0  0  0
   36.6550   -4.8748    1.8816 C   0  0  0  0  0  0  0  0  0  0  0  0
   38.7270   -6.1480    2.0775 C   0  0  0  0  0  0  0  0  0  0  0  0
 33 34  1  0  0  0
 34 32  1  0  0  0
 34 36  1  0  0  0
 32 30  1  0  0  0
 36 37  1  0  0  0
 36 40  1  0  0  0
 40 41  1  0  0  0
 41 42  1  0  0  0
 41 43  1  0  0  0
 30 26  1  0  0  0
 26  1  1  0  0  0
 26 27  1  0  0  0
  1  2  2  0  0  0
  1  3  1  0  0  0
 27 28  1  0  0  0
 27 29  1  0  0  0
  3  5  1  0  0  0
  5  6  1  0  0  0
  5 22  1  0  0  0
  6  7  2  0  0  0
  6  8  1  0  0  0
 22 24  1  0  0  0
 22 23  1  0  0  0
 24 25  1  0  0  0
  8 10  1  0  0  0
 10 11  1  0  0  0
 10 15  1  0  0  0
 11 12  2  0  0  0
 11 14  1  0  0  0
 15 16  1  0  0  0
 16 17  1  0  0  0
 16 18  2  0  0  0
 17 19  2  0  0  0
 18 20  1  0  0  0
 19 21  1  0  0  0
 20 21  2  0  0  0
 14 13  1  0  0  0
 33 35  1  0  0  0
 37 38  1  0  0  0
 37 39  1  0  0  0
 30 31  1  0  0  0
  3  4  1  0  0  0
  8  9  1  0  0  0
M  END
> <minimizedAffinity>
-7.11906

$$$$
5ER1_0HT_E_327


 43 43  0  0  0  0  0  0  0  0999 V2000
   34.6645  -12.2742    3.8436 C   0  0  0  0  0  0  0  0  0  0  0  0
   33.4815  -12.3414    3.4802 O   0  0  0  0  0  0  0  0  0  0  0  0
   35.4110  -11.1942    3.7789 N   0  0  0  0  0  0  0  0  0  0  0  0
   36.3300  -11.2330    4.1300 H   0  0  0  0  0  0  0  0  0  0  0  0
   34.9299   -9.9359    3.2052 C   0  0  0  0  0  0  0  0  0  0  0  0
   35.3104   -9.8694    1.7252 C   0  0  0  0  0  0  0  0  0  0  0  0
   36.3580  -10.3892    1.3116 O   0  0  0  0  0  0  0  0  0  0  0  0
   34.4304   -9.2401    0.9723 N   0  0  0  0  0  0  0  0  0  0  0  0
   33.6256   -8.8687    1.4008 H   0  0  0  0  0  0  0  0  0  0  0  0
   34.5962   -9.0677   -0.4779 C   0  0  0  0  0  0  0  0  0  0  0  0
   34.7411   -7.5818   -0.8137 C   0  0  0  0  0  0  0  0  0  0  0  0
   35.7718   -6.9590   -0.5199 O   0  0  0  0  0  0  0  0  0  0  0  0
   34.1685   -5.6811   -2.0268 C   0  0  0  0  0  0  0  0  0  0  0  0
   33.6863   -6.8966   -1.4724 O   0  0  0  0  0  0  0  0  0  0  0  0
   33.3732   -9.6207   -1.2138 C   0  0  0  0  0  0  0  0  0  0  0  0
   33.4261  -11.1368   -1.4142 C   0  0  0  0  0  0  0  0  0  0  0  0
   34.3136  -11.6914   -2.3454 C   0  0  0  0  0  0  0  0  0  0  0  0
   32.5884  -11.9717   -0.6646 C   0  0  0  0  0  0  0  0  0  0  0  0
   34.3645  -13.0794   -2.5246 C   0  0  0  0  0  0  0  0  0  0  0  0
   32.6402  -13.3595   -0.8434 C   0  0  0  0  0  0  0  0  0  0  0  0
   33.5281  -13.9136   -1.7731 C   0  0  0  0  0  0  0  0  0  0  0  0
   35.5503   -8.7525    3.9468 C   0  0  0  0  0  0  0  0  0  0  0  0
   36.1057   -9.1328    5.3205 C   0  0  0  0  0  0  0  0  0  0  0  0
   36.7143   -8.1156    3.1852 C   0  0  0  0  0  0  0  0  0  0  0  0
   36.5720   -6.5996    3.0370 C   0  0  0  0  0  0  0  0  0  0  0  0
   35.3803  -13.4925    4.4142 C   0  0  0  0  0  0  0  0  0  0  0  0
   34.7476  -13.6880    5.7940 C   0  0  0  0  0  0  0  0  0  0  0  0
   34.0298  -12.4353    6.3033 C   0  0  0  0  0  0  0  0  0  0  0  0
   33.7051  -14.8059    5.8235 C   0  0  0  0  0  0  0  0  0  0  0  0
   36.8230  -13.2219    4.5381 N   0  0  0  0  0  0  0  0  0  0  0  0
   37.2944  -13.9495    4.0007 H   0  0  0  0  0  0  0  0  0  0  0  0
   37.4405  -13.1708    5.7069 C   0  0  0  0  0  0  0  0  0  0  0  0
   39.2414  -14.3834    4.5970 O   0  0  0  0  0  0  0  0  0  0  0  0
   38.9399  -13.4957    5.6535 C   0  0  0  0  0  0  0  0  0  0  0  0
   38.9065  -14.0189    3.7629 H   0  0  0  0  0  0  0  0  0  0  0  0
   39.4675  -14.0718    6.9613 C   0  0  0  0  0  0  0  0  0  0  0  0
   40.7185  -14.8071    6.7207 N   0  0  0  0  0  0  0  0  0  0  0  0
   41.4072  -14.1796    6.3054 H   0  0  0  0  0  0  0  0  0  0  0  0
   40.5393  -15.5841    6.0846 H   0  0  0  0  0  0  0  0  0  0  0  0
   39.7288  -12.8818    7.8832 C   0  0  0  0  0  0  0  0  0  0  0  0
   39.2890  -13.1349    9.3249 C   0  0  0  0  0  0  0  0  0  0  0  0
   38.4347  -14.3948    9.4763 C   0  0  0  0  0  0  0  0  0  0  0  0
   38.4525  -11.9928    9.9031 C   0  0  0  0  0  0  0  0  0  0  0  0
 33 34  1  0  0  0
 34 32  1  0  0  0
 34 36  1  0  0  0
 32 30  1  0  0  0
 36 37  1  0  0  0
 36 40  1  0  0  0
 40 41  1  0  0  0
 41 42  1  0  0  0
 41 43  1  0  0  0
 30 26  1  0  0  0
 26  1  1  0  0  0
 26 27  1  0  0  0
  1  2  2  0  0  0
  1  3  1  0  0  0
 27 28  1  0  0  0
 27 29  1  0  0  0
  3  5  1  0  0  0
  5  6  1  0  0  0
  5 22  1  0  0  0
  6  7  2  0  0  0
  6  8  1  0  0  0
 22 24  1  0  0  0
 22 23  1  0  0  0
 24 25  1  0  0  0
  8 10  1  0  0  0
 10 11  1  0  0  0
 10 15  1  0  0  0
 11 12  2  0  0  0
 11 14  1  0  0  0
 15 16  1  0  0  0
 16 17  1  0  0  0
 16 18  2  0  0  0
 17 19  2  0  0  0
 18 20  1  0  0  0
 19 21  1  0  0  0
 20 21  2  0  0  0
 14 13  1  0  0  0
 33 35  1  0  0  0
 37 38  1  0  0  0
 37 39  1  0  0  0
 30 31  1  0  0  0
  3  4  1  0  0  0
  8  9  1  0  0  0
M  END
> <minimizedAffinity>
-6.94851

$$$$
5ER1_0HT_E_327


 43 43  0  0  0  0  0  0  0  0999 V2000
   40.2077  -14.6942    7.8218 C   0  0  0  0  0  0  0  0  0  0  0  0
   39.5711  -15.3501    8.6589 O   0  0  0  0  0  0  0  0  0  0  0  0
   39.7695  -13.6074    7.2264 N   0  0  0  0  0  0  0  0  0  0  0  0
   40.3683  -13.1354    6.6035 H   0  0  0  0  0  0  0  0  0  0  0  0
   38.4261  -13.0708    7.4530 C   0  0  0  0  0  0  0  0  0  0  0  0
   37.7813  -12.7214    6.1107 C   0  0  0  0  0  0  0  0  0  0  0  0
   38.1953  -13.2223    5.0541 O   0  0  0  0  0  0  0  0  0  0  0  0
   36.7718  -11.8790    6.2031 N   0  0  0  0  0  0  0  0  0  0  0  0
   36.5185  -11.5450    7.0939 H   0  0  0  0  0  0  0  0  0  0  0  0
   36.0069  -11.4158    5.0366 C   0  0  0  0  0  0  0  0  0  0  0  0
   35.9676   -9.8862    5.0121 C   0  0  0  0  0  0  0  0  0  0  0  0
   36.5579   -9.2192    5.8741 O   0  0  0  0  0  0  0  0  0  0  0  0
   35.9676   -8.0605    3.5703 C   0  0  0  0  0  0  0  0  0  0  0  0
   35.2484   -9.2108    3.9910 O   0  0  0  0  0  0  0  0  0  0  0  0
   34.5718  -11.9431    5.1088 C   0  0  0  0  0  0  0  0  0  0  0  0
   34.4731  -13.4530    4.8805 C   0  0  0  0  0  0  0  0  0  0  0  0
   34.2269  -14.3117    5.9598 C   0  0  0  0  0  0  0  0  0  0  0  0
   34.6265  -13.9777    3.5914 C   0  0  0  0  0  0  0  0  0  0  0  0
   34.1322  -15.6929    5.7490 C   0  0  0  0  0  0  0  0  0  0  0  0
   34.5309  -15.3587    3.3810 C   0  0  0  0  0  0  0  0  0  0  0  0
   34.2835  -16.2164    4.4593 C   0  0  0  0  0  0  0  0  0  0  0  0
   38.5038  -11.8183    8.3249 C   0  0  0  0  0  0  0  0  0  0  0  0
   38.2656  -12.1070    9.8081 C   0  0  0  0  0  0  0  0  0  0  0  0
   39.8630  -11.1204    8.2461 C   0  0  0  0  0  0  0  0  0  0  0  0
   40.3889  -10.6824    9.6143 C   0  0  0  0  0  0  0  0  0  0  0  0
   41.6078  -15.1170    7.3939 C   0  0  0  0  0  0  0  0  0  0  0  0
   42.5065  -13.9705    7.8631 C   0  0  0  0  0  0  0  0  0  0  0  0
   42.5172  -13.8064    9.3852 C   0  0  0  0  0  0  0  0  0  0  0  0
   43.9688  -14.1475    7.4535 C   0  0  0  0  0  0  0  0  0  0  0  0
   41.6698  -15.2592    5.9290 N   0  0  0  0  0  0  0  0  0  0  0  0
   41.0545  -14.5401    5.5488 H   0  0  0  0  0  0  0  0  0  0  0  0
   41.3490  -16.3824    5.3080 C   0  0  0  0  0  0  0  0  0  0  0  0
   40.0700  -14.8669    3.8892 O   0  0  0  0  0  0  0  0  0  0  0  0
   40.2912  -16.2254    4.2065 C   0  0  0  0  0  0  0  0  0  0  0  0
   40.9140  -14.4464    3.6617 H   0  0  0  0  0  0  0  0  0  0  0  0
   38.9637  -16.8818    4.5631 C   0  0  0  0  0  0  0  0  0  0  0  0
   38.4236  -16.2907    5.7970 N   0  0  0  0  0  0  0  0  0  0  0  0
   38.3000  -15.2866    5.6672 H   0  0  0  0  0  0  0  0  0  0  0  0
   39.0729  -16.4567    6.5660 H   0  0  0  0  0  0  0  0  0  0  0  0
   38.0186  -16.6078    3.3943 C   0  0  0  0  0  0  0  0  0  0  0  0
   37.2567  -17.8515    2.9376 C   0  0  0  0  0  0  0  0  0  0  0  0
   38.1065  -19.1227    2.9829 C   0  0  0  0  0  0  0  0  0  0  0  0
   36.7449  -17.7439    1.5006 C   0  0  0  0  0  0  0  0  0  0  0  0
 33 34  1  0  0  0
 34 32  1  0  0  0
 34 36  1  0  0  0
 32 30  1  0  0  0
 36 37  1  0  0  0
 36 40  1  0  0  0
 40 41  1  0  0  0
 41 42  1  0  0  0
 41 43  1  0  0  0
 30 26  1  0  0  0
 26  1  1  0  0  0
 26 27  1  0  0  0
  1  2  2  0  0  0
  1  3  1  0  0  0
 27 28  1  0  0  0
 27 29  1  0  0  0
  3  5  1  0  0  0
  5  6  1  0  0  0
  5 22  1  0  0  0
  6  7  2  0  0  0
  6  8  1  0  0  0
 22 24  1  0  0  0
 22 23  1  0  0  0
 24 25  1  0  0  0
  8 10  1  0  0  0
 10 11  1  0  0  0
 10 15  1  0  0  0
 11 12  2  0  0  0
 11 14  1  0  0  0
 15 16  1  0  0  0
 16 17  1  0  0  0
 16 18  2  0  0  0
 17 19  2  0  0  0
 18 20  1  0  0  0
 19 21  1  0  0  0
 20 21  2  0  0  0
 14 13  1  0  0  0
 33 35  1  0  0  0
 37 38  1  0  0  0
 37 39  1  0  0  0
 30 31  1  0  0  0
  3  4  1  0  0  0
  8  9  1  0  0  0
M  END
> <minimizedAffinity>
-6.93756

$$$$
5ER1_0HT_E_327


 43 43  0  0  0  0  0  0  0  0999 V2000
   36.6847  -12.2340    5.4906 C   0  0  0  0  0  0  0  0  0  0  0  0
   37.1805  -12.1319    4.3593 O   0  0  0  0  0  0  0  0  0  0  0  0
   37.3513  -12.5514    6.5781 N   0  0  0  0  0  0  0  0  0  0  0  0
   36.8724  -12.5687    7.4381 H   0  0  0  0  0  0  0  0  0  0  0  0
   38.7780  -12.8805    6.5610 C   0  0  0  0  0  0  0  0  0  0  0  0
   38.9531  -14.3905    6.3910 C   0  0  0  0  0  0  0  0  0  0  0  0
   38.6867  -14.9468    5.3148 O   0  0  0  0  0  0  0  0  0  0  0  0
   39.4138  -15.0018    7.4641 N   0  0  0  0  0  0  0  0  0  0  0  0
   39.6002  -14.4642    8.2675 H   0  0  0  0  0  0  0  0  0  0  0  0
   39.6619  -16.4496    7.5155 C   0  0  0  0  0  0  0  0  0  0  0  0
   38.5164  -17.1497    8.2499 C   0  0  0  0  0  0  0  0  0  0  0  0
   38.2332  -18.3323    8.0098 O   0  0  0  0  0  0  0  0  0  0  0  0
   37.7266  -17.1799   10.4379 C   0  0  0  0  0  0  0  0  0  0  0  0
   37.7610  -16.4442    9.2234 O   0  0  0  0  0  0  0  0  0  0  0  0
   40.9685  -16.7304    8.2620 C   0  0  0  0  0  0  0  0  0  0  0  0
   41.5218  -15.5032    8.9895 C   0  0  0  0  0  0  0  0  0  0  0  0
   42.4460  -14.6660    8.3511 C   0  0  0  0  0  0  0  0  0  0  0  0
   41.1025  -15.2144   10.2939 C   0  0  0  0  0  0  0  0  0  0  0  0
   42.9481  -13.5405    9.0161 C   0  0  0  0  0  0  0  0  0  0  0  0
   41.6042  -14.0886   10.9581 C   0  0  0  0  0  0  0  0  0  0  0  0
   42.5267  -13.2514   10.3196 C   0  0  0  0  0  0  0  0  0  0  0  0
   39.4332  -12.4332    7.8671 C   0  0  0  0  0  0  0  0  0  0  0  0
   40.0638  -11.0426    7.7737 C   0  0  0  0  0  0  0  0  0  0  0  0
   38.4490  -12.3701    9.0367 C   0  0  0  0  0  0  0  0  0  0  0  0
   38.9687  -11.5361   10.2093 C   0  0  0  0  0  0  0  0  0  0  0  0
   35.1974  -11.9944    5.7199 C   0  0  0  0  0  0  0  0  0  0  0  0
   34.5152  -13.1761    5.0267 C   0  0  0  0  0  0  0  0  0  0  0  0
   34.1498  -14.3046    5.9945 C   0  0  0  0  0  0  0  0  0  0  0  0
   33.2121  -12.7906    4.3261 C   0  0  0  0  0  0  0  0  0  0  0  0
   34.7868  -10.7221    5.1015 N   0  0  0  0  0  0  0  0  0  0  0  0
   34.7109  -10.9054    4.1009 H   0  0  0  0  0  0  0  0  0  0  0  0
   35.4961   -9.6115    5.2182 C   0  0  0  0  0  0  0  0  0  0  0  0
   34.2037   -8.7938    3.3191 O   0  0  0  0  0  0  0  0  0  0  0  0
   35.4381   -8.6834    3.9968 C   0  0  0  0  0  0  0  0  0  0  0  0
   33.4773   -8.6388    3.9430 H   0  0  0  0  0  0  0  0  0  0  0  0
   36.5758   -8.9273    3.0137 C   0  0  0  0  0  0  0  0  0  0  0  0
   36.3121  -10.1424    2.2278 N   0  0  0  0  0  0  0  0  0  0  0  0
   35.4279  -10.0399    1.7297 H   0  0  0  0  0  0  0  0  0  0  0  0
   36.2589  -10.9467    2.8529 H   0  0  0  0  0  0  0  0  0  0  0  0
   36.6205   -7.7084    2.0936 C   0  0  0  0  0  0  0  0  0  0  0  0
   37.2939   -6.4973    2.7384 C   0  0  0  0  0  0  0  0  0  0  0  0
   36.4168   -5.2441    2.7163 C   0  0  0  0  0  0  0  0  0  0  0  0
   38.6005   -6.1032    2.0486 C   0  0  0  0  0  0  0  0  0  0  0  0
 33 34  1  0  0  0
 34 32  1  0  0  0
 34 36  1  0  0  0
 32 30  1  0  0  0
 36 37  1  0  0  0
 36 40  1  0  0  0
 40 41  1  0  0  0
 41 42  1  0  0  0
 41 43  1  0  0  0
 30 26  1  0  0  0
 26  1  1  0  0  0
 26 27  1  0  0  0
  1  2  2  0  0  0
  1  3  1  0  0  0
 27 28  1  0  0  0
 27 29  1  0  0  0
  3  5  1  0  0  0
  5  6  1  0  0  0
  5 22  1  0  0  0
  6  7  2  0  0  0
  6  8  1  0  0  0
 22 24  1  0  0  0
 22 23  1  0  0  0
 24 25  1  0  0  0
  8 10  1  0  0  0
 10 11  1  0  0  0
 10 15  1  0  0  0
 11 12  2  0  0  0
 11 14  1  0  0  0
 15 16  1  0  0  0
 16 17  1  0  0  0
 16 18  2  0  0  0
 17 19  2  0  0  0
 18 20  1  0  0  0
 19 21  1  0  0  0
 20 21  2  0  0  0
 14 13  1  0  0  0
 33 35  1  0  0  0
 37 38  1  0  0  0
 37 39  1  0  0  0
 30 31  1  0  0  0
  3  4  1  0  0  0
  8  9  1  0  0  0
M  END
> <minimizedAffinity>
-6.92679

$$$$
5ER1_0HT_E_327


 43 43  0  0  0  0  0  0  0  0999 V2000
   35.2243   -9.4130    4.5006 C   0  0  0  0  0  0  0  0  0  0  0  0
   35.1593   -8.9098    5.6313 O   0  0  0  0  0  0  0  0  0  0  0  0
   35.2063  -10.7031    4.2493 N   0  0  0  0  0  0  0  0  0  0  0  0
   35.2238  -11.0025    3.3115 H   0  0  0  0  0  0  0  0  0  0  0  0
   35.1613  -11.7127    5.3089 C   0  0  0  0  0  0  0  0  0  0  0  0
   36.5743  -12.2303    5.5832 C   0  0  0  0  0  0  0  0  0  0  0  0
   37.4042  -12.3362    4.6674 O   0  0  0  0  0  0  0  0  0  0  0  0
   36.8032  -12.5215    6.8482 N   0  0  0  0  0  0  0  0  0  0  0  0
   36.0754  -12.3944    7.4988 H   0  0  0  0  0  0  0  0  0  0  0  0
   38.0958  -13.0275    7.3313 C   0  0  0  0  0  0  0  0  0  0  0  0
   38.2904  -14.4770    6.8809 C   0  0  0  0  0  0  0  0  0  0  0  0
   39.2682  -14.8056    6.1936 O   0  0  0  0  0  0  0  0  0  0  0  0
   37.4172  -16.5682    6.3548 C   0  0  0  0  0  0  0  0  0  0  0  0
   37.3438  -15.4685    7.2509 O   0  0  0  0  0  0  0  0  0  0  0  0
   38.1385  -12.9784    8.8606 C   0  0  0  0  0  0  0  0  0  0  0  0
   39.5376  -13.2191    9.4318 C   0  0  0  0  0  0  0  0  0  0  0  0
   40.5174  -12.2228    9.3325 C   0  0  0  0  0  0  0  0  0  0  0  0
   39.8389  -14.4353   10.0568 C   0  0  0  0  0  0  0  0  0  0  0  0
   41.7961  -12.4424    9.8598 C   0  0  0  0  0  0  0  0  0  0  0  0
   41.1172  -14.6541   10.5846 C   0  0  0  0  0  0  0  0  0  0  0  0
   42.0958  -13.6579   10.4865 C   0  0  0  0  0  0  0  0  0  0  0  0
   34.2638  -12.8748    4.8858 C   0  0  0  0  0  0  0  0  0  0  0  0
   34.4868  -13.3044    3.4346 C   0  0  0  0  0  0  0  0  0  0  0  0
   34.4760  -14.1310    5.7328 C   0  0  0  0  0  0  0  0  0  0  0  0
   33.9142  -15.3942    5.0776 C   0  0  0  0  0  0  0  0  0  0  0  0
   35.3406   -8.5384    3.2581 C   0  0  0  0  0  0  0  0  0  0  0  0
   35.1282   -9.5091    2.0940 C   0  0  0  0  0  0  0  0  0  0  0  0
   34.3835   -8.8739    0.9169 C   0  0  0  0  0  0  0  0  0  0  0  0
   36.4366  -10.0489    1.5160 C   0  0  0  0  0  0  0  0  0  0  0  0
   36.6804   -7.9300    3.1891 N   0  0  0  0  0  0  0  0  0  0  0  0
   37.1503   -8.1814    4.0587 H   0  0  0  0  0  0  0  0  0  0  0  0
   36.8651   -6.6291    3.0350 C   0  0  0  0  0  0  0  0  0  0  0  0
   38.6229   -6.1626    1.4108 O   0  0  0  0  0  0  0  0  0  0  0  0
   37.2245   -6.1983    1.6061 C   0  0  0  0  0  0  0  0  0  0  0  0
   39.0049   -7.0212    1.6512 H   0  0  0  0  0  0  0  0  0  0  0  0
   36.6286   -4.8484    1.2275 C   0  0  0  0  0  0  0  0  0  0  0  0
   35.7526   -4.3633    2.3049 N   0  0  0  0  0  0  0  0  0  0  0  0
   36.2882   -4.2854    3.1695 H   0  0  0  0  0  0  0  0  0  0  0  0
   34.9836   -5.0198    2.4393 H   0  0  0  0  0  0  0  0  0  0  0  0
   37.8065   -3.8934    1.0407 C   0  0  0  0  0  0  0  0  0  0  0  0
   37.7733   -3.1583   -0.2989 C   0  0  0  0  0  0  0  0  0  0  0  0
   36.3766   -3.1142   -0.9215 C   0  0  0  0  0  0  0  0  0  0  0  0
   38.6788   -3.7969   -1.3528 C   0  0  0  0  0  0  0  0  0  0  0  0
 33 34  1  0  0  0
 34 32  1  0  0  0
 34 36  1  0  0  0
 32 30  1  0  0  0
 36 37  1  0  0  0
 36 40  1  0  0  0
 40 41  1  0  0  0
 41 42  1  0  0  0
 41 43  1  0  0  0
 30 26  1  0  0  0
 26  1  1  0  0  0
 26 27  1  0  0  0
  1  2  2  0  0  0
  1  3  1  0  0  0
 27 28  1  0  0  0
 27 29  1  0  0  0
  3  5  1  0  0  0
  5  6  1  0  0  0
  5 22  1  0  0  0
  6  7  2  0  0  0
  6  8  1  0  0  0
 22 24  1  0  0  0
 22 23  1  0  0  0
 24 25  1  0  0  0
  8 10  1  0  0  0
 10 11  1  0  0  0
 10 15  1  0  0  0
 11 12  2  0  0  0
 11 14  1  0  0  0
 15 16  1  0  0  0
 16 17  1  0  0  0
 16 18  2  0  0  0
 17 19  2  0  0  0
 18 20  1  0  0  0
 19 21  1  0  0  0
 20 21  2  0  0  0
 14 13  1  0  0  0
 33 35  1  0  0  0
 37 38  1  0  0  0
 37 39  1  0  0  0
 30 31  1  0  0  0
  3  4  1  0  0  0
  8  9  1  0  0  0
M  END
> <minimizedAffinity>
-6.89860

$$$$
5ER1_0HT_E_327


 43 43  0  0  0  0  0  0  0  0999 V2000
   36.5137  -12.7048    5.5749 C   0  0  0  0  0  0  0  0  0  0  0  0
   37.2052  -12.8195    4.5527 O   0  0  0  0  0  0  0  0  0  0  0  0
   36.7932  -13.2511    6.7373 N   0  0  0  0  0  0  0  0  0  0  0  0
   36.1994  -13.0679    7.5009 H   0  0  0  0  0  0  0  0  0  0  0  0
   37.9529  -14.1214    6.9415 C   0  0  0  0  0  0  0  0  0  0  0  0
   37.5430  -15.5793    6.7267 C   0  0  0  0  0  0  0  0  0  0  0  0
   37.3611  -16.3397    7.6898 O   0  0  0  0  0  0  0  0  0  0  0  0
   37.3960  -15.9148    5.4606 N   0  0  0  0  0  0  0  0  0  0  0  0
   37.5589  -15.2310    4.7713 H   0  0  0  0  0  0  0  0  0  0  0  0
   37.0000  -17.2635    5.0311 C   0  0  0  0  0  0  0  0  0  0  0  0
   37.7557  -17.6486    3.7574 C   0  0  0  0  0  0  0  0  0  0  0  0
   37.1687  -18.1794    2.8033 O   0  0  0  0  0  0  0  0  0  0  0  0
   39.3931  -16.4030    2.6712 C   0  0  0  0  0  0  0  0  0  0  0  0
   39.1495  -17.3977    3.6555 O   0  0  0  0  0  0  0  0  0  0  0  0
   35.4975  -17.3003    4.7411 C   0  0  0  0  0  0  0  0  0  0  0  0
   34.7332  -18.2688    5.6464 C   0  0  0  0  0  0  0  0  0  0  0  0
   34.4590  -19.5709    5.2087 C   0  0  0  0  0  0  0  0  0  0  0  0
   34.3094  -17.8545    6.9151 C   0  0  0  0  0  0  0  0  0  0  0  0
   33.7637  -20.4579    6.0399 C   0  0  0  0  0  0  0  0  0  0  0  0
   33.6149  -18.7420    7.7462 C   0  0  0  0  0  0  0  0  0  0  0  0
   33.3422  -20.0436    7.3091 C   0  0  0  0  0  0  0  0  0  0  0  0
   38.4949  -13.9458    8.3594 C   0  0  0  0  0  0  0  0  0  0  0  0
   40.0225  -13.8837    8.4118 C   0  0  0  0  0  0  0  0  0  0  0  0
   37.9995  -12.6645    9.0326 C   0  0  0  0  0  0  0  0  0  0  0  0
   39.0633  -12.0017    9.9098 C   0  0  0  0  0  0  0  0  0  0  0  0
   35.2258  -11.8904    5.5635 C   0  0  0  0  0  0  0  0  0  0  0  0
   34.1687  -12.8662    5.0414 C   0  0  0  0  0  0  0  0  0  0  0  0
   34.4105  -13.2855    3.5889 C   0  0  0  0  0  0  0  0  0  0  0  0
   34.1026  -14.1658    5.8440 C   0  0  0  0  0  0  0  0  0  0  0  0
   35.3618  -10.7379    4.6561 N   0  0  0  0  0  0  0  0  0  0  0  0
   36.2378  -10.8765    4.1522 H   0  0  0  0  0  0  0  0  0  0  0  0
   35.3817   -9.4882    5.0896 C   0  0  0  0  0  0  0  0  0  0  0  0
   34.0855   -8.7921    3.1452 O   0  0  0  0  0  0  0  0  0  0  0  0
   35.1478   -8.4297    4.0026 C   0  0  0  0  0  0  0  0  0  0  0  0
   33.2911   -8.9707    3.6723 H   0  0  0  0  0  0  0  0  0  0  0  0
   36.3931   -8.1502    3.1711 C   0  0  0  0  0  0  0  0  0  0  0  0
   36.2467   -8.7363    1.8300 N   0  0  0  0  0  0  0  0  0  0  0  0
   35.4212   -8.3450    1.3762 H   0  0  0  0  0  0  0  0  0  0  0  0
   36.1430   -9.7478    1.9105 H   0  0  0  0  0  0  0  0  0  0  0  0
   36.5115   -6.6304    3.0680 C   0  0  0  0  0  0  0  0  0  0  0  0
   37.2678   -6.1731    1.8210 C   0  0  0  0  0  0  0  0  0  0  0  0
   38.7802   -6.0918    2.0359 C   0  0  0  0  0  0  0  0  0  0  0  0
   36.8407   -4.7862    1.3390 C   0  0  0  0  0  0  0  0  0  0  0  0
 33 34  1  0  0  0
 34 32  1  0  0  0
 34 36  1  0  0  0
 32 30  1  0  0  0
 36 37  1  0  0  0
 36 40  1  0  0  0
 40 41  1  0  0  0
 41 42  1  0  0  0
 41 43  1  0  0  0
 30 26  1  0  0  0
 26  1  1  0  0  0
 26 27  1  0  0  0
  1  2  2  0  0  0
  1  3  1  0  0  0
 27 28  1  0  0  0
 27 29  1  0  0  0
  3  5  1  0  0  0
  5  6  1  0  0  0
  5 22  1  0  0  0
  6  7  2  0  0  0
  6  8  1  0  0  0
 22 24  1  0  0  0
 22 23  1  0  0  0
 24 25  1  0  0  0
  8 10  1  0  0  0
 10 11  1  0  0  0
 10 15  1  0  0  0
 11 12  2  0  0  0
 11 14  1  0  0  0
 15 16  1  0  0  0
 16 17  1  0  0  0
 16 18  2  0  0  0
 17 19  2  0  0  0
 18 20  1  0  0  0
 19 21  1  0  0  0
 20 21  2  0  0  0
 14 13  1  0  0  0
 33 35  1  0  0  0
 37 38  1  0  0  0
 37 39  1  0  0  0
 30 31  1  0  0  0
  3  4  1  0  0  0
  8  9  1  0  0  0
M  END
> <minimizedAffinity>
-6.83725

$$$$
5ER1_0HT_E_327


 43 43  0  0  0  0  0  0  0  0999 V2000
   35.4049   -9.9626    2.0464 C   0  0  0  0  0  0  0  0  0  0  0  0
   36.4310  -10.5920    1.7511 O   0  0  0  0  0  0  0  0  0  0  0  0
   34.5042  -10.3587    2.9179 N   0  0  0  0  0  0  0  0  0  0  0  0
   33.7416   -9.7670    3.1117 H   0  0  0  0  0  0  0  0  0  0  0  0
   34.5903  -11.6451    3.6119 C   0  0  0  0  0  0  0  0  0  0  0  0
   35.8307  -11.6621    4.5067 C   0  0  0  0  0  0  0  0  0  0  0  0
   36.2103  -10.6357    5.0910 O   0  0  0  0  0  0  0  0  0  0  0  0
   36.4132  -12.8411    4.5948 N   0  0  0  0  0  0  0  0  0  0  0  0
   36.0259  -13.5952    4.0941 H   0  0  0  0  0  0  0  0  0  0  0  0
   37.6148  -13.0813    5.4064 C   0  0  0  0  0  0  0  0  0  0  0  0
   38.2966  -14.3762    4.9591 C   0  0  0  0  0  0  0  0  0  0  0  0
   37.8538  -15.0340    4.0064 O   0  0  0  0  0  0  0  0  0  0  0  0
   39.3486  -16.2347    5.8819 C   0  0  0  0  0  0  0  0  0  0  0  0
   39.4548  -14.8396    5.6373 O   0  0  0  0  0  0  0  0  0  0  0  0
   37.2316  -13.2123    6.8826 C   0  0  0  0  0  0  0  0  0  0  0  0
   38.1723  -12.4502    7.8185 C   0  0  0  0  0  0  0  0  0  0  0  0
   38.1867  -12.7412    9.1888 C   0  0  0  0  0  0  0  0  0  0  0  0
   39.0217  -11.4625    7.3052 C   0  0  0  0  0  0  0  0  0  0  0  0
   39.0514  -12.0464   10.0437 C   0  0  0  0  0  0  0  0  0  0  0  0
   39.8867  -10.7686    8.1602 C   0  0  0  0  0  0  0  0  0  0  0  0
   39.9019  -11.0605    9.5292 C   0  0  0  0  0  0  0  0  0  0  0  0
   34.6772  -12.7826    2.5952 C   0  0  0  0  0  0  0  0  0  0  0  0
   34.4140  -14.1573    3.2126 C   0  0  0  0  0  0  0  0  0  0  0  0
   33.6724  -12.6373    1.4507 C   0  0  0  0  0  0  0  0  0  0  0  0
   34.0282  -13.4915    0.2325 C   0  0  0  0  0  0  0  0  0  0  0  0
   35.0896   -8.6238    1.3901 C   0  0  0  0  0  0  0  0  0  0  0  0
   34.9178   -8.9633   -0.0923 C   0  0  0  0  0  0  0  0  0  0  0  0
   33.5903   -9.6641   -0.3932 C   0  0  0  0  0  0  0  0  0  0  0  0
   34.9531   -7.7322   -0.9982 C   0  0  0  0  0  0  0  0  0  0  0  0
   36.2107   -7.6878    1.5819 N   0  0  0  0  0  0  0  0  0  0  0  0
   37.0602   -8.2503    1.5341 H   0  0  0  0  0  0  0  0  0  0  0  0
   36.3314   -6.9321    2.6611 C   0  0  0  0  0  0  0  0  0  0  0  0
   35.7731   -4.5927    3.0623 O   0  0  0  0  0  0  0  0  0  0  0  0
   36.6547   -5.4584    2.3779 C   0  0  0  0  0  0  0  0  0  0  0  0
   35.7827   -4.8038    4.0090 H   0  0  0  0  0  0  0  0  0  0  0  0
   36.6366   -5.1236    0.8920 C   0  0  0  0  0  0  0  0  0  0  0  0
   35.5901   -4.1288    0.6114 N   0  0  0  0  0  0  0  0  0  0  0  0
   35.7632   -3.2884    1.1629 H   0  0  0  0  0  0  0  0  0  0  0  0
   34.6788   -4.5153    0.8576 H   0  0  0  0  0  0  0  0  0  0  0  0
   38.0114   -4.5440    0.5630 C   0  0  0  0  0  0  0  0  0  0  0  0
   37.9505   -3.0908    0.0933 C   0  0  0  0  0  0  0  0  0  0  0  0
   38.6618   -2.8644   -1.2420 C   0  0  0  0  0  0  0  0  0  0  0  0
   38.5968   -2.1171    1.0795 C   0  0  0  0  0  0  0  0  0  0  0  0
 33 34  1  0  0  0
 34 32  1  0  0  0
 34 36  1  0  0  0
 32 30  1  0  0  0
 36 37  1  0  0  0
 36 40  1  0  0  0
 40 41  1  0  0  0
 41 42  1  0  0  0
 41 43  1  0  0  0
 30 26  1  0  0  0
 26  1  1  0  0  0
 26 27  1  0  0  0
  1  2  2  0  0  0
  1  3  1  0  0  0
 27 28  1  0  0  0
 27 29  1  0  0  0
  3  5  1  0  0  0
  5  6  1  0  0  0
  5 22  1  0  0  0
  6  7  2  0  0  0
  6  8  1  0  0  0
 22 24  1  0  0  0
 22 23  1  0  0  0
 24 25  1  0  0  0
  8 10  1  0  0  0
 10 11  1  0  0  0
 10 15  1  0  0  0
 11 12  2  0  0  0
 11 14  1  0  0  0
 15 16  1  0  0  0
 16 17  1  0  0  0
 16 18  2  0  0  0
 17 19  2  0  0  0
 18 20  1  0  0  0
 19 21  1  0  0  0
 20 21  2  0  0  0
 14 13  1  0  0  0
 33 35  1  0  0  0
 37 38  1  0  0  0
 37 39  1  0  0  0
 30 31  1  0  0  0
  3  4  1  0  0  0
  8  9  1  0  0  0
M  END
> <minimizedAffinity>
-6.77258

$$$$
5ER1_0HT_E_327


 43 43  0  0  0  0  0  0  0  0999 V2000
   36.8260  -12.2583    5.7602 C   0  0  0  0  0  0  0  0  0  0  0  0
   37.7383  -12.1906    4.9240 O   0  0  0  0  0  0  0  0  0  0  0  0
   36.9843  -12.5969    7.0204 N   0  0  0  0  0  0  0  0  0  0  0  0
   36.2003  -12.5831    7.6157 H   0  0  0  0  0  0  0  0  0  0  0  0
   38.2806  -12.9937    7.5737 C   0  0  0  0  0  0  0  0  0  0  0  0
   38.6393  -14.3969    7.0817 C   0  0  0  0  0  0  0  0  0  0  0  0
   37.9234  -15.3721    7.3566 O   0  0  0  0  0  0  0  0  0  0  0  0
   39.7360  -14.4462    6.3524 N   0  0  0  0  0  0  0  0  0  0  0  0
   40.2285  -13.6099    6.1873 H   0  0  0  0  0  0  0  0  0  0  0  0
   40.2572  -15.6930    5.7744 C   0  0  0  0  0  0  0  0  0  0  0  0
   41.7570  -15.8112    6.0542 C   0  0  0  0  0  0  0  0  0  0  0  0
   42.4304  -16.7209    5.5487 O   0  0  0  0  0  0  0  0  0  0  0  0
   42.8977  -15.5219    8.0610 C   0  0  0  0  0  0  0  0  0  0  0  0
   42.3972  -14.8698    6.9026 O   0  0  0  0  0  0  0  0  0  0  0  0
   40.0380  -15.6993    4.2595 C   0  0  0  0  0  0  0  0  0  0  0  0
   38.7796  -16.4603    3.8365 C   0  0  0  0  0  0  0  0  0  0  0  0
   38.8705  -17.7993    3.4349 C   0  0  0  0  0  0  0  0  0  0  0  0
   37.5349  -15.8190    3.8530 C   0  0  0  0  0  0  0  0  0  0  0  0
   37.7176  -18.4962    3.0525 C   0  0  0  0  0  0  0  0  0  0  0  0
   36.3822  -16.5164    3.4714 C   0  0  0  0  0  0  0  0  0  0  0  0
   36.4732  -17.8549    3.0714 C   0  0  0  0  0  0  0  0  0  0  0  0
   38.2214  -12.9864    9.1007 C   0  0  0  0  0  0  0  0  0  0  0  0
   39.0543  -14.1010    9.7363 C   0  0  0  0  0  0  0  0  0  0  0  0
   38.7329  -11.6800    9.7109 C   0  0  0  0  0  0  0  0  0  0  0  0
   39.8287  -11.0190    8.8727 C   0  0  0  0  0  0  0  0  0  0  0  0
   35.3848  -11.9459    5.3759 C   0  0  0  0  0  0  0  0  0  0  0  0
   34.9109  -13.2023    4.6416 C   0  0  0  0  0  0  0  0  0  0  0  0
   33.7148  -13.8742    5.3213 C   0  0  0  0  0  0  0  0  0  0  0  0
   34.4718  -12.9275    3.2032 C   0  0  0  0  0  0  0  0  0  0  0  0
   35.3397  -10.7748    4.4834 N   0  0  0  0  0  0  0  0  0  0  0  0
   36.0377  -10.9441    3.7592 H   0  0  0  0  0  0  0  0  0  0  0  0
   35.5499   -9.5419    4.9145 C   0  0  0  0  0  0  0  0  0  0  0  0
   34.0531   -8.7637    3.1540 O   0  0  0  0  0  0  0  0  0  0  0  0
   35.2088   -8.4419    3.8995 C   0  0  0  0  0  0  0  0  0  0  0  0
   33.3204   -8.9554    3.7600 H   0  0  0  0  0  0  0  0  0  0  0  0
   36.3567   -8.1415    2.9443 C   0  0  0  0  0  0  0  0  0  0  0  0
   35.9513   -8.4323    1.5606 N   0  0  0  0  0  0  0  0  0  0  0  0
   35.1337   -7.8715    1.3210 H   0  0  0  0  0  0  0  0  0  0  0  0
   35.7216   -9.4223    1.4745 H   0  0  0  0  0  0  0  0  0  0  0  0
   36.6676   -6.6535    3.0969 C   0  0  0  0  0  0  0  0  0  0  0  0
   37.3424   -6.0543    1.8633 C   0  0  0  0  0  0  0  0  0  0  0  0
   38.8690   -6.0495    1.9607 C   0  0  0  0  0  0  0  0  0  0  0  0
   36.9370   -4.6022    1.6073 C   0  0  0  0  0  0  0  0  0  0  0  0
 33 34  1  0  0  0
 34 32  1  0  0  0
 34 36  1  0  0  0
 32 30  1  0  0  0
 36 37  1  0  0  0
 36 40  1  0  0  0
 40 41  1  0  0  0
 41 42  1  0  0  0
 41 43  1  0  0  0
 30 26  1  0  0  0
 26  1  1  0  0  0
 26 27  1  0  0  0
  1  2  2  0  0  0
  1  3  1  0  0  0
 27 28  1  0  0  0
 27 29  1  0  0  0
  3  5  1  0  0  0
  5  6  1  0  0  0
  5 22  1  0  0  0
  6  7  2  0  0  0
  6  8  1  0  0  0
 22 24  1  0  0  0
 22 23  1  0  0  0
 24 25  1  0  0  0
  8 10  1  0  0  0
 10 11  1  0  0  0
 10 15  1  0  0  0
 11 12  2  0  0  0
 11 14  1  0  0  0
 15 16  1  0  0  0
 16 17  1  0  0  0
 16 18  2  0  0  0
 17 19  2  0  0  0
 18 20  1  0  0  0
 19 21  1  0  0  0
 20 21  2  0  0  0
 14 13  1  0  0  0
 33 35  1  0  0  0
 37 38  1  0  0  0
 37 39  1  0  0  0
 30 31  1  0  0  0
  3  4  1  0  0  0
  8  9  1  0  0  0
M  END
> <minimizedAffinity>
-6.69389

$$$$
5ER1_0HT_E_327


 43 43  0  0  0  0  0  0  0  0999 V2000
   34.0599  -12.1512    3.1638 C   0  0  0  0  0  0  0  0  0  0  0  0
   33.0908  -12.0607    3.9311 O   0  0  0  0  0  0  0  0  0  0  0  0
   35.1696  -12.8045    3.4275 N   0  0  0  0  0  0  0  0  0  0  0  0
   35.8676  -12.8499    2.7347 H   0  0  0  0  0  0  0  0  0  0  0  0
   35.4087  -13.4674    4.7110 C   0  0  0  0  0  0  0  0  0  0  0  0
   36.8820  -13.3218    5.0958 C   0  0  0  0  0  0  0  0  0  0  0  0
   37.5265  -12.3094    4.7821 O   0  0  0  0  0  0  0  0  0  0  0  0
   37.3611  -14.3405    5.7812 N   0  0  0  0  0  0  0  0  0  0  0  0
   36.7611  -15.0942    5.9841 H   0  0  0  0  0  0  0  0  0  0  0  0
   38.7506  -14.4024    6.2565 C   0  0  0  0  0  0  0  0  0  0  0  0
   39.5069  -15.5073    5.5157 C   0  0  0  0  0  0  0  0  0  0  0  0
   39.4772  -15.5818    4.2788 O   0  0  0  0  0  0  0  0  0  0  0  0
   41.6205  -16.4213    5.8470 C   0  0  0  0  0  0  0  0  0  0  0  0
   40.2580  -16.4659    6.2459 O   0  0  0  0  0  0  0  0  0  0  0  0
   38.7777  -14.7086    7.7560 C   0  0  0  0  0  0  0  0  0  0  0  0
   39.1576  -13.4976    8.6108 C   0  0  0  0  0  0  0  0  0  0  0  0
   38.1679  -12.7902    9.3054 C   0  0  0  0  0  0  0  0  0  0  0  0
   40.4963  -13.0970    8.7015 C   0  0  0  0  0  0  0  0  0  0  0  0
   38.5174  -11.6850   10.0912 C   0  0  0  0  0  0  0  0  0  0  0  0
   40.8454  -11.9924    9.4880 C   0  0  0  0  0  0  0  0  0  0  0  0
   39.8564  -11.2865   10.1831 C   0  0  0  0  0  0  0  0  0  0  0  0
   35.0507  -14.9495    4.6085 C   0  0  0  0  0  0  0  0  0  0  0  0
   33.6550  -15.2658    5.1489 C   0  0  0  0  0  0  0  0  0  0  0  0
   35.0716  -15.4697    3.1699 C   0  0  0  0  0  0  0  0  0  0  0  0
   36.1501  -16.5288    2.9342 C   0  0  0  0  0  0  0  0  0  0  0  0
   34.0434  -11.4787    1.7964 C   0  0  0  0  0  0  0  0  0  0  0  0
   33.3774  -12.5074    0.8797 C   0  0  0  0  0  0  0  0  0  0  0  0
   32.7439  -11.8763   -0.3630 C   0  0  0  0  0  0  0  0  0  0  0  0
   34.3496  -13.5662    0.3590 C   0  0  0  0  0  0  0  0  0  0  0  0
   35.4196  -11.2002    1.3509 N   0  0  0  0  0  0  0  0  0  0  0  0
   36.0331  -11.5970    2.0627 H   0  0  0  0  0  0  0  0  0  0  0  0
   35.8618   -9.9735    1.1279 C   0  0  0  0  0  0  0  0  0  0  0  0
   36.7098  -10.1895    3.4038 O   0  0  0  0  0  0  0  0  0  0  0  0
   36.4584   -9.2745    2.3575 C   0  0  0  0  0  0  0  0  0  0  0  0
   37.2680  -10.9113    3.0748 H   0  0  0  0  0  0  0  0  0  0  0  0
   35.5817   -8.1428    2.8782 C   0  0  0  0  0  0  0  0  0  0  0  0
   34.8525   -8.5804    4.0783 N   0  0  0  0  0  0  0  0  0  0  0  0
   35.5187   -8.8716    4.7937 H   0  0  0  0  0  0  0  0  0  0  0  0
   34.2451   -9.3644    3.8401 H   0  0  0  0  0  0  0  0  0  0  0  0
   36.5242   -6.9925    3.2288 C   0  0  0  0  0  0  0  0  0  0  0  0
   37.1167   -6.3088    1.9970 C   0  0  0  0  0  0  0  0  0  0  0  0
   38.6444   -6.2356    2.0313 C   0  0  0  0  0  0  0  0  0  0  0  0
   36.6348   -4.8678    1.8245 C   0  0  0  0  0  0  0  0  0  0  0  0
 33 34  1  0  0  0
 34 32  1  0  0  0
 34 36  1  0  0  0
 32 30  1  0  0  0
 36 37  1  0  0  0
 36 40  1  0  0  0
 40 41  1  0  0  0
 41 42  1  0  0  0
 41 43  1  0  0  0
 30 26  1  0  0  0
 26  1  1  0  0  0
 26 27  1  0  0  0
  1  2  2  0  0  0
  1  3  1  0  0  0
 27 28  1  0  0  0
 27 29  1  0  0  0
  3  5  1  0  0  0
  5  6  1  0  0  0
  5 22  1  0  0  0
  6  7  2  0  0  0
  6  8  1  0  0  0
 22 24  1  0  0  0
 22 23  1  0  0  0
 24 25  1  0  0  0
  8 10  1  0  0  0
 10 11  1  0  0  0
 10 15  1  0  0  0
 11 12  2  0  0  0
 11 14  1  0  0  0
 15 16  1  0  0  0
 16 17  1  0  0  0
 16 18  2  0  0  0
 17 19  2  0  0  0
 18 20  1  0  0  0
 19 21  1  0  0  0
 20 21  2  0  0  0
 14 13  1  0  0  0
 33 35  1  0  0  0
 37 38  1  0  0  0
 37 39  1  0  0  0
 30 31  1  0  0  0
  3  4  1  0  0  0
  8  9  1  0  0  0
M  END
> <minimizedAffinity>
-6.60793

$$$$
5ER1_0HT_E_327


 43 43  0  0  0  0  0  0  0  0999 V2000
   34.7348  -12.0301    3.6689 C   0  0  0  0  0  0  0  0  0  0  0  0
   33.5113  -12.0352    3.8669 O   0  0  0  0  0  0  0  0  0  0  0  0
   35.4113  -11.0209    3.1672 N   0  0  0  0  0  0  0  0  0  0  0  0
   36.3890  -11.1015    3.0848 H   0  0  0  0  0  0  0  0  0  0  0  0
   34.7682   -9.7817    2.7260 C   0  0  0  0  0  0  0  0  0  0  0  0
   34.8325   -9.6864    1.2007 C   0  0  0  0  0  0  0  0  0  0  0  0
   35.6917  -10.3090    0.5580 O   0  0  0  0  0  0  0  0  0  0  0  0
   33.9034   -8.9160    0.6712 N   0  0  0  0  0  0  0  0  0  0  0  0
   33.2631   -8.4711    1.2723 H   0  0  0  0  0  0  0  0  0  0  0  0
   33.7798   -8.6910   -0.7761 C   0  0  0  0  0  0  0  0  0  0  0  0
   33.6274  -10.0298   -1.5013 C   0  0  0  0  0  0  0  0  0  0  0  0
   34.2721  -10.2742   -2.5314 O   0  0  0  0  0  0  0  0  0  0  0  0
   33.1372  -12.3031   -1.4391 C   0  0  0  0  0  0  0  0  0  0  0  0
   32.7382  -11.0142   -0.9951 O   0  0  0  0  0  0  0  0  0  0  0  0
   35.0312   -7.9855   -1.3046 C   0  0  0  0  0  0  0  0  0  0  0  0
   35.0204   -6.4754   -1.0576 C   0  0  0  0  0  0  0  0  0  0  0  0
   36.1347   -5.8499   -0.4833 C   0  0  0  0  0  0  0  0  0  0  0  0
   33.8970   -5.7166   -1.4081 C   0  0  0  0  0  0  0  0  0  0  0  0
   36.1255   -4.4671   -0.2621 C   0  0  0  0  0  0  0  0  0  0  0  0
   33.8886   -4.3340   -1.1875 C   0  0  0  0  0  0  0  0  0  0  0  0
   35.0026   -3.7089   -0.6148 C   0  0  0  0  0  0  0  0  0  0  0  0
   35.4761   -8.5767    3.3442 C   0  0  0  0  0  0  0  0  0  0  0  0
   36.0515   -8.8686    4.7312 C   0  0  0  0  0  0  0  0  0  0  0  0
   36.6498   -8.0768    2.4997 C   0  0  0  0  0  0  0  0  0  0  0  0
   37.0660   -6.6457    2.8446 C   0  0  0  0  0  0  0  0  0  0  0  0
   35.5883  -13.2481    4.0007 C   0  0  0  0  0  0  0  0  0  0  0  0
   34.5720  -14.3728    4.2119 C   0  0  0  0  0  0  0  0  0  0  0  0
   34.8959  -15.6290    3.3989 C   0  0  0  0  0  0  0  0  0  0  0  0
   34.4782  -14.8318    5.6672 C   0  0  0  0  0  0  0  0  0  0  0  0
   36.3597  -13.0073    5.2323 N   0  0  0  0  0  0  0  0  0  0  0  0
   35.9899  -12.1456    5.6337 H   0  0  0  0  0  0  0  0  0  0  0  0
   37.6763  -12.8777    5.2345 C   0  0  0  0  0  0  0  0  0  0  0  0
   37.5968  -14.3463    7.1793 O   0  0  0  0  0  0  0  0  0  0  0  0
   38.3652  -13.3631    6.5176 C   0  0  0  0  0  0  0  0  0  0  0  0
   37.3975  -15.0691    6.5640 H   0  0  0  0  0  0  0  0  0  0  0  0
   38.6760  -12.2301    7.4873 C   0  0  0  0  0  0  0  0  0  0  0  0
   38.0539  -10.9815    7.0208 N   0  0  0  0  0  0  0  0  0  0  0  0
   37.0457  -11.1135    6.9400 H   0  0  0  0  0  0  0  0  0  0  0  0
   38.4379  -10.7299    6.1100 H   0  0  0  0  0  0  0  0  0  0  0  0
   38.0823  -12.6392    8.8343 C   0  0  0  0  0  0  0  0  0  0  0  0
   39.0947  -12.5761    9.9776 C   0  0  0  0  0  0  0  0  0  0  0  0
   39.7847  -11.2154   10.0899 C   0  0  0  0  0  0  0  0  0  0  0  0
   40.2192  -13.6027    9.8363 C   0  0  0  0  0  0  0  0  0  0  0  0
 33 34  1  0  0  0
 34 32  1  0  0  0
 34 36  1  0  0  0
 32 30  1  0  0  0
 36 37  1  0  0  0
 36 40  1  0  0  0
 40 41  1  0  0  0
 41 42  1  0  0  0
 41 43  1  0  0  0
 30 26  1  0  0  0
 26  1  1  0  0  0
 26 27  1  0  0  0
  1  2  2  0  0  0
  1  3  1  0  0  0
 27 28  1  0  0  0
 27 29  1  0  0  0
  3  5  1  0  0  0
  5  6  1  0  0  0
  5 22  1  0  0  0
  6  7  2  0  0  0
  6  8  1  0  0  0
 22 24  1  0  0  0
 22 23  1  0  0  0
 24 25  1  0  0  0
  8 10  1  0  0  0
 10 11  1  0  0  0
 10 15  1  0  0  0
 11 12  2  0  0  0
 11 14  1  0  0  0
 15 16  1  0  0  0
 16 17  1  0  0  0
 16 18  2  0  0  0
 17 19  2  0  0  0
 18 20  1  0  0  0
 19 21  1  0  0  0
 20 21  2  0  0  0
 14 13  1  0  0  0
 33 35  1  0  0  0
 37 38  1  0  0  0
 37 39  1  0  0  0
 30 31  1  0  0  0
  3  4  1  0  0  0
  8  9  1  0  0  0
M  END
> <minimizedAffinity>
-6.59335

$$$$
