5EHV_5ON_A_301


 25 26  0  0  0  0  0  0  0  0999 V2000
   16.2210    3.9047   11.9553 O   0  0  0  0  0  0  0  0  0  0  0  0
   18.4946    1.1938   11.0422 C   0  0  0  0  0  0  0  0  0  0  0  0
   17.3422    1.8485   11.4430 C   0  0  0  0  0  0  0  0  0  0  0  0
   17.3615    3.2293   11.5547 C   0  0  0  0  0  0  0  0  0  0  0  0
   18.4995    3.9615   11.2561 C   0  0  0  0  0  0  0  0  0  0  0  0
   19.6384    3.2976   10.8443 C   0  0  0  0  0  0  0  0  0  0  0  0
   19.6356    1.9121   10.7426 C   0  0  0  0  0  0  0  0  0  0  0  0
   17.5284   -1.0083   11.5370 C   0  0  0  0  0  0  0  0  0  0  0  0
   18.4960   -0.3081   10.9202 C   0  0  0  0  0  0  0  0  0  0  0  0
   16.4304   -3.1461   11.4419 O   0  0  0  0  0  0  0  0  0  0  0  0
   17.5243   -2.5186   11.4311 C   0  0  0  0  0  0  0  0  0  0  0  0
   18.6153   -3.1445   11.3520 O   0  0  0  0  0  0  0  0  0  0  0  0
   15.6216   -2.6766   11.5008 H   0  0  0  0  0  0  0  0  0  0  0  0
   16.3827    5.0661   12.7675 C   0  0  0  0  0  0  0  0  0  0  0  0
   15.7274    4.7425   14.0841 C   0  0  0  0  0  0  0  0  0  0  0  0
   15.0387    5.7243   14.7879 C   0  0  0  0  0  0  0  0  0  0  0  0
   14.4790    5.4288   16.0015 C   0  0  0  0  0  0  0  0  0  0  0  0
   14.5608    4.1544   16.5156 C   0  0  0  0  0  0  0  0  0  0  0  0
   15.2252    3.1526   15.8316 C   0  0  0  0  0  0  0  0  0  0  0  0
   15.7993    3.4528   14.6042 C   0  0  0  0  0  0  0  0  0  0  0  0
   15.3253    1.7335   16.3922 C   0  0  0  0  0  0  0  0  0  0  0  0
   16.6298    1.0555   15.9809 C   0  0  0  0  0  0  0  0  0  0  0  0
   17.7409    1.4882   16.4547 O   0  0  0  0  0  0  0  0  0  0  0  0
   16.6273    0.1029   15.1297 O   0  0  0  0  0  0  0  0  0  0  0  0
   17.7435    2.1868   17.0791 H   0  0  0  0  0  0  0  0  0  0  0  0
 12 11  2  0  0  0
 11 10  1  0  0  0
 11  8  1  0  0  0
  8  9  2  0  0  0
  9  2  1  0  0  0
  2  3  2  0  0  0
  2  7  1  0  0  0
  3  4  1  0  0  0
 14 15  1  0  0  0
 14  1  1  0  0  0
  7  6  2  0  0  0
 16 15  2  0  0  0
 16 17  1  0  0  0
 15 20  1  0  0  0
  4  1  1  0  0  0
  4  5  2  0  0  0
 24 22  2  0  0  0
 17 18  2  0  0  0
 20 19  2  0  0  0
  6  5  1  0  0  0
 18 19  1  0  0  0
 19 21  1  0  0  0
 22 21  1  0  0  0
 22 23  1  0  0  0
 10 13  1  0  0  0
 23 25  1  0  0  0
M  END
> <minimizedAffinity>
-8.19531

$$$$
5EHV_5ON_A_301


 25 26  0  0  0  0  0  0  0  0999 V2000
   19.0423    6.5196   12.8582 O   0  0  0  0  0  0  0  0  0  0  0  0
   19.9564    3.5390   10.9522 C   0  0  0  0  0  0  0  0  0  0  0  0
   19.1913    4.4425   11.6704 C   0  0  0  0  0  0  0  0  0  0  0  0
   19.7879    5.6028   12.1364 C   0  0  0  0  0  0  0  0  0  0  0  0
   21.1213    5.8811   11.8816 C   0  0  0  0  0  0  0  0  0  0  0  0
   21.8700    4.9783   11.1523 C   0  0  0  0  0  0  0  0  0  0  0  0
   21.2866    3.8044   10.6923 C   0  0  0  0  0  0  0  0  0  0  0  0
   18.5127    1.5768   11.2567 C   0  0  0  0  0  0  0  0  0  0  0  0
   19.3278    2.2683   10.4416 C   0  0  0  0  0  0  0  0  0  0  0  0
   17.8286    0.0579    9.5219 O   0  0  0  0  0  0  0  0  0  0  0  0
   17.8829    0.2927   10.7597 C   0  0  0  0  0  0  0  0  0  0  0  0
   17.3978   -0.5277   11.5843 O   0  0  0  0  0  0  0  0  0  0  0  0
   18.1905    0.6707    8.9124 H   0  0  0  0  0  0  0  0  0  0  0  0
   18.7939    6.2427   14.2353 C   0  0  0  0  0  0  0  0  0  0  0  0
   17.4116    5.6483   14.2931 C   0  0  0  0  0  0  0  0  0  0  0  0
   16.3379    6.3040   13.7006 C   0  0  0  0  0  0  0  0  0  0  0  0
   15.0795    5.7735   13.7916 C   0  0  0  0  0  0  0  0  0  0  0  0
   14.8728    4.5741   14.4350 C   0  0  0  0  0  0  0  0  0  0  0  0
   15.9232    3.8905   15.0202 C   0  0  0  0  0  0  0  0  0  0  0  0
   17.1987    4.4310   14.9348 C   0  0  0  0  0  0  0  0  0  0  0  0
   15.7073    2.5587   15.7396 C   0  0  0  0  0  0  0  0  0  0  0  0
   16.8279    1.5667   15.4381 C   0  0  0  0  0  0  0  0  0  0  0  0
   16.9237    1.0637   14.2617 O   0  0  0  0  0  0  0  0  0  0  0  0
   17.6310    1.1935   16.3587 O   0  0  0  0  0  0  0  0  0  0  0  0
   16.3350    1.3370   13.5859 H   0  0  0  0  0  0  0  0  0  0  0  0
 12 11  2  0  0  0
 11 10  1  0  0  0
 11  8  1  0  0  0
  8  9  2  0  0  0
  9  2  1  0  0  0
  2  3  2  0  0  0
  2  7  1  0  0  0
  3  4  1  0  0  0
 14 15  1  0  0  0
 14  1  1  0  0  0
  7  6  2  0  0  0
 16 15  2  0  0  0
 16 17  1  0  0  0
 15 20  1  0  0  0
  4  1  1  0  0  0
  4  5  2  0  0  0
 24 22  2  0  0  0
 17 18  2  0  0  0
 20 19  2  0  0  0
  6  5  1  0  0  0
 18 19  1  0  0  0
 19 21  1  0  0  0
 22 21  1  0  0  0
 22 23  1  0  0  0
 10 13  1  0  0  0
 23 25  1  0  0  0
M  END
> <minimizedAffinity>
-8.07622

$$$$
5EHV_5ON_A_301


 25 26  0  0  0  0  0  0  0  0999 V2000
   16.0358    3.8542   11.7302 O   0  0  0  0  0  0  0  0  0  0  0  0
   19.3668    2.7043   10.7636 C   0  0  0  0  0  0  0  0  0  0  0  0
   18.3323    3.5573   11.1095 C   0  0  0  0  0  0  0  0  0  0  0  0
   17.0852    3.0198   11.3838 C   0  0  0  0  0  0  0  0  0  0  0  0
   16.8624    1.6529   11.3369 C   0  0  0  0  0  0  0  0  0  0  0  0
   17.9060    0.8117   11.0040 C   0  0  0  0  0  0  0  0  0  0  0  0
   19.1573    1.3401   10.7126 C   0  0  0  0  0  0  0  0  0  0  0  0
   21.2563    4.1799   11.2927 C   0  0  0  0  0  0  0  0  0  0  0  0
   20.7293    3.2694   10.4558 C   0  0  0  0  0  0  0  0  0  0  0  0
   23.5144    4.7652   11.8785 O   0  0  0  0  0  0  0  0  0  0  0  0
   22.6200    4.7635   10.9894 C   0  0  0  0  0  0  0  0  0  0  0  0
   22.8500    5.2631    9.8555 O   0  0  0  0  0  0  0  0  0  0  0  0
   23.3390    4.3927   12.7202 H   0  0  0  0  0  0  0  0  0  0  0  0
   16.3310    5.0092   12.5135 C   0  0  0  0  0  0  0  0  0  0  0  0
   15.7107    4.7612   13.8630 C   0  0  0  0  0  0  0  0  0  0  0  0
   15.0407    5.7820   14.5283 C   0  0  0  0  0  0  0  0  0  0  0  0
   14.5134    5.5561   15.7710 C   0  0  0  0  0  0  0  0  0  0  0  0
   14.6088    4.3125   16.3537 C   0  0  0  0  0  0  0  0  0  0  0  0
   15.2551    3.2729   15.7100 C   0  0  0  0  0  0  0  0  0  0  0  0
   15.7966    3.5027   14.4529 C   0  0  0  0  0  0  0  0  0  0  0  0
   15.3702    1.8875   16.3467 C   0  0  0  0  0  0  0  0  0  0  0  0
   16.6692    1.1906   15.9499 C   0  0  0  0  0  0  0  0  0  0  0  0
   17.7894    1.6718   16.3498 O   0  0  0  0  0  0  0  0  0  0  0  0
   16.6513    0.1711   15.1804 O   0  0  0  0  0  0  0  0  0  0  0  0
   17.8033    2.4196   16.9142 H   0  0  0  0  0  0  0  0  0  0  0  0
 12 11  2  0  0  0
 11 10  1  0  0  0
 11  8  1  0  0  0
  8  9  2  0  0  0
  9  2  1  0  0  0
  2  3  2  0  0  0
  2  7  1  0  0  0
  3  4  1  0  0  0
 14 15  1  0  0  0
 14  1  1  0  0  0
  7  6  2  0  0  0
 16 15  2  0  0  0
 16 17  1  0  0  0
 15 20  1  0  0  0
  4  1  1  0  0  0
  4  5  2  0  0  0
 24 22  2  0  0  0
 17 18  2  0  0  0
 20 19  2  0  0  0
  6  5  1  0  0  0
 18 19  1  0  0  0
 19 21  1  0  0  0
 22 21  1  0  0  0
 22 23  1  0  0  0
 10 13  1  0  0  0
 23 25  1  0  0  0
M  END
> <minimizedAffinity>
-8.06541

$$$$
5EHV_5ON_A_301


 25 26  0  0  0  0  0  0  0  0999 V2000
   18.6842    5.7237   13.9107 O   0  0  0  0  0  0  0  0  0  0  0  0
   15.3925    4.5754   15.0054 C   0  0  0  0  0  0  0  0  0  0  0  0
   16.7697    4.6773   14.9044 C   0  0  0  0  0  0  0  0  0  0  0  0
   17.3096    5.6056   14.0290 C   0  0  0  0  0  0  0  0  0  0  0  0
   16.5013    6.4399   13.2733 C   0  0  0  0  0  0  0  0  0  0  0  0
   15.1293    6.3376   13.3933 C   0  0  0  0  0  0  0  0  0  0  0  0
   14.5761    5.4006   14.2570 C   0  0  0  0  0  0  0  0  0  0  0  0
   15.5170    2.5012   16.3129 C   0  0  0  0  0  0  0  0  0  0  0  0
   14.7855    3.5680   15.9474 C   0  0  0  0  0  0  0  0  0  0  0  0
   15.6596    0.6320   17.8197 O   0  0  0  0  0  0  0  0  0  0  0  0
   14.9152    1.4760   17.2506 C   0  0  0  0  0  0  0  0  0  0  0  0
   13.6700    1.4578   17.4437 O   0  0  0  0  0  0  0  0  0  0  0  0
   16.5849    0.6492   17.6733 H   0  0  0  0  0  0  0  0  0  0  0  0
   19.2195    6.0430   12.6276 C   0  0  0  0  0  0  0  0  0  0  0  0
   19.4288    4.7255   11.9291 C   0  0  0  0  0  0  0  0  0  0  0  0
   20.5040    4.5498   11.0650 C   0  0  0  0  0  0  0  0  0  0  0  0
   20.6633    3.3605   10.4064 C   0  0  0  0  0  0  0  0  0  0  0  0
   19.7864    2.3213   10.6211 C   0  0  0  0  0  0  0  0  0  0  0  0
   18.7167    2.4603   11.4868 C   0  0  0  0  0  0  0  0  0  0  0  0
   18.5499    3.6682   12.1498 C   0  0  0  0  0  0  0  0  0  0  0  0
   17.7341    1.3149   11.7328 C   0  0  0  0  0  0  0  0  0  0  0  0
   16.5658    1.3535   10.7508 C   0  0  0  0  0  0  0  0  0  0  0  0
   15.5437    2.0820   11.0168 O   0  0  0  0  0  0  0  0  0  0  0  0
   16.5747    0.6261    9.7007 O   0  0  0  0  0  0  0  0  0  0  0  0
   15.5364    2.6158   11.7868 H   0  0  0  0  0  0  0  0  0  0  0  0
 12 11  2  0  0  0
 11 10  1  0  0  0
 11  8  1  0  0  0
  8  9  2  0  0  0
  9  2  1  0  0  0
  2  3  2  0  0  0
  2  7  1  0  0  0
  3  4  1  0  0  0
 14 15  1  0  0  0
 14  1  1  0  0  0
  7  6  2  0  0  0
 16 15  2  0  0  0
 16 17  1  0  0  0
 15 20  1  0  0  0
  4  1  1  0  0  0
  4  5  2  0  0  0
 24 22  2  0  0  0
 17 18  2  0  0  0
 20 19  2  0  0  0
  6  5  1  0  0  0
 18 19  1  0  0  0
 19 21  1  0  0  0
 22 21  1  0  0  0
 22 23  1  0  0  0
 10 13  1  0  0  0
 23 25  1  0  0  0
M  END
> <minimizedAffinity>
-7.81096

$$$$
5EHV_5ON_A_301


 25 26  0  0  0  0  0  0  0  0999 V2000
   17.6082    6.3425   11.5311 O   0  0  0  0  0  0  0  0  0  0  0  0
   15.5902    4.9222   14.2261 C   0  0  0  0  0  0  0  0  0  0  0  0
   16.6596    5.1359   13.3728 C   0  0  0  0  0  0  0  0  0  0  0  0
   16.5517    6.1129   12.3964 C   0  0  0  0  0  0  0  0  0  0  0  0
   15.4085    6.8862   12.2726 C   0  0  0  0  0  0  0  0  0  0  0  0
   14.3541    6.6724   13.1386 C   0  0  0  0  0  0  0  0  0  0  0  0
   14.4449    5.6858   14.1124 C   0  0  0  0  0  0  0  0  0  0  0  0
   16.6998    2.9801   15.2382 C   0  0  0  0  0  0  0  0  0  0  0  0
   15.6853    3.8605   15.2910 C   0  0  0  0  0  0  0  0  0  0  0  0
   17.5469    0.9028   16.1055 O   0  0  0  0  0  0  0  0  0  0  0  0
   16.8011    1.9018   16.2961 C   0  0  0  0  0  0  0  0  0  0  0  0
   16.1245    1.9970   17.3551 O   0  0  0  0  0  0  0  0  0  0  0  0
   18.0481    0.8362   15.3166 H   0  0  0  0  0  0  0  0  0  0  0  0
   17.6224    5.6368   10.2916 C   0  0  0  0  0  0  0  0  0  0  0  0
   18.1240    4.2533   10.6111 C   0  0  0  0  0  0  0  0  0  0  0  0
   19.4716    4.0370   10.8771 C   0  0  0  0  0  0  0  0  0  0  0  0
   19.9229    2.7697   11.1292 C   0  0  0  0  0  0  0  0  0  0  0  0
   19.0452    1.7095   11.1581 C   0  0  0  0  0  0  0  0  0  0  0  0
   17.6967    1.8954   10.9134 C   0  0  0  0  0  0  0  0  0  0  0  0
   17.2389    3.1790   10.6505 C   0  0  0  0  0  0  0  0  0  0  0  0
   16.7115    0.7264   10.9402 C   0  0  0  0  0  0  0  0  0  0  0  0
   17.0617   -0.2814   12.0322 C   0  0  0  0  0  0  0  0  0  0  0  0
   17.5054   -1.4390   11.7017 O   0  0  0  0  0  0  0  0  0  0  0  0
   16.8637   -0.0017   13.2628 O   0  0  0  0  0  0  0  0  0  0  0  0
   17.6509   -1.6448   10.7993 H   0  0  0  0  0  0  0  0  0  0  0  0
 12 11  2  0  0  0
 11 10  1  0  0  0
 11  8  1  0  0  0
  8  9  2  0  0  0
  9  2  1  0  0  0
  2  3  2  0  0  0
  2  7  1  0  0  0
  3  4  1  0  0  0
 14 15  1  0  0  0
 14  1  1  0  0  0
  7  6  2  0  0  0
 16 15  2  0  0  0
 16 17  1  0  0  0
 15 20  1  0  0  0
  4  1  1  0  0  0
  4  5  2  0  0  0
 24 22  2  0  0  0
 17 18  2  0  0  0
 20 19  2  0  0  0
  6  5  1  0  0  0
 18 19  1  0  0  0
 19 21  1  0  0  0
 22 21  1  0  0  0
 22 23  1  0  0  0
 10 13  1  0  0  0
 23 25  1  0  0  0
M  END
> <minimizedAffinity>
-7.80334

$$$$
5EHV_5ON_A_301


 25 26  0  0  0  0  0  0  0  0999 V2000
   15.2296    6.5809   11.7602 O   0  0  0  0  0  0  0  0  0  0  0  0
   17.3237    5.0619   14.3409 C   0  0  0  0  0  0  0  0  0  0  0  0
   16.2618    5.2609   13.4748 C   0  0  0  0  0  0  0  0  0  0  0  0
   16.2817    6.3614   12.6334 C   0  0  0  0  0  0  0  0  0  0  0  0
   17.3464    7.2484   12.6307 C   0  0  0  0  0  0  0  0  0  0  0  0
   18.4058    7.0312   13.4898 C   0  0  0  0  0  0  0  0  0  0  0  0
   18.3904    5.9392   14.3484 C   0  0  0  0  0  0  0  0  0  0  0  0
   16.5931    2.7937   14.9315 C   0  0  0  0  0  0  0  0  0  0  0  0
   17.3184    3.8742   15.2682 C   0  0  0  0  0  0  0  0  0  0  0  0
   17.6546    1.1045   16.2748 O   0  0  0  0  0  0  0  0  0  0  0  0
   16.5707    1.5975   15.8594 C   0  0  0  0  0  0  0  0  0  0  0  0
   15.4693    1.0871   16.1977 O   0  0  0  0  0  0  0  0  0  0  0  0
   18.4712    1.4873   16.0207 H   0  0  0  0  0  0  0  0  0  0  0  0
   14.2638    7.5697   12.1126 C   0  0  0  0  0  0  0  0  0  0  0  0
   14.2088    8.5246   10.9496 C   0  0  0  0  0  0  0  0  0  0  0  0
   15.0174    9.6557   10.9285 C   0  0  0  0  0  0  0  0  0  0  0  0
   14.9321   10.5366    9.8844 C   0  0  0  0  0  0  0  0  0  0  0  0
   14.0765   10.2925    8.8339 C   0  0  0  0  0  0  0  0  0  0  0  0
   13.2714    9.1680    8.8187 C   0  0  0  0  0  0  0  0  0  0  0  0
   13.3518    8.2777    9.8803 C   0  0  0  0  0  0  0  0  0  0  0  0
   12.3152    8.8860    7.6593 C   0  0  0  0  0  0  0  0  0  0  0  0
   11.8479   10.1747    6.9875 C   0  0  0  0  0  0  0  0  0  0  0  0
   12.2802   10.4662    5.8152 O   0  0  0  0  0  0  0  0  0  0  0  0
   11.0788   10.9874    7.6039 O   0  0  0  0  0  0  0  0  0  0  0  0
   12.8443    9.8706    5.3624 H   0  0  0  0  0  0  0  0  0  0  0  0
 12 11  2  0  0  0
 11 10  1  0  0  0
 11  8  1  0  0  0
  8  9  2  0  0  0
  9  2  1  0  0  0
  2  3  2  0  0  0
  2  7  1  0  0  0
  3  4  1  0  0  0
 14 15  1  0  0  0
 14  1  1  0  0  0
  7  6  2  0  0  0
 16 15  2  0  0  0
 16 17  1  0  0  0
 15 20  1  0  0  0
  4  1  1  0  0  0
  4  5  2  0  0  0
 24 22  2  0  0  0
 17 18  2  0  0  0
 20 19  2  0  0  0
  6  5  1  0  0  0
 18 19  1  0  0  0
 19 21  1  0  0  0
 22 21  1  0  0  0
 22 23  1  0  0  0
 10 13  1  0  0  0
 23 25  1  0  0  0
M  END
> <minimizedAffinity>
-7.23530

$$$$
5EHV_5ON_A_301


 25 26  0  0  0  0  0  0  0  0999 V2000
   16.3687    5.0199   10.3567 O   0  0  0  0  0  0  0  0  0  0  0  0
   18.8467    2.3690   10.7863 C   0  0  0  0  0  0  0  0  0  0  0  0
   17.6227    3.0156   10.7539 C   0  0  0  0  0  0  0  0  0  0  0  0
   17.5817    4.3529   10.3943 C   0  0  0  0  0  0  0  0  0  0  0  0
   18.7330    5.0434   10.0510 C   0  0  0  0  0  0  0  0  0  0  0  0
   19.9460    4.3834   10.0741 C   0  0  0  0  0  0  0  0  0  0  0  0
   20.0016    3.0464   10.4471 C   0  0  0  0  0  0  0  0  0  0  0  0
   17.8285    0.1448   10.9943 C   0  0  0  0  0  0  0  0  0  0  0  0
   18.9135    0.9162   11.1804 C   0  0  0  0  0  0  0  0  0  0  0  0
   18.9884   -1.9099   11.4609 O   0  0  0  0  0  0  0  0  0  0  0  0
   17.8788   -1.3142   11.3958 C   0  0  0  0  0  0  0  0  0  0  0  0
   16.8095   -1.9332   11.6446 O   0  0  0  0  0  0  0  0  0  0  0  0
   19.7809   -1.4458   11.2751 H   0  0  0  0  0  0  0  0  0  0  0  0
   16.2895    6.2987   10.9838 C   0  0  0  0  0  0  0  0  0  0  0  0
   16.6778    6.0770   12.4217 C   0  0  0  0  0  0  0  0  0  0  0  0
   17.5469    6.9552   13.0597 C   0  0  0  0  0  0  0  0  0  0  0  0
   17.9226    6.7232   14.3553 C   0  0  0  0  0  0  0  0  0  0  0  0
   17.4170    5.6450   15.0459 C   0  0  0  0  0  0  0  0  0  0  0  0
   16.5383    4.7630   14.4435 C   0  0  0  0  0  0  0  0  0  0  0  0
   16.1621    4.9931   13.1276 C   0  0  0  0  0  0  0  0  0  0  0  0
   15.9709    3.5603   15.1984 C   0  0  0  0  0  0  0  0  0  0  0  0
   16.9549    2.3934   15.2210 C   0  0  0  0  0  0  0  0  0  0  0  0
   17.0693    1.6461   14.1844 O   0  0  0  0  0  0  0  0  0  0  0  0
   17.6192    2.1235   16.2783 O   0  0  0  0  0  0  0  0  0  0  0  0
   16.5824    1.8434   13.4085 H   0  0  0  0  0  0  0  0  0  0  0  0
 12 11  2  0  0  0
 11 10  1  0  0  0
 11  8  1  0  0  0
  8  9  2  0  0  0
  9  2  1  0  0  0
  2  3  2  0  0  0
  2  7  1  0  0  0
  3  4  1  0  0  0
 14 15  1  0  0  0
 14  1  1  0  0  0
  7  6  2  0  0  0
 16 15  2  0  0  0
 16 17  1  0  0  0
 15 20  1  0  0  0
  4  1  1  0  0  0
  4  5  2  0  0  0
 24 22  2  0  0  0
 17 18  2  0  0  0
 20 19  2  0  0  0
  6  5  1  0  0  0
 18 19  1  0  0  0
 19 21  1  0  0  0
 22 21  1  0  0  0
 22 23  1  0  0  0
 10 13  1  0  0  0
 23 25  1  0  0  0
M  END
> <minimizedAffinity>
-7.07315

$$$$
5EHV_5ON_A_301


 25 26  0  0  0  0  0  0  0  0999 V2000
   19.4480    4.6867   13.5579 O   0  0  0  0  0  0  0  0  0  0  0  0
   21.5194    4.6565   10.5477 C   0  0  0  0  0  0  0  0  0  0  0  0
   21.1637    4.7304   11.8839 C   0  0  0  0  0  0  0  0  0  0  0  0
   19.8266    4.6142   12.2279 C   0  0  0  0  0  0  0  0  0  0  0  0
   18.8498    4.4078   11.2670 C   0  0  0  0  0  0  0  0  0  0  0  0
   19.2191    4.3222    9.9389 C   0  0  0  0  0  0  0  0  0  0  0  0
   20.5550    4.4518    9.5804 C   0  0  0  0  0  0  0  0  0  0  0  0
   23.3837    4.1983    9.0174 C   0  0  0  0  0  0  0  0  0  0  0  0
   22.9676    4.7864   10.1523 C   0  0  0  0  0  0  0  0  0  0  0  0
   25.4989    3.2722    8.3444 O   0  0  0  0  0  0  0  0  0  0  0  0
   24.8385    4.3122    8.6140 C   0  0  0  0  0  0  0  0  0  0  0  0
   25.3894    5.4447    8.5680 O   0  0  0  0  0  0  0  0  0  0  0  0
   25.0852    2.4322    8.3799 H   0  0  0  0  0  0  0  0  0  0  0  0
   18.7365    5.8458   13.9879 C   0  0  0  0  0  0  0  0  0  0  0  0
   17.3379    5.3801   14.2954 C   0  0  0  0  0  0  0  0  0  0  0  0
   16.2419    6.1545   13.9311 C   0  0  0  0  0  0  0  0  0  0  0  0
   14.9769    5.7397   14.2490 C   0  0  0  0  0  0  0  0  0  0  0  0
   14.7778    4.5407   14.8955 C   0  0  0  0  0  0  0  0  0  0  0  0
   15.8468    3.7409   15.2564 C   0  0  0  0  0  0  0  0  0  0  0  0
   17.1306    4.1639   14.9410 C   0  0  0  0  0  0  0  0  0  0  0  0
   15.6399    2.4081   15.9767 C   0  0  0  0  0  0  0  0  0  0  0  0
   16.7031    1.3847   15.5856 C   0  0  0  0  0  0  0  0  0  0  0  0
   17.7170    1.2063   16.3512 O   0  0  0  0  0  0  0  0  0  0  0  0
   16.6191    0.7500   14.4801 O   0  0  0  0  0  0  0  0  0  0  0  0
   17.7793    1.6715   17.1622 H   0  0  0  0  0  0  0  0  0  0  0  0
 12 11  2  0  0  0
 11 10  1  0  0  0
 11  8  1  0  0  0
  8  9  2  0  0  0
  9  2  1  0  0  0
  2  3  2  0  0  0
  2  7  1  0  0  0
  3  4  1  0  0  0
 14 15  1  0  0  0
 14  1  1  0  0  0
  7  6  2  0  0  0
 16 15  2  0  0  0
 16 17  1  0  0  0
 15 20  1  0  0  0
  4  1  1  0  0  0
  4  5  2  0  0  0
 24 22  2  0  0  0
 17 18  2  0  0  0
 20 19  2  0  0  0
  6  5  1  0  0  0
 18 19  1  0  0  0
 19 21  1  0  0  0
 22 21  1  0  0  0
 22 23  1  0  0  0
 10 13  1  0  0  0
 23 25  1  0  0  0
M  END
> <minimizedAffinity>
-7.02672

$$$$
5EHV_5ON_A_301


 25 26  0  0  0  0  0  0  0  0999 V2000
   15.9305    0.4743   15.6820 O   0  0  0  0  0  0  0  0  0  0  0  0
   14.8189    3.9427   15.9776 C   0  0  0  0  0  0  0  0  0  0  0  0
   15.3455    2.7855   15.4290 C   0  0  0  0  0  0  0  0  0  0  0  0
   15.4063    1.6424   16.2096 C   0  0  0  0  0  0  0  0  0  0  0  0
   14.9354    1.6328   17.5128 C   0  0  0  0  0  0  0  0  0  0  0  0
   14.3999    2.7898   18.0437 C   0  0  0  0  0  0  0  0  0  0  0  0
   14.3469    3.9461   17.2756 C   0  0  0  0  0  0  0  0  0  0  0  0
   15.2150    5.1666   13.8865 C   0  0  0  0  0  0  0  0  0  0  0  0
   14.7492    5.1980   15.1471 C   0  0  0  0  0  0  0  0  0  0  0  0
   16.2304    6.9603   12.6471 O   0  0  0  0  0  0  0  0  0  0  0  0
   15.1606    6.4239   13.0448 C   0  0  0  0  0  0  0  0  0  0  0  0
   14.0467    6.9407   12.7611 O   0  0  0  0  0  0  0  0  0  0  0  0
   17.0563    6.5727   12.8604 H   0  0  0  0  0  0  0  0  0  0  0  0
   17.2333    0.5281   15.1037 C   0  0  0  0  0  0  0  0  0  0  0  0
   17.0198    0.6459   13.6177 C   0  0  0  0  0  0  0  0  0  0  0  0
   16.9351   -0.4941   12.8260 C   0  0  0  0  0  0  0  0  0  0  0  0
   16.7786   -0.3746   11.4715 C   0  0  0  0  0  0  0  0  0  0  0  0
   16.6669    0.8677   10.8891 C   0  0  0  0  0  0  0  0  0  0  0  0
   16.7312    2.0195   11.6521 C   0  0  0  0  0  0  0  0  0  0  0  0
   16.8971    1.8999   13.0249 C   0  0  0  0  0  0  0  0  0  0  0  0
   16.6107    3.4056   11.0178 C   0  0  0  0  0  0  0  0  0  0  0  0
   17.9780    4.0538   10.8152 C   0  0  0  0  0  0  0  0  0  0  0  0
   18.2391    5.1675   11.3963 O   0  0  0  0  0  0  0  0  0  0  0  0
   18.8376    3.5268   10.0309 O   0  0  0  0  0  0  0  0  0  0  0  0
   17.6091    5.5546   11.9717 H   0  0  0  0  0  0  0  0  0  0  0  0
 12 11  2  0  0  0
 11 10  1  0  0  0
 11  8  1  0  0  0
  8  9  2  0  0  0
  9  2  1  0  0  0
  2  3  2  0  0  0
  2  7  1  0  0  0
  3  4  1  0  0  0
 14 15  1  0  0  0
 14  1  1  0  0  0
  7  6  2  0  0  0
 16 15  2  0  0  0
 16 17  1  0  0  0
 15 20  1  0  0  0
  4  1  1  0  0  0
  4  5  2  0  0  0
 24 22  2  0  0  0
 17 18  2  0  0  0
 20 19  2  0  0  0
  6  5  1  0  0  0
 18 19  1  0  0  0
 19 21  1  0  0  0
 22 21  1  0  0  0
 22 23  1  0  0  0
 10 13  1  0  0  0
 23 25  1  0  0  0
M  END
> <minimizedAffinity>
-7.01683

$$$$
5EHV_5ON_A_301


 25 26  0  0  0  0  0  0  0  0999 V2000
   17.7820    6.7131   13.1110 O   0  0  0  0  0  0  0  0  0  0  0  0
   16.9416    3.5196   14.6754 C   0  0  0  0  0  0  0  0  0  0  0  0
   17.2512    4.8624   14.5394 C   0  0  0  0  0  0  0  0  0  0  0  0
   17.4695    5.3736   13.2703 C   0  0  0  0  0  0  0  0  0  0  0  0
   17.3653    4.5746   12.1429 C   0  0  0  0  0  0  0  0  0  0  0  0
   17.0424    3.2400   12.2910 C   0  0  0  0  0  0  0  0  0  0  0  0
   16.8356    2.7127   13.5595 C   0  0  0  0  0  0  0  0  0  0  0  0
   15.5572    2.2870   16.2852 C   0  0  0  0  0  0  0  0  0  0  0  0
   16.7062    2.9428   16.0474 C   0  0  0  0  0  0  0  0  0  0  0  0
   15.4744    0.4795   17.8698 O   0  0  0  0  0  0  0  0  0  0  0  0
   15.3036    1.7117   17.6625 C   0  0  0  0  0  0  0  0  0  0  0  0
   14.9039    2.4632   18.5919 O   0  0  0  0  0  0  0  0  0  0  0  0
   15.7717   -0.0755   17.1759 H   0  0  0  0  0  0  0  0  0  0  0  0
   18.2644    7.1400   11.8383 C   0  0  0  0  0  0  0  0  0  0  0  0
   17.2859    8.1768   11.3535 C   0  0  0  0  0  0  0  0  0  0  0  0
   17.6999    9.4852   11.1291 C   0  0  0  0  0  0  0  0  0  0  0  0
   16.7940   10.4281   10.7246 C   0  0  0  0  0  0  0  0  0  0  0  0
   15.4801   10.0828   10.5019 C   0  0  0  0  0  0  0  0  0  0  0  0
   15.0417    8.7863   10.7009 C   0  0  0  0  0  0  0  0  0  0  0  0
   15.9578    7.8307   11.1180 C   0  0  0  0  0  0  0  0  0  0  0  0
   13.5848    8.3898   10.4593 C   0  0  0  0  0  0  0  0  0  0  0  0
   13.3490    7.9628    9.0127 C   0  0  0  0  0  0  0  0  0  0  0  0
   12.9465    8.8307    8.1577 O   0  0  0  0  0  0  0  0  0  0  0  0
   13.4943    6.7428    8.6630 O   0  0  0  0  0  0  0  0  0  0  0  0
   12.8397    9.7257    8.4135 H   0  0  0  0  0  0  0  0  0  0  0  0
 12 11  2  0  0  0
 11 10  1  0  0  0
 11  8  1  0  0  0
  8  9  2  0  0  0
  9  2  1  0  0  0
  2  3  2  0  0  0
  2  7  1  0  0  0
  3  4  1  0  0  0
 14 15  1  0  0  0
 14  1  1  0  0  0
  7  6  2  0  0  0
 16 15  2  0  0  0
 16 17  1  0  0  0
 15 20  1  0  0  0
  4  1  1  0  0  0
  4  5  2  0  0  0
 24 22  2  0  0  0
 17 18  2  0  0  0
 20 19  2  0  0  0
  6  5  1  0  0  0
 18 19  1  0  0  0
 19 21  1  0  0  0
 22 21  1  0  0  0
 22 23  1  0  0  0
 10 13  1  0  0  0
 23 25  1  0  0  0
M  END
> <minimizedAffinity>
-6.84272

$$$$
