3RE4_TO1_A_259


 26 28  0  0  0  0  0  0  0  0999 V2000
    8.5466    2.2037   26.4275 N   0  0  0  0  0  0  0  0  0  0  0  0
    8.5181    3.3053   27.1843 C   0  0  0  0  0  0  0  0  0  0  0  0
    7.7771    4.4142   27.1217 N   0  0  0  0  0  0  0  0  0  0  0  0
    7.9037    5.4182   27.9665 C   0  0  0  0  0  0  0  0  0  0  0  0
    8.8233    5.3451   28.9312 N   0  0  0  0  0  0  0  0  0  0  0  0
    9.6470    4.3144   29.1622 C   0  0  0  0  0  0  0  0  0  0  0  0
    9.5266    3.1801   28.2515 C   0  0  0  0  0  0  0  0  0  0  0  0
   10.5690    4.2549   30.1500 N   0  0  0  0  0  0  0  0  0  0  0  0
   10.1265    1.8628   27.9648 C   0  0  0  0  0  0  0  0  0  0  0  0
    9.4691    1.2725   26.8219 C   0  0  0  0  0  0  0  0  0  0  0  0
   10.6685    5.0078   30.7764 H   0  0  0  0  0  0  0  0  0  0  0  0
   11.1405    3.4587   30.2426 H   0  0  0  0  0  0  0  0  0  0  0  0
    7.6514    1.9892   25.2803 C   0  0  0  0  0  0  0  0  0  0  0  0
    7.8080    0.6968   24.6900 O   0  0  0  0  0  0  0  0  0  0  0  0
    6.5908    3.2333   23.4536 O   0  0  0  0  0  0  0  0  0  0  0  0
    8.1460    2.6467   21.8804 O   0  0  0  0  0  0  0  0  0  0  0  0
    7.8329    2.9902   24.1558 C   0  0  0  0  0  0  0  0  0  0  0  0
    8.6658    2.2684   23.1481 C   0  0  0  0  0  0  0  0  0  0  0  0
    8.3392    0.8025   23.3581 C   0  0  0  0  0  0  0  0  0  0  0  0
    5.9765    3.7053   24.0373 H   0  0  0  0  0  0  0  0  0  0  0  0
    8.3404    3.5830   21.7176 H   0  0  0  0  0  0  0  0  0  0  0  0
   10.3708    0.3205   22.1338 O   0  0  0  0  0  0  0  0  0  0  0  0
    9.5554   -0.0987   23.2401 C   0  0  0  0  0  0  0  0  0  0  0  0
   11.1451   -0.2596   22.0648 H   0  0  0  0  0  0  0  0  0  0  0  0
   11.9442    0.6591   29.1637 N   0  0  0  0  0  0  0  0  0  0  0  0
   11.0851    1.2802   28.6879 C   0  0  0  0  0  0  0  0  0  0  0  0
 13  1  1  0  0  0
 13 14  1  0  0  0
 13 17  1  0  0  0
  1  2  1  0  0  0
  1 10  1  0  0  0
 14 19  1  0  0  0
  2  3  2  0  0  0
  2  7  1  0  0  0
  3  4  1  0  0  0
 15 17  1  0  0  0
  4  5  2  0  0  0
  5  6  1  0  0  0
 16 18  1  0  0  0
  6  7  2  0  0  0
  6  8  1  0  0  0
 25 26  3  0  0  0
 22 23  1  0  0  0
  7  9  1  0  0  0
  9 10  2  0  0  0
  9 26  1  0  0  0
 17 18  1  0  0  0
 18 19  1  0  0  0
 19 23  1  0  0  0
 15 20  1  0  0  0
 16 21  1  0  0  0
 22 24  1  0  0  0
  8 11  1  0  0  0
  8 12  1  0  0  0
M  END
> <minimizedAffinity>
-7.74113

$$$$
3RE4_TO1_A_259


 26 28  0  0  0  0  0  0  0  0999 V2000
    8.1315    2.2736   25.0276 N   0  0  0  0  0  0  0  0  0  0  0  0
    8.3927    1.4429   24.0132 C   0  0  0  0  0  0  0  0  0  0  0  0
    8.8379    0.1846   23.9798 N   0  0  0  0  0  0  0  0  0  0  0  0
    9.0497   -0.4790   22.8607 C   0  0  0  0  0  0  0  0  0  0  0  0
    8.8258    0.1267   21.6925 N   0  0  0  0  0  0  0  0  0  0  0  0
    8.3674    1.3738   21.5233 C   0  0  0  0  0  0  0  0  0  0  0  0
    8.1116    2.1345   22.7426 C   0  0  0  0  0  0  0  0  0  0  0  0
    8.1397    1.9694   20.3306 N   0  0  0  0  0  0  0  0  0  0  0  0
    7.6766    3.4683   23.1997 C   0  0  0  0  0  0  0  0  0  0  0  0
    7.6842    3.5089   24.6437 C   0  0  0  0  0  0  0  0  0  0  0  0
    8.3049    1.4763   19.4946 H   0  0  0  0  0  0  0  0  0  0  0  0
    7.8087    2.8961   20.2983 H   0  0  0  0  0  0  0  0  0  0  0  0
    8.2856    1.8954   26.4406 C   0  0  0  0  0  0  0  0  0  0  0  0
    7.3988    2.6097   27.3046 O   0  0  0  0  0  0  0  0  0  0  0  0
   10.0058    1.1479   28.0190 O   0  0  0  0  0  0  0  0  0  0  0  0
   10.3725    3.2217   28.9150 O   0  0  0  0  0  0  0  0  0  0  0  0
    9.6803    2.1160   26.9936 C   0  0  0  0  0  0  0  0  0  0  0  0
    9.5806    3.4009   27.7483 C   0  0  0  0  0  0  0  0  0  0  0  0
    8.1309    3.4784   28.1860 C   0  0  0  0  0  0  0  0  0  0  0  0
   10.0921    0.2689   27.6181 H   0  0  0  0  0  0  0  0  0  0  0  0
   11.3083    3.1684   28.6656 H   0  0  0  0  0  0  0  0  0  0  0  0
    8.5496    5.8462   28.4631 O   0  0  0  0  0  0  0  0  0  0  0  0
    7.5554    4.8798   28.0860 C   0  0  0  0  0  0  0  0  0  0  0  0
    8.1748    6.7384   28.3967 H   0  0  0  0  0  0  0  0  0  0  0  0
    6.7535    5.2567   21.7368 N   0  0  0  0  0  0  0  0  0  0  0  0
    7.2779    4.4623   22.4032 C   0  0  0  0  0  0  0  0  0  0  0  0
 13  1  1  0  0  0
 13 14  1  0  0  0
 13 17  1  0  0  0
  1  2  1  0  0  0
  1 10  1  0  0  0
 14 19  1  0  0  0
  2  3  2  0  0  0
  2  7  1  0  0  0
  3  4  1  0  0  0
 15 17  1  0  0  0
  4  5  2  0  0  0
  5  6  1  0  0  0
 16 18  1  0  0  0
  6  7  2  0  0  0
  6  8  1  0  0  0
 25 26  3  0  0  0
 22 23  1  0  0  0
  7  9  1  0  0  0
  9 10  2  0  0  0
  9 26  1  0  0  0
 17 18  1  0  0  0
 18 19  1  0  0  0
 19 23  1  0  0  0
 15 20  1  0  0  0
 16 21  1  0  0  0
 22 24  1  0  0  0
  8 11  1  0  0  0
  8 12  1  0  0  0
M  END
> <minimizedAffinity>
-7.17951

$$$$
3RE4_TO1_A_259


 26 28  0  0  0  0  0  0  0  0999 V2000
    8.0114    2.2701   25.6415 N   0  0  0  0  0  0  0  0  0  0  0  0
    8.8302    1.3375   26.1385 C   0  0  0  0  0  0  0  0  0  0  0  0
    9.1215    0.0978   25.7374 N   0  0  0  0  0  0  0  0  0  0  0  0
    9.9618   -0.6914   26.3768 C   0  0  0  0  0  0  0  0  0  0  0  0
   10.5498   -0.2499   27.4908 N   0  0  0  0  0  0  0  0  0  0  0  0
   10.3956    0.9623   28.0394 C   0  0  0  0  0  0  0  0  0  0  0  0
    9.4797    1.8665   27.3509 C   0  0  0  0  0  0  0  0  0  0  0  0
   11.0057    1.3952   29.1662 N   0  0  0  0  0  0  0  0  0  0  0  0
    8.8896    3.2145   27.4616 C   0  0  0  0  0  0  0  0  0  0  0  0
    7.9861    3.4370   26.3566 C   0  0  0  0  0  0  0  0  0  0  0  0
   11.6275    0.8032   29.6479 H   0  0  0  0  0  0  0  0  0  0  0  0
   10.8278    2.3024   29.5048 H   0  0  0  0  0  0  0  0  0  0  0  0
    7.2181    2.0785   24.4178 C   0  0  0  0  0  0  0  0  0  0  0  0
    7.7217    1.0271   23.5907 O   0  0  0  0  0  0  0  0  0  0  0  0
    5.8810    3.3619   22.8134 O   0  0  0  0  0  0  0  0  0  0  0  0
    7.5522    3.5478   21.2609 O   0  0  0  0  0  0  0  0  0  0  0  0
    7.1356    3.3072   23.5329 C   0  0  0  0  0  0  0  0  0  0  0  0
    8.1417    3.0577   22.4579 C   0  0  0  0  0  0  0  0  0  0  0  0
    8.2184    1.5474   22.3457 C   0  0  0  0  0  0  0  0  0  0  0  0
    5.1567    3.5229   23.4382 H   0  0  0  0  0  0  0  0  0  0  0  0
    7.4898    4.5149   21.3036 H   0  0  0  0  0  0  0  0  0  0  0  0
    9.8376   -0.1729   22.8719 O   0  0  0  0  0  0  0  0  0  0  0  0
    9.6329    1.0399   22.1293 C   0  0  0  0  0  0  0  0  0  0  0  0
   10.7428   -0.4908   22.7287 H   0  0  0  0  0  0  0  0  0  0  0  0
    9.4574    5.0203   29.0762 N   0  0  0  0  0  0  0  0  0  0  0  0
    9.1918    4.1118   28.4022 C   0  0  0  0  0  0  0  0  0  0  0  0
 13  1  1  0  0  0
 13 14  1  0  0  0
 13 17  1  0  0  0
  1  2  1  0  0  0
  1 10  1  0  0  0
 14 19  1  0  0  0
  2  3  2  0  0  0
  2  7  1  0  0  0
  3  4  1  0  0  0
 15 17  1  0  0  0
  4  5  2  0  0  0
  5  6  1  0  0  0
 16 18  1  0  0  0
  6  7  2  0  0  0
  6  8  1  0  0  0
 25 26  3  0  0  0
 22 23  1  0  0  0
  7  9  1  0  0  0
  9 10  2  0  0  0
  9 26  1  0  0  0
 17 18  1  0  0  0
 18 19  1  0  0  0
 19 23  1  0  0  0
 15 20  1  0  0  0
 16 21  1  0  0  0
 22 24  1  0  0  0
  8 11  1  0  0  0
  8 12  1  0  0  0
M  END
> <minimizedAffinity>
-6.81538

$$$$
3RE4_TO1_A_259


 26 28  0  0  0  0  0  0  0  0999 V2000
    8.1866    2.4194   24.6968 N   0  0  0  0  0  0  0  0  0  0  0  0
    8.7867    1.6185   25.5832 C   0  0  0  0  0  0  0  0  0  0  0  0
    9.2846    0.3841   25.4792 N   0  0  0  0  0  0  0  0  0  0  0  0
    9.8388   -0.2603   26.4870 C   0  0  0  0  0  0  0  0  0  0  0  0
    9.9015    0.3310   27.6820 N   0  0  0  0  0  0  0  0  0  0  0  0
    9.4707    1.5643   27.9777 C   0  0  0  0  0  0  0  0  0  0  0  0
    8.8608    2.3111   26.8818 C   0  0  0  0  0  0  0  0  0  0  0  0
    9.5489    2.1504   29.1942 N   0  0  0  0  0  0  0  0  0  0  0  0
    8.2010    3.5983   26.5904 C   0  0  0  0  0  0  0  0  0  0  0  0
    7.8090    3.6348   25.2005 C   0  0  0  0  0  0  0  0  0  0  0  0
    9.9561    1.6663   29.9486 H   0  0  0  0  0  0  0  0  0  0  0  0
    9.1986    3.0611   29.3252 H   0  0  0  0  0  0  0  0  0  0  0  0
    7.9665    2.0461   23.2912 C   0  0  0  0  0  0  0  0  0  0  0  0
    7.8611    3.1800   22.4273 O   0  0  0  0  0  0  0  0  0  0  0  0
    6.8814    0.3073   21.9465 O   0  0  0  0  0  0  0  0  0  0  0  0
    4.9853    1.5220   21.5377 O   0  0  0  0  0  0  0  0  0  0  0  0
    6.7160    1.2208   23.0567 C   0  0  0  0  0  0  0  0  0  0  0  0
    5.7126    2.2043   22.5506 C   0  0  0  0  0  0  0  0  0  0  0  0
    6.5377    3.2823   21.8748 C   0  0  0  0  0  0  0  0  0  0  0  0
    7.5251   -0.3781   22.1848 H   0  0  0  0  0  0  0  0  0  0  0  0
    4.4462    0.8239   21.9414 H   0  0  0  0  0  0  0  0  0  0  0  0
    7.0461    5.6485   21.9096 O   0  0  0  0  0  0  0  0  0  0  0  0
    6.0056    4.6818   22.1271 C   0  0  0  0  0  0  0  0  0  0  0  0
    6.6989    6.5395   22.0726 H   0  0  0  0  0  0  0  0  0  0  0  0
    8.0896    5.4221   28.2791 N   0  0  0  0  0  0  0  0  0  0  0  0
    8.0468    4.5983   27.4607 C   0  0  0  0  0  0  0  0  0  0  0  0
 13  1  1  0  0  0
 13 14  1  0  0  0
 13 17  1  0  0  0
  1  2  1  0  0  0
  1 10  1  0  0  0
 14 19  1  0  0  0
  2  3  2  0  0  0
  2  7  1  0  0  0
  3  4  1  0  0  0
 15 17  1  0  0  0
  4  5  2  0  0  0
  5  6  1  0  0  0
 16 18  1  0  0  0
  6  7  2  0  0  0
  6  8  1  0  0  0
 25 26  3  0  0  0
 22 23  1  0  0  0
  7  9  1  0  0  0
  9 10  2  0  0  0
  9 26  1  0  0  0
 17 18  1  0  0  0
 18 19  1  0  0  0
 19 23  1  0  0  0
 15 20  1  0  0  0
 16 21  1  0  0  0
 22 24  1  0  0  0
  8 11  1  0  0  0
  8 12  1  0  0  0
M  END
> <minimizedAffinity>
-6.78568

$$$$
3RE4_TO1_A_259


 26 28  0  0  0  0  0  0  0  0999 V2000
    7.9070    1.9192   26.0311 N   0  0  0  0  0  0  0  0  0  0  0  0
    8.9221    1.4535   26.7660 C   0  0  0  0  0  0  0  0  0  0  0  0
    9.5607    0.2811   26.7676 N   0  0  0  0  0  0  0  0  0  0  0  0
   10.5500   -0.0034   27.5912 C   0  0  0  0  0  0  0  0  0  0  0  0
   10.9366    0.9102   28.4842 N   0  0  0  0  0  0  0  0  0  0  0  0
   10.4294    2.1418   28.6259 C   0  0  0  0  0  0  0  0  0  0  0  0
    9.3387    2.4946   27.7222 C   0  0  0  0  0  0  0  0  0  0  0  0
   10.8389    3.0577   29.5329 N   0  0  0  0  0  0  0  0  0  0  0  0
    8.3986    3.5917   27.4227 C   0  0  0  0  0  0  0  0  0  0  0  0
    7.5274    3.1974   26.3400 C   0  0  0  0  0  0  0  0  0  0  0  0
   11.5727    2.8426   30.1529 H   0  0  0  0  0  0  0  0  0  0  0  0
   10.4031    3.9396   29.5731 H   0  0  0  0  0  0  0  0  0  0  0  0
    7.2607    1.1415   24.9629 C   0  0  0  0  0  0  0  0  0  0  0  0
    8.0110   -0.0166   24.5900 O   0  0  0  0  0  0  0  0  0  0  0  0
    5.8429    1.4595   22.9886 O   0  0  0  0  0  0  0  0  0  0  0  0
    7.5694    1.3944   21.4876 O   0  0  0  0  0  0  0  0  0  0  0  0
    7.0258    1.9207   23.6833 C   0  0  0  0  0  0  0  0  0  0  0  0
    8.1421    1.5016   22.7841 C   0  0  0  0  0  0  0  0  0  0  0  0
    8.5011    0.1017   23.2435 C   0  0  0  0  0  0  0  0  0  0  0  0
    5.0545    1.6900   23.5044 H   0  0  0  0  0  0  0  0  0  0  0  0
    7.3288    2.2775   21.1664 H   0  0  0  0  0  0  0  0  0  0  0  0
   10.3159   -1.2009   24.1752 O   0  0  0  0  0  0  0  0  0  0  0  0
    9.9969   -0.1584   23.2393 C   0  0  0  0  0  0  0  0  0  0  0  0
   11.2725   -1.3613   24.1669 H   0  0  0  0  0  0  0  0  0  0  0  0
    8.3726    5.7265   28.7003 N   0  0  0  0  0  0  0  0  0  0  0  0
    8.3954    4.7862   28.0180 C   0  0  0  0  0  0  0  0  0  0  0  0
 13  1  1  0  0  0
 13 14  1  0  0  0
 13 17  1  0  0  0
  1  2  1  0  0  0
  1 10  1  0  0  0
 14 19  1  0  0  0
  2  3  2  0  0  0
  2  7  1  0  0  0
  3  4  1  0  0  0
 15 17  1  0  0  0
  4  5  2  0  0  0
  5  6  1  0  0  0
 16 18  1  0  0  0
  6  7  2  0  0  0
  6  8  1  0  0  0
 25 26  3  0  0  0
 22 23  1  0  0  0
  7  9  1  0  0  0
  9 10  2  0  0  0
  9 26  1  0  0  0
 17 18  1  0  0  0
 18 19  1  0  0  0
 19 23  1  0  0  0
 15 20  1  0  0  0
 16 21  1  0  0  0
 22 24  1  0  0  0
  8 11  1  0  0  0
  8 12  1  0  0  0
M  END
> <minimizedAffinity>
-6.74348

$$$$
3RE4_TO1_A_259


 26 28  0  0  0  0  0  0  0  0999 V2000
    9.0163    0.3437   24.8934 N   0  0  0  0  0  0  0  0  0  0  0  0
    8.6637    1.5395   25.3759 C   0  0  0  0  0  0  0  0  0  0  0  0
    7.9937    2.5598   24.8350 N   0  0  0  0  0  0  0  0  0  0  0  0
    7.7485    3.6857   25.4754 C   0  0  0  0  0  0  0  0  0  0  0  0
    8.1972    3.8355   26.7236 N   0  0  0  0  0  0  0  0  0  0  0  0
    8.8729    2.9244   27.4358 C   0  0  0  0  0  0  0  0  0  0  0  0
    9.1527    1.6608   26.7608 C   0  0  0  0  0  0  0  0  0  0  0  0
    9.3141    3.0912   28.7035 N   0  0  0  0  0  0  0  0  0  0  0  0
    9.8395    0.3711   26.9663 C   0  0  0  0  0  0  0  0  0  0  0  0
    9.7141   -0.4366   25.7752 C   0  0  0  0  0  0  0  0  0  0  0  0
    9.1374    3.9349   29.1791 H   0  0  0  0  0  0  0  0  0  0  0  0
    9.8119    2.3690   29.1505 H   0  0  0  0  0  0  0  0  0  0  0  0
    8.6690   -0.1146   23.5396 C   0  0  0  0  0  0  0  0  0  0  0  0
    8.3684   -1.5111   23.4881 O   0  0  0  0  0  0  0  0  0  0  0  0
    9.1973    0.3563   21.1926 O   0  0  0  0  0  0  0  0  0  0  0  0
   10.7139   -1.3447   20.9818 O   0  0  0  0  0  0  0  0  0  0  0  0
    9.7547    0.1204   22.5072 C   0  0  0  0  0  0  0  0  0  0  0  0
   10.4258   -1.2063   22.3668 C   0  0  0  0  0  0  0  0  0  0  0  0
    9.3523   -2.2192   22.7148 C   0  0  0  0  0  0  0  0  0  0  0  0
    8.7345    1.2087   21.1858 H   0  0  0  0  0  0  0  0  0  0  0  0
   11.3999   -0.7072   20.7290 H   0  0  0  0  0  0  0  0  0  0  0  0
   11.0634   -3.9183   22.9229 O   0  0  0  0  0  0  0  0  0  0  0  0
    9.8789   -3.3832   23.5352 C   0  0  0  0  0  0  0  0  0  0  0  0
   11.3937   -4.6610   23.4523 H   0  0  0  0  0  0  0  0  0  0  0  0
   10.9893   -0.1623   29.1073 N   0  0  0  0  0  0  0  0  0  0  0  0
   10.4307   -0.0138   28.0993 C   0  0  0  0  0  0  0  0  0  0  0  0
 13  1  1  0  0  0
 13 14  1  0  0  0
 13 17  1  0  0  0
  1  2  1  0  0  0
  1 10  1  0  0  0
 14 19  1  0  0  0
  2  3  2  0  0  0
  2  7  1  0  0  0
  3  4  1  0  0  0
 15 17  1  0  0  0
  4  5  2  0  0  0
  5  6  1  0  0  0
 16 18  1  0  0  0
  6  7  2  0  0  0
  6  8  1  0  0  0
 25 26  3  0  0  0
 22 23  1  0  0  0
  7  9  1  0  0  0
  9 10  2  0  0  0
  9 26  1  0  0  0
 17 18  1  0  0  0
 18 19  1  0  0  0
 19 23  1  0  0  0
 15 20  1  0  0  0
 16 21  1  0  0  0
 22 24  1  0  0  0
  8 11  1  0  0  0
  8 12  1  0  0  0
M  END
> <minimizedAffinity>
-6.55807

$$$$
3RE4_TO1_A_259


 26 28  0  0  0  0  0  0  0  0999 V2000
    9.1649    0.3124   24.9673 N   0  0  0  0  0  0  0  0  0  0  0  0
    9.1136    0.9622   26.1344 C   0  0  0  0  0  0  0  0  0  0  0  0
    9.6363    0.6910   27.3326 N   0  0  0  0  0  0  0  0  0  0  0  0
    9.4634    1.4605   28.3890 C   0  0  0  0  0  0  0  0  0  0  0  0
    8.7198    2.5632   28.2763 N   0  0  0  0  0  0  0  0  0  0  0  0
    8.1274    3.0069   27.1599 C   0  0  0  0  0  0  0  0  0  0  0  0
    8.3071    2.1843   25.9676 C   0  0  0  0  0  0  0  0  0  0  0  0
    7.3825    4.1316   27.0627 N   0  0  0  0  0  0  0  0  0  0  0  0
    7.9069    2.1063   24.5494 C   0  0  0  0  0  0  0  0  0  0  0  0
    8.4829    0.9246   23.9507 C   0  0  0  0  0  0  0  0  0  0  0  0
    7.2472    4.7023   27.8534 H   0  0  0  0  0  0  0  0  0  0  0  0
    6.9755    4.3795   26.2012 H   0  0  0  0  0  0  0  0  0  0  0  0
    9.9077   -0.9425   24.7743 C   0  0  0  0  0  0  0  0  0  0  0  0
   10.1523   -1.2345   23.3966 O   0  0  0  0  0  0  0  0  0  0  0  0
   10.1762   -3.1546   25.7958 O   0  0  0  0  0  0  0  0  0  0  0  0
    8.7391   -4.2140   24.3640 O   0  0  0  0  0  0  0  0  0  0  0  0
    9.2191   -2.1658   25.3478 C   0  0  0  0  0  0  0  0  0  0  0  0
    8.5750   -2.8158   24.1676 C   0  0  0  0  0  0  0  0  0  0  0  0
    9.4393   -2.4143   22.9881 C   0  0  0  0  0  0  0  0  0  0  0  0
   10.6510   -2.8169   26.5713 H   0  0  0  0  0  0  0  0  0  0  0  0
    8.1962   -4.5009   25.1149 H   0  0  0  0  0  0  0  0  0  0  0  0
    7.6341   -3.1075   21.5324 O   0  0  0  0  0  0  0  0  0  0  0  0
    8.6317   -2.0951   21.7427 C   0  0  0  0  0  0  0  0  0  0  0  0
    7.1226   -2.8969   20.7356 H   0  0  0  0  0  0  0  0  0  0  0  0
    6.6013    3.7243   23.1827 N   0  0  0  0  0  0  0  0  0  0  0  0
    7.1776    3.0193   23.9045 C   0  0  0  0  0  0  0  0  0  0  0  0
 13  1  1  0  0  0
 13 14  1  0  0  0
 13 17  1  0  0  0
  1  2  1  0  0  0
  1 10  1  0  0  0
 14 19  1  0  0  0
  2  3  2  0  0  0
  2  7  1  0  0  0
  3  4  1  0  0  0
 15 17  1  0  0  0
  4  5  2  0  0  0
  5  6  1  0  0  0
 16 18  1  0  0  0
  6  7  2  0  0  0
  6  8  1  0  0  0
 25 26  3  0  0  0
 22 23  1  0  0  0
  7  9  1  0  0  0
  9 10  2  0  0  0
  9 26  1  0  0  0
 17 18  1  0  0  0
 18 19  1  0  0  0
 19 23  1  0  0  0
 15 20  1  0  0  0
 16 21  1  0  0  0
 22 24  1  0  0  0
  8 11  1  0  0  0
  8 12  1  0  0  0
M  END
> <minimizedAffinity>
-6.42870

$$$$
3RE4_TO1_A_259


 26 28  0  0  0  0  0  0  0  0999 V2000
    8.0688    0.6549   23.7437 N   0  0  0  0  0  0  0  0  0  0  0  0
    8.3447    1.3428   24.8563 C   0  0  0  0  0  0  0  0  0  0  0  0
    8.1159    2.6117   25.2029 N   0  0  0  0  0  0  0  0  0  0  0  0
    8.4794    3.1222   26.3627 C   0  0  0  0  0  0  0  0  0  0  0  0
    9.1217    2.3495   27.2413 N   0  0  0  0  0  0  0  0  0  0  0  0
    9.4277    1.0553   27.0810 C   0  0  0  0  0  0  0  0  0  0  0  0
    9.0300    0.4543   25.8116 C   0  0  0  0  0  0  0  0  0  0  0  0
   10.0736    0.2854   27.9861 N   0  0  0  0  0  0  0  0  0  0  0  0
    9.1086   -0.8139   25.0615 C   0  0  0  0  0  0  0  0  0  0  0  0
    8.4755   -0.6517   23.7732 C   0  0  0  0  0  0  0  0  0  0  0  0
   10.3517    0.6687   28.8493 H   0  0  0  0  0  0  0  0  0  0  0  0
   10.2657   -0.6583   27.7819 H   0  0  0  0  0  0  0  0  0  0  0  0
    7.3671    1.2359   22.5888 C   0  0  0  0  0  0  0  0  0  0  0  0
    6.7226    0.2497   21.7793 O   0  0  0  0  0  0  0  0  0  0  0  0
    7.5406    3.1136   21.0224 O   0  0  0  0  0  0  0  0  0  0  0  0
    8.5148    1.8921   19.3501 O   0  0  0  0  0  0  0  0  0  0  0  0
    8.2605    2.0287   21.6545 C   0  0  0  0  0  0  0  0  0  0  0  0
    8.5391    1.0923   20.5249 C   0  0  0  0  0  0  0  0  0  0  0  0
    7.3326    0.1748   20.4795 C   0  0  0  0  0  0  0  0  0  0  0  0
    7.3131    3.7816   21.6879 H   0  0  0  0  0  0  0  0  0  0  0  0
    9.2774    2.4914   19.3511 H   0  0  0  0  0  0  0  0  0  0  0  0
    6.8339   -2.1512   20.9261 O   0  0  0  0  0  0  0  0  0  0  0  0
    7.6972   -1.2702   20.1892 C   0  0  0  0  0  0  0  0  0  0  0  0
    7.0728   -3.0719   20.7357 H   0  0  0  0  0  0  0  0  0  0  0  0
    9.8985   -3.0041   25.9388 N   0  0  0  0  0  0  0  0  0  0  0  0
    9.6285   -1.9518   25.5265 C   0  0  0  0  0  0  0  0  0  0  0  0
 13  1  1  0  0  0
 13 14  1  0  0  0
 13 17  1  0  0  0
  1  2  1  0  0  0
  1 10  1  0  0  0
 14 19  1  0  0  0
  2  3  2  0  0  0
  2  7  1  0  0  0
  3  4  1  0  0  0
 15 17  1  0  0  0
  4  5  2  0  0  0
  5  6  1  0  0  0
 16 18  1  0  0  0
  6  7  2  0  0  0
  6  8  1  0  0  0
 25 26  3  0  0  0
 22 23  1  0  0  0
  7  9  1  0  0  0
  9 10  2  0  0  0
  9 26  1  0  0  0
 17 18  1  0  0  0
 18 19  1  0  0  0
 19 23  1  0  0  0
 15 20  1  0  0  0
 16 21  1  0  0  0
 22 24  1  0  0  0
  8 11  1  0  0  0
  8 12  1  0  0  0
M  END
> <minimizedAffinity>
-6.39424

$$$$
3RE4_TO1_A_259


 26 28  0  0  0  0  0  0  0  0999 V2000
    8.1164    1.3805   23.8463 N   0  0  0  0  0  0  0  0  0  0  0  0
    8.6745    0.2666   24.3312 C   0  0  0  0  0  0  0  0  0  0  0  0
    8.7943   -0.9649   23.8297 N   0  0  0  0  0  0  0  0  0  0  0  0
    9.3784   -1.9555   24.4742 C   0  0  0  0  0  0  0  0  0  0  0  0
    9.8684   -1.7374   25.6965 N   0  0  0  0  0  0  0  0  0  0  0  0
    9.8557   -0.5725   26.3574 C   0  0  0  0  0  0  0  0  0  0  0  0
    9.2257    0.5495   25.6683 C   0  0  0  0  0  0  0  0  0  0  0  0
   10.3637   -0.3682   27.5942 N   0  0  0  0  0  0  0  0  0  0  0  0
    8.8765    1.9705   25.8587 C   0  0  0  0  0  0  0  0  0  0  0  0
    8.1970    2.4613   24.6822 C   0  0  0  0  0  0  0  0  0  0  0  0
   10.7934   -1.1099   28.0785 H   0  0  0  0  0  0  0  0  0  0  0  0
   10.3039    0.5222   28.0100 H   0  0  0  0  0  0  0  0  0  0  0  0
    7.4872    1.4560   22.5190 C   0  0  0  0  0  0  0  0  0  0  0  0
    7.7297    2.7019   21.8616 O   0  0  0  0  0  0  0  0  0  0  0  0
    5.5081    0.6493   21.3182 O   0  0  0  0  0  0  0  0  0  0  0  0
    4.3059    2.5773   21.5923 O   0  0  0  0  0  0  0  0  0  0  0  0
    5.9817    1.2745   22.5346 C   0  0  0  0  0  0  0  0  0  0  0  0
    5.4402    2.6634   22.4446 C   0  0  0  0  0  0  0  0  0  0  0  0
    6.5092    3.4459   21.7068 C   0  0  0  0  0  0  0  0  0  0  0  0
    5.8148   -0.2704   21.2869 H   0  0  0  0  0  0  0  0  0  0  0  0
    3.6029    2.0801   22.0390 H   0  0  0  0  0  0  0  0  0  0  0  0
    8.0632    5.2724   22.0348 O   0  0  0  0  0  0  0  0  0  0  0  0
    6.7109    4.8441   22.2633 C   0  0  0  0  0  0  0  0  0  0  0  0
    8.1843    6.1657   22.3928 H   0  0  0  0  0  0  0  0  0  0  0  0
    9.3187    3.2611   27.9394 N   0  0  0  0  0  0  0  0  0  0  0  0
    9.1950    2.7046   26.9269 C   0  0  0  0  0  0  0  0  0  0  0  0
 13  1  1  0  0  0
 13 14  1  0  0  0
 13 17  1  0  0  0
  1  2  1  0  0  0
  1 10  1  0  0  0
 14 19  1  0  0  0
  2  3  2  0  0  0
  2  7  1  0  0  0
  3  4  1  0  0  0
 15 17  1  0  0  0
  4  5  2  0  0  0
  5  6  1  0  0  0
 16 18  1  0  0  0
  6  7  2  0  0  0
  6  8  1  0  0  0
 25 26  3  0  0  0
 22 23  1  0  0  0
  7  9  1  0  0  0
  9 10  2  0  0  0
  9 26  1  0  0  0
 17 18  1  0  0  0
 18 19  1  0  0  0
 19 23  1  0  0  0
 15 20  1  0  0  0
 16 21  1  0  0  0
 22 24  1  0  0  0
  8 11  1  0  0  0
  8 12  1  0  0  0
M  END
> <minimizedAffinity>
-6.27787

$$$$
3RE4_TO1_A_259


 26 28  0  0  0  0  0  0  0  0999 V2000
    7.7574    1.4318   24.2832 N   0  0  0  0  0  0  0  0  0  0  0  0
    8.5323    0.5589   24.9349 C   0  0  0  0  0  0  0  0  0  0  0  0
    8.9045   -0.6916   24.6517 N   0  0  0  0  0  0  0  0  0  0  0  0
    9.6791   -1.4122   25.4381 C   0  0  0  0  0  0  0  0  0  0  0  0
   10.1114   -0.8856   26.5859 N   0  0  0  0  0  0  0  0  0  0  0  0
    9.8575    0.3510   27.0338 C   0  0  0  0  0  0  0  0  0  0  0  0
    9.0109    1.1809   26.1823 C   0  0  0  0  0  0  0  0  0  0  0  0
   10.3103    0.8706   28.1976 N   0  0  0  0  0  0  0  0  0  0  0  0
    8.3759    2.5119   26.1343 C   0  0  0  0  0  0  0  0  0  0  0  0
    7.6118    2.6374   24.9147 C   0  0  0  0  0  0  0  0  0  0  0  0
   10.8828    0.3298   28.7884 H   0  0  0  0  0  0  0  0  0  0  0  0
   10.0674    1.7896   28.4538 H   0  0  0  0  0  0  0  0  0  0  0  0
    7.1286    1.1409   22.9858 C   0  0  0  0  0  0  0  0  0  0  0  0
    7.5277   -0.1219   22.4480 O   0  0  0  0  0  0  0  0  0  0  0  0
    6.3219    2.2921   20.9774 O   0  0  0  0  0  0  0  0  0  0  0  0
    8.2045    1.8847   19.7414 O   0  0  0  0  0  0  0  0  0  0  0  0
    7.4221    2.1682   21.9096 C   0  0  0  0  0  0  0  0  0  0  0  0
    8.5040    1.5464   21.0891 C   0  0  0  0  0  0  0  0  0  0  0  0
    8.2938    0.0527   21.2439 C   0  0  0  0  0  0  0  0  0  0  0  0
    5.5611    2.6925   21.4265 H   0  0  0  0  0  0  0  0  0  0  0  0
    8.3304    2.8377   19.6117 H   0  0  0  0  0  0  0  0  0  0  0  0
   10.5653    0.0698   22.0795 O   0  0  0  0  0  0  0  0  0  0  0  0
    9.5951   -0.7191   21.3720 C   0  0  0  0  0  0  0  0  0  0  0  0
   11.3933   -0.4294   22.1574 H   0  0  0  0  0  0  0  0  0  0  0  0
    8.7510    4.1718   27.9494 N   0  0  0  0  0  0  0  0  0  0  0  0
    8.5342    3.4732   27.0465 C   0  0  0  0  0  0  0  0  0  0  0  0
 13  1  1  0  0  0
 13 14  1  0  0  0
 13 17  1  0  0  0
  1  2  1  0  0  0
  1 10  1  0  0  0
 14 19  1  0  0  0
  2  3  2  0  0  0
  2  7  1  0  0  0
  3  4  1  0  0  0
 15 17  1  0  0  0
  4  5  2  0  0  0
  5  6  1  0  0  0
 16 18  1  0  0  0
  6  7  2  0  0  0
  6  8  1  0  0  0
 25 26  3  0  0  0
 22 23  1  0  0  0
  7  9  1  0  0  0
  9 10  2  0  0  0
  9 26  1  0  0  0
 17 18  1  0  0  0
 18 19  1  0  0  0
 19 23  1  0  0  0
 15 20  1  0  0  0
 16 21  1  0  0  0
 22 24  1  0  0  0
  8 11  1  0  0  0
  8 12  1  0  0  0
M  END
> <minimizedAffinity>
-6.25927

$$$$
