4DFF_0JP_B_801


 22 25  0  0  0  0  0  0  0  0999 V2000
    7.7600   38.5803   57.2805 C   0  0  0  0  0  0  0  0  0  0  0  0
    8.4794   38.7449   59.9932 C   0  0  0  0  0  0  0  0  0  0  0  0
   10.4852   42.3337   56.3322 C   0  0  0  0  0  0  0  0  0  0  0  0
    8.7382   39.5013   57.6955 C   0  0  0  0  0  0  0  0  0  0  0  0
    9.0934   39.5727   59.0726 C   0  0  0  0  0  0  0  0  0  0  0  0
    7.1013   37.7563   58.2036 C   0  0  0  0  0  0  0  0  0  0  0  0
    7.4652   37.8261   59.5611 C   0  0  0  0  0  0  0  0  0  0  0  0
    9.7203   40.5829   55.4100 C   0  0  0  0  0  0  0  0  0  0  0  0
    9.4035   40.4254   56.7668 C   0  0  0  0  0  0  0  0  0  0  0  0
   10.1007   40.5982   59.5288 C   0  0  0  0  0  0  0  0  0  0  0  0
    9.7897   41.8875   58.7578 C   0  0  0  0  0  0  0  0  0  0  0  0
   10.4108   41.7555   55.1803 N   0  0  0  0  0  0  0  0  0  0  0  0
    9.9054   41.5798   57.3167 N   0  0  0  0  0  0  0  0  0  0  0  0
    9.6178   38.3281   54.2685 C   0  0  0  0  0  0  0  0  0  0  0  0
    9.2235   38.6113   52.1134 C   0  0  0  0  0  0  0  0  0  0  0  0
    9.5327   39.6979   54.2571 C   0  0  0  0  0  0  0  0  0  0  0  0
    9.4355   37.6738   53.0554 N   0  0  0  0  0  0  0  0  0  0  0  0
    9.2577   40.2649   52.6443 S   0  0  0  0  0  0  0  0  0  0  0  0
    5.6354   36.5938   56.5871 C   0  0  0  0  0  0  0  0  0  0  0  0
    6.1438   36.7873   57.9137 O   0  0  0  0  0  0  0  0  0  0  0  0
    6.6648   37.0046   61.7448 C   0  0  0  0  0  0  0  0  0  0  0  0
    6.8041   36.8974   60.3183 O   0  0  0  0  0  0  0  0  0  0  0  0
 15 18  1  0  0  0
 15 17  2  0  0  0
 18 16  1  0  0  0
 17 14  1  0  0  0
 16 14  2  0  0  0
 16  8  1  0  0  0
 12  8  1  0  0  0
 12  3  2  0  0  0
  8  9  2  0  0  0
  3 13  1  0  0  0
  9 13  1  0  0  0
  9  4  1  0  0  0
 19 20  1  0  0  0
 13 11  1  0  0  0
  1  4  2  0  0  0
  1  6  1  0  0  0
  4  5  1  0  0  0
 20  6  1  0  0  0
  6  7  2  0  0  0
 11 10  1  0  0  0
  5 10  1  0  0  0
  5  2  2  0  0  0
  7  2  1  0  0  0
  7 22  1  0  0  0
 22 21  1  0  0  0
M  END
> <minimizedAffinity>
-7.38018

$$$$
4DFF_0JP_B_801


 22 25  0  0  0  0  0  0  0  0999 V2000
   10.7597   41.5948   55.8985 C   0  0  0  0  0  0  0  0  0  0  0  0
   10.2171   39.8514   58.0361 C   0  0  0  0  0  0  0  0  0  0  0  0
   13.5871   44.1526   58.7052 C   0  0  0  0  0  0  0  0  0  0  0  0
   11.4481   41.7373   57.1164 C   0  0  0  0  0  0  0  0  0  0  0  0
   11.1637   40.8463   58.1901 C   0  0  0  0  0  0  0  0  0  0  0  0
    9.7717   40.6141   55.7342 C   0  0  0  0  0  0  0  0  0  0  0  0
    9.5038   39.7312   56.7967 C   0  0  0  0  0  0  0  0  0  0  0  0
   13.3208   43.6465   56.6623 C   0  0  0  0  0  0  0  0  0  0  0  0
   12.4435   42.7934   57.3468 C   0  0  0  0  0  0  0  0  0  0  0  0
   11.8593   41.0323   59.5152 C   0  0  0  0  0  0  0  0  0  0  0  0
   11.9043   42.5435   59.7753 C   0  0  0  0  0  0  0  0  0  0  0  0
   14.0303   44.4514   57.5300 N   0  0  0  0  0  0  0  0  0  0  0  0
   12.6424   43.1634   58.6547 N   0  0  0  0  0  0  0  0  0  0  0  0
   14.7976   43.2540   54.6465 C   0  0  0  0  0  0  0  0  0  0  0  0
   13.8894   44.2061   52.8721 C   0  0  0  0  0  0  0  0  0  0  0  0
   13.6658   43.7524   55.2419 C   0  0  0  0  0  0  0  0  0  0  0  0
   14.9509   43.4892   53.2849 N   0  0  0  0  0  0  0  0  0  0  0  0
   12.7178   44.6243   54.0846 S   0  0  0  0  0  0  0  0  0  0  0  0
    8.9568   41.3050   53.5044 C   0  0  0  0  0  0  0  0  0  0  0  0
    9.0476   40.3537   54.5733 O   0  0  0  0  0  0  0  0  0  0  0  0
    7.5034   38.3823   57.3096 C   0  0  0  0  0  0  0  0  0  0  0  0
    8.5873   38.7754   56.4514 O   0  0  0  0  0  0  0  0  0  0  0  0
 15 18  1  0  0  0
 15 17  2  0  0  0
 18 16  1  0  0  0
 17 14  1  0  0  0
 16 14  2  0  0  0
 16  8  1  0  0  0
 12  8  1  0  0  0
 12  3  2  0  0  0
  8  9  2  0  0  0
  3 13  1  0  0  0
  9 13  1  0  0  0
  9  4  1  0  0  0
 19 20  1  0  0  0
 13 11  1  0  0  0
  1  4  2  0  0  0
  1  6  1  0  0  0
  4  5  1  0  0  0
 20  6  1  0  0  0
  6  7  2  0  0  0
 11 10  1  0  0  0
  5 10  1  0  0  0
  5  2  2  0  0  0
  7  2  1  0  0  0
  7 22  1  0  0  0
 22 21  1  0  0  0
M  END
> <minimizedAffinity>
-7.26690

$$$$
4DFF_0JP_B_801


 22 25  0  0  0  0  0  0  0  0999 V2000
   10.6800   41.3550   58.2082 C   0  0  0  0  0  0  0  0  0  0  0  0
    8.9884   39.4053   59.3220 C   0  0  0  0  0  0  0  0  0  0  0  0
    9.2784   40.0881   53.8672 C   0  0  0  0  0  0  0  0  0  0  0  0
    9.8010   40.6304   57.3837 C   0  0  0  0  0  0  0  0  0  0  0  0
    8.9491   39.6467   57.9619 C   0  0  0  0  0  0  0  0  0  0  0  0
   10.7591   41.1008   59.5845 C   0  0  0  0  0  0  0  0  0  0  0  0
    9.9068   40.1341   60.1495 C   0  0  0  0  0  0  0  0  0  0  0  0
   10.0163   41.7688   54.9310 C   0  0  0  0  0  0  0  0  0  0  0  0
    9.7363   40.8241   55.9286 C   0  0  0  0  0  0  0  0  0  0  0  0
    8.0465   38.8289   57.0726 C   0  0  0  0  0  0  0  0  0  0  0  0
    8.8643   38.4833   55.8215 C   0  0  0  0  0  0  0  0  0  0  0  0
    9.6970   41.2942   53.6751 N   0  0  0  0  0  0  0  0  0  0  0  0
    9.2749   39.7579   55.1955 N   0  0  0  0  0  0  0  0  0  0  0  0
    9.7084   44.2777   54.8400 C   0  0  0  0  0  0  0  0  0  0  0  0
   11.6587   45.2701   55.1422 C   0  0  0  0  0  0  0  0  0  0  0  0
   10.4819   43.1563   55.0069 C   0  0  0  0  0  0  0  0  0  0  0  0
   10.3525   45.5071   54.9216 N   0  0  0  0  0  0  0  0  0  0  0  0
   12.1392   43.6033   55.2343 S   0  0  0  0  0  0  0  0  0  0  0  0
   12.2486   42.9838   60.1754 C   0  0  0  0  0  0  0  0  0  0  0  0
   11.5612   41.7697   60.5058 O   0  0  0  0  0  0  0  0  0  0  0  0
    9.9497   38.8386   62.2480 C   0  0  0  0  0  0  0  0  0  0  0  0
   10.0349   40.0693   61.5105 O   0  0  0  0  0  0  0  0  0  0  0  0
 15 18  1  0  0  0
 15 17  2  0  0  0
 18 16  1  0  0  0
 17 14  1  0  0  0
 16 14  2  0  0  0
 16  8  1  0  0  0
 12  8  1  0  0  0
 12  3  2  0  0  0
  8  9  2  0  0  0
  3 13  1  0  0  0
  9 13  1  0  0  0
  9  4  1  0  0  0
 19 20  1  0  0  0
 13 11  1  0  0  0
  1  4  2  0  0  0
  1  6  1  0  0  0
  4  5  1  0  0  0
 20  6  1  0  0  0
  6  7  2  0  0  0
 11 10  1  0  0  0
  5 10  1  0  0  0
  5  2  2  0  0  0
  7  2  1  0  0  0
  7 22  1  0  0  0
 22 21  1  0  0  0
M  END
> <minimizedAffinity>
-7.10826

$$$$
4DFF_0JP_B_801


 22 25  0  0  0  0  0  0  0  0999 V2000
   11.3979   40.9642   57.0258 C   0  0  0  0  0  0  0  0  0  0  0  0
    9.1839   39.3064   56.5226 C   0  0  0  0  0  0  0  0  0  0  0  0
   12.2366   41.2523   52.3753 C   0  0  0  0  0  0  0  0  0  0  0  0
   10.9804   40.7279   55.7040 C   0  0  0  0  0  0  0  0  0  0  0  0
    9.8566   39.8869   55.4642 C   0  0  0  0  0  0  0  0  0  0  0  0
   10.7500   40.3572   58.1106 C   0  0  0  0  0  0  0  0  0  0  0  0
    9.6343   39.5355   57.8657 C   0  0  0  0  0  0  0  0  0  0  0  0
   12.5123   42.3551   54.1665 C   0  0  0  0  0  0  0  0  0  0  0  0
   11.6738   41.2948   54.5391 C   0  0  0  0  0  0  0  0  0  0  0  0
    9.4416   39.5864   54.0458 C   0  0  0  0  0  0  0  0  0  0  0  0
   10.7351   39.3691   53.2501 C   0  0  0  0  0  0  0  0  0  0  0  0
   12.8177   42.3153   52.8214 N   0  0  0  0  0  0  0  0  0  0  0  0
   11.5338   40.6082   53.3576 N   0  0  0  0  0  0  0  0  0  0  0  0
   14.3244   43.7241   55.2800 C   0  0  0  0  0  0  0  0  0  0  0  0
   13.4250   45.5079   56.2227 C   0  0  0  0  0  0  0  0  0  0  0  0
   13.0184   43.5067   54.9183 C   0  0  0  0  0  0  0  0  0  0  0  0
   14.5924   44.8693   56.0213 N   0  0  0  0  0  0  0  0  0  0  0  0
   12.0059   44.7560   55.5606 S   0  0  0  0  0  0  0  0  0  0  0  0
   12.0176   41.4947   59.9031 C   0  0  0  0  0  0  0  0  0  0  0  0
   11.0472   40.5370   59.4594 O   0  0  0  0  0  0  0  0  0  0  0  0
    7.7197   38.5696   59.0845 C   0  0  0  0  0  0  0  0  0  0  0  0
    9.0558   39.0960   59.0255 O   0  0  0  0  0  0  0  0  0  0  0  0
 15 18  1  0  0  0
 15 17  2  0  0  0
 18 16  1  0  0  0
 17 14  1  0  0  0
 16 14  2  0  0  0
 16  8  1  0  0  0
 12  8  1  0  0  0
 12  3  2  0  0  0
  8  9  2  0  0  0
  3 13  1  0  0  0
  9 13  1  0  0  0
  9  4  1  0  0  0
 19 20  1  0  0  0
 13 11  1  0  0  0
  1  4  2  0  0  0
  1  6  1  0  0  0
  4  5  1  0  0  0
 20  6  1  0  0  0
  6  7  2  0  0  0
 11 10  1  0  0  0
  5 10  1  0  0  0
  5  2  2  0  0  0
  7  2  1  0  0  0
  7 22  1  0  0  0
 22 21  1  0  0  0
M  END
> <minimizedAffinity>
-6.75719

$$$$
4DFF_0JP_B_801


 22 25  0  0  0  0  0  0  0  0999 V2000
    9.3364   40.6060   57.7460 C   0  0  0  0  0  0  0  0  0  0  0  0
   10.2262   39.8912   60.3152 C   0  0  0  0  0  0  0  0  0  0  0  0
   12.8549   43.7553   57.4059 C   0  0  0  0  0  0  0  0  0  0  0  0
   10.5355   41.1399   58.2504 C   0  0  0  0  0  0  0  0  0  0  0  0
   10.9745   40.7680   59.5530 C   0  0  0  0  0  0  0  0  0  0  0  0
    8.5460   39.7423   58.5170 C   0  0  0  0  0  0  0  0  0  0  0  0
    8.9920   39.3720   59.7992 C   0  0  0  0  0  0  0  0  0  0  0  0
   11.6259   42.5262   56.1895 C   0  0  0  0  0  0  0  0  0  0  0  0
   11.3570   42.0975   57.4972 C   0  0  0  0  0  0  0  0  0  0  0  0
   12.2303   41.3826   60.1184 C   0  0  0  0  0  0  0  0  0  0  0  0
   12.2082   42.8638   59.7196 C   0  0  0  0  0  0  0  0  0  0  0  0
   12.5733   43.5293   56.1664 N   0  0  0  0  0  0  0  0  0  0  0  0
   12.1617   42.9236   58.2434 N   0  0  0  0  0  0  0  0  0  0  0  0
   11.7257   41.0274   54.1544 C   0  0  0  0  0  0  0  0  0  0  0  0
   10.1148   41.5854   52.7496 C   0  0  0  0  0  0  0  0  0  0  0  0
   11.1582   42.0382   54.8892 C   0  0  0  0  0  0  0  0  0  0  0  0
   11.1442   40.7364   52.9256 N   0  0  0  0  0  0  0  0  0  0  0  0
    9.8385   42.7416   54.0163 S   0  0  0  0  0  0  0  0  0  0  0  0
    7.3269   38.1554   57.0648 C   0  0  0  0  0  0  0  0  0  0  0  0
    7.3620   39.1261   58.1194 O   0  0  0  0  0  0  0  0  0  0  0  0
    8.5527   37.6569   61.5167 C   0  0  0  0  0  0  0  0  0  0  0  0
    8.1637   38.4538   60.3856 O   0  0  0  0  0  0  0  0  0  0  0  0
 15 18  1  0  0  0
 15 17  2  0  0  0
 18 16  1  0  0  0
 17 14  1  0  0  0
 16 14  2  0  0  0
 16  8  1  0  0  0
 12  8  1  0  0  0
 12  3  2  0  0  0
  8  9  2  0  0  0
  3 13  1  0  0  0
  9 13  1  0  0  0
  9  4  1  0  0  0
 19 20  1  0  0  0
 13 11  1  0  0  0
  1  4  2  0  0  0
  1  6  1  0  0  0
  4  5  1  0  0  0
 20  6  1  0  0  0
  6  7  2  0  0  0
 11 10  1  0  0  0
  5 10  1  0  0  0
  5  2  2  0  0  0
  7  2  1  0  0  0
  7 22  1  0  0  0
 22 21  1  0  0  0
M  END
> <minimizedAffinity>
-6.58320

$$$$
4DFF_0JP_B_801


 22 25  0  0  0  0  0  0  0  0999 V2000
   10.5061   40.3423   56.7110 C   0  0  0  0  0  0  0  0  0  0  0  0
   11.8756   42.7736   57.0522 C   0  0  0  0  0  0  0  0  0  0  0  0
   10.4211   39.7338   61.4053 C   0  0  0  0  0  0  0  0  0  0  0  0
   10.7132   40.8593   58.0021 C   0  0  0  0  0  0  0  0  0  0  0  0
   11.4075   42.0925   58.1597 C   0  0  0  0  0  0  0  0  0  0  0  0
   11.0032   41.0007   55.5776 C   0  0  0  0  0  0  0  0  0  0  0  0
   11.6794   42.2238   55.7413 C   0  0  0  0  0  0  0  0  0  0  0  0
    9.3273   39.2209   59.6614 C   0  0  0  0  0  0  0  0  0  0  0  0
   10.2635   40.1653   59.2168 C   0  0  0  0  0  0  0  0  0  0  0  0
   11.6805   42.6206   59.5458 C   0  0  0  0  0  0  0  0  0  0  0  0
   12.0780   41.4115   60.4023 C   0  0  0  0  0  0  0  0  0  0  0  0
    9.4328   38.9983   61.0192 N   0  0  0  0  0  0  0  0  0  0  0  0
   10.9498   40.4570   60.3704 N   0  0  0  0  0  0  0  0  0  0  0  0
    7.3845   37.6072   59.5213 C   0  0  0  0  0  0  0  0  0  0  0  0
    6.6039   37.5725   57.4551 C   0  0  0  0  0  0  0  0  0  0  0  0
    8.2354   38.5314   58.9685 C   0  0  0  0  0  0  0  0  0  0  0  0
    6.4301   37.0452   58.6810 N   0  0  0  0  0  0  0  0  0  0  0  0
    7.9011   38.7145   57.2794 S   0  0  0  0  0  0  0  0  0  0  0  0
    9.7884   39.7163   53.8489 C   0  0  0  0  0  0  0  0  0  0  0  0
   10.8361   40.6085   54.2517 O   0  0  0  0  0  0  0  0  0  0  0  0
   11.6089   44.1103   54.1537 C   0  0  0  0  0  0  0  0  0  0  0  0
   12.0178   42.7880   54.5412 O   0  0  0  0  0  0  0  0  0  0  0  0
 15 18  1  0  0  0
 15 17  2  0  0  0
 18 16  1  0  0  0
 17 14  1  0  0  0
 16 14  2  0  0  0
 16  8  1  0  0  0
 12  8  1  0  0  0
 12  3  2  0  0  0
  8  9  2  0  0  0
  3 13  1  0  0  0
  9 13  1  0  0  0
  9  4  1  0  0  0
 19 20  1  0  0  0
 13 11  1  0  0  0
  1  4  2  0  0  0
  1  6  1  0  0  0
  4  5  1  0  0  0
 20  6  1  0  0  0
  6  7  2  0  0  0
 11 10  1  0  0  0
  5 10  1  0  0  0
  5  2  2  0  0  0
  7  2  1  0  0  0
  7 22  1  0  0  0
 22 21  1  0  0  0
M  END
> <minimizedAffinity>
-6.42918

$$$$
4DFF_0JP_B_801


 22 25  0  0  0  0  0  0  0  0999 V2000
   10.5178   41.9322   54.7283 C   0  0  0  0  0  0  0  0  0  0  0  0
    9.5420   39.3033   54.9283 C   0  0  0  0  0  0  0  0  0  0  0  0
   11.3104   41.9908   59.3954 C   0  0  0  0  0  0  0  0  0  0  0  0
   10.5966   41.2423   55.9511 C   0  0  0  0  0  0  0  0  0  0  0  0
   10.0994   39.9108   56.0373 C   0  0  0  0  0  0  0  0  0  0  0  0
    9.9250   41.3458   53.6015 C   0  0  0  0  0  0  0  0  0  0  0  0
    9.4451   40.0262   53.6924 C   0  0  0  0  0  0  0  0  0  0  0  0
   12.0234   42.8598   57.5962 C   0  0  0  0  0  0  0  0  0  0  0  0
   11.1524   41.8471   57.1694 C   0  0  0  0  0  0  0  0  0  0  0  0
   10.1310   39.1892   57.3612 C   0  0  0  0  0  0  0  0  0  0  0  0
    9.7335   40.2179   58.4277 C   0  0  0  0  0  0  0  0  0  0  0  0
   12.1195   42.9034   58.9721 N   0  0  0  0  0  0  0  0  0  0  0  0
   10.7112   41.3245   58.3607 N   0  0  0  0  0  0  0  0  0  0  0  0
   14.2603   43.7972   56.8784 C   0  0  0  0  0  0  0  0  0  0  0  0
   13.9392   45.5102   55.5210 C   0  0  0  0  0  0  0  0  0  0  0  0
   12.8882   43.7784   56.8507 C   0  0  0  0  0  0  0  0  0  0  0  0
   14.8941   44.7733   56.1179 N   0  0  0  0  0  0  0  0  0  0  0  0
   12.2939   45.0730   55.8663 S   0  0  0  0  0  0  0  0  0  0  0  0
   10.8278   42.7756   51.7975 C   0  0  0  0  0  0  0  0  0  0  0  0
    9.8170   41.9113   52.3333 O   0  0  0  0  0  0  0  0  0  0  0  0
    9.1717   38.2088   52.0472 C   0  0  0  0  0  0  0  0  0  0  0  0
    8.9844   39.5634   52.4896 O   0  0  0  0  0  0  0  0  0  0  0  0
 15 18  1  0  0  0
 15 17  2  0  0  0
 18 16  1  0  0  0
 17 14  1  0  0  0
 16 14  2  0  0  0
 16  8  1  0  0  0
 12  8  1  0  0  0
 12  3  2  0  0  0
  8  9  2  0  0  0
  3 13  1  0  0  0
  9 13  1  0  0  0
  9  4  1  0  0  0
 19 20  1  0  0  0
 13 11  1  0  0  0
  1  4  2  0  0  0
  1  6  1  0  0  0
  4  5  1  0  0  0
 20  6  1  0  0  0
  6  7  2  0  0  0
 11 10  1  0  0  0
  5 10  1  0  0  0
  5  2  2  0  0  0
  7  2  1  0  0  0
  7 22  1  0  0  0
 22 21  1  0  0  0
M  END
> <minimizedAffinity>
-6.41764

$$$$
4DFF_0JP_B_801


 22 25  0  0  0  0  0  0  0  0999 V2000
   12.0498   41.4499   56.2153 C   0  0  0  0  0  0  0  0  0  0  0  0
    9.8994   39.7987   56.9589 C   0  0  0  0  0  0  0  0  0  0  0  0
   11.1804   40.5247   51.6544 C   0  0  0  0  0  0  0  0  0  0  0  0
   11.2082   40.9027   55.2307 C   0  0  0  0  0  0  0  0  0  0  0  0
   10.1222   40.0690   55.6221 C   0  0  0  0  0  0  0  0  0  0  0  0
   11.8611   41.1599   57.5737 C   0  0  0  0  0  0  0  0  0  0  0  0
   10.7797   40.3433   57.9528 C   0  0  0  0  0  0  0  0  0  0  0  0
   12.0049   42.0334   52.8972 C   0  0  0  0  0  0  0  0  0  0  0  0
   11.4135   41.1321   53.7939 C   0  0  0  0  0  0  0  0  0  0  0  0
    9.2525   39.4352   54.5654 C   0  0  0  0  0  0  0  0  0  0  0  0
   10.1935   38.9781   53.4433 C   0  0  0  0  0  0  0  0  0  0  0  0
   11.8192   41.6445   51.5863 N   0  0  0  0  0  0  0  0  0  0  0  0
   10.9064   40.1749   52.9491 N   0  0  0  0  0  0  0  0  0  0  0  0
   13.8845   43.6958   52.5787 C   0  0  0  0  0  0  0  0  0  0  0  0
   13.4705   45.5116   53.7668 C   0  0  0  0  0  0  0  0  0  0  0  0
   12.6762   43.3187   53.1093 C   0  0  0  0  0  0  0  0  0  0  0  0
   14.3636   44.9530   52.9292 N   0  0  0  0  0  0  0  0  0  0  0  0
   12.0753   44.5551   54.1622 S   0  0  0  0  0  0  0  0  0  0  0  0
   12.7765   43.0717   58.8467 C   0  0  0  0  0  0  0  0  0  0  0  0
   12.6030   41.6636   58.6393 O   0  0  0  0  0  0  0  0  0  0  0  0
    9.5151   40.6655   60.0460 C   0  0  0  0  0  0  0  0  0  0  0  0
   10.6726   40.2317   59.3127 O   0  0  0  0  0  0  0  0  0  0  0  0
 15 18  1  0  0  0
 15 17  2  0  0  0
 18 16  1  0  0  0
 17 14  1  0  0  0
 16 14  2  0  0  0
 16  8  1  0  0  0
 12  8  1  0  0  0
 12  3  2  0  0  0
  8  9  2  0  0  0
  3 13  1  0  0  0
  9 13  1  0  0  0
  9  4  1  0  0  0
 19 20  1  0  0  0
 13 11  1  0  0  0
  1  4  2  0  0  0
  1  6  1  0  0  0
  4  5  1  0  0  0
 20  6  1  0  0  0
  6  7  2  0  0  0
 11 10  1  0  0  0
  5 10  1  0  0  0
  5  2  2  0  0  0
  7  2  1  0  0  0
  7 22  1  0  0  0
 22 21  1  0  0  0
M  END
> <minimizedAffinity>
-6.35873

$$$$
4DFF_0JP_B_801


 22 25  0  0  0  0  0  0  0  0999 V2000
   11.4179   40.9639   55.7105 C   0  0  0  0  0  0  0  0  0  0  0  0
   12.4843   43.3286   54.6268 C   0  0  0  0  0  0  0  0  0  0  0  0
   12.2430   42.5958   60.0775 C   0  0  0  0  0  0  0  0  0  0  0  0
   11.7769   42.0278   56.5570 C   0  0  0  0  0  0  0  0  0  0  0  0
   12.3148   43.2200   55.9939 C   0  0  0  0  0  0  0  0  0  0  0  0
   11.6141   41.0415   54.3247 C   0  0  0  0  0  0  0  0  0  0  0  0
   12.1368   42.2269   53.7754 C   0  0  0  0  0  0  0  0  0  0  0  0
   10.9391   41.2910   59.0296 C   0  0  0  0  0  0  0  0  0  0  0  0
   11.6459   41.9582   58.0189 C   0  0  0  0  0  0  0  0  0  0  0  0
   12.7533   44.3403   56.9035 C   0  0  0  0  0  0  0  0  0  0  0  0
   13.4551   43.6820   58.0983 C   0  0  0  0  0  0  0  0  0  0  0  0
   11.3109   41.7269   60.2850 N   0  0  0  0  0  0  0  0  0  0  0  0
   12.4786   42.7777   58.7415 N   0  0  0  0  0  0  0  0  0  0  0  0
    8.8260   40.3001   58.0543 C   0  0  0  0  0  0  0  0  0  0  0  0
    8.1938   38.5697   59.2732 C   0  0  0  0  0  0  0  0  0  0  0  0
    9.8458   40.3167   58.9727 C   0  0  0  0  0  0  0  0  0  0  0  0
    7.8667   39.3036   58.1937 N   0  0  0  0  0  0  0  0  0  0  0  0
    9.6171   39.0589   60.1406 S   0  0  0  0  0  0  0  0  0  0  0  0
   10.0213   39.3727   53.4351 C   0  0  0  0  0  0  0  0  0  0  0  0
   11.2710   40.0737   53.3838 O   0  0  0  0  0  0  0  0  0  0  0  0
   12.1127   43.3601   51.5846 C   0  0  0  0  0  0  0  0  0  0  0  0
   12.1793   42.1840   52.4081 O   0  0  0  0  0  0  0  0  0  0  0  0
 15 18  1  0  0  0
 15 17  2  0  0  0
 18 16  1  0  0  0
 17 14  1  0  0  0
 16 14  2  0  0  0
 16  8  1  0  0  0
 12  8  1  0  0  0
 12  3  2  0  0  0
  8  9  2  0  0  0
  3 13  1  0  0  0
  9 13  1  0  0  0
  9  4  1  0  0  0
 19 20  1  0  0  0
 13 11  1  0  0  0
  1  4  2  0  0  0
  1  6  1  0  0  0
  4  5  1  0  0  0
 20  6  1  0  0  0
  6  7  2  0  0  0
 11 10  1  0  0  0
  5 10  1  0  0  0
  5  2  2  0  0  0
  7  2  1  0  0  0
  7 22  1  0  0  0
 22 21  1  0  0  0
M  END
> <minimizedAffinity>
-6.33768

$$$$
4DFF_0JP_B_801


 22 25  0  0  0  0  0  0  0  0999 V2000
   11.6484   41.4557   55.5375 C   0  0  0  0  0  0  0  0  0  0  0  0
   12.4149   42.8957   57.8272 C   0  0  0  0  0  0  0  0  0  0  0  0
   12.9121   45.1168   52.8147 C   0  0  0  0  0  0  0  0  0  0  0  0
   12.2843   42.7030   55.4056 C   0  0  0  0  0  0  0  0  0  0  0  0
   12.6680   43.4206   56.5742 C   0  0  0  0  0  0  0  0  0  0  0  0
   11.3522   40.9225   56.7996 C   0  0  0  0  0  0  0  0  0  0  0  0
   11.7436   41.6332   57.9493 C   0  0  0  0  0  0  0  0  0  0  0  0
   12.7267   43.0045   52.7464 C   0  0  0  0  0  0  0  0  0  0  0  0
   12.5531   43.3230   54.1008 C   0  0  0  0  0  0  0  0  0  0  0  0
   13.2986   44.7836   56.4365 C   0  0  0  0  0  0  0  0  0  0  0  0
   12.5350   45.5062   55.3192 C   0  0  0  0  0  0  0  0  0  0  0  0
   12.9736   44.1291   51.9856 N   0  0  0  0  0  0  0  0  0  0  0  0
   12.6700   44.6917   54.0931 N   0  0  0  0  0  0  0  0  0  0  0  0
   13.8845   41.1851   51.4245 C   0  0  0  0  0  0  0  0  0  0  0  0
   12.4360   39.5872   50.9467 C   0  0  0  0  0  0  0  0  0  0  0  0
   12.7838   41.7172   52.0483 C   0  0  0  0  0  0  0  0  0  0  0  0
   13.7201   39.9586   50.7910 N   0  0  0  0  0  0  0  0  0  0  0  0
   11.4119   40.6857   51.8196 S   0  0  0  0  0  0  0  0  0  0  0  0
    9.4023   39.4060   56.6908 C   0  0  0  0  0  0  0  0  0  0  0  0
   10.7585   39.6897   57.0596 O   0  0  0  0  0  0  0  0  0  0  0  0
   11.9456   41.3517   60.3914 C   0  0  0  0  0  0  0  0  0  0  0  0
   11.4712   40.9414   59.0982 O   0  0  0  0  0  0  0  0  0  0  0  0
 15 18  1  0  0  0
 15 17  2  0  0  0
 18 16  1  0  0  0
 17 14  1  0  0  0
 16 14  2  0  0  0
 16  8  1  0  0  0
 12  8  1  0  0  0
 12  3  2  0  0  0
  8  9  2  0  0  0
  3 13  1  0  0  0
  9 13  1  0  0  0
  9  4  1  0  0  0
 19 20  1  0  0  0
 13 11  1  0  0  0
  1  4  2  0  0  0
  1  6  1  0  0  0
  4  5  1  0  0  0
 20  6  1  0  0  0
  6  7  2  0  0  0
 11 10  1  0  0  0
  5 10  1  0  0  0
  5  2  2  0  0  0
  7  2  1  0  0  0
  7 22  1  0  0  0
 22 21  1  0  0  0
M  END
> <minimizedAffinity>
-6.23934

$$$$
