2WEC_PP5_A_326


 40 42  0  0  0  0  0  0  0  0999 V2000
   19.4793    7.6725   19.4927 C   0  0  0  0  0  0  0  0  0  0  0  0
   18.4406    7.9283   18.8258 O   0  0  0  0  0  0  0  0  0  0  0  0
   20.6181    7.1998   18.9795 N   0  0  0  0  0  0  0  0  0  0  0  0
   21.4117    7.0145   19.5317 H   0  0  0  0  0  0  0  0  0  0  0  0
   20.5952    6.9773   17.5261 C   0  0  0  0  0  0  0  0  0  0  0  0
   20.7408    5.2085   17.1069 P   0  0  0  0  0  0  0  0  0  0  0  0
   20.8994    5.0063   15.6725 O   0  0  0  0  0  0  0  0  0  0  0  0
   19.6986    4.4266   17.7498 O   0  0  0  0  0  0  0  0  0  0  0  0
   22.0138    4.8004   17.9202 O   0  0  0  0  0  0  0  0  0  0  0  0
   23.0854    4.2069   17.2052 C   0  0  0  0  0  0  0  0  0  0  0  0
   23.5055    2.9019   17.8645 C   0  0  0  0  0  0  0  0  0  0  0  0
   23.7759    2.7376   19.0376 O   0  0  0  0  0  0  0  0  0  0  0  0
   22.0602    1.0784   17.2719 C   0  0  0  0  0  0  0  0  0  0  0  0
   23.1893    1.9316   16.9623 O   0  0  0  0  0  0  0  0  0  0  0  0
   24.2686    5.1755   17.0853 C   0  0  0  0  0  0  0  0  0  0  0  0
   24.2384    6.3048   18.0747 C   0  0  0  0  0  0  0  0  0  0  0  0
   24.4193    6.0685   19.4414 C   0  0  0  0  0  0  0  0  0  0  0  0
   24.0394    7.6107   17.6426 C   0  0  0  0  0  0  0  0  0  0  0  0
   24.3895    7.1136   20.3547 C   0  0  0  0  0  0  0  0  0  0  0  0
   24.0151    8.6656   18.5540 C   0  0  0  0  0  0  0  0  0  0  0  0
   24.1891    8.4165   19.9100 C   0  0  0  0  0  0  0  0  0  0  0  0
   19.5842    7.8767   21.0228 C   0  0  0  0  0  0  0  0  0  0  0  0
   21.5055    8.7005   22.8136 O   0  0  0  0  0  0  0  0  0  0  0  0
   21.3904    9.5652   21.9440 C   0  0  0  0  0  0  0  0  0  0  0  0
   20.4324    9.0626   21.1697 N   0  0  0  0  0  0  0  0  0  0  0  0
   20.2223    9.7042   20.4532 H   0  0  0  0  0  0  0  0  0  0  0  0
   22.2859   10.7835   22.0561 C   0  0  0  0  0  0  0  0  0  0  0  0
   22.0789   11.5964   23.3342 C   0  0  0  0  0  0  0  0  0  0  0  0
   20.8008   12.0470   23.6214 C   0  0  0  0  0  0  0  0  0  0  0  0
   20.5324   12.8051   24.7865 C   0  0  0  0  0  0  0  0  0  0  0  0
   21.5277   13.1387   25.7046 C   0  0  0  0  0  0  0  0  0  0  0  0
   22.8853   12.6907   25.4398 C   0  0  0  0  0  0  0  0  0  0  0  0
   23.1560   11.9267   24.2649 C   0  0  0  0  0  0  0  0  0  0  0  0
   24.4914   11.4974   24.0284 C   0  0  0  0  0  0  0  0  0  0  0  0
   25.5307   11.7975   24.9010 C   0  0  0  0  0  0  0  0  0  0  0  0
   25.2692   12.5572   26.0575 C   0  0  0  0  0  0  0  0  0  0  0  0
   23.9772   12.9876   26.3082 C   0  0  0  0  0  0  0  0  0  0  0  0
   18.1057    8.0285   21.4030 C   0  0  0  0  0  0  0  0  0  0  0  0
   17.7519    6.5698   21.6896 C   0  0  0  0  0  0  0  0  0  0  0  0
   17.8396    8.6988   22.7493 C   0  0  0  0  0  0  0  0  0  0  0  0
 23 24  2  0  0  0
 28 29  2  0  0  0
 28 33  1  0  0  0
 28 27  1  0  0  0
 29 30  1  0  0  0
 30 31  2  0  0  0
 31 32  1  0  0  0
 32 33  2  0  0  0
 32 37  1  0  0  0
 33 34  1  0  0  0
 34 35  2  0  0  0
 35 36  1  0  0  0
 36 37  2  0  0  0
 27 24  1  0  0  0
 24 25  1  0  0  0
  5  3  1  0  0  0
  5  6  1  0  0  0
 25 22  1  0  0  0
 22  1  1  0  0  0
 22 38  1  0  0  0
  1  2  2  0  0  0
  1  3  1  0  0  0
 38 39  1  0  0  0
 38 40  1  0  0  0
  6  7  2  0  0  0
  6  8  1  0  0  0
  6  9  1  0  0  0
 10 15  1  0  0  0
 10 11  1  0  0  0
 10  9  1  0  0  0
 15 16  1  0  0  0
 16 17  2  0  0  0
 16 18  1  0  0  0
 17 19  1  0  0  0
 18 20  2  0  0  0
 19 21  2  0  0  0
 20 21  1  0  0  0
 11 14  1  0  0  0
 11 12  2  0  0  0
 13 14  1  0  0  0
 25 26  1  0  0  0
  3  4  1  0  0  0
M  CHG 1   8  -1
M  END
> <minimizedAffinity>
-9.67464

$$$$
2WEC_PP5_A_326


 40 42  0  0  0  0  0  0  0  0999 V2000
   23.3616    9.8017   21.0590 C   0  0  0  0  0  0  0  0  0  0  0  0
   23.7084   10.6748   20.2185 O   0  0  0  0  0  0  0  0  0  0  0  0
   23.3241    9.9881   22.3810 N   0  0  0  0  0  0  0  0  0  0  0  0
   23.0442    9.2826   23.0081 H   0  0  0  0  0  0  0  0  0  0  0  0
   23.7331   11.3280   22.8279 C   0  0  0  0  0  0  0  0  0  0  0  0
   22.3011   12.3536   23.2998 P   0  0  0  0  0  0  0  0  0  0  0  0
   21.0950   11.9560   22.5850 O   0  0  0  0  0  0  0  0  0  0  0  0
   22.6294   13.7683   23.2593 O   0  0  0  0  0  0  0  0  0  0  0  0
   22.2132   12.0754   24.8372 O   0  0  0  0  0  0  0  0  0  0  0  0
   22.6377   13.1058   25.7146 C   0  0  0  0  0  0  0  0  0  0  0  0
   23.7191   12.5922   26.6531 C   0  0  0  0  0  0  0  0  0  0  0  0
   23.8426   11.4546   27.0618 O   0  0  0  0  0  0  0  0  0  0  0  0
   25.6503   13.5394   25.5861 C   0  0  0  0  0  0  0  0  0  0  0  0
   24.6749   13.5627   26.6569 O   0  0  0  0  0  0  0  0  0  0  0  0
   21.4518   13.6845   26.4964 C   0  0  0  0  0  0  0  0  0  0  0  0
   20.3798   12.6819   26.8138 C   0  0  0  0  0  0  0  0  0  0  0  0
   20.4372   11.9130   27.9808 C   0  0  0  0  0  0  0  0  0  0  0  0
   19.3028   12.5102   25.9523 C   0  0  0  0  0  0  0  0  0  0  0  0
   19.4459   10.9857   28.2718 C   0  0  0  0  0  0  0  0  0  0  0  0
   18.3005   11.5853   26.2422 C   0  0  0  0  0  0  0  0  0  0  0  0
   18.3730   10.8225   27.4014 C   0  0  0  0  0  0  0  0  0  0  0  0
   22.9201    8.3703   20.6716 C   0  0  0  0  0  0  0  0  0  0  0  0
   20.7848    8.2996   22.4073 O   0  0  0  0  0  0  0  0  0  0  0  0
   20.3519    8.4758   21.2677 C   0  0  0  0  0  0  0  0  0  0  0  0
   21.4641    8.4672   20.5377 N   0  0  0  0  0  0  0  0  0  0  0  0
   21.2297    8.5561   19.5856 H   0  0  0  0  0  0  0  0  0  0  0  0
   18.8504    8.6168   21.1114 C   0  0  0  0  0  0  0  0  0  0  0  0
   18.0552    8.2670   22.3694 C   0  0  0  0  0  0  0  0  0  0  0  0
   18.6647    8.4524   23.5996 C   0  0  0  0  0  0  0  0  0  0  0  0
   17.9907    8.1507   24.8074 C   0  0  0  0  0  0  0  0  0  0  0  0
   16.6873    7.6555   24.8304 C   0  0  0  0  0  0  0  0  0  0  0  0
   16.0112    7.4405   23.5612 C   0  0  0  0  0  0  0  0  0  0  0  0
   16.6908    7.7442   22.3433 C   0  0  0  0  0  0  0  0  0  0  0  0
   16.0082    7.5279   21.1142 C   0  0  0  0  0  0  0  0  0  0  0  0
   14.7099    7.0342   21.0656 C   0  0  0  0  0  0  0  0  0  0  0  0
   14.0385    6.7266   22.2646 C   0  0  0  0  0  0  0  0  0  0  0  0
   14.6833    6.9273   23.4735 C   0  0  0  0  0  0  0  0  0  0  0  0
   23.7234    8.1517   19.3830 C   0  0  0  0  0  0  0  0  0  0  0  0
   24.7083    7.0848   19.8594 C   0  0  0  0  0  0  0  0  0  0  0  0
   22.9800    7.4307   18.2604 C   0  0  0  0  0  0  0  0  0  0  0  0
 23 24  2  0  0  0
 28 29  2  0  0  0
 28 33  1  0  0  0
 28 27  1  0  0  0
 29 30  1  0  0  0
 30 31  2  0  0  0
 31 32  1  0  0  0
 32 33  2  0  0  0
 32 37  1  0  0  0
 33 34  1  0  0  0
 34 35  2  0  0  0
 35 36  1  0  0  0
 36 37  2  0  0  0
 27 24  1  0  0  0
 24 25  1  0  0  0
  5  3  1  0  0  0
  5  6  1  0  0  0
 25 22  1  0  0  0
 22  1  1  0  0  0
 22 38  1  0  0  0
  1  2  2  0  0  0
  1  3  1  0  0  0
 38 39  1  0  0  0
 38 40  1  0  0  0
  6  7  2  0  0  0
  6  8  1  0  0  0
  6  9  1  0  0  0
 10 15  1  0  0  0
 10 11  1  0  0  0
 10  9  1  0  0  0
 15 16  1  0  0  0
 16 17  2  0  0  0
 16 18  1  0  0  0
 17 19  1  0  0  0
 18 20  2  0  0  0
 19 21  2  0  0  0
 20 21  1  0  0  0
 11 14  1  0  0  0
 11 12  2  0  0  0
 13 14  1  0  0  0
 25 26  1  0  0  0
  3  4  1  0  0  0
M  CHG 1   8  -1
M  END
> <minimizedAffinity>
-9.65316

$$$$
2WEC_PP5_A_326


 40 42  0  0  0  0  0  0  0  0999 V2000
   19.4332    7.5308   19.4998 C   0  0  0  0  0  0  0  0  0  0  0  0
   18.6742    8.1493   18.7059 O   0  0  0  0  0  0  0  0  0  0  0  0
   20.5207    6.8454   19.1373 N   0  0  0  0  0  0  0  0  0  0  0  0
   21.0927    6.3764   19.7869 H   0  0  0  0  0  0  0  0  0  0  0  0
   20.7979    6.8452   17.6932 C   0  0  0  0  0  0  0  0  0  0  0  0
   20.1268    5.3615   16.8725 P   0  0  0  0  0  0  0  0  0  0  0  0
   20.3708    5.3839   15.4359 O   0  0  0  0  0  0  0  0  0  0  0  0
   18.7568    5.1059   17.2828 O   0  0  0  0  0  0  0  0  0  0  0  0
   20.9119    4.2213   17.6021 O   0  0  0  0  0  0  0  0  0  0  0  0
   21.8194    3.4527   16.8292 C   0  0  0  0  0  0  0  0  0  0  0  0
   21.2015    2.1120   16.4621 C   0  0  0  0  0  0  0  0  0  0  0  0
   20.9482    1.7138   15.3424 O   0  0  0  0  0  0  0  0  0  0  0  0
   21.7263   -0.0263   17.4199 C   0  0  0  0  0  0  0  0  0  0  0  0
   21.3114    1.3516   17.5869 O   0  0  0  0  0  0  0  0  0  0  0  0
   23.1505    3.2678   17.5684 C   0  0  0  0  0  0  0  0  0  0  0  0
   23.7785    4.5516   18.0294 C   0  0  0  0  0  0  0  0  0  0  0  0
   23.9739    4.8085   19.3904 C   0  0  0  0  0  0  0  0  0  0  0  0
   24.1870    5.5046   17.1038 C   0  0  0  0  0  0  0  0  0  0  0  0
   24.5533    5.9966   19.8146 C   0  0  0  0  0  0  0  0  0  0  0  0
   24.7757    6.6969   17.5231 C   0  0  0  0  0  0  0  0  0  0  0  0
   24.9576    6.9430   18.8786 C   0  0  0  0  0  0  0  0  0  0  0  0
   19.2107    7.4805   21.0301 C   0  0  0  0  0  0  0  0  0  0  0  0
   21.3359    8.2845   22.5838 O   0  0  0  0  0  0  0  0  0  0  0  0
   20.7201    9.2876   22.2210 C   0  0  0  0  0  0  0  0  0  0  0  0
   19.7234    8.7665   21.5102 N   0  0  0  0  0  0  0  0  0  0  0  0
   19.1296    9.4892   21.2030 H   0  0  0  0  0  0  0  0  0  0  0  0
   21.2558   10.6312   22.6753 C   0  0  0  0  0  0  0  0  0  0  0  0
   20.4867   11.2484   23.8436 C   0  0  0  0  0  0  0  0  0  0  0  0
   19.3546   10.5926   24.2990 C   0  0  0  0  0  0  0  0  0  0  0  0
   18.5916   11.1038   25.3764 C   0  0  0  0  0  0  0  0  0  0  0  0
   18.9313   12.2843   26.0366 C   0  0  0  0  0  0  0  0  0  0  0  0
   20.1096   13.0083   25.5876 C   0  0  0  0  0  0  0  0  0  0  0  0
   20.8786   12.4932   24.5011 C   0  0  0  0  0  0  0  0  0  0  0  0
   22.0286   13.2178   24.0813 C   0  0  0  0  0  0  0  0  0  0  0  0
   22.4215   14.4020   24.6935 C   0  0  0  0  0  0  0  0  0  0  0  0
   21.6614   14.9173   25.7611 C   0  0  0  0  0  0  0  0  0  0  0  0
   20.5369   14.2304   26.1864 C   0  0  0  0  0  0  0  0  0  0  0  0
   17.6931    7.2672   21.1014 C   0  0  0  0  0  0  0  0  0  0  0  0
   17.6384    5.7402   21.1281 C   0  0  0  0  0  0  0  0  0  0  0  0
   17.0396    7.6397   22.4306 C   0  0  0  0  0  0  0  0  0  0  0  0
 23 24  2  0  0  0
 28 29  2  0  0  0
 28 33  1  0  0  0
 28 27  1  0  0  0
 29 30  1  0  0  0
 30 31  2  0  0  0
 31 32  1  0  0  0
 32 33  2  0  0  0
 32 37  1  0  0  0
 33 34  1  0  0  0
 34 35  2  0  0  0
 35 36  1  0  0  0
 36 37  2  0  0  0
 27 24  1  0  0  0
 24 25  1  0  0  0
  5  3  1  0  0  0
  5  6  1  0  0  0
 25 22  1  0  0  0
 22  1  1  0  0  0
 22 38  1  0  0  0
  1  2  2  0  0  0
  1  3  1  0  0  0
 38 39  1  0  0  0
 38 40  1  0  0  0
  6  7  2  0  0  0
  6  8  1  0  0  0
  6  9  1  0  0  0
 10 15  1  0  0  0
 10 11  1  0  0  0
 10  9  1  0  0  0
 15 16  1  0  0  0
 16 17  2  0  0  0
 16 18  1  0  0  0
 17 19  1  0  0  0
 18 20  2  0  0  0
 19 21  2  0  0  0
 20 21  1  0  0  0
 11 14  1  0  0  0
 11 12  2  0  0  0
 13 14  1  0  0  0
 25 26  1  0  0  0
  3  4  1  0  0  0
M  CHG 1   8  -1
M  END
> <minimizedAffinity>
-9.44894

$$$$
2WEC_PP5_A_326


 40 42  0  0  0  0  0  0  0  0999 V2000
   23.3501    9.6653   21.1045 C   0  0  0  0  0  0  0  0  0  0  0  0
   23.7359   10.5384   20.2812 O   0  0  0  0  0  0  0  0  0  0  0  0
   23.2456    9.8532   22.4227 N   0  0  0  0  0  0  0  0  0  0  0  0
   22.9369    9.1476   23.0359 H   0  0  0  0  0  0  0  0  0  0  0  0
   23.6272   11.1950   22.8876 C   0  0  0  0  0  0  0  0  0  0  0  0
   22.1724   12.1955   23.3437 P   0  0  0  0  0  0  0  0  0  0  0  0
   20.9670   11.7323   22.6683 O   0  0  0  0  0  0  0  0  0  0  0  0
   22.4558   13.6166   23.2393 O   0  0  0  0  0  0  0  0  0  0  0  0
   22.1197   11.9787   24.8925 O   0  0  0  0  0  0  0  0  0  0  0  0
   22.5606   13.0442   25.7183 C   0  0  0  0  0  0  0  0  0  0  0  0
   23.6956   12.5828   26.6200 C   0  0  0  0  0  0  0  0  0  0  0  0
   23.8544   11.4652   27.0698 O   0  0  0  0  0  0  0  0  0  0  0  0
   25.7110   13.3692   25.5784 C   0  0  0  0  0  0  0  0  0  0  0  0
   24.6381   13.5623   26.5324 O   0  0  0  0  0  0  0  0  0  0  0  0
   21.3991   13.6209   26.5374 C   0  0  0  0  0  0  0  0  0  0  0  0
   20.3250   12.6233   26.8634 C   0  0  0  0  0  0  0  0  0  0  0  0
   19.2290   12.4432   26.0132 C   0  0  0  0  0  0  0  0  0  0  0  0
   20.4104   11.8523   28.0166 C   0  0  0  0  0  0  0  0  0  0  0  0
   18.2363   11.5215   26.3170 C   0  0  0  0  0  0  0  0  0  0  0  0
   19.4202   10.9202   28.3240 C   0  0  0  0  0  0  0  0  0  0  0  0
   18.3327   10.7559   27.4745 C   0  0  0  0  0  0  0  0  0  0  0  0
   22.9335    8.2319   20.6975 C   0  0  0  0  0  0  0  0  0  0  0  0
   20.6620    8.2502   22.2521 O   0  0  0  0  0  0  0  0  0  0  0  0
   20.3264    8.3832   21.0745 C   0  0  0  0  0  0  0  0  0  0  0  0
   21.4947    8.3354   20.4398 N   0  0  0  0  0  0  0  0  0  0  0  0
   21.3405    8.3870   19.4689 H   0  0  0  0  0  0  0  0  0  0  0  0
   18.8446    8.5302   20.7890 C   0  0  0  0  0  0  0  0  0  0  0  0
   18.1495    7.2242   20.4037 C   0  0  0  0  0  0  0  0  0  0  0  0
   18.8280    6.3423   19.5785 C   0  0  0  0  0  0  0  0  0  0  0  0
   18.2484    5.1138   19.1797 C   0  0  0  0  0  0  0  0  0  0  0  0
   16.9744    4.7224   19.5902 C   0  0  0  0  0  0  0  0  0  0  0  0
   16.2241    5.6205   20.4529 C   0  0  0  0  0  0  0  0  0  0  0  0
   16.8082    6.8594   20.8547 C   0  0  0  0  0  0  0  0  0  0  0  0
   16.0559    7.7204   21.7010 C   0  0  0  0  0  0  0  0  0  0  0  0
   14.7801    7.3928   22.1442 C   0  0  0  0  0  0  0  0  0  0  0  0
   14.1973    6.1749   21.7443 C   0  0  0  0  0  0  0  0  0  0  0  0
   14.9098    5.3209   20.9193 C   0  0  0  0  0  0  0  0  0  0  0  0
   23.8413    7.9934   19.4840 C   0  0  0  0  0  0  0  0  0  0  0  0
   24.6423    6.7907   19.9812 C   0  0  0  0  0  0  0  0  0  0  0  0
   23.1468    7.4323   18.2448 C   0  0  0  0  0  0  0  0  0  0  0  0
 23 24  2  0  0  0
 28 29  2  0  0  0
 28 33  1  0  0  0
 28 27  1  0  0  0
 29 30  1  0  0  0
 30 31  2  0  0  0
 31 32  1  0  0  0
 32 33  2  0  0  0
 32 37  1  0  0  0
 33 34  1  0  0  0
 34 35  2  0  0  0
 35 36  1  0  0  0
 36 37  2  0  0  0
 27 24  1  0  0  0
 24 25  1  0  0  0
  5  3  1  0  0  0
  5  6  1  0  0  0
 25 22  1  0  0  0
 22  1  1  0  0  0
 22 38  1  0  0  0
  1  2  2  0  0  0
  1  3  1  0  0  0
 38 39  1  0  0  0
 38 40  1  0  0  0
  6  7  2  0  0  0
  6  8  1  0  0  0
  6  9  1  0  0  0
 10 15  1  0  0  0
 10 11  1  0  0  0
 10  9  1  0  0  0
 15 16  1  0  0  0
 16 17  2  0  0  0
 16 18  1  0  0  0
 17 19  1  0  0  0
 18 20  2  0  0  0
 19 21  2  0  0  0
 20 21  1  0  0  0
 11 14  1  0  0  0
 11 12  2  0  0  0
 13 14  1  0  0  0
 25 26  1  0  0  0
  3  4  1  0  0  0
M  CHG 1   8  -1
M  END
> <minimizedAffinity>
-9.39684

$$$$
2WEC_PP5_A_326


 40 42  0  0  0  0  0  0  0  0999 V2000
   20.1866    8.5276   21.8946 C   0  0  0  0  0  0  0  0  0  0  0  0
   20.0410    8.5044   23.1465 O   0  0  0  0  0  0  0  0  0  0  0  0
   21.3087    8.8835   21.2637 N   0  0  0  0  0  0  0  0  0  0  0  0
   21.3870    8.8864   20.2823 H   0  0  0  0  0  0  0  0  0  0  0  0
   22.4183    9.2706   22.1476 C   0  0  0  0  0  0  0  0  0  0  0  0
   22.8201   11.0430   21.9978 P   0  0  0  0  0  0  0  0  0  0  0  0
   21.8759   11.7379   21.1322 O   0  0  0  0  0  0  0  0  0  0  0  0
   24.2273   11.2411   21.6956 O   0  0  0  0  0  0  0  0  0  0  0  0
   22.7303   11.5088   23.4890 O   0  0  0  0  0  0  0  0  0  0  0  0
   23.0931   12.8488   23.7795 C   0  0  0  0  0  0  0  0  0  0  0  0
   24.1404   12.8884   24.8821 C   0  0  0  0  0  0  0  0  0  0  0  0
   24.7070   13.8756   25.3074 O   0  0  0  0  0  0  0  0  0  0  0  0
   24.5584   11.5801   26.8516 C   0  0  0  0  0  0  0  0  0  0  0  0
   24.0527   11.6764   25.4975 O   0  0  0  0  0  0  0  0  0  0  0  0
   21.8610   13.6827   24.1526 C   0  0  0  0  0  0  0  0  0  0  0  0
   20.7614   12.8934   24.8030 C   0  0  0  0  0  0  0  0  0  0  0  0
   20.7214   12.7248   26.1909 C   0  0  0  0  0  0  0  0  0  0  0  0
   19.7554   12.3244   24.0311 C   0  0  0  0  0  0  0  0  0  0  0  0
   19.7048   11.9935   26.7902 C   0  0  0  0  0  0  0  0  0  0  0  0
   18.7280   11.5946   24.6274 C   0  0  0  0  0  0  0  0  0  0  0  0
   18.7036   11.4284   26.0068 C   0  0  0  0  0  0  0  0  0  0  0  0
   19.0700    8.1378   20.8971 C   0  0  0  0  0  0  0  0  0  0  0  0
   18.7312    7.8525   18.1803 O   0  0  0  0  0  0  0  0  0  0  0  0
   19.7406    7.2295   18.5123 C   0  0  0  0  0  0  0  0  0  0  0  0
   19.7757    7.4271   19.8275 N   0  0  0  0  0  0  0  0  0  0  0  0
   20.5313    6.9268   20.2121 H   0  0  0  0  0  0  0  0  0  0  0  0
   20.5074    6.5180   17.4148 C   0  0  0  0  0  0  0  0  0  0  0  0
   21.7467    5.7678   17.9033 C   0  0  0  0  0  0  0  0  0  0  0  0
   21.7359    4.3836   17.8481 C   0  0  0  0  0  0  0  0  0  0  0  0
   22.8468    3.6213   18.2826 C   0  0  0  0  0  0  0  0  0  0  0  0
   24.0057    4.2121   18.7855 C   0  0  0  0  0  0  0  0  0  0  0  0
   24.0582    5.6628   18.8663 C   0  0  0  0  0  0  0  0  0  0  0  0
   22.9379    6.4315   18.4286 C   0  0  0  0  0  0  0  0  0  0  0  0
   23.0136    7.8494   18.5151 C   0  0  0  0  0  0  0  0  0  0  0  0
   24.1371    8.5018   19.0087 C   0  0  0  0  0  0  0  0  0  0  0  0
   25.2416    7.7469   19.4482 C   0  0  0  0  0  0  0  0  0  0  0  0
   25.1906    6.3651   19.3752 C   0  0  0  0  0  0  0  0  0  0  0  0
   18.1488    7.3029   21.7959 C   0  0  0  0  0  0  0  0  0  0  0  0
   16.8732    8.1413   21.7241 C   0  0  0  0  0  0  0  0  0  0  0  0
   17.6943    5.9676   21.2102 C   0  0  0  0  0  0  0  0  0  0  0  0
 23 24  2  0  0  0
 28 29  2  0  0  0
 28 33  1  0  0  0
 28 27  1  0  0  0
 29 30  1  0  0  0
 30 31  2  0  0  0
 31 32  1  0  0  0
 32 33  2  0  0  0
 32 37  1  0  0  0
 33 34  1  0  0  0
 34 35  2  0  0  0
 35 36  1  0  0  0
 36 37  2  0  0  0
 27 24  1  0  0  0
 24 25  1  0  0  0
  5  3  1  0  0  0
  5  6  1  0  0  0
 25 22  1  0  0  0
 22  1  1  0  0  0
 22 38  1  0  0  0
  1  2  2  0  0  0
  1  3  1  0  0  0
 38 39  1  0  0  0
 38 40  1  0  0  0
  6  7  2  0  0  0
  6  8  1  0  0  0
  6  9  1  0  0  0
 10 15  1  0  0  0
 10 11  1  0  0  0
 10  9  1  0  0  0
 15 16  1  0  0  0
 16 17  2  0  0  0
 16 18  1  0  0  0
 17 19  1  0  0  0
 18 20  2  0  0  0
 19 21  2  0  0  0
 20 21  1  0  0  0
 11 14  1  0  0  0
 11 12  2  0  0  0
 13 14  1  0  0  0
 25 26  1  0  0  0
  3  4  1  0  0  0
M  CHG 1   8  -1
M  END
> <minimizedAffinity>
-9.34638

$$$$
2WEC_PP5_A_326


 40 42  0  0  0  0  0  0  0  0999 V2000
   20.0340    8.8837   22.0384 C   0  0  0  0  0  0  0  0  0  0  0  0
   19.9260    8.8215   23.2928 O   0  0  0  0  0  0  0  0  0  0  0  0
   21.0923    9.3733   21.3873 N   0  0  0  0  0  0  0  0  0  0  0  0
   21.1429    9.4028   20.4045 H   0  0  0  0  0  0  0  0  0  0  0  0
   22.1761    9.8648   22.2511 C   0  0  0  0  0  0  0  0  0  0  0  0
   22.9055   11.4098   21.6138 P   0  0  0  0  0  0  0  0  0  0  0  0
   22.1103   11.9741   20.5308 O   0  0  0  0  0  0  0  0  0  0  0  0
   24.3250   11.2524   21.3477 O   0  0  0  0  0  0  0  0  0  0  0  0
   22.9039   12.3060   22.8966 O   0  0  0  0  0  0  0  0  0  0  0  0
   22.0399   11.9304   23.9568 C   0  0  0  0  0  0  0  0  0  0  0  0
   20.8607   12.8874   24.0455 C   0  0  0  0  0  0  0  0  0  0  0  0
   20.0852   13.1656   23.1523 O   0  0  0  0  0  0  0  0  0  0  0  0
   20.1960   14.3930   25.7937 C   0  0  0  0  0  0  0  0  0  0  0  0
   20.6662   13.0872   25.3788 O   0  0  0  0  0  0  0  0  0  0  0  0
   22.8008   11.8609   25.2868 C   0  0  0  0  0  0  0  0  0  0  0  0
   24.2227   12.3367   25.2044 C   0  0  0  0  0  0  0  0  0  0  0  0
   24.5757   13.6236   25.6235 C   0  0  0  0  0  0  0  0  0  0  0  0
   25.2165   11.4961   24.7173 C   0  0  0  0  0  0  0  0  0  0  0  0
   25.8905   14.0622   25.5452 C   0  0  0  0  0  0  0  0  0  0  0  0
   26.5401   11.9282   24.6424 C   0  0  0  0  0  0  0  0  0  0  0  0
   26.8764   13.2116   25.0554 C   0  0  0  0  0  0  0  0  0  0  0  0
   18.9404    8.3908   21.0612 C   0  0  0  0  0  0  0  0  0  0  0  0
   18.3428    7.7143   18.4608 O   0  0  0  0  0  0  0  0  0  0  0  0
   19.5420    7.5063   18.6491 C   0  0  0  0  0  0  0  0  0  0  0  0
   19.6912    7.8462   19.9268 N   0  0  0  0  0  0  0  0  0  0  0  0
   20.6201    7.6735   20.2036 H   0  0  0  0  0  0  0  0  0  0  0  0
   20.3459    6.9785   17.4770 C   0  0  0  0  0  0  0  0  0  0  0  0
   21.5210    6.0856   17.8761 C   0  0  0  0  0  0  0  0  0  0  0  0
   21.3956    4.7188   17.6883 C   0  0  0  0  0  0  0  0  0  0  0  0
   22.4416    3.8297   18.0340 C   0  0  0  0  0  0  0  0  0  0  0  0
   23.6473    4.2722   18.5773 C   0  0  0  0  0  0  0  0  0  0  0  0
   23.8198    5.6992   18.7965 C   0  0  0  0  0  0  0  0  0  0  0  0
   22.7651    6.5957   18.4483 C   0  0  0  0  0  0  0  0  0  0  0  0
   22.9580    7.9876   18.6697 C   0  0  0  0  0  0  0  0  0  0  0  0
   24.1336    8.4951   19.2101 C   0  0  0  0  0  0  0  0  0  0  0  0
   25.1738    7.6134   19.5616 C   0  0  0  0  0  0  0  0  0  0  0  0
   25.0085    6.2539   19.3568 C   0  0  0  0  0  0  0  0  0  0  0  0
   18.1873    7.3860   21.9426 C   0  0  0  0  0  0  0  0  0  0  0  0
   16.8099    8.0464   21.9844 C   0  0  0  0  0  0  0  0  0  0  0  0
   17.8830    6.0391   21.2898 C   0  0  0  0  0  0  0  0  0  0  0  0
 23 24  2  0  0  0
 28 29  2  0  0  0
 28 33  1  0  0  0
 28 27  1  0  0  0
 29 30  1  0  0  0
 30 31  2  0  0  0
 31 32  1  0  0  0
 32 33  2  0  0  0
 32 37  1  0  0  0
 33 34  1  0  0  0
 34 35  2  0  0  0
 35 36  1  0  0  0
 36 37  2  0  0  0
 27 24  1  0  0  0
 24 25  1  0  0  0
  5  3  1  0  0  0
  5  6  1  0  0  0
 25 22  1  0  0  0
 22  1  1  0  0  0
 22 38  1  0  0  0
  1  2  2  0  0  0
  1  3  1  0  0  0
 38 39  1  0  0  0
 38 40  1  0  0  0
  6  7  2  0  0  0
  6  8  1  0  0  0
  6  9  1  0  0  0
 10 15  1  0  0  0
 10 11  1  0  0  0
 10  9  1  0  0  0
 15 16  1  0  0  0
 16 17  2  0  0  0
 16 18  1  0  0  0
 17 19  1  0  0  0
 18 20  2  0  0  0
 19 21  2  0  0  0
 20 21  1  0  0  0
 11 14  1  0  0  0
 11 12  2  0  0  0
 13 14  1  0  0  0
 25 26  1  0  0  0
  3  4  1  0  0  0
M  CHG 1   8  -1
M  END
> <minimizedAffinity>
-9.32019

$$$$
2WEC_PP5_A_326


 40 42  0  0  0  0  0  0  0  0999 V2000
   22.1552    9.5771   21.9067 C   0  0  0  0  0  0  0  0  0  0  0  0
   22.2196    8.5792   22.6742 O   0  0  0  0  0  0  0  0  0  0  0  0
   22.2304    9.5209   20.5745 N   0  0  0  0  0  0  0  0  0  0  0  0
   22.1728   10.3226   20.0059 H   0  0  0  0  0  0  0  0  0  0  0  0
   22.4060    8.1694   20.0221 C   0  0  0  0  0  0  0  0  0  0  0  0
   23.9362    8.0301   19.0401 P   0  0  0  0  0  0  0  0  0  0  0  0
   24.8424    7.0321   19.5938 O   0  0  0  0  0  0  0  0  0  0  0  0
   24.5126    9.3367   18.7733 O   0  0  0  0  0  0  0  0  0  0  0  0
   23.3701    7.6228   17.6393 O   0  0  0  0  0  0  0  0  0  0  0  0
   22.7939    6.3326   17.5157 C   0  0  0  0  0  0  0  0  0  0  0  0
   23.6944    5.4255   16.6909 C   0  0  0  0  0  0  0  0  0  0  0  0
   24.6309    5.7709   15.9980 O   0  0  0  0  0  0  0  0  0  0  0  0
   23.6880    3.9182   18.5599 C   0  0  0  0  0  0  0  0  0  0  0  0
   23.4491    4.1678   17.1531 O   0  0  0  0  0  0  0  0  0  0  0  0
   21.3859    6.4156   16.9128 C   0  0  0  0  0  0  0  0  0  0  0  0
   20.2920    5.9950   17.8517 C   0  0  0  0  0  0  0  0  0  0  0  0
   19.5140    6.9453   18.5210 C   0  0  0  0  0  0  0  0  0  0  0  0
   20.0283    4.6467   18.0623 C   0  0  0  0  0  0  0  0  0  0  0  0
   18.5041    6.5544   19.3897 C   0  0  0  0  0  0  0  0  0  0  0  0
   19.0111    4.2476   18.9283 C   0  0  0  0  0  0  0  0  0  0  0  0
   18.2500    5.2018   19.5926 C   0  0  0  0  0  0  0  0  0  0  0  0
   21.9734   11.0298   22.4074 C   0  0  0  0  0  0  0  0  0  0  0  0
   19.8905   12.6563   23.1774 O   0  0  0  0  0  0  0  0  0  0  0  0
   19.8304   11.6143   23.8314 C   0  0  0  0  0  0  0  0  0  0  0  0
   20.8869   10.9391   23.3864 N   0  0  0  0  0  0  0  0  0  0  0  0
   20.9652   10.0924   23.8826 H   0  0  0  0  0  0  0  0  0  0  0  0
   18.6912   11.4840   24.8234 C   0  0  0  0  0  0  0  0  0  0  0  0
   19.1420   11.2841   26.2705 C   0  0  0  0  0  0  0  0  0  0  0  0
   19.9984   12.2224   26.8230 C   0  0  0  0  0  0  0  0  0  0  0  0
   20.4580   12.1037   28.1568 C   0  0  0  0  0  0  0  0  0  0  0  0
   20.0792   11.0474   28.9847 C   0  0  0  0  0  0  0  0  0  0  0  0
   19.1853   10.0364   28.4436 C   0  0  0  0  0  0  0  0  0  0  0  0
   18.7223   10.1557   27.0987 C   0  0  0  0  0  0  0  0  0  0  0  0
   17.8465    9.1556   26.5923 C   0  0  0  0  0  0  0  0  0  0  0  0
   17.4322    8.0756   27.3626 C   0  0  0  0  0  0  0  0  0  0  0  0
   17.8925    7.9503   28.6876 C   0  0  0  0  0  0  0  0  0  0  0  0
   18.7470    8.9107   29.2022 C   0  0  0  0  0  0  0  0  0  0  0  0
   23.3755   11.3326   22.9514 C   0  0  0  0  0  0  0  0  0  0  0  0
   23.7853   12.4702   22.0169 C   0  0  0  0  0  0  0  0  0  0  0  0
   23.4166   12.0061   24.3216 C   0  0  0  0  0  0  0  0  0  0  0  0
 23 24  2  0  0  0
 28 29  2  0  0  0
 28 33  1  0  0  0
 28 27  1  0  0  0
 29 30  1  0  0  0
 30 31  2  0  0  0
 31 32  1  0  0  0
 32 33  2  0  0  0
 32 37  1  0  0  0
 33 34  1  0  0  0
 34 35  2  0  0  0
 35 36  1  0  0  0
 36 37  2  0  0  0
 27 24  1  0  0  0
 24 25  1  0  0  0
  5  3  1  0  0  0
  5  6  1  0  0  0
 25 22  1  0  0  0
 22  1  1  0  0  0
 22 38  1  0  0  0
  1  2  2  0  0  0
  1  3  1  0  0  0
 38 39  1  0  0  0
 38 40  1  0  0  0
  6  7  2  0  0  0
  6  8  1  0  0  0
  6  9  1  0  0  0
 10 15  1  0  0  0
 10 11  1  0  0  0
 10  9  1  0  0  0
 15 16  1  0  0  0
 16 17  2  0  0  0
 16 18  1  0  0  0
 17 19  1  0  0  0
 18 20  2  0  0  0
 19 21  2  0  0  0
 20 21  1  0  0  0
 11 14  1  0  0  0
 11 12  2  0  0  0
 13 14  1  0  0  0
 25 26  1  0  0  0
  3  4  1  0  0  0
M  CHG 1   8  -1
M  END
> <minimizedAffinity>
-9.29828

$$$$
2WEC_PP5_A_326


 40 42  0  0  0  0  0  0  0  0999 V2000
   18.9969    8.0980   20.6782 C   0  0  0  0  0  0  0  0  0  0  0  0
   17.8754    8.4878   20.2546 O   0  0  0  0  0  0  0  0  0  0  0  0
   19.8487    7.3339   19.9895 N   0  0  0  0  0  0  0  0  0  0  0  0
   20.7192    7.0511   20.3520 H   0  0  0  0  0  0  0  0  0  0  0  0
   19.3864    6.9476   18.6481 C   0  0  0  0  0  0  0  0  0  0  0  0
   18.9142    5.1879   18.5726 P   0  0  0  0  0  0  0  0  0  0  0  0
   17.8364    4.9600   17.6185 O   0  0  0  0  0  0  0  0  0  0  0  0
   18.7157    4.6375   19.9024 O   0  0  0  0  0  0  0  0  0  0  0  0
   20.2613    4.5235   18.1341 O   0  0  0  0  0  0  0  0  0  0  0  0
   21.1994    5.3361   17.4475 C   0  0  0  0  0  0  0  0  0  0  0  0
   21.0107    5.2101   15.9433 C   0  0  0  0  0  0  0  0  0  0  0  0
   20.3085    4.4032   15.3667 O   0  0  0  0  0  0  0  0  0  0  0  0
   20.7308    7.5745   15.6326 C   0  0  0  0  0  0  0  0  0  0  0  0
   21.5064    6.3685   15.4259 O   0  0  0  0  0  0  0  0  0  0  0  0
   22.6347    4.9855   17.8592 C   0  0  0  0  0  0  0  0  0  0  0  0
   23.3829    6.1199   18.4984 C   0  0  0  0  0  0  0  0  0  0  0  0
   24.4855    5.8790   19.3246 C   0  0  0  0  0  0  0  0  0  0  0  0
   22.9945    7.4343   18.2681 C   0  0  0  0  0  0  0  0  0  0  0  0
   25.1749    6.9289   19.9158 C   0  0  0  0  0  0  0  0  0  0  0  0
   23.6868    8.4936   18.8534 C   0  0  0  0  0  0  0  0  0  0  0  0
   24.7763    8.2404   19.6781 C   0  0  0  0  0  0  0  0  0  0  0  0
   19.5549    8.4583   22.0756 C   0  0  0  0  0  0  0  0  0  0  0  0
   22.0267    9.1106   23.0960 O   0  0  0  0  0  0  0  0  0  0  0  0
   21.7598    9.9029   22.1915 C   0  0  0  0  0  0  0  0  0  0  0  0
   20.5522    9.4977   21.8072 N   0  0  0  0  0  0  0  0  0  0  0  0
   20.2145   10.0998   21.1053 H   0  0  0  0  0  0  0  0  0  0  0  0
   22.7950   10.9635   21.8719 C   0  0  0  0  0  0  0  0  0  0  0  0
   23.2852   11.7461   23.0903 C   0  0  0  0  0  0  0  0  0  0  0  0
   24.6149   11.6178   23.4569 C   0  0  0  0  0  0  0  0  0  0  0  0
   25.1405   12.3116   24.5734 C   0  0  0  0  0  0  0  0  0  0  0  0
   24.3596   13.1569   25.3611 C   0  0  0  0  0  0  0  0  0  0  0  0
   22.9564   13.3169   25.0154 C   0  0  0  0  0  0  0  0  0  0  0  0
   22.4264   12.6170   23.8900 C   0  0  0  0  0  0  0  0  0  0  0  0
   21.0513   12.7912   23.5698 C   0  0  0  0  0  0  0  0  0  0  0  0
   20.2168   13.6162   24.3144 C   0  0  0  0  0  0  0  0  0  0  0  0
   20.7341   14.3029   25.4298 C   0  0  0  0  0  0  0  0  0  0  0  0
   22.0694   14.1478   25.7620 C   0  0  0  0  0  0  0  0  0  0  0  0
   18.2755    8.8937   22.8016 C   0  0  0  0  0  0  0  0  0  0  0  0
   18.0664    7.6906   23.7203 C   0  0  0  0  0  0  0  0  0  0  0  0
   18.4435   10.0390   23.7979 C   0  0  0  0  0  0  0  0  0  0  0  0
 23 24  2  0  0  0
 28 29  2  0  0  0
 28 33  1  0  0  0
 28 27  1  0  0  0
 29 30  1  0  0  0
 30 31  2  0  0  0
 31 32  1  0  0  0
 32 33  2  0  0  0
 32 37  1  0  0  0
 33 34  1  0  0  0
 34 35  2  0  0  0
 35 36  1  0  0  0
 36 37  2  0  0  0
 27 24  1  0  0  0
 24 25  1  0  0  0
  5  3  1  0  0  0
  5  6  1  0  0  0
 25 22  1  0  0  0
 22  1  1  0  0  0
 22 38  1  0  0  0
  1  2  2  0  0  0
  1  3  1  0  0  0
 38 39  1  0  0  0
 38 40  1  0  0  0
  6  7  2  0  0  0
  6  8  1  0  0  0
  6  9  1  0  0  0
 10 15  1  0  0  0
 10 11  1  0  0  0
 10  9  1  0  0  0
 15 16  1  0  0  0
 16 17  2  0  0  0
 16 18  1  0  0  0
 17 19  1  0  0  0
 18 20  2  0  0  0
 19 21  2  0  0  0
 20 21  1  0  0  0
 11 14  1  0  0  0
 11 12  2  0  0  0
 13 14  1  0  0  0
 25 26  1  0  0  0
  3  4  1  0  0  0
M  CHG 1   8  -1
M  END
> <minimizedAffinity>
-9.28696

$$$$
2WEC_PP5_A_326


 40 42  0  0  0  0  0  0  0  0999 V2000
   21.7406    8.6554   21.5150 C   0  0  0  0  0  0  0  0  0  0  0  0
   22.0631    7.8964   22.4684 O   0  0  0  0  0  0  0  0  0  0  0  0
   20.5128    9.1376   21.3057 N   0  0  0  0  0  0  0  0  0  0  0  0
   20.2982    9.7318   20.5506 H   0  0  0  0  0  0  0  0  0  0  0  0
   19.5061    8.7127   22.2898 C   0  0  0  0  0  0  0  0  0  0  0  0
   19.3221    9.9242   23.6403 P   0  0  0  0  0  0  0  0  0  0  0  0
   18.2632   10.8856   23.3607 O   0  0  0  0  0  0  0  0  0  0  0  0
   20.6062   10.4838   24.0254 O   0  0  0  0  0  0  0  0  0  0  0  0
   18.9882    8.9909   24.8511 O   0  0  0  0  0  0  0  0  0  0  0  0
   17.6194    8.7791   25.1568 C   0  0  0  0  0  0  0  0  0  0  0  0
   17.3296    9.1742   26.5970 C   0  0  0  0  0  0  0  0  0  0  0  0
   16.2671    9.0682   27.1770 O   0  0  0  0  0  0  0  0  0  0  0  0
   18.8400   10.6318   27.7627 C   0  0  0  0  0  0  0  0  0  0  0  0
   18.5533    9.3407   27.1717 O   0  0  0  0  0  0  0  0  0  0  0  0
   17.2153    7.3243   24.8871 C   0  0  0  0  0  0  0  0  0  0  0  0
   15.9779    7.1778   24.0489 C   0  0  0  0  0  0  0  0  0  0  0  0
   14.7484    6.8545   24.6322 C   0  0  0  0  0  0  0  0  0  0  0  0
   16.0350    7.3729   22.6740 C   0  0  0  0  0  0  0  0  0  0  0  0
   13.6059    6.7181   23.8554 C   0  0  0  0  0  0  0  0  0  0  0  0
   14.8898    7.2440   21.8892 C   0  0  0  0  0  0  0  0  0  0  0  0
   13.6758    6.9155   22.4801 C   0  0  0  0  0  0  0  0  0  0  0  0
   22.7377    9.1460   20.4384 C   0  0  0  0  0  0  0  0  0  0  0  0
   22.2344   11.7808   21.0559 O   0  0  0  0  0  0  0  0  0  0  0  0
   23.3548   11.4915   21.4777 C   0  0  0  0  0  0  0  0  0  0  0  0
   23.4804   10.2219   21.1002 N   0  0  0  0  0  0  0  0  0  0  0  0
   24.3748    9.8947   21.3498 H   0  0  0  0  0  0  0  0  0  0  0  0
   24.1255   12.5796   22.1993 C   0  0  0  0  0  0  0  0  0  0  0  0
   24.0662   12.4818   23.7239 C   0  0  0  0  0  0  0  0  0  0  0  0
   25.1169   11.8611   24.3795 C   0  0  0  0  0  0  0  0  0  0  0  0
   25.1317   11.7333   25.7894 C   0  0  0  0  0  0  0  0  0  0  0  0
   24.1013   12.2203   26.5930 C   0  0  0  0  0  0  0  0  0  0  0  0
   22.9755   12.8745   25.9459 C   0  0  0  0  0  0  0  0  0  0  0  0
   22.9603   13.0029   24.5244 C   0  0  0  0  0  0  0  0  0  0  0  0
   21.8495   13.6489   23.9142 C   0  0  0  0  0  0  0  0  0  0  0  0
   20.7883   14.1543   24.6557 C   0  0  0  0  0  0  0  0  0  0  0  0
   20.7960   14.0233   26.0578 C   0  0  0  0  0  0  0  0  0  0  0  0
   21.8659   13.3967   26.6743 C   0  0  0  0  0  0  0  0  0  0  0  0
   23.5073    7.8535   20.1373 C   0  0  0  0  0  0  0  0  0  0  0  0
   22.7182    7.3470   18.9307 C   0  0  0  0  0  0  0  0  0  0  0  0
   24.9065    8.0431   19.5551 C   0  0  0  0  0  0  0  0  0  0  0  0
 23 24  2  0  0  0
 28 29  2  0  0  0
 28 33  1  0  0  0
 28 27  1  0  0  0
 29 30  1  0  0  0
 30 31  2  0  0  0
 31 32  1  0  0  0
 32 33  2  0  0  0
 32 37  1  0  0  0
 33 34  1  0  0  0
 34 35  2  0  0  0
 35 36  1  0  0  0
 36 37  2  0  0  0
 27 24  1  0  0  0
 24 25  1  0  0  0
  5  3  1  0  0  0
  5  6  1  0  0  0
 25 22  1  0  0  0
 22  1  1  0  0  0
 22 38  1  0  0  0
  1  2  2  0  0  0
  1  3  1  0  0  0
 38 39  1  0  0  0
 38 40  1  0  0  0
  6  7  2  0  0  0
  6  8  1  0  0  0
  6  9  1  0  0  0
 10 15  1  0  0  0
 10 11  1  0  0  0
 10  9  1  0  0  0
 15 16  1  0  0  0
 16 17  2  0  0  0
 16 18  1  0  0  0
 17 19  1  0  0  0
 18 20  2  0  0  0
 19 21  2  0  0  0
 20 21  1  0  0  0
 11 14  1  0  0  0
 11 12  2  0  0  0
 13 14  1  0  0  0
 25 26  1  0  0  0
  3  4  1  0  0  0
M  CHG 1   8  -1
M  END
> <minimizedAffinity>
-9.26000

$$$$
2WEC_PP5_A_326


 40 42  0  0  0  0  0  0  0  0999 V2000
   19.4787    7.3310   19.7250 C   0  0  0  0  0  0  0  0  0  0  0  0
   20.6579    7.7655   19.8238 O   0  0  0  0  0  0  0  0  0  0  0  0
   18.9279    6.8693   18.5993 N   0  0  0  0  0  0  0  0  0  0  0  0
   18.0030    6.5342   18.5605 H   0  0  0  0  0  0  0  0  0  0  0  0
   19.8090    6.9000   17.4225 C   0  0  0  0  0  0  0  0  0  0  0  0
   20.2118    5.2228   16.8311 P   0  0  0  0  0  0  0  0  0  0  0  0
   20.4348    5.1986   15.3912 O   0  0  0  0  0  0  0  0  0  0  0  0
   19.2730    4.2417   17.3476 O   0  0  0  0  0  0  0  0  0  0  0  0
   21.5077    4.9078   17.6497 O   0  0  0  0  0  0  0  0  0  0  0  0
   22.4983    4.1074   17.0255 C   0  0  0  0  0  0  0  0  0  0  0  0
   22.6392    2.7766   17.7488 C   0  0  0  0  0  0  0  0  0  0  0  0
   22.5986    2.5974   18.9500 O   0  0  0  0  0  0  0  0  0  0  0  0
   21.1322    1.3671   16.5210 C   0  0  0  0  0  0  0  0  0  0  0  0
   22.4798    1.8297   16.7826 O   0  0  0  0  0  0  0  0  0  0  0  0
   23.8398    4.8479   16.9571 C   0  0  0  0  0  0  0  0  0  0  0  0
   23.9830    5.9501   17.9670 C   0  0  0  0  0  0  0  0  0  0  0  0
   23.7411    7.2824   17.6165 C   0  0  0  0  0  0  0  0  0  0  0  0
   24.3502    5.6591   19.2755 C   0  0  0  0  0  0  0  0  0  0  0  0
   23.8755    8.3000   18.5511 C   0  0  0  0  0  0  0  0  0  0  0  0
   24.4803    6.6758   20.2206 C   0  0  0  0  0  0  0  0  0  0  0  0
   24.2439    7.9963   19.8577 C   0  0  0  0  0  0  0  0  0  0  0  0
   18.4893    7.2670   20.9128 C   0  0  0  0  0  0  0  0  0  0  0  0
   18.9651    8.0047   23.5216 O   0  0  0  0  0  0  0  0  0  0  0  0
   18.9479    9.0226   22.8283 C   0  0  0  0  0  0  0  0  0  0  0  0
   18.6907    8.5360   21.6170 N   0  0  0  0  0  0  0  0  0  0  0  0
   18.6077    9.2802   20.9778 H   0  0  0  0  0  0  0  0  0  0  0  0
   19.1919   10.3436   23.5313 C   0  0  0  0  0  0  0  0  0  0  0  0
   20.6406   10.8279   23.4670 C   0  0  0  0  0  0  0  0  0  0  0  0
   21.5691   10.0257   22.8239 C   0  0  0  0  0  0  0  0  0  0  0  0
   22.9285   10.4083   22.7245 C   0  0  0  0  0  0  0  0  0  0  0  0
   23.4080   11.6028   23.2612 C   0  0  0  0  0  0  0  0  0  0  0  0
   22.4686   12.4730   23.9499 C   0  0  0  0  0  0  0  0  0  0  0  0
   21.0981   12.0871   24.0505 C   0  0  0  0  0  0  0  0  0  0  0  0
   20.1973   12.9559   24.7267 C   0  0  0  0  0  0  0  0  0  0  0  0
   20.6096   14.1592   25.2868 C   0  0  0  0  0  0  0  0  0  0  0  0
   21.9622   14.5403   25.1960 C   0  0  0  0  0  0  0  0  0  0  0  0
   22.8582   13.7100   24.5438 C   0  0  0  0  0  0  0  0  0  0  0  0
   17.1555    7.0847   20.1770 C   0  0  0  0  0  0  0  0  0  0  0  0
   16.6531    5.8061   20.8463 C   0  0  0  0  0  0  0  0  0  0  0  0
   16.0644    8.0910   20.5369 C   0  0  0  0  0  0  0  0  0  0  0  0
 23 24  2  0  0  0
 28 29  2  0  0  0
 28 33  1  0  0  0
 28 27  1  0  0  0
 29 30  1  0  0  0
 30 31  2  0  0  0
 31 32  1  0  0  0
 32 33  2  0  0  0
 32 37  1  0  0  0
 33 34  1  0  0  0
 34 35  2  0  0  0
 35 36  1  0  0  0
 36 37  2  0  0  0
 27 24  1  0  0  0
 24 25  1  0  0  0
  5  3  1  0  0  0
  5  6  1  0  0  0
 25 22  1  0  0  0
 22  1  1  0  0  0
 22 38  1  0  0  0
  1  2  2  0  0  0
  1  3  1  0  0  0
 38 39  1  0  0  0
 38 40  1  0  0  0
  6  7  2  0  0  0
  6  8  1  0  0  0
  6  9  1  0  0  0
 10 15  1  0  0  0
 10 11  1  0  0  0
 10  9  1  0  0  0
 15 16  1  0  0  0
 16 17  2  0  0  0
 16 18  1  0  0  0
 17 19  1  0  0  0
 18 20  2  0  0  0
 19 21  2  0  0  0
 20 21  1  0  0  0
 11 14  1  0  0  0
 11 12  2  0  0  0
 13 14  1  0  0  0
 25 26  1  0  0  0
  3  4  1  0  0  0
M  CHG 1   8  -1
M  END
> <minimizedAffinity>
-9.14935

$$$$
