2ZZ2_6CN_A_301


 28 29  0  0  0  0  0  0  0  0999 V2000
   24.7339  -18.5175   11.9251 C   0  0  0  0  0  0  0  0  0  0  0  0
   24.2619  -17.3441   12.7679 C   0  0  0  0  0  0  0  0  0  0  0  0
   23.0479  -17.7922   13.4471 O   0  0  0  0  0  0  0  0  0  0  0  0
   25.3837  -17.2147   13.8099 C   0  0  0  0  0  0  0  0  0  0  0  0
   24.8925  -16.6111   15.0050 O   0  0  0  0  0  0  0  0  0  0  0  0
   25.5680  -19.3314   12.7834 O   0  0  0  0  0  0  0  0  0  0  0  0
   25.7679  -18.6592   14.0549 C   0  0  0  0  0  0  0  0  0  0  0  0
   23.2316  -18.6133   13.9296 H   0  0  0  0  0  0  0  0  0  0  0  0
   24.1443  -17.1271   15.3439 H   0  0  0  0  0  0  0  0  0  0  0  0
   27.1792  -18.8416   14.4717 N   0  0  0  0  0  0  0  0  0  0  0  0
   27.4452  -19.7566   15.4665 C   0  0  0  0  0  0  0  0  0  0  0  0
   28.7749  -19.9591   15.8809 C   0  0  0  0  0  0  0  0  0  0  0  0
   29.7846  -19.2351   15.2616 C   0  0  0  0  0  0  0  0  0  0  0  0
   31.0215  -19.3683   15.5216 O   0  0  0  0  0  0  0  0  0  0  0  0
   29.4687  -18.3529   14.2655 N   0  0  0  0  0  0  0  0  0  0  0  0
   28.1831  -18.1712   13.8710 C   0  0  0  0  0  0  0  0  0  0  0  0
   27.9613  -17.3173   12.9874 O   0  0  0  0  0  0  0  0  0  0  0  0
   30.1863  -17.8409   13.8271 H   0  0  0  0  0  0  0  0  0  0  0  0
   26.8078  -21.0446   15.1636 C   0  0  0  0  0  0  0  0  0  0  0  0
   26.4418  -22.1000   14.8334 N   0  0  0  0  0  0  0  0  0  0  0  0
   25.5968  -18.0693   10.7417 C   0  0  0  0  0  0  0  0  0  0  0  0
   25.1351  -16.7412   10.4795 O   0  0  0  0  0  0  0  0  0  0  0  0
   23.4822  -15.5009    8.9522 O   0  0  0  0  0  0  0  0  0  0  0  0
   24.7761  -16.2859    8.9402 P   0  0  0  0  0  0  0  0  0  0  0  0
   24.6877  -17.6067    8.2348 O   0  0  0  0  0  0  0  0  0  0  0  0
   25.9454  -15.4280    8.4765 O   0  0  0  0  0  0  0  0  0  0  0  0
   23.9264  -18.1036    8.5730 H   0  0  0  0  0  0  0  0  0  0  0  0
   25.9476  -14.5917    8.9678 H   0  0  0  0  0  0  0  0  0  0  0  0
 23 24  2  0  0  0
 24 22  1  0  0  0
 24 25  1  0  0  0
 26 24  1  0  0  0
 21 22  1  0  0  0
 21  1  1  0  0  0
  1  2  1  0  0  0
  2  3  1  0  0  0
  4  2  1  0  0  0
  4  5  1  0  0  0
  6  1  1  0  0  0
  6  7  1  0  0  0
  7  4  1  0  0  0
 10  7  1  0  0  0
 11 10  1  0  0  0
 12 11  2  0  0  0
 13 12  1  0  0  0
 13 15  1  0  0  0
 14 13  2  0  0  0
 15 16  1  0  0  0
 16 10  1  0  0  0
 17 16  2  0  0  0
 19 11  1  0  0  0
 20 19  3  0  0  0
 25 27  1  0  0  0
 26 28  1  0  0  0
  3  8  1  0  0  0
  5  9  1  0  0  0
 15 18  1  0  0  0
M  END
> <minimizedAffinity>
-10.03600

$$$$
2ZZ2_6CN_A_301


 28 29  0  0  0  0  0  0  0  0999 V2000
   24.3539  -17.8287   12.2432 C   0  0  0  0  0  0  0  0  0  0  0  0
   23.7323  -17.2702   13.5127 C   0  0  0  0  0  0  0  0  0  0  0  0
   22.6502  -18.1841   13.8730 O   0  0  0  0  0  0  0  0  0  0  0  0
   24.8681  -17.4329   14.5347 C   0  0  0  0  0  0  0  0  0  0  0  0
   24.3437  -17.5354   15.8570 O   0  0  0  0  0  0  0  0  0  0  0  0
   25.3588  -18.7824   12.6622 O   0  0  0  0  0  0  0  0  0  0  0  0
   25.5065  -18.7379   14.1061 C   0  0  0  0  0  0  0  0  0  0  0  0
   22.9969  -19.0880   13.9335 H   0  0  0  0  0  0  0  0  0  0  0  0
   23.7137  -18.2718   15.8987 H   0  0  0  0  0  0  0  0  0  0  0  0
   26.9480  -18.8377   14.4392 N   0  0  0  0  0  0  0  0  0  0  0  0
   27.3319  -19.7796   15.3682 C   0  0  0  0  0  0  0  0  0  0  0  0
   28.6933  -19.9052   15.7020 C   0  0  0  0  0  0  0  0  0  0  0  0
   29.6142  -19.0796   15.0715 C   0  0  0  0  0  0  0  0  0  0  0  0
   30.8698  -19.1353   15.2599 O   0  0  0  0  0  0  0  0  0  0  0  0
   29.1828  -18.1739   14.1420 N   0  0  0  0  0  0  0  0  0  0  0  0
   27.8678  -18.0668   13.8246 C   0  0  0  0  0  0  0  0  0  0  0  0
   27.5383  -17.1881   13.0009 O   0  0  0  0  0  0  0  0  0  0  0  0
   29.8375  -17.5897   13.6955 H   0  0  0  0  0  0  0  0  0  0  0  0
   26.7705  -21.0938   15.0295 C   0  0  0  0  0  0  0  0  0  0  0  0
   26.4479  -22.2000   14.8588 N   0  0  0  0  0  0  0  0  0  0  0  0
   25.0643  -16.7476   11.4231 C   0  0  0  0  0  0  0  0  0  0  0  0
   24.1859  -15.6235   11.5260 O   0  0  0  0  0  0  0  0  0  0  0  0
   23.8242  -15.2582    9.0083 O   0  0  0  0  0  0  0  0  0  0  0  0
   23.0945  -15.3226   10.3327 P   0  0  0  0  0  0  0  0  0  0  0  0
   22.5011  -14.0169   10.7721 O   0  0  0  0  0  0  0  0  0  0  0  0
   22.1069  -16.4807   10.3704 O   0  0  0  0  0  0  0  0  0  0  0  0
   23.1769  -13.3227   10.7259 H   0  0  0  0  0  0  0  0  0  0  0  0
   22.5491  -17.2925   10.0765 H   0  0  0  0  0  0  0  0  0  0  0  0
 23 24  2  0  0  0
 24 22  1  0  0  0
 24 25  1  0  0  0
 26 24  1  0  0  0
 21 22  1  0  0  0
 21  1  1  0  0  0
  1  2  1  0  0  0
  2  3  1  0  0  0
  4  2  1  0  0  0
  4  5  1  0  0  0
  6  1  1  0  0  0
  6  7  1  0  0  0
  7  4  1  0  0  0
 10  7  1  0  0  0
 11 10  1  0  0  0
 12 11  2  0  0  0
 13 12  1  0  0  0
 13 15  1  0  0  0
 14 13  2  0  0  0
 15 16  1  0  0  0
 16 10  1  0  0  0
 17 16  2  0  0  0
 19 11  1  0  0  0
 20 19  3  0  0  0
 25 27  1  0  0  0
 26 28  1  0  0  0
  3  8  1  0  0  0
  5  9  1  0  0  0
 15 18  1  0  0  0
M  END
> <minimizedAffinity>
-9.07802

$$$$
2ZZ2_6CN_A_301


 28 29  0  0  0  0  0  0  0  0999 V2000
   26.2939  -17.1592   14.1722 C   0  0  0  0  0  0  0  0  0  0  0  0
   25.0763  -17.9954   14.5301 C   0  0  0  0  0  0  0  0  0  0  0  0
   24.3411  -17.2343   15.5382 O   0  0  0  0  0  0  0  0  0  0  0  0
   24.2695  -17.9788   13.2225 C   0  0  0  0  0  0  0  0  0  0  0  0
   22.8814  -18.1737   13.4859 O   0  0  0  0  0  0  0  0  0  0  0  0
   25.8777  -16.2550   13.1214 O   0  0  0  0  0  0  0  0  0  0  0  0
   24.5270  -16.5808   12.6994 C   0  0  0  0  0  0  0  0  0  0  0  0
   24.1586  -16.3432   15.2011 H   0  0  0  0  0  0  0  0  0  0  0  0
   22.5723  -17.4969   14.1082 H   0  0  0  0  0  0  0  0  0  0  0  0
   24.4512  -16.4700   11.2227 N   0  0  0  0  0  0  0  0  0  0  0  0
   23.4979  -15.6326   10.6865 C   0  0  0  0  0  0  0  0  0  0  0  0
   23.4037  -15.4992    9.2886 C   0  0  0  0  0  0  0  0  0  0  0  0
   24.2882  -16.2103    8.4890 C   0  0  0  0  0  0  0  0  0  0  0  0
   24.3253  -16.1327    7.2211 O   0  0  0  0  0  0  0  0  0  0  0  0
   25.2289  -17.0134    9.0725 N   0  0  0  0  0  0  0  0  0  0  0  0
   25.3132  -17.1288   10.4219 C   0  0  0  0  0  0  0  0  0  0  0  0
   26.1658  -17.9141   10.8861 O   0  0  0  0  0  0  0  0  0  0  0  0
   25.8556  -17.5164    8.5038 H   0  0  0  0  0  0  0  0  0  0  0  0
   23.5637  -14.3083   11.3180 C   0  0  0  0  0  0  0  0  0  0  0  0
   23.4477  -13.2716   11.8364 N   0  0  0  0  0  0  0  0  0  0  0  0
   27.4373  -18.0120   13.6142 C   0  0  0  0  0  0  0  0  0  0  0  0
   27.6163  -19.0200   14.6130 O   0  0  0  0  0  0  0  0  0  0  0  0
   30.1035  -18.4238   14.8607 O   0  0  0  0  0  0  0  0  0  0  0  0
   28.9094  -18.9501   15.6272 P   0  0  0  0  0  0  0  0  0  0  0  0
   29.0412  -20.3783   16.0665 O   0  0  0  0  0  0  0  0  0  0  0  0
   28.5064  -18.0049   16.7508 O   0  0  0  0  0  0  0  0  0  0  0  0
   29.2986  -20.9271   15.3093 H   0  0  0  0  0  0  0  0  0  0  0  0
   28.4383  -17.1014   16.4045 H   0  0  0  0  0  0  0  0  0  0  0  0
 23 24  2  0  0  0
 24 22  1  0  0  0
 24 25  1  0  0  0
 26 24  1  0  0  0
 21 22  1  0  0  0
 21  1  1  0  0  0
  1  2  1  0  0  0
  2  3  1  0  0  0
  4  2  1  0  0  0
  4  5  1  0  0  0
  6  1  1  0  0  0
  6  7  1  0  0  0
  7  4  1  0  0  0
 10  7  1  0  0  0
 11 10  1  0  0  0
 12 11  2  0  0  0
 13 12  1  0  0  0
 13 15  1  0  0  0
 14 13  2  0  0  0
 15 16  1  0  0  0
 16 10  1  0  0  0
 17 16  2  0  0  0
 19 11  1  0  0  0
 20 19  3  0  0  0
 25 27  1  0  0  0
 26 28  1  0  0  0
  3  8  1  0  0  0
  5  9  1  0  0  0
 15 18  1  0  0  0
M  END
> <minimizedAffinity>
-8.38893

$$$$
2ZZ2_6CN_A_301


 28 29  0  0  0  0  0  0  0  0999 V2000
   23.7743  -17.0715    9.9289 C   0  0  0  0  0  0  0  0  0  0  0  0
   23.6228  -15.6662   10.4875 C   0  0  0  0  0  0  0  0  0  0  0  0
   22.1859  -15.4289   10.6102 O   0  0  0  0  0  0  0  0  0  0  0  0
   24.2156  -15.8069   11.8981 C   0  0  0  0  0  0  0  0  0  0  0  0
   23.6601  -14.8303   12.7765 O   0  0  0  0  0  0  0  0  0  0  0  0
   23.7683  -17.9687   11.0646 O   0  0  0  0  0  0  0  0  0  0  0  0
   23.7778  -17.2010   12.2971 C   0  0  0  0  0  0  0  0  0  0  0  0
   21.7846  -16.1389   11.1353 H   0  0  0  0  0  0  0  0  0  0  0  0
   22.6937  -14.9131   12.7824 H   0  0  0  0  0  0  0  0  0  0  0  0
   24.6894  -17.8624   13.2615 N   0  0  0  0  0  0  0  0  0  0  0  0
   24.7376  -17.3688   14.5467 C   0  0  0  0  0  0  0  0  0  0  0  0
   25.5873  -17.9779   15.4889 C   0  0  0  0  0  0  0  0  0  0  0  0
   26.3456  -19.0721   15.0948 C   0  0  0  0  0  0  0  0  0  0  0  0
   27.1104  -19.7273   15.8699 O   0  0  0  0  0  0  0  0  0  0  0  0
   26.2462  -19.5348   13.8118 N   0  0  0  0  0  0  0  0  0  0  0  0
   25.4186  -18.9422   12.9144 C   0  0  0  0  0  0  0  0  0  0  0  0
   25.4108  -19.3880   11.7481 O   0  0  0  0  0  0  0  0  0  0  0  0
   26.7843  -20.3112   13.5344 H   0  0  0  0  0  0  0  0  0  0  0  0
   23.3827  -17.2372   15.0977 C   0  0  0  0  0  0  0  0  0  0  0  0
   22.3148  -17.3004   15.5588 N   0  0  0  0  0  0  0  0  0  0  0  0
   25.1087  -17.2640    9.2020 C   0  0  0  0  0  0  0  0  0  0  0  0
   24.7228  -17.3970    7.8312 O   0  0  0  0  0  0  0  0  0  0  0  0
   24.3233  -14.9043    7.3520 O   0  0  0  0  0  0  0  0  0  0  0  0
   24.9670  -16.1512    6.7852 P   0  0  0  0  0  0  0  0  0  0  0  0
   24.3200  -16.6622    5.5321 O   0  0  0  0  0  0  0  0  0  0  0  0
   26.4771  -15.9961    6.6680 O   0  0  0  0  0  0  0  0  0  0  0  0
   23.3630  -16.7387    5.6703 H   0  0  0  0  0  0  0  0  0  0  0  0
   26.8340  -15.6640    7.5066 H   0  0  0  0  0  0  0  0  0  0  0  0
 23 24  2  0  0  0
 24 22  1  0  0  0
 24 25  1  0  0  0
 26 24  1  0  0  0
 21 22  1  0  0  0
 21  1  1  0  0  0
  1  2  1  0  0  0
  2  3  1  0  0  0
  4  2  1  0  0  0
  4  5  1  0  0  0
  6  1  1  0  0  0
  6  7  1  0  0  0
  7  4  1  0  0  0
 10  7  1  0  0  0
 11 10  1  0  0  0
 12 11  2  0  0  0
 13 12  1  0  0  0
 13 15  1  0  0  0
 14 13  2  0  0  0
 15 16  1  0  0  0
 16 10  1  0  0  0
 17 16  2  0  0  0
 19 11  1  0  0  0
 20 19  3  0  0  0
 25 27  1  0  0  0
 26 28  1  0  0  0
  3  8  1  0  0  0
  5  9  1  0  0  0
 15 18  1  0  0  0
M  END
> <minimizedAffinity>
-7.86113

$$$$
2ZZ2_6CN_A_301


 28 29  0  0  0  0  0  0  0  0999 V2000
   25.2242  -16.2138    9.1616 C   0  0  0  0  0  0  0  0  0  0  0  0
   25.0228  -17.6165    8.6124 C   0  0  0  0  0  0  0  0  0  0  0  0
   26.3076  -18.0203    8.0445 O   0  0  0  0  0  0  0  0  0  0  0  0
   24.7742  -18.4370    9.8875 C   0  0  0  0  0  0  0  0  0  0  0  0
   25.1432  -19.8001    9.6881 O   0  0  0  0  0  0  0  0  0  0  0  0
   25.7219  -16.3681   10.5119 O   0  0  0  0  0  0  0  0  0  0  0  0
   25.6961  -17.7705   10.8877 C   0  0  0  0  0  0  0  0  0  0  0  0
   27.0020  -17.9236    8.7148 H   0  0  0  0  0  0  0  0  0  0  0  0
   26.0700  -19.8462    9.4055 H   0  0  0  0  0  0  0  0  0  0  0  0
   25.2337  -17.8772   12.2925 N   0  0  0  0  0  0  0  0  0  0  0  0
   26.1389  -18.3043   13.2391 C   0  0  0  0  0  0  0  0  0  0  0  0
   25.7345  -18.4101   14.5830 C   0  0  0  0  0  0  0  0  0  0  0  0
   24.4315  -18.0664   14.9170 C   0  0  0  0  0  0  0  0  0  0  0  0
   23.9708  -18.0792   16.1013 O   0  0  0  0  0  0  0  0  0  0  0  0
   23.5780  -17.6295   13.9419 N   0  0  0  0  0  0  0  0  0  0  0  0
   23.9820  -17.5263   12.6506 C   0  0  0  0  0  0  0  0  0  0  0  0
   23.1382  -17.1638   11.8045 O   0  0  0  0  0  0  0  0  0  0  0  0
   22.6545  -17.3857   14.1808 H   0  0  0  0  0  0  0  0  0  0  0  0
   27.3842  -17.5315   13.1446 C   0  0  0  0  0  0  0  0  0  0  0  0
   28.4474  -17.0674   13.0396 N   0  0  0  0  0  0  0  0  0  0  0  0
   23.9099  -15.4318    9.2461 C   0  0  0  0  0  0  0  0  0  0  0  0
   24.1172  -14.5550   10.3569 O   0  0  0  0  0  0  0  0  0  0  0  0
   22.5494  -12.6848   11.1615 O   0  0  0  0  0  0  0  0  0  0  0  0
   22.8560  -14.1567   11.3349 P   0  0  0  0  0  0  0  0  0  0  0  0
   23.3839  -14.5195   12.6912 O   0  0  0  0  0  0  0  0  0  0  0  0
   21.6901  -15.0266   10.8855 O   0  0  0  0  0  0  0  0  0  0  0  0
   24.1214  -13.9320   12.9189 H   0  0  0  0  0  0  0  0  0  0  0  0
   21.3957  -14.7434   10.0057 H   0  0  0  0  0  0  0  0  0  0  0  0
 23 24  2  0  0  0
 24 22  1  0  0  0
 24 25  1  0  0  0
 26 24  1  0  0  0
 21 22  1  0  0  0
 21  1  1  0  0  0
  1  2  1  0  0  0
  2  3  1  0  0  0
  4  2  1  0  0  0
  4  5  1  0  0  0
  6  1  1  0  0  0
  6  7  1  0  0  0
  7  4  1  0  0  0
 10  7  1  0  0  0
 11 10  1  0  0  0
 12 11  2  0  0  0
 13 12  1  0  0  0
 13 15  1  0  0  0
 14 13  2  0  0  0
 15 16  1  0  0  0
 16 10  1  0  0  0
 17 16  2  0  0  0
 19 11  1  0  0  0
 20 19  3  0  0  0
 25 27  1  0  0  0
 26 28  1  0  0  0
  3  8  1  0  0  0
  5  9  1  0  0  0
 15 18  1  0  0  0
M  END
> <minimizedAffinity>
-7.12149

$$$$
