4KM2_TOP_A_202


 25 26  0  0  0  0  0  0  0  0999 V2000
   15.0621    3.1409   20.1969 C   0  0  0  0  0  0  0  0  0  0  0  0
   15.0896    1.3493   21.9274 C   0  0  0  0  0  0  0  0  0  0  0  0
   15.3721    0.0716   22.3831 N   0  0  0  0  0  0  0  0  0  0  0  0
   16.0266   -0.8019   21.5443 C   0  0  0  0  0  0  0  0  0  0  0  0
   16.3141   -2.0462   22.0574 N   0  0  0  0  0  0  0  0  0  0  0  0
   16.3530   -0.5030   20.2723 N   0  0  0  0  0  0  0  0  0  0  0  0
   16.0375    0.7191   19.8065 C   0  0  0  0  0  0  0  0  0  0  0  0
   16.4218    0.9773   18.5657 N   0  0  0  0  0  0  0  0  0  0  0  0
   15.4240    1.7171   20.6605 C   0  0  0  0  0  0  0  0  0  0  0  0
   16.0746   -2.2625   22.9875 H   0  0  0  0  0  0  0  0  0  0  0  0
   16.7593   -2.7200   21.4943 H   0  0  0  0  0  0  0  0  0  0  0  0
   16.8346    0.2689   18.0207 H   0  0  0  0  0  0  0  0  0  0  0  0
   16.2946    1.8777   18.1883 H   0  0  0  0  0  0  0  0  0  0  0  0
   13.6965    3.1817   19.5174 C   0  0  0  0  0  0  0  0  0  0  0  0
   12.8707    4.2356   19.9226 C   0  0  0  0  0  0  0  0  0  0  0  0
   11.6434    4.3853   19.2535 C   0  0  0  0  0  0  0  0  0  0  0  0
   11.2161    3.4976   18.2666 C   0  0  0  0  0  0  0  0  0  0  0  0
   12.0632    2.4843   17.8532 C   0  0  0  0  0  0  0  0  0  0  0  0
   13.2958    2.2648   18.4971 C   0  0  0  0  0  0  0  0  0  0  0  0
   10.6850    5.3314   19.5274 O   0  0  0  0  0  0  0  0  0  0  0  0
   11.0270    6.6566   19.1659 C   0  0  0  0  0  0  0  0  0  0  0  0
   10.0073    3.5840   17.5647 O   0  0  0  0  0  0  0  0  0  0  0  0
   10.0799    4.3922   16.3823 C   0  0  0  0  0  0  0  0  0  0  0  0
   11.6499    1.6773   16.8303 O   0  0  0  0  0  0  0  0  0  0  0  0
   12.4475    0.5795   16.4788 C   0  0  0  0  0  0  0  0  0  0  0  0
  2  3  2  0  0  0
  2  9  1  0  0  0
  3  4  1  0  0  0
  4  5  1  0  0  0
  4  6  2  0  0  0
  6  7  1  0  0  0
  7  8  1  0  0  0
  7  9  2  0  0  0
  9  1  1  0  0  0
  1 14  1  0  0  0
 14 15  2  0  0  0
 14 19  1  0  0  0
 15 16  1  0  0  0
 16 20  1  0  0  0
 16 17  2  0  0  0
 20 21  1  0  0  0
 17 22  1  0  0  0
 17 18  1  0  0  0
 22 23  1  0  0  0
 18 24  1  0  0  0
 18 19  2  0  0  0
 24 25  1  0  0  0
  5 10  1  0  0  0
  5 11  1  0  0  0
  8 12  1  0  0  0
  8 13  1  0  0  0
M  END
> <minimizedAffinity>
-7.09240

$$$$
4KM2_TOP_A_202


 25 26  0  0  0  0  0  0  0  0999 V2000
   13.5825    1.2492   18.2563 C   0  0  0  0  0  0  0  0  0  0  0  0
   14.1679    2.8740   20.0514 C   0  0  0  0  0  0  0  0  0  0  0  0
   15.0575    3.5255   20.8904 N   0  0  0  0  0  0  0  0  0  0  0  0
   16.4026    3.2610   20.7645 C   0  0  0  0  0  0  0  0  0  0  0  0
   17.2460    3.9601   21.5975 N   0  0  0  0  0  0  0  0  0  0  0  0
   16.9009    2.3487   19.9083 N   0  0  0  0  0  0  0  0  0  0  0  0
   16.0387    1.6760   19.1248 C   0  0  0  0  0  0  0  0  0  0  0  0
   16.5843    0.8248   18.2694 N   0  0  0  0  0  0  0  0  0  0  0  0
   14.6180    1.9639   19.1452 C   0  0  0  0  0  0  0  0  0  0  0  0
   16.8795    4.6266   22.2226 H   0  0  0  0  0  0  0  0  0  0  0  0
   18.2160    3.7938   21.5684 H   0  0  0  0  0  0  0  0  0  0  0  0
   17.5545    0.6592   18.2909 H   0  0  0  0  0  0  0  0  0  0  0  0
   16.0197    0.3577   17.6119 H   0  0  0  0  0  0  0  0  0  0  0  0
   13.0696   -0.0317   18.9078 C   0  0  0  0  0  0  0  0  0  0  0  0
   11.9370   -0.5854   18.3018 C   0  0  0  0  0  0  0  0  0  0  0  0
   11.4837   -1.8221   18.7935 C   0  0  0  0  0  0  0  0  0  0  0  0
   12.0827   -2.4607   19.8788 C   0  0  0  0  0  0  0  0  0  0  0  0
   13.2246   -1.9163   20.4401 C   0  0  0  0  0  0  0  0  0  0  0  0
   13.7172   -0.6693   20.0107 C   0  0  0  0  0  0  0  0  0  0  0  0
   10.3751   -2.5069   18.3568 O   0  0  0  0  0  0  0  0  0  0  0  0
    9.1407   -1.8438   18.5572 C   0  0  0  0  0  0  0  0  0  0  0  0
   11.6815   -3.6876   20.4218 O   0  0  0  0  0  0  0  0  0  0  0  0
   10.7580   -3.5649   21.5119 C   0  0  0  0  0  0  0  0  0  0  0  0
   13.8351   -2.6039   21.4515 O   0  0  0  0  0  0  0  0  0  0  0  0
   15.2164   -2.8288   21.3703 C   0  0  0  0  0  0  0  0  0  0  0  0
  2  3  2  0  0  0
  2  9  1  0  0  0
  3  4  1  0  0  0
  4  5  1  0  0  0
  4  6  2  0  0  0
  6  7  1  0  0  0
  7  8  1  0  0  0
  7  9  2  0  0  0
  9  1  1  0  0  0
  1 14  1  0  0  0
 14 15  2  0  0  0
 14 19  1  0  0  0
 15 16  1  0  0  0
 16 20  1  0  0  0
 16 17  2  0  0  0
 20 21  1  0  0  0
 17 22  1  0  0  0
 17 18  1  0  0  0
 22 23  1  0  0  0
 18 24  1  0  0  0
 18 19  2  0  0  0
 24 25  1  0  0  0
  5 10  1  0  0  0
  5 11  1  0  0  0
  8 12  1  0  0  0
  8 13  1  0  0  0
M  END
> <minimizedAffinity>
-7.08077

$$$$
4KM2_TOP_A_202


 25 26  0  0  0  0  0  0  0  0999 V2000
   15.1942    1.3139   18.4793 C   0  0  0  0  0  0  0  0  0  0  0  0
   15.6808    1.0860   20.9117 C   0  0  0  0  0  0  0  0  0  0  0  0
   15.6856    0.3986   22.1148 N   0  0  0  0  0  0  0  0  0  0  0  0
   15.2310   -0.9005   22.1381 C   0  0  0  0  0  0  0  0  0  0  0  0
   15.2896   -1.5495   23.3503 N   0  0  0  0  0  0  0  0  0  0  0  0
   14.7171   -1.5246   21.0609 N   0  0  0  0  0  0  0  0  0  0  0  0
   14.6632   -0.8467   19.9001 C   0  0  0  0  0  0  0  0  0  0  0  0
   14.1922   -1.5216   18.8625 N   0  0  0  0  0  0  0  0  0  0  0  0
   15.2012    0.4944   19.7837 C   0  0  0  0  0  0  0  0  0  0  0  0
   15.6657   -1.0913   24.1363 H   0  0  0  0  0  0  0  0  0  0  0  0
   14.9553   -2.4720   23.4314 H   0  0  0  0  0  0  0  0  0  0  0  0
   13.8358   -2.4308   18.9874 H   0  0  0  0  0  0  0  0  0  0  0  0
   14.1984   -1.1141   17.9663 H   0  0  0  0  0  0  0  0  0  0  0  0
   13.8014    1.8469   18.1566 C   0  0  0  0  0  0  0  0  0  0  0  0
   13.3418    2.8479   19.0189 C   0  0  0  0  0  0  0  0  0  0  0  0
   12.1105    3.4505   18.7070 C   0  0  0  0  0  0  0  0  0  0  0  0
   11.3311    3.0434   17.6247 C   0  0  0  0  0  0  0  0  0  0  0  0
   11.8203    2.0783   16.7618 C   0  0  0  0  0  0  0  0  0  0  0  0
   13.0350    1.4186   17.0290 C   0  0  0  0  0  0  0  0  0  0  0  0
   11.4775    4.4219   19.4449 O   0  0  0  0  0  0  0  0  0  0  0  0
   12.3342    5.2555   20.2030 C   0  0  0  0  0  0  0  0  0  0  0  0
   10.0965    3.5948   17.2599 O   0  0  0  0  0  0  0  0  0  0  0  0
   10.2042    4.7606   16.4320 C   0  0  0  0  0  0  0  0  0  0  0  0
   11.0698    1.7548   15.6662 O   0  0  0  0  0  0  0  0  0  0  0  0
   11.0703    0.4251   15.2226 C   0  0  0  0  0  0  0  0  0  0  0  0
  2  3  2  0  0  0
  2  9  1  0  0  0
  3  4  1  0  0  0
  4  5  1  0  0  0
  4  6  2  0  0  0
  6  7  1  0  0  0
  7  8  1  0  0  0
  7  9  2  0  0  0
  9  1  1  0  0  0
  1 14  1  0  0  0
 14 15  2  0  0  0
 14 19  1  0  0  0
 15 16  1  0  0  0
 16 20  1  0  0  0
 16 17  2  0  0  0
 20 21  1  0  0  0
 17 22  1  0  0  0
 17 18  1  0  0  0
 22 23  1  0  0  0
 18 24  1  0  0  0
 18 19  2  0  0  0
 24 25  1  0  0  0
  5 10  1  0  0  0
  5 11  1  0  0  0
  8 12  1  0  0  0
  8 13  1  0  0  0
M  END
> <minimizedAffinity>
-6.99266

$$$$
4KM2_TOP_A_202


 25 26  0  0  0  0  0  0  0  0999 V2000
   15.3884    1.2256   18.6310 C   0  0  0  0  0  0  0  0  0  0  0  0
   15.5566    1.1243   21.1143 C   0  0  0  0  0  0  0  0  0  0  0  0
   15.5079    0.4673   22.3333 N   0  0  0  0  0  0  0  0  0  0  0  0
   15.2827   -0.8907   22.3461 C   0  0  0  0  0  0  0  0  0  0  0  0
   15.2785   -1.5003   23.5799 N   0  0  0  0  0  0  0  0  0  0  0  0
   15.0408   -1.6117   21.2346 N   0  0  0  0  0  0  0  0  0  0  0  0
   15.0374   -0.9719   20.0512 C   0  0  0  0  0  0  0  0  0  0  0  0
   14.8403   -1.7348   18.9867 N   0  0  0  0  0  0  0  0  0  0  0  0
   15.3499    0.4405   19.9559 C   0  0  0  0  0  0  0  0  0  0  0  0
   15.4556   -0.9712   24.3911 H   0  0  0  0  0  0  0  0  0  0  0  0
   15.0983   -2.4656   23.6515 H   0  0  0  0  0  0  0  0  0  0  0  0
   14.6301   -2.6902   19.0978 H   0  0  0  0  0  0  0  0  0  0  0  0
   14.9041   -1.3466   18.0842 H   0  0  0  0  0  0  0  0  0  0  0  0
   14.0550    1.9089   18.3424 C   0  0  0  0  0  0  0  0  0  0  0  0
   13.3804    1.4269   17.2158 C   0  0  0  0  0  0  0  0  0  0  0  0
   12.0983    1.9455   16.9627 C   0  0  0  0  0  0  0  0  0  0  0  0
   11.5260    2.9435   17.7506 C   0  0  0  0  0  0  0  0  0  0  0  0
   12.1926    3.3798   18.8822 C   0  0  0  0  0  0  0  0  0  0  0  0
   13.4890    2.9189   19.1803 C   0  0  0  0  0  0  0  0  0  0  0  0
   11.2954    1.6267   15.8939 O   0  0  0  0  0  0  0  0  0  0  0  0
   11.0284    0.2460   15.7326 C   0  0  0  0  0  0  0  0  0  0  0  0
   10.2592    3.5072   17.5537 O   0  0  0  0  0  0  0  0  0  0  0  0
   10.2498    4.6039   16.6299 C   0  0  0  0  0  0  0  0  0  0  0  0
   11.5731    4.3023   19.6783 O   0  0  0  0  0  0  0  0  0  0  0  0
   12.3650    5.1259   20.4904 C   0  0  0  0  0  0  0  0  0  0  0  0
  2  3  2  0  0  0
  2  9  1  0  0  0
  3  4  1  0  0  0
  4  5  1  0  0  0
  4  6  2  0  0  0
  6  7  1  0  0  0
  7  8  1  0  0  0
  7  9  2  0  0  0
  9  1  1  0  0  0
  1 14  1  0  0  0
 14 15  2  0  0  0
 14 19  1  0  0  0
 15 16  1  0  0  0
 16 20  1  0  0  0
 16 17  2  0  0  0
 20 21  1  0  0  0
 17 22  1  0  0  0
 17 18  1  0  0  0
 22 23  1  0  0  0
 18 24  1  0  0  0
 18 19  2  0  0  0
 24 25  1  0  0  0
  5 10  1  0  0  0
  5 11  1  0  0  0
  8 12  1  0  0  0
  8 13  1  0  0  0
M  END
> <minimizedAffinity>
-6.93616

$$$$
4KM2_TOP_A_202


 25 26  0  0  0  0  0  0  0  0999 V2000
   13.6738    1.2168   17.8924 C   0  0  0  0  0  0  0  0  0  0  0  0
   13.5954   -0.2623   19.8953 C   0  0  0  0  0  0  0  0  0  0  0  0
   14.1709   -0.9389   20.9587 N   0  0  0  0  0  0  0  0  0  0  0  0
   15.5196   -0.7873   21.1891 C   0  0  0  0  0  0  0  0  0  0  0  0
   16.0347   -1.4528   22.2781 N   0  0  0  0  0  0  0  0  0  0  0  0
   16.3301   -0.0635   20.3935 N   0  0  0  0  0  0  0  0  0  0  0  0
   15.7872    0.5564   19.3300 C   0  0  0  0  0  0  0  0  0  0  0  0
   16.6189    1.2917   18.6078 N   0  0  0  0  0  0  0  0  0  0  0  0
   14.3608    0.5087   19.0756 C   0  0  0  0  0  0  0  0  0  0  0  0
   15.4403   -1.9814   22.8583 H   0  0  0  0  0  0  0  0  0  0  0  0
   16.9975   -1.4004   22.4769 H   0  0  0  0  0  0  0  0  0  0  0  0
   17.5812    1.2942   18.8159 H   0  0  0  0  0  0  0  0  0  0  0  0
   16.2750    1.8357   17.8628 H   0  0  0  0  0  0  0  0  0  0  0  0
   12.9474    2.4823   18.3385 C   0  0  0  0  0  0  0  0  0  0  0  0
   11.8743    2.8606   17.5247 C   0  0  0  0  0  0  0  0  0  0  0  0
   11.1026    3.9576   17.9462 C   0  0  0  0  0  0  0  0  0  0  0  0
   11.4097    4.6928   19.0906 C   0  0  0  0  0  0  0  0  0  0  0  0
   12.4516    4.2799   19.9025 C   0  0  0  0  0  0  0  0  0  0  0  0
   13.2781    3.2040   19.5268 C   0  0  0  0  0  0  0  0  0  0  0  0
   10.0355    4.5005   17.2714 O   0  0  0  0  0  0  0  0  0  0  0  0
    9.9188    4.1095   15.9160 C   0  0  0  0  0  0  0  0  0  0  0  0
   10.6890    5.7960   19.5648 O   0  0  0  0  0  0  0  0  0  0  0  0
   11.0514    7.0362   18.9426 C   0  0  0  0  0  0  0  0  0  0  0  0
   12.6805    4.9732   21.0581 O   0  0  0  0  0  0  0  0  0  0  0  0
   12.3664    4.3617   22.2797 C   0  0  0  0  0  0  0  0  0  0  0  0
  2  3  2  0  0  0
  2  9  1  0  0  0
  3  4  1  0  0  0
  4  5  1  0  0  0
  4  6  2  0  0  0
  6  7  1  0  0  0
  7  8  1  0  0  0
  7  9  2  0  0  0
  9  1  1  0  0  0
  1 14  1  0  0  0
 14 15  2  0  0  0
 14 19  1  0  0  0
 15 16  1  0  0  0
 16 20  1  0  0  0
 16 17  2  0  0  0
 20 21  1  0  0  0
 17 22  1  0  0  0
 17 18  1  0  0  0
 22 23  1  0  0  0
 18 24  1  0  0  0
 18 19  2  0  0  0
 24 25  1  0  0  0
  5 10  1  0  0  0
  5 11  1  0  0  0
  8 12  1  0  0  0
  8 13  1  0  0  0
M  END
> <minimizedAffinity>
-6.88738

$$$$
4KM2_TOP_A_202


 25 26  0  0  0  0  0  0  0  0999 V2000
   15.0442    3.1413   20.3266 C   0  0  0  0  0  0  0  0  0  0  0  0
   15.1434    1.2993   22.0006 C   0  0  0  0  0  0  0  0  0  0  0  0
   15.4392    0.0073   22.4046 N   0  0  0  0  0  0  0  0  0  0  0  0
   16.0469   -0.8444   21.5100 C   0  0  0  0  0  0  0  0  0  0  0  0
   16.3507   -2.1047   21.9720 N   0  0  0  0  0  0  0  0  0  0  0  0
   16.3136   -0.5097   20.2330 N   0  0  0  0  0  0  0  0  0  0  0  0
   15.9841    0.7272   19.8189 C   0  0  0  0  0  0  0  0  0  0  0  0
   16.3098    1.0200   18.5690 N   0  0  0  0  0  0  0  0  0  0  0  0
   15.4188    1.7026   20.7303 C   0  0  0  0  0  0  0  0  0  0  0  0
   16.1548   -2.3471   22.9058 H   0  0  0  0  0  0  0  0  0  0  0  0
   16.7639   -2.7638   21.3686 H   0  0  0  0  0  0  0  0  0  0  0  0
   16.6913    0.3258   17.9843 H   0  0  0  0  0  0  0  0  0  0  0  0
   16.1705    1.9317   18.2247 H   0  0  0  0  0  0  0  0  0  0  0  0
   13.5604    3.2642   19.9928 C   0  0  0  0  0  0  0  0  0  0  0  0
   13.2023    2.7882   18.7271 C   0  0  0  0  0  0  0  0  0  0  0  0
   11.8334    2.7782   18.4070 C   0  0  0  0  0  0  0  0  0  0  0  0
   10.8589    3.2737   19.2727 C   0  0  0  0  0  0  0  0  0  0  0  0
   11.2289    3.7048   20.5347 C   0  0  0  0  0  0  0  0  0  0  0  0
   12.5846    3.7628   20.9101 C   0  0  0  0  0  0  0  0  0  0  0  0
   11.2875    2.3834   17.2092 O   0  0  0  0  0  0  0  0  0  0  0  0
   11.2591    0.9848   16.9928 C   0  0  0  0  0  0  0  0  0  0  0  0
    9.4822    3.2987   19.0170 O   0  0  0  0  0  0  0  0  0  0  0  0
    9.0410    4.4791   18.3327 C   0  0  0  0  0  0  0  0  0  0  0  0
   10.2437    4.1121   21.3901 O   0  0  0  0  0  0  0  0  0  0  0  0
   10.3663    3.7991   22.7510 C   0  0  0  0  0  0  0  0  0  0  0  0
  2  3  2  0  0  0
  2  9  1  0  0  0
  3  4  1  0  0  0
  4  5  1  0  0  0
  4  6  2  0  0  0
  6  7  1  0  0  0
  7  8  1  0  0  0
  7  9  2  0  0  0
  9  1  1  0  0  0
  1 14  1  0  0  0
 14 15  2  0  0  0
 14 19  1  0  0  0
 15 16  1  0  0  0
 16 20  1  0  0  0
 16 17  2  0  0  0
 20 21  1  0  0  0
 17 22  1  0  0  0
 17 18  1  0  0  0
 22 23  1  0  0  0
 18 24  1  0  0  0
 18 19  2  0  0  0
 24 25  1  0  0  0
  5 10  1  0  0  0
  5 11  1  0  0  0
  8 12  1  0  0  0
  8 13  1  0  0  0
M  END
> <minimizedAffinity>
-6.70090

$$$$
4KM2_TOP_A_202


 25 26  0  0  0  0  0  0  0  0999 V2000
   13.5214    1.2739   18.1204 C   0  0  0  0  0  0  0  0  0  0  0  0
   14.0547    2.8536   19.9712 C   0  0  0  0  0  0  0  0  0  0  0  0
   14.9191    3.4799   20.8546 N   0  0  0  0  0  0  0  0  0  0  0  0
   16.2661    3.2093   20.7685 C   0  0  0  0  0  0  0  0  0  0  0  0
   17.0848    3.8836   21.6456 N   0  0  0  0  0  0  0  0  0  0  0  0
   16.7879    2.3132   19.9091 N   0  0  0  0  0  0  0  0  0  0  0  0
   15.9489    1.6643   19.0815 C   0  0  0  0  0  0  0  0  0  0  0  0
   16.5183    0.8291   18.2258 N   0  0  0  0  0  0  0  0  0  0  0  0
   14.5301    1.9613   19.0602 C   0  0  0  0  0  0  0  0  0  0  0  0
   16.7011    4.5381   22.2729 H   0  0  0  0  0  0  0  0  0  0  0  0
   18.0541    3.7114   21.6456 H   0  0  0  0  0  0  0  0  0  0  0  0
   17.4863    0.6565   18.2766 H   0  0  0  0  0  0  0  0  0  0  0  0
   15.9737    0.3808   17.5390 H   0  0  0  0  0  0  0  0  0  0  0  0
   12.7788    0.1412   18.8230 C   0  0  0  0  0  0  0  0  0  0  0  0
   13.5799   -0.9431   19.1961 C   0  0  0  0  0  0  0  0  0  0  0  0
   12.9699   -1.9677   19.9408 C   0  0  0  0  0  0  0  0  0  0  0  0
   11.6113   -1.9576   20.2544 C   0  0  0  0  0  0  0  0  0  0  0  0
   10.8440   -0.8586   19.9097 C   0  0  0  0  0  0  0  0  0  0  0  0
   11.3870    0.1905   19.1437 C   0  0  0  0  0  0  0  0  0  0  0  0
   13.5758   -3.1245   20.3690 O   0  0  0  0  0  0  0  0  0  0  0  0
   14.7622   -3.4731   19.6799 C   0  0  0  0  0  0  0  0  0  0  0  0
   10.9393   -2.9444   20.9865 O   0  0  0  0  0  0  0  0  0  0  0  0
   10.4445   -4.0252   20.1845 C   0  0  0  0  0  0  0  0  0  0  0  0
    9.5336   -0.8413   20.2982 O   0  0  0  0  0  0  0  0  0  0  0  0
    8.5422   -0.7838   19.3089 C   0  0  0  0  0  0  0  0  0  0  0  0
  2  3  2  0  0  0
  2  9  1  0  0  0
  3  4  1  0  0  0
  4  5  1  0  0  0
  4  6  2  0  0  0
  6  7  1  0  0  0
  7  8  1  0  0  0
  7  9  2  0  0  0
  9  1  1  0  0  0
  1 14  1  0  0  0
 14 15  2  0  0  0
 14 19  1  0  0  0
 15 16  1  0  0  0
 16 20  1  0  0  0
 16 17  2  0  0  0
 20 21  1  0  0  0
 17 22  1  0  0  0
 17 18  1  0  0  0
 22 23  1  0  0  0
 18 24  1  0  0  0
 18 19  2  0  0  0
 24 25  1  0  0  0
  5 10  1  0  0  0
  5 11  1  0  0  0
  8 12  1  0  0  0
  8 13  1  0  0  0
M  END
> <minimizedAffinity>
-6.69708

$$$$
4KM2_TOP_A_202


 25 26  0  0  0  0  0  0  0  0999 V2000
   14.4442    1.4047   18.3555 C   0  0  0  0  0  0  0  0  0  0  0  0
   15.8144    0.7546   20.3317 C   0  0  0  0  0  0  0  0  0  0  0  0
   16.0924   -0.0226   21.4446 N   0  0  0  0  0  0  0  0  0  0  0  0
   15.2637   -1.0822   21.7371 C   0  0  0  0  0  0  0  0  0  0  0  0
   15.6038   -1.8429   22.8324 N   0  0  0  0  0  0  0  0  0  0  0  0
   14.1518   -1.3690   21.0334 N   0  0  0  0  0  0  0  0  0  0  0  0
   13.8481   -0.5886   19.9805 C   0  0  0  0  0  0  0  0  0  0  0  0
   12.7707   -0.9418   19.2959 N   0  0  0  0  0  0  0  0  0  0  0  0
   14.7207    0.4921   19.5654 C   0  0  0  0  0  0  0  0  0  0  0  0
   16.4171   -1.6314   23.3453 H   0  0  0  0  0  0  0  0  0  0  0  0
   15.0338   -2.5987   23.1030 H   0  0  0  0  0  0  0  0  0  0  0  0
   12.2059   -1.6824   19.6147 H   0  0  0  0  0  0  0  0  0  0  0  0
   12.5348   -0.4638   18.4683 H   0  0  0  0  0  0  0  0  0  0  0  0
   13.3296    2.4048   18.6475 C   0  0  0  0  0  0  0  0  0  0  0  0
   13.5446    3.2120   19.7696 C   0  0  0  0  0  0  0  0  0  0  0  0
   12.6019    4.2232   20.0250 C   0  0  0  0  0  0  0  0  0  0  0  0
   11.4596    4.3959   19.2440 C   0  0  0  0  0  0  0  0  0  0  0  0
   11.2843    3.6126   18.1166 C   0  0  0  0  0  0  0  0  0  0  0  0
   12.1782    2.5671   17.8167 C   0  0  0  0  0  0  0  0  0  0  0  0
   12.6181    5.0913   21.0903 O   0  0  0  0  0  0  0  0  0  0  0  0
   12.3664    4.5005   22.3518 C   0  0  0  0  0  0  0  0  0  0  0  0
   10.4799    5.3765   19.4436 O   0  0  0  0  0  0  0  0  0  0  0  0
   10.8614    6.6795   18.9820 C   0  0  0  0  0  0  0  0  0  0  0  0
   10.1957    3.8563   17.3267 O   0  0  0  0  0  0  0  0  0  0  0  0
   10.4062    4.3068   16.0161 C   0  0  0  0  0  0  0  0  0  0  0  0
  2  3  2  0  0  0
  2  9  1  0  0  0
  3  4  1  0  0  0
  4  5  1  0  0  0
  4  6  2  0  0  0
  6  7  1  0  0  0
  7  8  1  0  0  0
  7  9  2  0  0  0
  9  1  1  0  0  0
  1 14  1  0  0  0
 14 15  2  0  0  0
 14 19  1  0  0  0
 15 16  1  0  0  0
 16 20  1  0  0  0
 16 17  2  0  0  0
 20 21  1  0  0  0
 17 22  1  0  0  0
 17 18  1  0  0  0
 22 23  1  0  0  0
 18 24  1  0  0  0
 18 19  2  0  0  0
 24 25  1  0  0  0
  5 10  1  0  0  0
  5 11  1  0  0  0
  8 12  1  0  0  0
  8 13  1  0  0  0
M  END
> <minimizedAffinity>
-6.54416

$$$$
4KM2_TOP_A_202


 25 26  0  0  0  0  0  0  0  0999 V2000
   12.1282    0.1867   18.3808 C   0  0  0  0  0  0  0  0  0  0  0  0
   10.1089    0.1267   19.8382 C   0  0  0  0  0  0  0  0  0  0  0  0
    9.1805   -0.5143   20.6425 N   0  0  0  0  0  0  0  0  0  0  0  0
    9.3428   -1.8564   20.9025 C   0  0  0  0  0  0  0  0  0  0  0  0
    8.4132   -2.4370   21.7348 N   0  0  0  0  0  0  0  0  0  0  0  0
   10.3256   -2.6019   20.3617 N   0  0  0  0  0  0  0  0  0  0  0  0
   11.2022   -1.9969   19.5399 C   0  0  0  0  0  0  0  0  0  0  0  0
   12.1749   -2.7646   19.0725 N   0  0  0  0  0  0  0  0  0  0  0  0
   11.1408   -0.5704   19.2891 C   0  0  0  0  0  0  0  0  0  0  0  0
    7.6958   -1.8901   22.1290 H   0  0  0  0  0  0  0  0  0  0  0  0
    8.4657   -3.3993   21.9361 H   0  0  0  0  0  0  0  0  0  0  0  0
   12.1771   -3.7296   19.2675 H   0  0  0  0  0  0  0  0  0  0  0  0
   12.8958   -2.3703   18.5302 H   0  0  0  0  0  0  0  0  0  0  0  0
   13.2724    0.8011   19.1817 C   0  0  0  0  0  0  0  0  0  0  0  0
   13.1287    2.1646   19.4590 C   0  0  0  0  0  0  0  0  0  0  0  0
   14.0995    2.7593   20.2840 C   0  0  0  0  0  0  0  0  0  0  0  0
   15.2024    2.0566   20.7678 C   0  0  0  0  0  0  0  0  0  0  0  0
   15.3067    0.7001   20.5142 C   0  0  0  0  0  0  0  0  0  0  0  0
   14.3818    0.0482   19.6765 C   0  0  0  0  0  0  0  0  0  0  0  0
   14.1522    4.0853   20.6413 O   0  0  0  0  0  0  0  0  0  0  0  0
   12.9298    4.7892   20.5238 C   0  0  0  0  0  0  0  0  0  0  0  0
   16.2067    2.5859   21.5878 O   0  0  0  0  0  0  0  0  0  0  0  0
   17.1507    3.4096   20.8901 C   0  0  0  0  0  0  0  0  0  0  0  0
   16.3568    0.0211   21.0662 O   0  0  0  0  0  0  0  0  0  0  0  0
   16.1639   -1.3129   21.4512 C   0  0  0  0  0  0  0  0  0  0  0  0
  2  3  2  0  0  0
  2  9  1  0  0  0
  3  4  1  0  0  0
  4  5  1  0  0  0
  4  6  2  0  0  0
  6  7  1  0  0  0
  7  8  1  0  0  0
  7  9  2  0  0  0
  9  1  1  0  0  0
  1 14  1  0  0  0
 14 15  2  0  0  0
 14 19  1  0  0  0
 15 16  1  0  0  0
 16 20  1  0  0  0
 16 17  2  0  0  0
 20 21  1  0  0  0
 17 22  1  0  0  0
 17 18  1  0  0  0
 22 23  1  0  0  0
 18 24  1  0  0  0
 18 19  2  0  0  0
 24 25  1  0  0  0
  5 10  1  0  0  0
  5 11  1  0  0  0
  8 12  1  0  0  0
  8 13  1  0  0  0
M  END
> <minimizedAffinity>
-6.20536

$$$$
4KM2_TOP_A_202


 25 26  0  0  0  0  0  0  0  0999 V2000
   12.3483    5.1940   20.3266 C   0  0  0  0  0  0  0  0  0  0  0  0
   10.7509    5.5802   18.4547 C   0  0  0  0  0  0  0  0  0  0  0  0
    9.5236    5.4450   17.8258 N   0  0  0  0  0  0  0  0  0  0  0  0
    8.5108    4.7842   18.4835 C   0  0  0  0  0  0  0  0  0  0  0  0
    7.3021    4.7080   17.8299 N   0  0  0  0  0  0  0  0  0  0  0  0
    8.6667    4.2006   19.6872 N   0  0  0  0  0  0  0  0  0  0  0  0
    9.8703    4.2850   20.2824 C   0  0  0  0  0  0  0  0  0  0  0  0
    9.9564    3.7345   21.4839 N   0  0  0  0  0  0  0  0  0  0  0  0
   10.9564    5.0370   19.6855 C   0  0  0  0  0  0  0  0  0  0  0  0
    7.1904    5.1354   16.9500 H   0  0  0  0  0  0  0  0  0  0  0  0
    6.5490    4.2260   18.2421 H   0  0  0  0  0  0  0  0  0  0  0  0
    9.1935    3.2318   21.8509 H   0  0  0  0  0  0  0  0  0  0  0  0
   10.7832    3.8279   22.0101 H   0  0  0  0  0  0  0  0  0  0  0  0
   13.2574    4.0143   19.9949 C   0  0  0  0  0  0  0  0  0  0  0  0
   14.4348    3.9512   20.7475 C   0  0  0  0  0  0  0  0  0  0  0  0
   15.2592    2.8278   20.5595 C   0  0  0  0  0  0  0  0  0  0  0  0
   14.9692    1.8352   19.6241 C   0  0  0  0  0  0  0  0  0  0  0  0
   13.7812    1.8960   18.9169 C   0  0  0  0  0  0  0  0  0  0  0  0
   12.9224    3.0048   19.0405 C   0  0  0  0  0  0  0  0  0  0  0  0
   16.4665    2.6007   21.1755 O   0  0  0  0  0  0  0  0  0  0  0  0
   17.3822    3.6787   21.1207 C   0  0  0  0  0  0  0  0  0  0  0  0
   15.7461    0.6953   19.3823 O   0  0  0  0  0  0  0  0  0  0  0  0
   15.5282   -0.3650   20.3229 C   0  0  0  0  0  0  0  0  0  0  0  0
   13.4867    0.8692   18.0641 O   0  0  0  0  0  0  0  0  0  0  0  0
   13.0552    1.1786   16.7668 C   0  0  0  0  0  0  0  0  0  0  0  0
  2  3  2  0  0  0
  2  9  1  0  0  0
  3  4  1  0  0  0
  4  5  1  0  0  0
  4  6  2  0  0  0
  6  7  1  0  0  0
  7  8  1  0  0  0
  7  9  2  0  0  0
  9  1  1  0  0  0
  1 14  1  0  0  0
 14 15  2  0  0  0
 14 19  1  0  0  0
 15 16  1  0  0  0
 16 20  1  0  0  0
 16 17  2  0  0  0
 20 21  1  0  0  0
 17 22  1  0  0  0
 17 18  1  0  0  0
 22 23  1  0  0  0
 18 24  1  0  0  0
 18 19  2  0  0  0
 24 25  1  0  0  0
  5 10  1  0  0  0
  5 11  1  0  0  0
  8 12  1  0  0  0
  8 13  1  0  0  0
M  END
> <minimizedAffinity>
-6.17169

$$$$
