1XQ0_4TR_A_270


 29 31  0  0  0  0  0  0  0  0999 V2000
   21.8867   32.7743   19.9493 C   0  0  0  0  0  0  0  0  0  0  0  0
   21.2570   28.5126   20.4803 C   0  0  0  0  0  0  0  0  0  0  0  0
   22.3355   28.9718   19.6948 C   0  0  0  0  0  0  0  0  0  0  0  0
   22.5380   30.3458   19.5167 C   0  0  0  0  0  0  0  0  0  0  0  0
   21.6530   31.2806   20.1260 C   0  0  0  0  0  0  0  0  0  0  0  0
   20.5737   30.8174   20.9061 C   0  0  0  0  0  0  0  0  0  0  0  0
   20.3744   29.4317   21.0847 C   0  0  0  0  0  0  0  0  0  0  0  0
   18.9404   28.8060   22.1451 Br  0  0  0  0  0  0  0  0  0  0  0  0
   21.0556   27.1541   20.6768 O   0  0  0  0  0  0  0  0  0  0  0  0
   20.4294   26.2278   19.5089 S   0  0  0  0  0  0  0  0  0  0  0  0
   20.6422   24.9037   19.9803 O   0  0  0  0  0  0  0  0  0  0  0  0
   19.1031   26.7357   19.3637 O   0  0  0  0  0  0  0  0  0  0  0  0
   21.2767   26.4497   18.2179 N   0  0  0  0  0  0  0  0  0  0  0  0
   20.9023   25.8754   17.4627 H   0  0  0  0  0  0  0  0  0  0  0  0
   22.2454   26.1858   18.3976 H   0  0  0  0  0  0  0  0  0  0  0  0
   21.2898   33.3158   18.6900 N   0  0  0  0  0  0  0  0  0  0  0  0
   18.3455   36.4845   18.4670 C   0  0  0  0  0  0  0  0  0  0  0  0
   18.3300   35.5681   19.5490 C   0  0  0  0  0  0  0  0  0  0  0  0
   19.2835   34.5410   19.6294 C   0  0  0  0  0  0  0  0  0  0  0  0
   20.3035   34.3817   18.6185 C   0  0  0  0  0  0  0  0  0  0  0  0
   20.2978   35.3236   17.5357 C   0  0  0  0  0  0  0  0  0  0  0  0
   19.3416   36.3486   17.4622 C   0  0  0  0  0  0  0  0  0  0  0  0
   17.3763   37.5391   18.3738 C   0  0  0  0  0  0  0  0  0  0  0  0
   16.6259   38.4042   18.2858 N   0  0  0  0  0  0  0  0  0  0  0  0
   22.5903   32.2152   15.5799 N   0  0  0  0  0  0  0  0  0  0  0  0
   23.6667   32.9431   16.0778 N   0  0  0  0  0  0  0  0  0  0  0  0
   23.3241   33.4134   17.2345 C   0  0  0  0  0  0  0  0  0  0  0  0
   22.0465   33.0213   17.5345 N   0  0  0  0  0  0  0  0  0  0  0  0
   21.6404   32.2766   16.4602 C   0  0  0  0  0  0  0  0  0  0  0  0
 10 11  2  0  0  0
 10 12  2  0  0  0
 10  9  1  0  0  0
 10 13  1  0  0  0
  9  2  1  0  0  0
  2  3  2  0  0  0
  2  7  1  0  0  0
  3  4  1  0  0  0
  4  5  2  0  0  0
  5  6  1  0  0  0
  5  1  1  0  0  0
  6  7  2  0  0  0
  7  8  1  0  0  0
  1 16  1  0  0  0
 23 24  3  0  0  0
 23 17  1  0  0  0
 17 18  1  0  0  0
 17 22  2  0  0  0
 18 19  2  0  0  0
 19 20  1  0  0  0
 20 21  2  0  0  0
 20 16  1  0  0  0
 21 22  1  0  0  0
 16 28  1  0  0  0
 25 26  1  0  0  0
 25 29  2  0  0  0
 26 27  2  0  0  0
 27 28  1  0  0  0
 28 29  1  0  0  0
 13 14  1  0  0  0
 13 15  1  0  0  0
M  END
> <minimizedAffinity>
-7.90132

$$$$
1XQ0_4TR_A_270


 29 31  0  0  0  0  0  0  0  0999 V2000
   22.2476   33.1808   20.6336 C   0  0  0  0  0  0  0  0  0  0  0  0
   20.9998   29.2236   19.3592 C   0  0  0  0  0  0  0  0  0  0  0  0
   20.8334   29.6143   20.7048 C   0  0  0  0  0  0  0  0  0  0  0  0
   21.2402   30.8880   21.1204 C   0  0  0  0  0  0  0  0  0  0  0  0
   21.8254   31.7887   20.1853 C   0  0  0  0  0  0  0  0  0  0  0  0
   21.9943   31.3926   18.8428 C   0  0  0  0  0  0  0  0  0  0  0  0
   21.5812   30.1086   18.4276 C   0  0  0  0  0  0  0  0  0  0  0  0
   21.7879   29.5797   16.6248 Br  0  0  0  0  0  0  0  0  0  0  0  0
   20.5863   27.9701   18.9322 O   0  0  0  0  0  0  0  0  0  0  0  0
   21.5777   26.6951   19.0098 S   0  0  0  0  0  0  0  0  0  0  0  0
   21.5391   26.1594   17.6937 O   0  0  0  0  0  0  0  0  0  0  0  0
   22.7870   27.2516   19.5255 O   0  0  0  0  0  0  0  0  0  0  0  0
   20.9508   25.6626   19.9971 N   0  0  0  0  0  0  0  0  0  0  0  0
   21.5576   24.8456   20.0652 H   0  0  0  0  0  0  0  0  0  0  0  0
   20.0337   25.3773   19.6536 H   0  0  0  0  0  0  0  0  0  0  0  0
   22.1274   34.2062   19.5522 N   0  0  0  0  0  0  0  0  0  0  0  0
   18.5073   36.3513   18.5267 C   0  0  0  0  0  0  0  0  0  0  0  0
   19.5127   36.1366   17.5502 C   0  0  0  0  0  0  0  0  0  0  0  0
   20.6868   35.4390   17.8747 C   0  0  0  0  0  0  0  0  0  0  0  0
   20.9107   34.9228   19.2055 C   0  0  0  0  0  0  0  0  0  0  0  0
   19.8766   35.1521   20.1739 C   0  0  0  0  0  0  0  0  0  0  0  0
   18.7048   35.8500   19.8420 C   0  0  0  0  0  0  0  0  0  0  0  0
   17.3022   37.0627   18.2070 C   0  0  0  0  0  0  0  0  0  0  0  0
   16.3422   37.6227   17.9172 N   0  0  0  0  0  0  0  0  0  0  0  0
   25.1100   36.0642   19.0761 N   0  0  0  0  0  0  0  0  0  0  0  0
   25.2524   35.0762   18.1066 N   0  0  0  0  0  0  0  0  0  0  0  0
   24.2112   34.3089   18.1689 C   0  0  0  0  0  0  0  0  0  0  0  0
   23.3667   34.7523   19.1519 N   0  0  0  0  0  0  0  0  0  0  0  0
   23.9851   35.8513   19.6844 C   0  0  0  0  0  0  0  0  0  0  0  0
 10 11  2  0  0  0
 10 12  2  0  0  0
 10  9  1  0  0  0
 10 13  1  0  0  0
  9  2  1  0  0  0
  2  3  2  0  0  0
  2  7  1  0  0  0
  3  4  1  0  0  0
  4  5  2  0  0  0
  5  6  1  0  0  0
  5  1  1  0  0  0
  6  7  2  0  0  0
  7  8  1  0  0  0
  1 16  1  0  0  0
 23 24  3  0  0  0
 23 17  1  0  0  0
 17 18  1  0  0  0
 17 22  2  0  0  0
 18 19  2  0  0  0
 19 20  1  0  0  0
 20 21  2  0  0  0
 20 16  1  0  0  0
 21 22  1  0  0  0
 16 28  1  0  0  0
 25 26  1  0  0  0
 25 29  2  0  0  0
 26 27  2  0  0  0
 27 28  1  0  0  0
 28 29  1  0  0  0
 13 14  1  0  0  0
 13 15  1  0  0  0
M  END
> <minimizedAffinity>
-7.88769

$$$$
1XQ0_4TR_A_270


 29 31  0  0  0  0  0  0  0  0999 V2000
   21.4634   31.2866   16.4546 C   0  0  0  0  0  0  0  0  0  0  0  0
   21.1859   28.2935   19.5859 C   0  0  0  0  0  0  0  0  0  0  0  0
   21.7299   27.9495   18.3302 C   0  0  0  0  0  0  0  0  0  0  0  0
   21.8155   28.9112   17.3161 C   0  0  0  0  0  0  0  0  0  0  0  0
   21.3501   30.2365   17.5507 C   0  0  0  0  0  0  0  0  0  0  0  0
   20.8027   30.5748   18.8053 C   0  0  0  0  0  0  0  0  0  0  0  0
   20.7201   29.6031   19.8253 C   0  0  0  0  0  0  0  0  0  0  0  0
   20.0046   30.0564   21.5150 Br  0  0  0  0  0  0  0  0  0  0  0  0
   21.1103   27.3536   20.6034 O   0  0  0  0  0  0  0  0  0  0  0  0
   20.0143   26.1655   20.5597 S   0  0  0  0  0  0  0  0  0  0  0  0
   20.6351   25.1655   19.7626 O   0  0  0  0  0  0  0  0  0  0  0  0
   19.7422   25.9201   21.9395 O   0  0  0  0  0  0  0  0  0  0  0  0
   18.7564   26.7040   19.8104 N   0  0  0  0  0  0  0  0  0  0  0  0
   18.0468   25.9725   19.7683 H   0  0  0  0  0  0  0  0  0  0  0  0
   19.0169   26.9800   18.8637 H   0  0  0  0  0  0  0  0  0  0  0  0
   22.1482   32.5358   16.9084 N   0  0  0  0  0  0  0  0  0  0  0  0
   26.4353   33.0559   17.2381 C   0  0  0  0  0  0  0  0  0  0  0  0
   25.5613   34.1444   17.4867 C   0  0  0  0  0  0  0  0  0  0  0  0
   24.1706   33.9819   17.3852 C   0  0  0  0  0  0  0  0  0  0  0  0
   23.5870   32.7106   17.0236 C   0  0  0  0  0  0  0  0  0  0  0  0
   24.4938   31.6253   16.7794 C   0  0  0  0  0  0  0  0  0  0  0  0
   25.8833   31.7950   16.8835 C   0  0  0  0  0  0  0  0  0  0  0  0
   27.8589   33.2093   17.3391 C   0  0  0  0  0  0  0  0  0  0  0  0
   28.9938   33.3672   17.4182 N   0  0  0  0  0  0  0  0  0  0  0  0
   20.0136   35.3224   17.4122 N   0  0  0  0  0  0  0  0  0  0  0  0
   20.2758   35.4287   16.0497 N   0  0  0  0  0  0  0  0  0  0  0  0
   21.0613   34.4531   15.7214 C   0  0  0  0  0  0  0  0  0  0  0  0
   21.3355   33.6876   16.8237 N   0  0  0  0  0  0  0  0  0  0  0  0
   20.6535   34.2834   17.8502 C   0  0  0  0  0  0  0  0  0  0  0  0
 10 11  2  0  0  0
 10 12  2  0  0  0
 10  9  1  0  0  0
 10 13  1  0  0  0
  9  2  1  0  0  0
  2  3  2  0  0  0
  2  7  1  0  0  0
  3  4  1  0  0  0
  4  5  2  0  0  0
  5  6  1  0  0  0
  5  1  1  0  0  0
  6  7  2  0  0  0
  7  8  1  0  0  0
  1 16  1  0  0  0
 23 24  3  0  0  0
 23 17  1  0  0  0
 17 18  1  0  0  0
 17 22  2  0  0  0
 18 19  2  0  0  0
 19 20  1  0  0  0
 20 21  2  0  0  0
 20 16  1  0  0  0
 21 22  1  0  0  0
 16 28  1  0  0  0
 25 26  1  0  0  0
 25 29  2  0  0  0
 26 27  2  0  0  0
 27 28  1  0  0  0
 28 29  1  0  0  0
 13 14  1  0  0  0
 13 15  1  0  0  0
M  END
> <minimizedAffinity>
-7.85119

$$$$
1XQ0_4TR_A_270


 29 31  0  0  0  0  0  0  0  0999 V2000
   21.3413   30.9966   16.2262 C   0  0  0  0  0  0  0  0  0  0  0  0
   21.1626   28.2006   19.5416 C   0  0  0  0  0  0  0  0  0  0  0  0
   21.7432   27.8046   18.3179 C   0  0  0  0  0  0  0  0  0  0  0  0
   21.7972   28.7022   17.2447 C   0  0  0  0  0  0  0  0  0  0  0  0
   21.2628   30.0147   17.3867 C   0  0  0  0  0  0  0  0  0  0  0  0
   20.6792   30.4047   18.6096 C   0  0  0  0  0  0  0  0  0  0  0  0
   20.6285   29.4975   19.6894 C   0  0  0  0  0  0  0  0  0  0  0  0
   19.8644   30.0216   21.3368 Br  0  0  0  0  0  0  0  0  0  0  0  0
   21.1175   27.3253   20.6169 O   0  0  0  0  0  0  0  0  0  0  0  0
   20.0377   26.1228   20.6670 S   0  0  0  0  0  0  0  0  0  0  0  0
   20.6535   25.0872   19.9126 O   0  0  0  0  0  0  0  0  0  0  0  0
   19.8019   25.9525   22.0646 O   0  0  0  0  0  0  0  0  0  0  0  0
   18.7550   26.6019   19.9196 N   0  0  0  0  0  0  0  0  0  0  0  0
   18.0549   25.8602   19.9360 H   0  0  0  0  0  0  0  0  0  0  0  0
   18.9890   26.8271   18.9527 H   0  0  0  0  0  0  0  0  0  0  0  0
   22.0980   32.2415   16.5623 N   0  0  0  0  0  0  0  0  0  0  0  0
   20.3287   36.0953   17.4436 C   0  0  0  0  0  0  0  0  0  0  0  0
   20.8838   35.8386   16.1643 C   0  0  0  0  0  0  0  0  0  0  0  0
   21.4555   34.5905   15.8707 C   0  0  0  0  0  0  0  0  0  0  0  0
   21.5005   33.5342   16.8555 C   0  0  0  0  0  0  0  0  0  0  0  0
   20.9301   33.8198   18.1411 C   0  0  0  0  0  0  0  0  0  0  0  0
   20.3595   35.0698   18.4274 C   0  0  0  0  0  0  0  0  0  0  0  0
   19.7410   37.3671   17.7558 C   0  0  0  0  0  0  0  0  0  0  0  0
   19.2985   38.3919   18.0265 N   0  0  0  0  0  0  0  0  0  0  0  0
   25.2119   31.9949   18.2408 N   0  0  0  0  0  0  0  0  0  0  0  0
   25.4895   31.3131   17.0599 N   0  0  0  0  0  0  0  0  0  0  0  0
   24.4164   31.3252   16.3353 C   0  0  0  0  0  0  0  0  0  0  0  0
   23.4211   31.9992   16.9921 N   0  0  0  0  0  0  0  0  0  0  0  0
   23.9792   32.3916   18.1789 C   0  0  0  0  0  0  0  0  0  0  0  0
 10 11  2  0  0  0
 10 12  2  0  0  0
 10  9  1  0  0  0
 10 13  1  0  0  0
  9  2  1  0  0  0
  2  3  2  0  0  0
  2  7  1  0  0  0
  3  4  1  0  0  0
  4  5  2  0  0  0
  5  6  1  0  0  0
  5  1  1  0  0  0
  6  7  2  0  0  0
  7  8  1  0  0  0
  1 16  1  0  0  0
 23 24  3  0  0  0
 23 17  1  0  0  0
 17 18  1  0  0  0
 17 22  2  0  0  0
 18 19  2  0  0  0
 19 20  1  0  0  0
 20 21  2  0  0  0
 20 16  1  0  0  0
 21 22  1  0  0  0
 16 28  1  0  0  0
 25 26  1  0  0  0
 25 29  2  0  0  0
 26 27  2  0  0  0
 27 28  1  0  0  0
 28 29  1  0  0  0
 13 14  1  0  0  0
 13 15  1  0  0  0
M  END
> <minimizedAffinity>
-7.71249

$$$$
1XQ0_4TR_A_270


 29 31  0  0  0  0  0  0  0  0999 V2000
   23.6758   32.9140   19.3262 C   0  0  0  0  0  0  0  0  0  0  0  0
   27.8325   32.9816   18.0778 C   0  0  0  0  0  0  0  0  0  0  0  0
   26.8519   32.4263   17.2286 C   0  0  0  0  0  0  0  0  0  0  0  0
   25.5110   32.3977   17.6308 C   0  0  0  0  0  0  0  0  0  0  0  0
   25.1368   32.9263   18.8992 C   0  0  0  0  0  0  0  0  0  0  0  0
   26.1205   33.4759   19.7468 C   0  0  0  0  0  0  0  0  0  0  0  0
   27.4706   33.5045   19.3367 C   0  0  0  0  0  0  0  0  0  0  0  0
   28.7903   34.2573   20.4610 Br  0  0  0  0  0  0  0  0  0  0  0  0
   29.1617   33.0297   17.6837 O   0  0  0  0  0  0  0  0  0  0  0  0
   29.6738   34.1289   16.6141 S   0  0  0  0  0  0  0  0  0  0  0  0
   29.4934   33.4856   15.3593 O   0  0  0  0  0  0  0  0  0  0  0  0
   28.9097   35.2885   16.9450 O   0  0  0  0  0  0  0  0  0  0  0  0
   31.1985   34.3546   16.8547 N   0  0  0  0  0  0  0  0  0  0  0  0
   31.5488   35.0457   16.1914 H   0  0  0  0  0  0  0  0  0  0  0  0
   31.6973   33.4745   16.7239 H   0  0  0  0  0  0  0  0  0  0  0  0
   22.8095   32.0916   18.4271 N   0  0  0  0  0  0  0  0  0  0  0  0
   21.6058   27.9984   19.1724 C   0  0  0  0  0  0  0  0  0  0  0  0
   21.9640   28.8465   20.2508 C   0  0  0  0  0  0  0  0  0  0  0  0
   22.3515   30.1753   20.0167 C   0  0  0  0  0  0  0  0  0  0  0  0
   22.4015   30.7190   18.6790 C   0  0  0  0  0  0  0  0  0  0  0  0
   22.0321   29.8401   17.6062 C   0  0  0  0  0  0  0  0  0  0  0  0
   21.6449   28.5127   17.8478 C   0  0  0  0  0  0  0  0  0  0  0  0
   21.2074   26.6381   19.3988 C   0  0  0  0  0  0  0  0  0  0  0  0
   20.8567   25.5613   19.5905 N   0  0  0  0  0  0  0  0  0  0  0  0
   20.6557   34.3383   16.7275 N   0  0  0  0  0  0  0  0  0  0  0  0
   21.2400   33.6667   15.6580 N   0  0  0  0  0  0  0  0  0  0  0  0
   22.0678   32.7969   16.1427 C   0  0  0  0  0  0  0  0  0  0  0  0
   22.0574   32.8593   17.5109 N   0  0  0  0  0  0  0  0  0  0  0  0
   21.1566   33.8437   17.8162 C   0  0  0  0  0  0  0  0  0  0  0  0
 10 11  2  0  0  0
 10 12  2  0  0  0
 10  9  1  0  0  0
 10 13  1  0  0  0
  9  2  1  0  0  0
  2  3  2  0  0  0
  2  7  1  0  0  0
  3  4  1  0  0  0
  4  5  2  0  0  0
  5  6  1  0  0  0
  5  1  1  0  0  0
  6  7  2  0  0  0
  7  8  1  0  0  0
  1 16  1  0  0  0
 23 24  3  0  0  0
 23 17  1  0  0  0
 17 18  1  0  0  0
 17 22  2  0  0  0
 18 19  2  0  0  0
 19 20  1  0  0  0
 20 21  2  0  0  0
 20 16  1  0  0  0
 21 22  1  0  0  0
 16 28  1  0  0  0
 25 26  1  0  0  0
 25 29  2  0  0  0
 26 27  2  0  0  0
 27 28  1  0  0  0
 28 29  1  0  0  0
 13 14  1  0  0  0
 13 15  1  0  0  0
M  END
> <minimizedAffinity>
-7.63899

$$$$
1XQ0_4TR_A_270


 29 31  0  0  0  0  0  0  0  0999 V2000
   19.7783   32.6664   19.1898 C   0  0  0  0  0  0  0  0  0  0  0  0
   20.8042   28.6057   20.3296 C   0  0  0  0  0  0  0  0  0  0  0  0
   20.2595   29.4885   21.2862 C   0  0  0  0  0  0  0  0  0  0  0  0
   19.9328   30.8007   20.9232 C   0  0  0  0  0  0  0  0  0  0  0  0
   20.1537   31.2461   19.5886 C   0  0  0  0  0  0  0  0  0  0  0  0
   20.7027   30.3623   18.6371 C   0  0  0  0  0  0  0  0  0  0  0  0
   21.0288   29.0398   19.0066 C   0  0  0  0  0  0  0  0  0  0  0  0
   21.7473   27.8454   17.7301 Br  0  0  0  0  0  0  0  0  0  0  0  0
   21.1172   27.2987   20.6734 O   0  0  0  0  0  0  0  0  0  0  0  0
   19.9830   26.1463   20.6848 S   0  0  0  0  0  0  0  0  0  0  0  0
   20.5500   25.1095   19.8947 O   0  0  0  0  0  0  0  0  0  0  0  0
   19.7399   25.9399   22.0764 O   0  0  0  0  0  0  0  0  0  0  0  0
   18.7235   26.7092   19.9564 N   0  0  0  0  0  0  0  0  0  0  0  0
   17.9899   26.0005   19.9491 H   0  0  0  0  0  0  0  0  0  0  0  0
   18.9675   26.9560   18.9972 H   0  0  0  0  0  0  0  0  0  0  0  0
   20.9580   33.4947   18.7928 N   0  0  0  0  0  0  0  0  0  0  0  0
   24.3936   34.3034   21.3030 C   0  0  0  0  0  0  0  0  0  0  0  0
   24.3231   33.1030   20.5516 C   0  0  0  0  0  0  0  0  0  0  0  0
   23.2142   32.8362   19.7332 C   0  0  0  0  0  0  0  0  0  0  0  0
   22.1138   33.7669   19.6318 C   0  0  0  0  0  0  0  0  0  0  0  0
   22.2114   34.9747   20.4009 C   0  0  0  0  0  0  0  0  0  0  0  0
   23.3236   35.2351   21.2166 C   0  0  0  0  0  0  0  0  0  0  0  0
   25.5222   34.5879   22.1430 C   0  0  0  0  0  0  0  0  0  0  0  0
   26.4468   34.8051   22.7889 N   0  0  0  0  0  0  0  0  0  0  0  0
   20.9854   34.5678   15.4130 N   0  0  0  0  0  0  0  0  0  0  0  0
   21.5511   33.3017   15.2966 N   0  0  0  0  0  0  0  0  0  0  0  0
   21.6039   32.7824   16.4816 C   0  0  0  0  0  0  0  0  0  0  0  0
   21.0866   33.6609   17.3963 N   0  0  0  0  0  0  0  0  0  0  0  0
   20.7192   34.7597   16.6672 C   0  0  0  0  0  0  0  0  0  0  0  0
 10 11  2  0  0  0
 10 12  2  0  0  0
 10  9  1  0  0  0
 10 13  1  0  0  0
  9  2  1  0  0  0
  2  3  2  0  0  0
  2  7  1  0  0  0
  3  4  1  0  0  0
  4  5  2  0  0  0
  5  6  1  0  0  0
  5  1  1  0  0  0
  6  7  2  0  0  0
  7  8  1  0  0  0
  1 16  1  0  0  0
 23 24  3  0  0  0
 23 17  1  0  0  0
 17 18  1  0  0  0
 17 22  2  0  0  0
 18 19  2  0  0  0
 19 20  1  0  0  0
 20 21  2  0  0  0
 20 16  1  0  0  0
 21 22  1  0  0  0
 16 28  1  0  0  0
 25 26  1  0  0  0
 25 29  2  0  0  0
 26 27  2  0  0  0
 27 28  1  0  0  0
 28 29  1  0  0  0
 13 14  1  0  0  0
 13 15  1  0  0  0
M  END
> <minimizedAffinity>
-7.55234

$$$$
1XQ0_4TR_A_270


 29 31  0  0  0  0  0  0  0  0999 V2000
   21.0632   35.2955   18.5268 C   0  0  0  0  0  0  0  0  0  0  0  0
   19.8860   31.1561   19.0927 C   0  0  0  0  0  0  0  0  0  0  0  0
   19.3490   32.1604   19.9259 C   0  0  0  0  0  0  0  0  0  0  0  0
   19.7311   33.4958   19.7498 C   0  0  0  0  0  0  0  0  0  0  0  0
   20.6649   33.8407   18.7313 C   0  0  0  0  0  0  0  0  0  0  0  0
   21.2028   32.8335   17.9040 C   0  0  0  0  0  0  0  0  0  0  0  0
   20.8135   31.4889   18.0837 C   0  0  0  0  0  0  0  0  0  0  0  0
   21.5170   30.1375   16.9651 Br  0  0  0  0  0  0  0  0  0  0  0  0
   19.5031   29.8318   19.2475 O   0  0  0  0  0  0  0  0  0  0  0  0
   20.2209   28.8796   20.3394 S   0  0  0  0  0  0  0  0  0  0  0  0
   19.3631   28.9597   21.4702 O   0  0  0  0  0  0  0  0  0  0  0  0
   20.3797   27.6439   19.6424 O   0  0  0  0  0  0  0  0  0  0  0  0
   21.5972   29.5198   20.6995 N   0  0  0  0  0  0  0  0  0  0  0  0
   22.0730   28.9378   21.3889 H   0  0  0  0  0  0  0  0  0  0  0  0
   21.4478   30.4517   21.0865 H   0  0  0  0  0  0  0  0  0  0  0  0
   20.1868   36.0112   17.5496 N   0  0  0  0  0  0  0  0  0  0  0  0
   17.0300   38.7851   18.5981 C   0  0  0  0  0  0  0  0  0  0  0  0
   18.3893   39.1737   18.7067 C   0  0  0  0  0  0  0  0  0  0  0  0
   19.4174   38.2810   18.3650 C   0  0  0  0  0  0  0  0  0  0  0  0
   19.1279   36.9447   17.8979 C   0  0  0  0  0  0  0  0  0  0  0  0
   17.7442   36.5778   17.7953 C   0  0  0  0  0  0  0  0  0  0  0  0
   16.7214   37.4760   18.1380 C   0  0  0  0  0  0  0  0  0  0  0  0
   15.9699   39.6889   18.9439 C   0  0  0  0  0  0  0  0  0  0  0  0
   15.0987   40.3908   19.2038 N   0  0  0  0  0  0  0  0  0  0  0  0
   20.8619   35.8593   14.0717 N   0  0  0  0  0  0  0  0  0  0  0  0
   22.0665   36.3595   14.5567 N   0  0  0  0  0  0  0  0  0  0  0  0
   21.9596   36.4686   15.8425 C   0  0  0  0  0  0  0  0  0  0  0  0
   20.7168   36.0531   16.2413 N   0  0  0  0  0  0  0  0  0  0  0  0
   20.0763   35.6865   15.0884 C   0  0  0  0  0  0  0  0  0  0  0  0
 10 11  2  0  0  0
 10 12  2  0  0  0
 10  9  1  0  0  0
 10 13  1  0  0  0
  9  2  1  0  0  0
  2  3  2  0  0  0
  2  7  1  0  0  0
  3  4  1  0  0  0
  4  5  2  0  0  0
  5  6  1  0  0  0
  5  1  1  0  0  0
  6  7  2  0  0  0
  7  8  1  0  0  0
  1 16  1  0  0  0
 23 24  3  0  0  0
 23 17  1  0  0  0
 17 18  1  0  0  0
 17 22  2  0  0  0
 18 19  2  0  0  0
 19 20  1  0  0  0
 20 21  2  0  0  0
 20 16  1  0  0  0
 21 22  1  0  0  0
 16 28  1  0  0  0
 25 26  1  0  0  0
 25 29  2  0  0  0
 26 27  2  0  0  0
 27 28  1  0  0  0
 28 29  1  0  0  0
 13 14  1  0  0  0
 13 15  1  0  0  0
M  END
> <minimizedAffinity>
-7.50143

$$$$
1XQ0_4TR_A_270


 29 31  0  0  0  0  0  0  0  0999 V2000
   22.8044   33.3752   19.3246 C   0  0  0  0  0  0  0  0  0  0  0  0
   21.1388   29.3763   19.0500 C   0  0  0  0  0  0  0  0  0  0  0  0
   21.9552   29.8712   18.0109 C   0  0  0  0  0  0  0  0  0  0  0  0
   22.4893   31.1628   18.0938 C   0  0  0  0  0  0  0  0  0  0  0  0
   22.2057   31.9792   19.2257 C   0  0  0  0  0  0  0  0  0  0  0  0
   21.3855   31.4827   20.2595 C   0  0  0  0  0  0  0  0  0  0  0  0
   20.8507   30.1795   20.1730 C   0  0  0  0  0  0  0  0  0  0  0  0
   19.7662   29.5022   21.5649 Br  0  0  0  0  0  0  0  0  0  0  0  0
   20.6168   28.0926   18.9865 O   0  0  0  0  0  0  0  0  0  0  0  0
   21.5876   26.8006   18.9355 S   0  0  0  0  0  0  0  0  0  0  0  0
   21.5967   26.4418   17.5600 O   0  0  0  0  0  0  0  0  0  0  0  0
   22.7817   27.2630   19.5667 O   0  0  0  0  0  0  0  0  0  0  0  0
   20.9071   25.6598   19.7535 N   0  0  0  0  0  0  0  0  0  0  0  0
   21.5001   24.8300   19.7379 H   0  0  0  0  0  0  0  0  0  0  0  0
   20.0015   25.4384   19.3398 H   0  0  0  0  0  0  0  0  0  0  0  0
   24.2344   33.3700   19.7609 N   0  0  0  0  0  0  0  0  0  0  0  0
   27.6578   33.6539   17.1231 C   0  0  0  0  0  0  0  0  0  0  0  0
   26.3496   33.8775   16.6241 C   0  0  0  0  0  0  0  0  0  0  0  0
   25.2359   33.7907   17.4743 C   0  0  0  0  0  0  0  0  0  0  0  0
   25.3832   33.4698   18.8753 C   0  0  0  0  0  0  0  0  0  0  0  0
   26.7180   33.2503   19.3548 C   0  0  0  0  0  0  0  0  0  0  0  0
   27.8270   33.3395   18.4990 C   0  0  0  0  0  0  0  0  0  0  0  0
   28.8045   33.7402   16.2641 C   0  0  0  0  0  0  0  0  0  0  0  0
   29.7288   33.7750   15.5831 N   0  0  0  0  0  0  0  0  0  0  0  0
   24.7241   34.8449   22.9483 N   0  0  0  0  0  0  0  0  0  0  0  0
   24.5983   33.5022   23.2911 N   0  0  0  0  0  0  0  0  0  0  0  0
   24.4106   32.8318   22.1993 C   0  0  0  0  0  0  0  0  0  0  0  0
   24.4090   33.6838   21.1267 N   0  0  0  0  0  0  0  0  0  0  0  0
   24.6072   34.9288   21.6599 C   0  0  0  0  0  0  0  0  0  0  0  0
 10 11  2  0  0  0
 10 12  2  0  0  0
 10  9  1  0  0  0
 10 13  1  0  0  0
  9  2  1  0  0  0
  2  3  2  0  0  0
  2  7  1  0  0  0
  3  4  1  0  0  0
  4  5  2  0  0  0
  5  6  1  0  0  0
  5  1  1  0  0  0
  6  7  2  0  0  0
  7  8  1  0  0  0
  1 16  1  0  0  0
 23 24  3  0  0  0
 23 17  1  0  0  0
 17 18  1  0  0  0
 17 22  2  0  0  0
 18 19  2  0  0  0
 19 20  1  0  0  0
 20 21  2  0  0  0
 20 16  1  0  0  0
 21 22  1  0  0  0
 16 28  1  0  0  0
 25 26  1  0  0  0
 25 29  2  0  0  0
 26 27  2  0  0  0
 27 28  1  0  0  0
 28 29  1  0  0  0
 13 14  1  0  0  0
 13 15  1  0  0  0
M  END
> <minimizedAffinity>
-7.45220

$$$$
1XQ0_4TR_A_270


 29 31  0  0  0  0  0  0  0  0999 V2000
   20.0095   30.4888   19.1205 C   0  0  0  0  0  0  0  0  0  0  0  0
   19.7273   34.8146   18.8997 C   0  0  0  0  0  0  0  0  0  0  0  0
   18.8835   34.0984   19.7750 C   0  0  0  0  0  0  0  0  0  0  0  0
   18.9680   32.7025   19.8443 C   0  0  0  0  0  0  0  0  0  0  0  0
   19.9038   32.0045   19.0286 C   0  0  0  0  0  0  0  0  0  0  0  0
   20.7417   32.7236   18.1518 C   0  0  0  0  0  0  0  0  0  0  0  0
   20.6547   34.1307   18.0864 C   0  0  0  0  0  0  0  0  0  0  0  0
   21.7889   35.1008   16.9268 Br  0  0  0  0  0  0  0  0  0  0  0  0
   19.6637   36.1988   18.8338 O   0  0  0  0  0  0  0  0  0  0  0  0
   18.4972   36.9397   17.9942 S   0  0  0  0  0  0  0  0  0  0  0  0
   17.3333   36.7349   18.7843 O   0  0  0  0  0  0  0  0  0  0  0  0
   19.0160   38.2561   17.8044 O   0  0  0  0  0  0  0  0  0  0  0  0
   18.3309   36.1841   16.6395 N   0  0  0  0  0  0  0  0  0  0  0  0
   17.5989   36.6319   16.0881 H   0  0  0  0  0  0  0  0  0  0  0  0
   18.0746   35.2136   16.8207 H   0  0  0  0  0  0  0  0  0  0  0  0
   21.3150   30.0256   19.6830 N   0  0  0  0  0  0  0  0  0  0  0  0
   24.0443   32.4484   22.0153 C   0  0  0  0  0  0  0  0  0  0  0  0
   24.4402   31.9388   20.7527 C   0  0  0  0  0  0  0  0  0  0  0  0
   23.5593   31.1559   19.9899 C   0  0  0  0  0  0  0  0  0  0  0  0
   22.2307   30.8423   20.4631 C   0  0  0  0  0  0  0  0  0  0  0  0
   21.8548   31.3722   21.7428 C   0  0  0  0  0  0  0  0  0  0  0  0
   22.7406   32.1548   22.4998 C   0  0  0  0  0  0  0  0  0  0  0  0
   24.9356   33.2503   22.8045 C   0  0  0  0  0  0  0  0  0  0  0  0
   25.6422   33.8710   23.4637 N   0  0  0  0  0  0  0  0  0  0  0  0
   22.0837   26.5774   19.3760 N   0  0  0  0  0  0  0  0  0  0  0  0
   21.1361   26.5509   20.3946 N   0  0  0  0  0  0  0  0  0  0  0  0
   20.7596   27.7700   20.6157 C   0  0  0  0  0  0  0  0  0  0  0  0
   21.4243   28.6205   19.7725 N   0  0  0  0  0  0  0  0  0  0  0  0
   22.2396   27.8153   19.0236 C   0  0  0  0  0  0  0  0  0  0  0  0
 10 11  2  0  0  0
 10 12  2  0  0  0
 10  9  1  0  0  0
 10 13  1  0  0  0
  9  2  1  0  0  0
  2  3  2  0  0  0
  2  7  1  0  0  0
  3  4  1  0  0  0
  4  5  2  0  0  0
  5  6  1  0  0  0
  5  1  1  0  0  0
  6  7  2  0  0  0
  7  8  1  0  0  0
  1 16  1  0  0  0
 23 24  3  0  0  0
 23 17  1  0  0  0
 17 18  1  0  0  0
 17 22  2  0  0  0
 18 19  2  0  0  0
 19 20  1  0  0  0
 20 21  2  0  0  0
 20 16  1  0  0  0
 21 22  1  0  0  0
 16 28  1  0  0  0
 25 26  1  0  0  0
 25 29  2  0  0  0
 26 27  2  0  0  0
 27 28  1  0  0  0
 28 29  1  0  0  0
 13 14  1  0  0  0
 13 15  1  0  0  0
M  END
> <minimizedAffinity>
-7.43780

$$$$
1XQ0_4TR_A_270


 29 31  0  0  0  0  0  0  0  0999 V2000
   24.3011   32.8254   19.7474 C   0  0  0  0  0  0  0  0  0  0  0  0
   21.7754   29.3910   18.9312 C   0  0  0  0  0  0  0  0  0  0  0  0
   22.1226   29.7085   20.2615 C   0  0  0  0  0  0  0  0  0  0  0  0
   22.9419   30.8123   20.5278 C   0  0  0  0  0  0  0  0  0  0  0  0
   23.4281   31.6132   19.4552 C   0  0  0  0  0  0  0  0  0  0  0  0
   23.0827   31.2896   18.1270 C   0  0  0  0  0  0  0  0  0  0  0  0
   22.2550   30.1774   17.8632 C   0  0  0  0  0  0  0  0  0  0  0  0
   21.7735   29.7505   16.0860 Br  0  0  0  0  0  0  0  0  0  0  0  0
   20.9516   28.3093   18.6562 O   0  0  0  0  0  0  0  0  0  0  0  0
   21.5389   26.8032   18.6204 S   0  0  0  0  0  0  0  0  0  0  0  0
   21.6487   26.5188   17.2319 O   0  0  0  0  0  0  0  0  0  0  0  0
   22.7100   26.8891   19.4324 O   0  0  0  0  0  0  0  0  0  0  0  0
   20.4686   25.8585   19.2494 N   0  0  0  0  0  0  0  0  0  0  0  0
   20.8143   24.8989   19.2395 H   0  0  0  0  0  0  0  0  0  0  0  0
   19.6057   25.9147   18.7085 H   0  0  0  0  0  0  0  0  0  0  0  0
   23.5191   34.0131   20.2091 N   0  0  0  0  0  0  0  0  0  0  0  0
   19.9817   35.5775   18.2602 C   0  0  0  0  0  0  0  0  0  0  0  0
   19.8618   34.7686   19.4186 C   0  0  0  0  0  0  0  0  0  0  0  0
   21.0043   34.2613   20.0574 C   0  0  0  0  0  0  0  0  0  0  0  0
   22.3310   34.5412   19.5582 C   0  0  0  0  0  0  0  0  0  0  0  0
   22.4240   35.3639   18.3859 C   0  0  0  0  0  0  0  0  0  0  0  0
   21.2772   35.8682   17.7528 C   0  0  0  0  0  0  0  0  0  0  0  0
   18.8212   36.1025   17.5984 C   0  0  0  0  0  0  0  0  0  0  0  0
   17.8723   36.5013   17.0887 N   0  0  0  0  0  0  0  0  0  0  0  0
   24.0942   35.5526   23.3514 N   0  0  0  0  0  0  0  0  0  0  0  0
   24.0854   34.2080   23.7095 N   0  0  0  0  0  0  0  0  0  0  0  0
   23.8803   33.5145   22.6354 C   0  0  0  0  0  0  0  0  0  0  0  0
   23.7532   34.3528   21.5597 N   0  0  0  0  0  0  0  0  0  0  0  0
   23.8940   35.6144   22.0720 C   0  0  0  0  0  0  0  0  0  0  0  0
 10 11  2  0  0  0
 10 12  2  0  0  0
 10  9  1  0  0  0
 10 13  1  0  0  0
  9  2  1  0  0  0
  2  3  2  0  0  0
  2  7  1  0  0  0
  3  4  1  0  0  0
  4  5  2  0  0  0
  5  6  1  0  0  0
  5  1  1  0  0  0
  6  7  2  0  0  0
  7  8  1  0  0  0
  1 16  1  0  0  0
 23 24  3  0  0  0
 23 17  1  0  0  0
 17 18  1  0  0  0
 17 22  2  0  0  0
 18 19  2  0  0  0
 19 20  1  0  0  0
 20 21  2  0  0  0
 20 16  1  0  0  0
 21 22  1  0  0  0
 16 28  1  0  0  0
 25 26  1  0  0  0
 25 29  2  0  0  0
 26 27  2  0  0  0
 27 28  1  0  0  0
 28 29  1  0  0  0
 13 14  1  0  0  0
 13 15  1  0  0  0
M  END
> <minimizedAffinity>
-7.38123

$$$$
