5VCV_1N1_A_404


 36 39  0  0  0  0  0  0  0  0999 V2000
   23.6260    5.4138    2.1578 N   0  0  0  0  0  0  0  0  0  0  0  0
   23.1403    5.7976    2.9233 H   0  0  0  0  0  0  0  0  0  0  0  0
   24.7495    6.1151    1.5681 C   0  0  0  0  0  0  0  0  0  0  0  0
   25.7105    5.3412    0.9040 C   0  0  0  0  0  0  0  0  0  0  0  0
   26.7969    6.0076    0.3360 C   0  0  0  0  0  0  0  0  0  0  0  0
   25.9751    8.0421    1.0903 C   0  0  0  0  0  0  0  0  0  0  0  0
   26.1272    9.5124    1.1688 C   0  0  0  0  0  0  0  0  0  0  0  0
   26.8955    7.3360    0.4509 N   0  0  0  0  0  0  0  0  0  0  0  0
   24.9155    7.4516    1.6423 N   0  0  0  0  0  0  0  0  0  0  0  0
   29.1344    3.4129   -1.9006 N   0  0  0  0  0  0  0  0  0  0  0  0
   27.7258    3.8390   -0.0439 C   0  0  0  0  0  0  0  0  0  0  0  0
   28.2804    5.6613   -1.6696 C   0  0  0  0  0  0  0  0  0  0  0  0
   27.8295    5.2356   -0.3499 N   0  0  0  0  0  0  0  0  0  0  0  0
   28.9292    3.1218   -0.4974 C   0  0  0  0  0  0  0  0  0  0  0  0
   29.4726    4.8307   -2.0970 C   0  0  0  0  0  0  0  0  0  0  0  0
   28.3825    2.7467   -2.9792 C   0  0  0  0  0  0  0  0  0  0  0  0
   28.5552    1.2636   -2.7604 C   0  0  0  0  0  0  0  0  0  0  0  0
   27.6169    0.5563   -3.4938 O   0  0  0  0  0  0  0  0  0  0  0  0
   26.7252    0.8109   -3.2093 H   0  0  0  0  0  0  0  0  0  0  0  0
   21.9996    2.8092    0.3676 C   0  0  0  0  0  0  0  0  0  0  0  0
   22.9050    1.8754    0.8697 C   0  0  0  0  0  0  0  0  0  0  0  0
   23.2408    4.1640    1.6100 C   0  0  0  0  0  0  0  0  0  0  0  0
   22.2311    4.0386    0.8063 N   0  0  0  0  0  0  0  0  0  0  0  0
   24.0579    2.6369    1.9114 S   0  0  0  0  0  0  0  0  0  0  0  0
   22.9541    0.4199    0.6281 C   0  0  0  0  0  0  0  0  0  0  0  0
   23.1757   -0.3862    1.7670 N   0  0  0  0  0  0  0  0  0  0  0  0
   22.8053   -0.0441   -0.4888 O   0  0  0  0  0  0  0  0  0  0  0  0
   23.2758    0.0258    2.6555 H   0  0  0  0  0  0  0  0  0  0  0  0
   23.3760   -4.5386    1.2294 C   0  0  0  0  0  0  0  0  0  0  0  0
   24.5544   -3.8189    1.2440 C   0  0  0  0  0  0  0  0  0  0  0  0
   24.4979   -2.4514    1.4360 C   0  0  0  0  0  0  0  0  0  0  0  0
   25.7518   -1.6103    1.4259 C   0  0  0  0  0  0  0  0  0  0  0  0
   23.2546   -1.8320    1.6143 C   0  0  0  0  0  0  0  0  0  0  0  0
   22.0754   -2.5569    1.6062 C   0  0  0  0  0  0  0  0  0  0  0  0
   22.1370   -3.9202    1.4155 C   0  0  0  0  0  0  0  0  0  0  0  0
   20.5417   -1.7704    1.8049 Cl  0  0  0  0  0  0  0  0  0  0  0  0
 20 21  2  0  0  0
 20 23  1  0  0  0
 21 25  1  0  0  0
 21 24  1  0  0  0
 25 26  1  0  0  0
 25 27  2  0  0  0
 10 16  1  0  0  0
 10 14  1  0  0  0
 10 15  1  0  0  0
 29 30  2  0  0  0
 29 35  1  0  0  0
 30 31  1  0  0  0
 31 32  1  0  0  0
 31 33  2  0  0  0
  3  4  1  0  0  0
  3  1  1  0  0  0
  3  9  2  0  0  0
  4  5  2  0  0  0
  5  8  1  0  0  0
  5 13  1  0  0  0
  6  7  1  0  0  0
  6  8  2  0  0  0
  6  9  1  0  0  0
 11 13  1  0  0  0
 11 14  1  0  0  0
 12 13  1  0  0  0
 12 15  1  0  0  0
 16 17  1  0  0  0
 17 18  1  0  0  0
  1 22  1  0  0  0
 22 23  2  0  0  0
 22 24  1  0  0  0
 26 33  1  0  0  0
 33 34  1  0  0  0
 34 35  2  0  0  0
 34 36  1  0  0  0
  1  2  1  0  0  0
 26 28  1  0  0  0
 18 19  1  0  0  0
M  END
> <minimizedAffinity>
-10.09214

$$$$
5VCV_1N1_A_404


 36 39  0  0  0  0  0  0  0  0999 V2000
   27.2445    7.4120   -0.1127 N   0  0  0  0  0  0  0  0  0  0  0  0
   27.7423    8.2192   -0.3770 H   0  0  0  0  0  0  0  0  0  0  0  0
   26.1005    7.5056    0.7730 C   0  0  0  0  0  0  0  0  0  0  0  0
   25.2589    6.3881    0.8525 C   0  0  0  0  0  0  0  0  0  0  0  0
   24.1537    6.4705    1.7003 C   0  0  0  0  0  0  0  0  0  0  0  0
   24.7351    8.6384    2.2883 C   0  0  0  0  0  0  0  0  0  0  0  0
   24.4433    9.8491    3.0884 C   0  0  0  0  0  0  0  0  0  0  0  0
   23.9260    7.5944    2.3878 N   0  0  0  0  0  0  0  0  0  0  0  0
   25.8077    8.6047    1.4979 N   0  0  0  0  0  0  0  0  0  0  0  0
   22.1828    2.8634    2.2505 N   0  0  0  0  0  0  0  0  0  0  0  0
   23.7371    4.2042    1.0676 C   0  0  0  0  0  0  0  0  0  0  0  0
   22.4830    5.1317    3.0268 C   0  0  0  0  0  0  0  0  0  0  0  0
   23.2422    5.3338    1.7984 N   0  0  0  0  0  0  0  0  0  0  0  0
   22.6885    3.1795    0.9313 C   0  0  0  0  0  0  0  0  0  0  0  0
   21.4774    4.0163    2.8307 C   0  0  0  0  0  0  0  0  0  0  0  0
   22.8811    1.9637    3.1859 C   0  0  0  0  0  0  0  0  0  0  0  0
   21.8334    1.4582    4.1471 C   0  0  0  0  0  0  0  0  0  0  0  0
   22.1943    0.2163    4.6433 O   0  0  0  0  0  0  0  0  0  0  0  0
   22.2741   -0.4140    3.9103 H   0  0  0  0  0  0  0  0  0  0  0  0
   28.4780    4.7105   -2.0658 C   0  0  0  0  0  0  0  0  0  0  0  0
   28.1773    3.8116   -1.0434 C   0  0  0  0  0  0  0  0  0  0  0  0
   27.6319    6.1346   -0.5907 C   0  0  0  0  0  0  0  0  0  0  0  0
   28.1578    5.9608   -1.7631 N   0  0  0  0  0  0  0  0  0  0  0  0
   27.4808    4.6330    0.3110 S   0  0  0  0  0  0  0  0  0  0  0  0
   28.3665    2.3477   -1.0207 C   0  0  0  0  0  0  0  0  0  0  0  0
   29.5927    1.8773   -1.5415 N   0  0  0  0  0  0  0  0  0  0  0  0
   27.5121    1.6035   -0.5724 O   0  0  0  0  0  0  0  0  0  0  0  0
   30.2646    2.5119   -1.8808 H   0  0  0  0  0  0  0  0  0  0  0  0
   30.4181   -2.2295   -1.6960 C   0  0  0  0  0  0  0  0  0  0  0  0
   30.8849   -1.5042   -0.6175 C   0  0  0  0  0  0  0  0  0  0  0  0
   30.6039   -0.1526   -0.5516 C   0  0  0  0  0  0  0  0  0  0  0  0
   31.1187    0.6960    0.5862 C   0  0  0  0  0  0  0  0  0  0  0  0
   29.8533    0.4451   -1.5718 C   0  0  0  0  0  0  0  0  0  0  0  0
   29.3808   -0.2858   -2.6480 C   0  0  0  0  0  0  0  0  0  0  0  0
   29.6627   -1.6333   -2.7088 C   0  0  0  0  0  0  0  0  0  0  0  0
   28.4727    0.4754   -3.9154 Cl  0  0  0  0  0  0  0  0  0  0  0  0
 20 21  2  0  0  0
 20 23  1  0  0  0
 21 25  1  0  0  0
 21 24  1  0  0  0
 25 26  1  0  0  0
 25 27  2  0  0  0
 10 16  1  0  0  0
 10 14  1  0  0  0
 10 15  1  0  0  0
 29 30  2  0  0  0
 29 35  1  0  0  0
 30 31  1  0  0  0
 31 32  1  0  0  0
 31 33  2  0  0  0
  3  4  1  0  0  0
  3  1  1  0  0  0
  3  9  2  0  0  0
  4  5  2  0  0  0
  5  8  1  0  0  0
  5 13  1  0  0  0
  6  7  1  0  0  0
  6  8  2  0  0  0
  6  9  1  0  0  0
 11 13  1  0  0  0
 11 14  1  0  0  0
 12 13  1  0  0  0
 12 15  1  0  0  0
 16 17  1  0  0  0
 17 18  1  0  0  0
  1 22  1  0  0  0
 22 23  2  0  0  0
 22 24  1  0  0  0
 26 33  1  0  0  0
 33 34  1  0  0  0
 34 35  2  0  0  0
 34 36  1  0  0  0
  1  2  1  0  0  0
 26 28  1  0  0  0
 18 19  1  0  0  0
M  END
> <minimizedAffinity>
-9.98484

$$$$
5VCV_1N1_A_404


 36 39  0  0  0  0  0  0  0  0999 V2000
   27.4201    7.4189   -0.2601 N   0  0  0  0  0  0  0  0  0  0  0  0
   27.9545    8.2027   -0.5236 H   0  0  0  0  0  0  0  0  0  0  0  0
   26.2622    7.5684    0.5994 C   0  0  0  0  0  0  0  0  0  0  0  0
   25.4210    6.4566    0.7400 C   0  0  0  0  0  0  0  0  0  0  0  0
   24.3024    6.5926    1.5630 C   0  0  0  0  0  0  0  0  0  0  0  0
   24.8713    8.7963    2.0141 C   0  0  0  0  0  0  0  0  0  0  0  0
   24.5651   10.0569    2.7270 C   0  0  0  0  0  0  0  0  0  0  0  0
   24.0622    7.7592    2.1703 N   0  0  0  0  0  0  0  0  0  0  0  0
   25.9563    8.7127    1.2447 N   0  0  0  0  0  0  0  0  0  0  0  0
   22.3445    3.0026    2.2538 N   0  0  0  0  0  0  0  0  0  0  0  0
   23.8359    4.3246    0.9727 C   0  0  0  0  0  0  0  0  0  0  0  0
   22.7032    5.2745    2.9941 C   0  0  0  0  0  0  0  0  0  0  0  0
   23.3912    5.4626    1.7223 N   0  0  0  0  0  0  0  0  0  0  0  0
   22.7748    3.3058    0.9052 C   0  0  0  0  0  0  0  0  0  0  0  0
   21.6811    4.1643    2.8651 C   0  0  0  0  0  0  0  0  0  0  0  0
   23.0903    2.1051    3.1540 C   0  0  0  0  0  0  0  0  0  0  0  0
   22.2124    0.8965    3.3678 C   0  0  0  0  0  0  0  0  0  0  0  0
   22.2171    0.5281    4.7030 O   0  0  0  0  0  0  0  0  0  0  0  0
   23.1218    0.3072    4.9743 H   0  0  0  0  0  0  0  0  0  0  0  0
   28.4890    4.6331   -2.1916 C   0  0  0  0  0  0  0  0  0  0  0  0
   28.2755    3.7795   -1.1102 C   0  0  0  0  0  0  0  0  0  0  0  0
   27.7676    6.1212   -0.7135 C   0  0  0  0  0  0  0  0  0  0  0  0
   28.1940    5.8960   -1.9171 N   0  0  0  0  0  0  0  0  0  0  0  0
   27.6937    4.6600    0.2612 S   0  0  0  0  0  0  0  0  0  0  0  0
   28.4675    2.3175   -1.0406 C   0  0  0  0  0  0  0  0  0  0  0  0
   29.6548    1.8238   -1.6259 N   0  0  0  0  0  0  0  0  0  0  0  0
   27.6472    1.5938   -0.5036 O   0  0  0  0  0  0  0  0  0  0  0  0
   30.3007    2.4427   -2.0369 H   0  0  0  0  0  0  0  0  0  0  0  0
   30.3230   -2.3133   -1.5315 C   0  0  0  0  0  0  0  0  0  0  0  0
   29.6721   -1.7763   -2.6245 C   0  0  0  0  0  0  0  0  0  0  0  0
   29.4615   -0.4111   -2.6703 C   0  0  0  0  0  0  0  0  0  0  0  0
   28.7244    0.2257   -3.8240 C   0  0  0  0  0  0  0  0  0  0  0  0
   29.9142    0.3912   -1.6154 C   0  0  0  0  0  0  0  0  0  0  0  0
   30.5726   -0.1491   -0.5243 C   0  0  0  0  0  0  0  0  0  0  0  0
   30.7812   -1.5106   -0.4837 C   0  0  0  0  0  0  0  0  0  0  0  0
   31.1057    0.8564    0.7854 Cl  0  0  0  0  0  0  0  0  0  0  0  0
 20 21  2  0  0  0
 20 23  1  0  0  0
 21 25  1  0  0  0
 21 24  1  0  0  0
 25 26  1  0  0  0
 25 27  2  0  0  0
 10 16  1  0  0  0
 10 14  1  0  0  0
 10 15  1  0  0  0
 29 30  2  0  0  0
 29 35  1  0  0  0
 30 31  1  0  0  0
 31 32  1  0  0  0
 31 33  2  0  0  0
  3  4  1  0  0  0
  3  1  1  0  0  0
  3  9  2  0  0  0
  4  5  2  0  0  0
  5  8  1  0  0  0
  5 13  1  0  0  0
  6  7  1  0  0  0
  6  8  2  0  0  0
  6  9  1  0  0  0
 11 13  1  0  0  0
 11 14  1  0  0  0
 12 13  1  0  0  0
 12 15  1  0  0  0
 16 17  1  0  0  0
 17 18  1  0  0  0
  1 22  1  0  0  0
 22 23  2  0  0  0
 22 24  1  0  0  0
 26 33  1  0  0  0
 33 34  1  0  0  0
 34 35  2  0  0  0
 34 36  1  0  0  0
  1  2  1  0  0  0
 26 28  1  0  0  0
 18 19  1  0  0  0
M  END
> <minimizedAffinity>
-9.96014

$$$$
5VCV_1N1_A_404


 36 39  0  0  0  0  0  0  0  0999 V2000
   23.5224    5.3571    2.1955 N   0  0  0  0  0  0  0  0  0  0  0  0
   22.7770    5.8481    2.6109 H   0  0  0  0  0  0  0  0  0  0  0  0
   24.6406    6.0688    1.6082 C   0  0  0  0  0  0  0  0  0  0  0  0
   25.6209    5.3020    0.9642 C   0  0  0  0  0  0  0  0  0  0  0  0
   26.7023    5.9786    0.3987 C   0  0  0  0  0  0  0  0  0  0  0  0
   25.8399    8.0091    1.1175 C   0  0  0  0  0  0  0  0  0  0  0  0
   25.9675    9.4825    1.1782 C   0  0  0  0  0  0  0  0  0  0  0  0
   26.7782    7.3098    0.4970 N   0  0  0  0  0  0  0  0  0  0  0  0
   24.7842    7.4087    1.6664 N   0  0  0  0  0  0  0  0  0  0  0  0
   29.1034    3.4128   -1.8036 N   0  0  0  0  0  0  0  0  0  0  0  0
   27.6378    3.8136    0.0142 C   0  0  0  0  0  0  0  0  0  0  0  0
   28.2476    5.6597   -1.5643 C   0  0  0  0  0  0  0  0  0  0  0  0
   27.7542    5.2145   -0.2664 N   0  0  0  0  0  0  0  0  0  0  0  0
   28.8533    3.1003   -0.4123 C   0  0  0  0  0  0  0  0  0  0  0  0
   29.4509    4.8326   -1.9668 C   0  0  0  0  0  0  0  0  0  0  0  0
   28.3846    2.7657   -2.9157 C   0  0  0  0  0  0  0  0  0  0  0  0
   28.3983    1.2854   -2.6228 C   0  0  0  0  0  0  0  0  0  0  0  0
   27.5849    0.6099   -3.5176 O   0  0  0  0  0  0  0  0  0  0  0  0
   26.6746    0.9348   -3.4359 H   0  0  0  0  0  0  0  0  0  0  0  0
   23.9987    1.9089    2.9150 C   0  0  0  0  0  0  0  0  0  0  0  0
   23.3026    1.5542    1.7603 C   0  0  0  0  0  0  0  0  0  0  0  0
   23.5239    3.9396    2.1597 C   0  0  0  0  0  0  0  0  0  0  0  0
   24.0885    3.2213    3.0796 N   0  0  0  0  0  0  0  0  0  0  0  0
   22.7679    2.9626    0.9089 S   0  0  0  0  0  0  0  0  0  0  0  0
   23.0203    0.2039    1.2349 C   0  0  0  0  0  0  0  0  0  0  0  0
   23.0177   -0.8394    2.1875 N   0  0  0  0  0  0  0  0  0  0  0  0
   22.7994    0.0160    0.0513 O   0  0  0  0  0  0  0  0  0  0  0  0
   23.1857   -0.6449    3.1379 H   0  0  0  0  0  0  0  0  0  0  0  0
   22.3173   -4.8044    1.0217 C   0  0  0  0  0  0  0  0  0  0  0  0
   21.2360   -4.0206    1.3727 C   0  0  0  0  0  0  0  0  0  0  0  0
   21.4570   -2.7077    1.7436 C   0  0  0  0  0  0  0  0  0  0  0  0
   20.3162   -1.8156    2.1707 C   0  0  0  0  0  0  0  0  0  0  0  0
   22.7642   -2.2050    1.7507 C   0  0  0  0  0  0  0  0  0  0  0  0
   23.8454   -2.9910    1.3916 C   0  0  0  0  0  0  0  0  0  0  0  0
   23.6199   -4.2991    1.0215 C   0  0  0  0  0  0  0  0  0  0  0  0
   25.4610   -2.3593    1.4288 Cl  0  0  0  0  0  0  0  0  0  0  0  0
 20 21  2  0  0  0
 20 23  1  0  0  0
 21 25  1  0  0  0
 21 24  1  0  0  0
 25 26  1  0  0  0
 25 27  2  0  0  0
 10 16  1  0  0  0
 10 14  1  0  0  0
 10 15  1  0  0  0
 29 30  2  0  0  0
 29 35  1  0  0  0
 30 31  1  0  0  0
 31 32  1  0  0  0
 31 33  2  0  0  0
  3  4  1  0  0  0
  3  1  1  0  0  0
  3  9  2  0  0  0
  4  5  2  0  0  0
  5  8  1  0  0  0
  5 13  1  0  0  0
  6  7  1  0  0  0
  6  8  2  0  0  0
  6  9  1  0  0  0
 11 13  1  0  0  0
 11 14  1  0  0  0
 12 13  1  0  0  0
 12 15  1  0  0  0
 16 17  1  0  0  0
 17 18  1  0  0  0
  1 22  1  0  0  0
 22 23  2  0  0  0
 22 24  1  0  0  0
 26 33  1  0  0  0
 33 34  1  0  0  0
 34 35  2  0  0  0
 34 36  1  0  0  0
  1  2  1  0  0  0
 26 28  1  0  0  0
 18 19  1  0  0  0
M  END
> <minimizedAffinity>
-9.58910

$$$$
5VCV_1N1_A_404


 36 39  0  0  0  0  0  0  0  0999 V2000
   27.6499    7.6553   -0.1388 N   0  0  0  0  0  0  0  0  0  0  0  0
   28.2696    8.3897   -0.3531 H   0  0  0  0  0  0  0  0  0  0  0  0
   26.4736    7.8939    0.6744 C   0  0  0  0  0  0  0  0  0  0  0  0
   26.1756    9.2251    0.9947 C   0  0  0  0  0  0  0  0  0  0  0  0
   25.0469    9.4638    1.7795 C   0  0  0  0  0  0  0  0  0  0  0  0
   24.6142    7.1872    1.8937 C   0  0  0  0  0  0  0  0  0  0  0  0
   23.7449    6.0918    2.3789 C   0  0  0  0  0  0  0  0  0  0  0  0
   24.3051    8.4367    2.2064 N   0  0  0  0  0  0  0  0  0  0  0  0
   25.6778    6.9095    1.1401 N   0  0  0  0  0  0  0  0  0  0  0  0
   24.0727   13.0836    3.5536 N   0  0  0  0  0  0  0  0  0  0  0  0
   23.4765   10.8933    2.8753 C   0  0  0  0  0  0  0  0  0  0  0  0
   25.7841   11.7736    2.4613 C   0  0  0  0  0  0  0  0  0  0  0  0
   24.7115   10.8361    2.1499 N   0  0  0  0  0  0  0  0  0  0  0  0
   23.0076   12.2848    2.9849 C   0  0  0  0  0  0  0  0  0  0  0  0
   25.2146   13.1667    2.6303 C   0  0  0  0  0  0  0  0  0  0  0  0
   24.3724   13.1156    4.9963 C   0  0  0  0  0  0  0  0  0  0  0  0
   24.9474   14.4821    5.2778 C   0  0  0  0  0  0  0  0  0  0  0  0
   26.0091   14.3848    6.1621 O   0  0  0  0  0  0  0  0  0  0  0  0
   25.7003   13.9993    6.9969 H   0  0  0  0  0  0  0  0  0  0  0  0
   28.3968    4.8243   -2.1541 C   0  0  0  0  0  0  0  0  0  0  0  0
   28.2444    3.9801   -1.0549 C   0  0  0  0  0  0  0  0  0  0  0  0
   27.8900    6.3430   -0.6191 C   0  0  0  0  0  0  0  0  0  0  0  0
   28.1904    6.0995   -1.8567 N   0  0  0  0  0  0  0  0  0  0  0  0
   27.8369    4.8854    0.3624 S   0  0  0  0  0  0  0  0  0  0  0  0
   28.3708    2.5104   -0.9996 C   0  0  0  0  0  0  0  0  0  0  0  0
   29.5588    1.9737   -1.5443 N   0  0  0  0  0  0  0  0  0  0  0  0
   27.4993    1.8159   -0.5065 O   0  0  0  0  0  0  0  0  0  0  0  0
   30.2466    2.5694   -1.9200 H   0  0  0  0  0  0  0  0  0  0  0  0
   30.2032   -2.1678   -1.6129 C   0  0  0  0  0  0  0  0  0  0  0  0
   30.6969   -1.4422   -0.5468 C   0  0  0  0  0  0  0  0  0  0  0  0
   30.4754   -0.0785   -0.5091 C   0  0  0  0  0  0  0  0  0  0  0  0
   31.0223    0.7694    0.6142 C   0  0  0  0  0  0  0  0  0  0  0  0
   29.7562    0.5311   -1.5447 C   0  0  0  0  0  0  0  0  0  0  0  0
   29.2565   -0.1998   -2.6086 C   0  0  0  0  0  0  0  0  0  0  0  0
   29.4789   -1.5593   -2.6412 C   0  0  0  0  0  0  0  0  0  0  0  0
   28.3881    0.5750   -3.8955 Cl  0  0  0  0  0  0  0  0  0  0  0  0
 20 21  2  0  0  0
 20 23  1  0  0  0
 21 25  1  0  0  0
 21 24  1  0  0  0
 25 26  1  0  0  0
 25 27  2  0  0  0
 10 16  1  0  0  0
 10 14  1  0  0  0
 10 15  1  0  0  0
 29 30  2  0  0  0
 29 35  1  0  0  0
 30 31  1  0  0  0
 31 32  1  0  0  0
 31 33  2  0  0  0
  3  4  1  0  0  0
  3  1  1  0  0  0
  3  9  2  0  0  0
  4  5  2  0  0  0
  5  8  1  0  0  0
  5 13  1  0  0  0
  6  7  1  0  0  0
  6  8  2  0  0  0
  6  9  1  0  0  0
 11 13  1  0  0  0
 11 14  1  0  0  0
 12 13  1  0  0  0
 12 15  1  0  0  0
 16 17  1  0  0  0
 17 18  1  0  0  0
  1 22  1  0  0  0
 22 23  2  0  0  0
 22 24  1  0  0  0
 26 33  1  0  0  0
 33 34  1  0  0  0
 34 35  2  0  0  0
 34 36  1  0  0  0
  1  2  1  0  0  0
 26 28  1  0  0  0
 18 19  1  0  0  0
M  END
> <minimizedAffinity>
-9.23964

$$$$
5VCV_1N1_A_404


 36 39  0  0  0  0  0  0  0  0999 V2000
   27.5605    7.6373   -0.1400 N   0  0  0  0  0  0  0  0  0  0  0  0
   28.1432    8.3976   -0.3675 H   0  0  0  0  0  0  0  0  0  0  0  0
   26.3899    7.8265    0.6941 C   0  0  0  0  0  0  0  0  0  0  0  0
   26.0577    9.1424    1.0427 C   0  0  0  0  0  0  0  0  0  0  0  0
   24.9342    9.3336    1.8478 C   0  0  0  0  0  0  0  0  0  0  0  0
   24.5703    7.0435    1.9267 C   0  0  0  0  0  0  0  0  0  0  0  0
   23.7407    5.9144    2.4043 C   0  0  0  0  0  0  0  0  0  0  0  0
   24.2293    8.2775    2.2665 N   0  0  0  0  0  0  0  0  0  0  0  0
   25.6303    6.8108    1.1531 N   0  0  0  0  0  0  0  0  0  0  0  0
   24.5483   13.1680    3.3799 N   0  0  0  0  0  0  0  0  0  0  0  0
   24.5214   10.8174    3.6748 C   0  0  0  0  0  0  0  0  0  0  0  0
   24.9884   11.8161    1.4263 C   0  0  0  0  0  0  0  0  0  0  0  0
   24.5642   10.6885    2.2478 N   0  0  0  0  0  0  0  0  0  0  0  0
   23.8724   12.0823    4.0584 C   0  0  0  0  0  0  0  0  0  0  0  0
   24.3374   13.0888    1.9265 C   0  0  0  0  0  0  0  0  0  0  0  0
   25.8282   13.7336    3.8425 C   0  0  0  0  0  0  0  0  0  0  0  0
   25.9579   15.0828    3.1793 C   0  0  0  0  0  0  0  0  0  0  0  0
   26.2171   16.0613    4.1249 O   0  0  0  0  0  0  0  0  0  0  0  0
   25.4866   16.0968    4.7621 H   0  0  0  0  0  0  0  0  0  0  0  0
   28.5276    4.8509   -2.1236 C   0  0  0  0  0  0  0  0  0  0  0  0
   28.2407    3.9811   -1.0724 C   0  0  0  0  0  0  0  0  0  0  0  0
   27.8493    6.3354   -0.6217 C   0  0  0  0  0  0  0  0  0  0  0  0
   28.2939    6.1201   -1.8205 N   0  0  0  0  0  0  0  0  0  0  0  0
   27.6718    4.8545    0.3089 S   0  0  0  0  0  0  0  0  0  0  0  0
   28.3520    2.5095   -1.0399 C   0  0  0  0  0  0  0  0  0  0  0  0
   29.5350    1.9691   -1.5916 N   0  0  0  0  0  0  0  0  0  0  0  0
   27.4727    1.8164   -0.5588 O   0  0  0  0  0  0  0  0  0  0  0  0
   30.2294    2.5636   -1.9572 H   0  0  0  0  0  0  0  0  0  0  0  0
   29.9812   -2.1989   -1.5938 C   0  0  0  0  0  0  0  0  0  0  0  0
   29.3650   -1.6021   -2.6759 C   0  0  0  0  0  0  0  0  0  0  0  0
   29.2277   -0.2269   -2.6898 C   0  0  0  0  0  0  0  0  0  0  0  0
   28.5312    0.4755   -3.8306 C   0  0  0  0  0  0  0  0  0  0  0  0
   29.7175    0.5248   -1.6145 C   0  0  0  0  0  0  0  0  0  0  0  0
   30.3410   -0.0756   -0.5343 C   0  0  0  0  0  0  0  0  0  0  0  0
   30.4765   -1.4468   -0.5255 C   0  0  0  0  0  0  0  0  0  0  0  0
   30.9207    0.8687    0.8008 Cl  0  0  0  0  0  0  0  0  0  0  0  0
 20 21  2  0  0  0
 20 23  1  0  0  0
 21 25  1  0  0  0
 21 24  1  0  0  0
 25 26  1  0  0  0
 25 27  2  0  0  0
 10 16  1  0  0  0
 10 14  1  0  0  0
 10 15  1  0  0  0
 29 30  2  0  0  0
 29 35  1  0  0  0
 30 31  1  0  0  0
 31 32  1  0  0  0
 31 33  2  0  0  0
  3  4  1  0  0  0
  3  1  1  0  0  0
  3  9  2  0  0  0
  4  5  2  0  0  0
  5  8  1  0  0  0
  5 13  1  0  0  0
  6  7  1  0  0  0
  6  8  2  0  0  0
  6  9  1  0  0  0
 11 13  1  0  0  0
 11 14  1  0  0  0
 12 13  1  0  0  0
 12 15  1  0  0  0
 16 17  1  0  0  0
 17 18  1  0  0  0
  1 22  1  0  0  0
 22 23  2  0  0  0
 22 24  1  0  0  0
 26 33  1  0  0  0
 33 34  1  0  0  0
 34 35  2  0  0  0
 34 36  1  0  0  0
  1  2  1  0  0  0
 26 28  1  0  0  0
 18 19  1  0  0  0
M  END
> <minimizedAffinity>
-9.16942

$$$$
5VCV_1N1_A_404


 36 39  0  0  0  0  0  0  0  0999 V2000
   23.1298   -0.3378    1.9302 N   0  0  0  0  0  0  0  0  0  0  0  0
   22.2196   -0.6246    2.1722 H   0  0  0  0  0  0  0  0  0  0  0  0
   24.1049   -1.2979    1.4516 C   0  0  0  0  0  0  0  0  0  0  0  0
   25.2089   -0.7945    0.7506 C   0  0  0  0  0  0  0  0  0  0  0  0
   26.1509   -1.7118    0.2837 C   0  0  0  0  0  0  0  0  0  0  0  0
   24.9137   -3.4672    1.1619 C   0  0  0  0  0  0  0  0  0  0  0  0
   24.7769   -4.9233    1.3896 C   0  0  0  0  0  0  0  0  0  0  0  0
   25.9706   -3.0185    0.5015 N   0  0  0  0  0  0  0  0  0  0  0  0
   23.9909   -2.6295    1.6341 N   0  0  0  0  0  0  0  0  0  0  0  0
   29.8003   -0.3777   -1.1660 N   0  0  0  0  0  0  0  0  0  0  0  0
   27.8311   -0.0223    0.1026 C   0  0  0  0  0  0  0  0  0  0  0  0
   28.2076   -2.1930   -1.0881 C   0  0  0  0  0  0  0  0  0  0  0  0
   27.3072   -1.2291   -0.4666 N   0  0  0  0  0  0  0  0  0  0  0  0
   28.7954    0.6043   -0.8170 C   0  0  0  0  0  0  0  0  0  0  0  0
   29.2129   -1.4685   -1.9588 C   0  0  0  0  0  0  0  0  0  0  0  0
   30.9297   -0.7221   -0.2839 C   0  0  0  0  0  0  0  0  0  0  0  0
   31.3401    0.5607    0.3968 C   0  0  0  0  0  0  0  0  0  0  0  0
   32.7048    0.7596    0.2666 O   0  0  0  0  0  0  0  0  0  0  0  0
   33.1799    0.0220    0.6802 H   0  0  0  0  0  0  0  0  0  0  0  0
   24.4065    2.7837    3.0529 C   0  0  0  0  0  0  0  0  0  0  0  0
   24.0285    3.3886    1.8550 C   0  0  0  0  0  0  0  0  0  0  0  0
   23.5132    1.0227    2.0428 C   0  0  0  0  0  0  0  0  0  0  0  0
   24.0992    1.4949    3.0985 N   0  0  0  0  0  0  0  0  0  0  0  0
   23.2772    2.2422    0.7988 S   0  0  0  0  0  0  0  0  0  0  0  0
   24.1820    4.7995    1.4487 C   0  0  0  0  0  0  0  0  0  0  0  0
   25.2573    5.4977    2.0422 N   0  0  0  0  0  0  0  0  0  0  0  0
   23.4244    5.3155    0.6458 O   0  0  0  0  0  0  0  0  0  0  0  0
   25.8572    5.0410    2.6754 H   0  0  0  0  0  0  0  0  0  0  0  0
   25.9228    9.5431    1.1686 C   0  0  0  0  0  0  0  0  0  0  0  0
   26.6926    8.5950    0.5240 C   0  0  0  0  0  0  0  0  0  0  0  0
   26.4690    7.2584    0.7952 C   0  0  0  0  0  0  0  0  0  0  0  0
   27.3042    6.1809    0.1462 C   0  0  0  0  0  0  0  0  0  0  0  0
   25.4701    6.8989    1.7087 C   0  0  0  0  0  0  0  0  0  0  0  0
   24.6953    7.8511    2.3480 C   0  0  0  0  0  0  0  0  0  0  0  0
   24.9213    9.1824    2.0736 C   0  0  0  0  0  0  0  0  0  0  0  0
   23.4780    7.3894    3.4950 Cl  0  0  0  0  0  0  0  0  0  0  0  0
 20 21  2  0  0  0
 20 23  1  0  0  0
 21 25  1  0  0  0
 21 24  1  0  0  0
 25 26  1  0  0  0
 25 27  2  0  0  0
 10 16  1  0  0  0
 10 14  1  0  0  0
 10 15  1  0  0  0
 29 30  2  0  0  0
 29 35  1  0  0  0
 30 31  1  0  0  0
 31 32  1  0  0  0
 31 33  2  0  0  0
  3  4  1  0  0  0
  3  1  1  0  0  0
  3  9  2  0  0  0
  4  5  2  0  0  0
  5  8  1  0  0  0
  5 13  1  0  0  0
  6  7  1  0  0  0
  6  8  2  0  0  0
  6  9  1  0  0  0
 11 13  1  0  0  0
 11 14  1  0  0  0
 12 13  1  0  0  0
 12 15  1  0  0  0
 16 17  1  0  0  0
 17 18  1  0  0  0
  1 22  1  0  0  0
 22 23  2  0  0  0
 22 24  1  0  0  0
 26 33  1  0  0  0
 33 34  1  0  0  0
 34 35  2  0  0  0
 34 36  1  0  0  0
  1  2  1  0  0  0
 26 28  1  0  0  0
 18 19  1  0  0  0
M  END
> <minimizedAffinity>
-9.10561

$$$$
5VCV_1N1_A_404


 36 39  0  0  0  0  0  0  0  0999 V2000
   24.7995    4.2946    2.0202 N   0  0  0  0  0  0  0  0  0  0  0  0
   24.7189    4.9516    2.7489 H   0  0  0  0  0  0  0  0  0  0  0  0
   25.9990    4.2346    1.2080 C   0  0  0  0  0  0  0  0  0  0  0  0
   26.5462    2.9675    0.9663 C   0  0  0  0  0  0  0  0  0  0  0  0
   27.7024    2.9006    0.1881 C   0  0  0  0  0  0  0  0  0  0  0  0
   27.7165    5.2101   -0.0338 C   0  0  0  0  0  0  0  0  0  0  0  0
   28.3580    6.4186   -0.5986 C   0  0  0  0  0  0  0  0  0  0  0  0
   28.2518    4.0246   -0.2835 N   0  0  0  0  0  0  0  0  0  0  0  0
   26.6083    5.3244    0.6977 N   0  0  0  0  0  0  0  0  0  0  0  0
   29.1561   -0.7006   -1.2667 N   0  0  0  0  0  0  0  0  0  0  0  0
   27.3491    0.6588   -0.5601 C   0  0  0  0  0  0  0  0  0  0  0  0
   29.6925    1.5416   -0.5438 C   0  0  0  0  0  0  0  0  0  0  0  0
   28.3138    1.6003   -0.0726 N   0  0  0  0  0  0  0  0  0  0  0  0
   27.9043   -0.7048   -0.5396 C   0  0  0  0  0  0  0  0  0  0  0  0
   30.1671    0.1035   -0.5635 C   0  0  0  0  0  0  0  0  0  0  0  0
   29.2324   -0.7373   -2.7382 C   0  0  0  0  0  0  0  0  0  0  0  0
   29.1864   -2.1946   -3.1271 C   0  0  0  0  0  0  0  0  0  0  0  0
   30.3105   -2.8540   -2.6576 O   0  0  0  0  0  0  0  0  0  0  0  0
   31.1051   -2.4538   -3.0441 H   0  0  0  0  0  0  0  0  0  0  0  0
   21.9363    2.6704    0.6793 C   0  0  0  0  0  0  0  0  0  0  0  0
   22.1122    1.5999    1.5549 C   0  0  0  0  0  0  0  0  0  0  0  0
   23.7450    3.3879    1.7440 C   0  0  0  0  0  0  0  0  0  0  0  0
   22.8547    3.6147    0.8291 N   0  0  0  0  0  0  0  0  0  0  0  0
   23.4966    1.8519    2.5621 S   0  0  0  0  0  0  0  0  0  0  0  0
   21.2862    0.3851    1.7000 C   0  0  0  0  0  0  0  0  0  0  0  0
   21.6535   -0.4877    2.7485 N   0  0  0  0  0  0  0  0  0  0  0  0
   20.3451    0.1643    0.9579 O   0  0  0  0  0  0  0  0  0  0  0  0
   22.4113   -0.2664    3.3367 H   0  0  0  0  0  0  0  0  0  0  0  0
   19.5590   -4.0606    3.3955 C   0  0  0  0  0  0  0  0  0  0  0  0
   19.1326   -2.9202    4.0470 C   0  0  0  0  0  0  0  0  0  0  0  0
   19.8085   -1.7349    3.8272 C   0  0  0  0  0  0  0  0  0  0  0  0
   19.4078   -0.4653    4.5395 C   0  0  0  0  0  0  0  0  0  0  0  0
   20.9008   -1.7175    2.9508 C   0  0  0  0  0  0  0  0  0  0  0  0
   21.3217   -2.8608    2.2938 C   0  0  0  0  0  0  0  0  0  0  0  0
   20.6439   -4.0399    2.5154 C   0  0  0  0  0  0  0  0  0  0  0  0
   22.6918   -2.8267    1.2298 Cl  0  0  0  0  0  0  0  0  0  0  0  0
 20 21  2  0  0  0
 20 23  1  0  0  0
 21 25  1  0  0  0
 21 24  1  0  0  0
 25 26  1  0  0  0
 25 27  2  0  0  0
 10 16  1  0  0  0
 10 14  1  0  0  0
 10 15  1  0  0  0
 29 30  2  0  0  0
 29 35  1  0  0  0
 30 31  1  0  0  0
 31 32  1  0  0  0
 31 33  2  0  0  0
  3  4  1  0  0  0
  3  1  1  0  0  0
  3  9  2  0  0  0
  4  5  2  0  0  0
  5  8  1  0  0  0
  5 13  1  0  0  0
  6  7  1  0  0  0
  6  8  2  0  0  0
  6  9  1  0  0  0
 11 13  1  0  0  0
 11 14  1  0  0  0
 12 13  1  0  0  0
 12 15  1  0  0  0
 16 17  1  0  0  0
 17 18  1  0  0  0
  1 22  1  0  0  0
 22 23  2  0  0  0
 22 24  1  0  0  0
 26 33  1  0  0  0
 33 34  1  0  0  0
 34 35  2  0  0  0
 34 36  1  0  0  0
  1  2  1  0  0  0
 26 28  1  0  0  0
 18 19  1  0  0  0
M  END
> <minimizedAffinity>
-8.51753

$$$$
5VCV_1N1_A_404


 36 39  0  0  0  0  0  0  0  0999 V2000
   22.8714   -0.8633    2.0511 N   0  0  0  0  0  0  0  0  0  0  0  0
   22.0017   -1.2102    2.3551 H   0  0  0  0  0  0  0  0  0  0  0  0
   23.8751   -1.7573    1.5076 C   0  0  0  0  0  0  0  0  0  0  0  0
   25.0882   -1.1864    1.1003 C   0  0  0  0  0  0  0  0  0  0  0  0
   26.0588   -2.0390    0.5730 C   0  0  0  0  0  0  0  0  0  0  0  0
   24.6455   -3.8585    0.8480 C   0  0  0  0  0  0  0  0  0  0  0  0
   24.4275   -5.3167    0.7175 C   0  0  0  0  0  0  0  0  0  0  0  0
   25.8043   -3.3467    0.4608 N   0  0  0  0  0  0  0  0  0  0  0  0
   23.6905   -3.0858    1.3650 N   0  0  0  0  0  0  0  0  0  0  0  0
   29.2989   -0.3411   -1.3809 N   0  0  0  0  0  0  0  0  0  0  0  0
   27.8051   -2.1507   -1.0543 C   0  0  0  0  0  0  0  0  0  0  0  0
   27.5908   -0.0581    0.3045 C   0  0  0  0  0  0  0  0  0  0  0  0
   27.3303   -1.4810    0.1208 N   0  0  0  0  0  0  0  0  0  0  0  0
   29.2053   -1.7847   -1.3253 C   0  0  0  0  0  0  0  0  0  0  0  0
   29.0270    0.2521   -0.0627 C   0  0  0  0  0  0  0  0  0  0  0  0
   28.9085    0.4459   -2.5643 C   0  0  0  0  0  0  0  0  0  0  0  0
   28.6624    1.8517   -2.0742 C   0  0  0  0  0  0  0  0  0  0  0  0
   29.7205    2.6751   -2.4222 O   0  0  0  0  0  0  0  0  0  0  0  0
   30.5362    2.3424   -2.0163 H   0  0  0  0  0  0  0  0  0  0  0  0
   23.5038    2.4448    3.1871 C   0  0  0  0  0  0  0  0  0  0  0  0
   23.7257    2.8703    1.8780 C   0  0  0  0  0  0  0  0  0  0  0  0
   23.1677    0.5207    2.1362 C   0  0  0  0  0  0  0  0  0  0  0  0
   23.2024    1.1563    3.2658 N   0  0  0  0  0  0  0  0  0  0  0  0
   23.5405    1.5573    0.7662 S   0  0  0  0  0  0  0  0  0  0  0  0
   24.0580    4.2251    1.3952 C   0  0  0  0  0  0  0  0  0  0  0  0
   25.1866    4.8314    1.9908 N   0  0  0  0  0  0  0  0  0  0  0  0
   23.3947    4.7724    0.5318 O   0  0  0  0  0  0  0  0  0  0  0  0
   25.7062    4.3502    2.6747 H   0  0  0  0  0  0  0  0  0  0  0  0
   26.2500    8.6856    0.7315 C   0  0  0  0  0  0  0  0  0  0  0  0
   25.2335    8.5522    1.6567 C   0  0  0  0  0  0  0  0  0  0  0  0
   24.8873    7.2858    2.0884 C   0  0  0  0  0  0  0  0  0  0  0  0
   23.7605    7.0784    3.0719 C   0  0  0  0  0  0  0  0  0  0  0  0
   25.5741    6.1745    1.5836 C   0  0  0  0  0  0  0  0  0  0  0  0
   26.5973    6.3118    0.6615 C   0  0  0  0  0  0  0  0  0  0  0  0
   26.9396    7.5766    0.2350 C   0  0  0  0  0  0  0  0  0  0  0  0
   27.4218    4.9227    0.0284 Cl  0  0  0  0  0  0  0  0  0  0  0  0
 20 21  2  0  0  0
 20 23  1  0  0  0
 21 25  1  0  0  0
 21 24  1  0  0  0
 25 26  1  0  0  0
 25 27  2  0  0  0
 10 16  1  0  0  0
 10 14  1  0  0  0
 10 15  1  0  0  0
 29 30  2  0  0  0
 29 35  1  0  0  0
 30 31  1  0  0  0
 31 32  1  0  0  0
 31 33  2  0  0  0
  3  4  1  0  0  0
  3  1  1  0  0  0
  3  9  2  0  0  0
  4  5  2  0  0  0
  5  8  1  0  0  0
  5 13  1  0  0  0
  6  7  1  0  0  0
  6  8  2  0  0  0
  6  9  1  0  0  0
 11 13  1  0  0  0
 11 14  1  0  0  0
 12 13  1  0  0  0
 12 15  1  0  0  0
 16 17  1  0  0  0
 17 18  1  0  0  0
  1 22  1  0  0  0
 22 23  2  0  0  0
 22 24  1  0  0  0
 26 33  1  0  0  0
 33 34  1  0  0  0
 34 35  2  0  0  0
 34 36  1  0  0  0
  1  2  1  0  0  0
 26 28  1  0  0  0
 18 19  1  0  0  0
M  END
> <minimizedAffinity>
-8.41927

$$$$
5VCV_1N1_A_404


 36 39  0  0  0  0  0  0  0  0999 V2000
   24.2162    4.3148    1.4110 N   0  0  0  0  0  0  0  0  0  0  0  0
   23.6661    5.1313    1.4099 H   0  0  0  0  0  0  0  0  0  0  0  0
   25.5786    4.3403    0.9161 C   0  0  0  0  0  0  0  0  0  0  0  0
   26.2365    3.1098    0.7873 C   0  0  0  0  0  0  0  0  0  0  0  0
   27.5492    3.1253    0.3145 C   0  0  0  0  0  0  0  0  0  0  0  0
   27.4908    5.4392    0.1547 C   0  0  0  0  0  0  0  0  0  0  0  0
   28.1835    6.6959   -0.2086 C   0  0  0  0  0  0  0  0  0  0  0  0
   28.1346    4.2899    0.0171 N   0  0  0  0  0  0  0  0  0  0  0  0
   26.2334    5.4750    0.5950 N   0  0  0  0  0  0  0  0  0  0  0  0
   29.3115   -0.4676   -0.7736 N   0  0  0  0  0  0  0  0  0  0  0  0
   27.3961    0.7912   -0.1743 C   0  0  0  0  0  0  0  0  0  0  0  0
   29.6465    1.8808   -0.3147 C   0  0  0  0  0  0  0  0  0  0  0  0
   28.2757    1.8654    0.1823 N   0  0  0  0  0  0  0  0  0  0  0  0
   28.0768   -0.5051   -0.0186 C   0  0  0  0  0  0  0  0  0  0  0  0
   30.2534    0.4989   -0.1889 C   0  0  0  0  0  0  0  0  0  0  0  0
   29.3684   -0.6610   -2.2337 C   0  0  0  0  0  0  0  0  0  0  0  0
   29.9037   -2.0545   -2.4545 C   0  0  0  0  0  0  0  0  0  0  0  0
   28.8865   -2.9021   -2.8617 O   0  0  0  0  0  0  0  0  0  0  0  0
   28.2010   -2.9371   -2.1764 H   0  0  0  0  0  0  0  0  0  0  0  0
   22.7742    1.7552    3.4119 C   0  0  0  0  0  0  0  0  0  0  0  0
   22.8620    0.8535    2.3521 C   0  0  0  0  0  0  0  0  0  0  0  0
   23.6918    3.0903    1.8969 C   0  0  0  0  0  0  0  0  0  0  0  0
   23.2424    2.9571    3.1057 N   0  0  0  0  0  0  0  0  0  0  0  0
   23.5567    1.6094    0.9591 S   0  0  0  0  0  0  0  0  0  0  0  0
   22.4668   -0.5684    2.3192 C   0  0  0  0  0  0  0  0  0  0  0  0
   22.7696   -1.2642    1.1276 N   0  0  0  0  0  0  0  0  0  0  0  0
   21.9190   -1.0977    3.2704 O   0  0  0  0  0  0  0  0  0  0  0  0
   23.2271   -0.8050    0.3866 H   0  0  0  0  0  0  0  0  0  0  0  0
   21.7059   -5.2935    0.6748 C   0  0  0  0  0  0  0  0  0  0  0  0
   23.0125   -4.9903    1.0030 C   0  0  0  0  0  0  0  0  0  0  0  0
   23.3677   -3.6650    1.1690 C   0  0  0  0  0  0  0  0  0  0  0  0
   24.7894   -3.2737    1.4934 C   0  0  0  0  0  0  0  0  0  0  0  0
   22.3988   -2.6669    1.0056 C   0  0  0  0  0  0  0  0  0  0  0  0
   21.0882   -2.9742    0.6836 C   0  0  0  0  0  0  0  0  0  0  0  0
   20.7388   -4.2971    0.5201 C   0  0  0  0  0  0  0  0  0  0  0  0
   19.9061   -1.7239    0.4613 Cl  0  0  0  0  0  0  0  0  0  0  0  0
 20 21  2  0  0  0
 20 23  1  0  0  0
 21 25  1  0  0  0
 21 24  1  0  0  0
 25 26  1  0  0  0
 25 27  2  0  0  0
 10 16  1  0  0  0
 10 14  1  0  0  0
 10 15  1  0  0  0
 29 30  2  0  0  0
 29 35  1  0  0  0
 30 31  1  0  0  0
 31 32  1  0  0  0
 31 33  2  0  0  0
  3  4  1  0  0  0
  3  1  1  0  0  0
  3  9  2  0  0  0
  4  5  2  0  0  0
  5  8  1  0  0  0
  5 13  1  0  0  0
  6  7  1  0  0  0
  6  8  2  0  0  0
  6  9  1  0  0  0
 11 13  1  0  0  0
 11 14  1  0  0  0
 12 13  1  0  0  0
 12 15  1  0  0  0
 16 17  1  0  0  0
 17 18  1  0  0  0
  1 22  1  0  0  0
 22 23  2  0  0  0
 22 24  1  0  0  0
 26 33  1  0  0  0
 33 34  1  0  0  0
 34 35  2  0  0  0
 34 36  1  0  0  0
  1  2  1  0  0  0
 26 28  1  0  0  0
 18 19  1  0  0  0
M  END
> <minimizedAffinity>
-8.31864

$$$$
