4F9U_PBD_A_402


 24 25  0  0  0  0  0  0  0  0999 V2000
  -54.9441   24.0346  -32.0849 N   0  0  0  0  0  0  0  0  0  0  0  0
  -55.2409   23.2387  -32.5826 H   0  0  0  0  0  0  0  0  0  0  0  0
  -53.9527   24.2177  -29.9065 C   0  0  0  0  0  0  0  0  0  0  0  0
  -54.1393   24.1463  -28.5240 C   0  0  0  0  0  0  0  0  0  0  0  0
  -56.2989   23.6957  -30.2089 C   0  0  0  0  0  0  0  0  0  0  0  0
  -55.0396   23.9861  -30.7528 C   0  0  0  0  0  0  0  0  0  0  0  0
  -55.4032   23.8504  -27.9721 C   0  0  0  0  0  0  0  0  0  0  0  0
  -56.5058   23.6233  -28.8235 C   0  0  0  0  0  0  0  0  0  0  0  0
  -55.8623   25.0468  -25.9511 C   0  0  0  0  0  0  0  0  0  0  0  0
  -55.5849   23.7787  -26.6075 O   0  0  0  0  0  0  0  0  0  0  0  0
  -58.5751   22.3755  -28.9642 C   0  0  0  0  0  0  0  0  0  0  0  0
  -57.7444   23.3364  -28.2764 O   0  0  0  0  0  0  0  0  0  0  0  0
  -55.7093   26.2574  -33.3029 S   0  0  0  0  0  0  0  0  0  0  0  0
  -54.4762   25.0783  -32.8162 C   0  0  0  0  0  0  0  0  0  0  0  0
  -53.1700   25.2781  -33.0788 N   0  0  0  0  0  0  0  0  0  0  0  0
  -52.7489   26.0761  -32.6851 H   0  0  0  0  0  0  0  0  0  0  0  0
  -52.3075   24.3948  -33.9144 C   0  0  0  0  0  0  0  0  0  0  0  0
  -51.5330   23.4888  -32.9394 C   0  0  0  0  0  0  0  0  0  0  0  0
  -50.8918   24.2128  -31.7413 C   0  0  0  0  0  0  0  0  0  0  0  0
  -48.4214   21.8394  -30.6368 C   0  0  0  0  0  0  0  0  0  0  0  0
  -49.1451   22.4019  -31.6287 C   0  0  0  0  0  0  0  0  0  0  0  0
  -49.7288   23.3267  -29.7463 C   0  0  0  0  0  0  0  0  0  0  0  0
  -48.7906   22.4307  -29.5036 N   0  0  0  0  0  0  0  0  0  0  0  0
  -49.9242   23.3280  -31.0605 N   0  0  0  0  0  0  0  0  0  0  0  0
  9 10  1  0  0  0
 11 12  1  0  0  0
 13 14  2  0  0  0
 20 21  2  0  0  0
 20 23  1  0  0  0
  3  4  2  0  0  0
  3  6  1  0  0  0
  4  7  1  0  0  0
 21 24  1  0  0  0
 22 23  2  0  0  0
 22 24  1  0  0  0
  5  6  2  0  0  0
  5  8  1  0  0  0
 18 17  1  0  0  0
 18 19  1  0  0  0
 17 15  1  0  0  0
 19 24  1  0  0  0
 15 14  1  0  0  0
  1 14  1  0  0  0
  1  6  1  0  0  0
 10  7  1  0  0  0
 12  8  1  0  0  0
  7  8  2  0  0  0
 15 16  1  0  0  0
  1  2  1  0  0  0
M  END
> <minimizedAffinity>
-5.88611

$$$$
4F9U_PBD_A_402


 24 25  0  0  0  0  0  0  0  0999 V2000
  -54.9656   23.6480  -31.3478 N   0  0  0  0  0  0  0  0  0  0  0  0
  -54.8532   22.6752  -31.4493 H   0  0  0  0  0  0  0  0  0  0  0  0
  -56.6944   24.5549  -29.9512 C   0  0  0  0  0  0  0  0  0  0  0  0
  -57.0613   24.9974  -28.6781 C   0  0  0  0  0  0  0  0  0  0  0  0
  -54.4826   24.0588  -29.0967 C   0  0  0  0  0  0  0  0  0  0  0  0
  -55.3949   24.0873  -30.1610 C   0  0  0  0  0  0  0  0  0  0  0  0
  -56.1459   24.9746  -27.6053 C   0  0  0  0  0  0  0  0  0  0  0  0
  -54.8342   24.4956  -27.8110 C   0  0  0  0  0  0  0  0  0  0  0  0
  -57.9415   25.4575  -26.0989 C   0  0  0  0  0  0  0  0  0  0  0  0
  -56.5094   25.4133  -26.3500 O   0  0  0  0  0  0  0  0  0  0  0  0
  -52.6699   25.1341  -26.9353 C   0  0  0  0  0  0  0  0  0  0  0  0
  -53.9411   24.4725  -26.7538 O   0  0  0  0  0  0  0  0  0  0  0  0
  -55.8745   24.3676  -33.7281 S   0  0  0  0  0  0  0  0  0  0  0  0
  -54.6698   24.4172  -32.4267 C   0  0  0  0  0  0  0  0  0  0  0  0
  -53.6037   25.2388  -32.4864 N   0  0  0  0  0  0  0  0  0  0  0  0
  -53.6195   26.0387  -31.9127 H   0  0  0  0  0  0  0  0  0  0  0  0
  -52.4022   25.0409  -33.3463 C   0  0  0  0  0  0  0  0  0  0  0  0
  -51.5913   23.8968  -32.7103 C   0  0  0  0  0  0  0  0  0  0  0  0
  -51.2528   24.0835  -31.2200 C   0  0  0  0  0  0  0  0  0  0  0  0
  -48.5290   21.7599  -30.8491 C   0  0  0  0  0  0  0  0  0  0  0  0
  -49.4979   22.3186  -31.6060 C   0  0  0  0  0  0  0  0  0  0  0  0
  -49.5917   23.1969  -29.6161 C   0  0  0  0  0  0  0  0  0  0  0  0
  -48.6033   22.3226  -29.6457 N   0  0  0  0  0  0  0  0  0  0  0  0
  -50.1223   23.2141  -30.8340 N   0  0  0  0  0  0  0  0  0  0  0  0
  9 10  1  0  0  0
 11 12  1  0  0  0
 13 14  2  0  0  0
 20 21  2  0  0  0
 20 23  1  0  0  0
  3  4  2  0  0  0
  3  6  1  0  0  0
  4  7  1  0  0  0
 21 24  1  0  0  0
 22 23  2  0  0  0
 22 24  1  0  0  0
  5  6  2  0  0  0
  5  8  1  0  0  0
 18 17  1  0  0  0
 18 19  1  0  0  0
 17 15  1  0  0  0
 19 24  1  0  0  0
 15 14  1  0  0  0
  1 14  1  0  0  0
  1  6  1  0  0  0
 10  7  1  0  0  0
 12  8  1  0  0  0
  7  8  2  0  0  0
 15 16  1  0  0  0
  1  2  1  0  0  0
M  END
> <minimizedAffinity>
-5.86901

$$$$
4F9U_PBD_A_402


 24 25  0  0  0  0  0  0  0  0999 V2000
  -52.3914   25.0559  -33.3175 N   0  0  0  0  0  0  0  0  0  0  0  0
  -51.9119   25.7995  -33.7492 H   0  0  0  0  0  0  0  0  0  0  0  0
  -51.7571   24.5286  -31.0633 C   0  0  0  0  0  0  0  0  0  0  0  0
  -51.0028   23.7108  -30.2187 C   0  0  0  0  0  0  0  0  0  0  0  0
  -50.9024   23.2881  -32.9604 C   0  0  0  0  0  0  0  0  0  0  0  0
  -51.7016   24.3173  -32.4430 C   0  0  0  0  0  0  0  0  0  0  0  0
  -50.1940   22.6768  -30.7346 C   0  0  0  0  0  0  0  0  0  0  0  0
  -50.1411   22.4550  -32.1275 C   0  0  0  0  0  0  0  0  0  0  0  0
  -48.0692   22.2890  -29.7045 C   0  0  0  0  0  0  0  0  0  0  0  0
  -49.4490   21.8719  -29.8996 O   0  0  0  0  0  0  0  0  0  0  0  0
  -48.0947   21.8045  -33.2446 C   0  0  0  0  0  0  0  0  0  0  0  0
  -49.3481   21.4368  -32.6281 O   0  0  0  0  0  0  0  0  0  0  0  0
  -53.9384   23.9973  -35.1872 S   0  0  0  0  0  0  0  0  0  0  0  0
  -53.6911   24.8770  -33.6666 C   0  0  0  0  0  0  0  0  0  0  0  0
  -54.7286   25.2404  -32.8878 N   0  0  0  0  0  0  0  0  0  0  0  0
  -54.9214   26.2031  -32.8156 H   0  0  0  0  0  0  0  0  0  0  0  0
  -55.6099   24.3103  -32.1259 C   0  0  0  0  0  0  0  0  0  0  0  0
  -55.7297   24.8866  -30.7030 C   0  0  0  0  0  0  0  0  0  0  0  0
  -55.4781   23.8802  -29.5653 C   0  0  0  0  0  0  0  0  0  0  0  0
  -55.8482   25.0605  -26.1851 C   0  0  0  0  0  0  0  0  0  0  0  0
  -55.1653   24.3539  -27.1115 C   0  0  0  0  0  0  0  0  0  0  0  0
  -56.9309   25.2019  -28.0618 C   0  0  0  0  0  0  0  0  0  0  0  0
  -56.9126   25.5746  -26.7958 N   0  0  0  0  0  0  0  0  0  0  0  0
  -55.8372   24.4743  -28.2611 N   0  0  0  0  0  0  0  0  0  0  0  0
  9 10  1  0  0  0
 11 12  1  0  0  0
 13 14  2  0  0  0
 20 21  2  0  0  0
 20 23  1  0  0  0
  3  4  2  0  0  0
  3  6  1  0  0  0
  4  7  1  0  0  0
 21 24  1  0  0  0
 22 23  2  0  0  0
 22 24  1  0  0  0
  5  6  2  0  0  0
  5  8  1  0  0  0
 18 17  1  0  0  0
 18 19  1  0  0  0
 17 15  1  0  0  0
 19 24  1  0  0  0
 15 14  1  0  0  0
  1 14  1  0  0  0
  1  6  1  0  0  0
 10  7  1  0  0  0
 12  8  1  0  0  0
  7  8  2  0  0  0
 15 16  1  0  0  0
  1  2  1  0  0  0
M  END
> <minimizedAffinity>
-5.75536

$$$$
4F9U_PBD_A_402


 24 25  0  0  0  0  0  0  0  0999 V2000
  -54.4055   23.2179  -34.7346 N   0  0  0  0  0  0  0  0  0  0  0  0
  -55.0518   23.2307  -33.9920 H   0  0  0  0  0  0  0  0  0  0  0  0
  -53.7282   22.0709  -36.7314 C   0  0  0  0  0  0  0  0  0  0  0  0
  -53.7540   20.8839  -37.4673 C   0  0  0  0  0  0  0  0  0  0  0  0
  -55.0453   20.9856  -35.0121 C   0  0  0  0  0  0  0  0  0  0  0  0
  -54.3825   22.1215  -35.4982 C   0  0  0  0  0  0  0  0  0  0  0  0
  -54.4230   19.7399  -36.9845 C   0  0  0  0  0  0  0  0  0  0  0  0
  -55.0788   19.7844  -35.7355 C   0  0  0  0  0  0  0  0  0  0  0  0
  -53.3131   18.3654  -38.5987 C   0  0  0  0  0  0  0  0  0  0  0  0
  -54.4488   18.5699  -37.7131 O   0  0  0  0  0  0  0  0  0  0  0  0
  -55.9601   18.5605  -33.8423 C   0  0  0  0  0  0  0  0  0  0  0  0
  -55.7310   18.6577  -35.2652 O   0  0  0  0  0  0  0  0  0  0  0  0
  -54.3519   25.6261  -35.8332 S   0  0  0  0  0  0  0  0  0  0  0  0
  -53.6213   24.3157  -34.8865 C   0  0  0  0  0  0  0  0  0  0  0  0
  -52.4215   24.4625  -34.2916 N   0  0  0  0  0  0  0  0  0  0  0  0
  -51.6429   24.0659  -34.7452 H   0  0  0  0  0  0  0  0  0  0  0  0
  -52.1713   25.1739  -33.0056 C   0  0  0  0  0  0  0  0  0  0  0  0
  -51.8028   24.0939  -31.9717 C   0  0  0  0  0  0  0  0  0  0  0  0
  -50.8616   22.9890  -32.4854 C   0  0  0  0  0  0  0  0  0  0  0  0
  -48.2139   21.7582  -30.3805 C   0  0  0  0  0  0  0  0  0  0  0  0
  -48.8229   21.8162  -31.5845 C   0  0  0  0  0  0  0  0  0  0  0  0
  -49.9694   23.0201  -30.1788 C   0  0  0  0  0  0  0  0  0  0  0  0
  -48.9286   22.5101  -29.5473 N   0  0  0  0  0  0  0  0  0  0  0  0
  -49.8855   22.6151  -31.4414 N   0  0  0  0  0  0  0  0  0  0  0  0
  9 10  1  0  0  0
 11 12  1  0  0  0
 13 14  2  0  0  0
 20 21  2  0  0  0
 20 23  1  0  0  0
  3  4  2  0  0  0
  3  6  1  0  0  0
  4  7  1  0  0  0
 21 24  1  0  0  0
 22 23  2  0  0  0
 22 24  1  0  0  0
  5  6  2  0  0  0
  5  8  1  0  0  0
 18 17  1  0  0  0
 18 19  1  0  0  0
 17 15  1  0  0  0
 19 24  1  0  0  0
 15 14  1  0  0  0
  1 14  1  0  0  0
  1  6  1  0  0  0
 10  7  1  0  0  0
 12  8  1  0  0  0
  7  8  2  0  0  0
 15 16  1  0  0  0
  1  2  1  0  0  0
M  END
> <minimizedAffinity>
-5.64771

$$$$
4F9U_PBD_A_402


 24 25  0  0  0  0  0  0  0  0999 V2000
  -55.8321   21.7020  -32.9534 N   0  0  0  0  0  0  0  0  0  0  0  0
  -56.5343   21.6583  -32.2647 H   0  0  0  0  0  0  0  0  0  0  0  0
  -55.8599   19.3148  -33.2038 C   0  0  0  0  0  0  0  0  0  0  0  0
  -55.6327   18.2216  -34.0430 C   0  0  0  0  0  0  0  0  0  0  0  0
  -55.2042   20.7873  -35.0122 C   0  0  0  0  0  0  0  0  0  0  0  0
  -55.6393   20.6050  -33.6918 C   0  0  0  0  0  0  0  0  0  0  0  0
  -55.1909   18.3997  -35.3707 C   0  0  0  0  0  0  0  0  0  0  0  0
  -54.9742   19.7018  -35.8702 C   0  0  0  0  0  0  0  0  0  0  0  0
  -55.0852   16.0166  -35.5609 C   0  0  0  0  0  0  0  0  0  0  0  0
  -54.9656   17.3194  -36.1968 O   0  0  0  0  0  0  0  0  0  0  0  0
  -53.7940   21.0661  -37.4841 C   0  0  0  0  0  0  0  0  0  0  0  0
  -54.5438   19.8708  -37.1749 O   0  0  0  0  0  0  0  0  0  0  0  0
  -56.0515   24.1866  -33.8411 S   0  0  0  0  0  0  0  0  0  0  0  0
  -55.1505   22.8709  -33.0635 C   0  0  0  0  0  0  0  0  0  0  0  0
  -53.9245   23.0707  -32.5421 N   0  0  0  0  0  0  0  0  0  0  0  0
  -53.3606   22.2760  -32.4013 H   0  0  0  0  0  0  0  0  0  0  0  0
  -53.3481   24.3913  -32.1602 C   0  0  0  0  0  0  0  0  0  0  0  0
  -52.2475   24.1056  -31.1217 C   0  0  0  0  0  0  0  0  0  0  0  0
  -50.8086   24.3667  -31.6033 C   0  0  0  0  0  0  0  0  0  0  0  0
  -48.4506   21.7094  -31.0252 C   0  0  0  0  0  0  0  0  0  0  0  0
  -49.0935   22.5420  -31.8721 C   0  0  0  0  0  0  0  0  0  0  0  0
  -49.8047   22.9366  -29.8527 C   0  0  0  0  0  0  0  0  0  0  0  0
  -48.8961   21.9807  -29.8012 N   0  0  0  0  0  0  0  0  0  0  0  0
  -49.9029   23.3014  -31.1265 N   0  0  0  0  0  0  0  0  0  0  0  0
  9 10  1  0  0  0
 11 12  1  0  0  0
 13 14  2  0  0  0
 20 21  2  0  0  0
 20 23  1  0  0  0
  3  4  2  0  0  0
  3  6  1  0  0  0
  4  7  1  0  0  0
 21 24  1  0  0  0
 22 23  2  0  0  0
 22 24  1  0  0  0
  5  6  2  0  0  0
  5  8  1  0  0  0
 18 17  1  0  0  0
 18 19  1  0  0  0
 17 15  1  0  0  0
 19 24  1  0  0  0
 15 14  1  0  0  0
  1 14  1  0  0  0
  1  6  1  0  0  0
 10  7  1  0  0  0
 12  8  1  0  0  0
  7  8  2  0  0  0
 15 16  1  0  0  0
  1  2  1  0  0  0
M  END
> <minimizedAffinity>
-5.57454

$$$$
4F9U_PBD_A_402


 24 25  0  0  0  0  0  0  0  0999 V2000
  -53.4860   22.6196  -37.0954 N   0  0  0  0  0  0  0  0  0  0  0  0
  -53.1253   22.9206  -37.9606 H   0  0  0  0  0  0  0  0  0  0  0  0
  -54.6576   20.8523  -35.9703 C   0  0  0  0  0  0  0  0  0  0  0  0
  -54.9995   19.4981  -35.9530 C   0  0  0  0  0  0  0  0  0  0  0  0
  -53.4177   20.4709  -38.0163 C   0  0  0  0  0  0  0  0  0  0  0  0
  -53.8577   21.3390  -37.0070 C   0  0  0  0  0  0  0  0  0  0  0  0
  -54.5559   18.6199  -36.9636 C   0  0  0  0  0  0  0  0  0  0  0  0
  -53.7539   19.1091  -38.0170 C   0  0  0  0  0  0  0  0  0  0  0  0
  -55.1941   16.7391  -35.6288 C   0  0  0  0  0  0  0  0  0  0  0  0
  -54.8929   17.2834  -36.9437 O   0  0  0  0  0  0  0  0  0  0  0  0
  -53.3039   18.7357  -40.3658 C   0  0  0  0  0  0  0  0  0  0  0  0
  -53.3240   18.2435  -39.0079 O   0  0  0  0  0  0  0  0  0  0  0  0
  -55.0122   24.5616  -36.1420 S   0  0  0  0  0  0  0  0  0  0  0  0
  -53.5591   23.5445  -36.1043 C   0  0  0  0  0  0  0  0  0  0  0  0
  -52.6630   23.6357  -35.1025 N   0  0  0  0  0  0  0  0  0  0  0  0
  -51.7101   23.5881  -35.3456 H   0  0  0  0  0  0  0  0  0  0  0  0
  -52.9898   23.8025  -33.6577 C   0  0  0  0  0  0  0  0  0  0  0  0
  -51.9031   23.0456  -32.8720 C   0  0  0  0  0  0  0  0  0  0  0  0
  -50.9455   23.9339  -32.0568 C   0  0  0  0  0  0  0  0  0  0  0  0
  -48.4212   21.7352  -30.7342 C   0  0  0  0  0  0  0  0  0  0  0  0
  -49.0572   22.2890  -31.7891 C   0  0  0  0  0  0  0  0  0  0  0  0
  -49.9792   23.0368  -29.9641 C   0  0  0  0  0  0  0  0  0  0  0  0
  -48.9972   22.2181  -29.6363 N   0  0  0  0  0  0  0  0  0  0  0  0
  -49.9948   23.1018  -31.2911 N   0  0  0  0  0  0  0  0  0  0  0  0
  9 10  1  0  0  0
 11 12  1  0  0  0
 13 14  2  0  0  0
 20 21  2  0  0  0
 20 23  1  0  0  0
  3  4  2  0  0  0
  3  6  1  0  0  0
  4  7  1  0  0  0
 21 24  1  0  0  0
 22 23  2  0  0  0
 22 24  1  0  0  0
  5  6  2  0  0  0
  5  8  1  0  0  0
 18 17  1  0  0  0
 18 19  1  0  0  0
 17 15  1  0  0  0
 19 24  1  0  0  0
 15 14  1  0  0  0
  1 14  1  0  0  0
  1  6  1  0  0  0
 10  7  1  0  0  0
 12  8  1  0  0  0
  7  8  2  0  0  0
 15 16  1  0  0  0
  1  2  1  0  0  0
M  END
> <minimizedAffinity>
-5.52806

$$$$
4F9U_PBD_A_402


 24 25  0  0  0  0  0  0  0  0999 V2000
  -55.0650   21.6887  -34.1552 N   0  0  0  0  0  0  0  0  0  0  0  0
  -55.6112   21.1329  -33.5535 H   0  0  0  0  0  0  0  0  0  0  0  0
  -54.0903   21.8934  -36.3392 C   0  0  0  0  0  0  0  0  0  0  0  0
  -53.8231   21.2804  -37.5656 C   0  0  0  0  0  0  0  0  0  0  0  0
  -55.1662   19.8525  -35.6002 C   0  0  0  0  0  0  0  0  0  0  0  0
  -54.7704   21.1747  -35.3531 C   0  0  0  0  0  0  0  0  0  0  0  0
  -54.2229   19.9520  -37.8205 C   0  0  0  0  0  0  0  0  0  0  0  0
  -54.9035   19.2198  -36.8241 C   0  0  0  0  0  0  0  0  0  0  0  0
  -53.2193   20.1647  -39.9825 C   0  0  0  0  0  0  0  0  0  0  0  0
  -53.9598   19.3495  -39.0321 O   0  0  0  0  0  0  0  0  0  0  0  0
  -54.5624   16.8585  -36.4161 C   0  0  0  0  0  0  0  0  0  0  0  0
  -55.2907   17.9154  -37.0785 O   0  0  0  0  0  0  0  0  0  0  0  0
  -55.8947   24.1869  -33.8723 S   0  0  0  0  0  0  0  0  0  0  0  0
  -54.6817   22.9051  -33.6900 C   0  0  0  0  0  0  0  0  0  0  0  0
  -53.5186   23.1243  -33.0465 N   0  0  0  0  0  0  0  0  0  0  0  0
  -52.8960   22.3653  -32.9716 H   0  0  0  0  0  0  0  0  0  0  0  0
  -53.0930   24.4170  -32.4382 C   0  0  0  0  0  0  0  0  0  0  0  0
  -51.6324   24.2298  -31.9877 C   0  0  0  0  0  0  0  0  0  0  0  0
  -51.0154   22.8586  -32.3187 C   0  0  0  0  0  0  0  0  0  0  0  0
  -48.1645   21.7456  -30.4241 C   0  0  0  0  0  0  0  0  0  0  0  0
  -48.8593   21.7858  -31.5815 C   0  0  0  0  0  0  0  0  0  0  0  0
  -49.9653   22.9089  -30.0798 C   0  0  0  0  0  0  0  0  0  0  0  0
  -48.8571   22.4477  -29.5310 N   0  0  0  0  0  0  0  0  0  0  0  0
  -49.9496   22.5247  -31.3516 N   0  0  0  0  0  0  0  0  0  0  0  0
  9 10  1  0  0  0
 11 12  1  0  0  0
 13 14  2  0  0  0
 20 21  2  0  0  0
 20 23  1  0  0  0
  3  4  2  0  0  0
  3  6  1  0  0  0
  4  7  1  0  0  0
 21 24  1  0  0  0
 22 23  2  0  0  0
 22 24  1  0  0  0
  5  6  2  0  0  0
  5  8  1  0  0  0
 18 17  1  0  0  0
 18 19  1  0  0  0
 17 15  1  0  0  0
 19 24  1  0  0  0
 15 14  1  0  0  0
  1 14  1  0  0  0
  1  6  1  0  0  0
 10  7  1  0  0  0
 12  8  1  0  0  0
  7  8  2  0  0  0
 15 16  1  0  0  0
  1  2  1  0  0  0
M  END
> <minimizedAffinity>
-5.47387

$$$$
4F9U_PBD_A_402


 24 25  0  0  0  0  0  0  0  0999 V2000
  -55.2665   21.6787  -34.9587 N   0  0  0  0  0  0  0  0  0  0  0  0
  -56.1246   22.1323  -35.1236 H   0  0  0  0  0  0  0  0  0  0  0  0
  -54.7581   19.6843  -36.1938 C   0  0  0  0  0  0  0  0  0  0  0  0
  -54.7841   18.2881  -36.2279 C   0  0  0  0  0  0  0  0  0  0  0  0
  -55.7614   19.6084  -33.9901 C   0  0  0  0  0  0  0  0  0  0  0  0
  -55.2547   20.3470  -35.0688 C   0  0  0  0  0  0  0  0  0  0  0  0
  -55.2967   17.5408  -35.1471 C   0  0  0  0  0  0  0  0  0  0  0  0
  -55.7923   18.2061  -34.0053 C   0  0  0  0  0  0  0  0  0  0  0  0
  -54.9667   15.5692  -36.4627 C   0  0  0  0  0  0  0  0  0  0  0  0
  -55.3231   16.1630  -35.1835 O   0  0  0  0  0  0  0  0  0  0  0  0
  -57.4517   17.9825  -32.2574 C   0  0  0  0  0  0  0  0  0  0  0  0
  -56.2912   17.4676  -32.9463 O   0  0  0  0  0  0  0  0  0  0  0  0
  -53.4387   23.2723  -36.0214 S   0  0  0  0  0  0  0  0  0  0  0  0
  -54.2064   22.4650  -34.6407 C   0  0  0  0  0  0  0  0  0  0  0  0
  -53.8120   22.7085  -33.3757 N   0  0  0  0  0  0  0  0  0  0  0  0
  -53.8479   21.9570  -32.7408 H   0  0  0  0  0  0  0  0  0  0  0  0
  -53.3260   24.0179  -32.8546 C   0  0  0  0  0  0  0  0  0  0  0  0
  -52.1516   23.7049  -31.9092 C   0  0  0  0  0  0  0  0  0  0  0  0
  -50.9311   23.0450  -32.5767 C   0  0  0  0  0  0  0  0  0  0  0  0
  -48.2987   21.6613  -30.5489 C   0  0  0  0  0  0  0  0  0  0  0  0
  -48.8843   21.8295  -31.7542 C   0  0  0  0  0  0  0  0  0  0  0  0
  -50.0868   22.8586  -30.2593 C   0  0  0  0  0  0  0  0  0  0  0  0
  -49.0475   22.3087  -29.6598 N   0  0  0  0  0  0  0  0  0  0  0  0
  -49.9679   22.5869  -31.5544 N   0  0  0  0  0  0  0  0  0  0  0  0
  9 10  1  0  0  0
 11 12  1  0  0  0
 13 14  2  0  0  0
 20 21  2  0  0  0
 20 23  1  0  0  0
  3  4  2  0  0  0
  3  6  1  0  0  0
  4  7  1  0  0  0
 21 24  1  0  0  0
 22 23  2  0  0  0
 22 24  1  0  0  0
  5  6  2  0  0  0
  5  8  1  0  0  0
 18 17  1  0  0  0
 18 19  1  0  0  0
 17 15  1  0  0  0
 19 24  1  0  0  0
 15 14  1  0  0  0
  1 14  1  0  0  0
  1  6  1  0  0  0
 10  7  1  0  0  0
 12  8  1  0  0  0
  7  8  2  0  0  0
 15 16  1  0  0  0
  1  2  1  0  0  0
M  END
> <minimizedAffinity>
-5.44482

$$$$
4F9U_PBD_A_402


 24 25  0  0  0  0  0  0  0  0999 V2000
  -53.9267   25.6066  -34.9269 N   0  0  0  0  0  0  0  0  0  0  0  0
  -53.6082   26.4402  -35.3428 H   0  0  0  0  0  0  0  0  0  0  0  0
  -53.1563   23.4872  -35.7491 C   0  0  0  0  0  0  0  0  0  0  0  0
  -53.3782   22.4161  -36.6178 C   0  0  0  0  0  0  0  0  0  0  0  0
  -55.1912   24.5175  -36.5652 C   0  0  0  0  0  0  0  0  0  0  0  0
  -54.0674   24.5459  -35.7274 C   0  0  0  0  0  0  0  0  0  0  0  0
  -54.5050   22.3849  -37.4656 C   0  0  0  0  0  0  0  0  0  0  0  0
  -55.4321   23.4489  -37.4413 C   0  0  0  0  0  0  0  0  0  0  0  0
  -54.7767   20.0182  -37.6926 C   0  0  0  0  0  0  0  0  0  0  0  0
  -54.7213   21.3277  -38.3235 O   0  0  0  0  0  0  0  0  0  0  0  0
  -57.6783   24.2198  -37.9092 C   0  0  0  0  0  0  0  0  0  0  0  0
  -56.5378   23.4115  -38.2731 O   0  0  0  0  0  0  0  0  0  0  0  0
  -55.8344   26.1254  -33.1659 S   0  0  0  0  0  0  0  0  0  0  0  0
  -54.1818   25.6428  -33.5939 C   0  0  0  0  0  0  0  0  0  0  0  0
  -53.2982   25.2514  -32.6553 N   0  0  0  0  0  0  0  0  0  0  0  0
  -52.3846   25.6126  -32.7190 H   0  0  0  0  0  0  0  0  0  0  0  0
  -53.5848   24.3184  -31.5284 C   0  0  0  0  0  0  0  0  0  0  0  0
  -52.2884   24.2154  -30.7039 C   0  0  0  0  0  0  0  0  0  0  0  0
  -50.9850   24.2989  -31.5193 C   0  0  0  0  0  0  0  0  0  0  0  0
  -48.5659   21.6912  -30.9684 C   0  0  0  0  0  0  0  0  0  0  0  0
  -49.3291   22.4233  -31.8082 C   0  0  0  0  0  0  0  0  0  0  0  0
  -49.7289   23.0803  -29.7715 C   0  0  0  0  0  0  0  0  0  0  0  0
  -48.8225   22.1215  -29.7358 N   0  0  0  0  0  0  0  0  0  0  0  0
  -50.0175   23.2849  -31.0522 N   0  0  0  0  0  0  0  0  0  0  0  0
  9 10  1  0  0  0
 11 12  1  0  0  0
 13 14  2  0  0  0
 20 21  2  0  0  0
 20 23  1  0  0  0
  3  4  2  0  0  0
  3  6  1  0  0  0
  4  7  1  0  0  0
 21 24  1  0  0  0
 22 23  2  0  0  0
 22 24  1  0  0  0
  5  6  2  0  0  0
  5  8  1  0  0  0
 18 17  1  0  0  0
 18 19  1  0  0  0
 17 15  1  0  0  0
 19 24  1  0  0  0
 15 14  1  0  0  0
  1 14  1  0  0  0
  1  6  1  0  0  0
 10  7  1  0  0  0
 12  8  1  0  0  0
  7  8  2  0  0  0
 15 16  1  0  0  0
  1  2  1  0  0  0
M  END
> <minimizedAffinity>
-5.30510

$$$$
4F9U_PBD_A_402


 24 25  0  0  0  0  0  0  0  0999 V2000
  -52.6111   24.1517  -34.4651 N   0  0  0  0  0  0  0  0  0  0  0  0
  -51.7295   24.4542  -34.7821 H   0  0  0  0  0  0  0  0  0  0  0  0
  -54.0897   24.5324  -32.6129 C   0  0  0  0  0  0  0  0  0  0  0  0
  -54.2406   24.5852  -31.2252 C   0  0  0  0  0  0  0  0  0  0  0  0
  -51.7575   23.9584  -32.2963 C   0  0  0  0  0  0  0  0  0  0  0  0
  -52.8383   24.2213  -33.1500 C   0  0  0  0  0  0  0  0  0  0  0  0
  -53.1555   24.3257  -30.3623 C   0  0  0  0  0  0  0  0  0  0  0  0
  -51.8912   24.0035  -30.9008 C   0  0  0  0  0  0  0  0  0  0  0  0
  -54.5945   23.9274  -28.4923 C   0  0  0  0  0  0  0  0  0  0  0  0
  -53.3060   24.3801  -28.9931 O   0  0  0  0  0  0  0  0  0  0  0  0
  -49.5780   23.3394  -30.6422 C   0  0  0  0  0  0  0  0  0  0  0  0
  -50.8306   23.7465  -30.0493 O   0  0  0  0  0  0  0  0  0  0  0  0
  -54.0040   24.9259  -36.5794 S   0  0  0  0  0  0  0  0  0  0  0  0
  -53.4819   23.7029  -35.4050 C   0  0  0  0  0  0  0  0  0  0  0  0
  -53.8565   22.4139  -35.5189 N   0  0  0  0  0  0  0  0  0  0  0  0
  -53.5971   21.8040  -34.7909 H   0  0  0  0  0  0  0  0  0  0  0  0
  -54.6301   21.8314  -36.6523 C   0  0  0  0  0  0  0  0  0  0  0  0
  -54.8585   20.3474  -36.3105 C   0  0  0  0  0  0  0  0  0  0  0  0
  -54.1879   19.3442  -37.2667 C   0  0  0  0  0  0  0  0  0  0  0  0
  -54.9821   16.2300  -35.6458 C   0  0  0  0  0  0  0  0  0  0  0  0
  -55.0031   17.5803  -35.6643 C   0  0  0  0  0  0  0  0  0  0  0  0
  -53.9817   16.8868  -37.4575 C   0  0  0  0  0  0  0  0  0  0  0  0
  -54.3637   15.8361  -36.7560 N   0  0  0  0  0  0  0  0  0  0  0  0
  -54.4033   17.9600  -36.7974 N   0  0  0  0  0  0  0  0  0  0  0  0
  9 10  1  0  0  0
 11 12  1  0  0  0
 13 14  2  0  0  0
 20 21  2  0  0  0
 20 23  1  0  0  0
  3  4  2  0  0  0
  3  6  1  0  0  0
  4  7  1  0  0  0
 21 24  1  0  0  0
 22 23  2  0  0  0
 22 24  1  0  0  0
  5  6  2  0  0  0
  5  8  1  0  0  0
 18 17  1  0  0  0
 18 19  1  0  0  0
 17 15  1  0  0  0
 19 24  1  0  0  0
 15 14  1  0  0  0
  1 14  1  0  0  0
  1  6  1  0  0  0
 10  7  1  0  0  0
 12  8  1  0  0  0
  7  8  2  0  0  0
 15 16  1  0  0  0
  1  2  1  0  0  0
M  END
> <minimizedAffinity>
-5.19457

$$$$
