2P4S_DIH_A_401


 24 26  0  0  0  0  0  0  0  0999 V2000
   37.8724    3.9019  103.9723 C   0  0  0  0  0  0  0  0  0  0  0  0
   38.9532    3.2833  103.1120 C   0  0  0  0  0  0  0  0  0  0  0  0
   39.9287    4.0048  102.3729 C   0  0  0  0  0  0  0  0  0  0  0  0
   40.7040    3.1120  101.6978 N   0  0  0  0  0  0  0  0  0  0  0  0
   40.2801    1.8486  101.9626 C   0  0  0  0  0  0  0  0  0  0  0  0
   40.6778    0.4930  101.4869 C   0  0  0  0  0  0  0  0  0  0  0  0
   41.6659    0.3147  100.6618 O   0  0  0  0  0  0  0  0  0  0  0  0
   39.9519   -0.5314  101.9818 N   0  0  0  0  0  0  0  0  0  0  0  0
   38.9155   -0.3774  102.8606 C   0  0  0  0  0  0  0  0  0  0  0  0
   38.5077    0.8293  103.2837 N   0  0  0  0  0  0  0  0  0  0  0  0
   39.1825    1.9404  102.8344 C   0  0  0  0  0  0  0  0  0  0  0  0
   41.4566    3.3462  101.1079 H   0  0  0  0  0  0  0  0  0  0  0  0
   40.1822   -1.4440  101.6929 H   0  0  0  0  0  0  0  0  0  0  0  0
   34.3057    4.9156  103.5794 C   0  0  0  0  0  0  0  0  0  0  0  0
   35.7970    5.3202  103.5512 C   0  0  0  0  0  0  0  0  0  0  0  0
   34.2510    3.4050  103.5081 C   0  0  0  0  0  0  0  0  0  0  0  0
   34.1417    3.0283  102.1339 O   0  0  0  0  0  0  0  0  0  0  0  0
   35.6191    2.9713  104.0006 C   0  0  0  0  0  0  0  0  0  0  0  0
   36.5150    4.0201  103.4192 N   0  0  0  0  0  0  0  0  0  0  0  0
   34.8783    3.4130  101.6336 H   0  0  0  0  0  0  0  0  0  0  0  0
   36.6986    3.9137  102.4215 H   0  0  0  0  0  0  0  0  0  0  0  0
   33.6113    6.8396  104.7672 O   0  0  0  0  0  0  0  0  0  0  0  0
   33.6251    5.4001  104.8363 C   0  0  0  0  0  0  0  0  0  0  0  0
   33.1805    7.1973  105.5593 H   0  0  0  0  0  0  0  0  0  0  0  0
 22 23  1  0  0  0
 23 14  1  0  0  0
 14 15  1  0  0  0
 14 16  1  0  0  0
 15 19  1  0  0  0
 16 17  1  0  0  0
 16 18  1  0  0  0
 18 19  1  0  0  0
 19  1  1  0  0  0
  1  2  1  0  0  0
  2  3  2  0  0  0
  2 11  1  0  0  0
  3  4  1  0  0  0
  4  5  1  0  0  0
  5  6  1  0  0  0
  5 11  1  0  0  0
  6  7  2  0  0  0
  6  8  1  0  0  0
  8  9  1  0  0  0
  9 10  2  0  0  0
 10 11  1  0  0  0
 22 24  1  0  0  0
 17 20  1  0  0  0
 19 21  1  0  0  0
  4 12  1  0  0  0
  8 13  1  0  0  0
M  CHG 1  19   1
M  END
> <minimizedAffinity>
-9.77143

$$$$
2P4S_DIH_A_401


 24 26  0  0  0  0  0  0  0  0999 V2000
   37.4592    3.8457  103.0384 C   0  0  0  0  0  0  0  0  0  0  0  0
   38.7006    3.1861  102.4774 C   0  0  0  0  0  0  0  0  0  0  0  0
   39.7618    3.8603  101.8159 C   0  0  0  0  0  0  0  0  0  0  0  0
   40.6810    2.9354  101.4242 N   0  0  0  0  0  0  0  0  0  0  0  0
   40.2690    1.6961  101.7990 C   0  0  0  0  0  0  0  0  0  0  0  0
   40.8005    0.3168  101.6065 C   0  0  0  0  0  0  0  0  0  0  0  0
   41.9264    0.0909  100.9981 O   0  0  0  0  0  0  0  0  0  0  0  0
   40.0406   -0.6742  102.1181 N   0  0  0  0  0  0  0  0  0  0  0  0
   38.8586   -0.4680  102.7743 C   0  0  0  0  0  0  0  0  0  0  0  0
   38.3327    0.7562  102.9361 N   0  0  0  0  0  0  0  0  0  0  0  0
   39.0306    1.8358  102.4472 C   0  0  0  0  0  0  0  0  0  0  0  0
   41.5166    3.1342  100.9430 H   0  0  0  0  0  0  0  0  0  0  0  0
   40.3560   -1.6009  102.0127 H   0  0  0  0  0  0  0  0  0  0  0  0
   38.6898    4.6474  106.4657 C   0  0  0  0  0  0  0  0  0  0  0  0
   38.7919    4.8910  104.9431 C   0  0  0  0  0  0  0  0  0  0  0  0
   37.3671    3.9576  106.7203 C   0  0  0  0  0  0  0  0  0  0  0  0
   36.3881    4.9612  106.9969 O   0  0  0  0  0  0  0  0  0  0  0  0
   37.0239    3.3313  105.3816 C   0  0  0  0  0  0  0  0  0  0  0  0
   37.5003    4.3679  104.4125 N   0  0  0  0  0  0  0  0  0  0  0  0
   36.3591    5.5954  106.2635 H   0  0  0  0  0  0  0  0  0  0  0  0
   36.8921    5.1828  104.3321 H   0  0  0  0  0  0  0  0  0  0  0  0
   41.0078    4.6144  106.9354 O   0  0  0  0  0  0  0  0  0  0  0  0
   39.8263    3.7895  106.9658 C   0  0  0  0  0  0  0  0  0  0  0  0
   41.7684    4.1016  107.2505 H   0  0  0  0  0  0  0  0  0  0  0  0
 22 23  1  0  0  0
 23 14  1  0  0  0
 14 15  1  0  0  0
 14 16  1  0  0  0
 15 19  1  0  0  0
 16 17  1  0  0  0
 16 18  1  0  0  0
 18 19  1  0  0  0
 19  1  1  0  0  0
  1  2  1  0  0  0
  2  3  2  0  0  0
  2 11  1  0  0  0
  3  4  1  0  0  0
  4  5  1  0  0  0
  5  6  1  0  0  0
  5 11  1  0  0  0
  6  7  2  0  0  0
  6  8  1  0  0  0
  8  9  1  0  0  0
  9 10  2  0  0  0
 10 11  1  0  0  0
 22 24  1  0  0  0
 17 20  1  0  0  0
 19 21  1  0  0  0
  4 12  1  0  0  0
  8 13  1  0  0  0
M  CHG 1  19   1
M  END
> <minimizedAffinity>
-9.12935

$$$$
2P4S_DIH_A_401


 24 26  0  0  0  0  0  0  0  0999 V2000
   38.6437    4.1426  103.9862 C   0  0  0  0  0  0  0  0  0  0  0  0
   39.4326    3.2532  103.0495 C   0  0  0  0  0  0  0  0  0  0  0  0
   40.3973    3.7019  102.1081 C   0  0  0  0  0  0  0  0  0  0  0  0
   40.8674    2.6215  101.4257 N   0  0  0  0  0  0  0  0  0  0  0  0
   40.2561    1.4955  101.8779 C   0  0  0  0  0  0  0  0  0  0  0  0
   40.3034    0.0560  101.4937 C   0  0  0  0  0  0  0  0  0  0  0  0
   41.0931   -0.3821  100.5592 O   0  0  0  0  0  0  0  0  0  0  0  0
   39.4827   -0.7577  102.1906 N   0  0  0  0  0  0  0  0  0  0  0  0
   38.6502   -0.3293  103.1875 C   0  0  0  0  0  0  0  0  0  0  0  0
   38.5560    0.9631  103.5368 N   0  0  0  0  0  0  0  0  0  0  0  0
   39.3512    1.8752  102.8830 C   0  0  0  0  0  0  0  0  0  0  0  0
   41.5464    2.6516  100.7135 H   0  0  0  0  0  0  0  0  0  0  0  0
   39.4834   -1.7167  101.9682 H   0  0  0  0  0  0  0  0  0  0  0  0
   34.9647    3.6806  104.3795 C   0  0  0  0  0  0  0  0  0  0  0  0
   36.2338    3.4504  103.5283 C   0  0  0  0  0  0  0  0  0  0  0  0
   35.4226    4.0522  105.7732 C   0  0  0  0  0  0  0  0  0  0  0  0
   35.5069    2.8544  106.5479 O   0  0  0  0  0  0  0  0  0  0  0  0
   36.8336    4.5690  105.5629 C   0  0  0  0  0  0  0  0  0  0  0  0
   37.3511    3.6584  104.4935 N   0  0  0  0  0  0  0  0  0  0  0  0
   36.0934    2.2225  106.1034 H   0  0  0  0  0  0  0  0  0  0  0  0
   37.6038    2.7252  104.8185 H   0  0  0  0  0  0  0  0  0  0  0  0
   34.9450    5.5279  102.9024 O   0  0  0  0  0  0  0  0  0  0  0  0
   34.1060    4.7810  103.8055 C   0  0  0  0  0  0  0  0  0  0  0  0
   34.4321    6.2502  102.5073 H   0  0  0  0  0  0  0  0  0  0  0  0
 22 23  1  0  0  0
 23 14  1  0  0  0
 14 15  1  0  0  0
 14 16  1  0  0  0
 15 19  1  0  0  0
 16 17  1  0  0  0
 16 18  1  0  0  0
 18 19  1  0  0  0
 19  1  1  0  0  0
  1  2  1  0  0  0
  2  3  2  0  0  0
  2 11  1  0  0  0
  3  4  1  0  0  0
  4  5  1  0  0  0
  5  6  1  0  0  0
  5 11  1  0  0  0
  6  7  2  0  0  0
  6  8  1  0  0  0
  8  9  1  0  0  0
  9 10  2  0  0  0
 10 11  1  0  0  0
 22 24  1  0  0  0
 17 20  1  0  0  0
 19 21  1  0  0  0
  4 12  1  0  0  0
  8 13  1  0  0  0
M  CHG 1  19   1
M  END
> <minimizedAffinity>
-8.51812

$$$$
2P4S_DIH_A_401


 24 26  0  0  0  0  0  0  0  0999 V2000
   37.5941    4.2764  105.7083 C   0  0  0  0  0  0  0  0  0  0  0  0
   38.5879    3.9648  104.6100 C   0  0  0  0  0  0  0  0  0  0  0  0
   39.5472    4.8732  104.0878 C   0  0  0  0  0  0  0  0  0  0  0  0
   40.2353    4.2476  103.0933 N   0  0  0  0  0  0  0  0  0  0  0  0
   39.7703    2.9795  102.9452 C   0  0  0  0  0  0  0  0  0  0  0  0
   40.0730    1.8594  102.0095 C   0  0  0  0  0  0  0  0  0  0  0  0
   40.9972    1.9515  101.1005 O   0  0  0  0  0  0  0  0  0  0  0  0
   39.3327    0.7441  102.1811 N   0  0  0  0  0  0  0  0  0  0  0  0
   38.3625    0.6120  103.1358 C   0  0  0  0  0  0  0  0  0  0  0  0
   38.0395    1.6104  103.9726 N   0  0  0  0  0  0  0  0  0  0  0  0
   38.7358    2.7927  103.8770 C   0  0  0  0  0  0  0  0  0  0  0  0
   40.9592    4.6522  102.5627 H   0  0  0  0  0  0  0  0  0  0  0  0
   39.5010   -0.0198  101.5833 H   0  0  0  0  0  0  0  0  0  0  0  0
   34.2293    4.1392  104.1076 C   0  0  0  0  0  0  0  0  0  0  0  0
   35.2176    3.5514  105.1401 C   0  0  0  0  0  0  0  0  0  0  0  0
   34.7423    5.5116  103.7287 C   0  0  0  0  0  0  0  0  0  0  0  0
   34.1292    6.4700  104.5933 O   0  0  0  0  0  0  0  0  0  0  0  0
   36.2186    5.4523  104.0745 C   0  0  0  0  0  0  0  0  0  0  0  0
   36.2198    4.6388  105.3310 N   0  0  0  0  0  0  0  0  0  0  0  0
   34.3060    6.2320  105.5169 H   0  0  0  0  0  0  0  0  0  0  0  0
   35.9138    5.1444  106.1624 H   0  0  0  0  0  0  0  0  0  0  0  0
   35.4557    2.7708  102.6182 O   0  0  0  0  0  0  0  0  0  0  0  0
   34.1281    3.2667  102.8803 C   0  0  0  0  0  0  0  0  0  0  0  0
   35.4391    2.2016  101.8330 H   0  0  0  0  0  0  0  0  0  0  0  0
 22 23  1  0  0  0
 23 14  1  0  0  0
 14 15  1  0  0  0
 14 16  1  0  0  0
 15 19  1  0  0  0
 16 17  1  0  0  0
 16 18  1  0  0  0
 18 19  1  0  0  0
 19  1  1  0  0  0
  1  2  1  0  0  0
  2  3  2  0  0  0
  2 11  1  0  0  0
  3  4  1  0  0  0
  4  5  1  0  0  0
  5  6  1  0  0  0
  5 11  1  0  0  0
  6  7  2  0  0  0
  6  8  1  0  0  0
  8  9  1  0  0  0
  9 10  2  0  0  0
 10 11  1  0  0  0
 22 24  1  0  0  0
 17 20  1  0  0  0
 19 21  1  0  0  0
  4 12  1  0  0  0
  8 13  1  0  0  0
M  CHG 1  19   1
M  END
> <minimizedAffinity>
-7.96865

$$$$
2P4S_DIH_A_401


 24 26  0  0  0  0  0  0  0  0999 V2000
   38.1808    2.5425  104.6114 C   0  0  0  0  0  0  0  0  0  0  0  0
   37.1999    3.6317  104.9888 C   0  0  0  0  0  0  0  0  0  0  0  0
   37.3093    4.4788  106.1240 C   0  0  0  0  0  0  0  0  0  0  0  0
   36.2275    5.3052  106.1498 N   0  0  0  0  0  0  0  0  0  0  0  0
   35.4231    5.0365  105.0882 C   0  0  0  0  0  0  0  0  0  0  0  0
   34.1036    5.5499  104.6221 C   0  0  0  0  0  0  0  0  0  0  0  0
   33.4754    6.5016  105.2453 O   0  0  0  0  0  0  0  0  0  0  0  0
   33.6168    4.9690  103.5054 N   0  0  0  0  0  0  0  0  0  0  0  0
   34.2595    3.9750  102.8204 C   0  0  0  0  0  0  0  0  0  0  0  0
   35.4316    3.4647  103.2294 N   0  0  0  0  0  0  0  0  0  0  0  0
   36.0114    3.9882  104.3615 C   0  0  0  0  0  0  0  0  0  0  0  0
   36.0545    5.9925  106.8332 H   0  0  0  0  0  0  0  0  0  0  0  0
   32.7473    5.2792  103.1636 H   0  0  0  0  0  0  0  0  0  0  0  0
   39.9142    1.3842  101.5200 C   0  0  0  0  0  0  0  0  0  0  0  0
   38.6965    1.2692  102.4645 C   0  0  0  0  0  0  0  0  0  0  0  0
   40.6106    2.6879  101.8451 C   0  0  0  0  0  0  0  0  0  0  0  0
   40.0786    3.7016  100.9898 O   0  0  0  0  0  0  0  0  0  0  0  0
   40.1607    2.9930  103.2617 C   0  0  0  0  0  0  0  0  0  0  0  0
   38.7352    2.5364  103.2494 N   0  0  0  0  0  0  0  0  0  0  0  0
   39.1151    3.7406  101.0951 H   0  0  0  0  0  0  0  0  0  0  0  0
   38.0927    3.1688  102.7721 H   0  0  0  0  0  0  0  0  0  0  0  0
   40.6181   -0.6852  100.6161 O   0  0  0  0  0  0  0  0  0  0  0  0
   40.8670    0.2281  101.7030 C   0  0  0  0  0  0  0  0  0  0  0  0
   41.2116   -1.4486  100.6930 H   0  0  0  0  0  0  0  0  0  0  0  0
 22 23  1  0  0  0
 23 14  1  0  0  0
 14 15  1  0  0  0
 14 16  1  0  0  0
 15 19  1  0  0  0
 16 17  1  0  0  0
 16 18  1  0  0  0
 18 19  1  0  0  0
 19  1  1  0  0  0
  1  2  1  0  0  0
  2  3  2  0  0  0
  2 11  1  0  0  0
  3  4  1  0  0  0
  4  5  1  0  0  0
  5  6  1  0  0  0
  5 11  1  0  0  0
  6  7  2  0  0  0
  6  8  1  0  0  0
  8  9  1  0  0  0
  9 10  2  0  0  0
 10 11  1  0  0  0
 22 24  1  0  0  0
 17 20  1  0  0  0
 19 21  1  0  0  0
  4 12  1  0  0  0
  8 13  1  0  0  0
M  CHG 1  19   1
M  END
> <minimizedAffinity>
-7.26024

$$$$
2P4S_DIH_A_401


 24 26  0  0  0  0  0  0  0  0999 V2000
   37.5418    4.4174  105.5622 C   0  0  0  0  0  0  0  0  0  0  0  0
   38.1886    3.3527  104.7026 C   0  0  0  0  0  0  0  0  0  0  0  0
   38.1966    1.9606  104.9861 C   0  0  0  0  0  0  0  0  0  0  0  0
   38.9005    1.3266  104.0081 N   0  0  0  0  0  0  0  0  0  0  0  0
   39.3485    2.2377  103.1052 C   0  0  0  0  0  0  0  0  0  0  0  0
   40.2006    2.1654  101.8843 C   0  0  0  0  0  0  0  0  0  0  0  0
   40.6599    1.0377  101.4304 O   0  0  0  0  0  0  0  0  0  0  0  0
   40.4485    3.3460  101.2792 N   0  0  0  0  0  0  0  0  0  0  0  0
   39.9693    4.5470  101.7247 C   0  0  0  0  0  0  0  0  0  0  0  0
   39.2282    4.6544  102.8385 N   0  0  0  0  0  0  0  0  0  0  0  0
   38.9212    3.5063  103.5311 C   0  0  0  0  0  0  0  0  0  0  0  0
   39.0605    0.3563  103.9622 H   0  0  0  0  0  0  0  0  0  0  0  0
   41.0075    3.3425  100.4689 H   0  0  0  0  0  0  0  0  0  0  0  0
   34.0744    4.3105  104.1951 C   0  0  0  0  0  0  0  0  0  0  0  0
   35.1375    3.6902  105.1295 C   0  0  0  0  0  0  0  0  0  0  0  0
   34.5479    5.7037  103.8419 C   0  0  0  0  0  0  0  0  0  0  0  0
   33.9887    6.6168  104.7882 O   0  0  0  0  0  0  0  0  0  0  0  0
   36.0452    5.6467  104.0812 C   0  0  0  0  0  0  0  0  0  0  0  0
   36.1414    4.7799  105.2977 N   0  0  0  0  0  0  0  0  0  0  0  0
   34.2317    6.3413  105.6860 H   0  0  0  0  0  0  0  0  0  0  0  0
   35.8901    5.2456  106.1698 H   0  0  0  0  0  0  0  0  0  0  0  0
   35.1632    2.8581  102.6784 O   0  0  0  0  0  0  0  0  0  0  0  0
   33.8949    3.4906  102.9407 C   0  0  0  0  0  0  0  0  0  0  0  0
   35.0950    2.3173  101.8761 H   0  0  0  0  0  0  0  0  0  0  0  0
 22 23  1  0  0  0
 23 14  1  0  0  0
 14 15  1  0  0  0
 14 16  1  0  0  0
 15 19  1  0  0  0
 16 17  1  0  0  0
 16 18  1  0  0  0
 18 19  1  0  0  0
 19  1  1  0  0  0
  1  2  1  0  0  0
  2  3  2  0  0  0
  2 11  1  0  0  0
  3  4  1  0  0  0
  4  5  1  0  0  0
  5  6  1  0  0  0
  5 11  1  0  0  0
  6  7  2  0  0  0
  6  8  1  0  0  0
  8  9  1  0  0  0
  9 10  2  0  0  0
 10 11  1  0  0  0
 22 24  1  0  0  0
 17 20  1  0  0  0
 19 21  1  0  0  0
  4 12  1  0  0  0
  8 13  1  0  0  0
M  CHG 1  19   1
M  END
> <minimizedAffinity>
-7.10254

$$$$
2P4S_DIH_A_401


 24 26  0  0  0  0  0  0  0  0999 V2000
   39.5985    4.3437  102.1787 C   0  0  0  0  0  0  0  0  0  0  0  0
   39.1681    4.5530  103.6146 C   0  0  0  0  0  0  0  0  0  0  0  0
   40.0374    4.5759  104.7380 C   0  0  0  0  0  0  0  0  0  0  0  0
   39.2860    4.7521  105.8598 N   0  0  0  0  0  0  0  0  0  0  0  0
   37.9739    4.8449  105.5196 C   0  0  0  0  0  0  0  0  0  0  0  0
   36.7033    4.9778  106.2877 C   0  0  0  0  0  0  0  0  0  0  0  0
   36.6889    5.0831  107.5829 O   0  0  0  0  0  0  0  0  0  0  0  0
   35.5761    4.9947  105.5458 N   0  0  0  0  0  0  0  0  0  0  0  0
   35.5592    4.8988  104.1817 C   0  0  0  0  0  0  0  0  0  0  0  0
   36.6801    4.7438  103.4600 N   0  0  0  0  0  0  0  0  0  0  0  0
   37.8842    4.7119  104.1241 C   0  0  0  0  0  0  0  0  0  0  0  0
   39.6395    4.8043  106.7772 H   0  0  0  0  0  0  0  0  0  0  0  0
   34.7146    5.0812  106.0145 H   0  0  0  0  0  0  0  0  0  0  0  0
   39.4127    0.6255  101.9683 C   0  0  0  0  0  0  0  0  0  0  0  0
   38.6862    1.9852  101.8595 C   0  0  0  0  0  0  0  0  0  0  0  0
   40.8985    0.9065  101.9083 C   0  0  0  0  0  0  0  0  0  0  0  0
   41.3137    0.8157  100.5439 O   0  0  0  0  0  0  0  0  0  0  0  0
   41.0076    2.3598  102.3307 C   0  0  0  0  0  0  0  0  0  0  0  0
   39.7956    2.9683  101.6971 N   0  0  0  0  0  0  0  0  0  0  0  0
   40.7830    1.4216  100.0035 H   0  0  0  0  0  0  0  0  0  0  0  0
   39.8754    3.1209  100.6917 H   0  0  0  0  0  0  0  0  0  0  0  0
   38.3733   -1.2891  102.8894 O   0  0  0  0  0  0  0  0  0  0  0  0
   39.0708   -0.0825  103.2565 C   0  0  0  0  0  0  0  0  0  0  0  0
   38.1322   -1.7798  103.6907 H   0  0  0  0  0  0  0  0  0  0  0  0
 22 23  1  0  0  0
 23 14  1  0  0  0
 14 15  1  0  0  0
 14 16  1  0  0  0
 15 19  1  0  0  0
 16 17  1  0  0  0
 16 18  1  0  0  0
 18 19  1  0  0  0
 19  1  1  0  0  0
  1  2  1  0  0  0
  2  3  2  0  0  0
  2 11  1  0  0  0
  3  4  1  0  0  0
  4  5  1  0  0  0
  5  6  1  0  0  0
  5 11  1  0  0  0
  6  7  2  0  0  0
  6  8  1  0  0  0
  8  9  1  0  0  0
  9 10  2  0  0  0
 10 11  1  0  0  0
 22 24  1  0  0  0
 17 20  1  0  0  0
 19 21  1  0  0  0
  4 12  1  0  0  0
  8 13  1  0  0  0
M  CHG 1  19   1
M  END
> <minimizedAffinity>
-6.97173

$$$$
2P4S_DIH_A_401


 24 26  0  0  0  0  0  0  0  0999 V2000
   37.8515    2.1136  105.4380 C   0  0  0  0  0  0  0  0  0  0  0  0
   37.0082    3.3685  105.5096 C   0  0  0  0  0  0  0  0  0  0  0  0
   37.1558    4.4040  106.4709 C   0  0  0  0  0  0  0  0  0  0  0  0
   36.2005    5.3460  106.2385 N   0  0  0  0  0  0  0  0  0  0  0  0
   35.4417    4.9730  105.1749 C   0  0  0  0  0  0  0  0  0  0  0  0
   34.2419    5.5421  104.4978 C   0  0  0  0  0  0  0  0  0  0  0  0
   33.7108    6.6687  104.8690 O   0  0  0  0  0  0  0  0  0  0  0  0
   33.7571    4.8155  103.4691 N   0  0  0  0  0  0  0  0  0  0  0  0
   34.3009    3.6339  103.0468 C   0  0  0  0  0  0  0  0  0  0  0  0
   35.3594    3.0745  103.6534 N   0  0  0  0  0  0  0  0  0  0  0  0
   35.9270    3.7369  104.7169 C   0  0  0  0  0  0  0  0  0  0  0  0
   36.0782    6.1712  106.7612 H   0  0  0  0  0  0  0  0  0  0  0  0
   32.9649    5.1564  102.9943 H   0  0  0  0  0  0  0  0  0  0  0  0
   40.0769    3.0273  102.5892 C   0  0  0  0  0  0  0  0  0  0  0  0
   39.7224    3.1923  104.0843 C   0  0  0  0  0  0  0  0  0  0  0  0
   39.3688    1.7839  102.0964 C   0  0  0  0  0  0  0  0  0  0  0  0
   40.2597    0.6764  102.2449 O   0  0  0  0  0  0  0  0  0  0  0  0
   38.2324    1.6009  103.0850 C   0  0  0  0  0  0  0  0  0  0  0  0
   38.8660    2.0077  104.3788 N   0  0  0  0  0  0  0  0  0  0  0  0
   40.5497    0.6164  103.1685 H   0  0  0  0  0  0  0  0  0  0  0  0
   39.4962    1.3121  104.7781 H   0  0  0  0  0  0  0  0  0  0  0  0
   38.7101    4.9577  102.6034 O   0  0  0  0  0  0  0  0  0  0  0  0
   39.6413    4.2259  101.7821 C   0  0  0  0  0  0  0  0  0  0  0  0
   38.4015    5.7416  102.1225 H   0  0  0  0  0  0  0  0  0  0  0  0
 22 23  1  0  0  0
 23 14  1  0  0  0
 14 15  1  0  0  0
 14 16  1  0  0  0
 15 19  1  0  0  0
 16 17  1  0  0  0
 16 18  1  0  0  0
 18 19  1  0  0  0
 19  1  1  0  0  0
  1  2  1  0  0  0
  2  3  2  0  0  0
  2 11  1  0  0  0
  3  4  1  0  0  0
  4  5  1  0  0  0
  5  6  1  0  0  0
  5 11  1  0  0  0
  6  7  2  0  0  0
  6  8  1  0  0  0
  8  9  1  0  0  0
  9 10  2  0  0  0
 10 11  1  0  0  0
 22 24  1  0  0  0
 17 20  1  0  0  0
 19 21  1  0  0  0
  4 12  1  0  0  0
  8 13  1  0  0  0
M  CHG 1  19   1
M  END
> <minimizedAffinity>
-6.81018

$$$$
