4QSU_TDR_A_1210


 11 11  0  0  0  0  0  0  0  0999 V2000
   22.0748   45.2037   -8.4563 N   0  0  0  0  0  0  0  0  0  0  0  0
   20.8031   44.7683   -8.3544 C   0  0  0  0  0  0  0  0  0  0  0  0
   19.9836   45.2462   -7.5360 O   0  0  0  0  0  0  0  0  0  0  0  0
   20.3131   43.8234   -9.1665 N   0  0  0  0  0  0  0  0  0  0  0  0
   21.0722   43.2367  -10.1077 C   0  0  0  0  0  0  0  0  0  0  0  0
   20.5091   42.3395  -10.7684 O   0  0  0  0  0  0  0  0  0  0  0  0
   22.4920   43.6708  -10.2502 C   0  0  0  0  0  0  0  0  0  0  0  0
   23.4268   43.0908  -11.2898 C   0  0  0  0  0  0  0  0  0  0  0  0
   22.9374   44.6734   -9.3669 C   0  0  0  0  0  0  0  0  0  0  0  0
   22.3869   45.9213   -7.8589 H   0  0  0  0  0  0  0  0  0  0  0  0
   19.3717   43.5511   -9.0718 H   0  0  0  0  0  0  0  0  0  0  0  0
  1  2  1  0  0  0
  1  9  1  0  0  0
  2  3  2  0  0  0
  2  4  1  0  0  0
  4  5  1  0  0  0
  5  6  2  0  0  0
  5  7  1  0  0  0
  7  8  1  0  0  0
  7  9  2  0  0  0
  1 10  1  0  0  0
  4 11  1  0  0  0
M  END
> <minimizedAffinity>
-5.48269

$$$$
4QSU_TDR_A_1210


 11 11  0  0  0  0  0  0  0  0999 V2000
   23.3244   43.9267  -10.0067 N   0  0  0  0  0  0  0  0  0  0  0  0
   22.7504   43.0768  -10.8816 C   0  0  0  0  0  0  0  0  0  0  0  0
   23.4060   42.4251  -11.7272 O   0  0  0  0  0  0  0  0  0  0  0  0
   21.4343   42.8313  -10.8676 N   0  0  0  0  0  0  0  0  0  0  0  0
   20.6102   43.4425   -9.9996 C   0  0  0  0  0  0  0  0  0  0  0  0
   19.3999   43.1607  -10.1199 O   0  0  0  0  0  0  0  0  0  0  0  0
   21.1933   44.4055   -9.0213 C   0  0  0  0  0  0  0  0  0  0  0  0
   20.3588   45.1318   -7.9882 C   0  0  0  0  0  0  0  0  0  0  0  0
   22.5852   44.6097   -9.0892 C   0  0  0  0  0  0  0  0  0  0  0  0
   24.2999   44.0566  -10.0316 H   0  0  0  0  0  0  0  0  0  0  0  0
   21.0604   42.1861  -11.5103 H   0  0  0  0  0  0  0  0  0  0  0  0
  1  2  1  0  0  0
  1  9  1  0  0  0
  2  3  2  0  0  0
  2  4  1  0  0  0
  4  5  1  0  0  0
  5  6  2  0  0  0
  5  7  1  0  0  0
  7  8  1  0  0  0
  7  9  2  0  0  0
  1 10  1  0  0  0
  4 11  1  0  0  0
M  END
> <minimizedAffinity>
-5.44517

$$$$
4QSU_TDR_A_1210


 11 11  0  0  0  0  0  0  0  0999 V2000
   21.5401   44.3271   -9.0136 N   0  0  0  0  0  0  0  0  0  0  0  0
   20.9155   43.3462   -9.6954 C   0  0  0  0  0  0  0  0  0  0  0  0
   19.7625   42.9473   -9.4107 O   0  0  0  0  0  0  0  0  0  0  0  0
   21.4720   42.7655  -10.7657 N   0  0  0  0  0  0  0  0  0  0  0  0
   22.6966   43.1089  -11.1998 C   0  0  0  0  0  0  0  0  0  0  0  0
   23.1194   42.4610  -12.1798 O   0  0  0  0  0  0  0  0  0  0  0  0
   23.4374   44.1776  -10.4695 C   0  0  0  0  0  0  0  0  0  0  0  0
   24.8124   44.6542  -10.8862 C   0  0  0  0  0  0  0  0  0  0  0  0
   22.7887   44.7486   -9.3574 C   0  0  0  0  0  0  0  0  0  0  0  0
   21.0835   44.7482   -8.2499 H   0  0  0  0  0  0  0  0  0  0  0  0
   20.9707   42.0685  -11.2476 H   0  0  0  0  0  0  0  0  0  0  0  0
  1  2  1  0  0  0
  1  9  1  0  0  0
  2  3  2  0  0  0
  2  4  1  0  0  0
  4  5  1  0  0  0
  5  6  2  0  0  0
  5  7  1  0  0  0
  7  8  1  0  0  0
  7  9  2  0  0  0
  1 10  1  0  0  0
  4 11  1  0  0  0
M  END
> <minimizedAffinity>
-5.27685

$$$$
4QSU_TDR_A_1210


 11 11  0  0  0  0  0  0  0  0999 V2000
   21.1757   42.6553  -10.8023 N   0  0  0  0  0  0  0  0  0  0  0  0
   22.4493   42.9455  -11.1354 C   0  0  0  0  0  0  0  0  0  0  0  0
   23.0587   42.3665  -12.0643 O   0  0  0  0  0  0  0  0  0  0  0  0
   23.1349   43.9190  -10.5231 N   0  0  0  0  0  0  0  0  0  0  0  0
   22.5997   44.6392   -9.5226 C   0  0  0  0  0  0  0  0  0  0  0  0
   23.3581   45.4857   -9.0059 O   0  0  0  0  0  0  0  0  0  0  0  0
   21.1985   44.3459   -9.1043 C   0  0  0  0  0  0  0  0  0  0  0  0
   20.4938   45.1100   -8.0040 C   0  0  0  0  0  0  0  0  0  0  0  0
   20.5359   43.3136   -9.7963 C   0  0  0  0  0  0  0  0  0  0  0  0
   20.6973   41.9517  -11.2975 H   0  0  0  0  0  0  0  0  0  0  0  0
   24.0555   44.1123  -10.8136 H   0  0  0  0  0  0  0  0  0  0  0  0
  1  2  1  0  0  0
  1  9  1  0  0  0
  2  3  2  0  0  0
  2  4  1  0  0  0
  4  5  1  0  0  0
  5  6  2  0  0  0
  5  7  1  0  0  0
  7  8  1  0  0  0
  7  9  2  0  0  0
  1 10  1  0  0  0
  4 11  1  0  0  0
M  END
> <minimizedAffinity>
-5.21746

$$$$
4QSU_TDR_A_1210


 11 11  0  0  0  0  0  0  0  0999 V2000
   20.0201   43.9421   -8.9262 N   0  0  0  0  0  0  0  0  0  0  0  0
   20.5962   44.9675   -8.2676 C   0  0  0  0  0  0  0  0  0  0  0  0
   19.9955   45.6420   -7.3994 O   0  0  0  0  0  0  0  0  0  0  0  0
   21.8782   45.3007   -8.4626 N   0  0  0  0  0  0  0  0  0  0  0  0
   22.6512   44.6493   -9.3482 C   0  0  0  0  0  0  0  0  0  0  0  0
   23.8145   45.0865   -9.4681 O   0  0  0  0  0  0  0  0  0  0  0  0
   22.0564   43.5172  -10.1156 C   0  0  0  0  0  0  0  0  0  0  0  0
   22.8435   42.7045  -11.1211 C   0  0  0  0  0  0  0  0  0  0  0  0
   20.7051   43.2184   -9.8545 C   0  0  0  0  0  0  0  0  0  0  0  0
   19.0830   43.7112   -8.7318 H   0  0  0  0  0  0  0  0  0  0  0  0
   22.2648   46.0426   -7.9435 H   0  0  0  0  0  0  0  0  0  0  0  0
  1  2  1  0  0  0
  1  9  1  0  0  0
  2  3  2  0  0  0
  2  4  1  0  0  0
  4  5  1  0  0  0
  5  6  2  0  0  0
  5  7  1  0  0  0
  7  8  1  0  0  0
  7  9  2  0  0  0
  1 10  1  0  0  0
  4 11  1  0  0  0
M  END
> <minimizedAffinity>
-5.14260

$$$$
4QSU_TDR_A_1210


 11 11  0  0  0  0  0  0  0  0999 V2000
   23.0131   45.0884   -8.8795 N   0  0  0  0  0  0  0  0  0  0  0  0
   23.7711   44.6640   -9.9102 C   0  0  0  0  0  0  0  0  0  0  0  0
   24.9527   45.0411  -10.0866 O   0  0  0  0  0  0  0  0  0  0  0  0
   23.3229   43.7611  -10.7914 N   0  0  0  0  0  0  0  0  0  0  0  0
   22.0817   43.2518  -10.7127 C   0  0  0  0  0  0  0  0  0  0  0  0
   21.7710   42.4535  -11.6209 O   0  0  0  0  0  0  0  0  0  0  0  0
   21.1964   43.7018   -9.5999 C   0  0  0  0  0  0  0  0  0  0  0  0
   19.7899   43.1769   -9.4070 C   0  0  0  0  0  0  0  0  0  0  0  0
   21.7360   44.6480   -8.7070 C   0  0  0  0  0  0  0  0  0  0  0  0
   23.3912   45.7312   -8.2368 H   0  0  0  0  0  0  0  0  0  0  0  0
   23.9184   43.4623  -11.5162 H   0  0  0  0  0  0  0  0  0  0  0  0
  1  2  1  0  0  0
  1  9  1  0  0  0
  2  3  2  0  0  0
  2  4  1  0  0  0
  4  5  1  0  0  0
  5  6  2  0  0  0
  5  7  1  0  0  0
  7  8  1  0  0  0
  7  9  2  0  0  0
  1 10  1  0  0  0
  4 11  1  0  0  0
M  END
> <minimizedAffinity>
-5.04373

$$$$
4QSU_TDR_A_1210


 11 11  0  0  0  0  0  0  0  0999 V2000
   21.2524   42.6415  -10.7879 N   0  0  0  0  0  0  0  0  0  0  0  0
   20.9262   43.3689   -9.7009 C   0  0  0  0  0  0  0  0  0  0  0  0
   19.8465   43.2220   -9.0826 O   0  0  0  0  0  0  0  0  0  0  0  0
   21.7673   44.2679   -9.1745 N   0  0  0  0  0  0  0  0  0  0  0  0
   22.9705   44.5147   -9.7200 C   0  0  0  0  0  0  0  0  0  0  0  0
   23.6400   45.4075   -9.1603 O   0  0  0  0  0  0  0  0  0  0  0  0
   23.3726   43.7483  -10.9346 C   0  0  0  0  0  0  0  0  0  0  0  0
   24.7118   43.9333  -11.6154 C   0  0  0  0  0  0  0  0  0  0  0  0
   22.4411   42.8149  -11.4294 C   0  0  0  0  0  0  0  0  0  0  0  0
   20.6169   41.9697  -11.1257 H   0  0  0  0  0  0  0  0  0  0  0  0
   21.4972   44.7611   -8.3664 H   0  0  0  0  0  0  0  0  0  0  0  0
  1  2  1  0  0  0
  1  9  1  0  0  0
  2  3  2  0  0  0
  2  4  1  0  0  0
  4  5  1  0  0  0
  5  6  2  0  0  0
  5  7  1  0  0  0
  7  8  1  0  0  0
  7  9  2  0  0  0
  1 10  1  0  0  0
  4 11  1  0  0  0
M  END
> <minimizedAffinity>
-4.96617

$$$$
4QSU_TDR_A_1210


 11 11  0  0  0  0  0  0  0  0999 V2000
   23.2355   43.6039  -10.4751 N   0  0  0  0  0  0  0  0  0  0  0  0
   23.5741   44.6660   -9.7172 C   0  0  0  0  0  0  0  0  0  0  0  0
   24.7051   45.2028   -9.7643 O   0  0  0  0  0  0  0  0  0  0  0  0
   22.6968   45.2553   -8.8952 N   0  0  0  0  0  0  0  0  0  0  0  0
   21.4395   44.8004   -8.7593 C   0  0  0  0  0  0  0  0  0  0  0  0
   20.7355   45.4102   -7.9280 O   0  0  0  0  0  0  0  0  0  0  0  0
   21.0196   43.6165   -9.5634 C   0  0  0  0  0  0  0  0  0  0  0  0
   19.6228   43.0365   -9.5017 C   0  0  0  0  0  0  0  0  0  0  0  0
   21.9921   43.0520  -10.4114 C   0  0  0  0  0  0  0  0  0  0  0  0
   23.9021   43.2184  -11.0885 H   0  0  0  0  0  0  0  0  0  0  0  0
   22.9802   46.0427   -8.3766 H   0  0  0  0  0  0  0  0  0  0  0  0
  1  2  1  0  0  0
  1  9  1  0  0  0
  2  3  2  0  0  0
  2  4  1  0  0  0
  4  5  1  0  0  0
  5  6  2  0  0  0
  5  7  1  0  0  0
  7  8  1  0  0  0
  7  9  2  0  0  0
  1 10  1  0  0  0
  4 11  1  0  0  0
M  END
> <minimizedAffinity>
-4.81676

$$$$
4QSU_TDR_A_1210


 11 11  0  0  0  0  0  0  0  0999 V2000
   21.3470   42.6668  -10.6774 N   0  0  0  0  0  0  0  0  0  0  0  0
   20.4405   43.2757   -9.8870 C   0  0  0  0  0  0  0  0  0  0  0  0
   19.2758   42.8424   -9.7282 O   0  0  0  0  0  0  0  0  0  0  0  0
   20.7465   44.3649   -9.1710 N   0  0  0  0  0  0  0  0  0  0  0  0
   21.9658   44.9274   -9.2255 C   0  0  0  0  0  0  0  0  0  0  0  0
   22.1088   45.9646   -8.5454 O   0  0  0  0  0  0  0  0  0  0  0  0
   23.0004   44.3018  -10.0988 C   0  0  0  0  0  0  0  0  0  0  0  0
   24.4095   44.8417  -10.2173 C   0  0  0  0  0  0  0  0  0  0  0  0
   22.6105   43.1550  -10.8176 C   0  0  0  0  0  0  0  0  0  0  0  0
   21.0897   41.8508  -11.1643 H   0  0  0  0  0  0  0  0  0  0  0  0
   20.0600   44.7644   -8.5893 H   0  0  0  0  0  0  0  0  0  0  0  0
  1  2  1  0  0  0
  1  9  1  0  0  0
  2  3  2  0  0  0
  2  4  1  0  0  0
  4  5  1  0  0  0
  5  6  2  0  0  0
  5  7  1  0  0  0
  7  8  1  0  0  0
  7  9  2  0  0  0
  1 10  1  0  0  0
  4 11  1  0  0  0
M  END
> <minimizedAffinity>
-4.65037

$$$$
4QSU_TDR_A_1210


 11 11  0  0  0  0  0  0  0  0999 V2000
   22.8752   44.2826  -10.0211 N   0  0  0  0  0  0  0  0  0  0  0  0
   23.0202   43.4904  -11.1021 C   0  0  0  0  0  0  0  0  0  0  0  0
   22.1324   42.6944  -11.4865 O   0  0  0  0  0  0  0  0  0  0  0  0
   24.1129   43.5423  -11.8740 N   0  0  0  0  0  0  0  0  0  0  0  0
   25.1373   44.3662  -11.5949 C   0  0  0  0  0  0  0  0  0  0  0  0
   26.1156   44.2860  -12.3666 O   0  0  0  0  0  0  0  0  0  0  0  0
   25.0338   45.2518  -10.3993 C   0  0  0  0  0  0  0  0  0  0  0  0
   26.1197   46.2305  -10.0069 C   0  0  0  0  0  0  0  0  0  0  0  0
   23.8538   45.1486   -9.6374 C   0  0  0  0  0  0  0  0  0  0  0  0
   22.0431   44.2341   -9.4972 H   0  0  0  0  0  0  0  0  0  0  0  0
   24.1674   42.9615  -12.6671 H   0  0  0  0  0  0  0  0  0  0  0  0
  1  2  1  0  0  0
  1  9  1  0  0  0
  2  3  2  0  0  0
  2  4  1  0  0  0
  4  5  1  0  0  0
  5  6  2  0  0  0
  5  7  1  0  0  0
  7  8  1  0  0  0
  7  9  2  0  0  0
  1 10  1  0  0  0
  4 11  1  0  0  0
M  END
> <minimizedAffinity>
-4.06390

$$$$
