3R4M_WOE_A_501


 18 19  0  0  0  0  0  0  0  0999 V2000
   54.7724   34.5380   85.9402 C   0  0  0  0  0  0  0  0  0  0  0  0
   54.5264   35.8870   85.7187 C   0  0  0  0  0  0  0  0  0  0  0  0
   54.8658   36.4312   84.4840 C   0  0  0  0  0  0  0  0  0  0  0  0
   54.5820   38.1077   84.1704 Cl  0  0  0  0  0  0  0  0  0  0  0  0
   55.4131   35.6889   83.5285 N   0  0  0  0  0  0  0  0  0  0  0  0
   55.6253   34.4063   83.7967 C   0  0  0  0  0  0  0  0  0  0  0  0
   56.1847   33.6518   82.8198 N   0  0  0  0  0  0  0  0  0  0  0  0
   55.3345   33.8049   84.9429 N   0  0  0  0  0  0  0  0  0  0  0  0
   56.4157   34.0598   81.9541 H   0  0  0  0  0  0  0  0  0  0  0  0
   56.3602   32.6957   82.9758 H   0  0  0  0  0  0  0  0  0  0  0  0
   55.3638   33.8037   88.2408 C   0  0  0  0  0  0  0  0  0  0  0  0
   55.0275   33.1986   89.4473 C   0  0  0  0  0  0  0  0  0  0  0  0
   53.7539   32.6723   89.6359 C   0  0  0  0  0  0  0  0  0  0  0  0
   52.8179   32.7503   88.6107 C   0  0  0  0  0  0  0  0  0  0  0  0
   53.1641   33.3577   87.4087 C   0  0  0  0  0  0  0  0  0  0  0  0
   54.4385   33.8838   87.2317 C   0  0  0  0  0  0  0  0  0  0  0  0
   57.4909   34.0664   89.1355 C   0  0  0  0  0  0  0  0  0  0  0  0
   56.6245   34.3286   88.0404 O   0  0  0  0  0  0  0  0  0  0  0  0
 17 18  1  0  0  0
 18 11  1  0  0  0
 11 12  1  0  0  0
 11 16  2  0  0  0
 12 13  2  0  0  0
 13 14  1  0  0  0
 14 15  2  0  0  0
 15 16  1  0  0  0
 16  1  1  0  0  0
  1  2  2  0  0  0
  1  8  1  0  0  0
  2  3  1  0  0  0
  3  4  1  0  0  0
  3  5  2  0  0  0
  5  6  1  0  0  0
  6  7  1  0  0  0
  6  8  2  0  0  0
  7  9  1  0  0  0
  7 10  1  0  0  0
M  END
> <minimizedAffinity>
-7.35503

$$$$
3R4M_WOE_A_501


 18 19  0  0  0  0  0  0  0  0999 V2000
   55.0280   35.5749   86.3009 C   0  0  0  0  0  0  0  0  0  0  0  0
   54.0446   34.8401   86.9508 C   0  0  0  0  0  0  0  0  0  0  0  0
   53.6427   33.6293   86.3956 C   0  0  0  0  0  0  0  0  0  0  0  0
   52.4167   32.6874   87.1700 Cl  0  0  0  0  0  0  0  0  0  0  0  0
   54.1793   33.1732   85.2698 N   0  0  0  0  0  0  0  0  0  0  0  0
   55.1145   33.9179   84.6927 C   0  0  0  0  0  0  0  0  0  0  0  0
   55.6594   33.4500   83.5435 N   0  0  0  0  0  0  0  0  0  0  0  0
   55.5572   35.0820   85.1499 N   0  0  0  0  0  0  0  0  0  0  0  0
   55.3587   32.5900   83.1705 H   0  0  0  0  0  0  0  0  0  0  0  0
   56.3561   33.9702   83.0816 H   0  0  0  0  0  0  0  0  0  0  0  0
   56.3160   36.9312   87.9388 C   0  0  0  0  0  0  0  0  0  0  0  0
   56.7674   38.1591   88.4116 C   0  0  0  0  0  0  0  0  0  0  0  0
   56.4040   39.3354   87.7644 C   0  0  0  0  0  0  0  0  0  0  0  0
   55.5834   39.2792   86.6433 C   0  0  0  0  0  0  0  0  0  0  0  0
   55.1381   38.0466   86.1786 C   0  0  0  0  0  0  0  0  0  0  0  0
   55.5101   36.8767   86.8305 C   0  0  0  0  0  0  0  0  0  0  0  0
   57.4713   35.9915   89.7210 C   0  0  0  0  0  0  0  0  0  0  0  0
   56.6682   35.7568   88.5727 O   0  0  0  0  0  0  0  0  0  0  0  0
 17 18  1  0  0  0
 18 11  1  0  0  0
 11 12  1  0  0  0
 11 16  2  0  0  0
 12 13  2  0  0  0
 13 14  1  0  0  0
 14 15  2  0  0  0
 15 16  1  0  0  0
 16  1  1  0  0  0
  1  2  2  0  0  0
  1  8  1  0  0  0
  2  3  1  0  0  0
  3  4  1  0  0  0
  3  5  2  0  0  0
  5  6  1  0  0  0
  6  7  1  0  0  0
  6  8  2  0  0  0
  7  9  1  0  0  0
  7 10  1  0  0  0
M  END
> <minimizedAffinity>
-6.87664

$$$$
3R4M_WOE_A_501


 18 19  0  0  0  0  0  0  0  0999 V2000
   55.0130   35.2709   87.3565 C   0  0  0  0  0  0  0  0  0  0  0  0
   53.9061   34.7149   87.9850 C   0  0  0  0  0  0  0  0  0  0  0  0
   54.1140   33.7840   88.9979 C   0  0  0  0  0  0  0  0  0  0  0  0
   52.7628   33.0635   89.8010 Cl  0  0  0  0  0  0  0  0  0  0  0  0
   55.3383   33.4257   89.3669 N   0  0  0  0  0  0  0  0  0  0  0  0
   56.3580   33.9897   88.7309 C   0  0  0  0  0  0  0  0  0  0  0  0
   57.6062   33.6213   89.1091 N   0  0  0  0  0  0  0  0  0  0  0  0
   56.2532   34.8832   87.7558 N   0  0  0  0  0  0  0  0  0  0  0  0
   57.7276   32.9609   89.8290 H   0  0  0  0  0  0  0  0  0  0  0  0
   58.3915   34.0142   88.6639 H   0  0  0  0  0  0  0  0  0  0  0  0
   54.7988   35.8773   84.9549 C   0  0  0  0  0  0  0  0  0  0  0  0
   54.6553   36.8282   83.9498 C   0  0  0  0  0  0  0  0  0  0  0  0
   54.5871   38.1802   84.2693 C   0  0  0  0  0  0  0  0  0  0  0  0
   54.6670   38.5783   85.5992 C   0  0  0  0  0  0  0  0  0  0  0  0
   54.8099   37.6196   86.5962 C   0  0  0  0  0  0  0  0  0  0  0  0
   54.8733   36.2708   86.2665 C   0  0  0  0  0  0  0  0  0  0  0  0
   55.7130   34.2819   83.5361 C   0  0  0  0  0  0  0  0  0  0  0  0
   54.8690   34.5327   84.6511 O   0  0  0  0  0  0  0  0  0  0  0  0
 17 18  1  0  0  0
 18 11  1  0  0  0
 11 12  1  0  0  0
 11 16  2  0  0  0
 12 13  2  0  0  0
 13 14  1  0  0  0
 14 15  2  0  0  0
 15 16  1  0  0  0
 16  1  1  0  0  0
  1  2  2  0  0  0
  1  8  1  0  0  0
  2  3  1  0  0  0
  3  4  1  0  0  0
  3  5  2  0  0  0
  5  6  1  0  0  0
  6  7  1  0  0  0
  6  8  2  0  0  0
  7  9  1  0  0  0
  7 10  1  0  0  0
M  END
> <minimizedAffinity>
-6.79301

$$$$
3R4M_WOE_A_501


 18 19  0  0  0  0  0  0  0  0999 V2000
   55.0059   35.5329   86.3163 C   0  0  0  0  0  0  0  0  0  0  0  0
   54.0233   34.7803   86.9468 C   0  0  0  0  0  0  0  0  0  0  0  0
   53.6449   33.5688   86.3767 C   0  0  0  0  0  0  0  0  0  0  0  0
   52.4207   32.6051   87.1266 Cl  0  0  0  0  0  0  0  0  0  0  0  0
   54.2028   33.1286   85.2549 N   0  0  0  0  0  0  0  0  0  0  0  0
   55.1361   33.8898   84.6967 C   0  0  0  0  0  0  0  0  0  0  0  0
   55.7029   33.4382   83.5515 N   0  0  0  0  0  0  0  0  0  0  0  0
   55.5573   35.0559   85.1689 N   0  0  0  0  0  0  0  0  0  0  0  0
   55.4186   32.5773   83.1678 H   0  0  0  0  0  0  0  0  0  0  0  0
   56.3990   33.9709   83.1034 H   0  0  0  0  0  0  0  0  0  0  0  0
   55.5915   37.9345   86.0510 C   0  0  0  0  0  0  0  0  0  0  0  0
   56.0093   39.1495   86.5841 C   0  0  0  0  0  0  0  0  0  0  0  0
   56.2995   39.2565   87.9402 C   0  0  0  0  0  0  0  0  0  0  0  0
   56.1736   38.1415   88.7613 C   0  0  0  0  0  0  0  0  0  0  0  0
   55.7547   36.9318   88.2184 C   0  0  0  0  0  0  0  0  0  0  0  0
   55.4637   36.8364   86.8626 C   0  0  0  0  0  0  0  0  0  0  0  0
   54.1211   38.5207   84.3514 C   0  0  0  0  0  0  0  0  0  0  0  0
   55.3017   37.8147   84.7068 O   0  0  0  0  0  0  0  0  0  0  0  0
 17 18  1  0  0  0
 18 11  1  0  0  0
 11 12  1  0  0  0
 11 16  2  0  0  0
 12 13  2  0  0  0
 13 14  1  0  0  0
 14 15  2  0  0  0
 15 16  1  0  0  0
 16  1  1  0  0  0
  1  2  2  0  0  0
  1  8  1  0  0  0
  2  3  1  0  0  0
  3  4  1  0  0  0
  3  5  2  0  0  0
  5  6  1  0  0  0
  6  7  1  0  0  0
  6  8  2  0  0  0
  7  9  1  0  0  0
  7 10  1  0  0  0
M  END
> <minimizedAffinity>
-6.74642

$$$$
3R4M_WOE_A_501


 18 19  0  0  0  0  0  0  0  0999 V2000
   54.7910   35.0761   87.2030 C   0  0  0  0  0  0  0  0  0  0  0  0
   55.9274   34.7475   87.9311 C   0  0  0  0  0  0  0  0  0  0  0  0
   55.8287   33.7643   88.9106 C   0  0  0  0  0  0  0  0  0  0  0  0
   57.2182   33.3305   89.8437 Cl  0  0  0  0  0  0  0  0  0  0  0  0
   54.6798   33.1444   89.1543 N   0  0  0  0  0  0  0  0  0  0  0  0
   53.6272   33.4997   88.4277 C   0  0  0  0  0  0  0  0  0  0  0  0
   52.4561   32.8659   88.6796 N   0  0  0  0  0  0  0  0  0  0  0  0
   53.6297   34.4246   87.4766 N   0  0  0  0  0  0  0  0  0  0  0  0
   52.4116   32.1730   89.3775 H   0  0  0  0  0  0  0  0  0  0  0  0
   51.6499   33.0984   88.1646 H   0  0  0  0  0  0  0  0  0  0  0  0
   54.8994   35.7673   84.8172 C   0  0  0  0  0  0  0  0  0  0  0  0
   54.9083   36.7546   83.8373 C   0  0  0  0  0  0  0  0  0  0  0  0
   54.8333   38.0967   84.1946 C   0  0  0  0  0  0  0  0  0  0  0  0
   54.7529   38.4483   85.5375 C   0  0  0  0  0  0  0  0  0  0  0  0
   54.7441   37.4536   86.5090 C   0  0  0  0  0  0  0  0  0  0  0  0
   54.8158   36.1151   86.1412 C   0  0  0  0  0  0  0  0  0  0  0  0
   55.7877   34.2200   83.3304 C   0  0  0  0  0  0  0  0  0  0  0  0
   54.9747   34.4320   84.4761 O   0  0  0  0  0  0  0  0  0  0  0  0
 17 18  1  0  0  0
 18 11  1  0  0  0
 11 12  1  0  0  0
 11 16  2  0  0  0
 12 13  2  0  0  0
 13 14  1  0  0  0
 14 15  2  0  0  0
 15 16  1  0  0  0
 16  1  1  0  0  0
  1  2  2  0  0  0
  1  8  1  0  0  0
  2  3  1  0  0  0
  3  4  1  0  0  0
  3  5  2  0  0  0
  5  6  1  0  0  0
  6  7  1  0  0  0
  6  8  2  0  0  0
  7  9  1  0  0  0
  7 10  1  0  0  0
M  END
> <minimizedAffinity>
-6.72856

$$$$
3R4M_WOE_A_501


 18 19  0  0  0  0  0  0  0  0999 V2000
   54.8981   34.8647   86.1307 C   0  0  0  0  0  0  0  0  0  0  0  0
   55.3293   34.2718   84.9509 C   0  0  0  0  0  0  0  0  0  0  0  0
   55.6464   35.0910   83.8719 C   0  0  0  0  0  0  0  0  0  0  0  0
   56.1805   34.3923   82.3832 Cl  0  0  0  0  0  0  0  0  0  0  0  0
   55.5446   36.4125   83.9540 N   0  0  0  0  0  0  0  0  0  0  0  0
   55.1273   36.9231   85.1061 C   0  0  0  0  0  0  0  0  0  0  0  0
   55.0236   38.2720   85.1863 N   0  0  0  0  0  0  0  0  0  0  0  0
   54.8034   36.2198   86.1833 N   0  0  0  0  0  0  0  0  0  0  0  0
   55.2544   38.8306   84.4092 H   0  0  0  0  0  0  0  0  0  0  0  0
   54.7176   38.6934   86.0218 H   0  0  0  0  0  0  0  0  0  0  0  0
   55.4665   33.8010   88.3048 C   0  0  0  0  0  0  0  0  0  0  0  0
   55.1087   33.0546   89.4227 C   0  0  0  0  0  0  0  0  0  0  0  0
   53.8131   32.5657   89.5532 C   0  0  0  0  0  0  0  0  0  0  0  0
   52.8765   32.8235   88.5584 C   0  0  0  0  0  0  0  0  0  0  0  0
   53.2444   33.5711   87.4452 C   0  0  0  0  0  0  0  0  0  0  0  0
   54.5408   34.0582   87.3262 C   0  0  0  0  0  0  0  0  0  0  0  0
   57.0732   35.2364   89.1722 C   0  0  0  0  0  0  0  0  0  0  0  0
   56.7491   34.2907   88.1627 O   0  0  0  0  0  0  0  0  0  0  0  0
 17 18  1  0  0  0
 18 11  1  0  0  0
 11 12  1  0  0  0
 11 16  2  0  0  0
 12 13  2  0  0  0
 13 14  1  0  0  0
 14 15  2  0  0  0
 15 16  1  0  0  0
 16  1  1  0  0  0
  1  2  2  0  0  0
  1  8  1  0  0  0
  2  3  1  0  0  0
  3  4  1  0  0  0
  3  5  2  0  0  0
  5  6  1  0  0  0
  6  7  1  0  0  0
  6  8  2  0  0  0
  7  9  1  0  0  0
  7 10  1  0  0  0
M  END
> <minimizedAffinity>
-6.57474

$$$$
3R4M_WOE_A_501


 18 19  0  0  0  0  0  0  0  0999 V2000
   55.1384   34.7260   85.8911 C   0  0  0  0  0  0  0  0  0  0  0  0
   54.7740   36.0438   85.6460 C   0  0  0  0  0  0  0  0  0  0  0  0
   54.8923   36.5368   84.3503 C   0  0  0  0  0  0  0  0  0  0  0  0
   54.4555   38.1736   84.0046 Cl  0  0  0  0  0  0  0  0  0  0  0  0
   55.3415   35.7753   83.3594 N   0  0  0  0  0  0  0  0  0  0  0  0
   55.6750   34.5243   83.6526 C   0  0  0  0  0  0  0  0  0  0  0  0
   56.1339   33.7502   82.6394 N   0  0  0  0  0  0  0  0  0  0  0  0
   55.5956   33.9722   84.8564 N   0  0  0  0  0  0  0  0  0  0  0  0
   56.2081   34.1217   81.7307 H   0  0  0  0  0  0  0  0  0  0  0  0
   56.3931   32.8162   82.8119 H   0  0  0  0  0  0  0  0  0  0  0  0
   53.8747   33.5504   87.6806 C   0  0  0  0  0  0  0  0  0  0  0  0
   53.8077   32.9835   88.9491 C   0  0  0  0  0  0  0  0  0  0  0  0
   54.9209   32.9988   89.7828 C   0  0  0  0  0  0  0  0  0  0  0  0
   56.1017   33.5873   89.3440 C   0  0  0  0  0  0  0  0  0  0  0  0
   56.1583   34.1508   88.0740 C   0  0  0  0  0  0  0  0  0  0  0  0
   55.0412   34.1269   87.2472 C   0  0  0  0  0  0  0  0  0  0  0  0
   52.5163   32.2489   86.3187 C   0  0  0  0  0  0  0  0  0  0  0  0
   52.7769   33.5430   86.8441 O   0  0  0  0  0  0  0  0  0  0  0  0
 17 18  1  0  0  0
 18 11  1  0  0  0
 11 12  1  0  0  0
 11 16  2  0  0  0
 12 13  2  0  0  0
 13 14  1  0  0  0
 14 15  2  0  0  0
 15 16  1  0  0  0
 16  1  1  0  0  0
  1  2  2  0  0  0
  1  8  1  0  0  0
  2  3  1  0  0  0
  3  4  1  0  0  0
  3  5  2  0  0  0
  5  6  1  0  0  0
  6  7  1  0  0  0
  6  8  2  0  0  0
  7  9  1  0  0  0
  7 10  1  0  0  0
M  END
> <minimizedAffinity>
-6.52351

$$$$
3R4M_WOE_A_501


 18 19  0  0  0  0  0  0  0  0999 V2000
   55.2912   35.3820   87.3921 C   0  0  0  0  0  0  0  0  0  0  0  0
   54.2782   34.6287   87.9715 C   0  0  0  0  0  0  0  0  0  0  0  0
   54.6096   33.7382   88.9879 C   0  0  0  0  0  0  0  0  0  0  0  0
   53.3791   32.7770   89.7308 Cl  0  0  0  0  0  0  0  0  0  0  0  0
   55.8626   33.6014   89.4057 N   0  0  0  0  0  0  0  0  0  0  0  0
   56.7888   34.3470   88.8153 C   0  0  0  0  0  0  0  0  0  0  0  0
   58.0667   34.2044   89.2434 N   0  0  0  0  0  0  0  0  0  0  0  0
   56.5640   35.2188   87.8408 N   0  0  0  0  0  0  0  0  0  0  0  0
   58.2761   33.5679   89.9647 H   0  0  0  0  0  0  0  0  0  0  0  0
   58.7856   34.7373   88.8331 H   0  0  0  0  0  0  0  0  0  0  0  0
   54.8124   37.6814   86.5768 C   0  0  0  0  0  0  0  0  0  0  0  0
   54.5703   38.5776   85.5408 C   0  0  0  0  0  0  0  0  0  0  0  0
   54.5346   38.1323   84.2236 C   0  0  0  0  0  0  0  0  0  0  0  0
   54.7385   36.7852   83.9464 C   0  0  0  0  0  0  0  0  0  0  0  0
   54.9803   35.8978   84.9893 C   0  0  0  0  0  0  0  0  0  0  0  0
   55.0175   36.3536   86.3019 C   0  0  0  0  0  0  0  0  0  0  0  0
   55.8623   39.0828   88.1026 C   0  0  0  0  0  0  0  0  0  0  0  0
   54.8490   38.1102   87.8883 O   0  0  0  0  0  0  0  0  0  0  0  0
 17 18  1  0  0  0
 18 11  1  0  0  0
 11 12  1  0  0  0
 11 16  2  0  0  0
 12 13  2  0  0  0
 13 14  1  0  0  0
 14 15  2  0  0  0
 15 16  1  0  0  0
 16  1  1  0  0  0
  1  2  2  0  0  0
  1  8  1  0  0  0
  2  3  1  0  0  0
  3  4  1  0  0  0
  3  5  2  0  0  0
  5  6  1  0  0  0
  6  7  1  0  0  0
  6  8  2  0  0  0
  7  9  1  0  0  0
  7 10  1  0  0  0
M  END
> <minimizedAffinity>
-6.42623

$$$$
3R4M_WOE_A_501


 18 19  0  0  0  0  0  0  0  0999 V2000
   55.0379   35.7809   86.5733 C   0  0  0  0  0  0  0  0  0  0  0  0
   55.5814   35.5073   85.3246 C   0  0  0  0  0  0  0  0  0  0  0  0
   55.0871   34.4226   84.6070 C   0  0  0  0  0  0  0  0  0  0  0  0
   55.7410   34.0441   83.0518 Cl  0  0  0  0  0  0  0  0  0  0  0  0
   54.1165   33.6572   85.0925 N   0  0  0  0  0  0  0  0  0  0  0  0
   53.6358   33.9661   86.2907 C   0  0  0  0  0  0  0  0  0  0  0  0
   52.6460   33.1825   86.7837 N   0  0  0  0  0  0  0  0  0  0  0  0
   54.0464   34.9785   87.0433 N   0  0  0  0  0  0  0  0  0  0  0  0
   52.3126   32.4207   86.2566 H   0  0  0  0  0  0  0  0  0  0  0  0
   52.2605   33.3750   87.6688 H   0  0  0  0  0  0  0  0  0  0  0  0
   56.4078   36.7262   88.4201 C   0  0  0  0  0  0  0  0  0  0  0  0
   56.8495   37.8083   89.1745 C   0  0  0  0  0  0  0  0  0  0  0  0
   56.3856   39.0903   88.8987 C   0  0  0  0  0  0  0  0  0  0  0  0
   55.4744   39.2856   87.8668 C   0  0  0  0  0  0  0  0  0  0  0  0
   55.0396   38.1972   87.1186 C   0  0  0  0  0  0  0  0  0  0  0  0
   55.5122   36.9207   87.3999 C   0  0  0  0  0  0  0  0  0  0  0  0
   56.4799   35.0074   89.9804 C   0  0  0  0  0  0  0  0  0  0  0  0
   56.8593   35.4490   88.6844 O   0  0  0  0  0  0  0  0  0  0  0  0
 17 18  1  0  0  0
 18 11  1  0  0  0
 11 12  1  0  0  0
 11 16  2  0  0  0
 12 13  2  0  0  0
 13 14  1  0  0  0
 14 15  2  0  0  0
 15 16  1  0  0  0
 16  1  1  0  0  0
  1  2  2  0  0  0
  1  8  1  0  0  0
  2  3  1  0  0  0
  3  4  1  0  0  0
  3  5  2  0  0  0
  5  6  1  0  0  0
  6  7  1  0  0  0
  6  8  2  0  0  0
  7  9  1  0  0  0
  7 10  1  0  0  0
M  END
> <minimizedAffinity>
-6.37351

$$$$
3R4M_WOE_A_501


 18 19  0  0  0  0  0  0  0  0999 V2000
   55.2370   35.5243   87.8402 C   0  0  0  0  0  0  0  0  0  0  0  0
   56.4912   35.2726   88.3815 C   0  0  0  0  0  0  0  0  0  0  0  0
   56.5760   34.4878   89.5273 C   0  0  0  0  0  0  0  0  0  0  0  0
   58.1177   34.1563   90.2363 Cl  0  0  0  0  0  0  0  0  0  0  0  0
   55.4900   33.9830   90.1012 N   0  0  0  0  0  0  0  0  0  0  0  0
   54.3186   34.2569   89.5401 C   0  0  0  0  0  0  0  0  0  0  0  0
   53.2122   33.7411   90.1287 N   0  0  0  0  0  0  0  0  0  0  0  0
   54.1444   34.9945   88.4512 N   0  0  0  0  0  0  0  0  0  0  0  0
   53.2980   33.1882   90.9388 H   0  0  0  0  0  0  0  0  0  0  0  0
   52.3227   33.9194   89.7464 H   0  0  0  0  0  0  0  0  0  0  0  0
   55.1049   35.7855   85.3713 C   0  0  0  0  0  0  0  0  0  0  0  0
   54.9281   36.5764   84.2407 C   0  0  0  0  0  0  0  0  0  0  0  0
   54.7100   37.9441   84.3698 C   0  0  0  0  0  0  0  0  0  0  0  0
   54.6731   38.5189   85.6353 C   0  0  0  0  0  0  0  0  0  0  0  0
   54.8506   37.7192   86.7590 C   0  0  0  0  0  0  0  0  0  0  0  0
   55.0642   36.3529   86.6191 C   0  0  0  0  0  0  0  0  0  0  0  0
   55.5927   34.0425   83.9159 C   0  0  0  0  0  0  0  0  0  0  0  0
   55.3234   34.4274   85.2568 O   0  0  0  0  0  0  0  0  0  0  0  0
 17 18  1  0  0  0
 18 11  1  0  0  0
 11 12  1  0  0  0
 11 16  2  0  0  0
 12 13  2  0  0  0
 13 14  1  0  0  0
 14 15  2  0  0  0
 15 16  1  0  0  0
 16  1  1  0  0  0
  1  2  2  0  0  0
  1  8  1  0  0  0
  2  3  1  0  0  0
  3  4  1  0  0  0
  3  5  2  0  0  0
  5  6  1  0  0  0
  6  7  1  0  0  0
  6  8  2  0  0  0
  7  9  1  0  0  0
  7 10  1  0  0  0
M  END
> <minimizedAffinity>
-6.35679

$$$$
