3CZ1_NBB_A_122


 15 15  0  0  0  0  0  0  0  0999 V2000
   21.0461   -6.3801   -5.4351 O   0  0  0  0  0  0  0  0  0  0  0  0
   19.9910   -5.7990   -6.2232 S   0  0  0  0  0  0  0  0  0  0  0  0
   18.7119   -6.3968   -5.9467 O   0  0  0  0  0  0  0  0  0  0  0  0
   19.9932   -4.2432   -5.8604 C   0  0  0  0  0  0  0  0  0  0  0  0
   19.3996   -3.7883   -4.6807 C   0  0  0  0  0  0  0  0  0  0  0  0
   19.4143   -2.4381   -4.3426 C   0  0  0  0  0  0  0  0  0  0  0  0
   20.0316   -1.5279   -5.1954 C   0  0  0  0  0  0  0  0  0  0  0  0
   20.6326   -1.9800   -6.3654 C   0  0  0  0  0  0  0  0  0  0  0  0
   20.6219   -3.3317   -6.6971 C   0  0  0  0  0  0  0  0  0  0  0  0
   20.2920   -5.9908   -7.7814 N   0  0  0  0  0  0  0  0  0  0  0  0
   20.8240   -5.1729   -8.0786 H   0  0  0  0  0  0  0  0  0  0  0  0
   21.0160   -7.1487   -8.2534 C   0  0  0  0  0  0  0  0  0  0  0  0
   20.8476   -7.3526   -9.7451 C   0  0  0  0  0  0  0  0  0  0  0  0
   21.6735   -8.5411  -10.2229 C   0  0  0  0  0  0  0  0  0  0  0  0
   23.1235   -8.1432  -10.3959 C   0  0  0  0  0  0  0  0  0  0  0  0
  1  2  2  0  0  0
  2  3  2  0  0  0
  2 10  1  0  0  0
  2  4  1  0  0  0
 10 12  1  0  0  0
 12 13  1  0  0  0
 13 14  1  0  0  0
 14 15  1  0  0  0
  4  5  2  0  0  0
  4  9  1  0  0  0
  5  6  1  0  0  0
  6  7  2  0  0  0
  7  8  1  0  0  0
  8  9  2  0  0  0
 10 11  1  0  0  0
M  END
> <minimizedAffinity>
-6.41949

$$$$
3CZ1_NBB_A_122


 15 15  0  0  0  0  0  0  0  0999 V2000
   20.1567   -5.0803   -8.0923 O   0  0  0  0  0  0  0  0  0  0  0  0
   20.3923   -5.3443   -6.6970 S   0  0  0  0  0  0  0  0  0  0  0  0
   21.3970   -6.3542   -6.4956 O   0  0  0  0  0  0  0  0  0  0  0  0
   20.8422   -3.9468   -6.0672 C   0  0  0  0  0  0  0  0  0  0  0  0
   21.7475   -3.9054   -5.0044 C   0  0  0  0  0  0  0  0  0  0  0  0
   22.1642   -2.6932   -4.4616 C   0  0  0  0  0  0  0  0  0  0  0  0
   21.6696   -1.5039   -4.9883 C   0  0  0  0  0  0  0  0  0  0  0  0
   20.7763   -1.5423   -6.0536 C   0  0  0  0  0  0  0  0  0  0  0  0
   20.3669   -2.7559   -6.5983 C   0  0  0  0  0  0  0  0  0  0  0  0
   19.0482   -5.8466   -5.9925 N   0  0  0  0  0  0  0  0  0  0  0  0
   18.8288   -6.7566   -6.3977 H   0  0  0  0  0  0  0  0  0  0  0  0
   18.9853   -6.0069   -4.5579 C   0  0  0  0  0  0  0  0  0  0  0  0
   18.0023   -5.0449   -3.9230 C   0  0  0  0  0  0  0  0  0  0  0  0
   18.7114   -4.1211   -2.9397 C   0  0  0  0  0  0  0  0  0  0  0  0
   18.4361   -2.6725   -3.2811 C   0  0  0  0  0  0  0  0  0  0  0  0
  1  2  2  0  0  0
  2  3  2  0  0  0
  2 10  1  0  0  0
  2  4  1  0  0  0
 10 12  1  0  0  0
 12 13  1  0  0  0
 13 14  1  0  0  0
 14 15  1  0  0  0
  4  5  2  0  0  0
  4  9  1  0  0  0
  5  6  1  0  0  0
  6  7  2  0  0  0
  7  8  1  0  0  0
  8  9  2  0  0  0
 10 11  1  0  0  0
M  END
> <minimizedAffinity>
-6.30217

$$$$
3CZ1_NBB_A_122


 15 15  0  0  0  0  0  0  0  0999 V2000
   22.4918   -3.1761   -3.9690 O   0  0  0  0  0  0  0  0  0  0  0  0
   21.1273   -2.9016   -4.3366 S   0  0  0  0  0  0  0  0  0  0  0  0
   20.9105   -1.5089   -4.6251 O   0  0  0  0  0  0  0  0  0  0  0  0
   20.8385   -3.8099   -5.6187 C   0  0  0  0  0  0  0  0  0  0  0  0
   20.6750   -3.2289   -6.8783 C   0  0  0  0  0  0  0  0  0  0  0  0
   20.4449   -4.0111   -8.0065 C   0  0  0  0  0  0  0  0  0  0  0  0
   20.3775   -5.3949   -7.8751 C   0  0  0  0  0  0  0  0  0  0  0  0
   20.5507   -5.9763   -6.6236 C   0  0  0  0  0  0  0  0  0  0  0  0
   20.7873   -5.1916   -5.4987 C   0  0  0  0  0  0  0  0  0  0  0  0
   20.1392   -3.3130   -3.1494 N   0  0  0  0  0  0  0  0  0  0  0  0
   20.6028   -3.0503   -2.2796 H   0  0  0  0  0  0  0  0  0  0  0  0
   18.8014   -2.7710   -3.0848 C   0  0  0  0  0  0  0  0  0  0  0  0
   17.8396   -3.7172   -2.3957 C   0  0  0  0  0  0  0  0  0  0  0  0
   18.4037   -5.1329   -2.3681 C   0  0  0  0  0  0  0  0  0  0  0  0
   18.0998   -5.7984   -1.0432 C   0  0  0  0  0  0  0  0  0  0  0  0
  1  2  2  0  0  0
  2  3  2  0  0  0
  2 10  1  0  0  0
  2  4  1  0  0  0
 10 12  1  0  0  0
 12 13  1  0  0  0
 13 14  1  0  0  0
 14 15  1  0  0  0
  4  5  2  0  0  0
  4  9  1  0  0  0
  5  6  1  0  0  0
  6  7  2  0  0  0
  7  8  1  0  0  0
  8  9  2  0  0  0
 10 11  1  0  0  0
M  END
> <minimizedAffinity>
-6.25514

$$$$
3CZ1_NBB_A_122


 15 15  0  0  0  0  0  0  0  0999 V2000
   17.1036   -4.8115   -4.2379 O   0  0  0  0  0  0  0  0  0  0  0  0
   18.4793   -4.9378   -3.8332 S   0  0  0  0  0  0  0  0  0  0  0  0
   18.9959   -6.2606   -4.0644 O   0  0  0  0  0  0  0  0  0  0  0  0
   19.2778   -3.8476   -4.6851 C   0  0  0  0  0  0  0  0  0  0  0  0
   20.2704   -4.2386   -5.5867 C   0  0  0  0  0  0  0  0  0  0  0  0
   20.9579   -3.2999   -6.3508 C   0  0  0  0  0  0  0  0  0  0  0  0
   20.6493   -1.9500   -6.2129 C   0  0  0  0  0  0  0  0  0  0  0  0
   19.6539   -1.5592   -5.3236 C   0  0  0  0  0  0  0  0  0  0  0  0
   18.9638   -2.5010   -4.5660 C   0  0  0  0  0  0  0  0  0  0  0  0
   18.6302   -4.6214   -2.2736 N   0  0  0  0  0  0  0  0  0  0  0  0
   18.0769   -3.7842   -2.0909 H   0  0  0  0  0  0  0  0  0  0  0  0
   18.2400   -5.5989   -1.2837 C   0  0  0  0  0  0  0  0  0  0  0  0
   16.7538   -5.5498   -0.9943 C   0  0  0  0  0  0  0  0  0  0  0  0
   16.3057   -4.1194   -0.7185 C   0  0  0  0  0  0  0  0  0  0  0  0
   15.0831   -3.7789   -1.5431 C   0  0  0  0  0  0  0  0  0  0  0  0
  1  2  2  0  0  0
  2  3  2  0  0  0
  2 10  1  0  0  0
  2  4  1  0  0  0
 10 12  1  0  0  0
 12 13  1  0  0  0
 13 14  1  0  0  0
 14 15  1  0  0  0
  4  5  2  0  0  0
  4  9  1  0  0  0
  5  6  1  0  0  0
  6  7  2  0  0  0
  7  8  1  0  0  0
  8  9  2  0  0  0
 10 11  1  0  0  0
M  END
> <minimizedAffinity>
-6.25178

$$$$
3CZ1_NBB_A_122


 15 15  0  0  0  0  0  0  0  0999 V2000
   18.8035   -2.7346   -4.7226 O   0  0  0  0  0  0  0  0  0  0  0  0
   19.4150   -3.5145   -3.6785 S   0  0  0  0  0  0  0  0  0  0  0  0
   20.4723   -2.8006   -3.0134 O   0  0  0  0  0  0  0  0  0  0  0  0
   18.2334   -3.8746   -2.6656 C   0  0  0  0  0  0  0  0  0  0  0  0
   18.2429   -5.0823   -1.9639 C   0  0  0  0  0  0  0  0  0  0  0  0
   17.2307   -5.3979   -1.0621 C   0  0  0  0  0  0  0  0  0  0  0  0
   16.1930   -4.4935   -0.8573 C   0  0  0  0  0  0  0  0  0  0  0  0
   16.1870   -3.2857   -1.5469 C   0  0  0  0  0  0  0  0  0  0  0  0
   17.2043   -2.9704   -2.4429 C   0  0  0  0  0  0  0  0  0  0  0  0
   20.0380   -4.8575   -4.2814 N   0  0  0  0  0  0  0  0  0  0  0  0
   19.2525   -5.4323   -4.5864 H   0  0  0  0  0  0  0  0  0  0  0  0
   20.9663   -4.8058   -5.3874 C   0  0  0  0  0  0  0  0  0  0  0  0
   20.6618   -5.8597   -6.4322 C   0  0  0  0  0  0  0  0  0  0  0  0
   20.3016   -5.2103   -7.7632 C   0  0  0  0  0  0  0  0  0  0  0  0
   20.5017   -3.7117   -7.6928 C   0  0  0  0  0  0  0  0  0  0  0  0
  1  2  2  0  0  0
  2  3  2  0  0  0
  2 10  1  0  0  0
  2  4  1  0  0  0
 10 12  1  0  0  0
 12 13  1  0  0  0
 13 14  1  0  0  0
 14 15  1  0  0  0
  4  5  2  0  0  0
  4  9  1  0  0  0
  5  6  1  0  0  0
  6  7  2  0  0  0
  7  8  1  0  0  0
  8  9  2  0  0  0
 10 11  1  0  0  0
M  END
> <minimizedAffinity>
-6.17706

$$$$
3CZ1_NBB_A_122


 15 15  0  0  0  0  0  0  0  0999 V2000
   15.9976   -7.0043   -0.9692 O   0  0  0  0  0  0  0  0  0  0  0  0
   17.0564   -6.0500   -1.1701 S   0  0  0  0  0  0  0  0  0  0  0  0
   18.1610   -6.2650   -0.2737 O   0  0  0  0  0  0  0  0  0  0  0  0
   17.5052   -6.2232   -2.6935 C   0  0  0  0  0  0  0  0  0  0  0  0
   18.4825   -5.3915   -3.2449 C   0  0  0  0  0  0  0  0  0  0  0  0
   18.8979   -5.5468   -4.5643 C   0  0  0  0  0  0  0  0  0  0  0  0
   18.3289   -6.5483   -5.3453 C   0  0  0  0  0  0  0  0  0  0  0  0
   17.3633   -7.3846   -4.7952 C   0  0  0  0  0  0  0  0  0  0  0  0
   16.9551   -7.2308   -3.4734 C   0  0  0  0  0  0  0  0  0  0  0  0
   16.5171   -4.5642   -0.9314 N   0  0  0  0  0  0  0  0  0  0  0  0
   17.2690   -3.9329   -1.2080 H   0  0  0  0  0  0  0  0  0  0  0  0
   15.3217   -4.1000   -1.5971 C   0  0  0  0  0  0  0  0  0  0  0  0
   15.5044   -2.7182   -2.1907 C   0  0  0  0  0  0  0  0  0  0  0  0
   15.9142   -2.8111   -3.6558 C   0  0  0  0  0  0  0  0  0  0  0  0
   15.1379   -3.9065   -4.3544 C   0  0  0  0  0  0  0  0  0  0  0  0
  1  2  2  0  0  0
  2  3  2  0  0  0
  2 10  1  0  0  0
  2  4  1  0  0  0
 10 12  1  0  0  0
 12 13  1  0  0  0
 13 14  1  0  0  0
 14 15  1  0  0  0
  4  5  2  0  0  0
  4  9  1  0  0  0
  5  6  1  0  0  0
  6  7  2  0  0  0
  7  8  1  0  0  0
  8  9  2  0  0  0
 10 11  1  0  0  0
M  END
> <minimizedAffinity>
-6.06003

$$$$
3CZ1_NBB_A_122


 15 15  0  0  0  0  0  0  0  0999 V2000
   17.6200   -2.4054   -2.5618 O   0  0  0  0  0  0  0  0  0  0  0  0
   18.3610   -3.4753   -3.1769 S   0  0  0  0  0  0  0  0  0  0  0  0
   17.5548   -4.2422   -4.0890 O   0  0  0  0  0  0  0  0  0  0  0  0
   19.5801   -2.7722   -3.9328 C   0  0  0  0  0  0  0  0  0  0  0  0
   20.8739   -2.8411   -3.4110 C   0  0  0  0  0  0  0  0  0  0  0  0
   21.9480   -2.2515   -4.0716 C   0  0  0  0  0  0  0  0  0  0  0  0
   21.7269   -1.5829   -5.2720 C   0  0  0  0  0  0  0  0  0  0  0  0
   20.4412   -1.5222   -5.7988 C   0  0  0  0  0  0  0  0  0  0  0  0
   19.3706   -2.1186   -5.1391 C   0  0  0  0  0  0  0  0  0  0  0  0
   18.9208   -4.4751   -2.0623 N   0  0  0  0  0  0  0  0  0  0  0  0
   18.8903   -3.9708   -1.1762 H   0  0  0  0  0  0  0  0  0  0  0  0
   18.2844   -5.7519   -1.8333 C   0  0  0  0  0  0  0  0  0  0  0  0
   17.2334   -5.6738   -0.7451 C   0  0  0  0  0  0  0  0  0  0  0  0
   15.8364   -5.8355   -1.3328 C   0  0  0  0  0  0  0  0  0  0  0  0
   15.4087   -7.2867   -1.2907 C   0  0  0  0  0  0  0  0  0  0  0  0
  1  2  2  0  0  0
  2  3  2  0  0  0
  2 10  1  0  0  0
  2  4  1  0  0  0
 10 12  1  0  0  0
 12 13  1  0  0  0
 13 14  1  0  0  0
 14 15  1  0  0  0
  4  5  2  0  0  0
  4  9  1  0  0  0
  5  6  1  0  0  0
  6  7  2  0  0  0
  7  8  1  0  0  0
  8  9  2  0  0  0
 10 11  1  0  0  0
M  END
> <minimizedAffinity>
-6.04288

$$$$
3CZ1_NBB_A_122


 15 15  0  0  0  0  0  0  0  0999 V2000
   22.3719   -2.9256   -3.9461 O   0  0  0  0  0  0  0  0  0  0  0  0
   20.9811   -2.8331   -4.3058 S   0  0  0  0  0  0  0  0  0  0  0  0
   20.5773   -1.4789   -4.5763 O   0  0  0  0  0  0  0  0  0  0  0  0
   20.8111   -3.7568   -5.5980 C   0  0  0  0  0  0  0  0  0  0  0  0
   20.9367   -5.1444   -5.5005 C   0  0  0  0  0  0  0  0  0  0  0  0
   20.7689   -5.9616   -6.6148 C   0  0  0  0  0  0  0  0  0  0  0  0
   20.4707   -5.3844   -7.8455 C   0  0  0  0  0  0  0  0  0  0  0  0
   20.3346   -4.0037   -7.9428 C   0  0  0  0  0  0  0  0  0  0  0  0
   20.4964   -3.1901   -6.8252 C   0  0  0  0  0  0  0  0  0  0  0  0
   20.0633   -3.3879   -3.1205 N   0  0  0  0  0  0  0  0  0  0  0  0
   20.1029   -2.6957   -2.3723 H   0  0  0  0  0  0  0  0  0  0  0  0
   18.6650   -3.6739   -3.3454 C   0  0  0  0  0  0  0  0  0  0  0  0
   17.7699   -2.5678   -2.8252 C   0  0  0  0  0  0  0  0  0  0  0  0
   16.5234   -2.4313   -3.6917 C   0  0  0  0  0  0  0  0  0  0  0  0
   15.7471   -1.1892   -3.3108 C   0  0  0  0  0  0  0  0  0  0  0  0
  1  2  2  0  0  0
  2  3  2  0  0  0
  2 10  1  0  0  0
  2  4  1  0  0  0
 10 12  1  0  0  0
 12 13  1  0  0  0
 13 14  1  0  0  0
 14 15  1  0  0  0
  4  5  2  0  0  0
  4  9  1  0  0  0
  5  6  1  0  0  0
  6  7  2  0  0  0
  7  8  1  0  0  0
  8  9  2  0  0  0
 10 11  1  0  0  0
M  END
> <minimizedAffinity>
-5.95453

$$$$
3CZ1_NBB_A_122


 15 15  0  0  0  0  0  0  0  0999 V2000
   17.9720   -3.5916   -4.4906 O   0  0  0  0  0  0  0  0  0  0  0  0
   18.8689   -4.2486   -3.5762 S   0  0  0  0  0  0  0  0  0  0  0  0
   19.6448   -3.3124   -2.8072 O   0  0  0  0  0  0  0  0  0  0  0  0
   17.9395   -5.1423   -2.6331 C   0  0  0  0  0  0  0  0  0  0  0  0
   16.7735   -5.7266   -3.1331 C   0  0  0  0  0  0  0  0  0  0  0  0
   15.9671   -6.5255   -2.3274 C   0  0  0  0  0  0  0  0  0  0  0  0
   16.3306   -6.7446   -1.0021 C   0  0  0  0  0  0  0  0  0  0  0  0
   17.4968   -6.1725   -0.5051 C   0  0  0  0  0  0  0  0  0  0  0  0
   18.3044   -5.3797   -1.3153 C   0  0  0  0  0  0  0  0  0  0  0  0
   19.8879   -5.1857   -4.3753 N   0  0  0  0  0  0  0  0  0  0  0  0
   19.5788   -6.1463   -4.2266 H   0  0  0  0  0  0  0  0  0  0  0  0
   20.0712   -5.0263   -5.7996 C   0  0  0  0  0  0  0  0  0  0  0  0
   21.1579   -4.0211   -6.1218 C   0  0  0  0  0  0  0  0  0  0  0  0
   20.5719   -2.7997   -6.8204 C   0  0  0  0  0  0  0  0  0  0  0  0
   20.5993   -1.5989   -5.8997 C   0  0  0  0  0  0  0  0  0  0  0  0
  1  2  2  0  0  0
  2  3  2  0  0  0
  2 10  1  0  0  0
  2  4  1  0  0  0
 10 12  1  0  0  0
 12 13  1  0  0  0
 13 14  1  0  0  0
 14 15  1  0  0  0
  4  5  2  0  0  0
  4  9  1  0  0  0
  5  6  1  0  0  0
  6  7  2  0  0  0
  7  8  1  0  0  0
  8  9  2  0  0  0
 10 11  1  0  0  0
M  END
> <minimizedAffinity>
-5.92988

$$$$
3CZ1_NBB_A_122


 15 15  0  0  0  0  0  0  0  0999 V2000
   18.0987   -2.9615   -4.3684 O   0  0  0  0  0  0  0  0  0  0  0  0
   18.9432   -3.8319   -3.5930 S   0  0  0  0  0  0  0  0  0  0  0  0
   19.9124   -3.1029   -2.8189 O   0  0  0  0  0  0  0  0  0  0  0  0
   17.9540   -4.6596   -2.6504 C   0  0  0  0  0  0  0  0  0  0  0  0
   18.4416   -5.3389   -1.5316 C   0  0  0  0  0  0  0  0  0  0  0  0
   17.5867   -6.0452   -0.6903 C   0  0  0  0  0  0  0  0  0  0  0  0
   16.2238   -6.0735   -0.9701 C   0  0  0  0  0  0  0  0  0  0  0  0
   15.7346   -5.3890   -2.0776 C   0  0  0  0  0  0  0  0  0  0  0  0
   16.5913   -4.6781   -2.9130 C   0  0  0  0  0  0  0  0  0  0  0  0
   19.7388   -4.8326   -4.5525 N   0  0  0  0  0  0  0  0  0  0  0  0
   20.7090   -4.8293   -4.2377 H   0  0  0  0  0  0  0  0  0  0  0  0
   19.3439   -6.2183   -4.6599 C   0  0  0  0  0  0  0  0  0  0  0  0
   18.4865   -6.4696   -5.8834 C   0  0  0  0  0  0  0  0  0  0  0  0
   17.2313   -7.2497   -5.5105 C   0  0  0  0  0  0  0  0  0  0  0  0
   17.4512   -8.0265   -4.2303 C   0  0  0  0  0  0  0  0  0  0  0  0
  1  2  2  0  0  0
  2  3  2  0  0  0
  2 10  1  0  0  0
  2  4  1  0  0  0
 10 12  1  0  0  0
 12 13  1  0  0  0
 13 14  1  0  0  0
 14 15  1  0  0  0
  4  5  2  0  0  0
  4  9  1  0  0  0
  5  6  1  0  0  0
  6  7  2  0  0  0
  7  8  1  0  0  0
  8  9  2  0  0  0
 10 11  1  0  0  0
M  END
> <minimizedAffinity>
-5.92000

$$$$
