3MYQ_E27_A_266


 31 34  0  0  0  0  0  0  0  0999 V2000
   -2.9025    4.6566   11.2950 C   0  0  0  0  0  0  0  0  0  0  0  0
   -3.6994    5.9868   11.5995 C   0  0  0  0  0  0  0  0  0  0  0  0
   -3.4273    6.7617   12.5781 O   0  0  0  0  0  0  0  0  0  0  0  0
   -4.9112    6.4962   10.7775 C   0  0  0  0  0  0  0  0  0  0  0  0
   -4.8959    6.5116    9.3978 C   0  0  0  0  0  0  0  0  0  0  0  0
   -5.9451    6.9824    8.6881 C   0  0  0  0  0  0  0  0  0  0  0  0
   -7.0175    7.5263    9.3575 C   0  0  0  0  0  0  0  0  0  0  0  0
   -7.0686    7.5704   10.7455 C   0  0  0  0  0  0  0  0  0  0  0  0
   -6.0004    7.0743   11.4133 C   0  0  0  0  0  0  0  0  0  0  0  0
   -8.4098    8.2216    8.5701 Cl  0  0  0  0  0  0  0  0  0  0  0  0
   -5.9139    7.0722    6.9105 S   0  0  0  0  0  0  0  0  0  0  0  0
   -6.1483    8.5090    6.6061 O   0  0  0  0  0  0  0  0  0  0  0  0
   -6.9279    6.1367    6.4229 O   0  0  0  0  0  0  0  0  0  0  0  0
   -4.3997    6.6628    6.4748 N   0  0  0  0  0  0  0  0  0  0  0  0
   -3.7424    7.3503    6.8431 H   0  0  0  0  0  0  0  0  0  0  0  0
   -4.3332    6.6399    5.4572 H   0  0  0  0  0  0  0  0  0  0  0  0
   -3.9107    3.2016   10.9180 S   0  0  0  0  0  0  0  0  0  0  0  0
   -4.8529    3.1449   13.4906 N   0  0  0  0  0  0  0  0  0  0  0  0
   -4.2780    2.4666   12.4868 C   0  0  0  0  0  0  0  0  0  0  0  0
   -4.0298    1.2006   12.8451 N   0  0  0  0  0  0  0  0  0  0  0  0
   -4.4570    1.0849   14.0900 C   0  0  0  0  0  0  0  0  0  0  0  0
   -4.4484   -0.0053   14.9458 C   0  0  0  0  0  0  0  0  0  0  0  0
   -4.9534    0.1631   16.1712 N   0  0  0  0  0  0  0  0  0  0  0  0
   -5.4584    1.3317   16.5903 C   0  0  0  0  0  0  0  0  0  0  0  0
   -5.4831    2.4468   15.7551 C   0  0  0  0  0  0  0  0  0  0  0  0
   -4.9635    2.2866   14.4856 C   0  0  0  0  0  0  0  0  0  0  0  0
   -5.9705    1.4431   17.8778 C   0  0  0  0  0  0  0  0  0  0  0  0
   -6.4948    2.6538   18.3182 C   0  0  0  0  0  0  0  0  0  0  0  0
   -6.5142    3.7604   17.4747 C   0  0  0  0  0  0  0  0  0  0  0  0
   -6.0052    3.6592   16.1843 C   0  0  0  0  0  0  0  0  0  0  0  0
   -5.1343    4.0883   13.4857 H   0  0  0  0  0  0  0  0  0  0  0  0
 19 18  1  0  0  0
 18 26  1  0  0  0
 17 19  1  0  0  0
 20 19  2  0  0  0
 20 21  1  0  0  0
 22 21  2  0  0  0
 21 26  1  0  0  0
 22 23  1  0  0  0
 23 24  2  0  0  0
 24 25  1  0  0  0
 24 27  1  0  0  0
 26 25  2  0  0  0
 25 30  1  0  0  0
 27 28  2  0  0  0
 28 29  1  0  0  0
 30 29  2  0  0  0
 17  1  1  0  0  0
  1  2  1  0  0  0
  2  3  2  0  0  0
  2  4  1  0  0  0
  4  9  2  0  0  0
  4  5  1  0  0  0
  5  6  2  0  0  0
  6  7  1  0  0  0
  6 11  1  0  0  0
  8  7  2  0  0  0
  7 10  1  0  0  0
  9  8  1  0  0  0
 14 11  1  0  0  0
 12 11  2  0  0  0
 11 13  2  0  0  0
 18 31  1  0  0  0
 14 15  1  0  0  0
 14 16  1  0  0  0
M  END
> <minimizedAffinity>
-9.41601

$$$$
3MYQ_E27_A_266


 31 34  0  0  0  0  0  0  0  0999 V2000
   -1.7132    1.7154   11.1109 C   0  0  0  0  0  0  0  0  0  0  0  0
   -1.6588    2.9020   10.0689 C   0  0  0  0  0  0  0  0  0  0  0  0
   -2.6867    3.5695    9.7082 O   0  0  0  0  0  0  0  0  0  0  0  0
   -0.3747    3.3798    9.3432 C   0  0  0  0  0  0  0  0  0  0  0  0
    0.7405    3.7951   10.0417 C   0  0  0  0  0  0  0  0  0  0  0  0
    1.8466    4.2360    9.4028 C   0  0  0  0  0  0  0  0  0  0  0  0
    1.8307    4.3432    8.0309 C   0  0  0  0  0  0  0  0  0  0  0  0
    0.7210    3.9741    7.2803 C   0  0  0  0  0  0  0  0  0  0  0  0
   -0.3583    3.5253    7.9635 C   0  0  0  0  0  0  0  0  0  0  0  0
    3.1633    4.9498    7.0831 Cl  0  0  0  0  0  0  0  0  0  0  0  0
    3.2675    4.8390   10.2895 S   0  0  0  0  0  0  0  0  0  0  0  0
    3.2133    6.3156   10.1198 O   0  0  0  0  0  0  0  0  0  0  0  0
    4.4363    4.1676    9.7202 O   0  0  0  0  0  0  0  0  0  0  0  0
    3.0063    4.4600   11.8511 N   0  0  0  0  0  0  0  0  0  0  0  0
    2.1820    4.9572   12.1883 H   0  0  0  0  0  0  0  0  0  0  0  0
    3.8176    4.7306   12.4069 H   0  0  0  0  0  0  0  0  0  0  0  0
   -3.3340    0.9451   11.3456 S   0  0  0  0  0  0  0  0  0  0  0  0
   -4.3823    1.3781   13.8403 N   0  0  0  0  0  0  0  0  0  0  0  0
   -4.1180    1.8837   12.6266 C   0  0  0  0  0  0  0  0  0  0  0  0
   -4.5290    3.1548   12.5378 N   0  0  0  0  0  0  0  0  0  0  0  0
   -5.0565    3.4491   13.7130 C   0  0  0  0  0  0  0  0  0  0  0  0
   -5.6302    4.6243   14.1721 C   0  0  0  0  0  0  0  0  0  0  0  0
   -6.0903    4.6422   15.4262 N   0  0  0  0  0  0  0  0  0  0  0  0
   -6.0157    3.5787   16.2385 C   0  0  0  0  0  0  0  0  0  0  0  0
   -5.4444    2.3826   15.8088 C   0  0  0  0  0  0  0  0  0  0  0  0
   -4.9652    2.3504   14.5139 C   0  0  0  0  0  0  0  0  0  0  0  0
   -6.5121    3.6607   17.5343 C   0  0  0  0  0  0  0  0  0  0  0  0
   -6.4381    2.5598   18.3811 C   0  0  0  0  0  0  0  0  0  0  0  0
   -5.8650    1.3707   17.9406 C   0  0  0  0  0  0  0  0  0  0  0  0
   -5.3645    1.2785   16.6463 C   0  0  0  0  0  0  0  0  0  0  0  0
   -4.1826    0.4692   14.1617 H   0  0  0  0  0  0  0  0  0  0  0  0
 19 18  1  0  0  0
 18 26  1  0  0  0
 17 19  1  0  0  0
 20 19  2  0  0  0
 20 21  1  0  0  0
 22 21  2  0  0  0
 21 26  1  0  0  0
 22 23  1  0  0  0
 23 24  2  0  0  0
 24 25  1  0  0  0
 24 27  1  0  0  0
 26 25  2  0  0  0
 25 30  1  0  0  0
 27 28  2  0  0  0
 28 29  1  0  0  0
 30 29  2  0  0  0
 17  1  1  0  0  0
  1  2  1  0  0  0
  2  3  2  0  0  0
  2  4  1  0  0  0
  4  9  2  0  0  0
  4  5  1  0  0  0
  5  6  2  0  0  0
  6  7  1  0  0  0
  6 11  1  0  0  0
  8  7  2  0  0  0
  7 10  1  0  0  0
  9  8  1  0  0  0
 14 11  1  0  0  0
 12 11  2  0  0  0
 11 13  2  0  0  0
 18 31  1  0  0  0
 14 15  1  0  0  0
 14 16  1  0  0  0
M  END
> <minimizedAffinity>
-9.28199

$$$$
3MYQ_E27_A_266


 31 34  0  0  0  0  0  0  0  0999 V2000
   -1.8773    0.6719   10.9719 C   0  0  0  0  0  0  0  0  0  0  0  0
   -1.3198    2.1474   11.0670 C   0  0  0  0  0  0  0  0  0  0  0  0
   -0.6768    2.5930   12.0771 O   0  0  0  0  0  0  0  0  0  0  0  0
   -1.5048    3.2318    9.9745 C   0  0  0  0  0  0  0  0  0  0  0  0
   -2.5745    4.1032    9.9923 C   0  0  0  0  0  0  0  0  0  0  0  0
   -2.7443    5.0282    9.0218 C   0  0  0  0  0  0  0  0  0  0  0  0
   -1.8737    5.0495    7.9562 C   0  0  0  0  0  0  0  0  0  0  0  0
   -0.8011    4.1703    7.8690 C   0  0  0  0  0  0  0  0  0  0  0  0
   -0.6639    3.2710    8.8717 C   0  0  0  0  0  0  0  0  0  0  0  0
   -2.0072    6.1478    6.6078 Cl  0  0  0  0  0  0  0  0  0  0  0  0
   -4.1547    6.1138    8.9935 S   0  0  0  0  0  0  0  0  0  0  0  0
   -4.7915    5.8626    7.6731 O   0  0  0  0  0  0  0  0  0  0  0  0
   -3.6490    7.4685    9.2175 O   0  0  0  0  0  0  0  0  0  0  0  0
   -5.1378    5.5907   10.1810 N   0  0  0  0  0  0  0  0  0  0  0  0
   -5.4555    4.6452    9.9676 H   0  0  0  0  0  0  0  0  0  0  0  0
   -5.9436    6.2118   10.2537 H   0  0  0  0  0  0  0  0  0  0  0  0
   -3.6793    0.5109   10.9224 S   0  0  0  0  0  0  0  0  0  0  0  0
   -4.5105    0.9702   13.4929 N   0  0  0  0  0  0  0  0  0  0  0  0
   -4.2743    1.4842   12.2770 C   0  0  0  0  0  0  0  0  0  0  0  0
   -4.5539    2.7932   12.2482 N   0  0  0  0  0  0  0  0  0  0  0  0
   -4.9693    3.1029   13.4636 C   0  0  0  0  0  0  0  0  0  0  0  0
   -5.3845    4.3160   13.9900 C   0  0  0  0  0  0  0  0  0  0  0  0
   -5.7571    4.3414   15.2727 N   0  0  0  0  0  0  0  0  0  0  0  0
   -5.7421    3.2505   16.0513 C   0  0  0  0  0  0  0  0  0  0  0  0
   -5.3295    2.0161   15.5539 C   0  0  0  0  0  0  0  0  0  0  0  0
   -4.9422    1.9757   14.2289 C   0  0  0  0  0  0  0  0  0  0  0  0
   -6.1412    3.3421   17.3797 C   0  0  0  0  0  0  0  0  0  0  0  0
   -6.1285    2.2130   18.1918 C   0  0  0  0  0  0  0  0  0  0  0  0
   -5.7141    0.9856   17.6837 C   0  0  0  0  0  0  0  0  0  0  0  0
   -5.3119    0.8835   16.3562 C   0  0  0  0  0  0  0  0  0  0  0  0
   -4.3872    0.0358   13.7772 H   0  0  0  0  0  0  0  0  0  0  0  0
 19 18  1  0  0  0
 18 26  1  0  0  0
 17 19  1  0  0  0
 20 19  2  0  0  0
 20 21  1  0  0  0
 22 21  2  0  0  0
 21 26  1  0  0  0
 22 23  1  0  0  0
 23 24  2  0  0  0
 24 25  1  0  0  0
 24 27  1  0  0  0
 26 25  2  0  0  0
 25 30  1  0  0  0
 27 28  2  0  0  0
 28 29  1  0  0  0
 30 29  2  0  0  0
 17  1  1  0  0  0
  1  2  1  0  0  0
  2  3  2  0  0  0
  2  4  1  0  0  0
  4  9  2  0  0  0
  4  5  1  0  0  0
  5  6  2  0  0  0
  6  7  1  0  0  0
  6 11  1  0  0  0
  8  7  2  0  0  0
  7 10  1  0  0  0
  9  8  1  0  0  0
 14 11  1  0  0  0
 12 11  2  0  0  0
 11 13  2  0  0  0
 18 31  1  0  0  0
 14 15  1  0  0  0
 14 16  1  0  0  0
M  END
> <minimizedAffinity>
-9.24304

$$$$
3MYQ_E27_A_266


 31 34  0  0  0  0  0  0  0  0999 V2000
   -1.7192    1.6263   11.0551 C   0  0  0  0  0  0  0  0  0  0  0  0
   -1.6217    3.0635   10.4055 C   0  0  0  0  0  0  0  0  0  0  0  0
   -2.3595    3.4493    9.4365 O   0  0  0  0  0  0  0  0  0  0  0  0
   -0.6143    4.1598   10.8379 C   0  0  0  0  0  0  0  0  0  0  0  0
    0.7053    4.1305   10.4359 C   0  0  0  0  0  0  0  0  0  0  0  0
    1.5844    5.0745   10.8388 C   0  0  0  0  0  0  0  0  0  0  0  0
    1.1708    6.0400   11.7279 C   0  0  0  0  0  0  0  0  0  0  0  0
   -0.1372    6.0942   12.1943 C   0  0  0  0  0  0  0  0  0  0  0  0
   -0.9848    5.1357   11.7519 C   0  0  0  0  0  0  0  0  0  0  0  0
    2.2108    7.2816   12.3751 Cl  0  0  0  0  0  0  0  0  0  0  0  0
    3.3045    5.0130   10.3847 S   0  0  0  0  0  0  0  0  0  0  0  0
    4.0169    4.7374   11.6608 O   0  0  0  0  0  0  0  0  0  0  0  0
    3.6153    6.2870    9.7355 O   0  0  0  0  0  0  0  0  0  0  0  0
    3.4526    3.7325    9.3903 N   0  0  0  0  0  0  0  0  0  0  0  0
    3.2237    2.8787    9.8991 H   0  0  0  0  0  0  0  0  0  0  0  0
    4.4117    3.6773    9.0476 H   0  0  0  0  0  0  0  0  0  0  0  0
   -3.3891    0.9498   11.2271 S   0  0  0  0  0  0  0  0  0  0  0  0
   -4.3966    1.3542   13.7432 N   0  0  0  0  0  0  0  0  0  0  0  0
   -4.1384    1.8780   12.5360 C   0  0  0  0  0  0  0  0  0  0  0  0
   -4.5263    3.1581   12.4768 N   0  0  0  0  0  0  0  0  0  0  0  0
   -5.0329    3.4395   13.6643 C   0  0  0  0  0  0  0  0  0  0  0  0
   -5.5781    4.6163   14.1532 C   0  0  0  0  0  0  0  0  0  0  0  0
   -6.0215    4.6186   15.4134 N   0  0  0  0  0  0  0  0  0  0  0  0
   -5.9567    3.5385   16.2043 C   0  0  0  0  0  0  0  0  0  0  0  0
   -5.4138    2.3404   15.7444 C   0  0  0  0  0  0  0  0  0  0  0  0
   -4.9521    2.3241   14.4429 C   0  0  0  0  0  0  0  0  0  0  0  0
   -6.4347    3.6048   17.5079 C   0  0  0  0  0  0  0  0  0  0  0  0
   -6.3707    2.4866   18.3326 C   0  0  0  0  0  0  0  0  0  0  0  0
   -5.8261    1.2956   17.8619 C   0  0  0  0  0  0  0  0  0  0  0  0
   -5.3442    1.2190   16.5596 C   0  0  0  0  0  0  0  0  0  0  0  0
   -4.2101    0.4357   14.0446 H   0  0  0  0  0  0  0  0  0  0  0  0
 19 18  1  0  0  0
 18 26  1  0  0  0
 17 19  1  0  0  0
 20 19  2  0  0  0
 20 21  1  0  0  0
 22 21  2  0  0  0
 21 26  1  0  0  0
 22 23  1  0  0  0
 23 24  2  0  0  0
 24 25  1  0  0  0
 24 27  1  0  0  0
 26 25  2  0  0  0
 25 30  1  0  0  0
 27 28  2  0  0  0
 28 29  1  0  0  0
 30 29  2  0  0  0
 17  1  1  0  0  0
  1  2  1  0  0  0
  2  3  2  0  0  0
  2  4  1  0  0  0
  4  9  2  0  0  0
  4  5  1  0  0  0
  5  6  2  0  0  0
  6  7  1  0  0  0
  6 11  1  0  0  0
  8  7  2  0  0  0
  7 10  1  0  0  0
  9  8  1  0  0  0
 14 11  1  0  0  0
 12 11  2  0  0  0
 11 13  2  0  0  0
 18 31  1  0  0  0
 14 15  1  0  0  0
 14 16  1  0  0  0
M  END
> <minimizedAffinity>
-9.10046

$$$$
3MYQ_E27_A_266


 31 34  0  0  0  0  0  0  0  0999 V2000
   -3.8456    2.9932   11.1422 C   0  0  0  0  0  0  0  0  0  0  0  0
   -4.0159    2.1762   12.4840 C   0  0  0  0  0  0  0  0  0  0  0  0
   -3.6121    0.9731   12.6315 O   0  0  0  0  0  0  0  0  0  0  0  0
   -4.7091    2.7146   13.7620 C   0  0  0  0  0  0  0  0  0  0  0  0
   -5.0847    1.8755   14.7909 C   0  0  0  0  0  0  0  0  0  0  0  0
   -5.7131    2.3480   15.8900 C   0  0  0  0  0  0  0  0  0  0  0  0
   -6.0514    3.6806   15.9481 C   0  0  0  0  0  0  0  0  0  0  0  0
   -5.7306    4.5630   14.9235 C   0  0  0  0  0  0  0  0  0  0  0  0
   -5.0890    4.0462   13.8492 C   0  0  0  0  0  0  0  0  0  0  0  0
   -6.9130    4.4127   17.2762 Cl  0  0  0  0  0  0  0  0  0  0  0  0
   -6.2647    1.2698   17.1947 S   0  0  0  0  0  0  0  0  0  0  0  0
   -7.7172    1.0836   16.9347 O   0  0  0  0  0  0  0  0  0  0  0  0
   -5.9145    1.9215   18.4571 O   0  0  0  0  0  0  0  0  0  0  0  0
   -5.4843   -0.1398   16.9614 N   0  0  0  0  0  0  0  0  0  0  0  0
   -5.7698   -0.5428   16.0689 H   0  0  0  0  0  0  0  0  0  0  0  0
   -5.7164   -0.7858   17.7159 H   0  0  0  0  0  0  0  0  0  0  0  0
   -2.1734    3.0354   10.4510 S   0  0  0  0  0  0  0  0  0  0  0  0
   -1.8987    5.1406   12.1836 N   0  0  0  0  0  0  0  0  0  0  0  0
   -1.4392    4.5148   11.0902 C   0  0  0  0  0  0  0  0  0  0  0  0
   -0.3857    5.1615   10.5759 N   0  0  0  0  0  0  0  0  0  0  0  0
   -0.1824    6.2058   11.3594 C   0  0  0  0  0  0  0  0  0  0  0  0
    0.7740    7.2068   11.2932 C   0  0  0  0  0  0  0  0  0  0  0  0
    0.7460    8.1555   12.2335 N   0  0  0  0  0  0  0  0  0  0  0  0
   -0.1611    8.1686   13.2200 C   0  0  0  0  0  0  0  0  0  0  0  0
   -1.1354    7.1770   13.3161 C   0  0  0  0  0  0  0  0  0  0  0  0
   -1.1182    6.1904   12.3499 C   0  0  0  0  0  0  0  0  0  0  0  0
   -0.1371    9.1835   14.1696 C   0  0  0  0  0  0  0  0  0  0  0  0
   -1.0768    9.2025   15.1949 C   0  0  0  0  0  0  0  0  0  0  0  0
   -2.0448    8.2064   15.2805 C   0  0  0  0  0  0  0  0  0  0  0  0
   -2.0769    7.1860   14.3360 C   0  0  0  0  0  0  0  0  0  0  0  0
   -2.6610    4.8720   12.7458 H   0  0  0  0  0  0  0  0  0  0  0  0
 19 18  1  0  0  0
 18 26  1  0  0  0
 17 19  1  0  0  0
 20 19  2  0  0  0
 20 21  1  0  0  0
 22 21  2  0  0  0
 21 26  1  0  0  0
 22 23  1  0  0  0
 23 24  2  0  0  0
 24 25  1  0  0  0
 24 27  1  0  0  0
 26 25  2  0  0  0
 25 30  1  0  0  0
 27 28  2  0  0  0
 28 29  1  0  0  0
 30 29  2  0  0  0
 17  1  1  0  0  0
  1  2  1  0  0  0
  2  3  2  0  0  0
  2  4  1  0  0  0
  4  9  2  0  0  0
  4  5  1  0  0  0
  5  6  2  0  0  0
  6  7  1  0  0  0
  6 11  1  0  0  0
  8  7  2  0  0  0
  7 10  1  0  0  0
  9  8  1  0  0  0
 14 11  1  0  0  0
 12 11  2  0  0  0
 11 13  2  0  0  0
 18 31  1  0  0  0
 14 15  1  0  0  0
 14 16  1  0  0  0
M  END
> <minimizedAffinity>
-9.07002

$$$$
3MYQ_E27_A_266


 31 34  0  0  0  0  0  0  0  0999 V2000
   -3.5410    5.2922   11.5586 C   0  0  0  0  0  0  0  0  0  0  0  0
   -4.8749    6.1242   11.7180 C   0  0  0  0  0  0  0  0  0  0  0  0
   -5.7225    5.9227   12.6524 O   0  0  0  0  0  0  0  0  0  0  0  0
   -5.3290    7.2541   10.7584 C   0  0  0  0  0  0  0  0  0  0  0  0
   -6.2334    7.0221    9.7424 C   0  0  0  0  0  0  0  0  0  0  0  0
   -6.6041    8.0054    8.8927 C   0  0  0  0  0  0  0  0  0  0  0  0
   -6.0096    9.2420    8.9980 C   0  0  0  0  0  0  0  0  0  0  0  0
   -5.0654    9.5196    9.9791 C   0  0  0  0  0  0  0  0  0  0  0  0
   -4.7363    8.5073   10.8157 C   0  0  0  0  0  0  0  0  0  0  0  0
   -6.3486   10.5824    7.9347 Cl  0  0  0  0  0  0  0  0  0  0  0  0
   -7.7168    7.7060    7.5359 S   0  0  0  0  0  0  0  0  0  0  0  0
   -8.1053    6.2778    7.6811 O   0  0  0  0  0  0  0  0  0  0  0  0
   -6.9943    8.0559    6.3125 O   0  0  0  0  0  0  0  0  0  0  0  0
   -9.0118    8.6536    7.8103 N   0  0  0  0  0  0  0  0  0  0  0  0
   -9.4706    8.3609    8.6730 H   0  0  0  0  0  0  0  0  0  0  0  0
   -9.6657    8.5695    7.0320 H   0  0  0  0  0  0  0  0  0  0  0  0
   -3.7444    3.5609   11.0720 S   0  0  0  0  0  0  0  0  0  0  0  0
   -4.7268    3.3020   13.6171 N   0  0  0  0  0  0  0  0  0  0  0  0
   -4.1550    2.6998   12.5641 C   0  0  0  0  0  0  0  0  0  0  0  0
   -3.9461    1.4006   12.8111 N   0  0  0  0  0  0  0  0  0  0  0  0
   -4.3951    1.1866   14.0352 C   0  0  0  0  0  0  0  0  0  0  0  0
   -4.4287    0.0248   14.7903 C   0  0  0  0  0  0  0  0  0  0  0  0
   -4.9475    0.0976   16.0192 N   0  0  0  0  0  0  0  0  0  0  0  0
   -5.4275    1.2380   16.5345 C   0  0  0  0  0  0  0  0  0  0  0  0
   -5.4098    2.4232   15.8020 C   0  0  0  0  0  0  0  0  0  0  0  0
   -4.8753    2.3620   14.5300 C   0  0  0  0  0  0  0  0  0  0  0  0
   -5.9559    1.2488   17.8202 C   0  0  0  0  0  0  0  0  0  0  0  0
   -6.4544    2.4297   18.3602 C   0  0  0  0  0  0  0  0  0  0  0  0
   -6.4314    3.6070   17.6187 C   0  0  0  0  0  0  0  0  0  0  0  0
   -5.9058    3.6068   16.3310 C   0  0  0  0  0  0  0  0  0  0  0  0
   -4.9828    4.2496   13.6929 H   0  0  0  0  0  0  0  0  0  0  0  0
 19 18  1  0  0  0
 18 26  1  0  0  0
 17 19  1  0  0  0
 20 19  2  0  0  0
 20 21  1  0  0  0
 22 21  2  0  0  0
 21 26  1  0  0  0
 22 23  1  0  0  0
 23 24  2  0  0  0
 24 25  1  0  0  0
 24 27  1  0  0  0
 26 25  2  0  0  0
 25 30  1  0  0  0
 27 28  2  0  0  0
 28 29  1  0  0  0
 30 29  2  0  0  0
 17  1  1  0  0  0
  1  2  1  0  0  0
  2  3  2  0  0  0
  2  4  1  0  0  0
  4  9  2  0  0  0
  4  5  1  0  0  0
  5  6  2  0  0  0
  6  7  1  0  0  0
  6 11  1  0  0  0
  8  7  2  0  0  0
  7 10  1  0  0  0
  9  8  1  0  0  0
 14 11  1  0  0  0
 12 11  2  0  0  0
 11 13  2  0  0  0
 18 31  1  0  0  0
 14 15  1  0  0  0
 14 16  1  0  0  0
M  END
> <minimizedAffinity>
-8.98333

$$$$
3MYQ_E27_A_266


 31 34  0  0  0  0  0  0  0  0999 V2000
   -1.5854    1.3581   11.1854 C   0  0  0  0  0  0  0  0  0  0  0  0
   -1.1315    2.6153   10.3426 C   0  0  0  0  0  0  0  0  0  0  0  0
   -1.2374    2.6858    9.0714 O   0  0  0  0  0  0  0  0  0  0  0  0
   -0.4844    3.8908   10.9410 C   0  0  0  0  0  0  0  0  0  0  0  0
   -1.2458    4.8911   11.5097 C   0  0  0  0  0  0  0  0  0  0  0  0
   -0.6772    6.0125   12.0049 C   0  0  0  0  0  0  0  0  0  0  0  0
    0.6806    6.1916   11.8701 C   0  0  0  0  0  0  0  0  0  0  0  0
    1.4899    5.2331   11.2722 C   0  0  0  0  0  0  0  0  0  0  0  0
    0.8770    4.1205   10.8039 C   0  0  0  0  0  0  0  0  0  0  0  0
    1.5367    7.6124   12.4091 Cl  0  0  0  0  0  0  0  0  0  0  0  0
   -1.6504    7.3416   12.6797 S   0  0  0  0  0  0  0  0  0  0  0  0
   -1.3773    8.4958   11.7825 O   0  0  0  0  0  0  0  0  0  0  0  0
   -1.2396    7.4991   14.0752 O   0  0  0  0  0  0  0  0  0  0  0  0
   -3.2026    6.8790   12.5154 N   0  0  0  0  0  0  0  0  0  0  0  0
   -3.4269    6.7871   11.5246 H   0  0  0  0  0  0  0  0  0  0  0  0
   -3.8125    7.5785   12.9386 H   0  0  0  0  0  0  0  0  0  0  0  0
   -3.3484    0.9551   11.1140 S   0  0  0  0  0  0  0  0  0  0  0  0
   -4.3584    1.3077   13.6369 N   0  0  0  0  0  0  0  0  0  0  0  0
   -4.0901    1.8589   12.4442 C   0  0  0  0  0  0  0  0  0  0  0  0
   -4.4621    3.1447   12.4167 N   0  0  0  0  0  0  0  0  0  0  0  0
   -4.9687    3.4021   13.6095 C   0  0  0  0  0  0  0  0  0  0  0  0
   -5.5008    4.5727   14.1269 C   0  0  0  0  0  0  0  0  0  0  0  0
   -5.9480    4.5484   15.3856 N   0  0  0  0  0  0  0  0  0  0  0  0
   -5.8988    3.4477   16.1488 C   0  0  0  0  0  0  0  0  0  0  0  0
   -5.3694    2.2551   15.6600 C   0  0  0  0  0  0  0  0  0  0  0  0
   -4.9040    2.2663   14.3597 C   0  0  0  0  0  0  0  0  0  0  0  0
   -6.3798    3.4867   17.4524 C   0  0  0  0  0  0  0  0  0  0  0  0
   -6.3321    2.3471   18.2485 C   0  0  0  0  0  0  0  0  0  0  0  0
   -5.8007    1.1619   17.7491 C   0  0  0  0  0  0  0  0  0  0  0  0
   -5.3159    1.1126   16.4464 C   0  0  0  0  0  0  0  0  0  0  0  0
   -4.1841    0.3796   13.9153 H   0  0  0  0  0  0  0  0  0  0  0  0
 19 18  1  0  0  0
 18 26  1  0  0  0
 17 19  1  0  0  0
 20 19  2  0  0  0
 20 21  1  0  0  0
 22 21  2  0  0  0
 21 26  1  0  0  0
 22 23  1  0  0  0
 23 24  2  0  0  0
 24 25  1  0  0  0
 24 27  1  0  0  0
 26 25  2  0  0  0
 25 30  1  0  0  0
 27 28  2  0  0  0
 28 29  1  0  0  0
 30 29  2  0  0  0
 17  1  1  0  0  0
  1  2  1  0  0  0
  2  3  2  0  0  0
  2  4  1  0  0  0
  4  9  2  0  0  0
  4  5  1  0  0  0
  5  6  2  0  0  0
  6  7  1  0  0  0
  6 11  1  0  0  0
  8  7  2  0  0  0
  7 10  1  0  0  0
  9  8  1  0  0  0
 14 11  1  0  0  0
 12 11  2  0  0  0
 11 13  2  0  0  0
 18 31  1  0  0  0
 14 15  1  0  0  0
 14 16  1  0  0  0
M  END
> <minimizedAffinity>
-8.94800

$$$$
3MYQ_E27_A_266


 31 34  0  0  0  0  0  0  0  0999 V2000
   -2.3876    4.5698   10.9515 C   0  0  0  0  0  0  0  0  0  0  0  0
   -3.9403    4.7399   10.7125 C   0  0  0  0  0  0  0  0  0  0  0  0
   -4.7683    3.7675   10.7468 O   0  0  0  0  0  0  0  0  0  0  0  0
   -4.6396    6.0840   10.3837 C   0  0  0  0  0  0  0  0  0  0  0  0
   -5.6151    6.1746    9.4122 C   0  0  0  0  0  0  0  0  0  0  0  0
   -6.2011    7.3547    9.1119 C   0  0  0  0  0  0  0  0  0  0  0  0
   -5.7611    8.4998    9.7357 C   0  0  0  0  0  0  0  0  0  0  0  0
   -4.7559    8.4713   10.6948 C   0  0  0  0  0  0  0  0  0  0  0  0
   -4.2088    7.2643   10.9721 C   0  0  0  0  0  0  0  0  0  0  0  0
   -6.3854   10.0943    9.4038 Cl  0  0  0  0  0  0  0  0  0  0  0  0
   -7.4117    7.5007    7.8150 S   0  0  0  0  0  0  0  0  0  0  0  0
   -8.6383    7.9840    8.5033 O   0  0  0  0  0  0  0  0  0  0  0  0
   -7.5064    6.1876    7.1764 O   0  0  0  0  0  0  0  0  0  0  0  0
   -6.8530    8.6607    6.8187 N   0  0  0  0  0  0  0  0  0  0  0  0
   -6.8104    9.5479    7.3200 H   0  0  0  0  0  0  0  0  0  0  0  0
   -7.4790    8.7521    6.0185 H   0  0  0  0  0  0  0  0  0  0  0  0
   -1.7827    5.0576   12.5860 S   0  0  0  0  0  0  0  0  0  0  0  0
   -3.3327    3.4478   14.1721 N   0  0  0  0  0  0  0  0  0  0  0  0
   -3.1032    4.6839   13.7053 C   0  0  0  0  0  0  0  0  0  0  0  0
   -3.9968    5.5533   14.1934 N   0  0  0  0  0  0  0  0  0  0  0  0
   -4.7955    4.8515   14.9779 C   0  0  0  0  0  0  0  0  0  0  0  0
   -5.8878    5.2470   15.7340 C   0  0  0  0  0  0  0  0  0  0  0  0
   -6.5221    4.3110   16.4456 N   0  0  0  0  0  0  0  0  0  0  0  0
   -6.1419    3.0258   16.4507 C   0  0  0  0  0  0  0  0  0  0  0  0
   -5.0480    2.5951   15.7027 C   0  0  0  0  0  0  0  0  0  0  0  0
   -4.3835    3.5526   14.9618 C   0  0  0  0  0  0  0  0  0  0  0  0
   -6.8432    2.0991   17.2134 C   0  0  0  0  0  0  0  0  0  0  0  0
   -6.4535    0.7638   17.2215 C   0  0  0  0  0  0  0  0  0  0  0  0
   -5.3591    0.3459   16.4705 C   0  0  0  0  0  0  0  0  0  0  0  0
   -4.6501    1.2653   15.7048 C   0  0  0  0  0  0  0  0  0  0  0  0
   -2.8222    2.6312   13.9675 H   0  0  0  0  0  0  0  0  0  0  0  0
 19 18  1  0  0  0
 18 26  1  0  0  0
 17 19  1  0  0  0
 20 19  2  0  0  0
 20 21  1  0  0  0
 22 21  2  0  0  0
 21 26  1  0  0  0
 22 23  1  0  0  0
 23 24  2  0  0  0
 24 25  1  0  0  0
 24 27  1  0  0  0
 26 25  2  0  0  0
 25 30  1  0  0  0
 27 28  2  0  0  0
 28 29  1  0  0  0
 30 29  2  0  0  0
 17  1  1  0  0  0
  1  2  1  0  0  0
  2  3  2  0  0  0
  2  4  1  0  0  0
  4  9  2  0  0  0
  4  5  1  0  0  0
  5  6  2  0  0  0
  6  7  1  0  0  0
  6 11  1  0  0  0
  8  7  2  0  0  0
  7 10  1  0  0  0
  9  8  1  0  0  0
 14 11  1  0  0  0
 12 11  2  0  0  0
 11 13  2  0  0  0
 18 31  1  0  0  0
 14 15  1  0  0  0
 14 16  1  0  0  0
M  END
> <minimizedAffinity>
-8.44426

$$$$
3MYQ_E27_A_266


 31 34  0  0  0  0  0  0  0  0999 V2000
   -3.5317    5.2451   11.4144 C   0  0  0  0  0  0  0  0  0  0  0  0
   -4.7679    6.2119   11.5992 C   0  0  0  0  0  0  0  0  0  0  0  0
   -5.8137    5.8981   12.2626 O   0  0  0  0  0  0  0  0  0  0  0  0
   -4.8768    7.6310   10.9842 C   0  0  0  0  0  0  0  0  0  0  0  0
   -3.7592    8.4021   10.7388 C   0  0  0  0  0  0  0  0  0  0  0  0
   -3.8633    9.6488   10.2280 C   0  0  0  0  0  0  0  0  0  0  0  0
   -5.1131   10.1860   10.0200 C   0  0  0  0  0  0  0  0  0  0  0  0
   -6.2726    9.4673   10.2851 C   0  0  0  0  0  0  0  0  0  0  0  0
   -6.1178    8.2178   10.7827 C   0  0  0  0  0  0  0  0  0  0  0  0
   -5.3954   11.8000    9.4220 Cl  0  0  0  0  0  0  0  0  0  0  0  0
   -2.4366   10.6816    9.9694 S   0  0  0  0  0  0  0  0  0  0  0  0
   -2.5986   11.7916   10.9459 O   0  0  0  0  0  0  0  0  0  0  0  0
   -2.4409   11.0610    8.5562 O   0  0  0  0  0  0  0  0  0  0  0  0
   -1.1524    9.7721   10.3864 N   0  0  0  0  0  0  0  0  0  0  0  0
   -1.2069    9.5414   11.3785 H   0  0  0  0  0  0  0  0  0  0  0  0
   -0.2940   10.2923   10.2049 H   0  0  0  0  0  0  0  0  0  0  0  0
   -3.9253    3.5416   10.9467 S   0  0  0  0  0  0  0  0  0  0  0  0
   -4.8513    3.3169   13.5161 N   0  0  0  0  0  0  0  0  0  0  0  0
   -4.2775    2.7071   12.4686 C   0  0  0  0  0  0  0  0  0  0  0  0
   -4.0176    1.4233   12.7456 N   0  0  0  0  0  0  0  0  0  0  0  0
   -4.4362    1.2266   13.9833 C   0  0  0  0  0  0  0  0  0  0  0  0
   -4.4142    0.0852   14.7693 C   0  0  0  0  0  0  0  0  0  0  0  0
   -4.9129    0.1728   16.0055 N   0  0  0  0  0  0  0  0  0  0  0  0
   -5.4241    1.3089   16.4997 C   0  0  0  0  0  0  0  0  0  0  0  0
   -5.4623    2.4738   15.7360 C   0  0  0  0  0  0  0  0  0  0  0  0
   -4.9493    2.3972   14.4561 C   0  0  0  0  0  0  0  0  0  0  0  0
   -5.9291    1.3356   17.7946 C   0  0  0  0  0  0  0  0  0  0  0  0
   -6.4598    2.5123   18.3127 C   0  0  0  0  0  0  0  0  0  0  0  0
   -6.4926    3.6692   17.5402 C   0  0  0  0  0  0  0  0  0  0  0  0
   -5.9909    3.6529   16.2431 C   0  0  0  0  0  0  0  0  0  0  0  0
   -5.1398    4.2565   13.5718 H   0  0  0  0  0  0  0  0  0  0  0  0
 19 18  1  0  0  0
 18 26  1  0  0  0
 17 19  1  0  0  0
 20 19  2  0  0  0
 20 21  1  0  0  0
 22 21  2  0  0  0
 21 26  1  0  0  0
 22 23  1  0  0  0
 23 24  2  0  0  0
 24 25  1  0  0  0
 24 27  1  0  0  0
 26 25  2  0  0  0
 25 30  1  0  0  0
 27 28  2  0  0  0
 28 29  1  0  0  0
 30 29  2  0  0  0
 17  1  1  0  0  0
  1  2  1  0  0  0
  2  3  2  0  0  0
  2  4  1  0  0  0
  4  9  2  0  0  0
  4  5  1  0  0  0
  5  6  2  0  0  0
  6  7  1  0  0  0
  6 11  1  0  0  0
  8  7  2  0  0  0
  7 10  1  0  0  0
  9  8  1  0  0  0
 14 11  1  0  0  0
 12 11  2  0  0  0
 11 13  2  0  0  0
 18 31  1  0  0  0
 14 15  1  0  0  0
 14 16  1  0  0  0
M  END
> <minimizedAffinity>
-8.26343

$$$$
3MYQ_E27_A_266


 31 34  0  0  0  0  0  0  0  0999 V2000
   -2.1033    3.6262   10.7825 C   0  0  0  0  0  0  0  0  0  0  0  0
   -1.4398    4.5126   11.9099 C   0  0  0  0  0  0  0  0  0  0  0  0
   -1.9172    4.6237   13.0898 O   0  0  0  0  0  0  0  0  0  0  0  0
   -0.1609    5.3682   11.7203 C   0  0  0  0  0  0  0  0  0  0  0  0
    0.9571    4.8690   11.0840 C   0  0  0  0  0  0  0  0  0  0  0  0
    2.0781    5.6110   10.9463 C   0  0  0  0  0  0  0  0  0  0  0  0
    2.1291    6.8614   11.5189 C   0  0  0  0  0  0  0  0  0  0  0  0
    1.0452    7.3983   12.2032 C   0  0  0  0  0  0  0  0  0  0  0  0
   -0.0603    6.6232   12.3031 C   0  0  0  0  0  0  0  0  0  0  0  0
    3.5280    7.9019   11.4697 Cl  0  0  0  0  0  0  0  0  0  0  0  0
    3.5509    4.9585   10.1889 S   0  0  0  0  0  0  0  0  0  0  0  0
    3.1216    3.6651    9.5932 O   0  0  0  0  0  0  0  0  0  0  0  0
    4.5658    4.8783   11.2399 O   0  0  0  0  0  0  0  0  0  0  0  0
    3.9367    6.0037    9.0020 N   0  0  0  0  0  0  0  0  0  0  0  0
    3.1935    6.0143    8.3034 H   0  0  0  0  0  0  0  0  0  0  0  0
    4.8109    5.7133    8.5640 H   0  0  0  0  0  0  0  0  0  0  0  0
   -3.9065    3.4866   10.8475 S   0  0  0  0  0  0  0  0  0  0  0  0
   -4.8251    3.3006   13.4226 N   0  0  0  0  0  0  0  0  0  0  0  0
   -4.2587    2.6739   12.3811 C   0  0  0  0  0  0  0  0  0  0  0  0
   -4.0061    1.3920   12.6736 N   0  0  0  0  0  0  0  0  0  0  0  0
   -4.4217    1.2139   13.9152 C   0  0  0  0  0  0  0  0  0  0  0  0
   -4.4042    0.0824   14.7156 C   0  0  0  0  0  0  0  0  0  0  0  0
   -4.8981    0.1890   15.9523 N   0  0  0  0  0  0  0  0  0  0  0  0
   -5.4003    1.3346   16.4336 C   0  0  0  0  0  0  0  0  0  0  0  0
   -5.4338    2.4899   15.6552 C   0  0  0  0  0  0  0  0  0  0  0  0
   -4.9257    2.3937   14.3746 C   0  0  0  0  0  0  0  0  0  0  0  0
   -5.9007    1.3811   17.7297 C   0  0  0  0  0  0  0  0  0  0  0  0
   -6.4221    2.5677   18.2346 C   0  0  0  0  0  0  0  0  0  0  0  0
   -6.4502    3.7149   17.4474 C   0  0  0  0  0  0  0  0  0  0  0  0
   -5.9531    3.6787   16.1490 C   0  0  0  0  0  0  0  0  0  0  0  0
   -5.1073    4.2427   13.4673 H   0  0  0  0  0  0  0  0  0  0  0  0
 19 18  1  0  0  0
 18 26  1  0  0  0
 17 19  1  0  0  0
 20 19  2  0  0  0
 20 21  1  0  0  0
 22 21  2  0  0  0
 21 26  1  0  0  0
 22 23  1  0  0  0
 23 24  2  0  0  0
 24 25  1  0  0  0
 24 27  1  0  0  0
 26 25  2  0  0  0
 25 30  1  0  0  0
 27 28  2  0  0  0
 28 29  1  0  0  0
 30 29  2  0  0  0
 17  1  1  0  0  0
  1  2  1  0  0  0
  2  3  2  0  0  0
  2  4  1  0  0  0
  4  9  2  0  0  0
  4  5  1  0  0  0
  5  6  2  0  0  0
  6  7  1  0  0  0
  6 11  1  0  0  0
  8  7  2  0  0  0
  7 10  1  0  0  0
  9  8  1  0  0  0
 14 11  1  0  0  0
 12 11  2  0  0  0
 11 13  2  0  0  0
 18 31  1  0  0  0
 14 15  1  0  0  0
 14 16  1  0  0  0
M  END
> <minimizedAffinity>
-8.20365

$$$$
