1XHY_KAI_A_1001


 18 18  0  0  0  0  0  0  0  0999 V2000
   12.7875    7.6123   24.6536 N   0  0  0  0  0  0  0  0  0  0  0  0
   13.4991    8.8668   24.2845 C   0  0  0  0  0  0  0  0  0  0  0  0
   13.6870    6.5038   24.8186 C   0  0  0  0  0  0  0  0  0  0  0  0
   15.0144    6.9785   24.3197 C   0  0  0  0  0  0  0  0  0  0  0  0
   14.9698    8.4572   24.3740 C   0  0  0  0  0  0  0  0  0  0  0  0
   12.1190    7.3855   23.9173 H   0  0  0  0  0  0  0  0  0  0  0  0
   13.8344    6.2840   26.3327 C   0  0  0  0  0  0  0  0  0  0  0  0
   12.9638    6.4999   27.1991 O   0  0  0  0  0  0  0  0  0  0  0  0
   14.9862    5.8753   26.7818 O   0  0  0  0  0  0  0  0  0  0  0  0
   15.6848    5.6945   26.1840 H   0  0  0  0  0  0  0  0  0  0  0  0
   17.4062    9.1707   24.5537 C   0  0  0  0  0  0  0  0  0  0  0  0
   15.7678   10.6260   23.2069 C   0  0  0  0  0  0  0  0  0  0  0  0
   16.1293    9.2686   23.7918 C   0  0  0  0  0  0  0  0  0  0  0  0
   14.9904    6.7200   22.8032 C   0  0  0  0  0  0  0  0  0  0  0  0
   16.0275    5.7970   22.1970 C   0  0  0  0  0  0  0  0  0  0  0  0
   16.1945    5.8292   20.8462 O   0  0  0  0  0  0  0  0  0  0  0  0
   16.7036    5.0889   22.9281 O   0  0  0  0  0  0  0  0  0  0  0  0
   15.6550    6.3866   20.3206 H   0  0  0  0  0  0  0  0  0  0  0  0
  1  2  1  0  0  0
  1  3  1  0  0  0
  2  5  1  0  0  0
 11 13  2  0  0  0
 12 13  1  0  0  0
  3  4  1  0  0  0
  3  7  1  0  0  0
  4 14  1  0  0  0
  4  5  1  0  0  0
 14 15  1  0  0  0
  5 13  1  0  0  0
 15 16  1  0  0  0
 15 17  2  0  0  0
  7  8  2  0  0  0
  7  9  1  0  0  0
  1  6  1  0  0  0
 16 18  1  0  0  0
  9 10  1  0  0  0
M  END
> <minimizedAffinity>
-8.20154

$$$$
1XHY_KAI_A_1001


 18 18  0  0  0  0  0  0  0  0999 V2000
   14.4971    6.6529   24.8074 N   0  0  0  0  0  0  0  0  0  0  0  0
   15.5089    7.2291   25.7352 C   0  0  0  0  0  0  0  0  0  0  0  0
   14.7239    7.0430   23.4431 C   0  0  0  0  0  0  0  0  0  0  0  0
   15.7828    8.0978   23.4916 C   0  0  0  0  0  0  0  0  0  0  0  0
   16.4874    7.9149   24.7806 C   0  0  0  0  0  0  0  0  0  0  0  0
   13.5715    6.9741   25.0910 H   0  0  0  0  0  0  0  0  0  0  0  0
   15.3424    5.8250   22.7386 C   0  0  0  0  0  0  0  0  0  0  0  0
   16.0364    5.8438   21.7027 O   0  0  0  0  0  0  0  0  0  0  0  0
   15.0939    4.6443   23.2281 O   0  0  0  0  0  0  0  0  0  0  0  0
   14.5779    4.5585   24.0056 H   0  0  0  0  0  0  0  0  0  0  0  0
   18.4235    9.4266   24.1146 C   0  0  0  0  0  0  0  0  0  0  0  0
   18.1934    8.6884   26.5678 C   0  0  0  0  0  0  0  0  0  0  0  0
   17.5457    8.9322   25.2126 C   0  0  0  0  0  0  0  0  0  0  0  0
   15.0270    9.4162   23.7323 C   0  0  0  0  0  0  0  0  0  0  0  0
   15.3149   10.6041   22.8372 C   0  0  0  0  0  0  0  0  0  0  0  0
   15.0538   10.4754   21.5073 O   0  0  0  0  0  0  0  0  0  0  0  0
   15.7293   11.6425   23.3302 O   0  0  0  0  0  0  0  0  0  0  0  0
   14.7368    9.6613   21.1687 H   0  0  0  0  0  0  0  0  0  0  0  0
  1  2  1  0  0  0
  1  3  1  0  0  0
  2  5  1  0  0  0
 11 13  2  0  0  0
 12 13  1  0  0  0
  3  4  1  0  0  0
  3  7  1  0  0  0
  4 14  1  0  0  0
  4  5  1  0  0  0
 14 15  1  0  0  0
  5 13  1  0  0  0
 15 16  1  0  0  0
 15 17  2  0  0  0
  7  8  2  0  0  0
  7  9  1  0  0  0
  1  6  1  0  0  0
 16 18  1  0  0  0
  9 10  1  0  0  0
M  END
> <minimizedAffinity>
-7.03243

$$$$
1XHY_KAI_A_1001


 18 18  0  0  0  0  0  0  0  0999 V2000
   15.8518    6.4878   24.8349 N   0  0  0  0  0  0  0  0  0  0  0  0
   16.1354    6.1723   23.4078 C   0  0  0  0  0  0  0  0  0  0  0  0
   14.8049    7.4614   24.9802 C   0  0  0  0  0  0  0  0  0  0  0  0
   14.5392    7.9826   23.6040 C   0  0  0  0  0  0  0  0  0  0  0  0
   15.0483    6.9540   22.6688 C   0  0  0  0  0  0  0  0  0  0  0  0
   16.7014    6.8529   25.2652 H   0  0  0  0  0  0  0  0  0  0  0  0
   13.5484    6.6889   25.4127 C   0  0  0  0  0  0  0  0  0  0  0  0
   13.5048    5.7444   26.2259 O   0  0  0  0  0  0  0  0  0  0  0  0
   12.4147    7.0046   24.8555 O   0  0  0  0  0  0  0  0  0  0  0  0
   12.3769    7.7053   24.2347 H   0  0  0  0  0  0  0  0  0  0  0  0
   13.8713    7.9815   20.6598 C   0  0  0  0  0  0  0  0  0  0  0  0
   15.6286    6.1420   20.2800 C   0  0  0  0  0  0  0  0  0  0  0  0
   15.0616    7.2416   21.1659 C   0  0  0  0  0  0  0  0  0  0  0  0
   15.5551    9.1202   23.4014 C   0  0  0  0  0  0  0  0  0  0  0  0
   15.0681   10.4594   22.8872 C   0  0  0  0  0  0  0  0  0  0  0  0
   15.8245   11.0930   21.9491 O   0  0  0  0  0  0  0  0  0  0  0  0
   14.0065   10.9094   23.2917 O   0  0  0  0  0  0  0  0  0  0  0  0
   16.6333   10.7142   21.6655 H   0  0  0  0  0  0  0  0  0  0  0  0
  1  2  1  0  0  0
  1  3  1  0  0  0
  2  5  1  0  0  0
 11 13  2  0  0  0
 12 13  1  0  0  0
  3  4  1  0  0  0
  3  7  1  0  0  0
  4 14  1  0  0  0
  4  5  1  0  0  0
 14 15  1  0  0  0
  5 13  1  0  0  0
 15 16  1  0  0  0
 15 17  2  0  0  0
  7  8  2  0  0  0
  7  9  1  0  0  0
  1  6  1  0  0  0
 16 18  1  0  0  0
  9 10  1  0  0  0
M  END
> <minimizedAffinity>
-7.01742

$$$$
1XHY_KAI_A_1001


 18 18  0  0  0  0  0  0  0  0999 V2000
   14.9065    5.6569   24.0088 N   0  0  0  0  0  0  0  0  0  0  0  0
   14.7796    6.4089   22.7302 C   0  0  0  0  0  0  0  0  0  0  0  0
   15.0962    6.5271   25.1365 C   0  0  0  0  0  0  0  0  0  0  0  0
   15.3338    7.8885   24.5651 C   0  0  0  0  0  0  0  0  0  0  0  0
   14.7686    7.8652   23.1970 C   0  0  0  0  0  0  0  0  0  0  0  0
   15.7067    5.0279   23.9415 H   0  0  0  0  0  0  0  0  0  0  0  0
   13.7491    6.5841   25.8743 C   0  0  0  0  0  0  0  0  0  0  0  0
   13.5729    6.4562   27.1023 O   0  0  0  0  0  0  0  0  0  0  0  0
   12.6687    6.7355   25.1636 O   0  0  0  0  0  0  0  0  0  0  0  0
   12.7297    6.8371   24.2341 H   0  0  0  0  0  0  0  0  0  0  0  0
   14.6533   10.3888   22.8885 C   0  0  0  0  0  0  0  0  0  0  0  0
   14.5944    8.8665   20.8159 C   0  0  0  0  0  0  0  0  0  0  0  0
   14.9746    9.0692   22.2753 C   0  0  0  0  0  0  0  0  0  0  0  0
   16.8444    7.9469   24.2788 C   0  0  0  0  0  0  0  0  0  0  0  0
   17.6743    9.0384   24.9230 C   0  0  0  0  0  0  0  0  0  0  0  0
   18.3824    8.7215   26.0418 O   0  0  0  0  0  0  0  0  0  0  0  0
   17.7172   10.1453   24.4073 O   0  0  0  0  0  0  0  0  0  0  0  0
   18.3218    7.8604   26.4063 H   0  0  0  0  0  0  0  0  0  0  0  0
  1  2  1  0  0  0
  1  3  1  0  0  0
  2  5  1  0  0  0
 11 13  2  0  0  0
 12 13  1  0  0  0
  3  4  1  0  0  0
  3  7  1  0  0  0
  4 14  1  0  0  0
  4  5  1  0  0  0
 14 15  1  0  0  0
  5 13  1  0  0  0
 15 16  1  0  0  0
 15 17  2  0  0  0
  7  8  2  0  0  0
  7  9  1  0  0  0
  1  6  1  0  0  0
 16 18  1  0  0  0
  9 10  1  0  0  0
M  END
> <minimizedAffinity>
-6.61749

$$$$
1XHY_KAI_A_1001


 18 18  0  0  0  0  0  0  0  0999 V2000
   16.1516    6.0036   23.2249 N   0  0  0  0  0  0  0  0  0  0  0  0
   17.1599    6.9840   23.7132 C   0  0  0  0  0  0  0  0  0  0  0  0
   14.8921    6.6240   22.9183 C   0  0  0  0  0  0  0  0  0  0  0  0
   14.9906    8.0235   23.4357 C   0  0  0  0  0  0  0  0  0  0  0  0
   16.4367    8.3211   23.5454 C   0  0  0  0  0  0  0  0  0  0  0  0
   16.0029    5.2987   23.9469 H   0  0  0  0  0  0  0  0  0  0  0  0
   14.8158    6.7213   21.3863 C   0  0  0  0  0  0  0  0  0  0  0  0
   15.4506    6.0254   20.5689 O   0  0  0  0  0  0  0  0  0  0  0  0
   14.0545    7.6425   20.8694 O   0  0  0  0  0  0  0  0  0  0  0  0
   13.5500    8.2009   21.4276 H   0  0  0  0  0  0  0  0  0  0  0  0
   16.5347   10.8611   23.4183 C   0  0  0  0  0  0  0  0  0  0  0  0
   18.2476    9.6097   24.8730 C   0  0  0  0  0  0  0  0  0  0  0  0
   16.8899    9.6346   24.1865 C   0  0  0  0  0  0  0  0  0  0  0  0
   14.5759    7.9361   24.9148 C   0  0  0  0  0  0  0  0  0  0  0  0
   13.7246    6.7698   25.3731 C   0  0  0  0  0  0  0  0  0  0  0  0
   12.3846    6.8314   25.1407 O   0  0  0  0  0  0  0  0  0  0  0  0
   14.2594    5.8028   25.8947 O   0  0  0  0  0  0  0  0  0  0  0  0
   12.0134    7.5917   24.7382 H   0  0  0  0  0  0  0  0  0  0  0  0
  1  2  1  0  0  0
  1  3  1  0  0  0
  2  5  1  0  0  0
 11 13  2  0  0  0
 12 13  1  0  0  0
  3  4  1  0  0  0
  3  7  1  0  0  0
  4 14  1  0  0  0
  4  5  1  0  0  0
 14 15  1  0  0  0
  5 13  1  0  0  0
 15 16  1  0  0  0
 15 17  2  0  0  0
  7  8  2  0  0  0
  7  9  1  0  0  0
  1  6  1  0  0  0
 16 18  1  0  0  0
  9 10  1  0  0  0
M  END
> <minimizedAffinity>
-6.33310

$$$$
1XHY_KAI_A_1001


 18 18  0  0  0  0  0  0  0  0999 V2000
   15.5302   10.9578   23.1598 N   0  0  0  0  0  0  0  0  0  0  0  0
   14.9726   10.2670   21.9646 C   0  0  0  0  0  0  0  0  0  0  0  0
   15.9867   10.0329   24.1603 C   0  0  0  0  0  0  0  0  0  0  0  0
   15.5091    8.6864   23.7188 C   0  0  0  0  0  0  0  0  0  0  0  0
   15.2595    8.7948   22.2636 C   0  0  0  0  0  0  0  0  0  0  0  0
   14.8043   11.5483   23.5657 H   0  0  0  0  0  0  0  0  0  0  0  0
   17.5208   10.0124   24.0671 C   0  0  0  0  0  0  0  0  0  0  0  0
   18.2380   10.8582   23.4966 O   0  0  0  0  0  0  0  0  0  0  0  0
   18.1515    8.9998   24.5890 O   0  0  0  0  0  0  0  0  0  0  0  0
   17.6725    8.3277   25.0326 H   0  0  0  0  0  0  0  0  0  0  0  0
   15.2415    6.2947   21.7881 C   0  0  0  0  0  0  0  0  0  0  0  0
   14.1637    7.9026   20.0944 C   0  0  0  0  0  0  0  0  0  0  0  0
   14.6191    7.6215   21.5188 C   0  0  0  0  0  0  0  0  0  0  0  0
   14.0791    8.5648   24.2735 C   0  0  0  0  0  0  0  0  0  0  0  0
   13.7404    7.4061   25.1889 C   0  0  0  0  0  0  0  0  0  0  0  0
   12.5313    6.8016   25.0276 O   0  0  0  0  0  0  0  0  0  0  0  0
   14.5638    7.0254   26.0075 O   0  0  0  0  0  0  0  0  0  0  0  0
   11.9275    7.1247   24.3881 H   0  0  0  0  0  0  0  0  0  0  0  0
  1  2  1  0  0  0
  1  3  1  0  0  0
  2  5  1  0  0  0
 11 13  2  0  0  0
 12 13  1  0  0  0
  3  4  1  0  0  0
  3  7  1  0  0  0
  4 14  1  0  0  0
  4  5  1  0  0  0
 14 15  1  0  0  0
  5 13  1  0  0  0
 15 16  1  0  0  0
 15 17  2  0  0  0
  7  8  2  0  0  0
  7  9  1  0  0  0
  1  6  1  0  0  0
 16 18  1  0  0  0
  9 10  1  0  0  0
M  END
> <minimizedAffinity>
-6.13875

$$$$
1XHY_KAI_A_1001


 18 18  0  0  0  0  0  0  0  0999 V2000
   17.8671    8.6603   25.1643 N   0  0  0  0  0  0  0  0  0  0  0  0
   16.8645    7.9805   26.0299 C   0  0  0  0  0  0  0  0  0  0  0  0
   17.3812    8.8695   23.8282 C   0  0  0  0  0  0  0  0  0  0  0  0
   16.1024    8.1001   23.7346 C   0  0  0  0  0  0  0  0  0  0  0  0
   15.6329    7.9109   25.1258 C   0  0  0  0  0  0  0  0  0  0  0  0
   18.7077    8.0842   25.1213 H   0  0  0  0  0  0  0  0  0  0  0  0
   17.0122   10.3581   23.7269 C   0  0  0  0  0  0  0  0  0  0  0  0
   15.9942   10.8320   23.1844 O   0  0  0  0  0  0  0  0  0  0  0  0
   17.8510   11.2300   24.2081 O   0  0  0  0  0  0  0  0  0  0  0  0
   18.6369   10.9414   24.6289 H   0  0  0  0  0  0  0  0  0  0  0  0
   13.1134    7.6023   24.9417 C   0  0  0  0  0  0  0  0  0  0  0  0
   14.4155    6.2682   26.7139 C   0  0  0  0  0  0  0  0  0  0  0  0
   14.4117    7.0294   25.3964 C   0  0  0  0  0  0  0  0  0  0  0  0
   16.5200    6.6706   23.3480 C   0  0  0  0  0  0  0  0  0  0  0  0
   15.5610    5.8146   22.5463 C   0  0  0  0  0  0  0  0  0  0  0  0
   15.0585    4.6973   23.1401 O   0  0  0  0  0  0  0  0  0  0  0  0
   15.2380    6.1652   21.4212 O   0  0  0  0  0  0  0  0  0  0  0  0
   15.3322    4.4630   24.0050 H   0  0  0  0  0  0  0  0  0  0  0  0
  1  2  1  0  0  0
  1  3  1  0  0  0
  2  5  1  0  0  0
 11 13  2  0  0  0
 12 13  1  0  0  0
  3  4  1  0  0  0
  3  7  1  0  0  0
  4 14  1  0  0  0
  4  5  1  0  0  0
 14 15  1  0  0  0
  5 13  1  0  0  0
 15 16  1  0  0  0
 15 17  2  0  0  0
  7  8  2  0  0  0
  7  9  1  0  0  0
  1  6  1  0  0  0
 16 18  1  0  0  0
  9 10  1  0  0  0
M  END
> <minimizedAffinity>
-5.86066

$$$$
1XHY_KAI_A_1001


 18 18  0  0  0  0  0  0  0  0999 V2000
   16.9338    6.9459   24.5873 N   0  0  0  0  0  0  0  0  0  0  0  0
   17.1137    8.4126   24.4064 C   0  0  0  0  0  0  0  0  0  0  0  0
   15.6901    6.4777   24.0405 C   0  0  0  0  0  0  0  0  0  0  0  0
   14.9119    7.7052   23.6887 C   0  0  0  0  0  0  0  0  0  0  0  0
   15.9031    8.7966   23.5544 C   0  0  0  0  0  0  0  0  0  0  0  0
   16.9544    6.7334   25.5847 H   0  0  0  0  0  0  0  0  0  0  0  0
   16.0330    5.7749   22.7172 C   0  0  0  0  0  0  0  0  0  0  0  0
   15.3781    5.8339   21.6576 O   0  0  0  0  0  0  0  0  0  0  0  0
   17.0804    5.0019   22.6891 O   0  0  0  0  0  0  0  0  0  0  0  0
   17.6170    4.9120   23.4520 H   0  0  0  0  0  0  0  0  0  0  0  0
   14.3579   10.3860   22.3040 C   0  0  0  0  0  0  0  0  0  0  0  0
   16.4862   11.3149   23.4100 C   0  0  0  0  0  0  0  0  0  0  0  0
   15.4194   10.2322   23.3384 C   0  0  0  0  0  0  0  0  0  0  0  0
   14.1813    8.1033   24.9829 C   0  0  0  0  0  0  0  0  0  0  0  0
   13.7694    7.0204   25.9590 C   0  0  0  0  0  0  0  0  0  0  0  0
   14.7131    6.5480   26.8191 O   0  0  0  0  0  0  0  0  0  0  0  0
   12.6102    6.6342   25.9753 O   0  0  0  0  0  0  0  0  0  0  0  0
   15.5917    6.8704   26.7737 H   0  0  0  0  0  0  0  0  0  0  0  0
  1  2  1  0  0  0
  1  3  1  0  0  0
  2  5  1  0  0  0
 11 13  2  0  0  0
 12 13  1  0  0  0
  3  4  1  0  0  0
  3  7  1  0  0  0
  4 14  1  0  0  0
  4  5  1  0  0  0
 14 15  1  0  0  0
  5 13  1  0  0  0
 15 16  1  0  0  0
 15 17  2  0  0  0
  7  8  2  0  0  0
  7  9  1  0  0  0
  1  6  1  0  0  0
 16 18  1  0  0  0
  9 10  1  0  0  0
M  END
> <minimizedAffinity>
-5.84854

$$$$
1XHY_KAI_A_1001


 18 18  0  0  0  0  0  0  0  0999 V2000
   17.0757    9.0814   23.8134 N   0  0  0  0  0  0  0  0  0  0  0  0
   16.6022    8.2101   24.9239 C   0  0  0  0  0  0  0  0  0  0  0  0
   16.0323    9.3786   22.8710 C   0  0  0  0  0  0  0  0  0  0  0  0
   14.8861    8.4915   23.2389 C   0  0  0  0  0  0  0  0  0  0  0  0
   15.1008    8.1061   24.6521 C   0  0  0  0  0  0  0  0  0  0  0  0
   17.8341    8.6061   23.3241 H   0  0  0  0  0  0  0  0  0  0  0  0
   15.5862   10.8216   23.1558 C   0  0  0  0  0  0  0  0  0  0  0  0
   16.3286   11.7824   23.4403 O   0  0  0  0  0  0  0  0  0  0  0  0
   14.3099   11.0796   23.1486 O   0  0  0  0  0  0  0  0  0  0  0  0
   13.6962   10.4021   22.9429 H   0  0  0  0  0  0  0  0  0  0  0  0
   12.7343    7.4558   25.3257 C   0  0  0  0  0  0  0  0  0  0  0  0
   14.7274    6.3571   26.5241 C   0  0  0  0  0  0  0  0  0  0  0  0
   14.1748    7.0755   25.3018 C   0  0  0  0  0  0  0  0  0  0  0  0
   15.1538    7.1641   22.5083 C   0  0  0  0  0  0  0  0  0  0  0  0
   14.7678    7.0359   21.0490 C   0  0  0  0  0  0  0  0  0  0  0  0
   15.2514    5.9689   20.3554 O   0  0  0  0  0  0  0  0  0  0  0  0
   14.0127    7.8579   20.5519 O   0  0  0  0  0  0  0  0  0  0  0  0
   15.8286    5.3608   20.7737 H   0  0  0  0  0  0  0  0  0  0  0  0
  1  2  1  0  0  0
  1  3  1  0  0  0
  2  5  1  0  0  0
 11 13  2  0  0  0
 12 13  1  0  0  0
  3  4  1  0  0  0
  3  7  1  0  0  0
  4 14  1  0  0  0
  4  5  1  0  0  0
 14 15  1  0  0  0
  5 13  1  0  0  0
 15 16  1  0  0  0
 15 17  2  0  0  0
  7  8  2  0  0  0
  7  9  1  0  0  0
  1  6  1  0  0  0
 16 18  1  0  0  0
  9 10  1  0  0  0
M  END
> <minimizedAffinity>
-5.80945

$$$$
1XHY_KAI_A_1001


 18 18  0  0  0  0  0  0  0  0999 V2000
   13.9464    8.1305   22.4059 N   0  0  0  0  0  0  0  0  0  0  0  0
   13.3159    7.9838   23.7466 C   0  0  0  0  0  0  0  0  0  0  0  0
   15.3202    7.7092   22.4005 C   0  0  0  0  0  0  0  0  0  0  0  0
   15.6851    7.4909   23.8342 C   0  0  0  0  0  0  0  0  0  0  0  0
   14.4095    7.2865   24.5572 C   0  0  0  0  0  0  0  0  0  0  0  0
   13.9029    9.1111   22.1285 H   0  0  0  0  0  0  0  0  0  0  0  0
   15.3508    6.3314   21.7198 C   0  0  0  0  0  0  0  0  0  0  0  0
   15.7508    5.2649   22.2275 O   0  0  0  0  0  0  0  0  0  0  0  0
   14.9681    6.2546   20.4776 O   0  0  0  0  0  0  0  0  0  0  0  0
   14.6561    7.0195   20.0354 H   0  0  0  0  0  0  0  0  0  0  0  0
   15.6311    6.5341   26.6592 C   0  0  0  0  0  0  0  0  0  0  0  0
   13.0805    6.8572   26.7371 C   0  0  0  0  0  0  0  0  0  0  0  0
   14.4167    7.1778   26.0835 C   0  0  0  0  0  0  0  0  0  0  0  0
   16.1213    8.8720   24.3533 C   0  0  0  0  0  0  0  0  0  0  0  0
   17.5880    9.1219   24.6386 C   0  0  0  0  0  0  0  0  0  0  0  0
   18.1235    8.5555   25.7548 O   0  0  0  0  0  0  0  0  0  0  0  0
   18.2504    9.7811   23.8513 O   0  0  0  0  0  0  0  0  0  0  0  0
   17.5809    8.0570   26.3336 H   0  0  0  0  0  0  0  0  0  0  0  0
  1  2  1  0  0  0
  1  3  1  0  0  0
  2  5  1  0  0  0
 11 13  2  0  0  0
 12 13  1  0  0  0
  3  4  1  0  0  0
  3  7  1  0  0  0
  4 14  1  0  0  0
  4  5  1  0  0  0
 14 15  1  0  0  0
  5 13  1  0  0  0
 15 16  1  0  0  0
 15 17  2  0  0  0
  7  8  2  0  0  0
  7  9  1  0  0  0
  1  6  1  0  0  0
 16 18  1  0  0  0
  9 10  1  0  0  0
M  END
> <minimizedAffinity>
-5.20455

$$$$
