2WED_PP6_A_327


 41 44  0  0  0  0  0  0  0  0999 V2000
   18.7618    7.8589   19.3313 O   0  0  0  0  0  0  0  0  0  0  0  0
   21.3437    5.2636   18.9058 C   0  0  0  0  0  0  0  0  0  0  0  0
   21.2796    3.8889   18.8336 C   0  0  0  0  0  0  0  0  0  0  0  0
   22.3567    3.0665   19.2326 C   0  0  0  0  0  0  0  0  0  0  0  0
   23.5728    3.5946   19.6028 C   0  0  0  0  0  0  0  0  0  0  0  0
   23.6994    5.0330   19.6759 C   0  0  0  0  0  0  0  0  0  0  0  0
   22.5989    5.8636   19.3066 C   0  0  0  0  0  0  0  0  0  0  0  0
   22.7215    7.2698   19.4634 C   0  0  0  0  0  0  0  0  0  0  0  0
   23.8894    7.8434   19.9183 C   0  0  0  0  0  0  0  0  0  0  0  0
   24.9814    7.0143   20.2650 C   0  0  0  0  0  0  0  0  0  0  0  0
   24.8652    5.6550   20.1727 C   0  0  0  0  0  0  0  0  0  0  0  0
   20.0936    6.0821   18.5870 C   0  0  0  0  0  0  0  0  0  0  0  0
   19.6425    7.0225   19.6902 C   0  0  0  0  0  0  0  0  0  0  0  0
   23.9975    9.3356   20.0634 C   0  0  0  0  0  0  0  0  0  0  0  0
   23.3574    9.7444   21.3986 C   0  0  0  0  0  0  0  0  0  0  0  0
   20.1255    7.0159   20.9319 N   0  0  0  0  0  0  0  0  0  0  0  0
   19.8805    7.9751   22.0079 C   0  0  0  0  0  0  0  0  0  0  0  0
   21.3734    8.3621   22.0987 C   0  0  0  0  0  0  0  0  0  0  0  0
   22.1436    7.7460   22.8549 O   0  0  0  0  0  0  0  0  0  0  0  0
   21.9464    9.3816   21.4468 N   0  0  0  0  0  0  0  0  0  0  0  0
   20.7257    6.2677   21.1539 H   0  0  0  0  0  0  0  0  0  0  0  0
   21.3366    9.9602   20.9343 H   0  0  0  0  0  0  0  0  0  0  0  0
   19.2608    7.4463   23.3208 C   0  0  0  0  0  0  0  0  0  0  0  0
   18.7300    8.8343   23.6819 C   0  0  0  0  0  0  0  0  0  0  0  0
   18.0773    6.7864   22.6035 C   0  0  0  0  0  0  0  0  0  0  0  0
   23.4744   11.5283   21.5969 P   0  0  0  0  0  0  0  0  0  0  0  0
   24.8774   11.9330   21.4737 O   0  0  0  0  0  0  0  0  0  0  0  0
   22.5635   12.2089   20.6804 O   0  0  0  0  0  0  0  0  0  0  0  0
   23.1758   11.8530   23.1131 O   0  0  0  0  0  0  0  0  0  0  0  0
   23.4235   13.0471   23.7880 C   0  0  0  0  0  0  0  0  0  0  0  0
   24.1976   12.5011   24.9826 C   0  0  0  0  0  0  0  0  0  0  0  0
   24.1336   11.4098   25.4699 O   0  0  0  0  0  0  0  0  0  0  0  0
   24.9435   13.3080   27.1042 C   0  0  0  0  0  0  0  0  0  0  0  0
   24.6920   13.5400   25.6472 O   0  0  0  0  0  0  0  0  0  0  0  0
   22.1408   13.7787   24.2635 C   0  0  0  0  0  0  0  0  0  0  0  0
   21.3608   13.0624   25.3386 C   0  0  0  0  0  0  0  0  0  0  0  0
   20.6844   11.8895   25.0708 C   0  0  0  0  0  0  0  0  0  0  0  0
   21.2343   13.6189   26.5981 C   0  0  0  0  0  0  0  0  0  0  0  0
   20.0305   11.2212   26.0608 C   0  0  0  0  0  0  0  0  0  0  0  0
   20.5205   12.9682   27.5884 C   0  0  0  0  0  0  0  0  0  0  0  0
   19.9064   11.7745   27.3090 C   0  0  0  0  0  0  0  0  0  0  0  0
  1 13  2  0  0  0
  2  3  2  0  0  0
  2  7  1  0  0  0
  2 12  1  0  0  0
  3  4  1  0  0  0
  4  5  2  0  0  0
  5  6  1  0  0  0
  6  7  2  0  0  0
  6 11  1  0  0  0
  7  8  1  0  0  0
  8  9  2  0  0  0
  9 10  1  0  0  0
  9 14  1  0  0  0
 10 11  2  0  0  0
 12 13  1  0  0  0
 13 16  1  0  0  0
 14 15  1  0  0  0
 15 20  1  0  0  0
 15 26  1  0  0  0
 16 17  1  0  0  0
 17 18  1  0  0  0
 17 23  1  0  0  0
 18 19  2  0  0  0
 18 20  1  0  0  0
 23 24  1  0  0  0
 23 25  1  0  0  0
 26 27  2  0  0  0
 26 28  1  0  0  0
 26 29  1  0  0  0
 30 35  1  0  0  0
 30 31  1  0  0  0
 30 29  1  0  0  0
 35 36  1  0  0  0
 36 37  2  0  0  0
 36 38  1  0  0  0
 37 39  1  0  0  0
 38 40  2  0  0  0
 39 41  2  0  0  0
 40 41  1  0  0  0
 31 34  1  0  0  0
 31 32  2  0  0  0
 33 34  1  0  0  0
 16 21  1  0  0  0
 20 22  1  0  0  0
M  CHG 1  28  -1
M  END
> <minimizedAffinity>
-11.28392

$$$$
2WED_PP6_A_327


 41 44  0  0  0  0  0  0  0  0999 V2000
   18.5936    7.6304   18.8450 O   0  0  0  0  0  0  0  0  0  0  0  0
   21.3338    5.1796   18.5833 C   0  0  0  0  0  0  0  0  0  0  0  0
   21.3472    3.8094   18.4377 C   0  0  0  0  0  0  0  0  0  0  0  0
   22.4147    3.0157   18.9135 C   0  0  0  0  0  0  0  0  0  0  0  0
   23.5553    3.5769   19.4416 C   0  0  0  0  0  0  0  0  0  0  0  0
   23.6006    5.0135   19.5980 C   0  0  0  0  0  0  0  0  0  0  0  0
   22.5063    5.8128   19.1497 C   0  0  0  0  0  0  0  0  0  0  0  0
   22.5402    7.2125   19.3872 C   0  0  0  0  0  0  0  0  0  0  0  0
   23.6214    7.8124   19.9963 C   0  0  0  0  0  0  0  0  0  0  0  0
   24.7097    7.0155   20.4214 C   0  0  0  0  0  0  0  0  0  0  0  0
   24.6727    5.6593   20.2508 C   0  0  0  0  0  0  0  0  0  0  0  0
   20.0861    5.9575   18.1678 C   0  0  0  0  0  0  0  0  0  0  0  0
   19.4712    6.8160   19.2585 C   0  0  0  0  0  0  0  0  0  0  0  0
   23.6379    9.2981   20.2248 C   0  0  0  0  0  0  0  0  0  0  0  0
   22.8368    9.6054   21.4990 C   0  0  0  0  0  0  0  0  0  0  0  0
   19.8162    6.7642   20.5444 N   0  0  0  0  0  0  0  0  0  0  0  0
   19.4078    7.6522   21.6318 C   0  0  0  0  0  0  0  0  0  0  0  0
   20.8607    8.1001   21.9065 C   0  0  0  0  0  0  0  0  0  0  0  0
   21.5742    7.4792   22.7127 O   0  0  0  0  0  0  0  0  0  0  0  0
   21.4490    9.1777   21.3725 N   0  0  0  0  0  0  0  0  0  0  0  0
   20.4256    6.0327   20.7950 H   0  0  0  0  0  0  0  0  0  0  0  0
   20.8702    9.7553   20.8242 H   0  0  0  0  0  0  0  0  0  0  0  0
   18.6767    7.0263   22.8406 C   0  0  0  0  0  0  0  0  0  0  0  0
   17.4447    7.9013   22.6055 C   0  0  0  0  0  0  0  0  0  0  0  0
   18.3456    5.7328   22.0869 C   0  0  0  0  0  0  0  0  0  0  0  0
   22.8417   11.3795   21.7954 P   0  0  0  0  0  0  0  0  0  0  0  0
   24.0150   11.7273   22.6015 O   0  0  0  0  0  0  0  0  0  0  0  0
   22.7310   12.1120   20.5368 O   0  0  0  0  0  0  0  0  0  0  0  0
   21.6588   11.6921   22.7938 O   0  0  0  0  0  0  0  0  0  0  0  0
   21.6214   11.4468   24.1653 C   0  0  0  0  0  0  0  0  0  0  0  0
   20.2307   10.8307   24.2695 C   0  0  0  0  0  0  0  0  0  0  0  0
   19.3776   10.7832   23.4314 O   0  0  0  0  0  0  0  0  0  0  0  0
   18.6938    9.9345   25.8643 C   0  0  0  0  0  0  0  0  0  0  0  0
   19.9573   10.6770   25.5606 O   0  0  0  0  0  0  0  0  0  0  0  0
   21.7120   12.7276   25.0361 C   0  0  0  0  0  0  0  0  0  0  0  0
   22.9084   12.7901   25.9539 C   0  0  0  0  0  0  0  0  0  0  0  0
   24.0220   13.5374   25.6279 C   0  0  0  0  0  0  0  0  0  0  0  0
   22.9475   12.0231   27.1037 C   0  0  0  0  0  0  0  0  0  0  0  0
   25.0730   13.6325   26.4885 C   0  0  0  0  0  0  0  0  0  0  0  0
   24.0409   12.0749   27.9495 C   0  0  0  0  0  0  0  0  0  0  0  0
   25.1098   12.8713   27.6283 C   0  0  0  0  0  0  0  0  0  0  0  0
  1 13  2  0  0  0
  2  3  2  0  0  0
  2  7  1  0  0  0
  2 12  1  0  0  0
  3  4  1  0  0  0
  4  5  2  0  0  0
  5  6  1  0  0  0
  6  7  2  0  0  0
  6 11  1  0  0  0
  7  8  1  0  0  0
  8  9  2  0  0  0
  9 10  1  0  0  0
  9 14  1  0  0  0
 10 11  2  0  0  0
 12 13  1  0  0  0
 13 16  1  0  0  0
 14 15  1  0  0  0
 15 20  1  0  0  0
 15 26  1  0  0  0
 16 17  1  0  0  0
 17 18  1  0  0  0
 17 23  1  0  0  0
 18 19  2  0  0  0
 18 20  1  0  0  0
 23 24  1  0  0  0
 23 25  1  0  0  0
 26 27  2  0  0  0
 26 28  1  0  0  0
 26 29  1  0  0  0
 30 35  1  0  0  0
 30 31  1  0  0  0
 30 29  1  0  0  0
 35 36  1  0  0  0
 36 37  2  0  0  0
 36 38  1  0  0  0
 37 39  1  0  0  0
 38 40  2  0  0  0
 39 41  2  0  0  0
 40 41  1  0  0  0
 31 34  1  0  0  0
 31 32  2  0  0  0
 33 34  1  0  0  0
 16 21  1  0  0  0
 20 22  1  0  0  0
M  CHG 1  28  -1
M  END
> <minimizedAffinity>
-11.07690

$$$$
2WED_PP6_A_327


 41 44  0  0  0  0  0  0  0  0999 V2000
   19.3883    7.7233   17.7752 O   0  0  0  0  0  0  0  0  0  0  0  0
   22.5161    6.0725   16.7384 C   0  0  0  0  0  0  0  0  0  0  0  0
   22.7696    4.9144   16.0360 C   0  0  0  0  0  0  0  0  0  0  0  0
   23.9553    4.1694   16.2222 C   0  0  0  0  0  0  0  0  0  0  0  0
   24.9763    4.6218   17.0271 C   0  0  0  0  0  0  0  0  0  0  0  0
   24.7690    5.8436   17.7718 C   0  0  0  0  0  0  0  0  0  0  0  0
   23.5556    6.5778   17.6105 C   0  0  0  0  0  0  0  0  0  0  0  0
   23.3428    7.7305   18.4123 C   0  0  0  0  0  0  0  0  0  0  0  0
   24.2978    8.1739   19.3018 C   0  0  0  0  0  0  0  0  0  0  0  0
   25.5050    7.4508   19.4425 C   0  0  0  0  0  0  0  0  0  0  0  0
   25.7067    6.3080   18.7192 C   0  0  0  0  0  0  0  0  0  0  0  0
   21.1551    6.7500   16.5855 C   0  0  0  0  0  0  0  0  0  0  0  0
   20.3912    6.9570   17.8809 C   0  0  0  0  0  0  0  0  0  0  0  0
   24.0530    9.4043   20.1298 C   0  0  0  0  0  0  0  0  0  0  0  0
   23.2004    9.0131   21.3463 C   0  0  0  0  0  0  0  0  0  0  0  0
   20.7297    6.4177   19.0513 N   0  0  0  0  0  0  0  0  0  0  0  0
   20.1640    6.6843   20.3729 C   0  0  0  0  0  0  0  0  0  0  0  0
   21.5141    7.1917   20.9265 C   0  0  0  0  0  0  0  0  0  0  0  0
   22.3186    6.4057   21.4551 O   0  0  0  0  0  0  0  0  0  0  0  0
   21.9096    8.4708   20.9406 N   0  0  0  0  0  0  0  0  0  0  0  0
   21.4554    5.7530   19.0224 H   0  0  0  0  0  0  0  0  0  0  0  0
   21.2432    9.1294   20.6382 H   0  0  0  0  0  0  0  0  0  0  0  0
   19.5437    5.4993   21.1465 C   0  0  0  0  0  0  0  0  0  0  0  0
   18.1258    5.9679   20.8164 C   0  0  0  0  0  0  0  0  0  0  0  0
   19.8551    4.4914   20.0339 C   0  0  0  0  0  0  0  0  0  0  0  0
   22.8933   10.4701   22.3552 P   0  0  0  0  0  0  0  0  0  0  0  0
   23.5160   10.2833   23.6685 O   0  0  0  0  0  0  0  0  0  0  0  0
   23.3104   11.6803   21.6521 O   0  0  0  0  0  0  0  0  0  0  0  0
   21.3574   10.4718   22.7224 O   0  0  0  0  0  0  0  0  0  0  0  0
   20.7717   10.0516   23.9153 C   0  0  0  0  0  0  0  0  0  0  0  0
   19.7405    9.0778   23.3560 C   0  0  0  0  0  0  0  0  0  0  0  0
   18.7597    9.3251   22.7164 O   0  0  0  0  0  0  0  0  0  0  0  0
   18.6130    7.2422   24.3894 C   0  0  0  0  0  0  0  0  0  0  0  0
   19.8867    7.9260   24.0022 O   0  0  0  0  0  0  0  0  0  0  0  0
   20.0700   11.1871   24.7058 C   0  0  0  0  0  0  0  0  0  0  0  0
   20.9953   12.2418   25.2615 C   0  0  0  0  0  0  0  0  0  0  0  0
   21.8565   11.9614   26.3031 C   0  0  0  0  0  0  0  0  0  0  0  0
   20.9335   13.5417   24.7943 C   0  0  0  0  0  0  0  0  0  0  0  0
   22.7271   12.9037   26.7597 C   0  0  0  0  0  0  0  0  0  0  0  0
   21.7783   14.5138   25.2992 C   0  0  0  0  0  0  0  0  0  0  0  0
   22.6643   14.1920   26.2948 C   0  0  0  0  0  0  0  0  0  0  0  0
  1 13  2  0  0  0
  2  3  2  0  0  0
  2  7  1  0  0  0
  2 12  1  0  0  0
  3  4  1  0  0  0
  4  5  2  0  0  0
  5  6  1  0  0  0
  6  7  2  0  0  0
  6 11  1  0  0  0
  7  8  1  0  0  0
  8  9  2  0  0  0
  9 10  1  0  0  0
  9 14  1  0  0  0
 10 11  2  0  0  0
 12 13  1  0  0  0
 13 16  1  0  0  0
 14 15  1  0  0  0
 15 20  1  0  0  0
 15 26  1  0  0  0
 16 17  1  0  0  0
 17 18  1  0  0  0
 17 23  1  0  0  0
 18 19  2  0  0  0
 18 20  1  0  0  0
 23 24  1  0  0  0
 23 25  1  0  0  0
 26 27  2  0  0  0
 26 28  1  0  0  0
 26 29  1  0  0  0
 30 35  1  0  0  0
 30 31  1  0  0  0
 30 29  1  0  0  0
 35 36  1  0  0  0
 36 37  2  0  0  0
 36 38  1  0  0  0
 37 39  1  0  0  0
 38 40  2  0  0  0
 39 41  2  0  0  0
 40 41  1  0  0  0
 31 34  1  0  0  0
 31 32  2  0  0  0
 33 34  1  0  0  0
 16 21  1  0  0  0
 20 22  1  0  0  0
M  CHG 1  28  -1
M  END
> <minimizedAffinity>
-10.93167

$$$$
2WED_PP6_A_327


 41 44  0  0  0  0  0  0  0  0999 V2000
   19.4404    7.7794   17.6200 O   0  0  0  0  0  0  0  0  0  0  0  0
   22.1064    5.2351   17.6673 C   0  0  0  0  0  0  0  0  0  0  0  0
   22.0994    3.8745   17.4491 C   0  0  0  0  0  0  0  0  0  0  0  0
   23.0487    3.0150   18.0458 C   0  0  0  0  0  0  0  0  0  0  0  0
   24.1050    3.5019   18.7819 C   0  0  0  0  0  0  0  0  0  0  0  0
   24.1702    4.9259   19.0240 C   0  0  0  0  0  0  0  0  0  0  0  0
   23.1902    5.7906   18.4503 C   0  0  0  0  0  0  0  0  0  0  0  0
   23.2297    7.1742   18.7683 C   0  0  0  0  0  0  0  0  0  0  0  0
   24.2155    7.6981   19.5769 C   0  0  0  0  0  0  0  0  0  0  0  0
   25.1934    6.8372   20.1268 C   0  0  0  0  0  0  0  0  0  0  0  0
   25.1413    5.4939   19.8767 C   0  0  0  0  0  0  0  0  0  0  0  0
   20.9690    6.0831   17.1000 C   0  0  0  0  0  0  0  0  0  0  0  0
   20.2119    6.9102   18.1234 C   0  0  0  0  0  0  0  0  0  0  0  0
   24.2421    9.1685   19.8880 C   0  0  0  0  0  0  0  0  0  0  0  0
   23.2537    9.4440   21.0312 C   0  0  0  0  0  0  0  0  0  0  0  0
   20.3402    6.7799   19.4432 N   0  0  0  0  0  0  0  0  0  0  0  0
   19.7882    7.6282   20.4984 C   0  0  0  0  0  0  0  0  0  0  0  0
   21.1902    8.0021   21.0290 C   0  0  0  0  0  0  0  0  0  0  0  0
   21.7420    7.3130   21.9037 O   0  0  0  0  0  0  0  0  0  0  0  0
   21.8922    9.0803   20.6584 N   0  0  0  0  0  0  0  0  0  0  0  0
   20.8766    6.0125   19.7475 H   0  0  0  0  0  0  0  0  0  0  0  0
   21.4297    9.7077   20.0571 H   0  0  0  0  0  0  0  0  0  0  0  0
   18.8495    6.9729   21.5361 C   0  0  0  0  0  0  0  0  0  0  0  0
   17.6181    7.6103   20.8912 C   0  0  0  0  0  0  0  0  0  0  0  0
   18.9277    5.5936   20.8712 C   0  0  0  0  0  0  0  0  0  0  0  0
   23.2670   11.1993   21.4236 P   0  0  0  0  0  0  0  0  0  0  0  0
   24.6278   11.7171   21.2575 O   0  0  0  0  0  0  0  0  0  0  0  0
   22.2495   11.9072   20.6512 O   0  0  0  0  0  0  0  0  0  0  0  0
   23.0577   11.3336   22.9831 O   0  0  0  0  0  0  0  0  0  0  0  0
   22.1575   12.1642   23.6481 C   0  0  0  0  0  0  0  0  0  0  0  0
   23.0241   13.4112   23.7840 C   0  0  0  0  0  0  0  0  0  0  0  0
   22.8508   14.4897   23.2950 O   0  0  0  0  0  0  0  0  0  0  0  0
   24.6644   13.6705   25.5018 C   0  0  0  0  0  0  0  0  0  0  0  0
   24.2146   13.0240   24.2291 O   0  0  0  0  0  0  0  0  0  0  0  0
   21.7365   11.6431   25.0474 C   0  0  0  0  0  0  0  0  0  0  0  0
   20.4760   10.8135   25.0651 C   0  0  0  0  0  0  0  0  0  0  0  0
   20.0228   10.1763   23.9278 C   0  0  0  0  0  0  0  0  0  0  0  0
   19.6980   10.7492   26.2063 C   0  0  0  0  0  0  0  0  0  0  0  0
   18.9157    9.3844   23.9676 C   0  0  0  0  0  0  0  0  0  0  0  0
   18.5412    9.9911   26.2298 C   0  0  0  0  0  0  0  0  0  0  0  0
   18.1458    9.3218   25.1003 C   0  0  0  0  0  0  0  0  0  0  0  0
  1 13  2  0  0  0
  2  3  2  0  0  0
  2  7  1  0  0  0
  2 12  1  0  0  0
  3  4  1  0  0  0
  4  5  2  0  0  0
  5  6  1  0  0  0
  6  7  2  0  0  0
  6 11  1  0  0  0
  7  8  1  0  0  0
  8  9  2  0  0  0
  9 10  1  0  0  0
  9 14  1  0  0  0
 10 11  2  0  0  0
 12 13  1  0  0  0
 13 16  1  0  0  0
 14 15  1  0  0  0
 15 20  1  0  0  0
 15 26  1  0  0  0
 16 17  1  0  0  0
 17 18  1  0  0  0
 17 23  1  0  0  0
 18 19  2  0  0  0
 18 20  1  0  0  0
 23 24  1  0  0  0
 23 25  1  0  0  0
 26 27  2  0  0  0
 26 28  1  0  0  0
 26 29  1  0  0  0
 30 35  1  0  0  0
 30 31  1  0  0  0
 30 29  1  0  0  0
 35 36  1  0  0  0
 36 37  2  0  0  0
 36 38  1  0  0  0
 37 39  1  0  0  0
 38 40  2  0  0  0
 39 41  2  0  0  0
 40 41  1  0  0  0
 31 34  1  0  0  0
 31 32  2  0  0  0
 33 34  1  0  0  0
 16 21  1  0  0  0
 20 22  1  0  0  0
M  CHG 1  28  -1
M  END
> <minimizedAffinity>
-10.82464

$$$$
2WED_PP6_A_327


 41 44  0  0  0  0  0  0  0  0999 V2000
   20.7833    3.2750   19.5496 O   0  0  0  0  0  0  0  0  0  0  0  0
   17.1606    3.7033   19.0241 C   0  0  0  0  0  0  0  0  0  0  0  0
   16.2815    3.1622   18.1113 C   0  0  0  0  0  0  0  0  0  0  0  0
   15.1105    3.8405   17.7057 C   0  0  0  0  0  0  0  0  0  0  0  0
   14.7210    5.0253   18.2883 C   0  0  0  0  0  0  0  0  0  0  0  0
   15.5989    5.6262   19.2674 C   0  0  0  0  0  0  0  0  0  0  0  0
   16.8003    4.9577   19.6511 C   0  0  0  0  0  0  0  0  0  0  0  0
   17.6844    5.6057   20.5540 C   0  0  0  0  0  0  0  0  0  0  0  0
   17.3832    6.8368   21.0961 C   0  0  0  0  0  0  0  0  0  0  0  0
   16.1822    7.4844   20.7246 C   0  0  0  0  0  0  0  0  0  0  0  0
   15.3434    6.9018   19.8152 C   0  0  0  0  0  0  0  0  0  0  0  0
   18.4728    2.9753   19.3115 C   0  0  0  0  0  0  0  0  0  0  0  0
   19.7277    3.7995   19.0860 C   0  0  0  0  0  0  0  0  0  0  0  0
   18.3304    7.4958   22.0595 C   0  0  0  0  0  0  0  0  0  0  0  0
   19.4359    8.1968   21.2555 C   0  0  0  0  0  0  0  0  0  0  0  0
   19.7527    4.9862   18.4807 N   0  0  0  0  0  0  0  0  0  0  0  0
   20.8688    5.9233   18.3626 C   0  0  0  0  0  0  0  0  0  0  0  0
   20.1124    7.0308   19.1295 C   0  0  0  0  0  0  0  0  0  0  0  0
   19.3950    7.8451   18.5238 O   0  0  0  0  0  0  0  0  0  0  0  0
   20.1921    7.2473   20.4484 N   0  0  0  0  0  0  0  0  0  0  0  0
   18.9097    5.2689   18.0579 H   0  0  0  0  0  0  0  0  0  0  0  0
   20.8450    6.6943   20.9354 H   0  0  0  0  0  0  0  0  0  0  0  0
   21.3379    6.3140   16.9432 C   0  0  0  0  0  0  0  0  0  0  0  0
   22.5526    5.3902   17.0419 C   0  0  0  0  0  0  0  0  0  0  0  0
   20.2809    5.4423   16.2550 C   0  0  0  0  0  0  0  0  0  0  0  0
   20.5840    8.9949   22.3870 P   0  0  0  0  0  0  0  0  0  0  0  0
   19.8648   10.0086   23.1632 O   0  0  0  0  0  0  0  0  0  0  0  0
   21.2883    8.0005   23.1920 O   0  0  0  0  0  0  0  0  0  0  0  0
   21.5583    9.8834   21.5181 O   0  0  0  0  0  0  0  0  0  0  0  0
   22.9443    9.9787   21.6311 C   0  0  0  0  0  0  0  0  0  0  0  0
   23.0633   11.4564   21.9872 C   0  0  0  0  0  0  0  0  0  0  0  0
   22.1874   12.2241   22.2628 O   0  0  0  0  0  0  0  0  0  0  0  0
   25.2333   12.1819   22.6752 C   0  0  0  0  0  0  0  0  0  0  0  0
   24.2593   11.8700   21.5825 O   0  0  0  0  0  0  0  0  0  0  0  0
   23.7051    9.6771   20.3131 C   0  0  0  0  0  0  0  0  0  0  0  0
   24.1362    8.2411   20.1412 C   0  0  0  0  0  0  0  0  0  0  0  0
   23.5604    7.2278   20.8805 C   0  0  0  0  0  0  0  0  0  0  0  0
   25.1856    7.9230   19.2990 C   0  0  0  0  0  0  0  0  0  0  0  0
   23.9165    5.9292   20.6777 C   0  0  0  0  0  0  0  0  0  0  0  0
   25.5865    6.6090   19.1367 C   0  0  0  0  0  0  0  0  0  0  0  0
   24.9571    5.6157   19.8419 C   0  0  0  0  0  0  0  0  0  0  0  0
  1 13  2  0  0  0
  2  3  2  0  0  0
  2  7  1  0  0  0
  2 12  1  0  0  0
  3  4  1  0  0  0
  4  5  2  0  0  0
  5  6  1  0  0  0
  6  7  2  0  0  0
  6 11  1  0  0  0
  7  8  1  0  0  0
  8  9  2  0  0  0
  9 10  1  0  0  0
  9 14  1  0  0  0
 10 11  2  0  0  0
 12 13  1  0  0  0
 13 16  1  0  0  0
 14 15  1  0  0  0
 15 20  1  0  0  0
 15 26  1  0  0  0
 16 17  1  0  0  0
 17 18  1  0  0  0
 17 23  1  0  0  0
 18 19  2  0  0  0
 18 20  1  0  0  0
 23 24  1  0  0  0
 23 25  1  0  0  0
 26 27  2  0  0  0
 26 28  1  0  0  0
 26 29  1  0  0  0
 30 35  1  0  0  0
 30 31  1  0  0  0
 30 29  1  0  0  0
 35 36  1  0  0  0
 36 37  2  0  0  0
 36 38  1  0  0  0
 37 39  1  0  0  0
 38 40  2  0  0  0
 39 41  2  0  0  0
 40 41  1  0  0  0
 31 34  1  0  0  0
 31 32  2  0  0  0
 33 34  1  0  0  0
 16 21  1  0  0  0
 20 22  1  0  0  0
M  CHG 1  28  -1
M  END
> <minimizedAffinity>
-10.52064

$$$$
2WED_PP6_A_327


 41 44  0  0  0  0  0  0  0  0999 V2000
   19.2421    7.7788   18.0602 O   0  0  0  0  0  0  0  0  0  0  0  0
   22.4226    6.2758   16.9608 C   0  0  0  0  0  0  0  0  0  0  0  0
   22.7147    5.1472   16.2261 C   0  0  0  0  0  0  0  0  0  0  0  0
   23.9290    4.4429   16.3851 C   0  0  0  0  0  0  0  0  0  0  0  0
   24.9377    4.9121   17.1958 C   0  0  0  0  0  0  0  0  0  0  0  0
   24.6897    6.1049   17.9742 C   0  0  0  0  0  0  0  0  0  0  0  0
   23.4484    6.7967   17.8400 C   0  0  0  0  0  0  0  0  0  0  0  0
   23.1978    7.9187   18.6737 C   0  0  0  0  0  0  0  0  0  0  0  0
   24.1417    8.3741   19.5691 C   0  0  0  0  0  0  0  0  0  0  0  0
   25.3763    7.6937   19.6832 C   0  0  0  0  0  0  0  0  0  0  0  0
   25.6158    6.5791   18.9283 C   0  0  0  0  0  0  0  0  0  0  0  0
   21.0361    6.9050   16.8343 C   0  0  0  0  0  0  0  0  0  0  0  0
   20.2739    7.0484   18.1393 C   0  0  0  0  0  0  0  0  0  0  0  0
   23.8564    9.5719   20.4314 C   0  0  0  0  0  0  0  0  0  0  0  0
   23.0277    9.1164   21.6419 C   0  0  0  0  0  0  0  0  0  0  0  0
   20.6407    6.4913   19.2927 N   0  0  0  0  0  0  0  0  0  0  0  0
   20.0745    6.7010   20.6244 C   0  0  0  0  0  0  0  0  0  0  0  0
   21.4084    7.2443   21.1834 C   0  0  0  0  0  0  0  0  0  0  0  0
   22.2456    6.4755   21.6859 O   0  0  0  0  0  0  0  0  0  0  0  0
   21.7554    8.5366   21.2295 N   0  0  0  0  0  0  0  0  0  0  0  0
   21.3906    5.8556   19.2417 H   0  0  0  0  0  0  0  0  0  0  0  0
   21.0626    9.1774   20.9489 H   0  0  0  0  0  0  0  0  0  0  0  0
   19.5047    5.4732   21.3695 C   0  0  0  0  0  0  0  0  0  0  0  0
   18.0740    5.8406   20.9734 C   0  0  0  0  0  0  0  0  0  0  0  0
   19.9384    4.4925   20.2737 C   0  0  0  0  0  0  0  0  0  0  0  0
   22.6729   10.5333   22.6914 P   0  0  0  0  0  0  0  0  0  0  0  0
   22.5701   11.7337   21.8571 O   0  0  0  0  0  0  0  0  0  0  0  0
   21.5047   10.2740   23.5287 O   0  0  0  0  0  0  0  0  0  0  0  0
   23.9759   10.8336   23.5315 O   0  0  0  0  0  0  0  0  0  0  0  0
   24.1756   11.8687   24.4433 C   0  0  0  0  0  0  0  0  0  0  0  0
   25.6938   11.8023   24.5656 C   0  0  0  0  0  0  0  0  0  0  0  0
   26.3557   10.9783   25.1272 O   0  0  0  0  0  0  0  0  0  0  0  0
   27.0219   13.6356   25.3297 C   0  0  0  0  0  0  0  0  0  0  0  0
   26.1716   13.0065   24.2708 O   0  0  0  0  0  0  0  0  0  0  0  0
   23.5107   11.6277   25.8241 C   0  0  0  0  0  0  0  0  0  0  0  0
   22.4055   12.5933   26.1757 C   0  0  0  0  0  0  0  0  0  0  0  0
   22.4666   13.9193   25.7975 C   0  0  0  0  0  0  0  0  0  0  0  0
   21.3468   12.1854   26.9660 C   0  0  0  0  0  0  0  0  0  0  0  0
   21.4383   14.7693   26.0705 C   0  0  0  0  0  0  0  0  0  0  0  0
   20.3304   13.0650   27.2927 C   0  0  0  0  0  0  0  0  0  0  0  0
   20.3893   14.3628   26.8541 C   0  0  0  0  0  0  0  0  0  0  0  0
  1 13  2  0  0  0
  2  3  2  0  0  0
  2  7  1  0  0  0
  2 12  1  0  0  0
  3  4  1  0  0  0
  4  5  2  0  0  0
  5  6  1  0  0  0
  6  7  2  0  0  0
  6 11  1  0  0  0
  7  8  1  0  0  0
  8  9  2  0  0  0
  9 10  1  0  0  0
  9 14  1  0  0  0
 10 11  2  0  0  0
 12 13  1  0  0  0
 13 16  1  0  0  0
 14 15  1  0  0  0
 15 20  1  0  0  0
 15 26  1  0  0  0
 16 17  1  0  0  0
 17 18  1  0  0  0
 17 23  1  0  0  0
 18 19  2  0  0  0
 18 20  1  0  0  0
 23 24  1  0  0  0
 23 25  1  0  0  0
 26 27  2  0  0  0
 26 28  1  0  0  0
 26 29  1  0  0  0
 30 35  1  0  0  0
 30 31  1  0  0  0
 30 29  1  0  0  0
 35 36  1  0  0  0
 36 37  2  0  0  0
 36 38  1  0  0  0
 37 39  1  0  0  0
 38 40  2  0  0  0
 39 41  2  0  0  0
 40 41  1  0  0  0
 31 34  1  0  0  0
 31 32  2  0  0  0
 33 34  1  0  0  0
 16 21  1  0  0  0
 20 22  1  0  0  0
M  CHG 1  28  -1
M  END
> <minimizedAffinity>
-10.34363

$$$$
2WED_PP6_A_327


 41 44  0  0  0  0  0  0  0  0999 V2000
   17.2478    5.6296   23.5808 O   0  0  0  0  0  0  0  0  0  0  0  0
   19.3395    8.5266   24.4838 C   0  0  0  0  0  0  0  0  0  0  0  0
   19.0927    9.6560   25.2337 C   0  0  0  0  0  0  0  0  0  0  0  0
   19.7773   10.8708   25.0064 C   0  0  0  0  0  0  0  0  0  0  0  0
   20.8127   10.9609   24.1039 C   0  0  0  0  0  0  0  0  0  0  0  0
   21.1258    9.7974   23.3048 C   0  0  0  0  0  0  0  0  0  0  0  0
   20.4096    8.5798   23.5099 C   0  0  0  0  0  0  0  0  0  0  0  0
   20.6806    7.4760   22.6584 C   0  0  0  0  0  0  0  0  0  0  0  0
   21.6460    7.5451   21.6770 C   0  0  0  0  0  0  0  0  0  0  0  0
   22.3637    8.7495   21.4922 C   0  0  0  0  0  0  0  0  0  0  0  0
   22.0802    9.8409   22.2656 C   0  0  0  0  0  0  0  0  0  0  0  0
   18.4661    7.2908   24.6947 C   0  0  0  0  0  0  0  0  0  0  0  0
   17.7686    6.7765   23.4482 C   0  0  0  0  0  0  0  0  0  0  0  0
   21.9222    6.3580   20.7971 C   0  0  0  0  0  0  0  0  0  0  0  0
   20.8774    6.3305   19.6714 C   0  0  0  0  0  0  0  0  0  0  0  0
   17.7102    7.4335   22.2905 N   0  0  0  0  0  0  0  0  0  0  0  0
   17.2127    6.9593   21.0001 C   0  0  0  0  0  0  0  0  0  0  0  0
   18.5871    7.1492   20.3205 C   0  0  0  0  0  0  0  0  0  0  0  0
   18.8849    8.2293   19.7825 O   0  0  0  0  0  0  0  0  0  0  0  0
   19.5256    6.2018   20.2015 N   0  0  0  0  0  0  0  0  0  0  0  0
   18.0459    8.3589   22.3061 H   0  0  0  0  0  0  0  0  0  0  0  0
   19.2700    5.3031   20.5117 H   0  0  0  0  0  0  0  0  0  0  0  0
   16.0468    7.7338   20.3456 C   0  0  0  0  0  0  0  0  0  0  0  0
   15.5545    6.4759   19.6287 C   0  0  0  0  0  0  0  0  0  0  0  0
   15.2181    7.7576   21.6354 C   0  0  0  0  0  0  0  0  0  0  0  0
   21.1867    4.9174   18.6025 P   0  0  0  0  0  0  0  0  0  0  0  0
   20.4403    3.7619   19.1077 O   0  0  0  0  0  0  0  0  0  0  0  0
   20.9109    5.2560   17.2088 O   0  0  0  0  0  0  0  0  0  0  0  0
   22.6812    4.4665   18.8406 O   0  0  0  0  0  0  0  0  0  0  0  0
   23.5470    3.8830   17.9172 C   0  0  0  0  0  0  0  0  0  0  0  0
   24.1743    2.8147   18.8057 C   0  0  0  0  0  0  0  0  0  0  0  0
   24.6795    2.9505   19.8822 O   0  0  0  0  0  0  0  0  0  0  0  0
   23.2094    1.1168   17.4292 C   0  0  0  0  0  0  0  0  0  0  0  0
   24.4164    1.7531   18.0442 O   0  0  0  0  0  0  0  0  0  0  0  0
   24.6366    4.8476   17.3797 C   0  0  0  0  0  0  0  0  0  0  0  0
   24.6957    6.1888   18.0690 C   0  0  0  0  0  0  0  0  0  0  0  0
   25.3635    6.3493   19.2661 C   0  0  0  0  0  0  0  0  0  0  0  0
   24.0014    7.2689   17.5560 C   0  0  0  0  0  0  0  0  0  0  0  0
   25.4589    7.5752   19.8513 C   0  0  0  0  0  0  0  0  0  0  0  0
   24.0506    8.5013   18.1826 C   0  0  0  0  0  0  0  0  0  0  0  0
   24.7699    8.6450   19.3410 C   0  0  0  0  0  0  0  0  0  0  0  0
  1 13  2  0  0  0
  2  3  2  0  0  0
  2  7  1  0  0  0
  2 12  1  0  0  0
  3  4  1  0  0  0
  4  5  2  0  0  0
  5  6  1  0  0  0
  6  7  2  0  0  0
  6 11  1  0  0  0
  7  8  1  0  0  0
  8  9  2  0  0  0
  9 10  1  0  0  0
  9 14  1  0  0  0
 10 11  2  0  0  0
 12 13  1  0  0  0
 13 16  1  0  0  0
 14 15  1  0  0  0
 15 20  1  0  0  0
 15 26  1  0  0  0
 16 17  1  0  0  0
 17 18  1  0  0  0
 17 23  1  0  0  0
 18 19  2  0  0  0
 18 20  1  0  0  0
 23 24  1  0  0  0
 23 25  1  0  0  0
 26 27  2  0  0  0
 26 28  1  0  0  0
 26 29  1  0  0  0
 30 35  1  0  0  0
 30 31  1  0  0  0
 30 29  1  0  0  0
 35 36  1  0  0  0
 36 37  2  0  0  0
 36 38  1  0  0  0
 37 39  1  0  0  0
 38 40  2  0  0  0
 39 41  2  0  0  0
 40 41  1  0  0  0
 31 34  1  0  0  0
 31 32  2  0  0  0
 33 34  1  0  0  0
 16 21  1  0  0  0
 20 22  1  0  0  0
M  CHG 1  28  -1
M  END
> <minimizedAffinity>
-10.14913

$$$$
2WED_PP6_A_327


 41 44  0  0  0  0  0  0  0  0999 V2000
   17.1845    4.3765   22.5685 O   0  0  0  0  0  0  0  0  0  0  0  0
   19.1148    7.2931   23.7308 C   0  0  0  0  0  0  0  0  0  0  0  0
   18.8501    8.2745   24.6612 C   0  0  0  0  0  0  0  0  0  0  0  0
   19.4119    9.5673   24.5672 C   0  0  0  0  0  0  0  0  0  0  0  0
   20.3483    9.8823   23.6087 C   0  0  0  0  0  0  0  0  0  0  0  0
   20.6769    8.8805   22.6193 C   0  0  0  0  0  0  0  0  0  0  0  0
   20.0818    7.5852   22.6936 C   0  0  0  0  0  0  0  0  0  0  0  0
   20.3591    6.6459   21.6651 C   0  0  0  0  0  0  0  0  0  0  0  0
   21.2203    6.9451   20.6313 C   0  0  0  0  0  0  0  0  0  0  0  0
   21.8199    8.2247   20.5749 C   0  0  0  0  0  0  0  0  0  0  0  0
   21.5239    9.1618   21.5256 C   0  0  0  0  0  0  0  0  0  0  0  0
   18.3656    5.9645   23.8207 C   0  0  0  0  0  0  0  0  0  0  0  0
   17.5981    5.5737   22.5706 C   0  0  0  0  0  0  0  0  0  0  0  0
   21.5067    5.9284   19.5617 C   0  0  0  0  0  0  0  0  0  0  0  0
   20.3670    5.9676   18.5325 C   0  0  0  0  0  0  0  0  0  0  0  0
   17.3801    6.3830   21.5348 N   0  0  0  0  0  0  0  0  0  0  0  0
   16.8037    6.0565   20.2314 C   0  0  0  0  0  0  0  0  0  0  0  0
   18.0894    6.4689   19.4804 C   0  0  0  0  0  0  0  0  0  0  0  0
   18.2491    7.6382   19.0909 O   0  0  0  0  0  0  0  0  0  0  0  0
   19.0850    5.6393   19.1437 N   0  0  0  0  0  0  0  0  0  0  0  0
   17.6413    7.3234   21.6640 H   0  0  0  0  0  0  0  0  0  0  0  0
   18.9315    4.6855   19.3331 H   0  0  0  0  0  0  0  0  0  0  0  0
   15.5242    6.8065   19.7982 C   0  0  0  0  0  0  0  0  0  0  0  0
   14.6517    5.5898   20.1095 C   0  0  0  0  0  0  0  0  0  0  0  0
   15.4609    7.6315   21.0890 C   0  0  0  0  0  0  0  0  0  0  0  0
   20.6865    4.7586   17.2397 P   0  0  0  0  0  0  0  0  0  0  0  0
   19.5003    3.9155   17.0684 O   0  0  0  0  0  0  0  0  0  0  0  0
   21.1437    5.4184   16.0196 O   0  0  0  0  0  0  0  0  0  0  0  0
   21.7371    3.7271   17.8105 O   0  0  0  0  0  0  0  0  0  0  0  0
   22.8595    3.2151   17.1618 C   0  0  0  0  0  0  0  0  0  0  0  0
   22.4087    1.7689   16.9900 C   0  0  0  0  0  0  0  0  0  0  0  0
   22.6846    0.8221   17.6682 O   0  0  0  0  0  0  0  0  0  0  0  0
   21.2991    0.3268   15.4415 C   0  0  0  0  0  0  0  0  0  0  0  0
   21.9564    1.6360   15.7477 O   0  0  0  0  0  0  0  0  0  0  0  0
   24.1588    3.2798   18.0070 C   0  0  0  0  0  0  0  0  0  0  0  0
   24.5038    4.6487   18.5405 C   0  0  0  0  0  0  0  0  0  0  0  0
   24.7442    5.7085   17.6897 C   0  0  0  0  0  0  0  0  0  0  0  0
   24.6747    4.8466   19.8982 C   0  0  0  0  0  0  0  0  0  0  0  0
   24.9991    6.9524   18.1816 C   0  0  0  0  0  0  0  0  0  0  0  0
   24.9913    6.0984   20.3944 C   0  0  0  0  0  0  0  0  0  0  0  0
   25.1679    7.1466   19.5283 C   0  0  0  0  0  0  0  0  0  0  0  0
  1 13  2  0  0  0
  2  3  2  0  0  0
  2  7  1  0  0  0
  2 12  1  0  0  0
  3  4  1  0  0  0
  4  5  2  0  0  0
  5  6  1  0  0  0
  6  7  2  0  0  0
  6 11  1  0  0  0
  7  8  1  0  0  0
  8  9  2  0  0  0
  9 10  1  0  0  0
  9 14  1  0  0  0
 10 11  2  0  0  0
 12 13  1  0  0  0
 13 16  1  0  0  0
 14 15  1  0  0  0
 15 20  1  0  0  0
 15 26  1  0  0  0
 16 17  1  0  0  0
 17 18  1  0  0  0
 17 23  1  0  0  0
 18 19  2  0  0  0
 18 20  1  0  0  0
 23 24  1  0  0  0
 23 25  1  0  0  0
 26 27  2  0  0  0
 26 28  1  0  0  0
 26 29  1  0  0  0
 30 35  1  0  0  0
 30 31  1  0  0  0
 30 29  1  0  0  0
 35 36  1  0  0  0
 36 37  2  0  0  0
 36 38  1  0  0  0
 37 39  1  0  0  0
 38 40  2  0  0  0
 39 41  2  0  0  0
 40 41  1  0  0  0
 31 34  1  0  0  0
 31 32  2  0  0  0
 33 34  1  0  0  0
 16 21  1  0  0  0
 20 22  1  0  0  0
M  CHG 1  28  -1
M  END
> <minimizedAffinity>
-9.56876

$$$$
2WED_PP6_A_327


 41 44  0  0  0  0  0  0  0  0999 V2000
   16.7707    6.6330   21.0609 O   0  0  0  0  0  0  0  0  0  0  0  0
   17.7166    3.1553   21.8317 C   0  0  0  0  0  0  0  0  0  0  0  0
   17.5826    2.3830   22.9650 C   0  0  0  0  0  0  0  0  0  0  0  0
   18.4718    1.3257   23.2608 C   0  0  0  0  0  0  0  0  0  0  0  0
   19.4488    0.9316   22.3748 C   0  0  0  0  0  0  0  0  0  0  0  0
   19.6187    1.6970   21.1600 C   0  0  0  0  0  0  0  0  0  0  0  0
   18.7424    2.7880   20.8782 C   0  0  0  0  0  0  0  0  0  0  0  0
   18.9800    3.5732   19.7190 C   0  0  0  0  0  0  0  0  0  0  0  0
   20.0041    3.2749   18.8460 C   0  0  0  0  0  0  0  0  0  0  0  0
   20.8568    2.1813   19.1232 C   0  0  0  0  0  0  0  0  0  0  0  0
   20.6784    1.4457   20.2620 C   0  0  0  0  0  0  0  0  0  0  0  0
   16.8028    4.3658   21.6468 C   0  0  0  0  0  0  0  0  0  0  0  0
   17.5207    5.6885   21.4477 C   0  0  0  0  0  0  0  0  0  0  0  0
   20.2265    4.1147   17.6192 C   0  0  0  0  0  0  0  0  0  0  0  0
   21.0245    5.3644   18.0205 C   0  0  0  0  0  0  0  0  0  0  0  0
   18.8278    5.8727   21.6293 N   0  0  0  0  0  0  0  0  0  0  0  0
   19.6332    7.0501   21.3088 C   0  0  0  0  0  0  0  0  0  0  0  0
   20.5180    6.2625   20.3170 C   0  0  0  0  0  0  0  0  0  0  0  0
   21.5508    5.6903   20.7046 O   0  0  0  0  0  0  0  0  0  0  0  0
   20.3017    6.1673   18.9991 N   0  0  0  0  0  0  0  0  0  0  0  0
   19.3147    5.1175   22.0316 H   0  0  0  0  0  0  0  0  0  0  0  0
   19.5593    6.7089   18.6457 H   0  0  0  0  0  0  0  0  0  0  0  0
   20.3970    7.7394   22.4616 C   0  0  0  0  0  0  0  0  0  0  0  0
   20.9987    8.7707   21.5061 C   0  0  0  0  0  0  0  0  0  0  0  0
   19.1418    8.4381   22.9974 C   0  0  0  0  0  0  0  0  0  0  0  0
   21.3048    6.3873   16.5678 P   0  0  0  0  0  0  0  0  0  0  0  0
   21.7040    5.5303   15.4481 O   0  0  0  0  0  0  0  0  0  0  0  0
   20.1439    7.2324   16.3016 O   0  0  0  0  0  0  0  0  0  0  0  0
   22.6228    7.2180   16.8255 O   0  0  0  0  0  0  0  0  0  0  0  0
   23.5637    7.0215   17.8349 C   0  0  0  0  0  0  0  0  0  0  0  0
   24.0156    8.4635   18.0370 C   0  0  0  0  0  0  0  0  0  0  0  0
   24.2143    9.3004   17.2049 O   0  0  0  0  0  0  0  0  0  0  0  0
   24.1566    9.7960   20.0153 C   0  0  0  0  0  0  0  0  0  0  0  0
   24.5224    8.5556   19.2619 O   0  0  0  0  0  0  0  0  0  0  0  0
   24.7633    6.1330   17.4125 C   0  0  0  0  0  0  0  0  0  0  0  0
   24.6394    4.6763   17.7869 C   0  0  0  0  0  0  0  0  0  0  0  0
   24.6001    3.6904   16.8218 C   0  0  0  0  0  0  0  0  0  0  0  0
   24.4715    4.3066   19.1086 C   0  0  0  0  0  0  0  0  0  0  0  0
   24.5451    2.3755   17.1716 C   0  0  0  0  0  0  0  0  0  0  0  0
   24.3569    2.9733   19.4591 C   0  0  0  0  0  0  0  0  0  0  0  0
   24.3789    2.0110   18.4828 C   0  0  0  0  0  0  0  0  0  0  0  0
  1 13  2  0  0  0
  2  3  2  0  0  0
  2  7  1  0  0  0
  2 12  1  0  0  0
  3  4  1  0  0  0
  4  5  2  0  0  0
  5  6  1  0  0  0
  6  7  2  0  0  0
  6 11  1  0  0  0
  7  8  1  0  0  0
  8  9  2  0  0  0
  9 10  1  0  0  0
  9 14  1  0  0  0
 10 11  2  0  0  0
 12 13  1  0  0  0
 13 16  1  0  0  0
 14 15  1  0  0  0
 15 20  1  0  0  0
 15 26  1  0  0  0
 16 17  1  0  0  0
 17 18  1  0  0  0
 17 23  1  0  0  0
 18 19  2  0  0  0
 18 20  1  0  0  0
 23 24  1  0  0  0
 23 25  1  0  0  0
 26 27  2  0  0  0
 26 28  1  0  0  0
 26 29  1  0  0  0
 30 35  1  0  0  0
 30 31  1  0  0  0
 30 29  1  0  0  0
 35 36  1  0  0  0
 36 37  2  0  0  0
 36 38  1  0  0  0
 37 39  1  0  0  0
 38 40  2  0  0  0
 39 41  2  0  0  0
 40 41  1  0  0  0
 31 34  1  0  0  0
 31 32  2  0  0  0
 33 34  1  0  0  0
 16 21  1  0  0  0
 20 22  1  0  0  0
M  CHG 1  28  -1
M  END
> <minimizedAffinity>
-9.50265

$$$$
2WED_PP6_A_327


 41 44  0  0  0  0  0  0  0  0999 V2000
   17.2690    2.7900   21.1468 O   0  0  0  0  0  0  0  0  0  0  0  0
   17.9248    5.6047   23.4338 C   0  0  0  0  0  0  0  0  0  0  0  0
   17.2508    6.0867   24.5349 C   0  0  0  0  0  0  0  0  0  0  0  0
   17.3183    7.4443   24.9197 C   0  0  0  0  0  0  0  0  0  0  0  0
   18.1551    8.3358   24.2874 C   0  0  0  0  0  0  0  0  0  0  0  0
   18.9007    7.8753   23.1374 C   0  0  0  0  0  0  0  0  0  0  0  0
   18.8048    6.5115   22.7270 C   0  0  0  0  0  0  0  0  0  0  0  0
   19.4834    6.1035   21.5480 C   0  0  0  0  0  0  0  0  0  0  0  0
   20.2621    6.9823   20.8261 C   0  0  0  0  0  0  0  0  0  0  0  0
   20.3664    8.3276   21.2497 C   0  0  0  0  0  0  0  0  0  0  0  0
   19.6775    8.7536   22.3515 C   0  0  0  0  0  0  0  0  0  0  0  0
   17.6963    4.1579   22.9990 C   0  0  0  0  0  0  0  0  0  0  0  0
   17.2249    3.9842   21.5665 C   0  0  0  0  0  0  0  0  0  0  0  0
   20.9803    6.5220   19.5884 C   0  0  0  0  0  0  0  0  0  0  0  0
   19.9908    6.5411   18.4136 C   0  0  0  0  0  0  0  0  0  0  0  0
   16.8175    4.9796   20.7800 N   0  0  0  0  0  0  0  0  0  0  0  0
   16.5053    4.9406   19.3521 C   0  0  0  0  0  0  0  0  0  0  0  0
   17.6151    5.9593   19.0094 C   0  0  0  0  0  0  0  0  0  0  0  0
   17.3771    7.1791   19.0045 O   0  0  0  0  0  0  0  0  0  0  0  0
   18.8657    5.6447   18.6494 N   0  0  0  0  0  0  0  0  0  0  0  0
   16.7131    5.8554   21.2173 H   0  0  0  0  0  0  0  0  0  0  0  0
   19.0489    4.6849   18.5283 H   0  0  0  0  0  0  0  0  0  0  0  0
   15.0823    5.3508   18.9116 C   0  0  0  0  0  0  0  0  0  0  0  0
   15.2317    4.6096   17.5823 C   0  0  0  0  0  0  0  0  0  0  0  0
   14.4046    4.3197   19.8216 C   0  0  0  0  0  0  0  0  0  0  0  0
   20.8270    5.9939   16.9181 P   0  0  0  0  0  0  0  0  0  0  0  0
   19.8646    5.3010   16.0573 O   0  0  0  0  0  0  0  0  0  0  0  0
   21.5203    7.1091   16.2787 O   0  0  0  0  0  0  0  0  0  0  0  0
   21.8000    4.8193   17.3270 O   0  0  0  0  0  0  0  0  0  0  0  0
   22.8192    4.2581   16.5594 C   0  0  0  0  0  0  0  0  0  0  0  0
   22.2920    2.8317   16.4516 C   0  0  0  0  0  0  0  0  0  0  0  0
   21.7856    2.2992   15.5069 O   0  0  0  0  0  0  0  0  0  0  0  0
   22.6437    0.9811   17.9214 C   0  0  0  0  0  0  0  0  0  0  0  0
   22.1351    2.3690   17.6873 O   0  0  0  0  0  0  0  0  0  0  0  0
   24.2076    4.2707   17.2515 C   0  0  0  0  0  0  0  0  0  0  0  0
   24.3883    5.3443   18.2966 C   0  0  0  0  0  0  0  0  0  0  0  0
   24.3448    5.0463   19.6435 C   0  0  0  0  0  0  0  0  0  0  0  0
   24.5120    6.6696   17.9223 C   0  0  0  0  0  0  0  0  0  0  0  0
   24.5652    6.0122   20.5778 C   0  0  0  0  0  0  0  0  0  0  0  0
   24.6776    7.6592   18.8747 C   0  0  0  0  0  0  0  0  0  0  0  0
   24.6879    7.3257   20.2046 C   0  0  0  0  0  0  0  0  0  0  0  0
  1 13  2  0  0  0
  2  3  2  0  0  0
  2  7  1  0  0  0
  2 12  1  0  0  0
  3  4  1  0  0  0
  4  5  2  0  0  0
  5  6  1  0  0  0
  6  7  2  0  0  0
  6 11  1  0  0  0
  7  8  1  0  0  0
  8  9  2  0  0  0
  9 10  1  0  0  0
  9 14  1  0  0  0
 10 11  2  0  0  0
 12 13  1  0  0  0
 13 16  1  0  0  0
 14 15  1  0  0  0
 15 20  1  0  0  0
 15 26  1  0  0  0
 16 17  1  0  0  0
 17 18  1  0  0  0
 17 23  1  0  0  0
 18 19  2  0  0  0
 18 20  1  0  0  0
 23 24  1  0  0  0
 23 25  1  0  0  0
 26 27  2  0  0  0
 26 28  1  0  0  0
 26 29  1  0  0  0
 30 35  1  0  0  0
 30 31  1  0  0  0
 30 29  1  0  0  0
 35 36  1  0  0  0
 36 37  2  0  0  0
 36 38  1  0  0  0
 37 39  1  0  0  0
 38 40  2  0  0  0
 39 41  2  0  0  0
 40 41  1  0  0  0
 31 34  1  0  0  0
 31 32  2  0  0  0
 33 34  1  0  0  0
 16 21  1  0  0  0
 20 22  1  0  0  0
M  CHG 1  28  -1
M  END
> <minimizedAffinity>
-9.30255

$$$$
