2XYS_SY9_A_1206


 25 31  0  0  0  0  0  0  0  0999 V2000
  -42.5381    7.1051  -17.0526 C   0  0  0  0  0  0  0  0  0  0  0  0
  -41.6500    6.6661  -18.2226 C   0  0  0  0  0  0  0  0  0  0  0  0
  -40.4867    5.8339  -17.7043 C   0  0  0  0  0  0  0  0  0  0  0  0
  -41.0401    4.5439  -17.0957 C   0  0  0  0  0  0  0  0  0  0  0  0
  -41.9976    4.8081  -15.9388 C   0  0  0  0  0  0  0  0  0  0  0  0
  -42.8397    3.6042  -15.8576 N   0  0  0  0  0  0  0  0  0  0  0  0
  -44.1788    3.8859  -16.1136 C   0  0  0  0  0  0  0  0  0  0  0  0
  -45.2445    2.9995  -16.2793 C   0  0  0  0  0  0  0  0  0  0  0  0
  -46.5039    3.4677  -16.6166 C   0  0  0  0  0  0  0  0  0  0  0  0
  -46.6797    4.8292  -16.8287 C   0  0  0  0  0  0  0  0  0  0  0  0
  -45.6106    5.7130  -16.6970 C   0  0  0  0  0  0  0  0  0  0  0  0
  -44.3434    5.2439  -16.3837 C   0  0  0  0  0  0  0  0  0  0  0  0
  -43.0053    5.9606  -16.1121 C   0  0  0  0  0  0  0  0  0  0  0  0
  -43.1983    6.6952  -14.7868 C   0  0  0  0  0  0  0  0  0  0  0  0
  -41.9227    7.5257  -14.7579 C   0  0  0  0  0  0  0  0  0  0  0  0
  -41.7798    8.0329  -16.1502 N   0  0  0  0  0  0  0  0  0  0  0  0
  -40.3311    8.0932  -16.4199 C   0  0  0  0  0  0  0  0  0  0  0  0
  -39.8154    6.6796  -16.6634 C   0  0  0  0  0  0  0  0  0  0  0  0
  -38.7605    6.2993  -15.8521 C   0  0  0  0  0  0  0  0  0  0  0  0
  -38.2041    5.0269  -15.9432 C   0  0  0  0  0  0  0  0  0  0  0  0
  -39.0431    3.8839  -15.6487 O   0  0  0  0  0  0  0  0  0  0  0  0
  -39.9953    3.4978  -16.6368 C   0  0  0  0  0  0  0  0  0  0  0  0
  -40.6638    2.3167  -15.8480 C   0  0  0  0  0  0  0  0  0  0  0  0
  -42.1929    2.3758  -15.8961 C   0  0  0  0  0  0  0  0  0  0  0  0
  -42.9443    1.2410  -15.8670 O   0  0  0  0  0  0  0  0  0  0  0  0
  1  2  1  0  0  0
  1 13  1  0  0  0
  1 16  1  0  0  0
  2  3  1  0  0  0
  3  4  1  0  0  0
  3 18  1  0  0  0
  4  5  1  0  0  0
  4 22  1  0  0  0
  5  6  1  0  0  0
  5 13  1  0  0  0
  6  7  1  0  0  0
  6 24  1  0  0  0
  7  8  1  0  0  0
  7 12  2  0  0  0
  8  9  2  0  0  0
  9 10  1  0  0  0
 10 11  2  0  0  0
 11 12  1  0  0  0
 12 13  1  0  0  0
 13 14  1  0  0  0
 14 15  1  0  0  0
 15 16  1  0  0  0
 16 17  1  0  0  0
 17 18  1  0  0  0
 18 19  2  0  0  0
 19 20  1  0  0  0
 20 21  1  0  0  0
 21 22  1  0  0  0
 22 23  1  0  0  0
 23 24  1  0  0  0
 24 25  2  0  0  0
M  END
> <minimizedAffinity>
-11.37887

$$$$
2XYS_SY9_A_1206


 25 31  0  0  0  0  0  0  0  0999 V2000
  -41.5292    7.1723  -15.9869 C   0  0  0  0  0  0  0  0  0  0  0  0
  -42.3767    7.0371  -14.7166 C   0  0  0  0  0  0  0  0  0  0  0  0
  -43.5171    6.0595  -14.9579 C   0  0  0  0  0  0  0  0  0  0  0  0
  -42.9265    4.6714  -15.2131 C   0  0  0  0  0  0  0  0  0  0  0  0
  -42.0026    4.6441  -16.4259 C   0  0  0  0  0  0  0  0  0  0  0  0
  -41.1166    3.4902  -16.2048 N   0  0  0  0  0  0  0  0  0  0  0  0
  -39.7845    3.8730  -16.0733 C   0  0  0  0  0  0  0  0  0  0  0  0
  -38.6826    3.0984  -15.7065 C   0  0  0  0  0  0  0  0  0  0  0  0
  -37.4357    3.6800  -15.5443 C   0  0  0  0  0  0  0  0  0  0  0  0
  -37.3084    5.0531  -15.7113 C   0  0  0  0  0  0  0  0  0  0  0  0
  -38.4129    5.8342  -16.0446 C   0  0  0  0  0  0  0  0  0  0  0  0
  -39.6671    5.2579  -16.1831 C   0  0  0  0  0  0  0  0  0  0  0  0
  -41.0368    5.8320  -16.5983 C   0  0  0  0  0  0  0  0  0  0  0  0
  -40.8981    6.1876  -18.0773 C   0  0  0  0  0  0  0  0  0  0  0  0
  -42.2049    6.9386  -18.2912 C   0  0  0  0  0  0  0  0  0  0  0  0
  -42.3401    7.7977  -17.0831 N   0  0  0  0  0  0  0  0  0  0  0  0
  -43.7844    7.8824  -16.7974 C   0  0  0  0  0  0  0  0  0  0  0  0
  -44.2406    6.5713  -16.1678 C   0  0  0  0  0  0  0  0  0  0  0  0
  -45.2957    5.9530  -16.8160 C   0  0  0  0  0  0  0  0  0  0  0  0
  -45.8009    4.7353  -16.3699 C   0  0  0  0  0  0  0  0  0  0  0  0
  -44.9245    3.5824  -16.3705 O   0  0  0  0  0  0  0  0  0  0  0  0
  -43.9390    3.5076  -15.3432 C   0  0  0  0  0  0  0  0  0  0  0  0
  -43.2411    2.1794  -15.8045 C   0  0  0  0  0  0  0  0  0  0  0  0
  -41.7148    2.2978  -15.8187 C   0  0  0  0  0  0  0  0  0  0  0  0
  -40.9210    1.2217  -15.5635 O   0  0  0  0  0  0  0  0  0  0  0  0
  1  2  1  0  0  0
  1 13  1  0  0  0
  1 16  1  0  0  0
  2  3  1  0  0  0
  3  4  1  0  0  0
  3 18  1  0  0  0
  4  5  1  0  0  0
  4 22  1  0  0  0
  5  6  1  0  0  0
  5 13  1  0  0  0
  6  7  1  0  0  0
  6 24  1  0  0  0
  7  8  1  0  0  0
  7 12  2  0  0  0
  8  9  2  0  0  0
  9 10  1  0  0  0
 10 11  2  0  0  0
 11 12  1  0  0  0
 12 13  1  0  0  0
 13 14  1  0  0  0
 14 15  1  0  0  0
 15 16  1  0  0  0
 16 17  1  0  0  0
 17 18  1  0  0  0
 18 19  2  0  0  0
 19 20  1  0  0  0
 20 21  1  0  0  0
 21 22  1  0  0  0
 22 23  1  0  0  0
 23 24  1  0  0  0
 24 25  2  0  0  0
M  END
> <minimizedAffinity>
-11.11828

$$$$
2XYS_SY9_A_1206


 25 31  0  0  0  0  0  0  0  0999 V2000
  -43.9708    6.0793  -16.6940 C   0  0  0  0  0  0  0  0  0  0  0  0
  -43.4592    6.4054  -18.1019 C   0  0  0  0  0  0  0  0  0  0  0  0
  -42.0839    7.0498  -18.0155 C   0  0  0  0  0  0  0  0  0  0  0  0
  -41.0997    6.0285  -17.4418 C   0  0  0  0  0  0  0  0  0  0  0  0
  -41.4980    5.5525  -16.0490 C   0  0  0  0  0  0  0  0  0  0  0  0
  -40.8471    4.2421  -15.8928 N   0  0  0  0  0  0  0  0  0  0  0  0
  -41.7737    3.2133  -15.7480 C   0  0  0  0  0  0  0  0  0  0  0  0
  -41.5562    1.8344  -15.7303 C   0  0  0  0  0  0  0  0  0  0  0  0
  -42.6236    0.9540  -15.6620 C   0  0  0  0  0  0  0  0  0  0  0  0
  -43.9155    1.4643  -15.6541 C   0  0  0  0  0  0  0  0  0  0  0  0
  -44.1372    2.8389  -15.7055 C   0  0  0  0  0  0  0  0  0  0  0  0
  -43.0711    3.7213  -15.7990 C   0  0  0  0  0  0  0  0  0  0  0  0
  -42.9916    5.2613  -15.8083 C   0  0  0  0  0  0  0  0  0  0  0  0
  -43.3931    5.6984  -14.4008 C   0  0  0  0  0  0  0  0  0  0  0  0
  -43.4973    7.2025  -14.6119 C   0  0  0  0  0  0  0  0  0  0  0  0
  -44.1925    7.3453  -15.9205 N   0  0  0  0  0  0  0  0  0  0  0  0
  -43.6306    8.5517  -16.5559 C   0  0  0  0  0  0  0  0  0  0  0  0
  -42.2435    8.2240  -17.0962 C   0  0  0  0  0  0  0  0  0  0  0  0
  -41.2341    9.0573  -16.6462 C   0  0  0  0  0  0  0  0  0  0  0  0
  -39.9120    8.8619  -17.0344 C   0  0  0  0  0  0  0  0  0  0  0  0
  -39.2609    7.6215  -16.6677 O   0  0  0  0  0  0  0  0  0  0  0  0
  -39.6115    6.4538  -17.4065 C   0  0  0  0  0  0  0  0  0  0  0  0
  -38.7312    5.4217  -16.6167 C   0  0  0  0  0  0  0  0  0  0  0  0
  -39.5077    4.1544  -16.2494 C   0  0  0  0  0  0  0  0  0  0  0  0
  -38.8856    2.9468  -16.1588 O   0  0  0  0  0  0  0  0  0  0  0  0
  1  2  1  0  0  0
  1 13  1  0  0  0
  1 16  1  0  0  0
  2  3  1  0  0  0
  3  4  1  0  0  0
  3 18  1  0  0  0
  4  5  1  0  0  0
  4 22  1  0  0  0
  5  6  1  0  0  0
  5 13  1  0  0  0
  6  7  1  0  0  0
  6 24  1  0  0  0
  7  8  1  0  0  0
  7 12  2  0  0  0
  8  9  2  0  0  0
  9 10  1  0  0  0
 10 11  2  0  0  0
 11 12  1  0  0  0
 12 13  1  0  0  0
 13 14  1  0  0  0
 14 15  1  0  0  0
 15 16  1  0  0  0
 16 17  1  0  0  0
 17 18  1  0  0  0
 18 19  2  0  0  0
 19 20  1  0  0  0
 20 21  1  0  0  0
 21 22  1  0  0  0
 22 23  1  0  0  0
 23 24  1  0  0  0
 24 25  2  0  0  0
M  END
> <minimizedAffinity>
-10.02737

$$$$
2XYS_SY9_A_1206


 25 31  0  0  0  0  0  0  0  0999 V2000
  -41.2069    6.3886  -15.9284 C   0  0  0  0  0  0  0  0  0  0  0  0
  -41.9605    7.1708  -14.8465 C   0  0  0  0  0  0  0  0  0  0  0  0
  -43.2645    7.7115  -15.4136 C   0  0  0  0  0  0  0  0  0  0  0  0
  -44.1670    6.5309  -15.7777 C   0  0  0  0  0  0  0  0  0  0  0  0
  -43.5341    5.6107  -16.8158 C   0  0  0  0  0  0  0  0  0  0  0  0
  -44.2015    4.3123  -16.6325 N   0  0  0  0  0  0  0  0  0  0  0  0
  -43.3111    3.3200  -16.2316 C   0  0  0  0  0  0  0  0  0  0  0  0
  -43.5826    2.0159  -15.8138 C   0  0  0  0  0  0  0  0  0  0  0  0
  -42.5620    1.1928  -15.3667 C   0  0  0  0  0  0  0  0  0  0  0  0
  -41.2704    1.6999  -15.3010 C   0  0  0  0  0  0  0  0  0  0  0  0
  -41.0013    3.0117  -15.6856 C   0  0  0  0  0  0  0  0  0  0  0  0
  -42.0254    3.8455  -16.1099 C   0  0  0  0  0  0  0  0  0  0  0  0
  -42.0364    5.2905  -16.6484 C   0  0  0  0  0  0  0  0  0  0  0  0
  -41.3567    5.2213  -18.0146 C   0  0  0  0  0  0  0  0  0  0  0  0
  -41.2273    6.7071  -18.3199 C   0  0  0  0  0  0  0  0  0  0  0  0
  -40.7865    7.3122  -17.0332 N   0  0  0  0  0  0  0  0  0  0  0  0
  -41.4041    8.6502  -16.9743 C   0  0  0  0  0  0  0  0  0  0  0  0
  -42.8816    8.4970  -16.6325 C   0  0  0  0  0  0  0  0  0  0  0  0
  -43.7494    9.0973  -17.5282 C   0  0  0  0  0  0  0  0  0  0  0  0
  -45.1285    9.0168  -17.3591 C   0  0  0  0  0  0  0  0  0  0  0  0
  -45.7531    7.7108  -17.3933 O   0  0  0  0  0  0  0  0  0  0  0  0
  -45.6011    6.8811  -16.2440 C   0  0  0  0  0  0  0  0  0  0  0  0
  -46.3613    5.6180  -16.7828 C   0  0  0  0  0  0  0  0  0  0  0  0
  -45.5867    4.3212  -16.5329 C   0  0  0  0  0  0  0  0  0  0  0  0
  -46.2337    3.1426  -16.3193 O   0  0  0  0  0  0  0  0  0  0  0  0
  1  2  1  0  0  0
  1 13  1  0  0  0
  1 16  1  0  0  0
  2  3  1  0  0  0
  3  4  1  0  0  0
  3 18  1  0  0  0
  4  5  1  0  0  0
  4 22  1  0  0  0
  5  6  1  0  0  0
  5 13  1  0  0  0
  6  7  1  0  0  0
  6 24  1  0  0  0
  7  8  1  0  0  0
  7 12  2  0  0  0
  8  9  2  0  0  0
  9 10  1  0  0  0
 10 11  2  0  0  0
 11 12  1  0  0  0
 12 13  1  0  0  0
 13 14  1  0  0  0
 14 15  1  0  0  0
 15 16  1  0  0  0
 16 17  1  0  0  0
 17 18  1  0  0  0
 18 19  2  0  0  0
 19 20  1  0  0  0
 20 21  1  0  0  0
 21 22  1  0  0  0
 22 23  1  0  0  0
 23 24  1  0  0  0
 24 25  2  0  0  0
M  END
> <minimizedAffinity>
-8.64687

$$$$
2XYS_SY9_A_1206


 25 31  0  0  0  0  0  0  0  0999 V2000
  -40.9782    5.2877  -15.0807 C   0  0  0  0  0  0  0  0  0  0  0  0
  -41.3809    6.4488  -14.1643 C   0  0  0  0  0  0  0  0  0  0  0  0
  -41.7658    7.6588  -15.0021 C   0  0  0  0  0  0  0  0  0  0  0  0
  -43.0173    7.3154  -15.8124 C   0  0  0  0  0  0  0  0  0  0  0  0
  -42.8007    6.1304  -16.7471 C   0  0  0  0  0  0  0  0  0  0  0  0
  -44.1457    5.5863  -16.9918 N   0  0  0  0  0  0  0  0  0  0  0  0
  -44.2785    4.2869  -16.5100 C   0  0  0  0  0  0  0  0  0  0  0  0
  -45.4282    3.5007  -16.4156 C   0  0  0  0  0  0  0  0  0  0  0  0
  -45.3790    2.2496  -15.8229 C   0  0  0  0  0  0  0  0  0  0  0  0
  -44.1765    1.8076  -15.2862 C   0  0  0  0  0  0  0  0  0  0  0  0
  -43.0348    2.6038  -15.3488 C   0  0  0  0  0  0  0  0  0  0  0  0
  -43.0874    3.8669  -15.9194 C   0  0  0  0  0  0  0  0  0  0  0  0
  -42.0069    4.9336  -16.1893 C   0  0  0  0  0  0  0  0  0  0  0  0
  -41.1128    4.3416  -17.2772 C   0  0  0  0  0  0  0  0  0  0  0  0
  -39.9867    5.3660  -17.2789 C   0  0  0  0  0  0  0  0  0  0  0  0
  -39.7313    5.6376  -15.8377 N   0  0  0  0  0  0  0  0  0  0  0  0
  -39.3449    7.0581  -15.7484 C   0  0  0  0  0  0  0  0  0  0  0  0
  -40.5934    7.9193  -15.9004 C   0  0  0  0  0  0  0  0  0  0  0  0
  -40.5238    8.8692  -16.9047 C   0  0  0  0  0  0  0  0  0  0  0  0
  -41.5993    9.7096  -17.1770 C   0  0  0  0  0  0  0  0  0  0  0  0
  -42.8458    9.1160  -17.6141 O   0  0  0  0  0  0  0  0  0  0  0  0
  -43.6470    8.4719  -16.6265 C   0  0  0  0  0  0  0  0  0  0  0  0
  -44.7916    7.9610  -17.5713 C   0  0  0  0  0  0  0  0  0  0  0  0
  -45.1459    6.4935  -17.3165 C   0  0  0  0  0  0  0  0  0  0  0  0
  -46.4116    6.0297  -17.5068 O   0  0  0  0  0  0  0  0  0  0  0  0
  1  2  1  0  0  0
  1 13  1  0  0  0
  1 16  1  0  0  0
  2  3  1  0  0  0
  3  4  1  0  0  0
  3 18  1  0  0  0
  4  5  1  0  0  0
  4 22  1  0  0  0
  5  6  1  0  0  0
  5 13  1  0  0  0
  6  7  1  0  0  0
  6 24  1  0  0  0
  7  8  1  0  0  0
  7 12  2  0  0  0
  8  9  2  0  0  0
  9 10  1  0  0  0
 10 11  2  0  0  0
 11 12  1  0  0  0
 12 13  1  0  0  0
 13 14  1  0  0  0
 14 15  1  0  0  0
 15 16  1  0  0  0
 16 17  1  0  0  0
 17 18  1  0  0  0
 18 19  2  0  0  0
 19 20  1  0  0  0
 20 21  1  0  0  0
 21 22  1  0  0  0
 22 23  1  0  0  0
 23 24  1  0  0  0
 24 25  2  0  0  0
M  END
> <minimizedAffinity>
-8.54767

$$$$
2XYS_SY9_A_1206


 25 31  0  0  0  0  0  0  0  0999 V2000
  -41.0521    7.4067  -17.3331 C   0  0  0  0  0  0  0  0  0  0  0  0
  -40.5573    6.4887  -18.4568 C   0  0  0  0  0  0  0  0  0  0  0  0
  -39.8873    5.2591  -17.8621 C   0  0  0  0  0  0  0  0  0  0  0  0
  -40.9373    4.4509  -17.0971 C   0  0  0  0  0  0  0  0  0  0  0  0
  -41.5762    5.2476  -15.9648 C   0  0  0  0  0  0  0  0  0  0  0  0
  -42.8766    4.6006  -15.7292 N   0  0  0  0  0  0  0  0  0  0  0  0
  -43.9413    5.4571  -15.9958 C   0  0  0  0  0  0  0  0  0  0  0  0
  -45.3068    5.1702  -16.0393 C   0  0  0  0  0  0  0  0  0  0  0  0
  -46.2195    6.1441  -16.4099 C   0  0  0  0  0  0  0  0  0  0  0  0
  -45.7505    7.3986  -16.7783 C   0  0  0  0  0  0  0  0  0  0  0  0
  -44.3856    7.6784  -16.7683 C   0  0  0  0  0  0  0  0  0  0  0  0
  -43.4681    6.6976  -16.4215 C   0  0  0  0  0  0  0  0  0  0  0  0
  -41.9349    6.7171  -16.2571 C   0  0  0  0  0  0  0  0  0  0  0  0
  -41.6683    7.5795  -15.0248 C   0  0  0  0  0  0  0  0  0  0  0  0
  -40.1537    7.7048  -15.1138 C   0  0  0  0  0  0  0  0  0  0  0  0
  -39.8867    7.9466  -16.5582 N   0  0  0  0  0  0  0  0  0  0  0  0
  -38.6016    7.2869  -16.8555 C   0  0  0  0  0  0  0  0  0  0  0  0
  -38.8274    5.7818  -16.9387 C   0  0  0  0  0  0  0  0  0  0  0  0
  -38.0206    5.0274  -16.1046 C   0  0  0  0  0  0  0  0  0  0  0  0
  -38.1338    3.6412  -16.0536 C   0  0  0  0  0  0  0  0  0  0  0  0
  -39.3881    3.0666  -15.6135 O   0  0  0  0  0  0  0  0  0  0  0  0
  -40.4762    3.0845  -16.5344 C   0  0  0  0  0  0  0  0  0  0  0  0
  -41.5639    2.4436  -15.6015 C   0  0  0  0  0  0  0  0  0  0  0  0
  -42.8858    3.2152  -15.6325 C   0  0  0  0  0  0  0  0  0  0  0  0
  -44.0777    2.5807  -15.4582 O   0  0  0  0  0  0  0  0  0  0  0  0
  1  2  1  0  0  0
  1 13  1  0  0  0
  1 16  1  0  0  0
  2  3  1  0  0  0
  3  4  1  0  0  0
  3 18  1  0  0  0
  4  5  1  0  0  0
  4 22  1  0  0  0
  5  6  1  0  0  0
  5 13  1  0  0  0
  6  7  1  0  0  0
  6 24  1  0  0  0
  7  8  1  0  0  0
  7 12  2  0  0  0
  8  9  2  0  0  0
  9 10  1  0  0  0
 10 11  2  0  0  0
 11 12  1  0  0  0
 12 13  1  0  0  0
 13 14  1  0  0  0
 14 15  1  0  0  0
 15 16  1  0  0  0
 16 17  1  0  0  0
 17 18  1  0  0  0
 18 19  2  0  0  0
 19 20  1  0  0  0
 20 21  1  0  0  0
 21 22  1  0  0  0
 22 23  1  0  0  0
 23 24  1  0  0  0
 24 25  2  0  0  0
M  END
> <minimizedAffinity>
-8.46469

$$$$
