3OCZ_SRA_A_264


 29 31  0  0  0  0  0  0  0  0999 V2000
   41.3349  -12.0207  -11.1178 C   0  0  0  0  0  0  0  0  0  0  0  0
   42.4467  -12.9167  -11.2728 O   0  0  0  0  0  0  0  0  0  0  0  0
   41.6277  -11.2754   -9.8244 C   0  0  0  0  0  0  0  0  0  0  0  0
   40.4647  -10.7280   -9.2221 O   0  0  0  0  0  0  0  0  0  0  0  0
   42.2998  -12.3432   -8.9776 C   0  0  0  0  0  0  0  0  0  0  0  0
   43.0837  -13.1078  -10.0359 C   0  0  0  0  0  0  0  0  0  0  0  0
   41.3388  -13.2269   -8.4278 O   0  0  0  0  0  0  0  0  0  0  0  0
   39.8274  -11.4376   -9.0457 H   0  0  0  0  0  0  0  0  0  0  0  0
   40.8030  -13.6067   -9.1417 H   0  0  0  0  0  0  0  0  0  0  0  0
   44.4627  -12.6385  -10.1543 N   0  0  0  0  0  0  0  0  0  0  0  0
   44.9947  -11.5091  -10.7981 C   0  0  0  0  0  0  0  0  0  0  0  0
   46.3439  -11.5281  -10.5625 N   0  0  0  0  0  0  0  0  0  0  0  0
   46.6344  -12.7018   -9.7576 C   0  0  0  0  0  0  0  0  0  0  0  0
   47.8406  -13.2182   -9.1966 C   0  0  0  0  0  0  0  0  0  0  0  0
   49.0681  -12.4831   -9.3707 N   0  0  0  0  0  0  0  0  0  0  0  0
   47.7991  -14.3894   -8.4598 N   0  0  0  0  0  0  0  0  0  0  0  0
   46.5978  -15.0773   -8.2391 C   0  0  0  0  0  0  0  0  0  0  0  0
   45.4268  -14.5745   -8.7568 N   0  0  0  0  0  0  0  0  0  0  0  0
   45.4939  -13.3582   -9.5307 C   0  0  0  0  0  0  0  0  0  0  0  0
   49.0738  -11.6524   -9.8990 H   0  0  0  0  0  0  0  0  0  0  0  0
   49.9010  -12.8117   -8.9612 H   0  0  0  0  0  0  0  0  0  0  0  0
   41.2139  -11.1797  -12.3464 C   0  0  0  0  0  0  0  0  0  0  0  0
   42.4865  -10.8119  -12.8031 O   0  0  0  0  0  0  0  0  0  0  0  0
   42.8770  -10.9574  -14.3169 P   0  0  0  0  0  0  0  0  0  0  0  0
   43.2234   -9.4888  -14.8954 O   0  0  0  0  0  0  0  0  0  0  0  0
   44.5794  -12.1743  -14.3445 S   0  0  0  0  0  0  0  0  0  0  0  0
   41.8258  -11.7346  -14.9581 O   0  0  0  0  0  0  0  0  0  0  0  0
   43.4674   -9.5593  -15.8315 H   0  0  0  0  0  0  0  0  0  0  0  0
   42.0338  -11.8454  -15.8990 H   0  0  0  0  0  0  0  0  0  0  0  0
 24 25  1  0  0  0
 24 26  2  0  0  0
 24 27  1  0  0  0
 24 23  1  0  0  0
 23 22  1  0  0  0
 22  1  1  0  0  0
  1  2  1  0  0  0
  1  3  1  0  0  0
  2  6  1  0  0  0
  3  4  1  0  0  0
  3  5  1  0  0  0
  5  6  1  0  0  0
  5  7  1  0  0  0
  6 10  1  0  0  0
 10 11  1  0  0  0
 10 19  1  0  0  0
 11 12  2  0  0  0
 12 13  1  0  0  0
 13 14  1  0  0  0
 13 19  2  0  0  0
 14 15  1  0  0  0
 14 16  2  0  0  0
 16 17  1  0  0  0
 17 18  2  0  0  0
 18 19  1  0  0  0
 25 28  1  0  0  0
 27 29  1  0  0  0
  4  8  1  0  0  0
 15 20  1  0  0  0
 15 21  1  0  0  0
  7  9  1  0  0  0
M  END
> <minimizedAffinity>
-9.42848

$$$$
3OCZ_SRA_A_264


 29 31  0  0  0  0  0  0  0  0999 V2000
   43.0942  -13.0397   -8.8593 C   0  0  0  0  0  0  0  0  0  0  0  0
   43.5559  -11.8003   -9.4191 O   0  0  0  0  0  0  0  0  0  0  0  0
   42.1024  -13.5706   -9.8833 C   0  0  0  0  0  0  0  0  0  0  0  0
   41.1708  -14.4888   -9.3316 O   0  0  0  0  0  0  0  0  0  0  0  0
   41.4578  -12.2969  -10.4039 C   0  0  0  0  0  0  0  0  0  0  0  0
   42.6397  -11.3369  -10.3773 C   0  0  0  0  0  0  0  0  0  0  0  0
   40.4879  -11.8152   -9.4907 O   0  0  0  0  0  0  0  0  0  0  0  0
   40.6863  -14.0621   -8.6076 H   0  0  0  0  0  0  0  0  0  0  0  0
   40.8971  -11.6911   -8.6200 H   0  0  0  0  0  0  0  0  0  0  0  0
   43.3246  -11.2616  -11.6661 N   0  0  0  0  0  0  0  0  0  0  0  0
   42.8701  -11.5481  -12.9641 C   0  0  0  0  0  0  0  0  0  0  0  0
   43.9103  -11.2674  -13.8099 N   0  0  0  0  0  0  0  0  0  0  0  0
   45.0233  -10.8023  -13.0007 C   0  0  0  0  0  0  0  0  0  0  0  0
   46.3372  -10.3514  -13.3271 C   0  0  0  0  0  0  0  0  0  0  0  0
   46.7267  -10.2636  -14.7121 N   0  0  0  0  0  0  0  0  0  0  0  0
   47.1941   -9.9655  -12.3107 N   0  0  0  0  0  0  0  0  0  0  0  0
   46.7999   -9.9944  -10.9658 C   0  0  0  0  0  0  0  0  0  0  0  0
   45.5275  -10.4059  -10.6437 N   0  0  0  0  0  0  0  0  0  0  0  0
   44.6539  -10.8139  -11.7176 C   0  0  0  0  0  0  0  0  0  0  0  0
   46.1006  -10.5438  -15.4183 H   0  0  0  0  0  0  0  0  0  0  0  0
   47.6189   -9.9234  -14.9519 H   0  0  0  0  0  0  0  0  0  0  0  0
   44.2724  -13.9125   -8.5737 C   0  0  0  0  0  0  0  0  0  0  0  0
   44.2173  -15.0670   -9.3659 O   0  0  0  0  0  0  0  0  0  0  0  0
   45.4369  -16.0524   -9.4471 P   0  0  0  0  0  0  0  0  0  0  0  0
   45.8193  -16.2598  -11.0034 O   0  0  0  0  0  0  0  0  0  0  0  0
   46.9989  -15.0995   -8.4312 S   0  0  0  0  0  0  0  0  0  0  0  0
   45.0989  -17.2201   -8.6455 O   0  0  0  0  0  0  0  0  0  0  0  0
   46.5725  -16.8671  -11.0732 H   0  0  0  0  0  0  0  0  0  0  0  0
   45.8327  -17.8540   -8.6722 H   0  0  0  0  0  0  0  0  0  0  0  0
 24 25  1  0  0  0
 24 26  2  0  0  0
 24 27  1  0  0  0
 24 23  1  0  0  0
 23 22  1  0  0  0
 22  1  1  0  0  0
  1  2  1  0  0  0
  1  3  1  0  0  0
  2  6  1  0  0  0
  3  4  1  0  0  0
  3  5  1  0  0  0
  5  6  1  0  0  0
  5  7  1  0  0  0
  6 10  1  0  0  0
 10 11  1  0  0  0
 10 19  1  0  0  0
 11 12  2  0  0  0
 12 13  1  0  0  0
 13 14  1  0  0  0
 13 19  2  0  0  0
 14 15  1  0  0  0
 14 16  2  0  0  0
 16 17  1  0  0  0
 17 18  2  0  0  0
 18 19  1  0  0  0
 25 28  1  0  0  0
 27 29  1  0  0  0
  4  8  1  0  0  0
 15 20  1  0  0  0
 15 21  1  0  0  0
  7  9  1  0  0  0
M  END
> <minimizedAffinity>
-8.71784

$$$$
3OCZ_SRA_A_264


 29 31  0  0  0  0  0  0  0  0999 V2000
   44.8609  -11.5042  -10.7794 C   0  0  0  0  0  0  0  0  0  0  0  0
   45.9628  -12.2594  -10.2515 O   0  0  0  0  0  0  0  0  0  0  0  0
   44.3903  -12.3114  -11.9798 C   0  0  0  0  0  0  0  0  0  0  0  0
   43.6732  -11.5339  -12.9267 O   0  0  0  0  0  0  0  0  0  0  0  0
   45.6920  -12.8753  -12.5244 C   0  0  0  0  0  0  0  0  0  0  0  0
   46.4663  -13.1242  -11.2369 C   0  0  0  0  0  0  0  0  0  0  0  0
   46.3923  -11.8939  -13.2681 O   0  0  0  0  0  0  0  0  0  0  0  0
   44.2308  -10.8012  -13.2320 H   0  0  0  0  0  0  0  0  0  0  0  0
   46.5338  -11.1094  -12.7155 H   0  0  0  0  0  0  0  0  0  0  0  0
   46.3221  -14.4971  -10.7574 N   0  0  0  0  0  0  0  0  0  0  0  0
   45.4466  -15.0495   -9.8078 C   0  0  0  0  0  0  0  0  0  0  0  0
   45.7110  -16.3930   -9.7720 N   0  0  0  0  0  0  0  0  0  0  0  0
   46.7765  -16.6581  -10.7229 C   0  0  0  0  0  0  0  0  0  0  0  0
   47.4390  -17.8555  -11.1273 C   0  0  0  0  0  0  0  0  0  0  0  0
   47.0154  -19.1159  -10.5708 N   0  0  0  0  0  0  0  0  0  0  0  0
   48.4431  -17.7874  -12.0778 N   0  0  0  0  0  0  0  0  0  0  0  0
   48.8192  -16.5711  -12.6645 C   0  0  0  0  0  0  0  0  0  0  0  0
   48.1704  -15.4151  -12.2974 N   0  0  0  0  0  0  0  0  0  0  0  0
   47.1340  -15.5068  -11.2971 C   0  0  0  0  0  0  0  0  0  0  0  0
   46.2991  -19.1401   -9.8958 H   0  0  0  0  0  0  0  0  0  0  0  0
   47.4424  -19.9525  -10.8656 H   0  0  0  0  0  0  0  0  0  0  0  0
   43.8543  -11.2921   -9.6963 C   0  0  0  0  0  0  0  0  0  0  0  0
   42.6990  -10.7006  -10.2244 O   0  0  0  0  0  0  0  0  0  0  0  0
   41.3144  -11.4390  -10.1712 P   0  0  0  0  0  0  0  0  0  0  0  0
   40.7348  -11.5403  -11.6763 O   0  0  0  0  0  0  0  0  0  0  0  0
   41.7229  -13.3471   -9.4150 S   0  0  0  0  0  0  0  0  0  0  0  0
   40.5128  -10.7743   -9.1534 O   0  0  0  0  0  0  0  0  0  0  0  0
   39.8779  -11.9947  -11.6628 H   0  0  0  0  0  0  0  0  0  0  0  0
   39.6460  -11.2053   -9.0920 H   0  0  0  0  0  0  0  0  0  0  0  0
 24 25  1  0  0  0
 24 26  2  0  0  0
 24 27  1  0  0  0
 24 23  1  0  0  0
 23 22  1  0  0  0
 22  1  1  0  0  0
  1  2  1  0  0  0
  1  3  1  0  0  0
  2  6  1  0  0  0
  3  4  1  0  0  0
  3  5  1  0  0  0
  5  6  1  0  0  0
  5  7  1  0  0  0
  6 10  1  0  0  0
 10 11  1  0  0  0
 10 19  1  0  0  0
 11 12  2  0  0  0
 12 13  1  0  0  0
 13 14  1  0  0  0
 13 19  2  0  0  0
 14 15  1  0  0  0
 14 16  2  0  0  0
 16 17  1  0  0  0
 17 18  2  0  0  0
 18 19  1  0  0  0
 25 28  1  0  0  0
 27 29  1  0  0  0
  4  8  1  0  0  0
 15 20  1  0  0  0
 15 21  1  0  0  0
  7  9  1  0  0  0
M  END
> <minimizedAffinity>
-8.55162

$$$$
3OCZ_SRA_A_264


 29 31  0  0  0  0  0  0  0  0999 V2000
   47.1076  -15.4492   -9.8105 C   0  0  0  0  0  0  0  0  0  0  0  0
   46.8893  -14.0525  -10.0642 O   0  0  0  0  0  0  0  0  0  0  0  0
   45.7099  -16.0479   -9.7645 C   0  0  0  0  0  0  0  0  0  0  0  0
   45.6514  -17.2701   -9.0448 O   0  0  0  0  0  0  0  0  0  0  0  0
   44.8983  -14.9329   -9.1263 C   0  0  0  0  0  0  0  0  0  0  0  0
   45.5746  -13.7023   -9.7158 C   0  0  0  0  0  0  0  0  0  0  0  0
   45.0969  -14.9063   -7.7240 O   0  0  0  0  0  0  0  0  0  0  0  0
   45.9689  -17.1277   -8.1394 H   0  0  0  0  0  0  0  0  0  0  0  0
   46.0446  -14.8272   -7.5331 H   0  0  0  0  0  0  0  0  0  0  0  0
   44.8974  -13.2164  -10.9162 N   0  0  0  0  0  0  0  0  0  0  0  0
   45.1791  -13.4263  -12.2763 C   0  0  0  0  0  0  0  0  0  0  0  0
   44.2023  -12.7729  -12.9799 N   0  0  0  0  0  0  0  0  0  0  0  0
   43.3089  -12.1496  -12.0190 C   0  0  0  0  0  0  0  0  0  0  0  0
   42.1210  -11.3721  -12.1626 C   0  0  0  0  0  0  0  0  0  0  0  0
   41.5932  -11.1315  -13.4820 N   0  0  0  0  0  0  0  0  0  0  0  0
   41.4761  -10.9034  -11.0308 N   0  0  0  0  0  0  0  0  0  0  0  0
   41.9537  -11.1836   -9.7430 C   0  0  0  0  0  0  0  0  0  0  0  0
   43.0852  -11.9515   -9.5946 N   0  0  0  0  0  0  0  0  0  0  0  0
   43.7481  -12.4210  -10.7876 C   0  0  0  0  0  0  0  0  0  0  0  0
   42.0691  -11.4745  -14.2727 H   0  0  0  0  0  0  0  0  0  0  0  0
   40.7567  -10.6242  -13.5926 H   0  0  0  0  0  0  0  0  0  0  0  0
   48.0211  -15.9962  -10.8582 C   0  0  0  0  0  0  0  0  0  0  0  0
   48.5976  -17.1937  -10.4141 O   0  0  0  0  0  0  0  0  0  0  0  0
   48.5238  -18.4992  -11.2832 P   0  0  0  0  0  0  0  0  0  0  0  0
   46.9707  -18.8064  -11.6071 O   0  0  0  0  0  0  0  0  0  0  0  0
   49.5654  -18.0620  -13.0450 S   0  0  0  0  0  0  0  0  0  0  0  0
   49.3126  -19.5145  -10.5998 O   0  0  0  0  0  0  0  0  0  0  0  0
   46.9055  -19.6113  -12.1445 H   0  0  0  0  0  0  0  0  0  0  0  0
   49.2901  -20.3392  -11.1100 H   0  0  0  0  0  0  0  0  0  0  0  0
 24 25  1  0  0  0
 24 26  2  0  0  0
 24 27  1  0  0  0
 24 23  1  0  0  0
 23 22  1  0  0  0
 22  1  1  0  0  0
  1  2  1  0  0  0
  1  3  1  0  0  0
  2  6  1  0  0  0
  3  4  1  0  0  0
  3  5  1  0  0  0
  5  6  1  0  0  0
  5  7  1  0  0  0
  6 10  1  0  0  0
 10 11  1  0  0  0
 10 19  1  0  0  0
 11 12  2  0  0  0
 12 13  1  0  0  0
 13 14  1  0  0  0
 13 19  2  0  0  0
 14 15  1  0  0  0
 14 16  2  0  0  0
 16 17  1  0  0  0
 17 18  2  0  0  0
 18 19  1  0  0  0
 25 28  1  0  0  0
 27 29  1  0  0  0
  4  8  1  0  0  0
 15 20  1  0  0  0
 15 21  1  0  0  0
  7  9  1  0  0  0
M  END
> <minimizedAffinity>
-8.54114

$$$$
3OCZ_SRA_A_264


 29 31  0  0  0  0  0  0  0  0999 V2000
   45.8795  -14.9458  -10.3054 C   0  0  0  0  0  0  0  0  0  0  0  0
   45.4425  -13.6043  -10.5741 O   0  0  0  0  0  0  0  0  0  0  0  0
   44.8737  -15.4756   -9.2947 C   0  0  0  0  0  0  0  0  0  0  0  0
   45.3760  -16.5567   -8.5239 O   0  0  0  0  0  0  0  0  0  0  0  0
   44.5602  -14.2398   -8.4679 C   0  0  0  0  0  0  0  0  0  0  0  0
   44.6171  -13.1518   -9.5318 C   0  0  0  0  0  0  0  0  0  0  0  0
   45.5935  -13.9857   -7.5328 O   0  0  0  0  0  0  0  0  0  0  0  0
   46.1799  -16.2763   -8.0590 H   0  0  0  0  0  0  0  0  0  0  0  0
   46.4407  -13.9111   -7.9994 H   0  0  0  0  0  0  0  0  0  0  0  0
   43.3006  -12.8493  -10.0895 N   0  0  0  0  0  0  0  0  0  0  0  0
   42.0138  -13.1827   -9.6352 C   0  0  0  0  0  0  0  0  0  0  0  0
   41.1322  -12.6121  -10.5145 N   0  0  0  0  0  0  0  0  0  0  0  0
   41.9075  -11.9184  -11.5283 C   0  0  0  0  0  0  0  0  0  0  0  0
   41.5392  -11.1375  -12.6644 C   0  0  0  0  0  0  0  0  0  0  0  0
   40.1432  -10.8930  -12.9271 N   0  0  0  0  0  0  0  0  0  0  0  0
   42.5299  -10.5942  -13.4642 N   0  0  0  0  0  0  0  0  0  0  0  0
   43.8898  -10.7812  -13.1797 C   0  0  0  0  0  0  0  0  0  0  0  0
   44.2538  -11.5134  -12.0737 N   0  0  0  0  0  0  0  0  0  0  0  0
   43.2054  -12.0798  -11.2595 C   0  0  0  0  0  0  0  0  0  0  0  0
   39.4558  -11.2899  -12.3447 H   0  0  0  0  0  0  0  0  0  0  0  0
   39.8771  -10.3290  -13.6889 H   0  0  0  0  0  0  0  0  0  0  0  0
   45.9702  -15.6946  -11.5948 C   0  0  0  0  0  0  0  0  0  0  0  0
   46.9267  -15.1001  -12.4284 O   0  0  0  0  0  0  0  0  0  0  0  0
   46.5033  -14.3548  -13.7439 P   0  0  0  0  0  0  0  0  0  0  0  0
   44.9066  -14.1102  -13.6975 O   0  0  0  0  0  0  0  0  0  0  0  0
   47.5242  -12.5283  -13.7094 S   0  0  0  0  0  0  0  0  0  0  0  0
   47.0671  -15.1012  -14.8600 O   0  0  0  0  0  0  0  0  0  0  0  0
   44.6265  -13.6498  -14.5040 H   0  0  0  0  0  0  0  0  0  0  0  0
   46.8251  -14.6682  -15.6936 H   0  0  0  0  0  0  0  0  0  0  0  0
 24 25  1  0  0  0
 24 26  2  0  0  0
 24 27  1  0  0  0
 24 23  1  0  0  0
 23 22  1  0  0  0
 22  1  1  0  0  0
  1  2  1  0  0  0
  1  3  1  0  0  0
  2  6  1  0  0  0
  3  4  1  0  0  0
  3  5  1  0  0  0
  5  6  1  0  0  0
  5  7  1  0  0  0
  6 10  1  0  0  0
 10 11  1  0  0  0
 10 19  1  0  0  0
 11 12  2  0  0  0
 12 13  1  0  0  0
 13 14  1  0  0  0
 13 19  2  0  0  0
 14 15  1  0  0  0
 14 16  2  0  0  0
 16 17  1  0  0  0
 17 18  2  0  0  0
 18 19  1  0  0  0
 25 28  1  0  0  0
 27 29  1  0  0  0
  4  8  1  0  0  0
 15 20  1  0  0  0
 15 21  1  0  0  0
  7  9  1  0  0  0
M  END
> <minimizedAffinity>
-8.47806

$$$$
3OCZ_SRA_A_264


 29 31  0  0  0  0  0  0  0  0999 V2000
   44.7529  -10.9799  -11.0851 C   0  0  0  0  0  0  0  0  0  0  0  0
   45.9060  -11.8162  -10.9013 O   0  0  0  0  0  0  0  0  0  0  0  0
   44.2110  -11.3781  -12.4496 C   0  0  0  0  0  0  0  0  0  0  0  0
   43.4100  -10.3693  -13.0463 O   0  0  0  0  0  0  0  0  0  0  0  0
   45.4800  -11.6802  -13.2290 C   0  0  0  0  0  0  0  0  0  0  0  0
   46.3526  -12.2958  -12.1433 C   0  0  0  0  0  0  0  0  0  0  0  0
   46.1031  -10.4826  -13.6582 O   0  0  0  0  0  0  0  0  0  0  0  0
   43.9283   -9.5540  -13.1329 H   0  0  0  0  0  0  0  0  0  0  0  0
   46.2692   -9.9119  -12.8916 H   0  0  0  0  0  0  0  0  0  0  0  0
   46.2724  -13.7549  -12.1257 N   0  0  0  0  0  0  0  0  0  0  0  0
   45.8640  -14.6628  -13.1169 C   0  0  0  0  0  0  0  0  0  0  0  0
   46.0245  -15.9150  -12.5856 N   0  0  0  0  0  0  0  0  0  0  0  0
   46.5406  -15.7588  -11.2368 C   0  0  0  0  0  0  0  0  0  0  0  0
   46.9172  -16.6957  -10.2285 C   0  0  0  0  0  0  0  0  0  0  0  0
   46.8478  -18.1060  -10.5178 N   0  0  0  0  0  0  0  0  0  0  0  0
   47.3835  -16.2310   -9.0108 N   0  0  0  0  0  0  0  0  0  0  0  0
   47.5075  -14.8601   -8.7453 C   0  0  0  0  0  0  0  0  0  0  0  0
   47.1683  -13.9503   -9.7196 N   0  0  0  0  0  0  0  0  0  0  0  0
   46.6744  -14.4557  -10.9780 C   0  0  0  0  0  0  0  0  0  0  0  0
   46.5127  -18.4135  -11.3910 H   0  0  0  0  0  0  0  0  0  0  0  0
   47.1355  -18.7619   -9.8422 H   0  0  0  0  0  0  0  0  0  0  0  0
   43.8252  -11.1708   -9.9299 C   0  0  0  0  0  0  0  0  0  0  0  0
   42.5986  -10.5460  -10.1915 O   0  0  0  0  0  0  0  0  0  0  0  0
   41.2577  -11.3627  -10.1926 P   0  0  0  0  0  0  0  0  0  0  0  0
   40.6920  -11.4082  -11.7056 O   0  0  0  0  0  0  0  0  0  0  0  0
   41.7697  -13.2859   -9.5454 S   0  0  0  0  0  0  0  0  0  0  0  0
   40.4149  -10.8047   -9.1444 O   0  0  0  0  0  0  0  0  0  0  0  0
   39.8620  -11.9099  -11.7256 H   0  0  0  0  0  0  0  0  0  0  0  0
   39.5736  -11.2867   -9.1151 H   0  0  0  0  0  0  0  0  0  0  0  0
 24 25  1  0  0  0
 24 26  2  0  0  0
 24 27  1  0  0  0
 24 23  1  0  0  0
 23 22  1  0  0  0
 22  1  1  0  0  0
  1  2  1  0  0  0
  1  3  1  0  0  0
  2  6  1  0  0  0
  3  4  1  0  0  0
  3  5  1  0  0  0
  5  6  1  0  0  0
  5  7  1  0  0  0
  6 10  1  0  0  0
 10 11  1  0  0  0
 10 19  1  0  0  0
 11 12  2  0  0  0
 12 13  1  0  0  0
 13 14  1  0  0  0
 13 19  2  0  0  0
 14 15  1  0  0  0
 14 16  2  0  0  0
 16 17  1  0  0  0
 17 18  2  0  0  0
 18 19  1  0  0  0
 25 28  1  0  0  0
 27 29  1  0  0  0
  4  8  1  0  0  0
 15 20  1  0  0  0
 15 21  1  0  0  0
  7  9  1  0  0  0
M  END
> <minimizedAffinity>
-8.41376

$$$$
3OCZ_SRA_A_264


 29 31  0  0  0  0  0  0  0  0999 V2000
   44.7343  -14.1797  -10.6986 C   0  0  0  0  0  0  0  0  0  0  0  0
   46.1657  -14.0852  -10.7680 O   0  0  0  0  0  0  0  0  0  0  0  0
   44.4550  -14.6503   -9.2792 C   0  0  0  0  0  0  0  0  0  0  0  0
   43.1924  -15.2843   -9.1414 O   0  0  0  0  0  0  0  0  0  0  0  0
   45.6281  -15.5769   -9.0060 C   0  0  0  0  0  0  0  0  0  0  0  0
   46.7467  -14.8635   -9.7536 C   0  0  0  0  0  0  0  0  0  0  0  0
   45.4283  -16.8358   -9.6240 O   0  0  0  0  0  0  0  0  0  0  0  0
   43.1431  -16.0416   -9.7455 H   0  0  0  0  0  0  0  0  0  0  0  0
   45.2728  -16.7091  -10.5731 H   0  0  0  0  0  0  0  0  0  0  0  0
   47.5206  -13.9789   -8.8850 N   0  0  0  0  0  0  0  0  0  0  0  0
   47.5848  -13.8957   -7.4842 C   0  0  0  0  0  0  0  0  0  0  0  0
   48.5000  -12.9184   -7.1953 N   0  0  0  0  0  0  0  0  0  0  0  0
   48.9991  -12.3956   -8.4552 C   0  0  0  0  0  0  0  0  0  0  0  0
   49.9689  -11.3988   -8.7749 C   0  0  0  0  0  0  0  0  0  0  0  0
   50.6845  -10.7460   -7.7075 N   0  0  0  0  0  0  0  0  0  0  0  0
   50.2342  -11.1116  -10.1028 N   0  0  0  0  0  0  0  0  0  0  0  0
   49.5824  -11.7848  -11.1454 C   0  0  0  0  0  0  0  0  0  0  0  0
   48.6627  -12.7631  -10.8466 N   0  0  0  0  0  0  0  0  0  0  0  0
   48.3932  -13.0394   -9.4559 C   0  0  0  0  0  0  0  0  0  0  0  0
   50.4789  -10.9662   -6.7702 H   0  0  0  0  0  0  0  0  0  0  0  0
   51.3790  -10.0800   -7.9157 H   0  0  0  0  0  0  0  0  0  0  0  0
   44.1414  -12.8632  -11.0816 C   0  0  0  0  0  0  0  0  0  0  0  0
   42.7758  -13.0141  -11.3567 O   0  0  0  0  0  0  0  0  0  0  0  0
   41.6891  -12.2916  -10.4835 P   0  0  0  0  0  0  0  0  0  0  0  0
   40.9345  -13.4053   -9.5881 O   0  0  0  0  0  0  0  0  0  0  0  0
   42.7438  -10.9615   -9.2595 S   0  0  0  0  0  0  0  0  0  0  0  0
   40.9001  -11.4605  -11.3818 O   0  0  0  0  0  0  0  0  0  0  0  0
   40.2582  -12.9763   -9.0409 H   0  0  0  0  0  0  0  0  0  0  0  0
   40.2153  -10.9965  -10.8752 H   0  0  0  0  0  0  0  0  0  0  0  0
 24 25  1  0  0  0
 24 26  2  0  0  0
 24 27  1  0  0  0
 24 23  1  0  0  0
 23 22  1  0  0  0
 22  1  1  0  0  0
  1  2  1  0  0  0
  1  3  1  0  0  0
  2  6  1  0  0  0
  3  4  1  0  0  0
  3  5  1  0  0  0
  5  6  1  0  0  0
  5  7  1  0  0  0
  6 10  1  0  0  0
 10 11  1  0  0  0
 10 19  1  0  0  0
 11 12  2  0  0  0
 12 13  1  0  0  0
 13 14  1  0  0  0
 13 19  2  0  0  0
 14 15  1  0  0  0
 14 16  2  0  0  0
 16 17  1  0  0  0
 17 18  2  0  0  0
 18 19  1  0  0  0
 25 28  1  0  0  0
 27 29  1  0  0  0
  4  8  1  0  0  0
 15 20  1  0  0  0
 15 21  1  0  0  0
  7  9  1  0  0  0
M  END
> <minimizedAffinity>
-8.32599

$$$$
3OCZ_SRA_A_264


 29 31  0  0  0  0  0  0  0  0999 V2000
   43.7084  -11.2212  -12.1965 C   0  0  0  0  0  0  0  0  0  0  0  0
   44.9423  -10.5813  -11.8347 O   0  0  0  0  0  0  0  0  0  0  0  0
   43.7947  -11.3818  -13.7067 C   0  0  0  0  0  0  0  0  0  0  0  0
   42.5241  -11.5150  -14.3257 O   0  0  0  0  0  0  0  0  0  0  0  0
   44.5412  -10.1265  -14.1261 C   0  0  0  0  0  0  0  0  0  0  0  0
   45.5026   -9.9518  -12.9581 C   0  0  0  0  0  0  0  0  0  0  0  0
   43.6726   -9.0076  -14.1432 O   0  0  0  0  0  0  0  0  0  0  0  0
   41.9797  -10.7399  -14.1166 H   0  0  0  0  0  0  0  0  0  0  0  0
   43.2511   -8.9122  -13.2748 H   0  0  0  0  0  0  0  0  0  0  0  0
   46.8081  -10.5554  -13.2168 N   0  0  0  0  0  0  0  0  0  0  0  0
   47.2471  -11.3741  -14.2706 C   0  0  0  0  0  0  0  0  0  0  0  0
   48.5745  -11.6226  -14.0414 N   0  0  0  0  0  0  0  0  0  0  0  0
   48.9458  -10.9384  -12.8152 C   0  0  0  0  0  0  0  0  0  0  0  0
   50.1789  -10.8190  -12.1070 C   0  0  0  0  0  0  0  0  0  0  0  0
   51.3652  -11.4292  -12.6528 N   0  0  0  0  0  0  0  0  0  0  0  0
   50.2198  -10.0830  -10.9352 N   0  0  0  0  0  0  0  0  0  0  0  0
   49.0812   -9.4395  -10.4308 C   0  0  0  0  0  0  0  0  0  0  0  0
   47.8937   -9.5302  -11.1190 N   0  0  0  0  0  0  0  0  0  0  0  0
   47.8703  -10.3111  -12.3325 C   0  0  0  0  0  0  0  0  0  0  0  0
   51.3122  -11.9483  -13.4876 H   0  0  0  0  0  0  0  0  0  0  0  0
   52.2285  -11.3268  -12.1907 H   0  0  0  0  0  0  0  0  0  0  0  0
   43.5667  -12.4831  -11.4097 C   0  0  0  0  0  0  0  0  0  0  0  0
   42.2147  -12.8385  -11.3127 O   0  0  0  0  0  0  0  0  0  0  0  0
   41.5151  -12.9885   -9.9152 P   0  0  0  0  0  0  0  0  0  0  0  0
   40.9045  -14.4810   -9.8105 O   0  0  0  0  0  0  0  0  0  0  0  0
   43.0289  -12.7166   -8.4959 S   0  0  0  0  0  0  0  0  0  0  0  0
   40.6193  -11.8510   -9.7598 O   0  0  0  0  0  0  0  0  0  0  0  0
   40.4674  -14.5921   -8.9518 H   0  0  0  0  0  0  0  0  0  0  0  0
   40.1674  -11.9099   -8.9036 H   0  0  0  0  0  0  0  0  0  0  0  0
 24 25  1  0  0  0
 24 26  2  0  0  0
 24 27  1  0  0  0
 24 23  1  0  0  0
 23 22  1  0  0  0
 22  1  1  0  0  0
  1  2  1  0  0  0
  1  3  1  0  0  0
  2  6  1  0  0  0
  3  4  1  0  0  0
  3  5  1  0  0  0
  5  6  1  0  0  0
  5  7  1  0  0  0
  6 10  1  0  0  0
 10 11  1  0  0  0
 10 19  1  0  0  0
 11 12  2  0  0  0
 12 13  1  0  0  0
 13 14  1  0  0  0
 13 19  2  0  0  0
 14 15  1  0  0  0
 14 16  2  0  0  0
 16 17  1  0  0  0
 17 18  2  0  0  0
 18 19  1  0  0  0
 25 28  1  0  0  0
 27 29  1  0  0  0
  4  8  1  0  0  0
 15 20  1  0  0  0
 15 21  1  0  0  0
  7  9  1  0  0  0
M  END
> <minimizedAffinity>
-8.09906

$$$$
3OCZ_SRA_A_264


 29 31  0  0  0  0  0  0  0  0999 V2000
   41.8271  -11.9853  -10.6026 C   0  0  0  0  0  0  0  0  0  0  0  0
   42.3637  -13.3141  -10.6999 O   0  0  0  0  0  0  0  0  0  0  0  0
   42.9018  -11.1966   -9.8698 C   0  0  0  0  0  0  0  0  0  0  0  0
   42.3991  -10.0339   -9.2289 O   0  0  0  0  0  0  0  0  0  0  0  0
   43.4586  -12.2263   -8.9009 C   0  0  0  0  0  0  0  0  0  0  0  0
   43.3705  -13.4956   -9.7378 C   0  0  0  0  0  0  0  0  0  0  0  0
   42.5995  -12.3825   -7.7854 O   0  0  0  0  0  0  0  0  0  0  0  0
   41.7030  -10.2856   -8.6020 H   0  0  0  0  0  0  0  0  0  0  0  0
   41.7084  -12.6109   -8.0930 H   0  0  0  0  0  0  0  0  0  0  0  0
   44.6208  -13.7908  -10.4343 N   0  0  0  0  0  0  0  0  0  0  0  0
   45.3393  -13.0458  -11.3841 C   0  0  0  0  0  0  0  0  0  0  0  0
   46.4634  -13.7717  -11.6766 N   0  0  0  0  0  0  0  0  0  0  0  0
   46.4209  -14.9886  -10.8846 C   0  0  0  0  0  0  0  0  0  0  0  0
   47.3156  -16.0927  -10.7553 C   0  0  0  0  0  0  0  0  0  0  0  0
   48.5597  -16.0787  -11.4829 N   0  0  0  0  0  0  0  0  0  0  0  0
   46.9913  -17.1320   -9.9003 N   0  0  0  0  0  0  0  0  0  0  0  0
   45.8095  -17.1229   -9.1465 C   0  0  0  0  0  0  0  0  0  0  0  0
   44.9522  -16.0520   -9.2478 N   0  0  0  0  0  0  0  0  0  0  0  0
   45.3040  -14.9841  -10.1527 C   0  0  0  0  0  0  0  0  0  0  0  0
   48.7691  -15.3288  -12.0856 H   0  0  0  0  0  0  0  0  0  0  0  0
   49.2001  -16.8189  -11.3773 H   0  0  0  0  0  0  0  0  0  0  0  0
   41.4772  -11.5013  -11.9718 C   0  0  0  0  0  0  0  0  0  0  0  0
   42.4966  -10.6752  -12.4635 O   0  0  0  0  0  0  0  0  0  0  0  0
   43.1260  -10.9217  -13.8806 P   0  0  0  0  0  0  0  0  0  0  0  0
   42.1627  -10.2463  -14.9885 O   0  0  0  0  0  0  0  0  0  0  0  0
   44.9852   -9.9616  -13.8454 S   0  0  0  0  0  0  0  0  0  0  0  0
   43.4184  -12.3448  -13.9783 O   0  0  0  0  0  0  0  0  0  0  0  0
   42.5366  -10.3889  -15.8721 H   0  0  0  0  0  0  0  0  0  0  0  0
   43.8103  -12.5357  -14.8448 H   0  0  0  0  0  0  0  0  0  0  0  0
 24 25  1  0  0  0
 24 26  2  0  0  0
 24 27  1  0  0  0
 24 23  1  0  0  0
 23 22  1  0  0  0
 22  1  1  0  0  0
  1  2  1  0  0  0
  1  3  1  0  0  0
  2  6  1  0  0  0
  3  4  1  0  0  0
  3  5  1  0  0  0
  5  6  1  0  0  0
  5  7  1  0  0  0
  6 10  1  0  0  0
 10 11  1  0  0  0
 10 19  1  0  0  0
 11 12  2  0  0  0
 12 13  1  0  0  0
 13 14  1  0  0  0
 13 19  2  0  0  0
 14 15  1  0  0  0
 14 16  2  0  0  0
 16 17  1  0  0  0
 17 18  2  0  0  0
 18 19  1  0  0  0
 25 28  1  0  0  0
 27 29  1  0  0  0
  4  8  1  0  0  0
 15 20  1  0  0  0
 15 21  1  0  0  0
  7  9  1  0  0  0
M  END
> <minimizedAffinity>
-7.95742

$$$$
3OCZ_SRA_A_264


 29 31  0  0  0  0  0  0  0  0999 V2000
   45.2499  -15.4426  -10.1886 C   0  0  0  0  0  0  0  0  0  0  0  0
   45.8695  -14.2181  -10.6124 O   0  0  0  0  0  0  0  0  0  0  0  0
   46.3977  -16.2768   -9.6401 C   0  0  0  0  0  0  0  0  0  0  0  0
   46.1220  -17.6693   -9.6378 O   0  0  0  0  0  0  0  0  0  0  0  0
   47.5477  -15.8912  -10.5554 C   0  0  0  0  0  0  0  0  0  0  0  0
   47.2465  -14.4189  -10.8021 C   0  0  0  0  0  0  0  0  0  0  0  0
   47.4502  -16.5670  -11.7966 O   0  0  0  0  0  0  0  0  0  0  0  0
   45.9175  -17.9600  -10.5403 H   0  0  0  0  0  0  0  0  0  0  0  0
   46.5851  -16.3858  -12.1963 H   0  0  0  0  0  0  0  0  0  0  0  0
   47.9675  -13.5417   -9.8821 N   0  0  0  0  0  0  0  0  0  0  0  0
   47.9607  -13.4803   -8.4787 C   0  0  0  0  0  0  0  0  0  0  0  0
   48.8510  -12.5000   -8.1291 N   0  0  0  0  0  0  0  0  0  0  0  0
   49.4079  -11.9529   -9.3540 C   0  0  0  0  0  0  0  0  0  0  0  0
   50.3831  -10.9429   -9.6091 C   0  0  0  0  0  0  0  0  0  0  0  0
   51.0382  -10.3011   -8.4970 N   0  0  0  0  0  0  0  0  0  0  0  0
   50.7120  -10.6324  -10.9174 N   0  0  0  0  0  0  0  0  0  0  0  0
   50.1195  -11.2944  -12.0017 C   0  0  0  0  0  0  0  0  0  0  0  0
   49.1952  -12.2851  -11.7647 N   0  0  0  0  0  0  0  0  0  0  0  0
   48.8589  -12.5858  -10.3938 C   0  0  0  0  0  0  0  0  0  0  0  0
   50.7879  -10.5380   -7.5748 H   0  0  0  0  0  0  0  0  0  0  0  0
   51.7360   -9.6260   -8.6597 H   0  0  0  0  0  0  0  0  0  0  0  0
   44.1524  -15.1240   -9.2266 C   0  0  0  0  0  0  0  0  0  0  0  0
   43.9101  -13.7439   -9.2154 O   0  0  0  0  0  0  0  0  0  0  0  0
   42.4991  -13.1726   -8.8308 P   0  0  0  0  0  0  0  0  0  0  0  0
   42.7011  -12.0465   -7.6895 O   0  0  0  0  0  0  0  0  0  0  0  0
   41.7443  -12.3112  -10.5824 S   0  0  0  0  0  0  0  0  0  0  0  0
   41.6376  -14.3120   -8.5482 O   0  0  0  0  0  0  0  0  0  0  0  0
   41.8380  -11.6815   -7.4390 H   0  0  0  0  0  0  0  0  0  0  0  0
   40.7530  -13.9962   -8.3058 H   0  0  0  0  0  0  0  0  0  0  0  0
 24 25  1  0  0  0
 24 26  2  0  0  0
 24 27  1  0  0  0
 24 23  1  0  0  0
 23 22  1  0  0  0
 22  1  1  0  0  0
  1  2  1  0  0  0
  1  3  1  0  0  0
  2  6  1  0  0  0
  3  4  1  0  0  0
  3  5  1  0  0  0
  5  6  1  0  0  0
  5  7  1  0  0  0
  6 10  1  0  0  0
 10 11  1  0  0  0
 10 19  1  0  0  0
 11 12  2  0  0  0
 12 13  1  0  0  0
 13 14  1  0  0  0
 13 19  2  0  0  0
 14 15  1  0  0  0
 14 16  2  0  0  0
 16 17  1  0  0  0
 17 18  2  0  0  0
 18 19  1  0  0  0
 25 28  1  0  0  0
 27 29  1  0  0  0
  4  8  1  0  0  0
 15 20  1  0  0  0
 15 21  1  0  0  0
  7  9  1  0  0  0
M  END
> <minimizedAffinity>
-7.91160

$$$$
