2PVJ_P44_A_501


 28 31  0  0  0  0  0  0  0  0999 V2000
   20.0310    9.3812   19.9420 N   0  0  0  0  0  0  0  0  0  0  0  0
   20.2461    9.6529   18.6275 C   0  0  0  0  0  0  0  0  0  0  0  0
   21.3142    8.8442   18.1925 C   0  0  0  0  0  0  0  0  0  0  0  0
   21.7137    8.0641   19.3402 C   0  0  0  0  0  0  0  0  0  0  0  0
   20.9103    8.4337   20.3802 N   0  0  0  0  0  0  0  0  0  0  0  0
   22.6657    7.1336   19.5164 N   0  0  0  0  0  0  0  0  0  0  0  0
   22.7754    6.6181   20.7369 C   0  0  0  0  0  0  0  0  0  0  0  0
   22.0152    6.9701   21.7671 N   0  0  0  0  0  0  0  0  0  0  0  0
   21.0745    7.8885   21.5721 C   0  0  0  0  0  0  0  0  0  0  0  0
   20.2695    8.2929   22.5877 N   0  0  0  0  0  0  0  0  0  0  0  0
   19.5220    8.8842   22.3411 H   0  0  0  0  0  0  0  0  0  0  0  0
   20.3756    7.9761   23.9072 C   0  0  0  0  0  0  0  0  0  0  0  0
   20.3586    6.6746   24.4069 C   0  0  0  0  0  0  0  0  0  0  0  0
   20.4000    6.4264   25.7780 C   0  0  0  0  0  0  0  0  0  0  0  0
   20.4624    7.4911   26.6728 C   0  0  0  0  0  0  0  0  0  0  0  0
   20.5151    8.7930   26.1805 C   0  0  0  0  0  0  0  0  0  0  0  0
   20.4742    9.0368   24.8085 C   0  0  0  0  0  0  0  0  0  0  0  0
   23.7115    5.6580   20.9333 N   0  0  0  0  0  0  0  0  0  0  0  0
   24.3010    5.4010   20.1879 H   0  0  0  0  0  0  0  0  0  0  0  0
   23.8654    4.9963   22.2257 C   0  0  0  0  0  0  0  0  0  0  0  0
   23.2213    3.6103   22.2330 C   0  0  0  0  0  0  0  0  0  0  0  0
   21.8223    3.6251   22.8589 C   0  0  0  0  0  0  0  0  0  0  0  0
   21.2688    2.1962   22.9175 C   0  0  0  0  0  0  0  0  0  0  0  0
   21.1987    1.5644   21.5242 C   0  0  0  0  0  0  0  0  0  0  0  0
   22.5864    1.5665   20.8691 C   0  0  0  0  0  0  0  0  0  0  0  0
   23.1963    2.9711   20.8394 C   0  0  0  0  0  0  0  0  0  0  0  0
   21.9470    8.8198   16.9067 C   0  0  0  0  0  0  0  0  0  0  0  0
   22.3731    8.8474   15.8291 N   0  0  0  0  0  0  0  0  0  0  0  0
  1  2  2  0  0  0
  1  5  1  0  0  0
  2  3  1  0  0  0
  3 27  1  0  0  0
  3  4  2  0  0  0
  4  6  1  0  0  0
  4  5  1  0  0  0
  5  9  1  0  0  0
  6  7  2  0  0  0
  7 18  1  0  0  0
  7  8  1  0  0  0
  8  9  2  0  0  0
  9 10  1  0  0  0
 10 12  1  0  0  0
 12 13  2  0  0  0
 12 17  1  0  0  0
 13 14  1  0  0  0
 14 15  2  0  0  0
 15 16  1  0  0  0
 16 17  2  0  0  0
 18 20  1  0  0  0
 20 21  1  0  0  0
 21 22  1  0  0  0
 21 26  1  0  0  0
 22 23  1  0  0  0
 23 24  1  0  0  0
 24 25  1  0  0  0
 25 26  1  0  0  0
 27 28  3  0  0  0
 10 11  1  0  0  0
 18 19  1  0  0  0
M  END
> <minimizedAffinity>
-9.32995

$$$$
2PVJ_P44_A_501


 28 31  0  0  0  0  0  0  0  0999 V2000
   19.5066    8.8308   24.8020 N   0  0  0  0  0  0  0  0  0  0  0  0
   19.3023    8.6231   26.1299 C   0  0  0  0  0  0  0  0  0  0  0  0
   20.0330    7.4776   26.5012 C   0  0  0  0  0  0  0  0  0  0  0  0
   20.6951    7.0233   25.3009 C   0  0  0  0  0  0  0  0  0  0  0  0
   20.3359    7.8728   24.2945 N   0  0  0  0  0  0  0  0  0  0  0  0
   21.5177    5.9908   25.0555 N   0  0  0  0  0  0  0  0  0  0  0  0
   21.9397    5.8509   23.8025 C   0  0  0  0  0  0  0  0  0  0  0  0
   21.5946    6.6557   22.8043 N   0  0  0  0  0  0  0  0  0  0  0  0
   20.7841    7.6755   23.0677 C   0  0  0  0  0  0  0  0  0  0  0  0
   20.3921    8.5296   22.0879 N   0  0  0  0  0  0  0  0  0  0  0  0
   19.7750    9.2475   22.3580 H   0  0  0  0  0  0  0  0  0  0  0  0
   20.7530    8.5089   20.7757 C   0  0  0  0  0  0  0  0  0  0  0  0
   21.8480    7.8079   20.2726 C   0  0  0  0  0  0  0  0  0  0  0  0
   22.2016    7.8889   18.9266 C   0  0  0  0  0  0  0  0  0  0  0  0
   21.4518    8.6798   18.0602 C   0  0  0  0  0  0  0  0  0  0  0  0
   20.3356    9.3555   18.5477 C   0  0  0  0  0  0  0  0  0  0  0  0
   19.9851    9.2711   19.8944 C   0  0  0  0  0  0  0  0  0  0  0  0
   22.7919    4.8317   23.5349 N   0  0  0  0  0  0  0  0  0  0  0  0
   22.6357    3.9524   23.9492 H   0  0  0  0  0  0  0  0  0  0  0  0
   23.9367    5.0086   22.6461 C   0  0  0  0  0  0  0  0  0  0  0  0
   23.9611    3.9568   21.5374 C   0  0  0  0  0  0  0  0  0  0  0  0
   23.5315    4.5325   20.1835 C   0  0  0  0  0  0  0  0  0  0  0  0
   23.4912    3.4125   19.1367 C   0  0  0  0  0  0  0  0  0  0  0  0
   24.8548    2.7304   18.9925 C   0  0  0  0  0  0  0  0  0  0  0  0
   25.3156    2.1720   20.3456 C   0  0  0  0  0  0  0  0  0  0  0  0
   25.3186    3.2515   21.4321 C   0  0  0  0  0  0  0  0  0  0  0  0
   20.0814    6.8266   27.7773 C   0  0  0  0  0  0  0  0  0  0  0  0
   20.2155    6.3426   28.8219 N   0  0  0  0  0  0  0  0  0  0  0  0
  1  2  2  0  0  0
  1  5  1  0  0  0
  2  3  1  0  0  0
  3 27  1  0  0  0
  3  4  2  0  0  0
  4  6  1  0  0  0
  4  5  1  0  0  0
  5  9  1  0  0  0
  6  7  2  0  0  0
  7 18  1  0  0  0
  7  8  1  0  0  0
  8  9  2  0  0  0
  9 10  1  0  0  0
 10 12  1  0  0  0
 12 13  2  0  0  0
 12 17  1  0  0  0
 13 14  1  0  0  0
 14 15  2  0  0  0
 15 16  1  0  0  0
 16 17  2  0  0  0
 18 20  1  0  0  0
 20 21  1  0  0  0
 21 22  1  0  0  0
 21 26  1  0  0  0
 22 23  1  0  0  0
 23 24  1  0  0  0
 24 25  1  0  0  0
 25 26  1  0  0  0
 27 28  3  0  0  0
 10 11  1  0  0  0
 18 19  1  0  0  0
M  END
> <minimizedAffinity>
-9.02600

$$$$
2PVJ_P44_A_501


 28 31  0  0  0  0  0  0  0  0999 V2000
   21.0065    7.1585   24.2138 N   0  0  0  0  0  0  0  0  0  0  0  0
   20.3646    6.7566   25.3427 C   0  0  0  0  0  0  0  0  0  0  0  0
   20.2053    5.3589   25.2698 C   0  0  0  0  0  0  0  0  0  0  0  0
   20.8072    4.9559   24.0205 C   0  0  0  0  0  0  0  0  0  0  0  0
   21.2709    6.0862   23.4116 N   0  0  0  0  0  0  0  0  0  0  0  0
   20.9528    3.7590   23.4296 N   0  0  0  0  0  0  0  0  0  0  0  0
   21.5537    3.7499   22.2436 C   0  0  0  0  0  0  0  0  0  0  0  0
   22.0016    4.8364   21.6254 N   0  0  0  0  0  0  0  0  0  0  0  0
   21.8536    6.0114   22.2284 C   0  0  0  0  0  0  0  0  0  0  0  0
   22.2867    7.1578   21.6442 N   0  0  0  0  0  0  0  0  0  0  0  0
   23.0881    7.5713   22.0392 H   0  0  0  0  0  0  0  0  0  0  0  0
   21.7420    7.8021   20.5761 C   0  0  0  0  0  0  0  0  0  0  0  0
   22.2590    7.7548   19.2823 C   0  0  0  0  0  0  0  0  0  0  0  0
   21.6900    8.4977   18.2491 C   0  0  0  0  0  0  0  0  0  0  0  0
   20.5829    9.3026   18.5034 C   0  0  0  0  0  0  0  0  0  0  0  0
   20.0390    9.3283   19.7855 C   0  0  0  0  0  0  0  0  0  0  0  0
   20.6107    8.5831   20.8157 C   0  0  0  0  0  0  0  0  0  0  0  0
   21.7362    2.5509   21.6390 N   0  0  0  0  0  0  0  0  0  0  0  0
   21.1706    2.3084   20.8706 H   0  0  0  0  0  0  0  0  0  0  0  0
   22.7528    1.6106   22.1018 C   0  0  0  0  0  0  0  0  0  0  0  0
   23.9491    1.5565   21.1521 C   0  0  0  0  0  0  0  0  0  0  0  0
   23.5258    1.6467   19.6818 C   0  0  0  0  0  0  0  0  0  0  0  0
   24.7577    1.4975   18.7808 C   0  0  0  0  0  0  0  0  0  0  0  0
   25.8040    2.5755   19.0785 C   0  0  0  0  0  0  0  0  0  0  0  0
   26.2197    2.5197   20.5547 C   0  0  0  0  0  0  0  0  0  0  0  0
   25.0087    2.6128   21.4877 C   0  0  0  0  0  0  0  0  0  0  0  0
   19.5320    4.4898   26.1895 C   0  0  0  0  0  0  0  0  0  0  0  0
   18.9015    3.7991   26.8743 N   0  0  0  0  0  0  0  0  0  0  0  0
  1  2  2  0  0  0
  1  5  1  0  0  0
  2  3  1  0  0  0
  3 27  1  0  0  0
  3  4  2  0  0  0
  4  6  1  0  0  0
  4  5  1  0  0  0
  5  9  1  0  0  0
  6  7  2  0  0  0
  7 18  1  0  0  0
  7  8  1  0  0  0
  8  9  2  0  0  0
  9 10  1  0  0  0
 10 12  1  0  0  0
 12 13  2  0  0  0
 12 17  1  0  0  0
 13 14  1  0  0  0
 14 15  2  0  0  0
 15 16  1  0  0  0
 16 17  2  0  0  0
 18 20  1  0  0  0
 20 21  1  0  0  0
 21 22  1  0  0  0
 21 26  1  0  0  0
 22 23  1  0  0  0
 23 24  1  0  0  0
 24 25  1  0  0  0
 25 26  1  0  0  0
 27 28  3  0  0  0
 10 11  1  0  0  0
 18 19  1  0  0  0
M  END
> <minimizedAffinity>
-8.82723

$$$$
2PVJ_P44_A_501


 28 31  0  0  0  0  0  0  0  0999 V2000
   21.9639    6.5647   22.7384 N   0  0  0  0  0  0  0  0  0  0  0  0
   21.5854    5.8288   23.8169 C   0  0  0  0  0  0  0  0  0  0  0  0
   21.6766    4.4691   23.4604 C   0  0  0  0  0  0  0  0  0  0  0  0
   22.1461    4.4479   22.0949 C   0  0  0  0  0  0  0  0  0  0  0  0
   22.2964    5.7455   21.6985 N   0  0  0  0  0  0  0  0  0  0  0  0
   22.4181    3.4437   21.2459 N   0  0  0  0  0  0  0  0  0  0  0  0
   22.8237    3.7880   20.0274 C   0  0  0  0  0  0  0  0  0  0  0  0
   22.9652    5.0419   19.6143 N   0  0  0  0  0  0  0  0  0  0  0  0
   22.6967    6.0223   20.4705 C   0  0  0  0  0  0  0  0  0  0  0  0
   22.8180    7.3241   20.1049 N   0  0  0  0  0  0  0  0  0  0  0  0
   23.6350    7.7853   20.4033 H   0  0  0  0  0  0  0  0  0  0  0  0
   21.9417    8.0659   19.3739 C   0  0  0  0  0  0  0  0  0  0  0  0
   22.0819    8.3323   18.0127 C   0  0  0  0  0  0  0  0  0  0  0  0
   21.1829    9.1600   17.3420 C   0  0  0  0  0  0  0  0  0  0  0  0
   20.1205    9.7339   18.0350 C   0  0  0  0  0  0  0  0  0  0  0  0
   19.9533    9.4446   19.3873 C   0  0  0  0  0  0  0  0  0  0  0  0
   20.8543    8.6156   20.0540 C   0  0  0  0  0  0  0  0  0  0  0  0
   23.1298    2.7921   19.1607 N   0  0  0  0  0  0  0  0  0  0  0  0
   23.1233    2.9769   18.1937 H   0  0  0  0  0  0  0  0  0  0  0  0
   23.4690    1.4514   19.6289 C   0  0  0  0  0  0  0  0  0  0  0  0
   24.7158    0.9066   18.9327 C   0  0  0  0  0  0  0  0  0  0  0  0
   24.3791    0.1858   17.6227 C   0  0  0  0  0  0  0  0  0  0  0  0
   25.6564   -0.4126   17.0208 C   0  0  0  0  0  0  0  0  0  0  0  0
   26.7097    0.6668   16.7542 C   0  0  0  0  0  0  0  0  0  0  0  0
   27.0392    1.4196   18.0503 C   0  0  0  0  0  0  0  0  0  0  0  0
   25.7797    1.9882   18.7106 C   0  0  0  0  0  0  0  0  0  0  0  0
   21.3219    3.3185   24.2380 C   0  0  0  0  0  0  0  0  0  0  0  0
   21.1321    2.3906   24.9063 N   0  0  0  0  0  0  0  0  0  0  0  0
  1  2  2  0  0  0
  1  5  1  0  0  0
  2  3  1  0  0  0
  3 27  1  0  0  0
  3  4  2  0  0  0
  4  6  1  0  0  0
  4  5  1  0  0  0
  5  9  1  0  0  0
  6  7  2  0  0  0
  7 18  1  0  0  0
  7  8  1  0  0  0
  8  9  2  0  0  0
  9 10  1  0  0  0
 10 12  1  0  0  0
 12 13  2  0  0  0
 12 17  1  0  0  0
 13 14  1  0  0  0
 14 15  2  0  0  0
 15 16  1  0  0  0
 16 17  2  0  0  0
 18 20  1  0  0  0
 20 21  1  0  0  0
 21 22  1  0  0  0
 21 26  1  0  0  0
 22 23  1  0  0  0
 23 24  1  0  0  0
 24 25  1  0  0  0
 25 26  1  0  0  0
 27 28  3  0  0  0
 10 11  1  0  0  0
 18 19  1  0  0  0
M  END
> <minimizedAffinity>
-8.81420

$$$$
2PVJ_P44_A_501


 28 31  0  0  0  0  0  0  0  0999 V2000
   21.4727    5.3739   25.9979 N   0  0  0  0  0  0  0  0  0  0  0  0
   20.6893    6.1297   26.8122 C   0  0  0  0  0  0  0  0  0  0  0  0
   20.2009    7.2111   26.0530 C   0  0  0  0  0  0  0  0  0  0  0  0
   20.7421    7.0396   24.7252 C   0  0  0  0  0  0  0  0  0  0  0  0
   21.5154    5.9149   24.7455 N   0  0  0  0  0  0  0  0  0  0  0  0
   20.6159    7.7554   23.5961 N   0  0  0  0  0  0  0  0  0  0  0  0
   21.2811    7.3128   22.5334 C   0  0  0  0  0  0  0  0  0  0  0  0
   22.0494    6.2298   22.5314 N   0  0  0  0  0  0  0  0  0  0  0  0
   22.1575    5.5311   23.6568 C   0  0  0  0  0  0  0  0  0  0  0  0
   22.9319    4.4177   23.7180 N   0  0  0  0  0  0  0  0  0  0  0  0
   23.4191    4.2726   24.5612 H   0  0  0  0  0  0  0  0  0  0  0  0
   23.1131    3.4786   22.7496 C   0  0  0  0  0  0  0  0  0  0  0  0
   24.2663    3.3605   21.9751 C   0  0  0  0  0  0  0  0  0  0  0  0
   24.3557    2.4191   20.9510 C   0  0  0  0  0  0  0  0  0  0  0  0
   23.2798    1.5748   20.6907 C   0  0  0  0  0  0  0  0  0  0  0  0
   22.1373    1.6627   21.4826 C   0  0  0  0  0  0  0  0  0  0  0  0
   22.0523    2.6051   22.5065 C   0  0  0  0  0  0  0  0  0  0  0  0
   21.1486    8.0033   21.3748 N   0  0  0  0  0  0  0  0  0  0  0  0
   20.4044    8.6403   21.2767 H   0  0  0  0  0  0  0  0  0  0  0  0
   22.0849    7.8238   20.2690 C   0  0  0  0  0  0  0  0  0  0  0  0
   21.4701    8.2389   18.9327 C   0  0  0  0  0  0  0  0  0  0  0  0
   20.3806    9.3035   19.1024 C   0  0  0  0  0  0  0  0  0  0  0  0
   19.7441    9.6108   17.7414 C   0  0  0  0  0  0  0  0  0  0  0  0
   20.7865   10.1025   16.7330 C   0  0  0  0  0  0  0  0  0  0  0  0
   21.9020    9.0610   16.5710 C   0  0  0  0  0  0  0  0  0  0  0  0
   22.5282    8.6881   17.9180 C   0  0  0  0  0  0  0  0  0  0  0  0
   19.3898    8.3101   26.4873 C   0  0  0  0  0  0  0  0  0  0  0  0
   18.8209    9.2576   26.8370 N   0  0  0  0  0  0  0  0  0  0  0  0
  1  2  2  0  0  0
  1  5  1  0  0  0
  2  3  1  0  0  0
  3 27  1  0  0  0
  3  4  2  0  0  0
  4  6  1  0  0  0
  4  5  1  0  0  0
  5  9  1  0  0  0
  6  7  2  0  0  0
  7 18  1  0  0  0
  7  8  1  0  0  0
  8  9  2  0  0  0
  9 10  1  0  0  0
 10 12  1  0  0  0
 12 13  2  0  0  0
 12 17  1  0  0  0
 13 14  1  0  0  0
 14 15  2  0  0  0
 15 16  1  0  0  0
 16 17  2  0  0  0
 18 20  1  0  0  0
 20 21  1  0  0  0
 21 22  1  0  0  0
 21 26  1  0  0  0
 22 23  1  0  0  0
 23 24  1  0  0  0
 24 25  1  0  0  0
 25 26  1  0  0  0
 27 28  3  0  0  0
 10 11  1  0  0  0
 18 19  1  0  0  0
M  END
> <minimizedAffinity>
-8.76808

$$$$
2PVJ_P44_A_501


 28 31  0  0  0  0  0  0  0  0999 V2000
   25.0490    1.5808   21.1205 N   0  0  0  0  0  0  0  0  0  0  0  0
   26.0513    1.5850   20.2022 C   0  0  0  0  0  0  0  0  0  0  0  0
   25.8633    2.7048   19.3686 C   0  0  0  0  0  0  0  0  0  0  0  0
   24.6821    3.3728   19.8626 C   0  0  0  0  0  0  0  0  0  0  0  0
   24.2192    2.6460   20.9213 N   0  0  0  0  0  0  0  0  0  0  0  0
   24.0366    4.4820   19.4675 N   0  0  0  0  0  0  0  0  0  0  0  0
   22.9446    4.8104   20.1510 C   0  0  0  0  0  0  0  0  0  0  0  0
   22.4673    4.1133   21.1754 N   0  0  0  0  0  0  0  0  0  0  0  0
   23.1229    3.0215   21.5555 C   0  0  0  0  0  0  0  0  0  0  0  0
   22.6813    2.2650   22.5927 N   0  0  0  0  0  0  0  0  0  0  0  0
   23.2590    2.2396   23.3894 H   0  0  0  0  0  0  0  0  0  0  0  0
   21.5329    1.5375   22.6592 C   0  0  0  0  0  0  0  0  0  0  0  0
   20.5853    1.4693   21.6389 C   0  0  0  0  0  0  0  0  0  0  0  0
   19.3962    0.7606   21.8031 C   0  0  0  0  0  0  0  0  0  0  0  0
   19.1422    0.1030   23.0036 C   0  0  0  0  0  0  0  0  0  0  0  0
   20.0993    0.1371   24.0151 C   0  0  0  0  0  0  0  0  0  0  0  0
   21.2875    0.8464   23.8464 C   0  0  0  0  0  0  0  0  0  0  0  0
   22.2904    5.9404   19.7881 N   0  0  0  0  0  0  0  0  0  0  0  0
   21.5035    5.8732   19.2003 H   0  0  0  0  0  0  0  0  0  0  0  0
   22.7264    7.2553   20.2495 C   0  0  0  0  0  0  0  0  0  0  0  0
   22.0250    8.3827   19.4926 C   0  0  0  0  0  0  0  0  0  0  0  0
   22.0136    8.1443   17.9786 C   0  0  0  0  0  0  0  0  0  0  0  0
   21.3781    9.3480   17.2722 C   0  0  0  0  0  0  0  0  0  0  0  0
   19.9480    9.5946   17.7615 C   0  0  0  0  0  0  0  0  0  0  0  0
   19.9355    9.8073   19.2812 C   0  0  0  0  0  0  0  0  0  0  0  0
   20.6102    8.6481   20.0207 C   0  0  0  0  0  0  0  0  0  0  0  0
   26.6229    3.0965   18.2180 C   0  0  0  0  0  0  0  0  0  0  0  0
   27.1593    3.4795   17.2645 N   0  0  0  0  0  0  0  0  0  0  0  0
  1  2  2  0  0  0
  1  5  1  0  0  0
  2  3  1  0  0  0
  3 27  1  0  0  0
  3  4  2  0  0  0
  4  6  1  0  0  0
  4  5  1  0  0  0
  5  9  1  0  0  0
  6  7  2  0  0  0
  7 18  1  0  0  0
  7  8  1  0  0  0
  8  9  2  0  0  0
  9 10  1  0  0  0
 10 12  1  0  0  0
 12 13  2  0  0  0
 12 17  1  0  0  0
 13 14  1  0  0  0
 14 15  2  0  0  0
 15 16  1  0  0  0
 16 17  2  0  0  0
 18 20  1  0  0  0
 20 21  1  0  0  0
 21 22  1  0  0  0
 21 26  1  0  0  0
 22 23  1  0  0  0
 23 24  1  0  0  0
 24 25  1  0  0  0
 25 26  1  0  0  0
 27 28  3  0  0  0
 10 11  1  0  0  0
 18 19  1  0  0  0
M  END
> <minimizedAffinity>
-8.70657

$$$$
2PVJ_P44_A_501


 28 31  0  0  0  0  0  0  0  0999 V2000
   19.5021    8.7907   25.0373 N   0  0  0  0  0  0  0  0  0  0  0  0
   19.3468    8.6457   26.3800 C   0  0  0  0  0  0  0  0  0  0  0  0
   20.0232    7.4715   26.7647 C   0  0  0  0  0  0  0  0  0  0  0  0
   20.6008    6.9326   25.5559 C   0  0  0  0  0  0  0  0  0  0  0  0
   20.2479    7.7648   24.5329 N   0  0  0  0  0  0  0  0  0  0  0  0
   21.3474    5.8425   25.3163 N   0  0  0  0  0  0  0  0  0  0  0  0
   21.7022    5.6301   24.0527 C   0  0  0  0  0  0  0  0  0  0  0  0
   21.3609    6.4171   23.0391 N   0  0  0  0  0  0  0  0  0  0  0  0
   20.6265    7.4944   23.2966 C   0  0  0  0  0  0  0  0  0  0  0  0
   20.2424    8.3342   22.3015 N   0  0  0  0  0  0  0  0  0  0  0  0
   19.5433    8.9886   22.5302 H   0  0  0  0  0  0  0  0  0  0  0  0
   20.7111    8.3767   21.0243 C   0  0  0  0  0  0  0  0  0  0  0  0
   21.8717    7.7370   20.5912 C   0  0  0  0  0  0  0  0  0  0  0  0
   22.3317    7.8821   19.2834 C   0  0  0  0  0  0  0  0  0  0  0  0
   21.6246    8.6763   18.3848 C   0  0  0  0  0  0  0  0  0  0  0  0
   20.4453    9.2905   18.7997 C   0  0  0  0  0  0  0  0  0  0  0  0
   19.9883    9.1421   20.1084 C   0  0  0  0  0  0  0  0  0  0  0  0
   22.4781    4.5507   23.7893 N   0  0  0  0  0  0  0  0  0  0  0  0
   23.2212    4.3323   24.3971 H   0  0  0  0  0  0  0  0  0  0  0  0
   22.2368    3.7044   22.6243 C   0  0  0  0  0  0  0  0  0  0  0  0
   21.0554    2.7601   22.8447 C   0  0  0  0  0  0  0  0  0  0  0  0
   20.9071    1.7430   21.7078 C   0  0  0  0  0  0  0  0  0  0  0  0
   19.6567    0.8867   21.9423 C   0  0  0  0  0  0  0  0  0  0  0  0
   19.7257    0.1487   23.2825 C   0  0  0  0  0  0  0  0  0  0  0  0
   19.9032    1.1498   24.4320 C   0  0  0  0  0  0  0  0  0  0  0  0
   21.1141    2.0604   24.2078 C   0  0  0  0  0  0  0  0  0  0  0  0
   20.0907    6.8668   28.0625 C   0  0  0  0  0  0  0  0  0  0  0  0
   20.1313    6.2854   29.0644 N   0  0  0  0  0  0  0  0  0  0  0  0
  1  2  2  0  0  0
  1  5  1  0  0  0
  2  3  1  0  0  0
  3 27  1  0  0  0
  3  4  2  0  0  0
  4  6  1  0  0  0
  4  5  1  0  0  0
  5  9  1  0  0  0
  6  7  2  0  0  0
  7 18  1  0  0  0
  7  8  1  0  0  0
  8  9  2  0  0  0
  9 10  1  0  0  0
 10 12  1  0  0  0
 12 13  2  0  0  0
 12 17  1  0  0  0
 13 14  1  0  0  0
 14 15  2  0  0  0
 15 16  1  0  0  0
 16 17  2  0  0  0
 18 20  1  0  0  0
 20 21  1  0  0  0
 21 22  1  0  0  0
 21 26  1  0  0  0
 22 23  1  0  0  0
 23 24  1  0  0  0
 24 25  1  0  0  0
 25 26  1  0  0  0
 27 28  3  0  0  0
 10 11  1  0  0  0
 18 19  1  0  0  0
M  END
> <minimizedAffinity>
-8.62556

$$$$
2PVJ_P44_A_501


 28 31  0  0  0  0  0  0  0  0999 V2000
   23.8762    4.2950   19.1308 N   0  0  0  0  0  0  0  0  0  0  0  0
   24.1561    2.9664   19.0646 C   0  0  0  0  0  0  0  0  0  0  0  0
   23.9273    2.4167   20.3412 C   0  0  0  0  0  0  0  0  0  0  0  0
   23.4817    3.5119   21.1703 C   0  0  0  0  0  0  0  0  0  0  0  0
   23.4766    4.6330   20.3914 N   0  0  0  0  0  0  0  0  0  0  0  0
   23.1192    3.5816   22.4614 N   0  0  0  0  0  0  0  0  0  0  0  0
   22.7733    4.7812   22.9185 C   0  0  0  0  0  0  0  0  0  0  0  0
   22.7726    5.8879   22.1848 N   0  0  0  0  0  0  0  0  0  0  0  0
   23.1288    5.7982   20.9075 C   0  0  0  0  0  0  0  0  0  0  0  0
   23.1524    6.8954   20.1084 N   0  0  0  0  0  0  0  0  0  0  0  0
   24.0083    7.0906   19.6628 H   0  0  0  0  0  0  0  0  0  0  0  0
   22.1306    7.7570   19.8515 C   0  0  0  0  0  0  0  0  0  0  0  0
   21.2073    8.1875   20.8032 C   0  0  0  0  0  0  0  0  0  0  0  0
   20.1421    9.0160   20.4538 C   0  0  0  0  0  0  0  0  0  0  0  0
   19.9905    9.4289   19.1329 C   0  0  0  0  0  0  0  0  0  0  0  0
   20.9285    9.0318   18.1828 C   0  0  0  0  0  0  0  0  0  0  0  0
   21.9927    8.2038   18.5367 C   0  0  0  0  0  0  0  0  0  0  0  0
   22.3782    4.8726   24.2116 N   0  0  0  0  0  0  0  0  0  0  0  0
   23.0452    5.0813   24.9050 H   0  0  0  0  0  0  0  0  0  0  0  0
   20.9855    4.6686   24.5994 C   0  0  0  0  0  0  0  0  0  0  0  0
   20.3948    5.9111   25.2653 C   0  0  0  0  0  0  0  0  0  0  0  0
   21.0698    6.2265   26.6046 C   0  0  0  0  0  0  0  0  0  0  0  0
   20.3755    7.4256   27.2618 C   0  0  0  0  0  0  0  0  0  0  0  0
   20.4228    8.6636   26.3615 C   0  0  0  0  0  0  0  0  0  0  0  0
   19.7764    8.3584   25.0036 C   0  0  0  0  0  0  0  0  0  0  0  0
   20.4089    7.1324   24.3383 C   0  0  0  0  0  0  0  0  0  0  0  0
   24.1448    1.0709   20.7837 C   0  0  0  0  0  0  0  0  0  0  0  0
   24.2646   -0.0488   21.0587 N   0  0  0  0  0  0  0  0  0  0  0  0
  1  2  2  0  0  0
  1  5  1  0  0  0
  2  3  1  0  0  0
  3 27  1  0  0  0
  3  4  2  0  0  0
  4  6  1  0  0  0
  4  5  1  0  0  0
  5  9  1  0  0  0
  6  7  2  0  0  0
  7 18  1  0  0  0
  7  8  1  0  0  0
  8  9  2  0  0  0
  9 10  1  0  0  0
 10 12  1  0  0  0
 12 13  2  0  0  0
 12 17  1  0  0  0
 13 14  1  0  0  0
 14 15  2  0  0  0
 15 16  1  0  0  0
 16 17  2  0  0  0
 18 20  1  0  0  0
 20 21  1  0  0  0
 21 22  1  0  0  0
 21 26  1  0  0  0
 22 23  1  0  0  0
 23 24  1  0  0  0
 24 25  1  0  0  0
 25 26  1  0  0  0
 27 28  3  0  0  0
 10 11  1  0  0  0
 18 19  1  0  0  0
M  END
> <minimizedAffinity>
-8.43788

$$$$
2PVJ_P44_A_501


 28 31  0  0  0  0  0  0  0  0999 V2000
   20.9990    4.5964   25.7318 N   0  0  0  0  0  0  0  0  0  0  0  0
   20.6154    5.6446   26.5077 C   0  0  0  0  0  0  0  0  0  0  0  0
   20.6891    6.8099   25.7197 C   0  0  0  0  0  0  0  0  0  0  0  0
   21.1351    6.3789   24.4156 C   0  0  0  0  0  0  0  0  0  0  0  0
   21.3185    5.0276   24.4768 N   0  0  0  0  0  0  0  0  0  0  0  0
   21.3787    7.0453   23.2755 N   0  0  0  0  0  0  0  0  0  0  0  0
   21.8054    6.3235   22.2438 C   0  0  0  0  0  0  0  0  0  0  0  0
   22.0037    5.0111   22.2821 N   0  0  0  0  0  0  0  0  0  0  0  0
   21.7518    4.3679   23.4175 C   0  0  0  0  0  0  0  0  0  0  0  0
   21.9399    3.0273   23.5195 N   0  0  0  0  0  0  0  0  0  0  0  0
   22.8583    2.7306   23.7140 H   0  0  0  0  0  0  0  0  0  0  0  0
   21.0068    2.0457   23.3843 C   0  0  0  0  0  0  0  0  0  0  0  0
   20.5789    1.2195   24.4225 C   0  0  0  0  0  0  0  0  0  0  0  0
   19.6709    0.1863   24.1964 C   0  0  0  0  0  0  0  0  0  0  0  0
   19.1742   -0.0308   22.9141 C   0  0  0  0  0  0  0  0  0  0  0  0
   19.5697    0.8123   21.8782 C   0  0  0  0  0  0  0  0  0  0  0  0
   20.4775    1.8449   22.1088 C   0  0  0  0  0  0  0  0  0  0  0  0
   22.0330    6.9694   21.0743 N   0  0  0  0  0  0  0  0  0  0  0  0
   22.6096    6.5484   20.3964 H   0  0  0  0  0  0  0  0  0  0  0  0
   21.4422    8.2755   20.7973 C   0  0  0  0  0  0  0  0  0  0  0  0
   21.0865    8.4347   19.3194 C   0  0  0  0  0  0  0  0  0  0  0  0
   20.1655    9.6344   19.0714 C   0  0  0  0  0  0  0  0  0  0  0  0
   19.7751    9.6865   17.5893 C   0  0  0  0  0  0  0  0  0  0  0  0
   21.0085    9.7941   16.6879 C   0  0  0  0  0  0  0  0  0  0  0  0
   21.9575    8.6153   16.9426 C   0  0  0  0  0  0  0  0  0  0  0  0
   22.3294    8.4979   18.4237 C   0  0  0  0  0  0  0  0  0  0  0  0
   20.4467    8.1671   26.1116 C   0  0  0  0  0  0  0  0  0  0  0  0
   20.2263    9.2842   26.3284 N   0  0  0  0  0  0  0  0  0  0  0  0
  1  2  2  0  0  0
  1  5  1  0  0  0
  2  3  1  0  0  0
  3 27  1  0  0  0
  3  4  2  0  0  0
  4  6  1  0  0  0
  4  5  1  0  0  0
  5  9  1  0  0  0
  6  7  2  0  0  0
  7 18  1  0  0  0
  7  8  1  0  0  0
  8  9  2  0  0  0
  9 10  1  0  0  0
 10 12  1  0  0  0
 12 13  2  0  0  0
 12 17  1  0  0  0
 13 14  1  0  0  0
 14 15  2  0  0  0
 15 16  1  0  0  0
 16 17  2  0  0  0
 18 20  1  0  0  0
 20 21  1  0  0  0
 21 22  1  0  0  0
 21 26  1  0  0  0
 22 23  1  0  0  0
 23 24  1  0  0  0
 24 25  1  0  0  0
 25 26  1  0  0  0
 27 28  3  0  0  0
 10 11  1  0  0  0
 18 19  1  0  0  0
M  END
> <minimizedAffinity>
-8.37262

$$$$
2PVJ_P44_A_501


 28 31  0  0  0  0  0  0  0  0999 V2000
   24.0795    0.9772   19.6550 N   0  0  0  0  0  0  0  0  0  0  0  0
   25.2235    1.1556   18.9427 C   0  0  0  0  0  0  0  0  0  0  0  0
   25.4069    2.5412   18.7676 C   0  0  0  0  0  0  0  0  0  0  0  0
   24.2947    3.1758   19.4353 C   0  0  0  0  0  0  0  0  0  0  0  0
   23.5119    2.1830   19.9501 N   0  0  0  0  0  0  0  0  0  0  0  0
   23.9506    4.4635   19.5976 N   0  0  0  0  0  0  0  0  0  0  0  0
   22.8260    4.6993   20.2663 C   0  0  0  0  0  0  0  0  0  0  0  0
   22.0414    3.7513   20.7652 N   0  0  0  0  0  0  0  0  0  0  0  0
   22.4013    2.4827   20.5995 C   0  0  0  0  0  0  0  0  0  0  0  0
   21.6379    1.4694   21.0825 N   0  0  0  0  0  0  0  0  0  0  0  0
   21.4375    0.7382   20.4544 H   0  0  0  0  0  0  0  0  0  0  0  0
   21.1172    1.3465   22.3341 C   0  0  0  0  0  0  0  0  0  0  0  0
   21.7673    1.7512   23.4991 C   0  0  0  0  0  0  0  0  0  0  0  0
   21.2044    1.5297   24.7550 C   0  0  0  0  0  0  0  0  0  0  0  0
   19.9691    0.8958   24.8580 C   0  0  0  0  0  0  0  0  0  0  0  0
   19.2970    0.5200   23.6974 C   0  0  0  0  0  0  0  0  0  0  0  0
   19.8633    0.7441   22.4433 C   0  0  0  0  0  0  0  0  0  0  0  0
   22.4712    5.9919   20.4662 N   0  0  0  0  0  0  0  0  0  0  0  0
   21.9711    6.4677   19.7642 H   0  0  0  0  0  0  0  0  0  0  0  0
   22.8138    6.6946   21.6993 C   0  0  0  0  0  0  0  0  0  0  0  0
   21.6845    6.6202   22.7265 C   0  0  0  0  0  0  0  0  0  0  0  0
   21.9750    5.6010   23.8337 C   0  0  0  0  0  0  0  0  0  0  0  0
   20.7707    5.5094   24.7787 C   0  0  0  0  0  0  0  0  0  0  0  0
   20.4463    6.8679   25.4070 C   0  0  0  0  0  0  0  0  0  0  0  0
   20.1803    7.9099   24.3122 C   0  0  0  0  0  0  0  0  0  0  0  0
   21.3407    7.9933   23.3161 C   0  0  0  0  0  0  0  0  0  0  0  0
   26.4323    3.2178   18.0293 C   0  0  0  0  0  0  0  0  0  0  0  0
   27.3195    3.7624   17.5195 N   0  0  0  0  0  0  0  0  0  0  0  0
  1  2  2  0  0  0
  1  5  1  0  0  0
  2  3  1  0  0  0
  3 27  1  0  0  0
  3  4  2  0  0  0
  4  6  1  0  0  0
  4  5  1  0  0  0
  5  9  1  0  0  0
  6  7  2  0  0  0
  7 18  1  0  0  0
  7  8  1  0  0  0
  8  9  2  0  0  0
  9 10  1  0  0  0
 10 12  1  0  0  0
 12 13  2  0  0  0
 12 17  1  0  0  0
 13 14  1  0  0  0
 14 15  2  0  0  0
 15 16  1  0  0  0
 16 17  2  0  0  0
 18 20  1  0  0  0
 20 21  1  0  0  0
 21 22  1  0  0  0
 21 26  1  0  0  0
 22 23  1  0  0  0
 23 24  1  0  0  0
 24 25  1  0  0  0
 25 26  1  0  0  0
 27 28  3  0  0  0
 10 11  1  0  0  0
 18 19  1  0  0  0
M  END
> <minimizedAffinity>
-8.15958

$$$$
