4Q7P_3MH_A_302


 10 10  0  0  0  0  0  0  0  0999 V2000
   16.5373    2.5059   14.1891 S   0  0  0  0  0  0  0  0  0  0  0  0
   15.7110    2.1642   15.6865 C   0  0  0  0  0  0  0  0  0  0  0  0
   15.0201    3.1986   16.3682 C   0  0  0  0  0  0  0  0  0  0  0  0
   14.9104    4.5751   15.7448 C   0  0  0  0  0  0  0  0  0  0  0  0
   14.4290    2.9456   17.5511 C   0  0  0  0  0  0  0  0  0  0  0  0
   14.4780    1.6657   18.0943 C   0  0  0  0  0  0  0  0  0  0  0  0
   15.1845    0.6726   17.4527 C   0  0  0  0  0  0  0  0  0  0  0  0
   15.7672    0.9217   16.2216 N   0  0  0  0  0  0  0  0  0  0  0  0
   16.4572   -0.0416   15.6026 O   0  0  0  0  0  0  0  0  0  0  0  0
   16.4963   -0.9016   15.9726 H   0  0  0  0  0  0  0  0  0  0  0  0
  7  6  2  0  0  0
  7  8  1  0  0  0
  6  5  1  0  0  0
  9  8  1  0  0  0
  8  2  1  0  0  0
  5  3  2  0  0  0
  2  3  1  0  0  0
  2  1  2  0  0  0
  3  4  1  0  0  0
  9 10  1  0  0  0
M  END
> <minimizedAffinity>
-6.02649

$$$$
4Q7P_3MH_A_302


 10 10  0  0  0  0  0  0  0  0999 V2000
   14.9845    0.5995   17.5472 S   0  0  0  0  0  0  0  0  0  0  0  0
   15.3560    1.7812   16.3194 C   0  0  0  0  0  0  0  0  0  0  0  0
   14.8710    3.1086   16.4417 C   0  0  0  0  0  0  0  0  0  0  0  0
   14.1196    3.5288   17.6882 C   0  0  0  0  0  0  0  0  0  0  0  0
   15.1129    4.0048   15.4665 C   0  0  0  0  0  0  0  0  0  0  0  0
   15.8555    3.6349   14.3496 C   0  0  0  0  0  0  0  0  0  0  0  0
   16.2899    2.3353   14.2117 C   0  0  0  0  0  0  0  0  0  0  0  0
   16.0693    1.4197   15.2267 N   0  0  0  0  0  0  0  0  0  0  0  0
   16.4867    0.1571   15.0892 O   0  0  0  0  0  0  0  0  0  0  0  0
   16.9803   -0.0934   14.3332 H   0  0  0  0  0  0  0  0  0  0  0  0
  7  6  2  0  0  0
  7  8  1  0  0  0
  6  5  1  0  0  0
  9  8  1  0  0  0
  8  2  1  0  0  0
  5  3  2  0  0  0
  2  3  1  0  0  0
  2  1  2  0  0  0
  3  4  1  0  0  0
  9 10  1  0  0  0
M  END
> <minimizedAffinity>
-5.31922

$$$$
4Q7P_3MH_A_302


 10 10  0  0  0  0  0  0  0  0999 V2000
   17.3385    3.7970   11.5717 S   0  0  0  0  0  0  0  0  0  0  0  0
   17.5827    2.0862   11.3366 C   0  0  0  0  0  0  0  0  0  0  0  0
   18.8980    1.5586   11.2757 C   0  0  0  0  0  0  0  0  0  0  0  0
   20.0890    2.4627   11.5192 C   0  0  0  0  0  0  0  0  0  0  0  0
   19.0852    0.2463   11.0398 C   0  0  0  0  0  0  0  0  0  0  0  0
   17.9893   -0.5950   10.8767 C   0  0  0  0  0  0  0  0  0  0  0  0
   16.7141   -0.0751   10.8941 C   0  0  0  0  0  0  0  0  0  0  0  0
   16.5173    1.2681   11.1668 N   0  0  0  0  0  0  0  0  0  0  0  0
   15.2793    1.7725   11.1779 O   0  0  0  0  0  0  0  0  0  0  0  0
   14.5417    1.2067   11.0605 H   0  0  0  0  0  0  0  0  0  0  0  0
  7  6  2  0  0  0
  7  8  1  0  0  0
  6  5  1  0  0  0
  9  8  1  0  0  0
  8  2  1  0  0  0
  5  3  2  0  0  0
  2  3  1  0  0  0
  2  1  2  0  0  0
  3  4  1  0  0  0
  9 10  1  0  0  0
M  END
> <minimizedAffinity>
-5.12454

$$$$
4Q7P_3MH_A_302


 10 10  0  0  0  0  0  0  0  0999 V2000
   19.1098    3.4795   11.5926 S   0  0  0  0  0  0  0  0  0  0  0  0
   18.3315    1.9193   11.5469 C   0  0  0  0  0  0  0  0  0  0  0  0
   17.1800    1.6769   12.3388 C   0  0  0  0  0  0  0  0  0  0  0  0
   16.5634    2.8024   13.1439 C   0  0  0  0  0  0  0  0  0  0  0  0
   16.6129    0.4558   12.3437 C   0  0  0  0  0  0  0  0  0  0  0  0
   17.1435   -0.5615   11.5569 C   0  0  0  0  0  0  0  0  0  0  0  0
   18.2860   -0.3374   10.8210 C   0  0  0  0  0  0  0  0  0  0  0  0
   18.8534    0.9252   10.7900 N   0  0  0  0  0  0  0  0  0  0  0  0
   19.9654    1.1400   10.0797 O   0  0  0  0  0  0  0  0  0  0  0  0
   20.3268    0.4523    9.5558 H   0  0  0  0  0  0  0  0  0  0  0  0
  7  6  2  0  0  0
  7  8  1  0  0  0
  6  5  1  0  0  0
  9  8  1  0  0  0
  8  2  1  0  0  0
  5  3  2  0  0  0
  2  3  1  0  0  0
  2  1  2  0  0  0
  3  4  1  0  0  0
  9 10  1  0  0  0
M  END
> <minimizedAffinity>
-4.44895

$$$$
4Q7P_3MH_A_302


 10 10  0  0  0  0  0  0  0  0999 V2000
   16.5240    2.0512   13.1058 S   0  0  0  0  0  0  0  0  0  0  0  0
   15.8277    2.9414   14.4341 C   0  0  0  0  0  0  0  0  0  0  0  0
   15.6446    2.3122   15.6921 C   0  0  0  0  0  0  0  0  0  0  0  0
   16.1491    0.9010   15.9139 C   0  0  0  0  0  0  0  0  0  0  0  0
   15.0572    2.9840   16.7002 C   0  0  0  0  0  0  0  0  0  0  0  0
   14.6489    4.3009   16.5145 C   0  0  0  0  0  0  0  0  0  0  0  0
   14.7886    4.8972   15.2809 C   0  0  0  0  0  0  0  0  0  0  0  0
   15.4199    4.2196   14.2515 N   0  0  0  0  0  0  0  0  0  0  0  0
   15.5500    4.7975   13.0530 O   0  0  0  0  0  0  0  0  0  0  0  0
   15.2679    5.6820   12.9263 H   0  0  0  0  0  0  0  0  0  0  0  0
  7  6  2  0  0  0
  7  8  1  0  0  0
  6  5  1  0  0  0
  9  8  1  0  0  0
  8  2  1  0  0  0
  5  3  2  0  0  0
  2  3  1  0  0  0
  2  1  2  0  0  0
  3  4  1  0  0  0
  9 10  1  0  0  0
M  END
> <minimizedAffinity>
-4.43665

$$$$
4Q7P_3MH_A_302


 10 10  0  0  0  0  0  0  0  0999 V2000
   14.5725    1.3606   17.8972 S   0  0  0  0  0  0  0  0  0  0  0  0
   15.1226    2.4448   16.6468 C   0  0  0  0  0  0  0  0  0  0  0  0
   16.0675    2.0003   15.6868 C   0  0  0  0  0  0  0  0  0  0  0  0
   16.5204    0.5546   15.6825 C   0  0  0  0  0  0  0  0  0  0  0  0
   16.5318    2.8546   14.7555 C   0  0  0  0  0  0  0  0  0  0  0  0
   16.0697    4.1664   14.7219 C   0  0  0  0  0  0  0  0  0  0  0  0
   15.1843    4.6088   15.6798 C   0  0  0  0  0  0  0  0  0  0  0  0
   14.6819    3.7248   16.6197 N   0  0  0  0  0  0  0  0  0  0  0  0
   13.8268    4.1568   17.5522 O   0  0  0  0  0  0  0  0  0  0  0  0
   13.5216    5.0425   17.5337 H   0  0  0  0  0  0  0  0  0  0  0  0
  7  6  2  0  0  0
  7  8  1  0  0  0
  6  5  1  0  0  0
  9  8  1  0  0  0
  8  2  1  0  0  0
  5  3  2  0  0  0
  2  3  1  0  0  0
  2  1  2  0  0  0
  3  4  1  0  0  0
  9 10  1  0  0  0
M  END
> <minimizedAffinity>
-4.17321

$$$$
4Q7P_3MH_A_302


 10 10  0  0  0  0  0  0  0  0999 V2000
   15.1548    1.7170   16.4550 S   0  0  0  0  0  0  0  0  0  0  0  0
   15.7091    2.7004   15.1255 C   0  0  0  0  0  0  0  0  0  0  0  0
   15.4273    4.0904   15.1048 C   0  0  0  0  0  0  0  0  0  0  0  0
   14.7370    4.7412   16.2860 C   0  0  0  0  0  0  0  0  0  0  0  0
   15.8087    4.8377   14.0517 C   0  0  0  0  0  0  0  0  0  0  0  0
   16.4966    4.2509   12.9944 C   0  0  0  0  0  0  0  0  0  0  0  0
   16.7328    2.8940   12.9957 C   0  0  0  0  0  0  0  0  0  0  0  0
   16.3692    2.1286   14.0907 N   0  0  0  0  0  0  0  0  0  0  0  0
   16.5940    0.8108   14.0883 O   0  0  0  0  0  0  0  0  0  0  0  0
   17.0507    0.4148   13.3724 H   0  0  0  0  0  0  0  0  0  0  0  0
  7  6  2  0  0  0
  7  8  1  0  0  0
  6  5  1  0  0  0
  9  8  1  0  0  0
  8  2  1  0  0  0
  5  3  2  0  0  0
  2  3  1  0  0  0
  2  1  2  0  0  0
  3  4  1  0  0  0
  9 10  1  0  0  0
M  END
> <minimizedAffinity>
-4.16685

$$$$
4Q7P_3MH_A_302


 10 10  0  0  0  0  0  0  0  0999 V2000
   16.2480    2.4973   13.0972 S   0  0  0  0  0  0  0  0  0  0  0  0
   17.6857    2.1103   12.1889 C   0  0  0  0  0  0  0  0  0  0  0  0
   17.8150    0.8398   11.5717 C   0  0  0  0  0  0  0  0  0  0  0  0
   16.6626   -0.1428   11.6116 C   0  0  0  0  0  0  0  0  0  0  0  0
   18.9481    0.5231   10.9170 C   0  0  0  0  0  0  0  0  0  0  0  0
   19.9829    1.4488   10.8284 C   0  0  0  0  0  0  0  0  0  0  0  0
   19.8736    2.6660   11.4636 C   0  0  0  0  0  0  0  0  0  0  0  0
   18.6980    3.0063   12.1112 N   0  0  0  0  0  0  0  0  0  0  0  0
   18.5952    4.1858   12.7319 O   0  0  0  0  0  0  0  0  0  0  0  0
   19.2955    4.8060   12.6784 H   0  0  0  0  0  0  0  0  0  0  0  0
  7  6  2  0  0  0
  7  8  1  0  0  0
  6  5  1  0  0  0
  9  8  1  0  0  0
  8  2  1  0  0  0
  5  3  2  0  0  0
  2  3  1  0  0  0
  2  1  2  0  0  0
  3  4  1  0  0  0
  9 10  1  0  0  0
M  END
> <minimizedAffinity>
-4.12397

$$$$
4Q7P_3MH_A_302


 10 10  0  0  0  0  0  0  0  0999 V2000
   16.4885    0.5478   11.3986 S   0  0  0  0  0  0  0  0  0  0  0  0
   17.5035    1.8796   11.8865 C   0  0  0  0  0  0  0  0  0  0  0  0
   18.8898    1.8625   11.5869 C   0  0  0  0  0  0  0  0  0  0  0  0
   19.4709    0.7394   10.7525 C   0  0  0  0  0  0  0  0  0  0  0  0
   19.6814    2.8653   12.0118 C   0  0  0  0  0  0  0  0  0  0  0  0
   19.1365    3.9276   12.7261 C   0  0  0  0  0  0  0  0  0  0  0  0
   17.7986    3.9227   13.0528 C   0  0  0  0  0  0  0  0  0  0  0  0
   16.9764    2.9087   12.5912 N   0  0  0  0  0  0  0  0  0  0  0  0
   15.6791    2.9023   12.9137 O   0  0  0  0  0  0  0  0  0  0  0  0
   15.3140    3.6143   13.4013 H   0  0  0  0  0  0  0  0  0  0  0  0
  7  6  2  0  0  0
  7  8  1  0  0  0
  6  5  1  0  0  0
  9  8  1  0  0  0
  8  2  1  0  0  0
  5  3  2  0  0  0
  2  3  1  0  0  0
  2  1  2  0  0  0
  3  4  1  0  0  0
  9 10  1  0  0  0
M  END
> <minimizedAffinity>
-4.07576

$$$$
4Q7P_3MH_A_302


 10 10  0  0  0  0  0  0  0  0999 V2000
   16.1156    2.5864   12.9908 S   0  0  0  0  0  0  0  0  0  0  0  0
   17.5299    1.9622   12.1833 C   0  0  0  0  0  0  0  0  0  0  0  0
   18.6884    2.7704   12.0543 C   0  0  0  0  0  0  0  0  0  0  0  0
   18.7362    4.1362   12.7082 C   0  0  0  0  0  0  0  0  0  0  0  0
   19.7597    2.3068   11.3833 C   0  0  0  0  0  0  0  0  0  0  0  0
   19.7380    1.0285   10.8349 C   0  0  0  0  0  0  0  0  0  0  0  0
   18.5980    0.2607   10.9242 C   0  0  0  0  0  0  0  0  0  0  0  0
   17.5062    0.7224   11.6397 N   0  0  0  0  0  0  0  0  0  0  0  0
   16.3984   -0.0215   11.7209 O   0  0  0  0  0  0  0  0  0  0  0  0
   16.3816   -0.8796   11.3448 H   0  0  0  0  0  0  0  0  0  0  0  0
  7  6  2  0  0  0
  7  8  1  0  0  0
  6  5  1  0  0  0
  9  8  1  0  0  0
  8  2  1  0  0  0
  5  3  2  0  0  0
  2  3  1  0  0  0
  2  1  2  0  0  0
  3  4  1  0  0  0
  9 10  1  0  0  0
M  END
> <minimizedAffinity>
-3.91389

$$$$
