4JSZ_FB2_A_302


 12 12  0  0  0  0  0  0  0  0999 V2000
   30.7517   -0.6965   14.3682 C   0  0  0  0  0  0  0  0  0  0  0  0
   31.3163   -1.9533   14.1608 C   0  0  0  0  0  0  0  0  0  0  0  0
   32.2978   -2.1351   13.1687 C   0  0  0  0  0  0  0  0  0  0  0  0
   32.6840   -1.0410   12.3487 C   0  0  0  0  0  0  0  0  0  0  0  0
   32.1265    0.2240   12.5582 C   0  0  0  0  0  0  0  0  0  0  0  0
   31.1777    0.3902   13.5857 C   0  0  0  0  0  0  0  0  0  0  0  0
   33.9936   -1.3302   11.0555 S   0  0  0  0  0  0  0  0  0  0  0  0
   35.2481   -1.8102   11.7151 O   0  0  0  0  0  0  0  0  0  0  0  0
   34.2478    0.0138   10.2693 O   0  0  0  0  0  0  0  0  0  0  0  0
   33.2685   -2.3961   10.1650 N   0  0  0  0  0  0  0  0  0  0  0  0
   32.4288   -1.9845    9.7578 H   0  0  0  0  0  0  0  0  0  0  0  0
   33.0098   -3.1990   10.7384 H   0  0  0  0  0  0  0  0  0  0  0  0
  1  2  1  0  0  0
  1  6  2  0  0  0
  2  3  2  0  0  0
  3  4  1  0  0  0
  4  5  2  0  0  0
  4  7  1  0  0  0
  5  6  1  0  0  0
  7  9  2  0  0  0
  7  8  2  0  0  0
  7 10  1  0  0  0
 10 11  1  0  0  0
 10 12  1  0  0  0
M  END
> <minimizedAffinity>
-5.15451

$$$$
4JSZ_FB2_A_302


 12 12  0  0  0  0  0  0  0  0999 V2000
   30.7690   -0.6749   14.3649 C   0  0  0  0  0  0  0  0  0  0  0  0
   31.1919    0.3842   13.5645 C   0  0  0  0  0  0  0  0  0  0  0  0
   32.1596    0.1750   12.5642 C   0  0  0  0  0  0  0  0  0  0  0  0
   32.7364   -1.1128   12.3982 C   0  0  0  0  0  0  0  0  0  0  0  0
   32.3095   -2.1806   13.1934 C   0  0  0  0  0  0  0  0  0  0  0  0
   31.3089   -1.9557   14.1586 C   0  0  0  0  0  0  0  0  0  0  0  0
   34.0067   -1.3411   11.0545 S   0  0  0  0  0  0  0  0  0  0  0  0
   35.2903   -1.8181   11.6578 O   0  0  0  0  0  0  0  0  0  0  0  0
   34.2122    0.0297   10.3008 O   0  0  0  0  0  0  0  0  0  0  0  0
   33.2698   -2.3930   10.1569 N   0  0  0  0  0  0  0  0  0  0  0  0
   32.4103   -1.9843    9.7901 H   0  0  0  0  0  0  0  0  0  0  0  0
   33.0437   -3.2167   10.7144 H   0  0  0  0  0  0  0  0  0  0  0  0
  1  2  1  0  0  0
  1  6  2  0  0  0
  2  3  2  0  0  0
  3  4  1  0  0  0
  4  5  2  0  0  0
  4  7  1  0  0  0
  5  6  1  0  0  0
  7  9  2  0  0  0
  7  8  2  0  0  0
  7 10  1  0  0  0
 10 11  1  0  0  0
 10 12  1  0  0  0
M  END
> <minimizedAffinity>
-5.13229

$$$$
4JSZ_FB2_A_302


 12 12  0  0  0  0  0  0  0  0999 V2000
   30.7617    0.1621   14.2023 C   0  0  0  0  0  0  0  0  0  0  0  0
   31.3117    0.7534   13.0669 C   0  0  0  0  0  0  0  0  0  0  0  0
   32.3054    0.0836   12.3288 C   0  0  0  0  0  0  0  0  0  0  0  0
   32.7775   -1.1826   12.7674 C   0  0  0  0  0  0  0  0  0  0  0  0
   32.2231   -1.7839   13.9014 C   0  0  0  0  0  0  0  0  0  0  0  0
   31.1998   -1.1130   14.5985 C   0  0  0  0  0  0  0  0  0  0  0  0
   34.0872   -2.0332   11.7513 S   0  0  0  0  0  0  0  0  0  0  0  0
   34.4538   -3.3322   12.3972 O   0  0  0  0  0  0  0  0  0  0  0  0
   35.3441   -1.0868   11.6335 O   0  0  0  0  0  0  0  0  0  0  0  0
   33.3305   -2.1670   10.3858 N   0  0  0  0  0  0  0  0  0  0  0  0
   33.1218   -1.2380   10.0203 H   0  0  0  0  0  0  0  0  0  0  0  0
   32.4603   -2.6798   10.5282 H   0  0  0  0  0  0  0  0  0  0  0  0
  1  2  1  0  0  0
  1  6  2  0  0  0
  2  3  2  0  0  0
  3  4  1  0  0  0
  4  5  2  0  0  0
  4  7  1  0  0  0
  5  6  1  0  0  0
  7  9  2  0  0  0
  7  8  2  0  0  0
  7 10  1  0  0  0
 10 11  1  0  0  0
 10 12  1  0  0  0
M  END
> <minimizedAffinity>
-4.85136

$$$$
4JSZ_FB2_A_302


 12 12  0  0  0  0  0  0  0  0999 V2000
   31.0834    0.2544   13.8212 C   0  0  0  0  0  0  0  0  0  0  0  0
   31.4588   -0.7979   14.6536 C   0  0  0  0  0  0  0  0  0  0  0  0
   32.5495   -1.6189   14.3111 C   0  0  0  0  0  0  0  0  0  0  0  0
   33.2440   -1.3978   13.0915 C   0  0  0  0  0  0  0  0  0  0  0  0
   32.8764   -0.3381   12.2569 C   0  0  0  0  0  0  0  0  0  0  0  0
   31.8089    0.4959   12.6423 C   0  0  0  0  0  0  0  0  0  0  0  0
   34.6865   -2.5055   12.6874 S   0  0  0  0  0  0  0  0  0  0  0  0
   35.8946   -1.6684   12.4067 O   0  0  0  0  0  0  0  0  0  0  0  0
   34.3169   -3.3994   11.4410 O   0  0  0  0  0  0  0  0  0  0  0  0
   34.7617   -3.3491   14.0057 N   0  0  0  0  0  0  0  0  0  0  0  0
   33.9009   -3.8853   14.1158 H   0  0  0  0  0  0  0  0  0  0  0  0
   34.8772   -2.7240   14.8033 H   0  0  0  0  0  0  0  0  0  0  0  0
  1  2  1  0  0  0
  1  6  2  0  0  0
  2  3  2  0  0  0
  3  4  1  0  0  0
  4  5  2  0  0  0
  4  7  1  0  0  0
  5  6  1  0  0  0
  7  9  2  0  0  0
  7  8  2  0  0  0
  7 10  1  0  0  0
 10 11  1  0  0  0
 10 12  1  0  0  0
M  END
> <minimizedAffinity>
-4.68338

$$$$
4JSZ_FB2_A_302


 12 12  0  0  0  0  0  0  0  0999 V2000
   32.0922    2.2631   11.8731 C   0  0  0  0  0  0  0  0  0  0  0  0
   33.2131    1.5322   11.4853 C   0  0  0  0  0  0  0  0  0  0  0  0
   33.3785    0.2034   11.9188 C   0  0  0  0  0  0  0  0  0  0  0  0
   32.4182   -0.3802   12.7882 C   0  0  0  0  0  0  0  0  0  0  0  0
   31.2875    0.3463   13.1736 C   0  0  0  0  0  0  0  0  0  0  0  0
   31.1228    1.6594   12.6920 C   0  0  0  0  0  0  0  0  0  0  0  0
   32.6770   -2.1448   13.3269 S   0  0  0  0  0  0  0  0  0  0  0  0
   33.5765   -2.1743   14.5224 O   0  0  0  0  0  0  0  0  0  0  0  0
   33.3009   -2.9630   12.1308 O   0  0  0  0  0  0  0  0  0  0  0  0
   31.1941   -2.5657   13.6079 N   0  0  0  0  0  0  0  0  0  0  0  0
   30.6569   -2.5165   12.7423 H   0  0  0  0  0  0  0  0  0  0  0  0
   30.7864   -1.9343   14.2975 H   0  0  0  0  0  0  0  0  0  0  0  0
  1  2  1  0  0  0
  1  6  2  0  0  0
  2  3  2  0  0  0
  3  4  1  0  0  0
  4  5  2  0  0  0
  4  7  1  0  0  0
  5  6  1  0  0  0
  7  9  2  0  0  0
  7  8  2  0  0  0
  7 10  1  0  0  0
 10 11  1  0  0  0
 10 12  1  0  0  0
M  END
> <minimizedAffinity>
-4.65102

$$$$
4JSZ_FB2_A_302


 12 12  0  0  0  0  0  0  0  0999 V2000
   35.0389   -3.3796   11.5417 C   0  0  0  0  0  0  0  0  0  0  0  0
   33.9525   -2.7192   10.9717 C   0  0  0  0  0  0  0  0  0  0  0  0
   33.0566   -1.9971   11.7821 C   0  0  0  0  0  0  0  0  0  0  0  0
   33.2389   -1.9759   13.1910 C   0  0  0  0  0  0  0  0  0  0  0  0
   34.3321   -2.6301   13.7669 C   0  0  0  0  0  0  0  0  0  0  0  0
   35.2388   -3.3101   12.9309 C   0  0  0  0  0  0  0  0  0  0  0  0
   32.0315   -0.9985   14.2195 S   0  0  0  0  0  0  0  0  0  0  0  0
   30.8101   -1.8247   14.4738 O   0  0  0  0  0  0  0  0  0  0  0  0
   31.6638    0.3329   13.4570 O   0  0  0  0  0  0  0  0  0  0  0  0
   32.9127   -0.7192   15.4847 N   0  0  0  0  0  0  0  0  0  0  0  0
   33.7185   -0.1529   15.2194 H   0  0  0  0  0  0  0  0  0  0  0  0
   33.2336   -1.6041   15.8776 H   0  0  0  0  0  0  0  0  0  0  0  0
  1  2  1  0  0  0
  1  6  2  0  0  0
  2  3  2  0  0  0
  3  4  1  0  0  0
  4  5  2  0  0  0
  4  7  1  0  0  0
  5  6  1  0  0  0
  7  9  2  0  0  0
  7  8  2  0  0  0
  7 10  1  0  0  0
 10 11  1  0  0  0
 10 12  1  0  0  0
M  END
> <minimizedAffinity>
-4.63535

$$$$
4JSZ_FB2_A_302


 12 12  0  0  0  0  0  0  0  0999 V2000
   35.4509   -3.6153   11.5737 C   0  0  0  0  0  0  0  0  0  0  0  0
   35.3540   -3.5387   12.9615 C   0  0  0  0  0  0  0  0  0  0  0  0
   34.2926   -2.8351   13.5607 C   0  0  0  0  0  0  0  0  0  0  0  0
   33.3396   -2.1666   12.7460 C   0  0  0  0  0  0  0  0  0  0  0  0
   33.4278   -2.2474   11.3530 C   0  0  0  0  0  0  0  0  0  0  0  0
   34.4745   -2.9933   10.7773 C   0  0  0  0  0  0  0  0  0  0  0  0
   31.9481   -1.2565   13.5865 S   0  0  0  0  0  0  0  0  0  0  0  0
   31.4421   -0.1758   12.6835 O   0  0  0  0  0  0  0  0  0  0  0  0
   32.4729   -0.6552   14.9475 O   0  0  0  0  0  0  0  0  0  0  0  0
   30.9488   -2.4403   13.8211 N   0  0  0  0  0  0  0  0  0  0  0  0
   31.3744   -3.1260   14.4448 H   0  0  0  0  0  0  0  0  0  0  0  0
   30.7299   -2.8825   12.9283 H   0  0  0  0  0  0  0  0  0  0  0  0
  1  2  1  0  0  0
  1  6  2  0  0  0
  2  3  2  0  0  0
  3  4  1  0  0  0
  4  5  2  0  0  0
  4  7  1  0  0  0
  5  6  1  0  0  0
  7  9  2  0  0  0
  7  8  2  0  0  0
  7 10  1  0  0  0
 10 11  1  0  0  0
 10 12  1  0  0  0
M  END
> <minimizedAffinity>
-4.39113

$$$$
4JSZ_FB2_A_302


 12 12  0  0  0  0  0  0  0  0999 V2000
   31.5435   -1.4449   13.7825 C   0  0  0  0  0  0  0  0  0  0  0  0
   31.8914   -2.2138   12.6740 C   0  0  0  0  0  0  0  0  0  0  0  0
   33.2044   -2.7001   12.5317 C   0  0  0  0  0  0  0  0  0  0  0  0
   34.1883   -2.3708   13.5024 C   0  0  0  0  0  0  0  0  0  0  0  0
   33.8423   -1.6064   14.6208 C   0  0  0  0  0  0  0  0  0  0  0  0
   32.5116   -1.1675   14.7626 C   0  0  0  0  0  0  0  0  0  0  0  0
   35.9096   -3.0461   13.2742 S   0  0  0  0  0  0  0  0  0  0  0  0
   36.8194   -2.4494   14.3015 O   0  0  0  0  0  0  0  0  0  0  0  0
   36.4069   -2.7085   11.8154 O   0  0  0  0  0  0  0  0  0  0  0  0
   35.6291   -4.5773   13.4527 N   0  0  0  0  0  0  0  0  0  0  0  0
   35.0036   -4.8968   12.7131 H   0  0  0  0  0  0  0  0  0  0  0  0
   35.1930   -4.7395   14.3605 H   0  0  0  0  0  0  0  0  0  0  0  0
  1  2  1  0  0  0
  1  6  2  0  0  0
  2  3  2  0  0  0
  3  4  1  0  0  0
  4  5  2  0  0  0
  4  7  1  0  0  0
  5  6  1  0  0  0
  7  9  2  0  0  0
  7  8  2  0  0  0
  7 10  1  0  0  0
 10 11  1  0  0  0
 10 12  1  0  0  0
M  END
> <minimizedAffinity>
-4.38579

$$$$
4JSZ_FB2_A_302


 12 12  0  0  0  0  0  0  0  0999 V2000
   31.6449   -2.2696   13.5966 C   0  0  0  0  0  0  0  0  0  0  0  0
   32.7631   -2.5675   12.8208 C   0  0  0  0  0  0  0  0  0  0  0  0
   33.4563   -1.5414   12.1519 C   0  0  0  0  0  0  0  0  0  0  0  0
   32.9888   -0.2023   12.2362 C   0  0  0  0  0  0  0  0  0  0  0  0
   31.8721    0.1030   13.0201 C   0  0  0  0  0  0  0  0  0  0  0  0
   31.2210   -0.9350   13.7144 C   0  0  0  0  0  0  0  0  0  0  0  0
   33.9460    1.1215   11.3404 S   0  0  0  0  0  0  0  0  0  0  0  0
   34.2588    0.6577    9.9525 O   0  0  0  0  0  0  0  0  0  0  0  0
   35.2681    1.4343   12.1426 O   0  0  0  0  0  0  0  0  0  0  0  0
   32.9217    2.3043   11.4243 N   0  0  0  0  0  0  0  0  0  0  0  0
   32.7691    2.5531   12.4016 H   0  0  0  0  0  0  0  0  0  0  0  0
   32.0373    2.0186   11.0041 H   0  0  0  0  0  0  0  0  0  0  0  0
  1  2  1  0  0  0
  1  6  2  0  0  0
  2  3  2  0  0  0
  3  4  1  0  0  0
  4  5  2  0  0  0
  4  7  1  0  0  0
  5  6  1  0  0  0
  7  9  2  0  0  0
  7  8  2  0  0  0
  7 10  1  0  0  0
 10 11  1  0  0  0
 10 12  1  0  0  0
M  END
> <minimizedAffinity>
-4.34556

$$$$
4JSZ_FB2_A_302


 12 12  0  0  0  0  0  0  0  0999 V2000
   34.0474    0.9226   10.8552 C   0  0  0  0  0  0  0  0  0  0  0  0
   32.9219    1.6083   11.3069 C   0  0  0  0  0  0  0  0  0  0  0  0
   32.1587    1.0952   12.3723 C   0  0  0  0  0  0  0  0  0  0  0  0
   32.5152   -0.1474   12.9618 C   0  0  0  0  0  0  0  0  0  0  0  0
   33.6485   -0.8353   12.5176 C   0  0  0  0  0  0  0  0  0  0  0  0
   34.4206   -0.2801   11.4788 C   0  0  0  0  0  0  0  0  0  0  0  0
   31.4790   -0.7799   14.3750 S   0  0  0  0  0  0  0  0  0  0  0  0
   31.1238   -2.2128   14.1305 O   0  0  0  0  0  0  0  0  0  0  0  0
   30.1821    0.1094   14.5021 O   0  0  0  0  0  0  0  0  0  0  0  0
   32.4669   -0.5406   15.5675 N   0  0  0  0  0  0  0  0  0  0  0  0
   32.6520    0.4581   15.6605 H   0  0  0  0  0  0  0  0  0  0  0  0
   33.3418   -1.0333   15.3883 H   0  0  0  0  0  0  0  0  0  0  0  0
  1  2  1  0  0  0
  1  6  2  0  0  0
  2  3  2  0  0  0
  3  4  1  0  0  0
  4  5  2  0  0  0
  4  7  1  0  0  0
  5  6  1  0  0  0
  7  9  2  0  0  0
  7  8  2  0  0  0
  7 10  1  0  0  0
 10 11  1  0  0  0
 10 12  1  0  0  0
M  END
> <minimizedAffinity>
-4.32844

$$$$
