1YPE_UIP_H_5555


 36 41  0  0  0  0  0  0  0  0999 V2000
   15.5233  -11.3949   19.7307 C   0  0  0  0  0  0  0  0  0  0  0  0
   15.3425  -12.6313   18.8983 N   0  0  0  0  0  0  0  0  0  0  0  0
   14.3277  -12.5138   17.8136 C   0  0  0  0  0  0  0  0  0  0  0  0
   15.1164  -12.6394   16.4857 C   0  0  0  0  0  0  0  0  0  0  0  0
   16.5298  -12.2094   16.8330 C   0  0  0  0  0  0  0  0  0  0  0  0
   16.6906  -12.8338   18.2363 C   0  0  0  0  0  0  0  0  0  0  0  0
   17.7409  -11.9805   19.0237 C   0  0  0  0  0  0  0  0  0  0  0  0
   18.8368  -12.9241   19.6162 C   0  0  0  0  0  0  0  0  0  0  0  0
   18.3276  -13.3177   20.8997 N   0  0  0  0  0  0  0  0  0  0  0  0
   17.1502  -12.6932   21.2412 C   0  0  0  0  0  0  0  0  0  0  0  0
   16.5895  -12.7885   22.3639 O   0  0  0  0  0  0  0  0  0  0  0  0
   16.9534  -11.4938   20.2805 C   0  0  0  0  0  0  0  0  0  0  0  0
   12.2940  -10.8554   22.5658 C   0  0  0  0  0  0  0  0  0  0  0  0
   12.5676  -12.1270   22.0396 C   0  0  0  0  0  0  0  0  0  0  0  0
   13.6192  -12.3059   21.1243 C   0  0  0  0  0  0  0  0  0  0  0  0
   14.4029  -11.2224   20.7184 C   0  0  0  0  0  0  0  0  0  0  0  0
   14.1042   -9.9539   21.2458 C   0  0  0  0  0  0  0  0  0  0  0  0
   13.0859   -9.7662   22.1618 C   0  0  0  0  0  0  0  0  0  0  0  0
   10.4744  -11.7608   23.8709 N   0  0  0  0  0  0  0  0  0  0  0  0
   11.2292  -10.7150   23.4953 C   0  0  0  0  0  0  0  0  0  0  0  0
   10.8861   -9.5327   24.0715 N   0  0  0  0  0  0  0  0  0  0  0  0
    9.7429  -11.6330   24.5172 H   0  0  0  0  0  0  0  0  0  0  0  0
   10.1376   -9.4951   24.7100 H   0  0  0  0  0  0  0  0  0  0  0  0
   11.3861   -8.7139   23.8503 H   0  0  0  0  0  0  0  0  0  0  0  0
   20.2474  -12.2827   19.6825 C   0  0  0  0  0  0  0  0  0  0  0  0
   20.7877  -12.0503   18.2654 C   0  0  0  0  0  0  0  0  0  0  0  0
   18.8195  -14.4862   21.7136 C   0  0  0  0  0  0  0  0  0  0  0  0
   19.8573  -14.1701   22.7710 C   0  0  0  0  0  0  0  0  0  0  0  0
   19.4734  -13.9215   24.1289 C   0  0  0  0  0  0  0  0  0  0  0  0
   20.3673  -13.5957   25.1710 C   0  0  0  0  0  0  0  0  0  0  0  0
   21.7026  -13.4833   24.7774 C   0  0  0  0  0  0  0  0  0  0  0  0
   22.7752  -13.0320   25.5227 O   0  0  0  0  0  0  0  0  0  0  0  0
   23.9374  -13.4669   24.7348 C   0  0  0  0  0  0  0  0  0  0  0  0
   23.5215  -13.7701   23.3774 O   0  0  0  0  0  0  0  0  0  0  0  0
   22.1219  -13.7303   23.4542 C   0  0  0  0  0  0  0  0  0  0  0  0
   21.2160  -14.0707   22.4223 C   0  0  0  0  0  0  0  0  0  0  0  0
 19 20  2  0  0  0
 20 21  1  0  0  0
 20 13  1  0  0  0
 13 14  2  0  0  0
 13 18  1  0  0  0
 14 15  1  0  0  0
 15 16  2  0  0  0
 16 17  1  0  0  0
 16  1  1  0  0  0
 17 18  2  0  0  0
  1  2  1  0  0  0
  1 12  1  0  0  0
  2  3  1  0  0  0
  2  6  1  0  0  0
  3  4  1  0  0  0
  4  5  1  0  0  0
  5  6  1  0  0  0
  6  7  1  0  0  0
  7  8  1  0  0  0
  7 12  1  0  0  0
  8  9  1  0  0  0
  8 25  1  0  0  0
  9 10  1  0  0  0
  9 27  1  0  0  0
 10 11  2  0  0  0
 10 12  1  0  0  0
 27 28  1  0  0  0
 28 29  2  0  0  0
 28 36  1  0  0  0
 29 30  1  0  0  0
 30 31  2  0  0  0
 31 32  1  0  0  0
 31 35  1  0  0  0
 32 33  1  0  0  0
 33 34  1  0  0  0
 34 35  1  0  0  0
 35 36  2  0  0  0
 25 26  1  0  0  0
 19 22  1  0  0  0
 21 23  1  0  0  0
 21 24  1  0  0  0
M  END
> <minimizedAffinity>
-11.80167

$$$$
1YPE_UIP_H_5555


 36 41  0  0  0  0  0  0  0  0999 V2000
   13.9502  -12.5435   18.8305 C   0  0  0  0  0  0  0  0  0  0  0  0
   14.4609  -13.9122   19.1766 N   0  0  0  0  0  0  0  0  0  0  0  0
   13.4046  -14.9462   19.3652 C   0  0  0  0  0  0  0  0  0  0  0  0
   13.6144  -15.9732   18.2239 C   0  0  0  0  0  0  0  0  0  0  0  0
   14.3267  -15.1974   17.1313 C   0  0  0  0  0  0  0  0  0  0  0  0
   15.2813  -14.3189   17.9691 C   0  0  0  0  0  0  0  0  0  0  0  0
   15.5895  -13.0241   17.1446 C   0  0  0  0  0  0  0  0  0  0  0  0
   17.1362  -12.8137   17.0678 C   0  0  0  0  0  0  0  0  0  0  0  0
   17.4600  -12.0405   18.2335 N   0  0  0  0  0  0  0  0  0  0  0  0
   16.3588  -11.6513   18.9606 C   0  0  0  0  0  0  0  0  0  0  0  0
   16.3920  -10.8675   19.9447 O   0  0  0  0  0  0  0  0  0  0  0  0
   15.1053  -11.8692   18.0766 C   0  0  0  0  0  0  0  0  0  0  0  0
   12.3273  -10.4819   22.2763 C   0  0  0  0  0  0  0  0  0  0  0  0
   12.7128  -11.8275   22.3745 C   0  0  0  0  0  0  0  0  0  0  0  0
   13.2459  -12.4968   21.2594 C   0  0  0  0  0  0  0  0  0  0  0  0
   13.3934  -11.8380   20.0359 C   0  0  0  0  0  0  0  0  0  0  0  0
   12.9883  -10.4943   19.9537 C   0  0  0  0  0  0  0  0  0  0  0  0
   12.4809   -9.8172   21.0470 C   0  0  0  0  0  0  0  0  0  0  0  0
   10.7221  -10.3080   24.0728 N   0  0  0  0  0  0  0  0  0  0  0  0
   11.8013   -9.8360   23.4269 C   0  0  0  0  0  0  0  0  0  0  0  0
   12.3318   -8.7045   23.9615 N   0  0  0  0  0  0  0  0  0  0  0  0
   10.3801   -9.8388   24.8678 H   0  0  0  0  0  0  0  0  0  0  0  0
   11.9245   -8.3001   24.7614 H   0  0  0  0  0  0  0  0  0  0  0  0
   13.1234   -8.2894   23.5489 H   0  0  0  0  0  0  0  0  0  0  0  0
   17.6156  -12.1637   15.7438 C   0  0  0  0  0  0  0  0  0  0  0  0
   16.8581  -12.7695   14.5548 C   0  0  0  0  0  0  0  0  0  0  0  0
   18.8395  -11.8742   18.8158 C   0  0  0  0  0  0  0  0  0  0  0  0
   19.2122  -12.8339   19.9272 C   0  0  0  0  0  0  0  0  0  0  0  0
   18.3725  -13.9493   20.2498 C   0  0  0  0  0  0  0  0  0  0  0  0
   18.6279  -14.8764   21.2825 C   0  0  0  0  0  0  0  0  0  0  0  0
   19.7749  -14.6091   22.0331 C   0  0  0  0  0  0  0  0  0  0  0  0
   20.2009  -15.2340   23.1896 O   0  0  0  0  0  0  0  0  0  0  0  0
   21.5978  -14.7936   23.3135 C   0  0  0  0  0  0  0  0  0  0  0  0
   21.8137  -13.6170   22.4910 O   0  0  0  0  0  0  0  0  0  0  0  0
   20.6322  -13.5286   21.7409 C   0  0  0  0  0  0  0  0  0  0  0  0
   20.3715  -12.6152   20.6925 C   0  0  0  0  0  0  0  0  0  0  0  0
 19 20  2  0  0  0
 20 21  1  0  0  0
 20 13  1  0  0  0
 13 14  2  0  0  0
 13 18  1  0  0  0
 14 15  1  0  0  0
 15 16  2  0  0  0
 16 17  1  0  0  0
 16  1  1  0  0  0
 17 18  2  0  0  0
  1  2  1  0  0  0
  1 12  1  0  0  0
  2  3  1  0  0  0
  2  6  1  0  0  0
  3  4  1  0  0  0
  4  5  1  0  0  0
  5  6  1  0  0  0
  6  7  1  0  0  0
  7  8  1  0  0  0
  7 12  1  0  0  0
  8  9  1  0  0  0
  8 25  1  0  0  0
  9 10  1  0  0  0
  9 27  1  0  0  0
 10 11  2  0  0  0
 10 12  1  0  0  0
 27 28  1  0  0  0
 28 29  2  0  0  0
 28 36  1  0  0  0
 29 30  1  0  0  0
 30 31  2  0  0  0
 31 32  1  0  0  0
 31 35  1  0  0  0
 32 33  1  0  0  0
 33 34  1  0  0  0
 34 35  1  0  0  0
 35 36  2  0  0  0
 25 26  1  0  0  0
 19 22  1  0  0  0
 21 23  1  0  0  0
 21 24  1  0  0  0
M  END
> <minimizedAffinity>
-10.10667

$$$$
1YPE_UIP_H_5555


 36 41  0  0  0  0  0  0  0  0999 V2000
   15.4625  -11.6731   19.6787 C   0  0  0  0  0  0  0  0  0  0  0  0
   15.4034  -13.0619   19.1114 N   0  0  0  0  0  0  0  0  0  0  0  0
   14.3271  -13.2826   18.1049 C   0  0  0  0  0  0  0  0  0  0  0  0
   15.0556  -13.5726   16.7683 C   0  0  0  0  0  0  0  0  0  0  0  0
   16.4160  -12.9171   16.9190 C   0  0  0  0  0  0  0  0  0  0  0  0
   16.7303  -13.2287   18.3985 C   0  0  0  0  0  0  0  0  0  0  0  0
   17.6983  -12.1178   18.9277 C   0  0  0  0  0  0  0  0  0  0  0  0
   18.9383  -12.7884   19.6024 C   0  0  0  0  0  0  0  0  0  0  0  0
   18.5527  -12.9791   20.9723 N   0  0  0  0  0  0  0  0  0  0  0  0
   17.3225  -12.4445   21.2785 C   0  0  0  0  0  0  0  0  0  0  0  0
   16.8382  -12.3827   22.4385 O   0  0  0  0  0  0  0  0  0  0  0  0
   16.9197  -11.4903   20.1263 C   0  0  0  0  0  0  0  0  0  0  0  0
   12.3452  -10.9723   22.6026 C   0  0  0  0  0  0  0  0  0  0  0  0
   12.6562  -12.2802   22.2005 C   0  0  0  0  0  0  0  0  0  0  0  0
   13.6719  -12.5107   21.2567 C   0  0  0  0  0  0  0  0  0  0  0  0
   14.3818  -11.4441   20.6987 C   0  0  0  0  0  0  0  0  0  0  0  0
   14.0460  -10.1404   21.1036 C   0  0  0  0  0  0  0  0  0  0  0  0
   13.0631   -9.8995   22.0455 C   0  0  0  0  0  0  0  0  0  0  0  0
   11.1841   -9.6222   24.2344 N   0  0  0  0  0  0  0  0  0  0  0  0
   11.3189  -10.7791   23.5653 C   0  0  0  0  0  0  0  0  0  0  0  0
   10.4041  -11.7309   23.8893 N   0  0  0  0  0  0  0  0  0  0  0  0
   10.4628   -9.5174   24.8962 H   0  0  0  0  0  0  0  0  0  0  0  0
    9.7141  -11.5407   24.5652 H   0  0  0  0  0  0  0  0  0  0  0  0
   10.4315  -12.6105   23.4479 H   0  0  0  0  0  0  0  0  0  0  0  0
   20.2535  -11.9830   19.4382 C   0  0  0  0  0  0  0  0  0  0  0  0
   20.7569  -12.0851   17.9924 C   0  0  0  0  0  0  0  0  0  0  0  0
   19.2359  -13.8969   21.9523 C   0  0  0  0  0  0  0  0  0  0  0  0
   18.5120  -15.1897   22.2683 C   0  0  0  0  0  0  0  0  0  0  0  0
   18.2379  -16.1505   21.2412 C   0  0  0  0  0  0  0  0  0  0  0  0
   17.5490  -17.3660   21.4396 C   0  0  0  0  0  0  0  0  0  0  0  0
   17.0925  -17.5691   22.7438 C   0  0  0  0  0  0  0  0  0  0  0  0
   16.2649  -18.5727   23.2100 O   0  0  0  0  0  0  0  0  0  0  0  0
   16.4228  -18.4868   24.6688 C   0  0  0  0  0  0  0  0  0  0  0  0
   16.9844  -17.1962   25.0241 O   0  0  0  0  0  0  0  0  0  0  0  0
   17.3508  -16.6533   23.7842 C   0  0  0  0  0  0  0  0  0  0  0  0
   18.0560  -15.4451   23.5738 C   0  0  0  0  0  0  0  0  0  0  0  0
 19 20  2  0  0  0
 20 21  1  0  0  0
 20 13  1  0  0  0
 13 14  2  0  0  0
 13 18  1  0  0  0
 14 15  1  0  0  0
 15 16  2  0  0  0
 16 17  1  0  0  0
 16  1  1  0  0  0
 17 18  2  0  0  0
  1  2  1  0  0  0
  1 12  1  0  0  0
  2  3  1  0  0  0
  2  6  1  0  0  0
  3  4  1  0  0  0
  4  5  1  0  0  0
  5  6  1  0  0  0
  6  7  1  0  0  0
  7  8  1  0  0  0
  7 12  1  0  0  0
  8  9  1  0  0  0
  8 25  1  0  0  0
  9 10  1  0  0  0
  9 27  1  0  0  0
 10 11  2  0  0  0
 10 12  1  0  0  0
 27 28  1  0  0  0
 28 29  2  0  0  0
 28 36  1  0  0  0
 29 30  1  0  0  0
 30 31  2  0  0  0
 31 32  1  0  0  0
 31 35  1  0  0  0
 32 33  1  0  0  0
 33 34  1  0  0  0
 34 35  1  0  0  0
 35 36  2  0  0  0
 25 26  1  0  0  0
 19 22  1  0  0  0
 21 23  1  0  0  0
 21 24  1  0  0  0
M  END
> <minimizedAffinity>
-9.90971

$$$$
1YPE_UIP_H_5555


 36 41  0  0  0  0  0  0  0  0999 V2000
   15.0678  -14.7342   18.3714 C   0  0  0  0  0  0  0  0  0  0  0  0
   13.9458  -14.5041   19.3420 N   0  0  0  0  0  0  0  0  0  0  0  0
   12.5836  -14.7714   18.8003 C   0  0  0  0  0  0  0  0  0  0  0  0
   12.0396  -15.9763   19.6086 C   0  0  0  0  0  0  0  0  0  0  0  0
   13.2777  -16.7013   20.1030 C   0  0  0  0  0  0  0  0  0  0  0  0
   14.1984  -15.5101   20.4470 C   0  0  0  0  0  0  0  0  0  0  0  0
   15.6809  -15.9967   20.3184 C   0  0  0  0  0  0  0  0  0  0  0  0
   16.4606  -15.6356   21.6238 C   0  0  0  0  0  0  0  0  0  0  0  0
   16.9692  -14.3127   21.3938 N   0  0  0  0  0  0  0  0  0  0  0  0
   16.7213  -13.8391   20.1261 C   0  0  0  0  0  0  0  0  0  0  0  0
   17.1787  -12.7621   19.6628 O   0  0  0  0  0  0  0  0  0  0  0  0
   16.2916  -15.0401   19.2466 C   0  0  0  0  0  0  0  0  0  0  0  0
   15.3828  -11.4728   15.5391 C   0  0  0  0  0  0  0  0  0  0  0  0
   15.9833  -12.7103   15.2619 C   0  0  0  0  0  0  0  0  0  0  0  0
   15.8770  -13.7723   16.1765 C   0  0  0  0  0  0  0  0  0  0  0  0
   15.1800  -13.6119   17.3770 C   0  0  0  0  0  0  0  0  0  0  0  0
   14.5974  -12.3605   17.6431 C   0  0  0  0  0  0  0  0  0  0  0  0
   14.6768  -11.3130   16.7444 C   0  0  0  0  0  0  0  0  0  0  0  0
   14.6168   -9.4189   14.5248 N   0  0  0  0  0  0  0  0  0  0  0  0
   15.5038  -10.4258   14.5868 C   0  0  0  0  0  0  0  0  0  0  0  0
   16.5061  -10.3553   13.6714 N   0  0  0  0  0  0  0  0  0  0  0  0
   14.7266   -8.7069   13.8538 H   0  0  0  0  0  0  0  0  0  0  0  0
   16.5394   -9.6051   13.0347 H   0  0  0  0  0  0  0  0  0  0  0  0
   17.1987  -11.0545   13.6450 H   0  0  0  0  0  0  0  0  0  0  0  0
   17.5602  -16.6621   22.0017 C   0  0  0  0  0  0  0  0  0  0  0  0
   17.5507  -16.9109   23.5157 C   0  0  0  0  0  0  0  0  0  0  0  0
   17.4773  -13.3751   22.4579 C   0  0  0  0  0  0  0  0  0  0  0  0
   18.9722  -13.3949   22.7029 C   0  0  0  0  0  0  0  0  0  0  0  0
   19.8981  -13.2306   21.6217 C   0  0  0  0  0  0  0  0  0  0  0  0
   21.3027  -13.2608   21.7536 C   0  0  0  0  0  0  0  0  0  0  0  0
   21.7595  -13.5130   23.0491 C   0  0  0  0  0  0  0  0  0  0  0  0
   23.0556  -13.7535   23.4636 O   0  0  0  0  0  0  0  0  0  0  0  0
   22.9763  -13.5922   24.9224 C   0  0  0  0  0  0  0  0  0  0  0  0
   21.5921  -13.6859   25.3497 O   0  0  0  0  0  0  0  0  0  0  0  0
   20.8814  -13.6696   24.1410 C   0  0  0  0  0  0  0  0  0  0  0  0
   19.4749  -13.6222   23.9964 C   0  0  0  0  0  0  0  0  0  0  0  0
 19 20  2  0  0  0
 20 21  1  0  0  0
 20 13  1  0  0  0
 13 14  2  0  0  0
 13 18  1  0  0  0
 14 15  1  0  0  0
 15 16  2  0  0  0
 16 17  1  0  0  0
 16  1  1  0  0  0
 17 18  2  0  0  0
  1  2  1  0  0  0
  1 12  1  0  0  0
  2  3  1  0  0  0
  2  6  1  0  0  0
  3  4  1  0  0  0
  4  5  1  0  0  0
  5  6  1  0  0  0
  6  7  1  0  0  0
  7  8  1  0  0  0
  7 12  1  0  0  0
  8  9  1  0  0  0
  8 25  1  0  0  0
  9 10  1  0  0  0
  9 27  1  0  0  0
 10 11  2  0  0  0
 10 12  1  0  0  0
 27 28  1  0  0  0
 28 29  2  0  0  0
 28 36  1  0  0  0
 29 30  1  0  0  0
 30 31  2  0  0  0
 31 32  1  0  0  0
 31 35  1  0  0  0
 32 33  1  0  0  0
 33 34  1  0  0  0
 34 35  1  0  0  0
 35 36  2  0  0  0
 25 26  1  0  0  0
 19 22  1  0  0  0
 21 23  1  0  0  0
 21 24  1  0  0  0
M  END
> <minimizedAffinity>
-8.91596

$$$$
