1YPJ_UIB_H_5555


 36 40  0  0  0  0  0  0  0  0999 V2000
   15.7990  -11.2722   19.8061 C   0  0  0  0  0  0  0  0  0  0  0  0
   17.2775  -11.4608   20.2114 C   0  0  0  0  0  0  0  0  0  0  0  0
   17.9644  -12.0027   18.9419 C   0  0  0  0  0  0  0  0  0  0  0  0
   16.7942  -12.5694   18.1015 C   0  0  0  0  0  0  0  0  0  0  0  0
   16.9583  -14.0604   17.7108 C   0  0  0  0  0  0  0  0  0  0  0  0
   16.8117  -11.7419   16.7982 C   0  0  0  0  0  0  0  0  0  0  0  0
   15.5610  -12.3877   18.8826 N   0  0  0  0  0  0  0  0  0  0  0  0
   14.3433  -12.2305   18.0588 C   0  0  0  0  0  0  0  0  0  0  0  0
   18.9850  -13.0481   19.4613 C   0  0  0  0  0  0  0  0  0  0  0  0
   18.5572  -13.3385   20.8224 N   0  0  0  0  0  0  0  0  0  0  0  0
   17.4946  -12.5848   21.2366 C   0  0  0  0  0  0  0  0  0  0  0  0
   16.9254  -12.6661   22.3567 O   0  0  0  0  0  0  0  0  0  0  0  0
   12.6193  -10.6857   22.7544 C   0  0  0  0  0  0  0  0  0  0  0  0
   13.3540   -9.6086   22.2191 C   0  0  0  0  0  0  0  0  0  0  0  0
   14.3682   -9.7952   21.2985 C   0  0  0  0  0  0  0  0  0  0  0  0
   14.7227  -11.0849   20.8392 C   0  0  0  0  0  0  0  0  0  0  0  0
   14.0202  -12.1633   21.3915 C   0  0  0  0  0  0  0  0  0  0  0  0
   12.9737  -11.9639   22.3045 C   0  0  0  0  0  0  0  0  0  0  0  0
   10.8107  -11.5149   24.1667 N   0  0  0  0  0  0  0  0  0  0  0  0
   11.5747  -10.5091   23.7189 C   0  0  0  0  0  0  0  0  0  0  0  0
   11.2190   -9.3212   24.2905 N   0  0  0  0  0  0  0  0  0  0  0  0
   10.1054  -11.3393   24.8307 H   0  0  0  0  0  0  0  0  0  0  0  0
   10.9548  -12.4293   23.8317 H   0  0  0  0  0  0  0  0  0  0  0  0
   10.4861   -9.2907   24.9471 H   0  0  0  0  0  0  0  0  0  0  0  0
   20.4005  -12.4434   19.5286 C   0  0  0  0  0  0  0  0  0  0  0  0
   20.9215  -12.2493   18.0911 C   0  0  0  0  0  0  0  0  0  0  0  0
   19.0442  -14.4802   21.6690 C   0  0  0  0  0  0  0  0  0  0  0  0
   20.1132  -14.0857   22.6820 C   0  0  0  0  0  0  0  0  0  0  0  0
   19.7661  -13.8097   24.0407 C   0  0  0  0  0  0  0  0  0  0  0  0
   20.7340  -13.5407   25.0336 C   0  0  0  0  0  0  0  0  0  0  0  0
   22.0665  -13.5556   24.5844 C   0  0  0  0  0  0  0  0  0  0  0  0
   22.4239  -13.8184   23.2502 C   0  0  0  0  0  0  0  0  0  0  0  0
   21.4549  -14.0923   22.2641 C   0  0  0  0  0  0  0  0  0  0  0  0
   23.8039  -13.7758   23.0456 O   0  0  0  0  0  0  0  0  0  0  0  0
   24.3039  -13.4590   24.3762 C   0  0  0  0  0  0  0  0  0  0  0  0
   23.1971  -13.3170   25.3314 O   0  0  0  0  0  0  0  0  0  0  0  0
 19 20  1  0  0  0
 20 21  2  0  0  0
 20 13  1  0  0  0
 13 14  1  0  0  0
 13 18  2  0  0  0
 14 15  2  0  0  0
 15 16  1  0  0  0
 16  1  1  0  0  0
 16 17  2  0  0  0
  1  2  1  0  0  0
  1  7  1  0  0  0
  2  3  1  0  0  0
  2 11  1  0  0  0
  3  4  1  0  0  0
  3  9  1  0  0  0
  4  5  1  0  0  0
  4  6  1  0  0  0
  4  7  1  0  0  0
  7  8  1  0  0  0
  9 10  1  0  0  0
  9 25  1  0  0  0
 10 27  1  0  0  0
 10 11  1  0  0  0
 27 28  1  0  0  0
 28 29  1  0  0  0
 28 33  2  0  0  0
 29 30  2  0  0  0
 30 31  1  0  0  0
 31 32  2  0  0  0
 31 36  1  0  0  0
 32 33  1  0  0  0
 32 34  1  0  0  0
 34 35  1  0  0  0
 35 36  1  0  0  0
 11 12  2  0  0  0
 25 26  1  0  0  0
 17 18  1  0  0  0
 19 22  1  0  0  0
 19 23  1  0  0  0
 21 24  1  0  0  0
M  END
> <minimizedAffinity>
-11.71297

$$$$
1YPJ_UIB_H_5555


 36 40  0  0  0  0  0  0  0  0999 V2000
   15.7678  -11.2281   19.7568 C   0  0  0  0  0  0  0  0  0  0  0  0
   17.2407  -11.4796   20.1481 C   0  0  0  0  0  0  0  0  0  0  0  0
   17.9072  -11.9875   18.8539 C   0  0  0  0  0  0  0  0  0  0  0  0
   16.7179  -12.4812   17.9946 C   0  0  0  0  0  0  0  0  0  0  0  0
   16.8347  -13.9585   17.5398 C   0  0  0  0  0  0  0  0  0  0  0  0
   16.7578  -11.5995   16.7278 C   0  0  0  0  0  0  0  0  0  0  0  0
   15.4928  -12.2951   18.7874 N   0  0  0  0  0  0  0  0  0  0  0  0
   14.2785  -12.0652   17.9757 C   0  0  0  0  0  0  0  0  0  0  0  0
   18.8962  -13.0852   19.3242 C   0  0  0  0  0  0  0  0  0  0  0  0
   18.4630  -13.4205   20.6732 N   0  0  0  0  0  0  0  0  0  0  0  0
   17.4254  -12.6527   21.1234 C   0  0  0  0  0  0  0  0  0  0  0  0
   16.8567  -12.7643   22.2411 O   0  0  0  0  0  0  0  0  0  0  0  0
   12.6144  -10.6722   22.7392 C   0  0  0  0  0  0  0  0  0  0  0  0
   13.3637   -9.5927   22.2295 C   0  0  0  0  0  0  0  0  0  0  0  0
   14.3696   -9.7701   21.2981 C   0  0  0  0  0  0  0  0  0  0  0  0
   14.7003  -11.0522   20.8012 C   0  0  0  0  0  0  0  0  0  0  0  0
   13.9833  -12.1339   21.3276 C   0  0  0  0  0  0  0  0  0  0  0  0
   12.9452  -11.9429   22.2519 C   0  0  0  0  0  0  0  0  0  0  0  0
   10.8122  -11.5142   24.1521 N   0  0  0  0  0  0  0  0  0  0  0  0
   11.5781  -10.5055   23.7144 C   0  0  0  0  0  0  0  0  0  0  0  0
   11.2333   -9.3249   24.3076 N   0  0  0  0  0  0  0  0  0  0  0  0
   10.1129  -11.3455   24.8242 H   0  0  0  0  0  0  0  0  0  0  0  0
   10.9488  -12.4239   23.8014 H   0  0  0  0  0  0  0  0  0  0  0  0
   10.5055   -9.3011   24.9702 H   0  0  0  0  0  0  0  0  0  0  0  0
   20.3300  -12.5281   19.4118 C   0  0  0  0  0  0  0  0  0  0  0  0
   20.8793  -12.3562   17.9821 C   0  0  0  0  0  0  0  0  0  0  0  0
   18.9164  -14.6119   21.4684 C   0  0  0  0  0  0  0  0  0  0  0  0
   19.9796  -14.2892   22.5124 C   0  0  0  0  0  0  0  0  0  0  0  0
   21.3642  -14.2562   22.1593 C   0  0  0  0  0  0  0  0  0  0  0  0
   22.3718  -13.8634   23.0678 C   0  0  0  0  0  0  0  0  0  0  0  0
   21.9128  -13.5147   24.3505 C   0  0  0  0  0  0  0  0  0  0  0  0
   20.5554  -13.5486   24.7154 C   0  0  0  0  0  0  0  0  0  0  0  0
   19.5527  -13.9355   23.8036 C   0  0  0  0  0  0  0  0  0  0  0  0
   20.3458  -13.1624   26.0402 O   0  0  0  0  0  0  0  0  0  0  0  0
   21.6989  -12.8768   26.4967 C   0  0  0  0  0  0  0  0  0  0  0  0
   22.6738  -13.1102   25.4231 O   0  0  0  0  0  0  0  0  0  0  0  0
 19 20  1  0  0  0
 20 21  2  0  0  0
 20 13  1  0  0  0
 13 14  1  0  0  0
 13 18  2  0  0  0
 14 15  2  0  0  0
 15 16  1  0  0  0
 16  1  1  0  0  0
 16 17  2  0  0  0
  1  2  1  0  0  0
  1  7  1  0  0  0
  2  3  1  0  0  0
  2 11  1  0  0  0
  3  4  1  0  0  0
  3  9  1  0  0  0
  4  5  1  0  0  0
  4  6  1  0  0  0
  4  7  1  0  0  0
  7  8  1  0  0  0
  9 10  1  0  0  0
  9 25  1  0  0  0
 10 27  1  0  0  0
 10 11  1  0  0  0
 27 28  1  0  0  0
 28 29  1  0  0  0
 28 33  2  0  0  0
 29 30  2  0  0  0
 30 31  1  0  0  0
 31 32  2  0  0  0
 31 36  1  0  0  0
 32 33  1  0  0  0
 32 34  1  0  0  0
 34 35  1  0  0  0
 35 36  1  0  0  0
 11 12  2  0  0  0
 25 26  1  0  0  0
 17 18  1  0  0  0
 19 22  1  0  0  0
 19 23  1  0  0  0
 21 24  1  0  0  0
M  END
> <minimizedAffinity>
-10.98045

$$$$
1YPJ_UIB_H_5555


 36 40  0  0  0  0  0  0  0  0999 V2000
   15.9796  -11.3071   19.8844 C   0  0  0  0  0  0  0  0  0  0  0  0
   17.3898  -11.6802   20.3924 C   0  0  0  0  0  0  0  0  0  0  0  0
   18.1337  -12.1885   19.1413 C   0  0  0  0  0  0  0  0  0  0  0  0
   16.9955  -12.5620   18.1605 C   0  0  0  0  0  0  0  0  0  0  0  0
   17.0494  -14.0264   17.6551 C   0  0  0  0  0  0  0  0  0  0  0  0
   17.2117  -11.6403   16.9409 C   0  0  0  0  0  0  0  0  0  0  0  0
   15.7197  -12.3152   18.8499 N   0  0  0  0  0  0  0  0  0  0  0  0
   14.6031  -11.9673   17.9454 C   0  0  0  0  0  0  0  0  0  0  0  0
   18.9967  -13.3723   19.6492 C   0  0  0  0  0  0  0  0  0  0  0  0
   18.4206  -13.7234   20.9396 N   0  0  0  0  0  0  0  0  0  0  0  0
   17.4028  -12.8983   21.3292 C   0  0  0  0  0  0  0  0  0  0  0  0
   16.7287  -13.0082   22.3869 O   0  0  0  0  0  0  0  0  0  0  0  0
   12.6978  -10.7211   22.7187 C   0  0  0  0  0  0  0  0  0  0  0  0
   13.0573  -11.9973   22.2406 C   0  0  0  0  0  0  0  0  0  0  0  0
   14.0847  -12.1808   21.3342 C   0  0  0  0  0  0  0  0  0  0  0  0
   14.8369  -11.0911   20.8376 C   0  0  0  0  0  0  0  0  0  0  0  0
   14.4641   -9.8163   21.2819 C   0  0  0  0  0  0  0  0  0  0  0  0
   13.4385   -9.6407   22.2230 C   0  0  0  0  0  0  0  0  0  0  0  0
   11.3332   -9.3175   24.1750 N   0  0  0  0  0  0  0  0  0  0  0  0
   11.6270  -10.5139   23.6478 C   0  0  0  0  0  0  0  0  0  0  0  0
   10.7886  -11.4841   24.1170 N   0  0  0  0  0  0  0  0  0  0  0  0
   10.5859   -9.2294   24.8099 H   0  0  0  0  0  0  0  0  0  0  0  0
   11.8646   -8.5266   23.9275 H   0  0  0  0  0  0  0  0  0  0  0  0
   10.0766  -11.2525   24.7562 H   0  0  0  0  0  0  0  0  0  0  0  0
   20.4521  -12.9257   19.8862 C   0  0  0  0  0  0  0  0  0  0  0  0
   20.9816  -12.2696   18.5960 C   0  0  0  0  0  0  0  0  0  0  0  0
   18.7156  -14.9730   21.7199 C   0  0  0  0  0  0  0  0  0  0  0  0
   17.5149  -15.8989   21.8800 C   0  0  0  0  0  0  0  0  0  0  0  0
   17.2312  -16.5167   23.1372 C   0  0  0  0  0  0  0  0  0  0  0  0
   16.0754  -17.2984   23.3570 C   0  0  0  0  0  0  0  0  0  0  0  0
   15.2271  -17.4317   22.2434 C   0  0  0  0  0  0  0  0  0  0  0  0
   15.4956  -16.8362   20.9984 C   0  0  0  0  0  0  0  0  0  0  0  0
   16.6472  -16.0520   20.7853 C   0  0  0  0  0  0  0  0  0  0  0  0
   14.5115  -17.1121   20.0478 O   0  0  0  0  0  0  0  0  0  0  0  0
   13.5816  -17.9444   20.7984 C   0  0  0  0  0  0  0  0  0  0  0  0
   14.0503  -18.1415   22.1764 O   0  0  0  0  0  0  0  0  0  0  0  0
 19 20  1  0  0  0
 20 21  2  0  0  0
 20 13  1  0  0  0
 13 14  1  0  0  0
 13 18  2  0  0  0
 14 15  2  0  0  0
 15 16  1  0  0  0
 16  1  1  0  0  0
 16 17  2  0  0  0
  1  2  1  0  0  0
  1  7  1  0  0  0
  2  3  1  0  0  0
  2 11  1  0  0  0
  3  4  1  0  0  0
  3  9  1  0  0  0
  4  5  1  0  0  0
  4  6  1  0  0  0
  4  7  1  0  0  0
  7  8  1  0  0  0
  9 10  1  0  0  0
  9 25  1  0  0  0
 10 27  1  0  0  0
 10 11  1  0  0  0
 27 28  1  0  0  0
 28 29  1  0  0  0
 28 33  2  0  0  0
 29 30  2  0  0  0
 30 31  1  0  0  0
 31 32  2  0  0  0
 31 36  1  0  0  0
 32 33  1  0  0  0
 32 34  1  0  0  0
 34 35  1  0  0  0
 35 36  1  0  0  0
 11 12  2  0  0  0
 25 26  1  0  0  0
 17 18  1  0  0  0
 19 22  1  0  0  0
 19 23  1  0  0  0
 21 24  1  0  0  0
M  END
> <minimizedAffinity>
-10.13007

$$$$
1YPJ_UIB_H_5555


 36 40  0  0  0  0  0  0  0  0999 V2000
   15.8561  -11.2230   19.4910 C   0  0  0  0  0  0  0  0  0  0  0  0
   17.2564  -11.6980   19.9373 C   0  0  0  0  0  0  0  0  0  0  0  0
   17.9765  -12.0759   18.6274 C   0  0  0  0  0  0  0  0  0  0  0  0
   16.8213  -12.2935   17.6199 C   0  0  0  0  0  0  0  0  0  0  0  0
   16.8251  -13.6879   16.9427 C   0  0  0  0  0  0  0  0  0  0  0  0
   17.0600  -11.2397   16.5172 C   0  0  0  0  0  0  0  0  0  0  0  0
   15.5580  -12.0913   18.3460 N   0  0  0  0  0  0  0  0  0  0  0  0
   14.4480  -11.6030   17.5001 C   0  0  0  0  0  0  0  0  0  0  0  0
   18.8038  -13.3384   18.9820 C   0  0  0  0  0  0  0  0  0  0  0  0
   18.2242  -13.8233   20.2266 N   0  0  0  0  0  0  0  0  0  0  0  0
   17.2356  -13.0194   20.7217 C   0  0  0  0  0  0  0  0  0  0  0  0
   16.5644  -13.2340   21.7651 O   0  0  0  0  0  0  0  0  0  0  0  0
   12.6079  -10.8836   22.4032 C   0  0  0  0  0  0  0  0  0  0  0  0
   12.8653  -12.0791   21.7024 C   0  0  0  0  0  0  0  0  0  0  0  0
   13.8823  -12.1820   20.7719 C   0  0  0  0  0  0  0  0  0  0  0  0
   14.7264  -11.0870   20.4739 C   0  0  0  0  0  0  0  0  0  0  0  0
   14.4559   -9.8858   21.1413 C   0  0  0  0  0  0  0  0  0  0  0  0
   13.4396   -9.7970   22.1045 C   0  0  0  0  0  0  0  0  0  0  0  0
   10.7606  -11.7793   23.7216 N   0  0  0  0  0  0  0  0  0  0  0  0
   11.5493  -10.7580   23.3605 C   0  0  0  0  0  0  0  0  0  0  0  0
   11.2037   -9.6080   24.0106 N   0  0  0  0  0  0  0  0  0  0  0  0
   10.0466  -11.6393   24.3848 H   0  0  0  0  0  0  0  0  0  0  0  0
   10.8951  -12.6697   23.3237 H   0  0  0  0  0  0  0  0  0  0  0  0
   10.4598   -9.6116   24.6554 H   0  0  0  0  0  0  0  0  0  0  0  0
   20.2742  -12.9689   19.2568 C   0  0  0  0  0  0  0  0  0  0  0  0
   20.8733  -12.3507   17.9784 C   0  0  0  0  0  0  0  0  0  0  0  0
   18.4833  -15.1659   20.8492 C   0  0  0  0  0  0  0  0  0  0  0  0
   18.8413  -15.1012   22.3297 C   0  0  0  0  0  0  0  0  0  0  0  0
   19.7533  -14.1153   22.8186 C   0  0  0  0  0  0  0  0  0  0  0  0
   20.0345  -13.9543   24.1934 C   0  0  0  0  0  0  0  0  0  0  0  0
   19.3567  -14.8428   25.0469 C   0  0  0  0  0  0  0  0  0  0  0  0
   18.4621  -15.8224   24.5813 C   0  0  0  0  0  0  0  0  0  0  0  0
   18.1799  -15.9755   23.2089 C   0  0  0  0  0  0  0  0  0  0  0  0
   17.9152  -16.5849   25.6146 O   0  0  0  0  0  0  0  0  0  0  0  0
   18.5436  -16.0042   26.7931 C   0  0  0  0  0  0  0  0  0  0  0  0
   19.4531  -14.9136   26.4177 O   0  0  0  0  0  0  0  0  0  0  0  0
 19 20  1  0  0  0
 20 21  2  0  0  0
 20 13  1  0  0  0
 13 14  1  0  0  0
 13 18  2  0  0  0
 14 15  2  0  0  0
 15 16  1  0  0  0
 16  1  1  0  0  0
 16 17  2  0  0  0
  1  2  1  0  0  0
  1  7  1  0  0  0
  2  3  1  0  0  0
  2 11  1  0  0  0
  3  4  1  0  0  0
  3  9  1  0  0  0
  4  5  1  0  0  0
  4  6  1  0  0  0
  4  7  1  0  0  0
  7  8  1  0  0  0
  9 10  1  0  0  0
  9 25  1  0  0  0
 10 27  1  0  0  0
 10 11  1  0  0  0
 27 28  1  0  0  0
 28 29  1  0  0  0
 28 33  2  0  0  0
 29 30  2  0  0  0
 30 31  1  0  0  0
 31 32  2  0  0  0
 31 36  1  0  0  0
 32 33  1  0  0  0
 32 34  1  0  0  0
 34 35  1  0  0  0
 35 36  1  0  0  0
 11 12  2  0  0  0
 25 26  1  0  0  0
 17 18  1  0  0  0
 19 22  1  0  0  0
 19 23  1  0  0  0
 21 24  1  0  0  0
M  END
> <minimizedAffinity>
-9.83851

$$$$
1YPJ_UIB_H_5555


 36 40  0  0  0  0  0  0  0  0999 V2000
   14.8655  -12.8140   19.2856 C   0  0  0  0  0  0  0  0  0  0  0  0
   16.1515  -12.1785   18.7129 C   0  0  0  0  0  0  0  0  0  0  0  0
   16.8840  -13.3414   18.0141 C   0  0  0  0  0  0  0  0  0  0  0  0
   16.2704  -14.6070   18.6612 C   0  0  0  0  0  0  0  0  0  0  0  0
   17.3115  -15.5572   19.3063 C   0  0  0  0  0  0  0  0  0  0  0  0
   15.6112  -15.3655   17.4892 C   0  0  0  0  0  0  0  0  0  0  0  0
   15.3027  -14.1599   19.6748 N   0  0  0  0  0  0  0  0  0  0  0  0
   14.1895  -15.1056   19.9041 C   0  0  0  0  0  0  0  0  0  0  0  0
   18.3860  -13.0970   18.3115 C   0  0  0  0  0  0  0  0  0  0  0  0
   18.3950  -12.1554   19.4220 N   0  0  0  0  0  0  0  0  0  0  0  0
   17.1494  -11.7319   19.7929 C   0  0  0  0  0  0  0  0  0  0  0  0
   16.8907  -10.9419   20.7385 O   0  0  0  0  0  0  0  0  0  0  0  0
   12.5343  -10.7500   22.3602 C   0  0  0  0  0  0  0  0  0  0  0  0
   13.1163  -12.0143   22.5825 C   0  0  0  0  0  0  0  0  0  0  0  0
   13.8406  -12.6727   21.6064 C   0  0  0  0  0  0  0  0  0  0  0  0
   14.0403  -12.1077   20.3254 C   0  0  0  0  0  0  0  0  0  0  0  0
   13.4368  -10.8669   20.0853 C   0  0  0  0  0  0  0  0  0  0  0  0
   12.7266  -10.1923   21.0899 C   0  0  0  0  0  0  0  0  0  0  0  0
   10.7890  -10.6423   24.0617 N   0  0  0  0  0  0  0  0  0  0  0  0
   11.7700  -10.0616   23.3574 C   0  0  0  0  0  0  0  0  0  0  0  0
   11.9273   -8.7517   23.7094 N   0  0  0  0  0  0  0  0  0  0  0  0
   10.2938  -10.1237   24.7363 H   0  0  0  0  0  0  0  0  0  0  0  0
   10.5633  -11.5877   23.9045 H   0  0  0  0  0  0  0  0  0  0  0  0
   11.3564   -8.3578   24.4081 H   0  0  0  0  0  0  0  0  0  0  0  0
   19.0778  -12.4214   17.1120 C   0  0  0  0  0  0  0  0  0  0  0  0
   20.6034  -12.5592   17.2823 C   0  0  0  0  0  0  0  0  0  0  0  0
   19.5896  -11.8034   20.2625 C   0  0  0  0  0  0  0  0  0  0  0  0
   19.9073  -12.8295   21.3444 C   0  0  0  0  0  0  0  0  0  0  0  0
   18.8582  -13.4967   22.0494 C   0  0  0  0  0  0  0  0  0  0  0  0
   19.1050  -14.5255   22.9853 C   0  0  0  0  0  0  0  0  0  0  0  0
   20.4619  -14.8397   23.1794 C   0  0  0  0  0  0  0  0  0  0  0  0
   21.5056  -14.1882   22.4990 C   0  0  0  0  0  0  0  0  0  0  0  0
   21.2543  -13.1662   21.5615 C   0  0  0  0  0  0  0  0  0  0  0  0
   22.7649  -14.6703   22.8595 O   0  0  0  0  0  0  0  0  0  0  0  0
   22.4343  -15.6957   23.8394 C   0  0  0  0  0  0  0  0  0  0  0  0
   20.9812  -15.7847   24.0341 O   0  0  0  0  0  0  0  0  0  0  0  0
 19 20  1  0  0  0
 20 21  2  0  0  0
 20 13  1  0  0  0
 13 14  1  0  0  0
 13 18  2  0  0  0
 14 15  2  0  0  0
 15 16  1  0  0  0
 16  1  1  0  0  0
 16 17  2  0  0  0
  1  2  1  0  0  0
  1  7  1  0  0  0
  2  3  1  0  0  0
  2 11  1  0  0  0
  3  4  1  0  0  0
  3  9  1  0  0  0
  4  5  1  0  0  0
  4  6  1  0  0  0
  4  7  1  0  0  0
  7  8  1  0  0  0
  9 10  1  0  0  0
  9 25  1  0  0  0
 10 27  1  0  0  0
 10 11  1  0  0  0
 27 28  1  0  0  0
 28 29  1  0  0  0
 28 33  2  0  0  0
 29 30  2  0  0  0
 30 31  1  0  0  0
 31 32  2  0  0  0
 31 36  1  0  0  0
 32 33  1  0  0  0
 32 34  1  0  0  0
 34 35  1  0  0  0
 35 36  1  0  0  0
 11 12  2  0  0  0
 25 26  1  0  0  0
 17 18  1  0  0  0
 19 22  1  0  0  0
 19 23  1  0  0  0
 21 24  1  0  0  0
M  END
> <minimizedAffinity>
-9.76897

$$$$
1YPJ_UIB_H_5555


 36 40  0  0  0  0  0  0  0  0999 V2000
   17.1771  -15.0726   22.0896 C   0  0  0  0  0  0  0  0  0  0  0  0
   16.0436  -14.1250   21.6390 C   0  0  0  0  0  0  0  0  0  0  0  0
   15.3061  -14.8990   20.5280 C   0  0  0  0  0  0  0  0  0  0  0  0
   16.3384  -15.9562   20.0661 C   0  0  0  0  0  0  0  0  0  0  0  0
   16.6558  -15.9120   18.5495 C   0  0  0  0  0  0  0  0  0  0  0  0
   15.6665  -17.3145   20.3617 C   0  0  0  0  0  0  0  0  0  0  0  0
   17.5688  -15.7411   20.8432 N   0  0  0  0  0  0  0  0  0  0  0  0
   18.3730  -16.9646   21.0498 C   0  0  0  0  0  0  0  0  0  0  0  0
   14.9338  -13.8214   19.4771 C   0  0  0  0  0  0  0  0  0  0  0  0
   15.7811  -12.6819   19.7990 N   0  0  0  0  0  0  0  0  0  0  0  0
   16.5467  -12.8655   20.9166 C   0  0  0  0  0  0  0  0  0  0  0  0
   17.3769  -12.0426   21.3846 O   0  0  0  0  0  0  0  0  0  0  0  0
   20.5266  -13.5423   24.4531 C   0  0  0  0  0  0  0  0  0  0  0  0
   20.5582  -13.5812   23.0446 C   0  0  0  0  0  0  0  0  0  0  0  0
   19.5059  -14.0780   22.2985 C   0  0  0  0  0  0  0  0  0  0  0  0
   18.3324  -14.5738   22.9126 C   0  0  0  0  0  0  0  0  0  0  0  0
   18.3067  -14.5697   24.3129 C   0  0  0  0  0  0  0  0  0  0  0  0
   19.3671  -14.0384   25.0624 C   0  0  0  0  0  0  0  0  0  0  0  0
   21.4496  -12.2086   26.2758 N   0  0  0  0  0  0  0  0  0  0  0  0
   21.6146  -13.0427   25.2401 C   0  0  0  0  0  0  0  0  0  0  0  0
   22.9336  -13.3338   25.0405 N   0  0  0  0  0  0  0  0  0  0  0  0
   22.2319  -11.8945   26.7844 H   0  0  0  0  0  0  0  0  0  0  0  0
   20.5461  -11.9098   26.5282 H   0  0  0  0  0  0  0  0  0  0  0  0
   23.6184  -12.9450   25.6315 H   0  0  0  0  0  0  0  0  0  0  0  0
   13.4663  -13.3817   19.6415 C   0  0  0  0  0  0  0  0  0  0  0  0
   12.5707  -14.6357   19.6123 C   0  0  0  0  0  0  0  0  0  0  0  0
   16.0047  -11.4813   18.9239 C   0  0  0  0  0  0  0  0  0  0  0  0
   16.8352  -11.7710   17.6786 C   0  0  0  0  0  0  0  0  0  0  0  0
   18.1785  -12.2463   17.7904 C   0  0  0  0  0  0  0  0  0  0  0  0
   18.9480  -12.6234   16.6676 C   0  0  0  0  0  0  0  0  0  0  0  0
   18.2972  -12.4884   15.4284 C   0  0  0  0  0  0  0  0  0  0  0  0
   16.9791  -12.0160   15.3010 C   0  0  0  0  0  0  0  0  0  0  0  0
   16.2129  -11.6465   16.4248 C   0  0  0  0  0  0  0  0  0  0  0  0
   16.5519  -11.9677   13.9731 O   0  0  0  0  0  0  0  0  0  0  0  0
   17.7217  -12.4534   13.2543 C   0  0  0  0  0  0  0  0  0  0  0  0
   18.8135  -12.7701   14.1845 O   0  0  0  0  0  0  0  0  0  0  0  0
 19 20  1  0  0  0
 20 21  2  0  0  0
 20 13  1  0  0  0
 13 14  1  0  0  0
 13 18  2  0  0  0
 14 15  2  0  0  0
 15 16  1  0  0  0
 16  1  1  0  0  0
 16 17  2  0  0  0
  1  2  1  0  0  0
  1  7  1  0  0  0
  2  3  1  0  0  0
  2 11  1  0  0  0
  3  4  1  0  0  0
  3  9  1  0  0  0
  4  5  1  0  0  0
  4  6  1  0  0  0
  4  7  1  0  0  0
  7  8  1  0  0  0
  9 10  1  0  0  0
  9 25  1  0  0  0
 10 27  1  0  0  0
 10 11  1  0  0  0
 27 28  1  0  0  0
 28 29  1  0  0  0
 28 33  2  0  0  0
 29 30  2  0  0  0
 30 31  1  0  0  0
 31 32  2  0  0  0
 31 36  1  0  0  0
 32 33  1  0  0  0
 32 34  1  0  0  0
 34 35  1  0  0  0
 35 36  1  0  0  0
 11 12  2  0  0  0
 25 26  1  0  0  0
 17 18  1  0  0  0
 19 22  1  0  0  0
 19 23  1  0  0  0
 21 24  1  0  0  0
M  END
> <minimizedAffinity>
-8.76048

$$$$
