3HFB_ML4_A_401


 37 40  0  0  0  0  0  0  0  0999 V2000
    8.9511    1.0398   19.6203 C   0  0  0  0  0  0  0  0  0  0  0  0
    8.1084    1.2295   20.6669 N   0  0  0  0  0  0  0  0  0  0  0  0
    7.1354    0.3551   20.9487 C   0  0  0  0  0  0  0  0  0  0  0  0
    6.9775   -0.7699   20.1512 C   0  0  0  0  0  0  0  0  0  0  0  0
    7.8132   -0.9593   19.1049 N   0  0  0  0  0  0  0  0  0  0  0  0
    8.7890   -0.0862   18.8230 C   0  0  0  0  0  0  0  0  0  0  0  0
   12.0655    3.8524   18.7515 C   0  0  0  0  0  0  0  0  0  0  0  0
   11.9126    2.7182   17.9585 C   0  0  0  0  0  0  0  0  0  0  0  0
   10.8981    1.8019   18.2422 C   0  0  0  0  0  0  0  0  0  0  0  0
   10.0278    2.0216   19.3152 C   0  0  0  0  0  0  0  0  0  0  0  0
   10.1913    3.1530   20.1142 C   0  0  0  0  0  0  0  0  0  0  0  0
   11.2055    4.0645   19.8330 C   0  0  0  0  0  0  0  0  0  0  0  0
   13.1571    4.8566   18.4553 C   0  0  0  0  0  0  0  0  0  0  0  0
   14.5532    4.2741   18.6434 C   0  0  0  0  0  0  0  0  0  0  0  0
   14.7016    3.7075   19.9767 N   0  0  0  0  0  0  0  0  0  0  0  0
   14.5601    4.4380   20.6743 H   0  0  0  0  0  0  0  0  0  0  0  0
   15.6387    3.3176   20.0780 H   0  0  0  0  0  0  0  0  0  0  0  0
   15.9272    5.6406   17.2684 O   0  0  0  0  0  0  0  0  0  0  0  0
   15.5661    5.3643   18.4334 C   0  0  0  0  0  0  0  0  0  0  0  0
   16.0182    5.9639   19.4271 O   0  0  0  0  0  0  0  0  0  0  0  0
   15.5674    5.1700   16.5424 H   0  0  0  0  0  0  0  0  0  0  0  0
    5.9962   -1.6670   20.4075 N   0  0  0  0  0  0  0  0  0  0  0  0
    6.1511   -2.3942   21.0529 H   0  0  0  0  0  0  0  0  0  0  0  0
    4.7097   -1.5571   19.7283 C   0  0  0  0  0  0  0  0  0  0  0  0
    4.4998   -2.7074   18.7620 C   0  0  0  0  0  0  0  0  0  0  0  0
    4.0819   -2.4628   17.3457 C   0  0  0  0  0  0  0  0  0  0  0  0
    3.8970   -3.5527   16.4941 C   0  0  0  0  0  0  0  0  0  0  0  0
    4.0986   -4.8471   16.9706 C   0  0  0  0  0  0  0  0  0  0  0  0
    4.4928   -5.0791   18.2899 C   0  0  0  0  0  0  0  0  0  0  0  0
    4.6887   -4.0241   19.1803 C   0  0  0  0  0  0  0  0  0  0  0  0
    3.8589   -1.0807   16.8373 C   0  0  0  0  0  0  0  0  0  0  0  0
    2.6461   -0.4417   17.0829 C   0  0  0  0  0  0  0  0  0  0  0  0
    2.4291    0.8526   16.6096 C   0  0  0  0  0  0  0  0  0  0  0  0
    3.4158    1.5249   15.8885 C   0  0  0  0  0  0  0  0  0  0  0  0
    4.6484    0.9269   15.6160 C   0  0  0  0  0  0  0  0  0  0  0  0
    4.9173   -0.3643   16.0652 C   0  0  0  0  0  0  0  0  0  0  0  0
    6.2559   -1.0061   15.7663 C   0  0  0  0  0  0  0  0  0  0  0  0
 19 18  1  0  0  0
 20 19  2  0  0  0
 19 14  1  0  0  0
 13 14  1  0  0  0
 14 15  1  0  0  0
 13  7  1  0  0  0
  8  7  2  0  0  0
  7 12  1  0  0  0
  8  9  1  0  0  0
  9 10  2  0  0  0
 10  1  1  0  0  0
 10 11  1  0  0  0
 12 11  2  0  0  0
  2  1  2  0  0  0
  1  6  1  0  0  0
  2  3  1  0  0  0
  3  4  2  0  0  0
  4 22  1  0  0  0
  4  5  1  0  0  0
  6  5  2  0  0  0
 22 24  1  0  0  0
 24 25  1  0  0  0
 30 25  2  0  0  0
 25 26  1  0  0  0
 26 27  2  0  0  0
 26 31  1  0  0  0
 28 27  1  0  0  0
 29 28  2  0  0  0
 30 29  1  0  0  0
 32 31  2  0  0  0
 31 36  1  0  0  0
 32 33  1  0  0  0
 33 34  2  0  0  0
 34 35  1  0  0  0
 36 35  2  0  0  0
 36 37  1  0  0  0
 18 21  1  0  0  0
 15 16  1  0  0  0
 15 17  1  0  0  0
 22 23  1  0  0  0
M  END
> <minimizedAffinity>
-12.63531

$$$$
3HFB_ML4_A_401


 37 40  0  0  0  0  0  0  0  0999 V2000
    8.8174    1.0309   18.0707 C   0  0  0  0  0  0  0  0  0  0  0  0
    8.5407    1.2886   16.7674 N   0  0  0  0  0  0  0  0  0  0  0  0
    7.4227    0.8371   16.1873 C   0  0  0  0  0  0  0  0  0  0  0  0
    6.5256    0.0824   16.9305 C   0  0  0  0  0  0  0  0  0  0  0  0
    6.8008   -0.1797   18.2284 N   0  0  0  0  0  0  0  0  0  0  0  0
    7.9184    0.2736   18.8111 C   0  0  0  0  0  0  0  0  0  0  0  0
   12.4005    2.4978   19.9077 C   0  0  0  0  0  0  0  0  0  0  0  0
   11.6665    1.4884   20.5248 C   0  0  0  0  0  0  0  0  0  0  0  0
   10.4989    1.0111   19.9262 C   0  0  0  0  0  0  0  0  0  0  0  0
   10.0664    1.5362   18.7039 C   0  0  0  0  0  0  0  0  0  0  0  0
   10.7981    2.5552   18.0944 C   0  0  0  0  0  0  0  0  0  0  0  0
   11.9604    3.0333   18.6937 C   0  0  0  0  0  0  0  0  0  0  0  0
   13.6695    3.0233   20.5412 C   0  0  0  0  0  0  0  0  0  0  0  0
   14.8741    2.9132   19.6135 C   0  0  0  0  0  0  0  0  0  0  0  0
   16.0035    2.3047   20.3027 N   0  0  0  0  0  0  0  0  0  0  0  0
   16.2641    2.8810   21.1029 H   0  0  0  0  0  0  0  0  0  0  0  0
   16.7945    2.2341   19.6625 H   0  0  0  0  0  0  0  0  0  0  0  0
   15.4244    5.1959   19.9772 O   0  0  0  0  0  0  0  0  0  0  0  0
   15.2454    4.2887   19.1352 C   0  0  0  0  0  0  0  0  0  0  0  0
   15.3652    4.4873   17.9115 O   0  0  0  0  0  0  0  0  0  0  0  0
   15.3263    5.0131   20.8909 H   0  0  0  0  0  0  0  0  0  0  0  0
    5.3905   -0.3948   16.3673 N   0  0  0  0  0  0  0  0  0  0  0  0
    5.3494   -0.5452   15.3952 H   0  0  0  0  0  0  0  0  0  0  0  0
    4.2282   -0.6864   17.1997 C   0  0  0  0  0  0  0  0  0  0  0  0
    4.1191   -2.1717   17.4879 C   0  0  0  0  0  0  0  0  0  0  0  0
    3.7937   -2.6725   18.8604 C   0  0  0  0  0  0  0  0  0  0  0  0
    3.7078   -4.0481   19.0789 C   0  0  0  0  0  0  0  0  0  0  0  0
    3.9283   -4.9329   18.0246 C   0  0  0  0  0  0  0  0  0  0  0  0
    4.2275   -4.4694   16.7418 C   0  0  0  0  0  0  0  0  0  0  0  0
    4.3267   -3.1049   16.4728 C   0  0  0  0  0  0  0  0  0  0  0  0
    3.5653   -1.7284   19.9896 C   0  0  0  0  0  0  0  0  0  0  0  0
    2.3427   -1.0715   20.1041 C   0  0  0  0  0  0  0  0  0  0  0  0
    2.1212   -0.1852   21.1585 C   0  0  0  0  0  0  0  0  0  0  0  0
    3.1122    0.0561   22.1099 C   0  0  0  0  0  0  0  0  0  0  0  0
    4.3549   -0.5778   22.0384 C   0  0  0  0  0  0  0  0  0  0  0  0
    4.6289   -1.4722   21.0058 C   0  0  0  0  0  0  0  0  0  0  0  0
    5.9782   -2.1559   20.9350 C   0  0  0  0  0  0  0  0  0  0  0  0
 19 18  1  0  0  0
 20 19  2  0  0  0
 19 14  1  0  0  0
 13 14  1  0  0  0
 14 15  1  0  0  0
 13  7  1  0  0  0
  8  7  2  0  0  0
  7 12  1  0  0  0
  8  9  1  0  0  0
  9 10  2  0  0  0
 10  1  1  0  0  0
 10 11  1  0  0  0
 12 11  2  0  0  0
  2  1  2  0  0  0
  1  6  1  0  0  0
  2  3  1  0  0  0
  3  4  2  0  0  0
  4 22  1  0  0  0
  4  5  1  0  0  0
  6  5  2  0  0  0
 22 24  1  0  0  0
 24 25  1  0  0  0
 30 25  2  0  0  0
 25 26  1  0  0  0
 26 27  2  0  0  0
 26 31  1  0  0  0
 28 27  1  0  0  0
 29 28  2  0  0  0
 30 29  1  0  0  0
 32 31  2  0  0  0
 31 36  1  0  0  0
 32 33  1  0  0  0
 33 34  2  0  0  0
 34 35  1  0  0  0
 36 35  2  0  0  0
 36 37  1  0  0  0
 18 21  1  0  0  0
 15 16  1  0  0  0
 15 17  1  0  0  0
 22 23  1  0  0  0
M  END
> <minimizedAffinity>
-10.97037

$$$$
3HFB_ML4_A_401


 37 40  0  0  0  0  0  0  0  0999 V2000
    9.2677    0.8267   19.4969 C   0  0  0  0  0  0  0  0  0  0  0  0
    8.6733    0.1286   18.4964 N   0  0  0  0  0  0  0  0  0  0  0  0
    7.7455   -0.8020   18.7485 C   0  0  0  0  0  0  0  0  0  0  0  0
    7.3842   -1.0666   20.0622 C   0  0  0  0  0  0  0  0  0  0  0  0
    7.9780   -0.3756   21.0616 N   0  0  0  0  0  0  0  0  0  0  0  0
    8.9052    0.5579   20.8107 C   0  0  0  0  0  0  0  0  0  0  0  0
   12.2569    3.7829   18.6659 C   0  0  0  0  0  0  0  0  0  0  0  0
   12.2917    2.5559   18.0087 C   0  0  0  0  0  0  0  0  0  0  0  0
   11.3179    1.5928   18.2802 C   0  0  0  0  0  0  0  0  0  0  0  0
   10.3010    1.8575   19.2037 C   0  0  0  0  0  0  0  0  0  0  0  0
   10.2761    3.0833   19.8684 C   0  0  0  0  0  0  0  0  0  0  0  0
   11.2496    4.0419   19.6000 C   0  0  0  0  0  0  0  0  0  0  0  0
   13.3022    4.8383   18.3805 C   0  0  0  0  0  0  0  0  0  0  0  0
   14.7210    4.3339   18.6175 C   0  0  0  0  0  0  0  0  0  0  0  0
   14.8810    3.8648   19.9868 N   0  0  0  0  0  0  0  0  0  0  0  0
   14.6995    4.6330   20.6328 H   0  0  0  0  0  0  0  0  0  0  0  0
   15.8336    3.5257   20.1209 H   0  0  0  0  0  0  0  0  0  0  0  0
   16.0503    5.6637   17.1647 O   0  0  0  0  0  0  0  0  0  0  0  0
   15.6859    5.4528   18.3423 C   0  0  0  0  0  0  0  0  0  0  0  0
   16.0962    6.1406   19.2962 O   0  0  0  0  0  0  0  0  0  0  0  0
   15.7225    5.1275   16.4697 H   0  0  0  0  0  0  0  0  0  0  0  0
    6.4545   -2.0089   20.3474 N   0  0  0  0  0  0  0  0  0  0  0  0
    6.2764   -2.7341   19.7058 H   0  0  0  0  0  0  0  0  0  0  0  0
    5.7166   -1.9507   21.6046 C   0  0  0  0  0  0  0  0  0  0  0  0
    5.0663   -3.2842   21.9209 C   0  0  0  0  0  0  0  0  0  0  0  0
    4.0637   -3.8964   20.9932 C   0  0  0  0  0  0  0  0  0  0  0  0
    3.4887   -5.1230   21.3281 C   0  0  0  0  0  0  0  0  0  0  0  0
    3.8497   -5.7569   22.5160 C   0  0  0  0  0  0  0  0  0  0  0  0
    4.7879   -5.1911   23.3817 C   0  0  0  0  0  0  0  0  0  0  0  0
    5.3892   -3.9666   23.0932 C   0  0  0  0  0  0  0  0  0  0  0  0
    3.6716   -3.2166   19.7273 C   0  0  0  0  0  0  0  0  0  0  0  0
    2.8255   -2.1112   19.7703 C   0  0  0  0  0  0  0  0  0  0  0  0
    2.4531   -1.4693   18.5890 C   0  0  0  0  0  0  0  0  0  0  0  0
    2.9186   -1.9190   17.3535 C   0  0  0  0  0  0  0  0  0  0  0  0
    3.7686   -3.0234   17.2579 C   0  0  0  0  0  0  0  0  0  0  0  0
    4.1715   -3.7014   18.4065 C   0  0  0  0  0  0  0  0  0  0  0  0
    5.0934   -4.8975   18.2950 C   0  0  0  0  0  0  0  0  0  0  0  0
 19 18  1  0  0  0
 20 19  2  0  0  0
 19 14  1  0  0  0
 13 14  1  0  0  0
 14 15  1  0  0  0
 13  7  1  0  0  0
  8  7  2  0  0  0
  7 12  1  0  0  0
  8  9  1  0  0  0
  9 10  2  0  0  0
 10  1  1  0  0  0
 10 11  1  0  0  0
 12 11  2  0  0  0
  2  1  2  0  0  0
  1  6  1  0  0  0
  2  3  1  0  0  0
  3  4  2  0  0  0
  4 22  1  0  0  0
  4  5  1  0  0  0
  6  5  2  0  0  0
 22 24  1  0  0  0
 24 25  1  0  0  0
 30 25  2  0  0  0
 25 26  1  0  0  0
 26 27  2  0  0  0
 26 31  1  0  0  0
 28 27  1  0  0  0
 29 28  2  0  0  0
 30 29  1  0  0  0
 32 31  2  0  0  0
 31 36  1  0  0  0
 32 33  1  0  0  0
 33 34  2  0  0  0
 34 35  1  0  0  0
 36 35  2  0  0  0
 36 37  1  0  0  0
 18 21  1  0  0  0
 15 16  1  0  0  0
 15 17  1  0  0  0
 22 23  1  0  0  0
M  END
> <minimizedAffinity>
-10.77786

$$$$
3HFB_ML4_A_401


 37 40  0  0  0  0  0  0  0  0999 V2000
    9.7473    0.4941   20.1376 C   0  0  0  0  0  0  0  0  0  0  0  0
    9.2580    0.3282   21.3924 N   0  0  0  0  0  0  0  0  0  0  0  0
    8.1234   -0.3445   21.6174 C   0  0  0  0  0  0  0  0  0  0  0  0
    7.4248   -0.8815   20.5450 C   0  0  0  0  0  0  0  0  0  0  0  0
    7.9077   -0.7142   19.2929 N   0  0  0  0  0  0  0  0  0  0  0  0
    9.0446   -0.0430   19.0663 C   0  0  0  0  0  0  0  0  0  0  0  0
   13.3681    2.6817   19.4531 C   0  0  0  0  0  0  0  0  0  0  0  0
   12.7974    2.6628   20.7229 C   0  0  0  0  0  0  0  0  0  0  0  0
   11.6174    1.9504   20.9454 C   0  0  0  0  0  0  0  0  0  0  0  0
   11.0091    1.2474   19.9000 C   0  0  0  0  0  0  0  0  0  0  0  0
   11.5776    1.2781   18.6268 C   0  0  0  0  0  0  0  0  0  0  0  0
   12.7523    1.9918   18.4048 C   0  0  0  0  0  0  0  0  0  0  0  0
   14.6481    3.4457   19.1964 C   0  0  0  0  0  0  0  0  0  0  0  0
   14.3994    4.7957   18.5336 C   0  0  0  0  0  0  0  0  0  0  0  0
   13.8607    4.6217   17.1920 N   0  0  0  0  0  0  0  0  0  0  0  0
   14.5277    4.1007   16.6227 H   0  0  0  0  0  0  0  0  0  0  0  0
   13.6952    5.5358   16.7708 H   0  0  0  0  0  0  0  0  0  0  0  0
   16.1999    5.8026   17.3545 O   0  0  0  0  0  0  0  0  0  0  0  0
   15.6967    5.5520   18.4716 C   0  0  0  0  0  0  0  0  0  0  0  0
   16.2354    5.9092   19.5363 O   0  0  0  0  0  0  0  0  0  0  0  0
   15.7687    5.5194   16.5723 H   0  0  0  0  0  0  0  0  0  0  0  0
    6.2695   -1.5596   20.7421 N   0  0  0  0  0  0  0  0  0  0  0  0
    6.2915   -2.5279   20.9187 H   0  0  0  0  0  0  0  0  0  0  0  0
    4.9919   -0.8567   20.6930 C   0  0  0  0  0  0  0  0  0  0  0  0
    4.2026   -1.2399   19.4556 C   0  0  0  0  0  0  0  0  0  0  0  0
    3.7762   -2.6546   19.2162 C   0  0  0  0  0  0  0  0  0  0  0  0
    3.0550   -2.9605   18.0614 C   0  0  0  0  0  0  0  0  0  0  0  0
    2.7458   -1.9526   17.1494 C   0  0  0  0  0  0  0  0  0  0  0  0
    3.1379   -0.6310   17.3715 C   0  0  0  0  0  0  0  0  0  0  0  0
    3.8618   -0.2747   18.5087 C   0  0  0  0  0  0  0  0  0  0  0  0
    4.1123   -3.7338   20.1861 C   0  0  0  0  0  0  0  0  0  0  0  0
    3.3347   -3.9020   21.3292 C   0  0  0  0  0  0  0  0  0  0  0  0
    3.6433   -4.9101   22.2428 C   0  0  0  0  0  0  0  0  0  0  0  0
    4.7272   -5.7616   22.0289 C   0  0  0  0  0  0  0  0  0  0  0  0
    5.5373   -5.6331   20.8983 C   0  0  0  0  0  0  0  0  0  0  0  0
    5.2738   -4.6430   19.9540 C   0  0  0  0  0  0  0  0  0  0  0  0
    6.1562   -4.5100   18.7306 C   0  0  0  0  0  0  0  0  0  0  0  0
 19 18  1  0  0  0
 20 19  2  0  0  0
 19 14  1  0  0  0
 13 14  1  0  0  0
 14 15  1  0  0  0
 13  7  1  0  0  0
  8  7  2  0  0  0
  7 12  1  0  0  0
  8  9  1  0  0  0
  9 10  2  0  0  0
 10  1  1  0  0  0
 10 11  1  0  0  0
 12 11  2  0  0  0
  2  1  2  0  0  0
  1  6  1  0  0  0
  2  3  1  0  0  0
  3  4  2  0  0  0
  4 22  1  0  0  0
  4  5  1  0  0  0
  6  5  2  0  0  0
 22 24  1  0  0  0
 24 25  1  0  0  0
 30 25  2  0  0  0
 25 26  1  0  0  0
 26 27  2  0  0  0
 26 31  1  0  0  0
 28 27  1  0  0  0
 29 28  2  0  0  0
 30 29  1  0  0  0
 32 31  2  0  0  0
 31 36  1  0  0  0
 32 33  1  0  0  0
 33 34  2  0  0  0
 34 35  1  0  0  0
 36 35  2  0  0  0
 36 37  1  0  0  0
 18 21  1  0  0  0
 15 16  1  0  0  0
 15 17  1  0  0  0
 22 23  1  0  0  0
M  END
> <minimizedAffinity>
-10.49206

$$$$
3HFB_ML4_A_401


 37 40  0  0  0  0  0  0  0  0999 V2000
    9.0422    0.6715   19.8633 C   0  0  0  0  0  0  0  0  0  0  0  0
    8.8470   -0.4369   19.1051 N   0  0  0  0  0  0  0  0  0  0  0  0
    7.9698   -1.3824   19.4614 C   0  0  0  0  0  0  0  0  0  0  0  0
    7.2451   -1.2327   20.6356 C   0  0  0  0  0  0  0  0  0  0  0  0
    7.4405   -0.1311   21.3955 N   0  0  0  0  0  0  0  0  0  0  0  0
    8.3166    0.8173   21.0389 C   0  0  0  0  0  0  0  0  0  0  0  0
   11.8837    3.6624   18.7036 C   0  0  0  0  0  0  0  0  0  0  0  0
   11.7174    2.5220   17.9223 C   0  0  0  0  0  0  0  0  0  0  0  0
   10.7919    1.5476   18.3008 C   0  0  0  0  0  0  0  0  0  0  0  0
   10.0235    1.7149   19.4577 C   0  0  0  0  0  0  0  0  0  0  0  0
   10.2010    2.8531   20.2439 C   0  0  0  0  0  0  0  0  0  0  0  0
   11.1268    3.8228   19.8679 C   0  0  0  0  0  0  0  0  0  0  0  0
   12.8794    4.7292   18.3055 C   0  0  0  0  0  0  0  0  0  0  0  0
   14.3048    4.1952   18.2213 C   0  0  0  0  0  0  0  0  0  0  0  0
   14.5313    3.1655   19.2258 N   0  0  0  0  0  0  0  0  0  0  0  0
   14.3890    3.5602   20.1555 H   0  0  0  0  0  0  0  0  0  0  0  0
   15.4870    2.8178   19.1467 H   0  0  0  0  0  0  0  0  0  0  0  0
   15.5074    5.7162   19.5947 O   0  0  0  0  0  0  0  0  0  0  0  0
   15.2626    5.3345   18.4292 C   0  0  0  0  0  0  0  0  0  0  0  0
   15.7874    5.8675   17.4333 O   0  0  0  0  0  0  0  0  0  0  0  0
   15.0955    5.2934   20.3224 H   0  0  0  0  0  0  0  0  0  0  0  0
    6.3569   -2.1775   21.0253 N   0  0  0  0  0  0  0  0  0  0  0  0
    6.4199   -2.5701   21.9260 H   0  0  0  0  0  0  0  0  0  0  0  0
    5.3065   -2.6144   20.1118 C   0  0  0  0  0  0  0  0  0  0  0  0
    4.0386   -1.8049   20.3069 C   0  0  0  0  0  0  0  0  0  0  0  0
    3.6377   -0.7456   19.3283 C   0  0  0  0  0  0  0  0  0  0  0  0
    2.4646   -0.0235   19.5516 C   0  0  0  0  0  0  0  0  0  0  0  0
    1.6879   -0.2930   20.6773 C   0  0  0  0  0  0  0  0  0  0  0  0
    2.0563   -1.2835   21.5901 C   0  0  0  0  0  0  0  0  0  0  0  0
    3.2199   -2.0309   21.4128 C   0  0  0  0  0  0  0  0  0  0  0  0
    4.4705   -0.4515   18.1290 C   0  0  0  0  0  0  0  0  0  0  0  0
    5.2839    0.6789   18.1133 C   0  0  0  0  0  0  0  0  0  0  0  0
    6.0665    0.9617   16.9935 C   0  0  0  0  0  0  0  0  0  0  0  0
    6.0491    0.1233   15.8789 C   0  0  0  0  0  0  0  0  0  0  0  0
    5.2499   -1.0218   15.8460 C   0  0  0  0  0  0  0  0  0  0  0  0
    4.4488   -1.3510   16.9374 C   0  0  0  0  0  0  0  0  0  0  0  0
    3.5853   -2.5942   16.8947 C   0  0  0  0  0  0  0  0  0  0  0  0
 19 18  1  0  0  0
 20 19  2  0  0  0
 19 14  1  0  0  0
 13 14  1  0  0  0
 14 15  1  0  0  0
 13  7  1  0  0  0
  8  7  2  0  0  0
  7 12  1  0  0  0
  8  9  1  0  0  0
  9 10  2  0  0  0
 10  1  1  0  0  0
 10 11  1  0  0  0
 12 11  2  0  0  0
  2  1  2  0  0  0
  1  6  1  0  0  0
  2  3  1  0  0  0
  3  4  2  0  0  0
  4 22  1  0  0  0
  4  5  1  0  0  0
  6  5  2  0  0  0
 22 24  1  0  0  0
 24 25  1  0  0  0
 30 25  2  0  0  0
 25 26  1  0  0  0
 26 27  2  0  0  0
 26 31  1  0  0  0
 28 27  1  0  0  0
 29 28  2  0  0  0
 30 29  1  0  0  0
 32 31  2  0  0  0
 31 36  1  0  0  0
 32 33  1  0  0  0
 33 34  2  0  0  0
 34 35  1  0  0  0
 36 35  2  0  0  0
 36 37  1  0  0  0
 18 21  1  0  0  0
 15 16  1  0  0  0
 15 17  1  0  0  0
 22 23  1  0  0  0
M  END
> <minimizedAffinity>
-10.46299

$$$$
3HFB_ML4_A_401


 37 40  0  0  0  0  0  0  0  0999 V2000
    3.8859   -2.4029   21.5414 C   0  0  0  0  0  0  0  0  0  0  0  0
    4.4953   -1.1941   21.4468 N   0  0  0  0  0  0  0  0  0  0  0  0
    4.2231   -0.3502   20.4447 C   0  0  0  0  0  0  0  0  0  0  0  0
    3.3013   -0.7182   19.4745 C   0  0  0  0  0  0  0  0  0  0  0  0
    2.6955   -1.9240   19.5638 N   0  0  0  0  0  0  0  0  0  0  0  0
    2.9652   -2.7689   20.5676 C   0  0  0  0  0  0  0  0  0  0  0  0
    4.8088   -5.0891   24.7503 C   0  0  0  0  0  0  0  0  0  0  0  0
    5.3889   -3.8239   24.7148 C   0  0  0  0  0  0  0  0  0  0  0  0
    5.0883   -2.9492   23.6689 C   0  0  0  0  0  0  0  0  0  0  0  0
    4.1997   -3.3344   22.6594 C   0  0  0  0  0  0  0  0  0  0  0  0
    3.6295   -4.6068   22.6922 C   0  0  0  0  0  0  0  0  0  0  0  0
    3.9325   -5.4799   23.7336 C   0  0  0  0  0  0  0  0  0  0  0  0
    5.1211   -6.0472   25.8784 C   0  0  0  0  0  0  0  0  0  0  0  0
    4.2904   -7.3233   25.8074 C   0  0  0  0  0  0  0  0  0  0  0  0
    3.2875   -7.3468   26.8631 N   0  0  0  0  0  0  0  0  0  0  0  0
    3.7495   -7.3126   27.7718 H   0  0  0  0  0  0  0  0  0  0  0  0
    2.7394   -8.2041   26.7924 H   0  0  0  0  0  0  0  0  0  0  0  0
    4.8021   -9.6323   25.5782 O   0  0  0  0  0  0  0  0  0  0  0  0
    5.2066   -8.5068   25.9436 C   0  0  0  0  0  0  0  0  0  0  0  0
    6.3456   -8.3335   26.4169 O   0  0  0  0  0  0  0  0  0  0  0  0
    3.9391   -9.7284   25.2261 H   0  0  0  0  0  0  0  0  0  0  0  0
    3.0126    0.1120   18.4445 N   0  0  0  0  0  0  0  0  0  0  0  0
    2.8661    1.0710   18.6121 H   0  0  0  0  0  0  0  0  0  0  0  0
    2.9185   -0.4132   17.0866 C   0  0  0  0  0  0  0  0  0  0  0  0
    4.1908   -0.1447   16.3055 C   0  0  0  0  0  0  0  0  0  0  0  0
    5.2907   -1.1581   16.2445 C   0  0  0  0  0  0  0  0  0  0  0  0
    6.4448   -0.8650   15.5167 C   0  0  0  0  0  0  0  0  0  0  0  0
    6.5599    0.3608   14.8631 C   0  0  0  0  0  0  0  0  0  0  0  0
    5.5341    1.3069   14.9140 C   0  0  0  0  0  0  0  0  0  0  0  0
    4.3624    1.0626   15.6293 C   0  0  0  0  0  0  0  0  0  0  0  0
    5.1721   -2.4653   16.9485 C   0  0  0  0  0  0  0  0  0  0  0  0
    4.2389   -3.4025   16.5124 C   0  0  0  0  0  0  0  0  0  0  0  0
    4.1212   -4.6289   17.1668 C   0  0  0  0  0  0  0  0  0  0  0  0
    4.9306   -4.9363   18.2604 C   0  0  0  0  0  0  0  0  0  0  0  0
    5.8810   -4.0298   18.7358 C   0  0  0  0  0  0  0  0  0  0  0  0
    6.0399   -2.7905   18.1193 C   0  0  0  0  0  0  0  0  0  0  0  0
    7.0726   -1.8131   18.6400 C   0  0  0  0  0  0  0  0  0  0  0  0
 19 18  1  0  0  0
 20 19  2  0  0  0
 19 14  1  0  0  0
 13 14  1  0  0  0
 14 15  1  0  0  0
 13  7  1  0  0  0
  8  7  2  0  0  0
  7 12  1  0  0  0
  8  9  1  0  0  0
  9 10  2  0  0  0
 10  1  1  0  0  0
 10 11  1  0  0  0
 12 11  2  0  0  0
  2  1  2  0  0  0
  1  6  1  0  0  0
  2  3  1  0  0  0
  3  4  2  0  0  0
  4 22  1  0  0  0
  4  5  1  0  0  0
  6  5  2  0  0  0
 22 24  1  0  0  0
 24 25  1  0  0  0
 30 25  2  0  0  0
 25 26  1  0  0  0
 26 27  2  0  0  0
 26 31  1  0  0  0
 28 27  1  0  0  0
 29 28  2  0  0  0
 30 29  1  0  0  0
 32 31  2  0  0  0
 31 36  1  0  0  0
 32 33  1  0  0  0
 33 34  2  0  0  0
 34 35  1  0  0  0
 36 35  2  0  0  0
 36 37  1  0  0  0
 18 21  1  0  0  0
 15 16  1  0  0  0
 15 17  1  0  0  0
 22 23  1  0  0  0
M  END
> <minimizedAffinity>
-10.15816

$$$$
3HFB_ML4_A_401


 37 40  0  0  0  0  0  0  0  0999 V2000
    9.6690    0.6989   19.7028 C   0  0  0  0  0  0  0  0  0  0  0  0
    9.1350    0.4403   20.9233 N   0  0  0  0  0  0  0  0  0  0  0  0
    7.9872   -0.2345   21.0556 C   0  0  0  0  0  0  0  0  0  0  0  0
    7.3212   -0.6767   19.9209 C   0  0  0  0  0  0  0  0  0  0  0  0
    7.8488   -0.4167   18.7031 N   0  0  0  0  0  0  0  0  0  0  0  0
    8.9989    0.2566   18.5691 C   0  0  0  0  0  0  0  0  0  0  0  0
   13.3312    2.8901   19.3134 C   0  0  0  0  0  0  0  0  0  0  0  0
   12.6168    2.9377   20.5075 C   0  0  0  0  0  0  0  0  0  0  0  0
   11.4234    2.2241   20.6338 C   0  0  0  0  0  0  0  0  0  0  0  0
   10.9452    1.4535   19.5686 C   0  0  0  0  0  0  0  0  0  0  0  0
   11.6577    1.4175   18.3701 C   0  0  0  0  0  0  0  0  0  0  0  0
   12.8458    2.1323   18.2436 C   0  0  0  0  0  0  0  0  0  0  0  0
   14.6276    3.6545   19.1617 C   0  0  0  0  0  0  0  0  0  0  0  0
   14.4038    5.1157   18.7896 C   0  0  0  0  0  0  0  0  0  0  0  0
   13.4536    5.2301   17.6921 N   0  0  0  0  0  0  0  0  0  0  0  0
   13.8180    4.7411   16.8745 H   0  0  0  0  0  0  0  0  0  0  0  0
   13.3134    6.2146   17.4649 H   0  0  0  0  0  0  0  0  0  0  0  0
   16.0903    5.6450   17.2017 O   0  0  0  0  0  0  0  0  0  0  0  0
   15.7205    5.7227   18.3939 C   0  0  0  0  0  0  0  0  0  0  0  0
   16.4078    6.2877   19.2654 O   0  0  0  0  0  0  0  0  0  0  0  0
   15.5492    5.2128   16.5705 H   0  0  0  0  0  0  0  0  0  0  0  0
    6.1535   -1.3544   20.0244 N   0  0  0  0  0  0  0  0  0  0  0  0
    5.7027   -1.6839   19.2136 H   0  0  0  0  0  0  0  0  0  0  0  0
    5.5628   -1.5968   21.3362 C   0  0  0  0  0  0  0  0  0  0  0  0
    4.1753   -0.9913   21.4330 C   0  0  0  0  0  0  0  0  0  0  0  0
    3.0959   -1.3701   20.4677 C   0  0  0  0  0  0  0  0  0  0  0  0
    1.8358   -0.7838   20.5934 C   0  0  0  0  0  0  0  0  0  0  0  0
    1.6005    0.1438   21.6069 C   0  0  0  0  0  0  0  0  0  0  0  0
    2.6036    0.4963   22.5121 C   0  0  0  0  0  0  0  0  0  0  0  0
    3.8795   -0.0597   22.4274 C   0  0  0  0  0  0  0  0  0  0  0  0
    3.3482   -2.3555   19.3796 C   0  0  0  0  0  0  0  0  0  0  0  0
    3.6248   -3.6823   19.6998 C   0  0  0  0  0  0  0  0  0  0  0  0
    3.8628   -4.6112   18.6865 C   0  0  0  0  0  0  0  0  0  0  0  0
    3.8271   -4.2308   17.3451 C   0  0  0  0  0  0  0  0  0  0  0  0
    3.5545   -2.9123   16.9729 C   0  0  0  0  0  0  0  0  0  0  0  0
    3.3098   -1.9443   17.9447 C   0  0  0  0  0  0  0  0  0  0  0  0
    3.0145   -0.5171   17.5337 C   0  0  0  0  0  0  0  0  0  0  0  0
 19 18  1  0  0  0
 20 19  2  0  0  0
 19 14  1  0  0  0
 13 14  1  0  0  0
 14 15  1  0  0  0
 13  7  1  0  0  0
  8  7  2  0  0  0
  7 12  1  0  0  0
  8  9  1  0  0  0
  9 10  2  0  0  0
 10  1  1  0  0  0
 10 11  1  0  0  0
 12 11  2  0  0  0
  2  1  2  0  0  0
  1  6  1  0  0  0
  2  3  1  0  0  0
  3  4  2  0  0  0
  4 22  1  0  0  0
  4  5  1  0  0  0
  6  5  2  0  0  0
 22 24  1  0  0  0
 24 25  1  0  0  0
 30 25  2  0  0  0
 25 26  1  0  0  0
 26 27  2  0  0  0
 26 31  1  0  0  0
 28 27  1  0  0  0
 29 28  2  0  0  0
 30 29  1  0  0  0
 32 31  2  0  0  0
 31 36  1  0  0  0
 32 33  1  0  0  0
 33 34  2  0  0  0
 34 35  1  0  0  0
 36 35  2  0  0  0
 36 37  1  0  0  0
 18 21  1  0  0  0
 15 16  1  0  0  0
 15 17  1  0  0  0
 22 23  1  0  0  0
M  END
> <minimizedAffinity>
-9.91647

$$$$
3HFB_ML4_A_401


 37 40  0  0  0  0  0  0  0  0999 V2000
    7.9790   -0.2083   18.7236 C   0  0  0  0  0  0  0  0  0  0  0  0
    8.0279   -1.5644   18.7365 N   0  0  0  0  0  0  0  0  0  0  0  0
    6.9171   -2.3051   18.6482 C   0  0  0  0  0  0  0  0  0  0  0  0
    5.6840   -1.6759   18.5467 C   0  0  0  0  0  0  0  0  0  0  0  0
    5.6318   -0.3246   18.5379 N   0  0  0  0  0  0  0  0  0  0  0  0
    6.7431    0.4183   18.6239 C   0  0  0  0  0  0  0  0  0  0  0  0
   11.5658    2.1203   19.0010 C   0  0  0  0  0  0  0  0  0  0  0  0
   10.6534    2.3690   17.9791 C   0  0  0  0  0  0  0  0  0  0  0  0
    9.4852    1.6098   17.8888 C   0  0  0  0  0  0  0  0  0  0  0  0
    9.2218    0.6048   18.8257 C   0  0  0  0  0  0  0  0  0  0  0  0
   10.1436    0.3511   19.8412 C   0  0  0  0  0  0  0  0  0  0  0  0
   11.3101    1.1061   19.9285 C   0  0  0  0  0  0  0  0  0  0  0  0
   12.8343    2.9364   19.1150 C   0  0  0  0  0  0  0  0  0  0  0  0
   13.6130    2.6301   20.3892 C   0  0  0  0  0  0  0  0  0  0  0  0
   13.1124    3.4220   21.5041 N   0  0  0  0  0  0  0  0  0  0  0  0
   13.2188    4.4139   21.2914 H   0  0  0  0  0  0  0  0  0  0  0  0
   13.6417    3.1962   22.3463 H   0  0  0  0  0  0  0  0  0  0  0  0
   15.9228    2.0775   20.4630 O   0  0  0  0  0  0  0  0  0  0  0  0
   15.0659    2.9348   20.1549 C   0  0  0  0  0  0  0  0  0  0  0  0
   15.3769    4.0341   19.6589 O   0  0  0  0  0  0  0  0  0  0  0  0
   15.6551    1.2600   20.8344 H   0  0  0  0  0  0  0  0  0  0  0  0
    4.5428   -2.4000   18.4646 N   0  0  0  0  0  0  0  0  0  0  0  0
    4.3493   -2.9226   17.6529 H   0  0  0  0  0  0  0  0  0  0  0  0
    3.5997   -2.4067   19.5777 C   0  0  0  0  0  0  0  0  0  0  0  0
    4.0291   -3.3851   20.6544 C   0  0  0  0  0  0  0  0  0  0  0  0
    4.2264   -2.9413   22.0702 C   0  0  0  0  0  0  0  0  0  0  0  0
    4.6261   -3.8764   23.0258 C   0  0  0  0  0  0  0  0  0  0  0  0
    4.8390   -5.2023   22.6519 C   0  0  0  0  0  0  0  0  0  0  0  0
    4.6517   -5.6211   21.3330 C   0  0  0  0  0  0  0  0  0  0  0  0
    4.2550   -4.7249   20.3412 C   0  0  0  0  0  0  0  0  0  0  0  0
    4.0065   -1.5233   22.4696 C   0  0  0  0  0  0  0  0  0  0  0  0
    2.7300   -1.0964   22.8272 C   0  0  0  0  0  0  0  0  0  0  0  0
    2.5157    0.2302   23.2018 C   0  0  0  0  0  0  0  0  0  0  0  0
    3.5681    1.1453   23.2257 C   0  0  0  0  0  0  0  0  0  0  0  0
    4.8660    0.7661   22.8754 C   0  0  0  0  0  0  0  0  0  0  0  0
    5.1355   -0.5464   22.4932 C   0  0  0  0  0  0  0  0  0  0  0  0
    6.5451   -0.9503   22.1152 C   0  0  0  0  0  0  0  0  0  0  0  0
 19 18  1  0  0  0
 20 19  2  0  0  0
 19 14  1  0  0  0
 13 14  1  0  0  0
 14 15  1  0  0  0
 13  7  1  0  0  0
  8  7  2  0  0  0
  7 12  1  0  0  0
  8  9  1  0  0  0
  9 10  2  0  0  0
 10  1  1  0  0  0
 10 11  1  0  0  0
 12 11  2  0  0  0
  2  1  2  0  0  0
  1  6  1  0  0  0
  2  3  1  0  0  0
  3  4  2  0  0  0
  4 22  1  0  0  0
  4  5  1  0  0  0
  6  5  2  0  0  0
 22 24  1  0  0  0
 24 25  1  0  0  0
 30 25  2  0  0  0
 25 26  1  0  0  0
 26 27  2  0  0  0
 26 31  1  0  0  0
 28 27  1  0  0  0
 29 28  2  0  0  0
 30 29  1  0  0  0
 32 31  2  0  0  0
 31 36  1  0  0  0
 32 33  1  0  0  0
 33 34  2  0  0  0
 34 35  1  0  0  0
 36 35  2  0  0  0
 36 37  1  0  0  0
 18 21  1  0  0  0
 15 16  1  0  0  0
 15 17  1  0  0  0
 22 23  1  0  0  0
M  END
> <minimizedAffinity>
-9.76787

$$$$
3HFB_ML4_A_401


 37 40  0  0  0  0  0  0  0  0999 V2000
    9.2571    0.8077   19.6200 C   0  0  0  0  0  0  0  0  0  0  0  0
    8.6523    0.0840   18.6443 N   0  0  0  0  0  0  0  0  0  0  0  0
    7.7213   -0.8337   18.9294 C   0  0  0  0  0  0  0  0  0  0  0  0
    7.3671   -1.0578   20.2526 C   0  0  0  0  0  0  0  0  0  0  0  0
    7.9711   -0.3411   21.2275 N   0  0  0  0  0  0  0  0  0  0  0  0
    8.9017    0.5795   20.9435 C   0  0  0  0  0  0  0  0  0  0  0  0
   12.2568    3.7212   18.6830 C   0  0  0  0  0  0  0  0  0  0  0  0
   12.2487    2.4953   18.0229 C   0  0  0  0  0  0  0  0  0  0  0  0
   11.2715    1.5462   18.3289 C   0  0  0  0  0  0  0  0  0  0  0  0
   10.2939    1.8237   19.2903 C   0  0  0  0  0  0  0  0  0  0  0  0
   10.3121    3.0483   19.9575 C   0  0  0  0  0  0  0  0  0  0  0  0
   11.2891    3.9929   19.6546 C   0  0  0  0  0  0  0  0  0  0  0  0
   13.3063    4.7616   18.3605 C   0  0  0  0  0  0  0  0  0  0  0  0
   14.7243    4.2115   18.4620 C   0  0  0  0  0  0  0  0  0  0  0  0
   14.9024    3.4659   19.7001 N   0  0  0  0  0  0  0  0  0  0  0  0
   14.7380    4.0831   20.4953 H   0  0  0  0  0  0  0  0  0  0  0  0
   15.8540    3.1013   19.7436 H   0  0  0  0  0  0  0  0  0  0  0  0
   16.0838    5.7727   17.2956 O   0  0  0  0  0  0  0  0  0  0  0  0
   15.6944    5.3582   18.4094 C   0  0  0  0  0  0  0  0  0  0  0  0
   16.0839    5.8651   19.4784 O   0  0  0  0  0  0  0  0  0  0  0  0
   15.7712    5.3689   16.5100 H   0  0  0  0  0  0  0  0  0  0  0  0
    6.4343   -1.9862   20.5711 N   0  0  0  0  0  0  0  0  0  0  0  0
    5.7619   -2.2565   19.9048 H   0  0  0  0  0  0  0  0  0  0  0  0
    6.4248   -2.5864   21.9009 C   0  0  0  0  0  0  0  0  0  0  0  0
    5.1770   -3.4216   22.1165 C   0  0  0  0  0  0  0  0  0  0  0  0
    3.9966   -2.8737   22.8561 C   0  0  0  0  0  0  0  0  0  0  0  0
    2.8719   -3.6806   23.0336 C   0  0  0  0  0  0  0  0  0  0  0  0
    2.8631   -4.9792   22.5268 C   0  0  0  0  0  0  0  0  0  0  0  0
    3.9606   -5.4922   21.8325 C   0  0  0  0  0  0  0  0  0  0  0  0
    5.1084   -4.7267   21.6306 C   0  0  0  0  0  0  0  0  0  0  0  0
    4.0076   -1.4890   23.4046 C   0  0  0  0  0  0  0  0  0  0  0  0
    4.4423   -1.2660   24.7087 C   0  0  0  0  0  0  0  0  0  0  0  0
    4.4550    0.0279   25.2301 C   0  0  0  0  0  0  0  0  0  0  0  0
    4.0367    1.1131   24.4600 C   0  0  0  0  0  0  0  0  0  0  0  0
    3.5917    0.9412   23.1472 C   0  0  0  0  0  0  0  0  0  0  0  0
    3.5584   -0.3298   22.5774 C   0  0  0  0  0  0  0  0  0  0  0  0
    3.0751   -0.5084   21.1535 C   0  0  0  0  0  0  0  0  0  0  0  0
 19 18  1  0  0  0
 20 19  2  0  0  0
 19 14  1  0  0  0
 13 14  1  0  0  0
 14 15  1  0  0  0
 13  7  1  0  0  0
  8  7  2  0  0  0
  7 12  1  0  0  0
  8  9  1  0  0  0
  9 10  2  0  0  0
 10  1  1  0  0  0
 10 11  1  0  0  0
 12 11  2  0  0  0
  2  1  2  0  0  0
  1  6  1  0  0  0
  2  3  1  0  0  0
  3  4  2  0  0  0
  4 22  1  0  0  0
  4  5  1  0  0  0
  6  5  2  0  0  0
 22 24  1  0  0  0
 24 25  1  0  0  0
 30 25  2  0  0  0
 25 26  1  0  0  0
 26 27  2  0  0  0
 26 31  1  0  0  0
 28 27  1  0  0  0
 29 28  2  0  0  0
 30 29  1  0  0  0
 32 31  2  0  0  0
 31 36  1  0  0  0
 32 33  1  0  0  0
 33 34  2  0  0  0
 34 35  1  0  0  0
 36 35  2  0  0  0
 36 37  1  0  0  0
 18 21  1  0  0  0
 15 16  1  0  0  0
 15 17  1  0  0  0
 22 23  1  0  0  0
M  END
> <minimizedAffinity>
-9.63983

$$$$
