3NX7_NHK_A_0


 23 23  0  0  0  0  0  0  0  0999 V2000
   -1.7689   -5.5172   -4.9531 N   0  0  0  0  0  0  0  0  0  0  0  0
   -2.6085   -3.4826   -6.0091 O   0  0  0  0  0  0  0  0  0  0  0  0
   -2.2349   -4.8563   -6.2782 S   0  0  0  0  0  0  0  0  0  0  0  0
   -1.1997   -4.9333   -7.2790 O   0  0  0  0  0  0  0  0  0  0  0  0
   -3.5178   -5.6338   -6.8475 C   0  0  0  0  0  0  0  0  0  0  0  0
   -3.4851   -6.1519   -8.1454 C   0  0  0  0  0  0  0  0  0  0  0  0
   -4.5728   -6.8575   -8.6461 C   0  0  0  0  0  0  0  0  0  0  0  0
   -5.7096   -7.0515   -7.8597 C   0  0  0  0  0  0  0  0  0  0  0  0
   -5.7458   -6.5395   -6.5561 C   0  0  0  0  0  0  0  0  0  0  0  0
   -4.6496   -5.8441   -6.0390 C   0  0  0  0  0  0  0  0  0  0  0  0
   -6.7519   -7.7648   -8.4069 O   0  0  0  0  0  0  0  0  0  0  0  0
   -7.0926   -7.8119   -9.7929 C   0  0  0  0  0  0  0  0  0  0  0  0
   -1.9075   -4.8327   -3.6610 C   0  0  0  0  0  0  0  0  0  0  0  0
   -0.5973   -4.1421   -3.3338 C   0  0  0  0  0  0  0  0  0  0  0  0
    0.2317   -4.6915   -2.6208 O   0  0  0  0  0  0  0  0  0  0  0  0
   -0.4250   -2.9084   -3.8310 N   0  0  0  0  0  0  0  0  0  0  0  0
    0.7331   -2.1971   -3.5391 O   0  0  0  0  0  0  0  0  0  0  0  0
   -1.1186   -2.5066   -4.4026 H   0  0  0  0  0  0  0  0  0  0  0  0
    1.3066   -2.7329   -2.9690 H   0  0  0  0  0  0  0  0  0  0  0  0
   -1.2811   -6.8917   -4.9964 C   0  0  0  0  0  0  0  0  0  0  0  0
   -1.9014   -7.7159   -3.8690 C   0  0  0  0  0  0  0  0  0  0  0  0
   -3.0351   -8.4379   -4.3632 O   0  0  0  0  0  0  0  0  0  0  0  0
   -3.6949   -7.8121   -4.7008 H   0  0  0  0  0  0  0  0  0  0  0  0
  2  3  2  0  0  0
  3  4  2  0  0  0
  3  1  1  0  0  0
  3  5  1  0  0  0
  1 13  1  0  0  0
  1 20  1  0  0  0
 13 14  1  0  0  0
 14 15  2  0  0  0
 14 16  1  0  0  0
 16 17  1  0  0  0
 20 21  1  0  0  0
 21 22  1  0  0  0
  5  6  2  0  0  0
  5 10  1  0  0  0
  6  7  1  0  0  0
  7  8  2  0  0  0
  8  9  1  0  0  0
  8 11  1  0  0  0
  9 10  2  0  0  0
 11 12  1  0  0  0
 16 18  1  0  0  0
 17 19  1  0  0  0
 22 23  1  0  0  0
M  END
> <minimizedAffinity>
-7.36543

$$$$
3NX7_NHK_A_0


 23 23  0  0  0  0  0  0  0  0999 V2000
   -1.7741   -5.1947   -3.7997 N   0  0  0  0  0  0  0  0  0  0  0  0
   -0.3402   -5.3410   -5.7700 O   0  0  0  0  0  0  0  0  0  0  0  0
   -1.4065   -6.0199   -5.0621 S   0  0  0  0  0  0  0  0  0  0  0  0
   -1.0264   -7.3632   -4.7015 O   0  0  0  0  0  0  0  0  0  0  0  0
   -2.6814   -6.1209   -6.0312 C   0  0  0  0  0  0  0  0  0  0  0  0
   -3.8263   -6.7907   -5.5901 C   0  0  0  0  0  0  0  0  0  0  0  0
   -4.9532   -6.8612   -6.4006 C   0  0  0  0  0  0  0  0  0  0  0  0
   -4.9510   -6.2679   -7.6640 C   0  0  0  0  0  0  0  0  0  0  0  0
   -3.8083   -5.5902   -8.1091 C   0  0  0  0  0  0  0  0  0  0  0  0
   -2.6774   -5.4998   -7.2934 C   0  0  0  0  0  0  0  0  0  0  0  0
   -6.0985   -6.3639   -8.4179 O   0  0  0  0  0  0  0  0  0  0  0  0
   -7.2938   -7.0441   -8.0333 C   0  0  0  0  0  0  0  0  0  0  0  0
   -2.8292   -4.1733   -3.8277 C   0  0  0  0  0  0  0  0  0  0  0  0
   -2.1924   -2.8241   -4.1012 C   0  0  0  0  0  0  0  0  0  0  0  0
   -1.8734   -2.0903   -3.1754 O   0  0  0  0  0  0  0  0  0  0  0  0
   -2.0395   -2.4789   -5.3882 N   0  0  0  0  0  0  0  0  0  0  0  0
   -1.5013   -1.2399   -5.7161 O   0  0  0  0  0  0  0  0  0  0  0  0
   -2.3085   -3.1030   -6.1006 H   0  0  0  0  0  0  0  0  0  0  0  0
   -1.2921   -0.7531   -4.9037 H   0  0  0  0  0  0  0  0  0  0  0  0
   -1.1199   -5.5264   -2.5383 C   0  0  0  0  0  0  0  0  0  0  0  0
   -2.1262   -6.1184   -1.5525 C   0  0  0  0  0  0  0  0  0  0  0  0
   -2.7338   -7.2839   -2.1208 O   0  0  0  0  0  0  0  0  0  0  0  0
   -3.1942   -7.0420   -2.9396 H   0  0  0  0  0  0  0  0  0  0  0  0
  2  3  2  0  0  0
  3  4  2  0  0  0
  3  1  1  0  0  0
  3  5  1  0  0  0
  1 13  1  0  0  0
  1 20  1  0  0  0
 13 14  1  0  0  0
 14 15  2  0  0  0
 14 16  1  0  0  0
 16 17  1  0  0  0
 20 21  1  0  0  0
 21 22  1  0  0  0
  5  6  2  0  0  0
  5 10  1  0  0  0
  6  7  1  0  0  0
  7  8  2  0  0  0
  8  9  1  0  0  0
  8 11  1  0  0  0
  9 10  2  0  0  0
 11 12  1  0  0  0
 16 18  1  0  0  0
 17 19  1  0  0  0
 22 23  1  0  0  0
M  END
> <minimizedAffinity>
-7.22591

$$$$
3NX7_NHK_A_0


 23 23  0  0  0  0  0  0  0  0999 V2000
   -1.8123   -5.6222   -4.9503 N   0  0  0  0  0  0  0  0  0  0  0  0
   -2.6441   -3.5249   -5.8824 O   0  0  0  0  0  0  0  0  0  0  0  0
   -2.2844   -4.8841   -6.2318 S   0  0  0  0  0  0  0  0  0  0  0  0
   -1.2587   -4.9128   -7.2449 O   0  0  0  0  0  0  0  0  0  0  0  0
   -3.5787   -5.6183   -6.8319 C   0  0  0  0  0  0  0  0  0  0  0  0
   -3.5792   -6.0212   -8.1705 C   0  0  0  0  0  0  0  0  0  0  0  0
   -4.6769   -6.6882   -8.7014 C   0  0  0  0  0  0  0  0  0  0  0  0
   -5.7907   -6.9582   -7.9046 C   0  0  0  0  0  0  0  0  0  0  0  0
   -5.7935   -6.5619   -6.5607 C   0  0  0  0  0  0  0  0  0  0  0  0
   -4.6868   -5.9064   -6.0147 C   0  0  0  0  0  0  0  0  0  0  0  0
   -6.8442   -7.6285   -8.4836 O   0  0  0  0  0  0  0  0  0  0  0  0
   -7.0289   -7.8400   -9.8838 C   0  0  0  0  0  0  0  0  0  0  0  0
   -1.0399   -6.8695   -5.0206 C   0  0  0  0  0  0  0  0  0  0  0  0
   -1.7773   -7.9423   -4.2421 C   0  0  0  0  0  0  0  0  0  0  0  0
   -2.8815   -8.3239   -4.6063 O   0  0  0  0  0  0  0  0  0  0  0  0
   -1.1754   -8.4073   -3.1373 N   0  0  0  0  0  0  0  0  0  0  0  0
   -1.8093   -9.3617   -2.3502 O   0  0  0  0  0  0  0  0  0  0  0  0
   -0.2848   -8.0727   -2.8840 H   0  0  0  0  0  0  0  0  0  0  0  0
   -2.6712   -9.5800   -2.7379 H   0  0  0  0  0  0  0  0  0  0  0  0
   -2.0588   -4.9944   -3.6564 C   0  0  0  0  0  0  0  0  0  0  0  0
   -0.7534   -4.4748   -3.0558 C   0  0  0  0  0  0  0  0  0  0  0  0
   -0.2613   -3.3807   -3.8379 O   0  0  0  0  0  0  0  0  0  0  0  0
   -0.0975   -3.6802   -4.7459 H   0  0  0  0  0  0  0  0  0  0  0  0
  2  3  2  0  0  0
  3  4  2  0  0  0
  3  1  1  0  0  0
  3  5  1  0  0  0
  1 13  1  0  0  0
  1 20  1  0  0  0
 13 14  1  0  0  0
 14 15  2  0  0  0
 14 16  1  0  0  0
 16 17  1  0  0  0
 20 21  1  0  0  0
 21 22  1  0  0  0
  5  6  2  0  0  0
  5 10  1  0  0  0
  6  7  1  0  0  0
  7  8  2  0  0  0
  8  9  1  0  0  0
  8 11  1  0  0  0
  9 10  2  0  0  0
 11 12  1  0  0  0
 16 18  1  0  0  0
 17 19  1  0  0  0
 22 23  1  0  0  0
M  END
> <minimizedAffinity>
-7.13075

$$$$
3NX7_NHK_A_0


 23 23  0  0  0  0  0  0  0  0999 V2000
   -1.9994   -4.6196   -4.0839 N   0  0  0  0  0  0  0  0  0  0  0  0
   -0.3246   -5.5222   -5.6136 O   0  0  0  0  0  0  0  0  0  0  0  0
   -1.6093   -5.8054   -5.0067 S   0  0  0  0  0  0  0  0  0  0  0  0
   -1.5795   -7.0416   -4.2650 O   0  0  0  0  0  0  0  0  0  0  0  0
   -2.7016   -5.9654   -6.1712 C   0  0  0  0  0  0  0  0  0  0  0  0
   -3.7484   -6.8775   -6.0084 C   0  0  0  0  0  0  0  0  0  0  0  0
   -4.7236   -7.0078   -6.9900 C   0  0  0  0  0  0  0  0  0  0  0  0
   -4.6647   -6.2328   -8.1495 C   0  0  0  0  0  0  0  0  0  0  0  0
   -3.6210   -5.3129   -8.3155 C   0  0  0  0  0  0  0  0  0  0  0  0
   -2.6464   -5.1633   -7.3254 C   0  0  0  0  0  0  0  0  0  0  0  0
   -5.6627   -6.4003   -9.0824 O   0  0  0  0  0  0  0  0  0  0  0  0
   -7.0137   -6.7675   -8.8007 C   0  0  0  0  0  0  0  0  0  0  0  0
   -3.2563   -4.6166   -3.3240 C   0  0  0  0  0  0  0  0  0  0  0  0
   -2.9390   -4.8475   -1.8588 C   0  0  0  0  0  0  0  0  0  0  0  0
   -2.9073   -3.9075   -1.0759 O   0  0  0  0  0  0  0  0  0  0  0  0
   -2.6654   -6.1084   -1.4923 N   0  0  0  0  0  0  0  0  0  0  0  0
   -2.3252   -6.3905   -0.1743 O   0  0  0  0  0  0  0  0  0  0  0  0
   -2.7055   -6.8339   -2.1565 H   0  0  0  0  0  0  0  0  0  0  0  0
   -2.3323   -5.5706    0.3441 H   0  0  0  0  0  0  0  0  0  0  0  0
   -1.0367   -3.5393   -3.8966 C   0  0  0  0  0  0  0  0  0  0  0  0
   -1.7007   -2.1834   -4.1322 C   0  0  0  0  0  0  0  0  0  0  0  0
   -2.0417   -2.0442   -5.5160 O   0  0  0  0  0  0  0  0  0  0  0  0
   -1.2372   -2.1031   -6.0548 H   0  0  0  0  0  0  0  0  0  0  0  0
  2  3  2  0  0  0
  3  4  2  0  0  0
  3  1  1  0  0  0
  3  5  1  0  0  0
  1 13  1  0  0  0
  1 20  1  0  0  0
 13 14  1  0  0  0
 14 15  2  0  0  0
 14 16  1  0  0  0
 16 17  1  0  0  0
 20 21  1  0  0  0
 21 22  1  0  0  0
  5  6  2  0  0  0
  5 10  1  0  0  0
  6  7  1  0  0  0
  7  8  2  0  0  0
  8  9  1  0  0  0
  8 11  1  0  0  0
  9 10  2  0  0  0
 11 12  1  0  0  0
 16 18  1  0  0  0
 17 19  1  0  0  0
 22 23  1  0  0  0
M  END
> <minimizedAffinity>
-6.70529

$$$$
3NX7_NHK_A_0


 23 23  0  0  0  0  0  0  0  0999 V2000
   -1.4150   -4.8401   -3.8711 N   0  0  0  0  0  0  0  0  0  0  0  0
   -0.6301   -7.0175   -4.6470 O   0  0  0  0  0  0  0  0  0  0  0  0
   -1.8116   -6.3023   -4.2092 S   0  0  0  0  0  0  0  0  0  0  0  0
   -2.4219   -6.9424   -3.0703 O   0  0  0  0  0  0  0  0  0  0  0  0
   -2.8853   -6.3087   -5.4016 C   0  0  0  0  0  0  0  0  0  0  0  0
   -4.2476   -6.3826   -5.0968 C   0  0  0  0  0  0  0  0  0  0  0  0
   -5.1956   -6.3560   -6.1127 C   0  0  0  0  0  0  0  0  0  0  0  0
   -4.7966   -6.2598   -7.4469 C   0  0  0  0  0  0  0  0  0  0  0  0
   -3.4328   -6.1795   -7.7580 C   0  0  0  0  0  0  0  0  0  0  0  0
   -2.4741   -6.1880   -6.7414 C   0  0  0  0  0  0  0  0  0  0  0  0
   -5.7808   -6.2299   -8.4085 O   0  0  0  0  0  0  0  0  0  0  0  0
   -5.7772   -6.9728   -9.6281 C   0  0  0  0  0  0  0  0  0  0  0  0
   -2.4222   -3.8317   -3.5160 C   0  0  0  0  0  0  0  0  0  0  0  0
   -2.2456   -2.6282   -4.4221 C   0  0  0  0  0  0  0  0  0  0  0  0
   -2.4715   -2.7169   -5.6214 O   0  0  0  0  0  0  0  0  0  0  0  0
   -1.8016   -1.5005   -3.8475 N   0  0  0  0  0  0  0  0  0  0  0  0
   -1.5762   -0.3683   -4.6219 O   0  0  0  0  0  0  0  0  0  0  0  0
   -1.6354   -1.4745   -2.8775 H   0  0  0  0  0  0  0  0  0  0  0  0
   -1.7877   -0.5629   -5.5484 H   0  0  0  0  0  0  0  0  0  0  0  0
    0.0030   -4.5021   -3.8065 C   0  0  0  0  0  0  0  0  0  0  0  0
    0.3722   -4.0062   -2.4091 C   0  0  0  0  0  0  0  0  0  0  0  0
    0.7610   -2.6293   -2.4701 O   0  0  0  0  0  0  0  0  0  0  0  0
    1.5293   -2.5358   -3.0548 H   0  0  0  0  0  0  0  0  0  0  0  0
  2  3  2  0  0  0
  3  4  2  0  0  0
  3  1  1  0  0  0
  3  5  1  0  0  0
  1 13  1  0  0  0
  1 20  1  0  0  0
 13 14  1  0  0  0
 14 15  2  0  0  0
 14 16  1  0  0  0
 16 17  1  0  0  0
 20 21  1  0  0  0
 21 22  1  0  0  0
  5  6  2  0  0  0
  5 10  1  0  0  0
  6  7  1  0  0  0
  7  8  2  0  0  0
  8  9  1  0  0  0
  8 11  1  0  0  0
  9 10  2  0  0  0
 11 12  1  0  0  0
 16 18  1  0  0  0
 17 19  1  0  0  0
 22 23  1  0  0  0
M  END
> <minimizedAffinity>
-6.39181

$$$$
3NX7_NHK_A_0


 23 23  0  0  0  0  0  0  0  0999 V2000
   -2.9734   -6.0425   -5.3451 N   0  0  0  0  0  0  0  0  0  0  0  0
   -0.6471   -5.8628   -6.0634 O   0  0  0  0  0  0  0  0  0  0  0  0
   -1.7920   -5.0806   -5.6431 S   0  0  0  0  0  0  0  0  0  0  0  0
   -2.1627   -4.1112   -6.6442 O   0  0  0  0  0  0  0  0  0  0  0  0
   -1.4014   -4.2761   -4.3109 C   0  0  0  0  0  0  0  0  0  0  0  0
   -0.2759   -4.6665   -3.5796 C   0  0  0  0  0  0  0  0  0  0  0  0
    0.0991   -3.9629   -2.4412 C   0  0  0  0  0  0  0  0  0  0  0  0
   -0.6467   -2.8628   -2.0149 C   0  0  0  0  0  0  0  0  0  0  0  0
   -1.7725   -2.4633   -2.7471 C   0  0  0  0  0  0  0  0  0  0  0  0
   -2.1461   -3.1547   -3.9025 C   0  0  0  0  0  0  0  0  0  0  0  0
   -0.2222   -2.2010   -0.8852 O   0  0  0  0  0  0  0  0  0  0  0  0
   -0.9974   -1.9836    0.2943 C   0  0  0  0  0  0  0  0  0  0  0  0
   -4.3571   -5.5581   -5.2563 C   0  0  0  0  0  0  0  0  0  0  0  0
   -5.1384   -6.0995   -6.4383 C   0  0  0  0  0  0  0  0  0  0  0  0
   -4.6436   -6.1063   -7.5575 O   0  0  0  0  0  0  0  0  0  0  0  0
   -6.3867   -6.5241   -6.1929 N   0  0  0  0  0  0  0  0  0  0  0  0
   -7.1779   -6.9950   -7.2344 O   0  0  0  0  0  0  0  0  0  0  0  0
   -6.7427   -6.5023   -5.2752 H   0  0  0  0  0  0  0  0  0  0  0  0
   -6.6795   -6.9490   -8.0653 H   0  0  0  0  0  0  0  0  0  0  0  0
   -2.6994   -7.4731   -5.2579 C   0  0  0  0  0  0  0  0  0  0  0  0
   -2.3054   -7.8570   -3.8323 C   0  0  0  0  0  0  0  0  0  0  0  0
   -0.8910   -8.0694   -3.7604 O   0  0  0  0  0  0  0  0  0  0  0  0
   -0.6406   -8.7860   -4.3643 H   0  0  0  0  0  0  0  0  0  0  0  0
  2  3  2  0  0  0
  3  4  2  0  0  0
  3  1  1  0  0  0
  3  5  1  0  0  0
  1 13  1  0  0  0
  1 20  1  0  0  0
 13 14  1  0  0  0
 14 15  2  0  0  0
 14 16  1  0  0  0
 16 17  1  0  0  0
 20 21  1  0  0  0
 21 22  1  0  0  0
  5  6  2  0  0  0
  5 10  1  0  0  0
  6  7  1  0  0  0
  7  8  2  0  0  0
  8  9  1  0  0  0
  8 11  1  0  0  0
  9 10  2  0  0  0
 11 12  1  0  0  0
 16 18  1  0  0  0
 17 19  1  0  0  0
 22 23  1  0  0  0
M  END
> <minimizedAffinity>
-6.30841

$$$$
3NX7_NHK_A_0


 23 23  0  0  0  0  0  0  0  0999 V2000
   -3.0031   -6.1027   -5.6592 N   0  0  0  0  0  0  0  0  0  0  0  0
   -0.7608   -5.3727   -6.2908 O   0  0  0  0  0  0  0  0  0  0  0  0
   -1.9690   -4.9458   -5.6147 S   0  0  0  0  0  0  0  0  0  0  0  0
   -2.5124   -3.7516   -6.2128 O   0  0  0  0  0  0  0  0  0  0  0  0
   -1.6082   -4.6025   -4.0893 C   0  0  0  0  0  0  0  0  0  0  0  0
   -0.3043   -4.8098   -3.6301 C   0  0  0  0  0  0  0  0  0  0  0  0
    0.0377   -4.4880   -2.3220 C   0  0  0  0  0  0  0  0  0  0  0  0
   -0.9183   -3.9589   -1.4533 C   0  0  0  0  0  0  0  0  0  0  0  0
   -2.2254   -3.7436   -1.9097 C   0  0  0  0  0  0  0  0  0  0  0  0
   -2.5728   -4.0482   -3.2285 C   0  0  0  0  0  0  0  0  0  0  0  0
   -0.5189   -3.6524   -0.1724 O   0  0  0  0  0  0  0  0  0  0  0  0
    0.8325   -3.5200    0.2700 C   0  0  0  0  0  0  0  0  0  0  0  0
   -2.5834   -7.5079   -5.7393 C   0  0  0  0  0  0  0  0  0  0  0  0
   -2.3389   -8.0231   -4.3338 C   0  0  0  0  0  0  0  0  0  0  0  0
   -3.2770   -8.2130   -3.5714 O   0  0  0  0  0  0  0  0  0  0  0  0
   -1.0607   -8.2163   -3.9760 N   0  0  0  0  0  0  0  0  0  0  0  0
   -0.7569   -8.6476   -2.6899 O   0  0  0  0  0  0  0  0  0  0  0  0
   -0.3379   -8.0526   -4.6240 H   0  0  0  0  0  0  0  0  0  0  0  0
   -1.5770   -8.7596   -2.1842 H   0  0  0  0  0  0  0  0  0  0  0  0
   -4.4175   -5.7761   -5.5112 C   0  0  0  0  0  0  0  0  0  0  0  0
   -5.2305   -6.3877   -6.6515 C   0  0  0  0  0  0  0  0  0  0  0  0
   -6.5996   -6.5217   -6.2535 O   0  0  0  0  0  0  0  0  0  0  0  0
   -6.6553   -7.0997   -5.4766 H   0  0  0  0  0  0  0  0  0  0  0  0
  2  3  2  0  0  0
  3  4  2  0  0  0
  3  1  1  0  0  0
  3  5  1  0  0  0
  1 13  1  0  0  0
  1 20  1  0  0  0
 13 14  1  0  0  0
 14 15  2  0  0  0
 14 16  1  0  0  0
 16 17  1  0  0  0
 20 21  1  0  0  0
 21 22  1  0  0  0
  5  6  2  0  0  0
  5 10  1  0  0  0
  6  7  1  0  0  0
  7  8  2  0  0  0
  8  9  1  0  0  0
  8 11  1  0  0  0
  9 10  2  0  0  0
 11 12  1  0  0  0
 16 18  1  0  0  0
 17 19  1  0  0  0
 22 23  1  0  0  0
M  END
> <minimizedAffinity>
-6.05298

$$$$
3NX7_NHK_A_0


 23 23  0  0  0  0  0  0  0  0999 V2000
   -1.8046   -5.7169   -4.5719 N   0  0  0  0  0  0  0  0  0  0  0  0
   -3.6629   -4.4740   -3.5914 O   0  0  0  0  0  0  0  0  0  0  0  0
   -2.3138   -4.9343   -3.3318 S   0  0  0  0  0  0  0  0  0  0  0  0
   -2.2575   -5.7579   -2.1496 O   0  0  0  0  0  0  0  0  0  0  0  0
   -1.3769   -3.6568   -3.0774 C   0  0  0  0  0  0  0  0  0  0  0  0
   -0.0557   -3.8475   -2.6625 C   0  0  0  0  0  0  0  0  0  0  0  0
    0.7827   -2.7561   -2.4685 C   0  0  0  0  0  0  0  0  0  0  0  0
    0.3122   -1.4593   -2.6816 C   0  0  0  0  0  0  0  0  0  0  0  0
   -1.0094   -1.2623   -3.1029 C   0  0  0  0  0  0  0  0  0  0  0  0
   -1.8534   -2.3552   -3.3171 C   0  0  0  0  0  0  0  0  0  0  0  0
    1.1908   -0.4190   -2.4808 O   0  0  0  0  0  0  0  0  0  0  0  0
    2.5691   -0.5481   -2.1300 C   0  0  0  0  0  0  0  0  0  0  0  0
   -1.6748   -5.0758   -5.8870 C   0  0  0  0  0  0  0  0  0  0  0  0
   -2.7717   -5.6004   -6.7938 C   0  0  0  0  0  0  0  0  0  0  0  0
   -2.4924   -6.1446   -7.8537 O   0  0  0  0  0  0  0  0  0  0  0  0
   -4.0351   -5.4019   -6.3895 N   0  0  0  0  0  0  0  0  0  0  0  0
   -5.0939   -5.8184   -7.1882 O   0  0  0  0  0  0  0  0  0  0  0  0
   -4.2126   -4.9612   -5.5272 H   0  0  0  0  0  0  0  0  0  0  0  0
   -4.7475   -6.2297   -7.9955 H   0  0  0  0  0  0  0  0  0  0  0  0
   -1.3489   -7.0908   -4.3874 C   0  0  0  0  0  0  0  0  0  0  0  0
   -2.4883   -8.0734   -4.6548 C   0  0  0  0  0  0  0  0  0  0  0  0
   -3.7057   -7.5683   -4.0950 O   0  0  0  0  0  0  0  0  0  0  0  0
   -3.5994   -7.4565   -3.1373 H   0  0  0  0  0  0  0  0  0  0  0  0
  2  3  2  0  0  0
  3  4  2  0  0  0
  3  1  1  0  0  0
  3  5  1  0  0  0
  1 13  1  0  0  0
  1 20  1  0  0  0
 13 14  1  0  0  0
 14 15  2  0  0  0
 14 16  1  0  0  0
 16 17  1  0  0  0
 20 21  1  0  0  0
 21 22  1  0  0  0
  5  6  2  0  0  0
  5 10  1  0  0  0
  6  7  1  0  0  0
  7  8  2  0  0  0
  8  9  1  0  0  0
  8 11  1  0  0  0
  9 10  2  0  0  0
 11 12  1  0  0  0
 16 18  1  0  0  0
 17 19  1  0  0  0
 22 23  1  0  0  0
M  END
> <minimizedAffinity>
-5.58895

$$$$
3NX7_NHK_A_0


 23 23  0  0  0  0  0  0  0  0999 V2000
   -1.5680   -6.0868   -2.9499 N   0  0  0  0  0  0  0  0  0  0  0  0
   -1.5459   -3.7017   -3.4700 O   0  0  0  0  0  0  0  0  0  0  0  0
   -1.2146   -5.0060   -4.0067 S   0  0  0  0  0  0  0  0  0  0  0  0
    0.1778   -5.0857   -4.3729 O   0  0  0  0  0  0  0  0  0  0  0  0
   -2.0797   -5.2476   -5.3363 C   0  0  0  0  0  0  0  0  0  0  0  0
   -3.4710   -5.3436   -5.2406 C   0  0  0  0  0  0  0  0  0  0  0  0
   -4.2418   -5.5195   -6.3837 C   0  0  0  0  0  0  0  0  0  0  0  0
   -3.6339   -5.6064   -7.6372 C   0  0  0  0  0  0  0  0  0  0  0  0
   -2.2403   -5.5051   -7.7398 C   0  0  0  0  0  0  0  0  0  0  0  0
   -1.4596   -5.3106   -6.5973 C   0  0  0  0  0  0  0  0  0  0  0  0
   -4.4493   -5.7728   -8.7335 O   0  0  0  0  0  0  0  0  0  0  0  0
   -5.2318   -6.9321   -9.0219 C   0  0  0  0  0  0  0  0  0  0  0  0
   -1.1151   -7.4770   -3.0893 C   0  0  0  0  0  0  0  0  0  0  0  0
   -2.3126   -8.3957   -2.9385 C   0  0  0  0  0  0  0  0  0  0  0  0
   -3.1555   -8.4654   -3.8228 O   0  0  0  0  0  0  0  0  0  0  0  0
   -2.4066   -9.0804   -1.7889 N   0  0  0  0  0  0  0  0  0  0  0  0
   -3.4982   -9.9106   -1.5620 O   0  0  0  0  0  0  0  0  0  0  0  0
   -1.7027   -8.9949   -1.1060 H   0  0  0  0  0  0  0  0  0  0  0  0
   -4.0925   -9.8800   -2.3281 H   0  0  0  0  0  0  0  0  0  0  0  0
   -2.2775   -5.6732   -1.7438 C   0  0  0  0  0  0  0  0  0  0  0  0
   -1.3644   -5.7775   -0.5230 C   0  0  0  0  0  0  0  0  0  0  0  0
   -1.7708   -6.8814    0.2937 O   0  0  0  0  0  0  0  0  0  0  0  0
   -2.6845   -6.7455    0.5897 H   0  0  0  0  0  0  0  0  0  0  0  0
  2  3  2  0  0  0
  3  4  2  0  0  0
  3  1  1  0  0  0
  3  5  1  0  0  0
  1 13  1  0  0  0
  1 20  1  0  0  0
 13 14  1  0  0  0
 14 15  2  0  0  0
 14 16  1  0  0  0
 16 17  1  0  0  0
 20 21  1  0  0  0
 21 22  1  0  0  0
  5  6  2  0  0  0
  5 10  1  0  0  0
  6  7  1  0  0  0
  7  8  2  0  0  0
  8  9  1  0  0  0
  8 11  1  0  0  0
  9 10  2  0  0  0
 11 12  1  0  0  0
 16 18  1  0  0  0
 17 19  1  0  0  0
 22 23  1  0  0  0
M  END
> <minimizedAffinity>
-5.54857

$$$$
3NX7_NHK_A_0


 23 23  0  0  0  0  0  0  0  0999 V2000
   -2.4418   -5.2897   -4.8498 N   0  0  0  0  0  0  0  0  0  0  0  0
   -1.4035   -7.4992   -4.8402 O   0  0  0  0  0  0  0  0  0  0  0  0
   -1.2264   -6.1356   -4.3838 S   0  0  0  0  0  0  0  0  0  0  0  0
    0.0065   -5.5723   -4.8757 O   0  0  0  0  0  0  0  0  0  0  0  0
   -1.1526   -6.1375   -2.7809 C   0  0  0  0  0  0  0  0  0  0  0  0
   -0.1043   -5.4687   -2.1423 C   0  0  0  0  0  0  0  0  0  0  0  0
   -0.0398   -5.4299   -0.7545 C   0  0  0  0  0  0  0  0  0  0  0  0
   -1.0184   -6.0618    0.0146 C   0  0  0  0  0  0  0  0  0  0  0  0
   -2.0747   -6.7287   -0.6200 C   0  0  0  0  0  0  0  0  0  0  0  0
   -2.1562   -6.7575   -2.0147 C   0  0  0  0  0  0  0  0  0  0  0  0
   -0.9059   -5.9826    1.3840 O   0  0  0  0  0  0  0  0  0  0  0  0
    0.2862   -5.6700    2.1056 C   0  0  0  0  0  0  0  0  0  0  0  0
   -2.8950   -4.1130   -4.0968 C   0  0  0  0  0  0  0  0  0  0  0  0
   -2.0707   -2.9142   -4.5259 C   0  0  0  0  0  0  0  0  0  0  0  0
   -2.3753   -2.2786   -5.5261 O   0  0  0  0  0  0  0  0  0  0  0  0
   -0.9933   -2.6252   -3.7810 N   0  0  0  0  0  0  0  0  0  0  0  0
   -0.1665   -1.5659   -4.1368 O   0  0  0  0  0  0  0  0  0  0  0  0
   -0.7881   -3.1632   -2.9825 H   0  0  0  0  0  0  0  0  0  0  0  0
   -0.5084   -1.1448   -4.9410 H   0  0  0  0  0  0  0  0  0  0  0  0
   -3.0723   -5.6223   -6.1230 C   0  0  0  0  0  0  0  0  0  0  0  0
   -2.0274   -5.6927   -7.2358 C   0  0  0  0  0  0  0  0  0  0  0  0
   -1.3409   -4.4400   -7.3365 O   0  0  0  0  0  0  0  0  0  0  0  0
   -1.9779   -3.7378   -7.5414 H   0  0  0  0  0  0  0  0  0  0  0  0
  2  3  2  0  0  0
  3  4  2  0  0  0
  3  1  1  0  0  0
  3  5  1  0  0  0
  1 13  1  0  0  0
  1 20  1  0  0  0
 13 14  1  0  0  0
 14 15  2  0  0  0
 14 16  1  0  0  0
 16 17  1  0  0  0
 20 21  1  0  0  0
 21 22  1  0  0  0
  5  6  2  0  0  0
  5 10  1  0  0  0
  6  7  1  0  0  0
  7  8  2  0  0  0
  8  9  1  0  0  0
  8 11  1  0  0  0
  9 10  2  0  0  0
 11 12  1  0  0  0
 16 18  1  0  0  0
 17 19  1  0  0  0
 22 23  1  0  0  0
M  END
> <minimizedAffinity>
-5.46639

$$$$
