4ZW5_4SA_A_1102


 28 29  0  0  0  0  0  0  0  0999 V2000
   13.7000   10.8752   12.7691 C   0  0  0  0  0  0  0  0  0  0  0  0
   13.1384   11.7663   16.8941 C   0  0  0  0  0  0  0  0  0  0  0  0
   13.2365   10.4365   16.5025 C   0  0  0  0  0  0  0  0  0  0  0  0
   13.4352   10.1322   15.1597 C   0  0  0  0  0  0  0  0  0  0  0  0
   13.5305   11.1651   14.2390 C   0  0  0  0  0  0  0  0  0  0  0  0
   13.4140   12.4908   14.6387 C   0  0  0  0  0  0  0  0  0  0  0  0
   13.2199   12.7963   15.9782 C   0  0  0  0  0  0  0  0  0  0  0  0
   12.2005   12.7307   20.9266 C   0  0  0  0  0  0  0  0  0  0  0  0
   11.4251   11.8171   20.2254 C   0  0  0  0  0  0  0  0  0  0  0  0
   11.7611   11.5166   18.9169 C   0  0  0  0  0  0  0  0  0  0  0  0
   13.2953   13.3398   20.3254 C   0  0  0  0  0  0  0  0  0  0  0  0
   12.8732   12.1202   18.3248 C   0  0  0  0  0  0  0  0  0  0  0  0
   13.6349   13.0435   19.0103 C   0  0  0  0  0  0  0  0  0  0  0  0
   11.4808   11.8131   12.2866 N   0  0  0  0  0  0  0  0  0  0  0  0
   12.7314   11.5931   11.8646 C   0  0  0  0  0  0  0  0  0  0  0  0
   13.1166   12.0196   10.7796 O   0  0  0  0  0  0  0  0  0  0  0  0
   10.5432   12.5318   11.4247 O   0  0  0  0  0  0  0  0  0  0  0  0
   11.1936   11.4930   13.1722 H   0  0  0  0  0  0  0  0  0  0  0  0
   10.9857   12.7732   10.5959 H   0  0  0  0  0  0  0  0  0  0  0  0
   15.9666   10.3675   12.1027 C   0  0  0  0  0  0  0  0  0  0  0  0
   15.0280   11.2867   12.4167 N   0  0  0  0  0  0  0  0  0  0  0  0
   17.0371   10.7633   11.6533 O   0  0  0  0  0  0  0  0  0  0  0  0
   15.2567   12.2442   12.4037 H   0  0  0  0  0  0  0  0  0  0  0  0
   15.4957    9.0780   11.7828 O   0  0  0  0  0  0  0  0  0  0  0  0
   14.8957    7.4091   13.4387 C   0  0  0  0  0  0  0  0  0  0  0  0
   15.9397    7.9098   12.4550 C   0  0  0  0  0  0  0  0  0  0  0  0
   16.1176    6.8705   11.3685 C   0  0  0  0  0  0  0  0  0  0  0  0
   17.2799    8.1070   13.1408 C   0  0  0  0  0  0  0  0  0  0  0  0
 28 26  1  0  0  0
 27 26  1  0  0  0
 26 25  1  0  0  0
 26 24  1  0  0  0
 17 14  1  0  0  0
 24 20  1  0  0  0
 14 15  1  0  0  0
 16 15  2  0  0  0
 22 20  2  0  0  0
 15  1  1  0  0  0
 20 21  1  0  0  0
 21  1  1  0  0  0
  1  5  1  0  0  0
  5  4  2  0  0  0
  5  6  1  0  0  0
  4  3  1  0  0  0
  6  7  2  0  0  0
  3  2  2  0  0  0
  7  2  1  0  0  0
  2 12  1  0  0  0
 12 13  2  0  0  0
 12 10  1  0  0  0
 13 11  1  0  0  0
 10  9  2  0  0  0
  9  8  1  0  0  0
 11  8  2  0  0  0
 21 23  1  0  0  0
 14 18  1  0  0  0
 17 19  1  0  0  0
M  END
> <minimizedAffinity>
-10.77239

$$$$
4ZW5_4SA_A_1102


 28 29  0  0  0  0  0  0  0  0999 V2000
   14.8691   10.2032   11.0804 C   0  0  0  0  0  0  0  0  0  0  0  0
   15.2341    7.6337   14.4552 C   0  0  0  0  0  0  0  0  0  0  0  0
   14.5275    8.8228   14.5908 C   0  0  0  0  0  0  0  0  0  0  0  0
   14.3880    9.6642   13.4918 C   0  0  0  0  0  0  0  0  0  0  0  0
   14.9591    9.2973   12.2823 C   0  0  0  0  0  0  0  0  0  0  0  0
   15.6781    8.1144   12.1619 C   0  0  0  0  0  0  0  0  0  0  0  0
   15.8148    7.2720   13.2559 C   0  0  0  0  0  0  0  0  0  0  0  0
   15.8090    5.2344   17.9169 C   0  0  0  0  0  0  0  0  0  0  0  0
   15.0589    6.4005   17.9885 C   0  0  0  0  0  0  0  0  0  0  0  0
   14.8816    7.1557   16.8424 C   0  0  0  0  0  0  0  0  0  0  0  0
   16.3788    4.8310   16.7154 C   0  0  0  0  0  0  0  0  0  0  0  0
   15.4433    6.7348   15.6344 C   0  0  0  0  0  0  0  0  0  0  0  0
   16.2061    5.5878   15.5621 C   0  0  0  0  0  0  0  0  0  0  0  0
   14.0607   12.5235   11.0908 N   0  0  0  0  0  0  0  0  0  0  0  0
   13.7585   11.2207   11.1340 C   0  0  0  0  0  0  0  0  0  0  0  0
   12.5903   10.8432   11.1557 O   0  0  0  0  0  0  0  0  0  0  0  0
   12.9867   13.5157   11.1164 O   0  0  0  0  0  0  0  0  0  0  0  0
   15.0006   12.8123   11.0420 H   0  0  0  0  0  0  0  0  0  0  0  0
   12.1299   13.0636   11.1652 H   0  0  0  0  0  0  0  0  0  0  0  0
   16.9896   10.6361   10.0054 C   0  0  0  0  0  0  0  0  0  0  0  0
   16.1158   10.9076   10.9990 N   0  0  0  0  0  0  0  0  0  0  0  0
   17.9660   11.3673    9.8772 O   0  0  0  0  0  0  0  0  0  0  0  0
   16.3358   11.5928   11.6708 H   0  0  0  0  0  0  0  0  0  0  0  0
   16.4750    9.9375    8.8945 O   0  0  0  0  0  0  0  0  0  0  0  0
   15.8813    7.6438    8.3715 C   0  0  0  0  0  0  0  0  0  0  0  0
   16.9855    8.6824    8.4730 C   0  0  0  0  0  0  0  0  0  0  0  0
   17.5470    8.9275    7.0884 C   0  0  0  0  0  0  0  0  0  0  0  0
   18.1157    8.1871    9.3577 C   0  0  0  0  0  0  0  0  0  0  0  0
 28 26  1  0  0  0
 27 26  1  0  0  0
 26 25  1  0  0  0
 26 24  1  0  0  0
 17 14  1  0  0  0
 24 20  1  0  0  0
 14 15  1  0  0  0
 16 15  2  0  0  0
 22 20  2  0  0  0
 15  1  1  0  0  0
 20 21  1  0  0  0
 21  1  1  0  0  0
  1  5  1  0  0  0
  5  4  2  0  0  0
  5  6  1  0  0  0
  4  3  1  0  0  0
  6  7  2  0  0  0
  3  2  2  0  0  0
  7  2  1  0  0  0
  2 12  1  0  0  0
 12 13  2  0  0  0
 12 10  1  0  0  0
 13 11  1  0  0  0
 10  9  2  0  0  0
  9  8  1  0  0  0
 11  8  2  0  0  0
 21 23  1  0  0  0
 14 18  1  0  0  0
 17 19  1  0  0  0
M  END
> <minimizedAffinity>
-9.78641

$$$$
4ZW5_4SA_A_1102


 28 29  0  0  0  0  0  0  0  0999 V2000
   16.0591    9.1568   10.9341 C   0  0  0  0  0  0  0  0  0  0  0  0
   13.7446   10.4692   14.2576 C   0  0  0  0  0  0  0  0  0  0  0  0
   13.7841   11.2583   13.1143 C   0  0  0  0  0  0  0  0  0  0  0  0
   14.5244   10.8336   12.0158 C   0  0  0  0  0  0  0  0  0  0  0  0
   15.2090    9.6295   12.0862 C   0  0  0  0  0  0  0  0  0  0  0  0
   15.1768    8.8563   13.2403 C   0  0  0  0  0  0  0  0  0  0  0  0
   14.4357    9.2763   14.3354 C   0  0  0  0  0  0  0  0  0  0  0  0
   11.6284   11.5886   17.7703 C   0  0  0  0  0  0  0  0  0  0  0  0
   12.4903   10.5003   17.7877 C   0  0  0  0  0  0  0  0  0  0  0  0
   13.1723   10.1661   16.6307 C   0  0  0  0  0  0  0  0  0  0  0  0
   11.4471   12.3305   16.6094 C   0  0  0  0  0  0  0  0  0  0  0  0
   12.9979   10.9270   15.4722 C   0  0  0  0  0  0  0  0  0  0  0  0
   12.1276   11.9968   15.4440 C   0  0  0  0  0  0  0  0  0  0  0  0
   16.5893   10.2040    8.7755 N   0  0  0  0  0  0  0  0  0  0  0  0
   16.6788   10.2558   10.1096 C   0  0  0  0  0  0  0  0  0  0  0  0
   17.2038   11.2131   10.6712 O   0  0  0  0  0  0  0  0  0  0  0  0
   17.1658   11.2801    7.9703 O   0  0  0  0  0  0  0  0  0  0  0  0
   16.1380    9.4459    8.3386 H   0  0  0  0  0  0  0  0  0  0  0  0
   17.5685   11.9412    8.5548 H   0  0  0  0  0  0  0  0  0  0  0  0
   17.6635    7.3554   10.7915 C   0  0  0  0  0  0  0  0  0  0  0  0
   17.1182    8.3701   11.4968 N   0  0  0  0  0  0  0  0  0  0  0  0
   18.6686    6.8135   11.2394 O   0  0  0  0  0  0  0  0  0  0  0  0
   17.4494    8.5707   12.4019 H   0  0  0  0  0  0  0  0  0  0  0  0
   17.4154    7.3550    9.4039 O   0  0  0  0  0  0  0  0  0  0  0  0
   16.1237    5.3109    9.6045 C   0  0  0  0  0  0  0  0  0  0  0  0
   16.9589    6.2070    8.7059 C   0  0  0  0  0  0  0  0  0  0  0  0
   16.0741    6.7412    7.5995 C   0  0  0  0  0  0  0  0  0  0  0  0
   18.0928    5.4263    8.0653 C   0  0  0  0  0  0  0  0  0  0  0  0
 28 26  1  0  0  0
 27 26  1  0  0  0
 26 25  1  0  0  0
 26 24  1  0  0  0
 17 14  1  0  0  0
 24 20  1  0  0  0
 14 15  1  0  0  0
 16 15  2  0  0  0
 22 20  2  0  0  0
 15  1  1  0  0  0
 20 21  1  0  0  0
 21  1  1  0  0  0
  1  5  1  0  0  0
  5  4  2  0  0  0
  5  6  1  0  0  0
  4  3  1  0  0  0
  6  7  2  0  0  0
  3  2  2  0  0  0
  7  2  1  0  0  0
  2 12  1  0  0  0
 12 13  2  0  0  0
 12 10  1  0  0  0
 13 11  1  0  0  0
 10  9  2  0  0  0
  9  8  1  0  0  0
 11  8  2  0  0  0
 21 23  1  0  0  0
 14 18  1  0  0  0
 17 19  1  0  0  0
M  END
> <minimizedAffinity>
-9.67549

$$$$
4ZW5_4SA_A_1102


 28 29  0  0  0  0  0  0  0  0999 V2000
   16.2722    8.5462   11.2995 C   0  0  0  0  0  0  0  0  0  0  0  0
   13.8522   10.2601   14.3541 C   0  0  0  0  0  0  0  0  0  0  0  0
   14.2394   11.0536   13.2808 C   0  0  0  0  0  0  0  0  0  0  0  0
   15.0176   10.5017   12.2684 C   0  0  0  0  0  0  0  0  0  0  0  0
   15.3914    9.1688   12.3530 C   0  0  0  0  0  0  0  0  0  0  0  0
   15.0133    8.3887   13.4389 C   0  0  0  0  0  0  0  0  0  0  0  0
   14.2336    8.9364   14.4476 C   0  0  0  0  0  0  0  0  0  0  0  0
   11.5897   11.7374   17.6357 C   0  0  0  0  0  0  0  0  0  0  0  0
   12.3974   10.6185   17.7879 C   0  0  0  0  0  0  0  0  0  0  0  0
   13.1293   10.1669   16.7035 C   0  0  0  0  0  0  0  0  0  0  0  0
   11.5109   12.3937   16.4134 C   0  0  0  0  0  0  0  0  0  0  0  0
   13.0582   10.8420   15.4826 C   0  0  0  0  0  0  0  0  0  0  0  0
   12.2419   11.9420   15.3205 C   0  0  0  0  0  0  0  0  0  0  0  0
   17.1833   10.1372    9.6637 N   0  0  0  0  0  0  0  0  0  0  0  0
   16.2413    9.2339    9.9586 C   0  0  0  0  0  0  0  0  0  0  0  0
   15.3909    8.9146    9.1325 O   0  0  0  0  0  0  0  0  0  0  0  0
   17.1745   10.7895    8.3548 O   0  0  0  0  0  0  0  0  0  0  0  0
   17.8783   10.3614   10.3239 H   0  0  0  0  0  0  0  0  0  0  0  0
   16.4288   10.4554    7.8321 H   0  0  0  0  0  0  0  0  0  0  0  0
   18.2803    7.4638   12.0966 C   0  0  0  0  0  0  0  0  0  0  0  0
   17.6159    8.6012   11.7981 N   0  0  0  0  0  0  0  0  0  0  0  0
   19.4744    7.5442   12.3651 O   0  0  0  0  0  0  0  0  0  0  0  0
   18.0563    9.4728   11.9234 H   0  0  0  0  0  0  0  0  0  0  0  0
   17.7522    6.2724   11.5591 O   0  0  0  0  0  0  0  0  0  0  0  0
   15.7840    4.9100   11.9558 C   0  0  0  0  0  0  0  0  0  0  0  0
   17.2088    5.2403   12.3672 C   0  0  0  0  0  0  0  0  0  0  0  0
   18.0803    4.0305   12.1045 C   0  0  0  0  0  0  0  0  0  0  0  0
   17.2842    5.5610   13.8494 C   0  0  0  0  0  0  0  0  0  0  0  0
 28 26  1  0  0  0
 27 26  1  0  0  0
 26 25  1  0  0  0
 26 24  1  0  0  0
 17 14  1  0  0  0
 24 20  1  0  0  0
 14 15  1  0  0  0
 16 15  2  0  0  0
 22 20  2  0  0  0
 15  1  1  0  0  0
 20 21  1  0  0  0
 21  1  1  0  0  0
  1  5  1  0  0  0
  5  4  2  0  0  0
  5  6  1  0  0  0
  4  3  1  0  0  0
  6  7  2  0  0  0
  3  2  2  0  0  0
  7  2  1  0  0  0
  2 12  1  0  0  0
 12 13  2  0  0  0
 12 10  1  0  0  0
 13 11  1  0  0  0
 10  9  2  0  0  0
  9  8  1  0  0  0
 11  8  2  0  0  0
 21 23  1  0  0  0
 14 18  1  0  0  0
 17 19  1  0  0  0
M  END
> <minimizedAffinity>
-9.52896

$$$$
4ZW5_4SA_A_1102


 28 29  0  0  0  0  0  0  0  0999 V2000
   14.4725   10.0728   12.6407 C   0  0  0  0  0  0  0  0  0  0  0  0
   13.0743   11.2856   16.4746 C   0  0  0  0  0  0  0  0  0  0  0  0
   13.1725   12.2357   15.4651 C   0  0  0  0  0  0  0  0  0  0  0  0
   13.6136   11.8496   14.2035 C   0  0  0  0  0  0  0  0  0  0  0  0
   13.9472   10.5219   13.9808 C   0  0  0  0  0  0  0  0  0  0  0  0
   13.8617    9.5832   15.0017 C   0  0  0  0  0  0  0  0  0  0  0  0
   13.4180    9.9658   16.2595 C   0  0  0  0  0  0  0  0  0  0  0  0
   12.0557   12.4675   20.4288 C   0  0  0  0  0  0  0  0  0  0  0  0
   13.1221   13.0653   19.7710 C   0  0  0  0  0  0  0  0  0  0  0  0
   13.4235   12.6658   18.4807 C   0  0  0  0  0  0  0  0  0  0  0  0
   11.3031   11.4791   19.8063 C   0  0  0  0  0  0  0  0  0  0  0  0
   12.6518   11.6837   17.8550 C   0  0  0  0  0  0  0  0  0  0  0  0
   11.6039   11.0723   18.5113 C   0  0  0  0  0  0  0  0  0  0  0  0
   12.9457   11.5779   11.4405 N   0  0  0  0  0  0  0  0  0  0  0  0
   14.1473   10.9916   11.4910 C   0  0  0  0  0  0  0  0  0  0  0  0
   15.0068   11.2380   10.6495 O   0  0  0  0  0  0  0  0  0  0  0  0
   12.6326   12.4908   10.3416 O   0  0  0  0  0  0  0  0  0  0  0  0
   12.2761   11.3959   12.1389 H   0  0  0  0  0  0  0  0  0  0  0  0
   13.3968   12.5561    9.7479 H   0  0  0  0  0  0  0  0  0  0  0  0
   16.5217    8.7970   12.7523 C   0  0  0  0  0  0  0  0  0  0  0  0
   15.8997    9.9959   12.7604 N   0  0  0  0  0  0  0  0  0  0  0  0
   17.7468    8.7808   12.6945 O   0  0  0  0  0  0  0  0  0  0  0  0
   16.4287   10.8215   12.8489 H   0  0  0  0  0  0  0  0  0  0  0  0
   15.7734    7.7083   12.2607 O   0  0  0  0  0  0  0  0  0  0  0  0
   16.9478    6.2375   13.7920 C   0  0  0  0  0  0  0  0  0  0  0  0
   15.7237    6.4516   12.9179 C   0  0  0  0  0  0  0  0  0  0  0  0
   14.5003    6.5174   13.8075 C   0  0  0  0  0  0  0  0  0  0  0  0
   15.5398    5.2958   11.9506 C   0  0  0  0  0  0  0  0  0  0  0  0
 28 26  1  0  0  0
 27 26  1  0  0  0
 26 25  1  0  0  0
 26 24  1  0  0  0
 17 14  1  0  0  0
 24 20  1  0  0  0
 14 15  1  0  0  0
 16 15  2  0  0  0
 22 20  2  0  0  0
 15  1  1  0  0  0
 20 21  1  0  0  0
 21  1  1  0  0  0
  1  5  1  0  0  0
  5  4  2  0  0  0
  5  6  1  0  0  0
  4  3  1  0  0  0
  6  7  2  0  0  0
  3  2  2  0  0  0
  7  2  1  0  0  0
  2 12  1  0  0  0
 12 13  2  0  0  0
 12 10  1  0  0  0
 13 11  1  0  0  0
 10  9  2  0  0  0
  9  8  1  0  0  0
 11  8  2  0  0  0
 21 23  1  0  0  0
 14 18  1  0  0  0
 17 19  1  0  0  0
M  END
> <minimizedAffinity>
-9.37474

$$$$
4ZW5_4SA_A_1102


 28 29  0  0  0  0  0  0  0  0999 V2000
   16.6643    7.4968   11.7470 C   0  0  0  0  0  0  0  0  0  0  0  0
   14.1271    9.8422   14.2343 C   0  0  0  0  0  0  0  0  0  0  0  0
   14.7291   10.4421   13.1347 C   0  0  0  0  0  0  0  0  0  0  0  0
   15.5484    9.6832   12.3053 C   0  0  0  0  0  0  0  0  0  0  0  0
   15.7475    8.3415   12.5952 C   0  0  0  0  0  0  0  0  0  0  0  0
   15.1545    7.7557   13.7068 C   0  0  0  0  0  0  0  0  0  0  0  0
   14.3337    8.5100   14.5328 C   0  0  0  0  0  0  0  0  0  0  0  0
   11.7013   11.9706   17.0012 C   0  0  0  0  0  0  0  0  0  0  0  0
   12.4120   10.8499   17.4090 C   0  0  0  0  0  0  0  0  0  0  0  0
   13.2006   10.1834   16.4874 C   0  0  0  0  0  0  0  0  0  0  0  0
   11.7741   12.4165   15.6871 C   0  0  0  0  0  0  0  0  0  0  0  0
   13.2822   10.6477   15.1723 C   0  0  0  0  0  0  0  0  0  0  0  0
   12.5624   11.7486   14.7569 C   0  0  0  0  0  0  0  0  0  0  0  0
   18.9454    6.5891   11.6474 N   0  0  0  0  0  0  0  0  0  0  0  0
   18.1012    7.4672   12.2011 C   0  0  0  0  0  0  0  0  0  0  0  0
   18.4934    8.2867   13.0271 O   0  0  0  0  0  0  0  0  0  0  0  0
   20.3469    6.5722   12.0647 O   0  0  0  0  0  0  0  0  0  0  0  0
   18.6249    5.9580   10.9632 H   0  0  0  0  0  0  0  0  0  0  0  0
   20.4913    7.2529   12.7405 H   0  0  0  0  0  0  0  0  0  0  0  0
   16.1644    5.3835   10.6870 C   0  0  0  0  0  0  0  0  0  0  0  0
   16.1540    6.1572   11.7942 N   0  0  0  0  0  0  0  0  0  0  0  0
   15.8707    4.1986   10.8060 O   0  0  0  0  0  0  0  0  0  0  0  0
   15.7943    5.7997   12.6380 H   0  0  0  0  0  0  0  0  0  0  0  0
   17.0079    5.8041    9.6389 O   0  0  0  0  0  0  0  0  0  0  0  0
   15.6218    7.3057    8.3309 C   0  0  0  0  0  0  0  0  0  0  0  0
   16.5283    6.0865    8.3337 C   0  0  0  0  0  0  0  0  0  0  0  0
   17.7636    6.4010    7.5166 C   0  0  0  0  0  0  0  0  0  0  0  0
   15.8352    4.8946    7.6978 C   0  0  0  0  0  0  0  0  0  0  0  0
 28 26  1  0  0  0
 27 26  1  0  0  0
 26 25  1  0  0  0
 26 24  1  0  0  0
 17 14  1  0  0  0
 24 20  1  0  0  0
 14 15  1  0  0  0
 16 15  2  0  0  0
 22 20  2  0  0  0
 15  1  1  0  0  0
 20 21  1  0  0  0
 21  1  1  0  0  0
  1  5  1  0  0  0
  5  4  2  0  0  0
  5  6  1  0  0  0
  4  3  1  0  0  0
  6  7  2  0  0  0
  3  2  2  0  0  0
  7  2  1  0  0  0
  2 12  1  0  0  0
 12 13  2  0  0  0
 12 10  1  0  0  0
 13 11  1  0  0  0
 10  9  2  0  0  0
  9  8  1  0  0  0
 11  8  2  0  0  0
 21 23  1  0  0  0
 14 18  1  0  0  0
 17 19  1  0  0  0
M  END
> <minimizedAffinity>
-9.30811

$$$$
4ZW5_4SA_A_1102


 28 29  0  0  0  0  0  0  0  0999 V2000
   16.7327    6.9135   11.9865 C   0  0  0  0  0  0  0  0  0  0  0  0
   14.2426    9.5593   14.2055 C   0  0  0  0  0  0  0  0  0  0  0  0
   15.0848   10.0873   13.2342 C   0  0  0  0  0  0  0  0  0  0  0  0
   15.8925    9.2321   12.4916 C   0  0  0  0  0  0  0  0  0  0  0  0
   15.8400    7.8683   12.7381 C   0  0  0  0  0  0  0  0  0  0  0  0
   15.0069    7.3523   13.7232 C   0  0  0  0  0  0  0  0  0  0  0  0
   14.1975    8.2034   14.4620 C   0  0  0  0  0  0  0  0  0  0  0  0
   11.8179   11.9715   16.7298 C   0  0  0  0  0  0  0  0  0  0  0  0
   12.4798   10.8642   17.2429 C   0  0  0  0  0  0  0  0  0  0  0  0
   13.2694   10.1037   16.3981 C   0  0  0  0  0  0  0  0  0  0  0  0
   11.9399   12.3114   15.3880 C   0  0  0  0  0  0  0  0  0  0  0  0
   13.4009   10.4615   15.0541 C   0  0  0  0  0  0  0  0  0  0  0  0
   12.7295   11.5487   14.5349 C   0  0  0  0  0  0  0  0  0  0  0  0
   18.0619    5.8533   13.7602 N   0  0  0  0  0  0  0  0  0  0  0  0
   17.1728    5.7044   12.7715 C   0  0  0  0  0  0  0  0  0  0  0  0
   16.6670    4.6108   12.5355 O   0  0  0  0  0  0  0  0  0  0  0  0
   18.4740    4.6887   14.5429 O   0  0  0  0  0  0  0  0  0  0  0  0
   18.4365    6.7416   13.9597 H   0  0  0  0  0  0  0  0  0  0  0  0
   18.0125    3.9002   14.2169 H   0  0  0  0  0  0  0  0  0  0  0  0
   16.1766    7.0272    9.6376 C   0  0  0  0  0  0  0  0  0  0  0  0
   15.9874    6.4592   10.8483 N   0  0  0  0  0  0  0  0  0  0  0  0
   15.6423    6.5066    8.6639 O   0  0  0  0  0  0  0  0  0  0  0  0
   15.3344    5.7295   10.9502 H   0  0  0  0  0  0  0  0  0  0  0  0
   17.3549    7.7848    9.4802 O   0  0  0  0  0  0  0  0  0  0  0  0
   17.6406    9.1756    7.5127 C   0  0  0  0  0  0  0  0  0  0  0  0
   17.3505    9.1211    9.0030 C   0  0  0  0  0  0  0  0  0  0  0  0
   15.9414    9.6221    9.2395 C   0  0  0  0  0  0  0  0  0  0  0  0
   18.3035   10.0174    9.7736 C   0  0  0  0  0  0  0  0  0  0  0  0
 28 26  1  0  0  0
 27 26  1  0  0  0
 26 25  1  0  0  0
 26 24  1  0  0  0
 17 14  1  0  0  0
 24 20  1  0  0  0
 14 15  1  0  0  0
 16 15  2  0  0  0
 22 20  2  0  0  0
 15  1  1  0  0  0
 20 21  1  0  0  0
 21  1  1  0  0  0
  1  5  1  0  0  0
  5  4  2  0  0  0
  5  6  1  0  0  0
  4  3  1  0  0  0
  6  7  2  0  0  0
  3  2  2  0  0  0
  7  2  1  0  0  0
  2 12  1  0  0  0
 12 13  2  0  0  0
 12 10  1  0  0  0
 13 11  1  0  0  0
 10  9  2  0  0  0
  9  8  1  0  0  0
 11  8  2  0  0  0
 21 23  1  0  0  0
 14 18  1  0  0  0
 17 19  1  0  0  0
M  END
> <minimizedAffinity>
-9.15947

$$$$
4ZW5_4SA_A_1102


 28 29  0  0  0  0  0  0  0  0999 V2000
   15.1320   10.0249   11.6476 C   0  0  0  0  0  0  0  0  0  0  0  0
   16.8212    7.5018    8.6634 C   0  0  0  0  0  0  0  0  0  0  0  0
   16.6217    8.8458    8.3711 C   0  0  0  0  0  0  0  0  0  0  0  0
   16.0846    9.6842    9.3425 C   0  0  0  0  0  0  0  0  0  0  0  0
   15.7584    9.1590   10.5840 C   0  0  0  0  0  0  0  0  0  0  0  0
   15.9460    7.8103   10.8603 C   0  0  0  0  0  0  0  0  0  0  0  0
   16.4855    6.9734    9.8941 C   0  0  0  0  0  0  0  0  0  0  0  0
   18.1440    4.7780    5.6799 C   0  0  0  0  0  0  0  0  0  0  0  0
   16.8328    5.2344    5.6810 C   0  0  0  0  0  0  0  0  0  0  0  0
   16.4343    6.1281    6.6599 C   0  0  0  0  0  0  0  0  0  0  0  0
   19.0442    5.2059    6.6481 C   0  0  0  0  0  0  0  0  0  0  0  0
   17.3496    6.5669    7.6198 C   0  0  0  0  0  0  0  0  0  0  0  0
   18.6478    6.1011    7.6352 C   0  0  0  0  0  0  0  0  0  0  0  0
   14.2473   12.2604   11.1403 N   0  0  0  0  0  0  0  0  0  0  0  0
   14.0377   10.9390   11.1589 C   0  0  0  0  0  0  0  0  0  0  0  0
   12.9930   10.4585   10.7284 O   0  0  0  0  0  0  0  0  0  0  0  0
   13.1996   13.1514   10.6432 O   0  0  0  0  0  0  0  0  0  0  0  0
   15.1019   12.6307   11.4594 H   0  0  0  0  0  0  0  0  0  0  0  0
   12.4307   12.6262   10.3713 H   0  0  0  0  0  0  0  0  0  0  0  0
   14.3466    9.5659   13.8864 C   0  0  0  0  0  0  0  0  0  0  0  0
   14.5694    9.1383   12.6246 N   0  0  0  0  0  0  0  0  0  0  0  0
   13.7193    8.8329   14.6438 O   0  0  0  0  0  0  0  0  0  0  0  0
   14.3444    8.2132   12.3743 H   0  0  0  0  0  0  0  0  0  0  0  0
   14.3376   10.9621   14.0804 O   0  0  0  0  0  0  0  0  0  0  0  0
   13.0811   11.1354   16.1488 C   0  0  0  0  0  0  0  0  0  0  0  0
   13.2731   11.6402   14.7288 C   0  0  0  0  0  0  0  0  0  0  0  0
   13.7032   13.0908   14.7857 C   0  0  0  0  0  0  0  0  0  0  0  0
   11.9736   11.5657   13.9469 C   0  0  0  0  0  0  0  0  0  0  0  0
 28 26  1  0  0  0
 27 26  1  0  0  0
 26 25  1  0  0  0
 26 24  1  0  0  0
 17 14  1  0  0  0
 24 20  1  0  0  0
 14 15  1  0  0  0
 16 15  2  0  0  0
 22 20  2  0  0  0
 15  1  1  0  0  0
 20 21  1  0  0  0
 21  1  1  0  0  0
  1  5  1  0  0  0
  5  4  2  0  0  0
  5  6  1  0  0  0
  4  3  1  0  0  0
  6  7  2  0  0  0
  3  2  2  0  0  0
  7  2  1  0  0  0
  2 12  1  0  0  0
 12 13  2  0  0  0
 12 10  1  0  0  0
 13 11  1  0  0  0
 10  9  2  0  0  0
  9  8  1  0  0  0
 11  8  2  0  0  0
 21 23  1  0  0  0
 14 18  1  0  0  0
 17 19  1  0  0  0
M  END
> <minimizedAffinity>
-8.98376

$$$$
4ZW5_4SA_A_1102


 28 29  0  0  0  0  0  0  0  0999 V2000
   16.8225    7.6879   11.3914 C   0  0  0  0  0  0  0  0  0  0  0  0
   14.2430    9.7998   14.0392 C   0  0  0  0  0  0  0  0  0  0  0  0
   14.8926   10.5037   13.0322 C   0  0  0  0  0  0  0  0  0  0  0  0
   15.7264    9.8230   12.1510 C   0  0  0  0  0  0  0  0  0  0  0  0
   15.8921    8.4538   12.2976 C   0  0  0  0  0  0  0  0  0  0  0  0
   15.2514    7.7624   13.3183 C   0  0  0  0  0  0  0  0  0  0  0  0
   14.4161    8.4389   14.1957 C   0  0  0  0  0  0  0  0  0  0  0  0
   11.8205   11.9921   16.7587 C   0  0  0  0  0  0  0  0  0  0  0  0
   11.9258   12.3926   15.4336 C   0  0  0  0  0  0  0  0  0  0  0  0
   12.7148   11.6530   14.5699 C   0  0  0  0  0  0  0  0  0  0  0  0
   12.4994   10.8691   17.2158 C   0  0  0  0  0  0  0  0  0  0  0  0
   13.3807   10.5154   15.0326 C   0  0  0  0  0  0  0  0  0  0  0  0
   13.2956   10.1248   16.3528 C   0  0  0  0  0  0  0  0  0  0  0  0
   15.7971    7.1964    9.2133 N   0  0  0  0  0  0  0  0  0  0  0  0
   16.6404    7.9580    9.9198 C   0  0  0  0  0  0  0  0  0  0  0  0
   17.2198    8.9082    9.4012 O   0  0  0  0  0  0  0  0  0  0  0  0
   15.5960    7.4692    7.7907 O   0  0  0  0  0  0  0  0  0  0  0  0
   15.3148    6.4568    9.6487 H   0  0  0  0  0  0  0  0  0  0  0  0
   16.1431    8.2251    7.5259 H   0  0  0  0  0  0  0  0  0  0  0  0
   18.8830    7.2970   12.5919 C   0  0  0  0  0  0  0  0  0  0  0  0
   18.1576    8.0677   11.7527 N   0  0  0  0  0  0  0  0  0  0  0  0
   20.0688    7.5686   12.7482 O   0  0  0  0  0  0  0  0  0  0  0  0
   18.5473    8.8945   11.3871 H   0  0  0  0  0  0  0  0  0  0  0  0
   18.4264    5.9766   12.7794 O   0  0  0  0  0  0  0  0  0  0  0  0
   19.4642    4.5828   14.4729 C   0  0  0  0  0  0  0  0  0  0  0  0
   18.2505    5.4002   14.0641 C   0  0  0  0  0  0  0  0  0  0  0  0
   18.1175    6.5743   15.0107 C   0  0  0  0  0  0  0  0  0  0  0  0
   16.9816    4.5719   14.1615 C   0  0  0  0  0  0  0  0  0  0  0  0
 28 26  1  0  0  0
 27 26  1  0  0  0
 26 25  1  0  0  0
 26 24  1  0  0  0
 17 14  1  0  0  0
 24 20  1  0  0  0
 14 15  1  0  0  0
 16 15  2  0  0  0
 22 20  2  0  0  0
 15  1  1  0  0  0
 20 21  1  0  0  0
 21  1  1  0  0  0
  1  5  1  0  0  0
  5  4  2  0  0  0
  5  6  1  0  0  0
  4  3  1  0  0  0
  6  7  2  0  0  0
  3  2  2  0  0  0
  7  2  1  0  0  0
  2 12  1  0  0  0
 12 13  2  0  0  0
 12 10  1  0  0  0
 13 11  1  0  0  0
 10  9  2  0  0  0
  9  8  1  0  0  0
 11  8  2  0  0  0
 21 23  1  0  0  0
 14 18  1  0  0  0
 17 19  1  0  0  0
M  END
> <minimizedAffinity>
-8.82549

$$$$
4ZW5_4SA_A_1102


 28 29  0  0  0  0  0  0  0  0999 V2000
   13.8731   10.7621   12.7736 C   0  0  0  0  0  0  0  0  0  0  0  0
   12.7611   11.6523   16.7856 C   0  0  0  0  0  0  0  0  0  0  0  0
   12.6333   12.6424   15.8187 C   0  0  0  0  0  0  0  0  0  0  0  0
   12.9789   12.3599   14.5011 C   0  0  0  0  0  0  0  0  0  0  0  0
   13.4452   11.0936   14.1809 C   0  0  0  0  0  0  0  0  0  0  0  0
   13.5854   10.1160   15.1583 C   0  0  0  0  0  0  0  0  0  0  0  0
   13.2373   10.3947   16.4722 C   0  0  0  0  0  0  0  0  0  0  0  0
   12.0493   12.5235   20.8849 C   0  0  0  0  0  0  0  0  0  0  0  0
   13.0988   13.1328   20.2105 C   0  0  0  0  0  0  0  0  0  0  0  0
   13.2995   12.8360   18.8737 C   0  0  0  0  0  0  0  0  0  0  0  0
   11.2139   11.6251   20.2323 C   0  0  0  0  0  0  0  0  0  0  0  0
   12.4452   11.9448   18.2198 C   0  0  0  0  0  0  0  0  0  0  0  0
   11.4135   11.3214   18.8904 C   0  0  0  0  0  0  0  0  0  0  0  0
   13.7296   12.3302   10.8874 N   0  0  0  0  0  0  0  0  0  0  0  0
   13.0969   11.4677   11.6912 C   0  0  0  0  0  0  0  0  0  0  0  0
   11.9110   11.1987   11.5215 O   0  0  0  0  0  0  0  0  0  0  0  0
   12.9885   12.9989    9.8187 O   0  0  0  0  0  0  0  0  0  0  0  0
   14.6885   12.5135   11.0146 H   0  0  0  0  0  0  0  0  0  0  0  0
   12.0637   12.7064    9.8345 H   0  0  0  0  0  0  0  0  0  0  0  0
   16.1706   10.2637   12.2146 C   0  0  0  0  0  0  0  0  0  0  0  0
   15.2499   11.1469   12.6582 N   0  0  0  0  0  0  0  0  0  0  0  0
   17.3014   10.6759   11.9780 O   0  0  0  0  0  0  0  0  0  0  0  0
   15.5254   12.0596   12.9037 H   0  0  0  0  0  0  0  0  0  0  0  0
   15.6741    9.1279   11.5434 O   0  0  0  0  0  0  0  0  0  0  0  0
   15.1785    8.4014    9.2821 C   0  0  0  0  0  0  0  0  0  0  0  0
   16.2434    8.6376   10.3397 C   0  0  0  0  0  0  0  0  0  0  0  0
   17.1653    9.7385    9.8597 C   0  0  0  0  0  0  0  0  0  0  0  0
   17.0775    7.3876   10.5573 C   0  0  0  0  0  0  0  0  0  0  0  0
 28 26  1  0  0  0
 27 26  1  0  0  0
 26 25  1  0  0  0
 26 24  1  0  0  0
 17 14  1  0  0  0
 24 20  1  0  0  0
 14 15  1  0  0  0
 16 15  2  0  0  0
 22 20  2  0  0  0
 15  1  1  0  0  0
 20 21  1  0  0  0
 21  1  1  0  0  0
  1  5  1  0  0  0
  5  4  2  0  0  0
  5  6  1  0  0  0
  4  3  1  0  0  0
  6  7  2  0  0  0
  3  2  2  0  0  0
  7  2  1  0  0  0
  2 12  1  0  0  0
 12 13  2  0  0  0
 12 10  1  0  0  0
 13 11  1  0  0  0
 10  9  2  0  0  0
  9  8  1  0  0  0
 11  8  2  0  0  0
 21 23  1  0  0  0
 14 18  1  0  0  0
 17 19  1  0  0  0
M  END
> <minimizedAffinity>
-8.80367

$$$$
