2Y7Z_C0Z_A_1245


 34 38  0  0  0  0  0  0  0  0999 V2000
    8.0355    6.0768   21.7168 O   0  0  0  0  0  0  0  0  0  0  0  0
    6.8476    5.8254   21.6940 C   0  0  0  0  0  0  0  0  0  0  0  0
    6.2672    4.7543   21.0876 N   0  0  0  0  0  0  0  0  0  0  0  0
    5.7840    6.6384   22.3907 C   0  0  0  0  0  0  0  0  0  0  0  0
    4.4837    6.1861   21.6885 C   0  0  0  0  0  0  0  0  0  0  0  0
    4.8093    4.7358   21.3029 C   0  0  0  0  0  0  0  0  0  0  0  0
    6.9316    3.7213   20.4014 C   0  0  0  0  0  0  0  0  0  0  0  0
    8.0428    3.9427   19.5867 C   0  0  0  0  0  0  0  0  0  0  0  0
    6.4641    2.4111   20.5703 C   0  0  0  0  0  0  0  0  0  0  0  0
    7.0826    1.3548   19.9364 C   0  0  0  0  0  0  0  0  0  0  0  0
    8.1772    1.5760   19.1127 C   0  0  0  0  0  0  0  0  0  0  0  0
    8.6624    2.8675   18.9551 C   0  0  0  0  0  0  0  0  0  0  0  0
    9.8551    2.8497   18.0364 C   0  0  0  0  0  0  0  0  0  0  0  0
   10.3101    1.3747   18.0476 C   0  0  0  0  0  0  0  0  0  0  0  0
    9.0102    0.5822   18.3142 C   0  0  0  0  0  0  0  0  0  0  0  0
    8.3985    0.0870   17.0372 N   0  0  0  0  0  0  0  0  0  0  0  0
    6.9633   -0.2495   17.1665 C   0  0  0  0  0  0  0  0  0  0  0  0
    9.0622   -1.1671   16.6251 C   0  0  0  0  0  0  0  0  0  0  0  0
    6.0178    8.0731   22.2677 N   0  0  0  0  0  0  0  0  0  0  0  0
    5.2033    8.4560   21.7877 H   0  0  0  0  0  0  0  0  0  0  0  0
    6.2626    9.0050   23.5559 S   0  0  0  0  0  0  0  0  0  0  0  0
    6.1226   10.3189   23.0493 O   0  0  0  0  0  0  0  0  0  0  0  0
    5.4392    8.5973   24.6429 O   0  0  0  0  0  0  0  0  0  0  0  0
    7.9401    8.7776   24.0636 C   0  0  0  0  0  0  0  0  0  0  0  0
    8.2053    8.1547   25.2558 C   0  0  0  0  0  0  0  0  0  0  0  0
    9.5438    7.9617   25.6682 C   0  0  0  0  0  0  0  0  0  0  0  0
   10.5918    8.4214   24.8130 C   0  0  0  0  0  0  0  0  0  0  0  0
   10.2778    9.0514   23.5904 C   0  0  0  0  0  0  0  0  0  0  0  0
    8.9701    9.2289   23.2333 C   0  0  0  0  0  0  0  0  0  0  0  0
    9.8669    7.3269   26.8908 C   0  0  0  0  0  0  0  0  0  0  0  0
   11.1880    7.1574   27.2417 C   0  0  0  0  0  0  0  0  0  0  0  0
   12.2037    7.6181   26.3998 C   0  0  0  0  0  0  0  0  0  0  0  0
   13.8776    7.4008   26.8295 Cl  0  0  0  0  0  0  0  0  0  0  0  0
   11.9289    8.2297   25.2062 C   0  0  0  0  0  0  0  0  0  0  0  0
  1  2  2  0  0  0
  2  3  1  0  0  0
  2  4  1  0  0  0
  3  7  1  0  0  0
  3  6  1  0  0  0
  7  8  1  0  0  0
  7  9  2  0  0  0
  8 12  2  0  0  0
  9 10  1  0  0  0
 10 11  2  0  0  0
 11 12  1  0  0  0
 11 15  1  0  0  0
 12 13  1  0  0  0
 13 14  1  0  0  0
 14 15  1  0  0  0
 15 16  1  0  0  0
 16 17  1  0  0  0
 16 18  1  0  0  0
  4  5  1  0  0  0
  4 19  1  0  0  0
  5  6  1  0  0  0
 19 21  1  0  0  0
 21 22  2  0  0  0
 21 23  2  0  0  0
 21 24  1  0  0  0
 24 25  1  0  0  0
 24 29  2  0  0  0
 25 26  2  0  0  0
 26 27  1  0  0  0
 26 30  1  0  0  0
 27 28  2  0  0  0
 27 34  1  0  0  0
 28 29  1  0  0  0
 30 31  2  0  0  0
 31 32  1  0  0  0
 32 33  1  0  0  0
 32 34  2  0  0  0
 19 20  1  0  0  0
M  END
> <minimizedAffinity>
-11.09697

$$$$
2Y7Z_C0Z_A_1245


 34 38  0  0  0  0  0  0  0  0999 V2000
    7.9421    6.8291   21.1714 O   0  0  0  0  0  0  0  0  0  0  0  0
    6.9240    6.8904   20.5122 C   0  0  0  0  0  0  0  0  0  0  0  0
    6.4413    5.9178   19.6919 N   0  0  0  0  0  0  0  0  0  0  0  0
    5.9627    8.0538   20.5226 C   0  0  0  0  0  0  0  0  0  0  0  0
    5.1412    7.8387   19.2313 C   0  0  0  0  0  0  0  0  0  0  0  0
    5.1559    6.3100   19.0868 C   0  0  0  0  0  0  0  0  0  0  0  0
    7.0096    4.6491   19.4757 C   0  0  0  0  0  0  0  0  0  0  0  0
    8.1113    4.4420   18.6446 C   0  0  0  0  0  0  0  0  0  0  0  0
    6.4527    3.5541   20.1499 C   0  0  0  0  0  0  0  0  0  0  0  0
    6.9749    2.2883   19.9908 C   0  0  0  0  0  0  0  0  0  0  0  0
    8.0599    2.0788   19.1514 C   0  0  0  0  0  0  0  0  0  0  0  0
    8.6334    3.1598   18.4951 C   0  0  0  0  0  0  0  0  0  0  0  0
    9.7962    2.6863   17.6640 C   0  0  0  0  0  0  0  0  0  0  0  0
   10.1426    1.3063   18.2627 C   0  0  0  0  0  0  0  0  0  0  0  0
    8.7961    0.7884   18.8173 C   0  0  0  0  0  0  0  0  0  0  0  0
    8.1153   -0.1238   17.8401 N   0  0  0  0  0  0  0  0  0  0  0  0
    9.0446   -0.7381   16.8661 C   0  0  0  0  0  0  0  0  0  0  0  0
    7.1507    0.6498   17.0313 C   0  0  0  0  0  0  0  0  0  0  0  0
    6.6527    9.3390   20.5406 N   0  0  0  0  0  0  0  0  0  0  0  0
    6.3068    9.8612   19.7356 H   0  0  0  0  0  0  0  0  0  0  0  0
    6.5563   10.3347   21.8005 S   0  0  0  0  0  0  0  0  0  0  0  0
    7.2515   11.4889   21.3681 O   0  0  0  0  0  0  0  0  0  0  0  0
    5.2095   10.4694   22.2408 O   0  0  0  0  0  0  0  0  0  0  0  0
    7.4636    9.6000   23.1273 C   0  0  0  0  0  0  0  0  0  0  0  0
    8.8335    9.5808   23.0781 C   0  0  0  0  0  0  0  0  0  0  0  0
    9.5693    9.0016   24.1375 C   0  0  0  0  0  0  0  0  0  0  0  0
    8.8510    8.4544   25.2445 C   0  0  0  0  0  0  0  0  0  0  0  0
    7.4411    8.5001   25.2612 C   0  0  0  0  0  0  0  0  0  0  0  0
    6.7666    9.0591   24.2116 C   0  0  0  0  0  0  0  0  0  0  0  0
   10.9834    8.9558   24.1302 C   0  0  0  0  0  0  0  0  0  0  0  0
   11.6517    8.3863   25.1914 C   0  0  0  0  0  0  0  0  0  0  0  0
   10.9373    7.8481   26.2650 C   0  0  0  0  0  0  0  0  0  0  0  0
   11.7726    7.1338   27.6162 Cl  0  0  0  0  0  0  0  0  0  0  0  0
    9.5694    7.8814   26.3098 C   0  0  0  0  0  0  0  0  0  0  0  0
  1  2  2  0  0  0
  2  3  1  0  0  0
  2  4  1  0  0  0
  3  7  1  0  0  0
  3  6  1  0  0  0
  7  8  1  0  0  0
  7  9  2  0  0  0
  8 12  2  0  0  0
  9 10  1  0  0  0
 10 11  2  0  0  0
 11 12  1  0  0  0
 11 15  1  0  0  0
 12 13  1  0  0  0
 13 14  1  0  0  0
 14 15  1  0  0  0
 15 16  1  0  0  0
 16 17  1  0  0  0
 16 18  1  0  0  0
  4  5  1  0  0  0
  4 19  1  0  0  0
  5  6  1  0  0  0
 19 21  1  0  0  0
 21 22  2  0  0  0
 21 23  2  0  0  0
 21 24  1  0  0  0
 24 25  1  0  0  0
 24 29  2  0  0  0
 25 26  2  0  0  0
 26 27  1  0  0  0
 26 30  1  0  0  0
 27 28  2  0  0  0
 27 34  1  0  0  0
 28 29  1  0  0  0
 30 31  2  0  0  0
 31 32  1  0  0  0
 32 33  1  0  0  0
 32 34  2  0  0  0
 19 20  1  0  0  0
M  END
> <minimizedAffinity>
-10.45876

$$$$
2Y7Z_C0Z_A_1245


 34 38  0  0  0  0  0  0  0  0999 V2000
    7.5799    5.8373   20.4427 O   0  0  0  0  0  0  0  0  0  0  0  0
    7.1523    6.9525   20.2234 C   0  0  0  0  0  0  0  0  0  0  0  0
    7.2899    8.0367   21.0342 N   0  0  0  0  0  0  0  0  0  0  0  0
    6.4243    7.3615   18.9663 C   0  0  0  0  0  0  0  0  0  0  0  0
    5.7252    8.6762   19.3804 C   0  0  0  0  0  0  0  0  0  0  0  0
    6.6910    9.2413   20.4321 C   0  0  0  0  0  0  0  0  0  0  0  0
    7.9776    8.0809   22.2608 C   0  0  0  0  0  0  0  0  0  0  0  0
    9.2500    8.6372   22.3986 C   0  0  0  0  0  0  0  0  0  0  0  0
    7.3368    7.5631   23.3944 C   0  0  0  0  0  0  0  0  0  0  0  0
    7.9531    7.5915   24.6271 C   0  0  0  0  0  0  0  0  0  0  0  0
    9.2252    8.1292   24.7619 C   0  0  0  0  0  0  0  0  0  0  0  0
    9.8609    8.6647   23.6495 C   0  0  0  0  0  0  0  0  0  0  0  0
   11.2112    9.1983   24.0484 C   0  0  0  0  0  0  0  0  0  0  0  0
   11.1115    9.3520   25.5810 C   0  0  0  0  0  0  0  0  0  0  0  0
   10.0974    8.2645   26.0028 C   0  0  0  0  0  0  0  0  0  0  0  0
   10.7915    7.0152   26.4590 N   0  0  0  0  0  0  0  0  0  0  0  0
   10.0517    6.2848   27.5120 C   0  0  0  0  0  0  0  0  0  0  0  0
   12.0938    7.3656   27.0624 C   0  0  0  0  0  0  0  0  0  0  0  0
    5.4816    6.3421   18.5187 N   0  0  0  0  0  0  0  0  0  0  0  0
    4.5495    6.7130   18.7034 H   0  0  0  0  0  0  0  0  0  0  0  0
    5.4644    5.8127   16.9997 S   0  0  0  0  0  0  0  0  0  0  0  0
    4.0974    5.5400   16.7564 O   0  0  0  0  0  0  0  0  0  0  0  0
    6.1479    6.7161   16.1381 O   0  0  0  0  0  0  0  0  0  0  0  0
    6.3544    4.2863   16.9604 C   0  0  0  0  0  0  0  0  0  0  0  0
    7.6038    4.2195   17.5209 C   0  0  0  0  0  0  0  0  0  0  0  0
    8.3216    3.0016   17.5008 C   0  0  0  0  0  0  0  0  0  0  0  0
    7.7095    1.8615   16.8954 C   0  0  0  0  0  0  0  0  0  0  0  0
    6.4190    1.9691   16.3358 C   0  0  0  0  0  0  0  0  0  0  0  0
    5.7627    3.1681   16.3658 C   0  0  0  0  0  0  0  0  0  0  0  0
    9.6144    2.8846   18.0638 C   0  0  0  0  0  0  0  0  0  0  0  0
   10.2673    1.6724   18.0238 C   0  0  0  0  0  0  0  0  0  0  0  0
    9.6607    0.5666   17.4224 C   0  0  0  0  0  0  0  0  0  0  0  0
   10.4736   -0.9731   17.3744 Cl  0  0  0  0  0  0  0  0  0  0  0  0
    8.4082    0.6407   16.8745 C   0  0  0  0  0  0  0  0  0  0  0  0
  1  2  2  0  0  0
  2  3  1  0  0  0
  2  4  1  0  0  0
  3  7  1  0  0  0
  3  6  1  0  0  0
  7  8  1  0  0  0
  7  9  2  0  0  0
  8 12  2  0  0  0
  9 10  1  0  0  0
 10 11  2  0  0  0
 11 12  1  0  0  0
 11 15  1  0  0  0
 12 13  1  0  0  0
 13 14  1  0  0  0
 14 15  1  0  0  0
 15 16  1  0  0  0
 16 17  1  0  0  0
 16 18  1  0  0  0
  4  5  1  0  0  0
  4 19  1  0  0  0
  5  6  1  0  0  0
 19 21  1  0  0  0
 21 22  2  0  0  0
 21 23  2  0  0  0
 21 24  1  0  0  0
 24 25  1  0  0  0
 24 29  2  0  0  0
 25 26  2  0  0  0
 26 27  1  0  0  0
 26 30  1  0  0  0
 27 28  2  0  0  0
 27 34  1  0  0  0
 28 29  1  0  0  0
 30 31  2  0  0  0
 31 32  1  0  0  0
 32 33  1  0  0  0
 32 34  2  0  0  0
 19 20  1  0  0  0
M  END
> <minimizedAffinity>
-9.79842

$$$$
2Y7Z_C0Z_A_1245


 34 38  0  0  0  0  0  0  0  0999 V2000
    5.5010    5.7094   21.0617 O   0  0  0  0  0  0  0  0  0  0  0  0
    6.2847    6.5841   20.7525 C   0  0  0  0  0  0  0  0  0  0  0  0
    7.2489    6.4941   19.7964 N   0  0  0  0  0  0  0  0  0  0  0  0
    6.2993    7.9726   21.3435 C   0  0  0  0  0  0  0  0  0  0  0  0
    7.7050    8.4955   20.9704 C   0  0  0  0  0  0  0  0  0  0  0  0
    7.9855    7.7623   19.6507 C   0  0  0  0  0  0  0  0  0  0  0  0
    7.5007    5.3871   18.9653 C   0  0  0  0  0  0  0  0  0  0  0  0
    6.6786    5.0403   17.8924 C   0  0  0  0  0  0  0  0  0  0  0  0
    8.6453    4.6195   19.2193 C   0  0  0  0  0  0  0  0  0  0  0  0
    8.9539    3.5319   18.4305 C   0  0  0  0  0  0  0  0  0  0  0  0
    8.1278    3.1762   17.3737 C   0  0  0  0  0  0  0  0  0  0  0  0
    7.0027    3.9424   17.0996 C   0  0  0  0  0  0  0  0  0  0  0  0
    6.2828    3.3724   15.9063 C   0  0  0  0  0  0  0  0  0  0  0  0
    7.3444    2.4858   15.2212 C   0  0  0  0  0  0  0  0  0  0  0  0
    8.2581    2.0289   16.3810 C   0  0  0  0  0  0  0  0  0  0  0  0
    7.8646    0.6726   16.8871 N   0  0  0  0  0  0  0  0  0  0  0  0
    7.0710    0.7201   18.1350 C   0  0  0  0  0  0  0  0  0  0  0  0
    9.0780   -0.1017   17.2203 C   0  0  0  0  0  0  0  0  0  0  0  0
    6.0695    7.9611   22.7840 N   0  0  0  0  0  0  0  0  0  0  0  0
    6.6110    7.1800   23.1543 H   0  0  0  0  0  0  0  0  0  0  0  0
    6.4184    9.2311   23.7078 S   0  0  0  0  0  0  0  0  0  0  0  0
    6.4301   10.3138   22.7967 O   0  0  0  0  0  0  0  0  0  0  0  0
    5.5530    9.2929   24.8360 O   0  0  0  0  0  0  0  0  0  0  0  0
    8.0585    9.0026   24.3254 C   0  0  0  0  0  0  0  0  0  0  0  0
    8.2901    8.0566   25.2903 C   0  0  0  0  0  0  0  0  0  0  0  0
    9.5995    7.8610   25.7865 C   0  0  0  0  0  0  0  0  0  0  0  0
   10.6554    8.6616   25.2527 C   0  0  0  0  0  0  0  0  0  0  0  0
   10.3776    9.6197   24.2551 C   0  0  0  0  0  0  0  0  0  0  0  0
    9.0955    9.7856   23.8102 C   0  0  0  0  0  0  0  0  0  0  0  0
    9.8869    6.8992   26.7836 C   0  0  0  0  0  0  0  0  0  0  0  0
   11.1818    6.7441   27.2269 C   0  0  0  0  0  0  0  0  0  0  0  0
   12.2045    7.5384   26.7019 C   0  0  0  0  0  0  0  0  0  0  0  0
   13.8468    7.3442   27.2486 Cl  0  0  0  0  0  0  0  0  0  0  0  0
   11.9650    8.4734   25.7309 C   0  0  0  0  0  0  0  0  0  0  0  0
  1  2  2  0  0  0
  2  3  1  0  0  0
  2  4  1  0  0  0
  3  7  1  0  0  0
  3  6  1  0  0  0
  7  8  1  0  0  0
  7  9  2  0  0  0
  8 12  2  0  0  0
  9 10  1  0  0  0
 10 11  2  0  0  0
 11 12  1  0  0  0
 11 15  1  0  0  0
 12 13  1  0  0  0
 13 14  1  0  0  0
 14 15  1  0  0  0
 15 16  1  0  0  0
 16 17  1  0  0  0
 16 18  1  0  0  0
  4  5  1  0  0  0
  4 19  1  0  0  0
  5  6  1  0  0  0
 19 21  1  0  0  0
 21 22  2  0  0  0
 21 23  2  0  0  0
 21 24  1  0  0  0
 24 25  1  0  0  0
 24 29  2  0  0  0
 25 26  2  0  0  0
 26 27  1  0  0  0
 26 30  1  0  0  0
 27 28  2  0  0  0
 27 34  1  0  0  0
 28 29  1  0  0  0
 30 31  2  0  0  0
 31 32  1  0  0  0
 32 33  1  0  0  0
 32 34  2  0  0  0
 19 20  1  0  0  0
M  END
> <minimizedAffinity>
-9.67493

$$$$
2Y7Z_C0Z_A_1245


 34 38  0  0  0  0  0  0  0  0999 V2000
    7.7025    6.9233   20.5651 O   0  0  0  0  0  0  0  0  0  0  0  0
    6.5940    7.0673   20.0903 C   0  0  0  0  0  0  0  0  0  0  0  0
    5.9857    6.2287   19.2080 N   0  0  0  0  0  0  0  0  0  0  0  0
    5.6502    8.1925   20.4378 C   0  0  0  0  0  0  0  0  0  0  0  0
    4.6361    8.1695   19.2717 C   0  0  0  0  0  0  0  0  0  0  0  0
    4.6228    6.6845   18.8809 C   0  0  0  0  0  0  0  0  0  0  0  0
    6.5089    5.0239   18.7037 C   0  0  0  0  0  0  0  0  0  0  0  0
    6.6183    3.8634   19.4708 C   0  0  0  0  0  0  0  0  0  0  0  0
    6.9119    4.9913   17.3620 C   0  0  0  0  0  0  0  0  0  0  0  0
    7.4183    3.8360   16.8060 C   0  0  0  0  0  0  0  0  0  0  0  0
    7.5432    2.6861   17.5727 C   0  0  0  0  0  0  0  0  0  0  0  0
    7.1269    2.7009   18.8973 C   0  0  0  0  0  0  0  0  0  0  0  0
    7.3453    1.3428   19.5099 C   0  0  0  0  0  0  0  0  0  0  0  0
    7.4870    0.4050   18.2921 C   0  0  0  0  0  0  0  0  0  0  0  0
    8.0720    1.3116   17.1853 C   0  0  0  0  0  0  0  0  0  0  0  0
    9.5639    1.1801   17.1007 N   0  0  0  0  0  0  0  0  0  0  0  0
   10.0687   -0.1123   17.6151 C   0  0  0  0  0  0  0  0  0  0  0  0
   10.1998    2.2150   17.9419 C   0  0  0  0  0  0  0  0  0  0  0  0
    6.3389    9.4729   20.5568 N   0  0  0  0  0  0  0  0  0  0  0  0
    5.9925   10.0564   19.7953 H   0  0  0  0  0  0  0  0  0  0  0  0
    6.2415   10.3665   21.8910 S   0  0  0  0  0  0  0  0  0  0  0  0
    6.8900   11.5723   21.5335 O   0  0  0  0  0  0  0  0  0  0  0  0
    4.9021   10.4232   22.3689 O   0  0  0  0  0  0  0  0  0  0  0  0
    7.2025    9.5634   23.1381 C   0  0  0  0  0  0  0  0  0  0  0  0
    8.5024    9.9491   23.3403 C   0  0  0  0  0  0  0  0  0  0  0  0
    9.2780    9.3178   24.3399 C   0  0  0  0  0  0  0  0  0  0  0  0
    8.6704    8.2893   25.1234 C   0  0  0  0  0  0  0  0  0  0  0  0
    7.3275    7.9261   24.8894 C   0  0  0  0  0  0  0  0  0  0  0  0
    6.6151    8.5534   23.9054 C   0  0  0  0  0  0  0  0  0  0  0  0
   10.6240    9.6794   24.5836 C   0  0  0  0  0  0  0  0  0  0  0  0
   11.3328    9.0374   25.5749 C   0  0  0  0  0  0  0  0  0  0  0  0
   10.7292    8.0280   26.3295 C   0  0  0  0  0  0  0  0  0  0  0  0
   11.6134    7.2160   27.5914 Cl  0  0  0  0  0  0  0  0  0  0  0  0
    9.4270    7.6571   26.1269 C   0  0  0  0  0  0  0  0  0  0  0  0
  1  2  2  0  0  0
  2  3  1  0  0  0
  2  4  1  0  0  0
  3  7  1  0  0  0
  3  6  1  0  0  0
  7  8  1  0  0  0
  7  9  2  0  0  0
  8 12  2  0  0  0
  9 10  1  0  0  0
 10 11  2  0  0  0
 11 12  1  0  0  0
 11 15  1  0  0  0
 12 13  1  0  0  0
 13 14  1  0  0  0
 14 15  1  0  0  0
 15 16  1  0  0  0
 16 17  1  0  0  0
 16 18  1  0  0  0
  4  5  1  0  0  0
  4 19  1  0  0  0
  5  6  1  0  0  0
 19 21  1  0  0  0
 21 22  2  0  0  0
 21 23  2  0  0  0
 21 24  1  0  0  0
 24 25  1  0  0  0
 24 29  2  0  0  0
 25 26  2  0  0  0
 26 27  1  0  0  0
 26 30  1  0  0  0
 27 28  2  0  0  0
 27 34  1  0  0  0
 28 29  1  0  0  0
 30 31  2  0  0  0
 31 32  1  0  0  0
 32 33  1  0  0  0
 32 34  2  0  0  0
 19 20  1  0  0  0
M  END
> <minimizedAffinity>
-9.39210

$$$$
2Y7Z_C0Z_A_1245


 34 38  0  0  0  0  0  0  0  0999 V2000
    9.6063    3.4907   18.3401 O   0  0  0  0  0  0  0  0  0  0  0  0
    8.5481    3.7111   17.7864 C   0  0  0  0  0  0  0  0  0  0  0  0
    7.5959    4.5908   18.2002 N   0  0  0  0  0  0  0  0  0  0  0  0
    8.1103    3.0796   16.4876 C   0  0  0  0  0  0  0  0  0  0  0  0
    6.5845    3.3254   16.4774 C   0  0  0  0  0  0  0  0  0  0  0  0
    6.4612    4.6403   17.2609 C   0  0  0  0  0  0  0  0  0  0  0  0
    7.6680    5.4322   19.3255 C   0  0  0  0  0  0  0  0  0  0  0  0
    8.3310    6.6601   19.3145 C   0  0  0  0  0  0  0  0  0  0  0  0
    7.0200    5.0212   20.4980 C   0  0  0  0  0  0  0  0  0  0  0  0
    7.0420    5.8092   21.6289 C   0  0  0  0  0  0  0  0  0  0  0  0
    7.7154    7.0226   21.6239 C   0  0  0  0  0  0  0  0  0  0  0  0
    8.3427    7.4499   20.4612 C   0  0  0  0  0  0  0  0  0  0  0  0
    8.9839    8.7916   20.6978 C   0  0  0  0  0  0  0  0  0  0  0  0
    8.2740    9.3245   21.9606 C   0  0  0  0  0  0  0  0  0  0  0  0
    7.8804    8.0478   22.7378 C   0  0  0  0  0  0  0  0  0  0  0  0
    8.8925    7.7152   23.7939 N   0  0  0  0  0  0  0  0  0  0  0  0
    8.3088    7.5955   25.1483 C   0  0  0  0  0  0  0  0  0  0  0  0
    9.8859    8.8049   23.8872 C   0  0  0  0  0  0  0  0  0  0  0  0
    8.4504    1.6626   16.4213 N   0  0  0  0  0  0  0  0  0  0  0  0
    9.2373    1.5268   17.0559 H   0  0  0  0  0  0  0  0  0  0  0  0
    7.3792    0.5166   16.7781 S   0  0  0  0  0  0  0  0  0  0  0  0
    6.3604    0.6995   15.8133 O   0  0  0  0  0  0  0  0  0  0  0  0
    8.0093   -0.7556   16.8782 O   0  0  0  0  0  0  0  0  0  0  0  0
    6.7133    0.8913   18.3718 C   0  0  0  0  0  0  0  0  0  0  0  0
    5.3536    0.9327   18.5418 C   0  0  0  0  0  0  0  0  0  0  0  0
    4.8104    1.2248   19.8141 C   0  0  0  0  0  0  0  0  0  0  0  0
    5.7093    1.4629   20.8986 C   0  0  0  0  0  0  0  0  0  0  0  0
    7.1024    1.4040   20.6847 C   0  0  0  0  0  0  0  0  0  0  0  0
    7.5875    1.1293   19.4363 C   0  0  0  0  0  0  0  0  0  0  0  0
    3.4145    1.2814   20.0377 C   0  0  0  0  0  0  0  0  0  0  0  0
    2.9377    1.5632   21.2988 C   0  0  0  0  0  0  0  0  0  0  0  0
    3.8273    1.8012   22.3498 C   0  0  0  0  0  0  0  0  0  0  0  0
    3.2353    2.1493   23.9503 Cl  0  0  0  0  0  0  0  0  0  0  0  0
    5.1838    1.7473   22.1723 C   0  0  0  0  0  0  0  0  0  0  0  0
  1  2  2  0  0  0
  2  3  1  0  0  0
  2  4  1  0  0  0
  3  7  1  0  0  0
  3  6  1  0  0  0
  7  8  1  0  0  0
  7  9  2  0  0  0
  8 12  2  0  0  0
  9 10  1  0  0  0
 10 11  2  0  0  0
 11 12  1  0  0  0
 11 15  1  0  0  0
 12 13  1  0  0  0
 13 14  1  0  0  0
 14 15  1  0  0  0
 15 16  1  0  0  0
 16 17  1  0  0  0
 16 18  1  0  0  0
  4  5  1  0  0  0
  4 19  1  0  0  0
  5  6  1  0  0  0
 19 21  1  0  0  0
 21 22  2  0  0  0
 21 23  2  0  0  0
 21 24  1  0  0  0
 24 25  1  0  0  0
 24 29  2  0  0  0
 25 26  2  0  0  0
 26 27  1  0  0  0
 26 30  1  0  0  0
 27 28  2  0  0  0
 27 34  1  0  0  0
 28 29  1  0  0  0
 30 31  2  0  0  0
 31 32  1  0  0  0
 32 33  1  0  0  0
 32 34  2  0  0  0
 19 20  1  0  0  0
M  END
> <minimizedAffinity>
-8.54402

$$$$
2Y7Z_C0Z_A_1245


 34 38  0  0  0  0  0  0  0  0999 V2000
    5.9361    4.3139   21.0959 O   0  0  0  0  0  0  0  0  0  0  0  0
    4.8765    4.8961   21.2107 C   0  0  0  0  0  0  0  0  0  0  0  0
    4.6641    6.0410   21.9149 N   0  0  0  0  0  0  0  0  0  0  0  0
    3.5907    4.4802   20.5389 C   0  0  0  0  0  0  0  0  0  0  0  0
    2.5136    5.2360   21.3496 C   0  0  0  0  0  0  0  0  0  0  0  0
    3.2675    6.4969   21.7967 C   0  0  0  0  0  0  0  0  0  0  0  0
    5.6327    6.7832   22.6151 C   0  0  0  0  0  0  0  0  0  0  0  0
    6.6904    7.4385   21.9834 C   0  0  0  0  0  0  0  0  0  0  0  0
    5.5062    6.8838   24.0071 C   0  0  0  0  0  0  0  0  0  0  0  0
    6.4151    7.6097   24.7468 C   0  0  0  0  0  0  0  0  0  0  0  0
    7.4769    8.2477   24.1213 C   0  0  0  0  0  0  0  0  0  0  0  0
    7.5999    8.1727   22.7402 C   0  0  0  0  0  0  0  0  0  0  0  0
    8.8096    8.9528   22.2984 C   0  0  0  0  0  0  0  0  0  0  0  0
    9.1114    9.8790   23.4958 C   0  0  0  0  0  0  0  0  0  0  0  0
    8.5945    9.0907   24.7206 C   0  0  0  0  0  0  0  0  0  0  0  0
    9.7019    8.3341   25.3926 N   0  0  0  0  0  0  0  0  0  0  0  0
    9.3827    7.9389   26.7824 C   0  0  0  0  0  0  0  0  0  0  0  0
   10.8989    9.1944   25.4921 C   0  0  0  0  0  0  0  0  0  0  0  0
    3.3987    3.0343   20.5629 N   0  0  0  0  0  0  0  0  0  0  0  0
    2.7128    2.8485   21.2946 H   0  0  0  0  0  0  0  0  0  0  0  0
    2.9048    2.2237   19.2641 S   0  0  0  0  0  0  0  0  0  0  0  0
    2.0486    1.2304   19.7958 O   0  0  0  0  0  0  0  0  0  0  0  0
    2.3956    3.1103   18.2740 O   0  0  0  0  0  0  0  0  0  0  0  0
    4.3199    1.4268   18.5668 C   0  0  0  0  0  0  0  0  0  0  0  0
    5.5517    1.6198   19.1369 C   0  0  0  0  0  0  0  0  0  0  0  0
    6.6892    0.9818   18.5911 C   0  0  0  0  0  0  0  0  0  0  0  0
    6.5142    0.1381   17.4516 C   0  0  0  0  0  0  0  0  0  0  0  0
    5.2289   -0.0407   16.8984 C   0  0  0  0  0  0  0  0  0  0  0  0
    4.1561    0.6033   17.4494 C   0  0  0  0  0  0  0  0  0  0  0  0
    7.9809    1.1525   19.1428 C   0  0  0  0  0  0  0  0  0  0  0  0
    9.0547    0.5018   18.5765 C   0  0  0  0  0  0  0  0  0  0  0  0
    8.8714   -0.3151   17.4577 C   0  0  0  0  0  0  0  0  0  0  0  0
   10.2208   -1.1498   16.7393 Cl  0  0  0  0  0  0  0  0  0  0  0  0
    7.6355   -0.5097   16.9019 C   0  0  0  0  0  0  0  0  0  0  0  0
  1  2  2  0  0  0
  2  3  1  0  0  0
  2  4  1  0  0  0
  3  7  1  0  0  0
  3  6  1  0  0  0
  7  8  1  0  0  0
  7  9  2  0  0  0
  8 12  2  0  0  0
  9 10  1  0  0  0
 10 11  2  0  0  0
 11 12  1  0  0  0
 11 15  1  0  0  0
 12 13  1  0  0  0
 13 14  1  0  0  0
 14 15  1  0  0  0
 15 16  1  0  0  0
 16 17  1  0  0  0
 16 18  1  0  0  0
  4  5  1  0  0  0
  4 19  1  0  0  0
  5  6  1  0  0  0
 19 21  1  0  0  0
 21 22  2  0  0  0
 21 23  2  0  0  0
 21 24  1  0  0  0
 24 25  1  0  0  0
 24 29  2  0  0  0
 25 26  2  0  0  0
 26 27  1  0  0  0
 26 30  1  0  0  0
 27 28  2  0  0  0
 27 34  1  0  0  0
 28 29  1  0  0  0
 30 31  2  0  0  0
 31 32  1  0  0  0
 32 33  1  0  0  0
 32 34  2  0  0  0
 19 20  1  0  0  0
M  END
> <minimizedAffinity>
-8.47927

$$$$
2Y7Z_C0Z_A_1245


 34 38  0  0  0  0  0  0  0  0999 V2000
    4.9306    5.8883   21.3397 O   0  0  0  0  0  0  0  0  0  0  0  0
    4.1920    6.2303   22.2410 C   0  0  0  0  0  0  0  0  0  0  0  0
    4.0020    7.5039   22.6809 N   0  0  0  0  0  0  0  0  0  0  0  0
    3.2938    5.2977   23.0163 C   0  0  0  0  0  0  0  0  0  0  0  0
    2.9491    6.1168   24.2808 C   0  0  0  0  0  0  0  0  0  0  0  0
    2.9966    7.5595   23.7572 C   0  0  0  0  0  0  0  0  0  0  0  0
    4.5977    8.6662   22.1579 C   0  0  0  0  0  0  0  0  0  0  0  0
    4.0102    9.4337   21.1513 C   0  0  0  0  0  0  0  0  0  0  0  0
    5.8243    9.0774   22.6964 C   0  0  0  0  0  0  0  0  0  0  0  0
    6.4500   10.2162   22.2362 C   0  0  0  0  0  0  0  0  0  0  0  0
    5.8747   10.9708   21.2235 C   0  0  0  0  0  0  0  0  0  0  0  0
    4.6490   10.5847   20.6974 C   0  0  0  0  0  0  0  0  0  0  0  0
    4.2262   11.5628   19.6336 C   0  0  0  0  0  0  0  0  0  0  0  0
    5.0871   12.8126   19.9154 C   0  0  0  0  0  0  0  0  0  0  0  0
    6.3738   12.2459   20.5574 C   0  0  0  0  0  0  0  0  0  0  0  0
    7.4638   12.0744   19.5411 N   0  0  0  0  0  0  0  0  0  0  0  0
    8.0225   10.7047   19.5060 C   0  0  0  0  0  0  0  0  0  0  0  0
    8.6001   12.9554   19.8816 C   0  0  0  0  0  0  0  0  0  0  0  0
    3.9503    4.0331   23.3290 N   0  0  0  0  0  0  0  0  0  0  0  0
    3.8346    3.8906   24.3323 H   0  0  0  0  0  0  0  0  0  0  0  0
    3.5138    2.6548   22.6236 S   0  0  0  0  0  0  0  0  0  0  0  0
    3.3945    1.7494   23.7046 O   0  0  0  0  0  0  0  0  0  0  0  0
    2.3939    2.8533   21.7680 O   0  0  0  0  0  0  0  0  0  0  0  0
    4.8588    2.1325   21.6030 C   0  0  0  0  0  0  0  0  0  0  0  0
    4.6018    1.6315   20.3530 C   0  0  0  0  0  0  0  0  0  0  0  0
    5.6709    1.2171   19.5258 C   0  0  0  0  0  0  0  0  0  0  0  0
    7.0040    1.3431   20.0235 C   0  0  0  0  0  0  0  0  0  0  0  0
    7.2275    1.8704   21.3128 C   0  0  0  0  0  0  0  0  0  0  0  0
    6.1654    2.2493   22.0857 C   0  0  0  0  0  0  0  0  0  0  0  0
    5.4553    0.6914   18.2299 C   0  0  0  0  0  0  0  0  0  0  0  0
    6.5331    0.3092   17.4621 C   0  0  0  0  0  0  0  0  0  0  0  0
    7.8317    0.4309   17.9633 C   0  0  0  0  0  0  0  0  0  0  0  0
    9.2022   -0.0409   16.9974 Cl  0  0  0  0  0  0  0  0  0  0  0  0
    8.0788    0.9420   19.2091 C   0  0  0  0  0  0  0  0  0  0  0  0
  1  2  2  0  0  0
  2  3  1  0  0  0
  2  4  1  0  0  0
  3  7  1  0  0  0
  3  6  1  0  0  0
  7  8  1  0  0  0
  7  9  2  0  0  0
  8 12  2  0  0  0
  9 10  1  0  0  0
 10 11  2  0  0  0
 11 12  1  0  0  0
 11 15  1  0  0  0
 12 13  1  0  0  0
 13 14  1  0  0  0
 14 15  1  0  0  0
 15 16  1  0  0  0
 16 17  1  0  0  0
 16 18  1  0  0  0
  4  5  1  0  0  0
  4 19  1  0  0  0
  5  6  1  0  0  0
 19 21  1  0  0  0
 21 22  2  0  0  0
 21 23  2  0  0  0
 21 24  1  0  0  0
 24 25  1  0  0  0
 24 29  2  0  0  0
 25 26  2  0  0  0
 26 27  1  0  0  0
 26 30  1  0  0  0
 27 28  2  0  0  0
 27 34  1  0  0  0
 28 29  1  0  0  0
 30 31  2  0  0  0
 31 32  1  0  0  0
 32 33  1  0  0  0
 32 34  2  0  0  0
 19 20  1  0  0  0
M  END
> <minimizedAffinity>
-8.34332

$$$$
2Y7Z_C0Z_A_1245


 34 38  0  0  0  0  0  0  0  0999 V2000
    5.0249    6.0044   24.1746 O   0  0  0  0  0  0  0  0  0  0  0  0
    4.4866    6.2720   23.1193 C   0  0  0  0  0  0  0  0  0  0  0  0
    3.6592    5.4548   22.4126 N   0  0  0  0  0  0  0  0  0  0  0  0
    4.5947    7.6010   22.4126 C   0  0  0  0  0  0  0  0  0  0  0  0
    4.1402    7.2684   20.9733 C   0  0  0  0  0  0  0  0  0  0  0  0
    3.1453    6.1215   21.2029 C   0  0  0  0  0  0  0  0  0  0  0  0
    3.2457    4.1619   22.7827 C   0  0  0  0  0  0  0  0  0  0  0  0
    3.9801    3.0143   22.4811 C   0  0  0  0  0  0  0  0  0  0  0  0
    2.0541    4.0340   23.5089 C   0  0  0  0  0  0  0  0  0  0  0  0
    1.6046    2.7952   23.9132 C   0  0  0  0  0  0  0  0  0  0  0  0
    2.3255    1.6517   23.5991 C   0  0  0  0  0  0  0  0  0  0  0  0
    3.5188    1.7686   22.8987 C   0  0  0  0  0  0  0  0  0  0  0  0
    4.1199    0.4032   22.6952 C   0  0  0  0  0  0  0  0  0  0  0  0
    3.4112   -0.4750   23.7483 C   0  0  0  0  0  0  0  0  0  0  0  0
    2.0298    0.1946   23.9282 C   0  0  0  0  0  0  0  0  0  0  0  0
    0.9837   -0.4716   23.0844 N   0  0  0  0  0  0  0  0  0  0  0  0
    1.2995   -1.8812   22.7637 C   0  0  0  0  0  0  0  0  0  0  0  0
    0.8874    0.2175   21.7810 C   0  0  0  0  0  0  0  0  0  0  0  0
    5.9481    8.1433   22.4620 N   0  0  0  0  0  0  0  0  0  0  0  0
    6.1472    8.5022   21.5282 H   0  0  0  0  0  0  0  0  0  0  0  0
    6.3560    9.3104   23.4912 S   0  0  0  0  0  0  0  0  0  0  0  0
    6.3616   10.4762   22.6892 O   0  0  0  0  0  0  0  0  0  0  0  0
    5.5304    9.2785   24.6501 O   0  0  0  0  0  0  0  0  0  0  0  0
    8.0103    8.9917   24.0254 C   0  0  0  0  0  0  0  0  0  0  0  0
    8.2224    8.3716   25.2296 C   0  0  0  0  0  0  0  0  0  0  0  0
    9.5416    8.1059   25.6634 C   0  0  0  0  0  0  0  0  0  0  0  0
   10.6261    8.4905   24.8168 C   0  0  0  0  0  0  0  0  0  0  0  0
   10.3661    9.1201   23.5813 C   0  0  0  0  0  0  0  0  0  0  0  0
    9.0761    9.3693   23.2035 C   0  0  0  0  0  0  0  0  0  0  0  0
    9.8104    7.4710   26.8990 C   0  0  0  0  0  0  0  0  0  0  0  0
   11.1144    7.2290   27.2707 C   0  0  0  0  0  0  0  0  0  0  0  0
   12.1666    7.6165   26.4369 C   0  0  0  0  0  0  0  0  0  0  0  0
   13.8188    7.3071   26.8929 Cl  0  0  0  0  0  0  0  0  0  0  0  0
   11.9442    8.2259   25.2313 C   0  0  0  0  0  0  0  0  0  0  0  0
  1  2  2  0  0  0
  2  3  1  0  0  0
  2  4  1  0  0  0
  3  7  1  0  0  0
  3  6  1  0  0  0
  7  8  1  0  0  0
  7  9  2  0  0  0
  8 12  2  0  0  0
  9 10  1  0  0  0
 10 11  2  0  0  0
 11 12  1  0  0  0
 11 15  1  0  0  0
 12 13  1  0  0  0
 13 14  1  0  0  0
 14 15  1  0  0  0
 15 16  1  0  0  0
 16 17  1  0  0  0
 16 18  1  0  0  0
  4  5  1  0  0  0
  4 19  1  0  0  0
  5  6  1  0  0  0
 19 21  1  0  0  0
 21 22  2  0  0  0
 21 23  2  0  0  0
 21 24  1  0  0  0
 24 25  1  0  0  0
 24 29  2  0  0  0
 25 26  2  0  0  0
 26 27  1  0  0  0
 26 30  1  0  0  0
 27 28  2  0  0  0
 27 34  1  0  0  0
 28 29  1  0  0  0
 30 31  2  0  0  0
 31 32  1  0  0  0
 32 33  1  0  0  0
 32 34  2  0  0  0
 19 20  1  0  0  0
M  END
> <minimizedAffinity>
-8.16750

$$$$
2Y7Z_C0Z_A_1245


 34 38  0  0  0  0  0  0  0  0999 V2000
    9.2761    3.6059   18.4282 O   0  0  0  0  0  0  0  0  0  0  0  0
    8.3117    3.6975   17.6958 C   0  0  0  0  0  0  0  0  0  0  0  0
    7.1930    4.4352   17.9332 N   0  0  0  0  0  0  0  0  0  0  0  0
    8.1966    3.0426   16.3410 C   0  0  0  0  0  0  0  0  0  0  0  0
    6.6774    3.0860   16.0607 C   0  0  0  0  0  0  0  0  0  0  0  0
    6.2445    4.3558   16.8079 C   0  0  0  0  0  0  0  0  0  0  0  0
    6.9539    5.2539   19.0521 C   0  0  0  0  0  0  0  0  0  0  0  0
    5.9206    5.0169   19.9596 C   0  0  0  0  0  0  0  0  0  0  0  0
    7.8134    6.3389   19.2703 C   0  0  0  0  0  0  0  0  0  0  0  0
    7.6397    7.1683   20.3576 C   0  0  0  0  0  0  0  0  0  0  0  0
    6.6021    6.9434   21.2512 C   0  0  0  0  0  0  0  0  0  0  0  0
    5.7575    5.8585   21.0569 C   0  0  0  0  0  0  0  0  0  0  0  0
    4.7308    5.8151   22.1574 C   0  0  0  0  0  0  0  0  0  0  0  0
    5.3414    6.6946   23.2693 C   0  0  0  0  0  0  0  0  0  0  0  0
    6.2133    7.7162   22.5044 C   0  0  0  0  0  0  0  0  0  0  0  0
    5.4792    9.0053   22.2816 N   0  0  0  0  0  0  0  0  0  0  0  0
    6.3744   10.1786   22.1736 C   0  0  0  0  0  0  0  0  0  0  0  0
    4.6040    9.2821   23.4394 C   0  0  0  0  0  0  0  0  0  0  0  0
    8.7288    1.6843   16.3383 N   0  0  0  0  0  0  0  0  0  0  0  0
    9.5617    1.7018   16.9268 H   0  0  0  0  0  0  0  0  0  0  0  0
    7.8518    0.4299   16.8334 S   0  0  0  0  0  0  0  0  0  0  0  0
    6.8340    0.3270   15.8557 O   0  0  0  0  0  0  0  0  0  0  0  0
    8.6783   -0.7011   17.0853 O   0  0  0  0  0  0  0  0  0  0  0  0
    7.1059    0.8787   18.3715 C   0  0  0  0  0  0  0  0  0  0  0  0
    5.7444    1.0223   18.4442 C   0  0  0  0  0  0  0  0  0  0  0  0
    5.1369    1.3746   19.6713 C   0  0  0  0  0  0  0  0  0  0  0  0
    5.9730    1.5642   20.8141 C   0  0  0  0  0  0  0  0  0  0  0  0
    7.3695    1.4000   20.7001 C   0  0  0  0  0  0  0  0  0  0  0  0
    7.9188    1.0698   19.4925 C   0  0  0  0  0  0  0  0  0  0  0  0
    3.7368    1.5369   19.7948 C   0  0  0  0  0  0  0  0  0  0  0  0
    3.1954    1.8737   21.0157 C   0  0  0  0  0  0  0  0  0  0  0  0
    4.0246    2.0634   22.1242 C   0  0  0  0  0  0  0  0  0  0  0  0
    3.3497    2.4806   23.6748 Cl  0  0  0  0  0  0  0  0  0  0  0  0
    5.3824    1.9075   22.0440 C   0  0  0  0  0  0  0  0  0  0  0  0
  1  2  2  0  0  0
  2  3  1  0  0  0
  2  4  1  0  0  0
  3  7  1  0  0  0
  3  6  1  0  0  0
  7  8  1  0  0  0
  7  9  2  0  0  0
  8 12  2  0  0  0
  9 10  1  0  0  0
 10 11  2  0  0  0
 11 12  1  0  0  0
 11 15  1  0  0  0
 12 13  1  0  0  0
 13 14  1  0  0  0
 14 15  1  0  0  0
 15 16  1  0  0  0
 16 17  1  0  0  0
 16 18  1  0  0  0
  4  5  1  0  0  0
  4 19  1  0  0  0
  5  6  1  0  0  0
 19 21  1  0  0  0
 21 22  2  0  0  0
 21 23  2  0  0  0
 21 24  1  0  0  0
 24 25  1  0  0  0
 24 29  2  0  0  0
 25 26  2  0  0  0
 26 27  1  0  0  0
 26 30  1  0  0  0
 27 28  2  0  0  0
 27 34  1  0  0  0
 28 29  1  0  0  0
 30 31  2  0  0  0
 31 32  1  0  0  0
 32 33  1  0  0  0
 32 34  2  0  0  0
 19 20  1  0  0  0
M  END
> <minimizedAffinity>
-8.16729

$$$$
