1K1I_FD1_A_999


 41 44  0  0  0  0  0  0  0  0999 V2000
   -1.6023   19.0318   17.8071 C   0  0  0  0  0  0  0  0  0  0  0  0
   -0.1380   18.7072   18.0595 C   0  0  0  0  0  0  0  0  0  0  0  0
    0.4315   18.1657   17.1112 O   0  0  0  0  0  0  0  0  0  0  0  0
    0.4940   18.9933   19.2445 N   0  0  0  0  0  0  0  0  0  0  0  0
   -0.1848   19.7989   20.3036 C   0  0  0  0  0  0  0  0  0  0  0  0
    0.7926   20.9412   20.6762 C   0  0  0  0  0  0  0  0  0  0  0  0
    2.7511   19.3890   19.9484 C   0  0  0  0  0  0  0  0  0  0  0  0
    1.7392   18.2801   19.6025 C   0  0  0  0  0  0  0  0  0  0  0  0
    2.1865   20.5297   20.7394 C   0  0  0  0  0  0  0  0  0  0  0  0
   -0.5437   18.9591   21.5049 C   0  0  0  0  0  0  0  0  0  0  0  0
   -1.4434   19.3418   22.3132 O   0  0  0  0  0  0  0  0  0  0  0  0
    0.0426   17.8441   21.7098 O   0  0  0  0  0  0  0  0  0  0  0  0
   -1.8816   20.1583   22.1743 H   0  0  0  0  0  0  0  0  0  0  0  0
   -1.8167   19.3858   16.3981 N   0  0  0  0  0  0  0  0  0  0  0  0
   -2.6971   18.9554   16.1149 H   0  0  0  0  0  0  0  0  0  0  0  0
   -1.9007   21.0364   15.9455 S   0  0  0  0  0  0  0  0  0  0  0  0
   -2.9476   21.2102   14.9792 O   0  0  0  0  0  0  0  0  0  0  0  0
   -1.8279   21.8598   17.1055 O   0  0  0  0  0  0  0  0  0  0  0  0
   -0.4194   21.2039   15.0857 C   0  0  0  0  0  0  0  0  0  0  0  0
   -0.4670   21.6101   13.7338 C   0  0  0  0  0  0  0  0  0  0  0  0
    0.7439   21.7753   12.9970 C   0  0  0  0  0  0  0  0  0  0  0  0
    2.0100   21.1398   15.0348 C   0  0  0  0  0  0  0  0  0  0  0  0
    1.9969   21.5393   13.6513 C   0  0  0  0  0  0  0  0  0  0  0  0
    0.7883   20.9849   15.7319 C   0  0  0  0  0  0  0  0  0  0  0  0
    3.2481   21.6914   12.9786 C   0  0  0  0  0  0  0  0  0  0  0  0
    4.4900   21.4457   13.6754 C   0  0  0  0  0  0  0  0  0  0  0  0
    4.4759   21.0501   15.0301 C   0  0  0  0  0  0  0  0  0  0  0  0
    3.2481   20.9004   15.7093 C   0  0  0  0  0  0  0  0  0  0  0  0
   -2.5938   17.9593   18.2865 C   0  0  0  0  0  0  0  0  0  0  0  0
   -2.0784   16.5190   18.1140 C   0  0  0  0  0  0  0  0  0  0  0  0
   -2.2627   15.8511   16.8880 C   0  0  0  0  0  0  0  0  0  0  0  0
   -1.4150   15.8506   19.1751 C   0  0  0  0  0  0  0  0  0  0  0  0
   -0.9490   14.5364   19.0052 C   0  0  0  0  0  0  0  0  0  0  0  0
   -1.1456   13.8805   17.7719 C   0  0  0  0  0  0  0  0  0  0  0  0
   -1.8060   14.5396   16.7065 C   0  0  0  0  0  0  0  0  0  0  0  0
   -2.0144   13.8465   15.3884 C   0  0  0  0  0  0  0  0  0  0  0  0
   -1.2680   12.8249   15.0959 N   0  0  0  0  0  0  0  0  0  0  0  0
   -2.9337   14.2802   14.5558 N   0  0  0  0  0  0  0  0  0  0  0  0
   -0.5847   12.5157   15.7337 H   0  0  0  0  0  0  0  0  0  0  0  0
   -1.3854   12.3596   14.2363 H   0  0  0  0  0  0  0  0  0  0  0  0
   -3.4892   15.0565   14.7966 H   0  0  0  0  0  0  0  0  0  0  0  0
 30 31  2  0  0  0
 30 32  1  0  0  0
 30 29  1  0  0  0
 31 35  1  0  0  0
 32 33  2  0  0  0
 33 34  1  0  0  0
 34 35  2  0  0  0
 35 36  1  0  0  0
 36 37  1  0  0  0
 36 38  2  0  0  0
 29  1  1  0  0  0
  1  2  1  0  0  0
  1 14  1  0  0  0
  2  3  2  0  0  0
  2  4  1  0  0  0
  4  5  1  0  0  0
  4  8  1  0  0  0
  5  6  1  0  0  0
  5 10  1  0  0  0
  6  9  1  0  0  0
  7  8  1  0  0  0
  7  9  1  0  0  0
 10 11  1  0  0  0
 10 12  2  0  0  0
 14 16  1  0  0  0
 16 17  2  0  0  0
 16 18  2  0  0  0
 16 19  1  0  0  0
 19 20  2  0  0  0
 19 24  1  0  0  0
 20 21  1  0  0  0
 21 23  2  0  0  0
 22 23  1  0  0  0
 22 24  2  0  0  0
 22 28  1  0  0  0
 23 25  1  0  0  0
 25 26  2  0  0  0
 26 27  1  0  0  0
 27 28  2  0  0  0
 37 39  1  0  0  0
 37 40  1  0  0  0
 38 41  1  0  0  0
 11 13  1  0  0  0
 14 15  1  0  0  0
M  END
> <minimizedAffinity>
-9.75507

$$$$
1K1I_FD1_A_999


 41 44  0  0  0  0  0  0  0  0999 V2000
   -1.1771   18.8672   18.4098 C   0  0  0  0  0  0  0  0  0  0  0  0
   -1.5017   20.0674   17.5338 C   0  0  0  0  0  0  0  0  0  0  0  0
   -2.7046   20.2338   17.3281 O   0  0  0  0  0  0  0  0  0  0  0  0
   -0.5351   20.8941   17.0163 N   0  0  0  0  0  0  0  0  0  0  0  0
    0.8948   20.7565   17.4259 C   0  0  0  0  0  0  0  0  0  0  0  0
    1.3595   22.1664   17.8676 C   0  0  0  0  0  0  0  0  0  0  0  0
   -0.4272   23.1665   16.2606 C   0  0  0  0  0  0  0  0  0  0  0  0
   -0.8460   21.7432   15.8459 C   0  0  0  0  0  0  0  0  0  0  0  0
    0.8564   23.2442   17.0300 C   0  0  0  0  0  0  0  0  0  0  0  0
    1.7499   20.2134   16.3074 C   0  0  0  0  0  0  0  0  0  0  0  0
    1.3575   19.2229   15.6187 O   0  0  0  0  0  0  0  0  0  0  0  0
    2.8705   20.7580   16.0306 O   0  0  0  0  0  0  0  0  0  0  0  0
    0.5367   18.8140   15.8115 H   0  0  0  0  0  0  0  0  0  0  0  0
   -0.7887   19.3023   19.7575 N   0  0  0  0  0  0  0  0  0  0  0  0
   -1.5636   19.0703   20.3789 H   0  0  0  0  0  0  0  0  0  0  0  0
    0.6320   18.6657   20.4737 S   0  0  0  0  0  0  0  0  0  0  0  0
    0.2807   17.9450   21.6642 O   0  0  0  0  0  0  0  0  0  0  0  0
    1.4542   18.0738   19.4725 O   0  0  0  0  0  0  0  0  0  0  0  0
    1.3986   20.1150   20.9969 C   0  0  0  0  0  0  0  0  0  0  0  0
    0.6189   21.0884   21.6599 C   0  0  0  0  0  0  0  0  0  0  0  0
    1.2269   22.2938   22.1219 C   0  0  0  0  0  0  0  0  0  0  0  0
    3.4000   21.4709   21.2501 C   0  0  0  0  0  0  0  0  0  0  0  0
    2.6317   22.4899   21.9173 C   0  0  0  0  0  0  0  0  0  0  0  0
    2.7611   20.2894   20.8047 C   0  0  0  0  0  0  0  0  0  0  0  0
    3.3086   23.6681   22.3586 C   0  0  0  0  0  0  0  0  0  0  0  0
    4.7275   23.8262   22.1346 C   0  0  0  0  0  0  0  0  0  0  0  0
    5.4572   22.8151   21.4736 C   0  0  0  0  0  0  0  0  0  0  0  0
    4.8034   21.6436   21.0362 C   0  0  0  0  0  0  0  0  0  0  0  0
   -2.2655   17.7823   18.4485 C   0  0  0  0  0  0  0  0  0  0  0  0
   -1.7418   16.3692   18.1346 C   0  0  0  0  0  0  0  0  0  0  0  0
   -2.1059   15.7388   16.9291 C   0  0  0  0  0  0  0  0  0  0  0  0
   -0.8918   15.6886   19.0439 C   0  0  0  0  0  0  0  0  0  0  0  0
   -0.4202   14.3994   18.7459 C   0  0  0  0  0  0  0  0  0  0  0  0
   -0.7979   13.7809   17.5357 C   0  0  0  0  0  0  0  0  0  0  0  0
   -1.6455   14.4524   16.6213 C   0  0  0  0  0  0  0  0  0  0  0  0
   -2.0479   13.7993   15.3279 C   0  0  0  0  0  0  0  0  0  0  0  0
   -1.3658   12.7779   14.9062 N   0  0  0  0  0  0  0  0  0  0  0  0
   -3.0684   14.2669   14.6450 N   0  0  0  0  0  0  0  0  0  0  0  0
   -0.6045   12.4430   15.4329 H   0  0  0  0  0  0  0  0  0  0  0  0
   -1.6101   12.3384   14.0598 H   0  0  0  0  0  0  0  0  0  0  0  0
   -3.5726   15.0424   14.9821 H   0  0  0  0  0  0  0  0  0  0  0  0
 30 31  2  0  0  0
 30 32  1  0  0  0
 30 29  1  0  0  0
 31 35  1  0  0  0
 32 33  2  0  0  0
 33 34  1  0  0  0
 34 35  2  0  0  0
 35 36  1  0  0  0
 36 37  1  0  0  0
 36 38  2  0  0  0
 29  1  1  0  0  0
  1  2  1  0  0  0
  1 14  1  0  0  0
  2  3  2  0  0  0
  2  4  1  0  0  0
  4  5  1  0  0  0
  4  8  1  0  0  0
  5  6  1  0  0  0
  5 10  1  0  0  0
  6  9  1  0  0  0
  7  8  1  0  0  0
  7  9  1  0  0  0
 10 11  1  0  0  0
 10 12  2  0  0  0
 14 16  1  0  0  0
 16 17  2  0  0  0
 16 18  2  0  0  0
 16 19  1  0  0  0
 19 20  2  0  0  0
 19 24  1  0  0  0
 20 21  1  0  0  0
 21 23  2  0  0  0
 22 23  1  0  0  0
 22 24  2  0  0  0
 22 28  1  0  0  0
 23 25  1  0  0  0
 25 26  2  0  0  0
 26 27  1  0  0  0
 27 28  2  0  0  0
 37 39  1  0  0  0
 37 40  1  0  0  0
 38 41  1  0  0  0
 11 13  1  0  0  0
 14 15  1  0  0  0
M  END
> <minimizedAffinity>
-9.05120

$$$$
1K1I_FD1_A_999


 41 44  0  0  0  0  0  0  0  0999 V2000
    1.5451   20.7728   17.6676 C   0  0  0  0  0  0  0  0  0  0  0  0
    0.1025   20.7016   18.1439 C   0  0  0  0  0  0  0  0  0  0  0  0
   -0.4760   21.7886   18.1718 O   0  0  0  0  0  0  0  0  0  0  0  0
   -0.5024   19.5250   18.5118 N   0  0  0  0  0  0  0  0  0  0  0  0
    0.1788   18.2119   18.3042 C   0  0  0  0  0  0  0  0  0  0  0  0
   -0.8280   17.3137   17.5438 C   0  0  0  0  0  0  0  0  0  0  0  0
   -2.7495   18.6977   18.6241 C   0  0  0  0  0  0  0  0  0  0  0  0
   -1.7086   19.5566   19.3671 C   0  0  0  0  0  0  0  0  0  0  0  0
   -2.2031   17.4504   17.9986 C   0  0  0  0  0  0  0  0  0  0  0  0
    0.6060   17.5878   19.6101 C   0  0  0  0  0  0  0  0  0  0  0  0
    0.4354   16.3481   19.8182 O   0  0  0  0  0  0  0  0  0  0  0  0
    1.1612   18.2990   20.5128 O   0  0  0  0  0  0  0  0  0  0  0  0
    0.0290   15.8147   19.1637 H   0  0  0  0  0  0  0  0  0  0  0  0
    2.4634   20.3763   18.7428 N   0  0  0  0  0  0  0  0  0  0  0  0
    3.2378   19.8790   18.3030 H   0  0  0  0  0  0  0  0  0  0  0  0
    3.1520   21.5783   19.7515 S   0  0  0  0  0  0  0  0  0  0  0  0
    2.1025   22.3558   20.3466 O   0  0  0  0  0  0  0  0  0  0  0  0
    4.1848   21.0067   20.5485 O   0  0  0  0  0  0  0  0  0  0  0  0
    3.8935   22.5915   18.5745 C   0  0  0  0  0  0  0  0  0  0  0  0
    5.2894   22.4925   18.3832 C   0  0  0  0  0  0  0  0  0  0  0  0
    5.9332   23.3059   17.4033 C   0  0  0  0  0  0  0  0  0  0  0  0
    3.7207   24.2703   16.8251 C   0  0  0  0  0  0  0  0  0  0  0  0
    5.1437   24.2045   16.6140 C   0  0  0  0  0  0  0  0  0  0  0  0
    3.1185   23.4489   17.8075 C   0  0  0  0  0  0  0  0  0  0  0  0
    5.7189   25.0436   15.6109 C   0  0  0  0  0  0  0  0  0  0  0  0
    4.8870   25.9346   14.8347 C   0  0  0  0  0  0  0  0  0  0  0  0
    3.4954   25.9843   15.0644 C   0  0  0  0  0  0  0  0  0  0  0  0
    2.9122   25.1580   16.0484 C   0  0  0  0  0  0  0  0  0  0  0  0
    1.8320   20.0169   16.3601 C   0  0  0  0  0  0  0  0  0  0  0  0
    2.6914   20.8127   15.3612 C   0  0  0  0  0  0  0  0  0  0  0  0
    4.0844   20.6103   15.3187 C   0  0  0  0  0  0  0  0  0  0  0  0
    2.0995   21.7504   14.4762 C   0  0  0  0  0  0  0  0  0  0  0  0
    2.8943   22.4702   13.5690 C   0  0  0  0  0  0  0  0  0  0  0  0
    4.2887   22.2583   13.5424 C   0  0  0  0  0  0  0  0  0  0  0  0
    4.8888   21.3240   14.4214 C   0  0  0  0  0  0  0  0  0  0  0  0
    6.3741   21.0911   14.3943 C   0  0  0  0  0  0  0  0  0  0  0  0
    7.1609   22.1045   14.1935 N   0  0  0  0  0  0  0  0  0  0  0  0
    6.8528   19.8795   14.5662 N   0  0  0  0  0  0  0  0  0  0  0  0
    6.7821   23.0043   14.0669 H   0  0  0  0  0  0  0  0  0  0  0  0
    8.1363   21.9729   14.1679 H   0  0  0  0  0  0  0  0  0  0  0  0
    6.2392   19.1246   14.7171 H   0  0  0  0  0  0  0  0  0  0  0  0
 30 31  2  0  0  0
 30 32  1  0  0  0
 30 29  1  0  0  0
 31 35  1  0  0  0
 32 33  2  0  0  0
 33 34  1  0  0  0
 34 35  2  0  0  0
 35 36  1  0  0  0
 36 37  1  0  0  0
 36 38  2  0  0  0
 29  1  1  0  0  0
  1  2  1  0  0  0
  1 14  1  0  0  0
  2  3  2  0  0  0
  2  4  1  0  0  0
  4  5  1  0  0  0
  4  8  1  0  0  0
  5  6  1  0  0  0
  5 10  1  0  0  0
  6  9  1  0  0  0
  7  8  1  0  0  0
  7  9  1  0  0  0
 10 11  1  0  0  0
 10 12  2  0  0  0
 14 16  1  0  0  0
 16 17  2  0  0  0
 16 18  2  0  0  0
 16 19  1  0  0  0
 19 20  2  0  0  0
 19 24  1  0  0  0
 20 21  1  0  0  0
 21 23  2  0  0  0
 22 23  1  0  0  0
 22 24  2  0  0  0
 22 28  1  0  0  0
 23 25  1  0  0  0
 25 26  2  0  0  0
 26 27  1  0  0  0
 27 28  2  0  0  0
 37 39  1  0  0  0
 37 40  1  0  0  0
 38 41  1  0  0  0
 11 13  1  0  0  0
 14 15  1  0  0  0
M  END
> <minimizedAffinity>
-8.96772

$$$$
1K1I_FD1_A_999


 41 44  0  0  0  0  0  0  0  0999 V2000
   -2.0782   18.9157   17.4233 C   0  0  0  0  0  0  0  0  0  0  0  0
   -3.1087   19.4617   16.4471 C   0  0  0  0  0  0  0  0  0  0  0  0
   -2.7494   19.4448   15.2692 O   0  0  0  0  0  0  0  0  0  0  0  0
   -4.3348   19.9339   16.8463 N   0  0  0  0  0  0  0  0  0  0  0  0
   -4.7949   19.7820   18.2592 C   0  0  0  0  0  0  0  0  0  0  0  0
   -6.1982   19.1297   18.1931 C   0  0  0  0  0  0  0  0  0  0  0  0
   -6.4941   20.2042   15.8410 C   0  0  0  0  0  0  0  0  0  0  0  0
   -5.0960   20.8401   15.9593 C   0  0  0  0  0  0  0  0  0  0  0  0
   -7.0363   19.6376   17.1180 C   0  0  0  0  0  0  0  0  0  0  0  0
   -4.8295   21.1050   18.9843 C   0  0  0  0  0  0  0  0  0  0  0  0
   -3.7995   21.8445   19.0255 O   0  0  0  0  0  0  0  0  0  0  0  0
   -5.9030   21.5024   19.5487 O   0  0  0  0  0  0  0  0  0  0  0  0
   -3.0050   21.5645   18.6152 H   0  0  0  0  0  0  0  0  0  0  0  0
   -1.3805   20.0136   18.1047 N   0  0  0  0  0  0  0  0  0  0  0  0
   -1.8557   20.1594   18.9955 H   0  0  0  0  0  0  0  0  0  0  0  0
    0.2914   19.8664   18.4501 S   0  0  0  0  0  0  0  0  0  0  0  0
    0.6466   20.8002   19.4807 O   0  0  0  0  0  0  0  0  0  0  0  0
    0.6443   18.4902   18.5525 O   0  0  0  0  0  0  0  0  0  0  0  0
    0.9703   20.4779   16.9917 C   0  0  0  0  0  0  0  0  0  0  0  0
    0.1265   21.1667   16.0924 C   0  0  0  0  0  0  0  0  0  0  0  0
    0.6610   21.7013   14.8822 C   0  0  0  0  0  0  0  0  0  0  0  0
    2.8930   20.8468   15.5511 C   0  0  0  0  0  0  0  0  0  0  0  0
    2.0582   21.5422   14.6059 C   0  0  0  0  0  0  0  0  0  0  0  0
    2.3261   20.3291   16.7398 C   0  0  0  0  0  0  0  0  0  0  0  0
    2.6633   22.0567   13.4184 C   0  0  0  0  0  0  0  0  0  0  0  0
    4.0770   21.8768   13.1784 C   0  0  0  0  0  0  0  0  0  0  0  0
    4.8727   21.1869   14.1179 C   0  0  0  0  0  0  0  0  0  0  0  0
    4.2903   20.6773   15.2978 C   0  0  0  0  0  0  0  0  0  0  0  0
   -2.6179   17.8744   18.4172 C   0  0  0  0  0  0  0  0  0  0  0  0
   -2.0607   16.4572   18.1918 C   0  0  0  0  0  0  0  0  0  0  0  0
   -2.2727   15.8087   16.9598 C   0  0  0  0  0  0  0  0  0  0  0  0
   -1.3310   15.7908   19.2097 C   0  0  0  0  0  0  0  0  0  0  0  0
   -0.8273   14.4978   18.9919 C   0  0  0  0  0  0  0  0  0  0  0  0
   -1.0524   13.8610   17.7534 C   0  0  0  0  0  0  0  0  0  0  0  0
   -1.7790   14.5183   16.7308 C   0  0  0  0  0  0  0  0  0  0  0  0
   -2.0181   13.8457   15.4073 C   0  0  0  0  0  0  0  0  0  0  0  0
   -1.2864   12.8219   15.0866 N   0  0  0  0  0  0  0  0  0  0  0  0
   -2.9488   14.2991   14.5981 N   0  0  0  0  0  0  0  0  0  0  0  0
   -0.5942   12.4978   15.7071 H   0  0  0  0  0  0  0  0  0  0  0  0
   -1.4240   12.3698   14.2229 H   0  0  0  0  0  0  0  0  0  0  0  0
   -3.4928   15.0767   14.8601 H   0  0  0  0  0  0  0  0  0  0  0  0
 30 31  2  0  0  0
 30 32  1  0  0  0
 30 29  1  0  0  0
 31 35  1  0  0  0
 32 33  2  0  0  0
 33 34  1  0  0  0
 34 35  2  0  0  0
 35 36  1  0  0  0
 36 37  1  0  0  0
 36 38  2  0  0  0
 29  1  1  0  0  0
  1  2  1  0  0  0
  1 14  1  0  0  0
  2  3  2  0  0  0
  2  4  1  0  0  0
  4  5  1  0  0  0
  4  8  1  0  0  0
  5  6  1  0  0  0
  5 10  1  0  0  0
  6  9  1  0  0  0
  7  8  1  0  0  0
  7  9  1  0  0  0
 10 11  1  0  0  0
 10 12  2  0  0  0
 14 16  1  0  0  0
 16 17  2  0  0  0
 16 18  2  0  0  0
 16 19  1  0  0  0
 19 20  2  0  0  0
 19 24  1  0  0  0
 20 21  1  0  0  0
 21 23  2  0  0  0
 22 23  1  0  0  0
 22 24  2  0  0  0
 22 28  1  0  0  0
 23 25  1  0  0  0
 25 26  2  0  0  0
 26 27  1  0  0  0
 27 28  2  0  0  0
 37 39  1  0  0  0
 37 40  1  0  0  0
 38 41  1  0  0  0
 11 13  1  0  0  0
 14 15  1  0  0  0
M  END
> <minimizedAffinity>
-8.96200

$$$$
1K1I_FD1_A_999


 41 44  0  0  0  0  0  0  0  0999 V2000
    0.8237   18.6423   20.2982 C   0  0  0  0  0  0  0  0  0  0  0  0
    0.0986   17.5804   19.4859 C   0  0  0  0  0  0  0  0  0  0  0  0
    0.4152   16.4238   19.7671 O   0  0  0  0  0  0  0  0  0  0  0  0
   -0.8293   17.8862   18.5210 N   0  0  0  0  0  0  0  0  0  0  0  0
   -1.3055   19.2889   18.3287 C   0  0  0  0  0  0  0  0  0  0  0  0
   -2.8529   19.2326   18.3623 C   0  0  0  0  0  0  0  0  0  0  0  0
   -2.6982   16.7791   17.5071 C   0  0  0  0  0  0  0  0  0  0  0  0
   -1.1618   16.8887   17.4809 C   0  0  0  0  0  0  0  0  0  0  0  0
   -3.4180   18.0831   17.6727 C   0  0  0  0  0  0  0  0  0  0  0  0
   -0.7979   19.8825   17.0375 C   0  0  0  0  0  0  0  0  0  0  0  0
    0.3412   19.5583   16.5829 O   0  0  0  0  0  0  0  0  0  0  0  0
   -1.5190   20.7044   16.3790 O   0  0  0  0  0  0  0  0  0  0  0  0
    0.8805   18.9559   17.0565 H   0  0  0  0  0  0  0  0  0  0  0  0
    0.6565   18.3954   21.7361 N   0  0  0  0  0  0  0  0  0  0  0  0
    1.5806   18.4767   22.1603 H   0  0  0  0  0  0  0  0  0  0  0  0
   -0.3992   19.3915   22.6469 S   0  0  0  0  0  0  0  0  0  0  0  0
   -1.5271   19.7528   21.8361 O   0  0  0  0  0  0  0  0  0  0  0  0
   -0.5767   18.8434   23.9496 O   0  0  0  0  0  0  0  0  0  0  0  0
    0.5596   20.8125   22.7985 C   0  0  0  0  0  0  0  0  0  0  0  0
    0.0761   22.0149   22.2369 C   0  0  0  0  0  0  0  0  0  0  0  0
    0.8383   23.2150   22.3596 C   0  0  0  0  0  0  0  0  0  0  0  0
    2.5397   21.9422   23.6419 C   0  0  0  0  0  0  0  0  0  0  0  0
    2.0828   23.1820   23.0694 C   0  0  0  0  0  0  0  0  0  0  0  0
    1.7567   20.7723   23.4979 C   0  0  0  0  0  0  0  0  0  0  0  0
    2.8949   24.3454   23.2375 C   0  0  0  0  0  0  0  0  0  0  0  0
    4.1428   24.2701   23.9623 C   0  0  0  0  0  0  0  0  0  0  0  0
    4.5712   23.0418   24.5096 C   0  0  0  0  0  0  0  0  0  0  0  0
    3.7775   21.8853   24.3560 C   0  0  0  0  0  0  0  0  0  0  0  0
    2.2989   18.8502   19.9193 C   0  0  0  0  0  0  0  0  0  0  0  0
    2.7115   20.3304   19.8275 C   0  0  0  0  0  0  0  0  0  0  0  0
    3.9149   20.7604   20.4192 C   0  0  0  0  0  0  0  0  0  0  0  0
    1.8957   21.2734   19.1508 C   0  0  0  0  0  0  0  0  0  0  0  0
    2.2832   22.6213   19.0735 C   0  0  0  0  0  0  0  0  0  0  0  0
    3.4897   23.0359   19.6753 C   0  0  0  0  0  0  0  0  0  0  0  0
    4.3112   22.1020   20.3525 C   0  0  0  0  0  0  0  0  0  0  0  0
    5.6004   22.5378   20.9920 C   0  0  0  0  0  0  0  0  0  0  0  0
    5.9855   23.7691   20.8436 N   0  0  0  0  0  0  0  0  0  0  0  0
    6.3165   21.6776   21.6804 N   0  0  0  0  0  0  0  0  0  0  0  0
    5.4344   24.3979   20.3239 H   0  0  0  0  0  0  0  0  0  0  0  0
    6.8286   24.0736   21.2506 H   0  0  0  0  0  0  0  0  0  0  0  0
    6.0068   20.7485   21.7812 H   0  0  0  0  0  0  0  0  0  0  0  0
 30 31  2  0  0  0
 30 32  1  0  0  0
 30 29  1  0  0  0
 31 35  1  0  0  0
 32 33  2  0  0  0
 33 34  1  0  0  0
 34 35  2  0  0  0
 35 36  1  0  0  0
 36 37  1  0  0  0
 36 38  2  0  0  0
 29  1  1  0  0  0
  1  2  1  0  0  0
  1 14  1  0  0  0
  2  3  2  0  0  0
  2  4  1  0  0  0
  4  5  1  0  0  0
  4  8  1  0  0  0
  5  6  1  0  0  0
  5 10  1  0  0  0
  6  9  1  0  0  0
  7  8  1  0  0  0
  7  9  1  0  0  0
 10 11  1  0  0  0
 10 12  2  0  0  0
 14 16  1  0  0  0
 16 17  2  0  0  0
 16 18  2  0  0  0
 16 19  1  0  0  0
 19 20  2  0  0  0
 19 24  1  0  0  0
 20 21  1  0  0  0
 21 23  2  0  0  0
 22 23  1  0  0  0
 22 24  2  0  0  0
 22 28  1  0  0  0
 23 25  1  0  0  0
 25 26  2  0  0  0
 26 27  1  0  0  0
 27 28  2  0  0  0
 37 39  1  0  0  0
 37 40  1  0  0  0
 38 41  1  0  0  0
 11 13  1  0  0  0
 14 15  1  0  0  0
M  END
> <minimizedAffinity>
-8.61624

$$$$
1K1I_FD1_A_999


 41 44  0  0  0  0  0  0  0  0999 V2000
   -1.6930   18.7414   19.2582 C   0  0  0  0  0  0  0  0  0  0  0  0
   -1.7428   20.1488   18.6839 C   0  0  0  0  0  0  0  0  0  0  0  0
   -2.8609   20.6649   18.7044 O   0  0  0  0  0  0  0  0  0  0  0  0
   -0.6350   20.7884   18.1847 N   0  0  0  0  0  0  0  0  0  0  0  0
    0.7277   20.1946   18.3317 C   0  0  0  0  0  0  0  0  0  0  0  0
    1.6202   21.2989   18.9504 C   0  0  0  0  0  0  0  0  0  0  0  0
    0.0479   23.0632   17.8594 C   0  0  0  0  0  0  0  0  0  0  0  0
   -0.8020   21.9283   17.2571 C   0  0  0  0  0  0  0  0  0  0  0  0
    1.3689   22.6294   18.4185 C   0  0  0  0  0  0  0  0  0  0  0  0
    1.2753   19.7110   17.0113 C   0  0  0  0  0  0  0  0  0  0  0  0
    0.6280   18.8723   16.3134 O   0  0  0  0  0  0  0  0  0  0  0  0
    2.3887   20.1560   16.5738 O   0  0  0  0  0  0  0  0  0  0  0  0
   -0.1906   18.5377   16.6231 H   0  0  0  0  0  0  0  0  0  0  0  0
   -1.8832   18.7713   20.7140 N   0  0  0  0  0  0  0  0  0  0  0  0
   -2.6612   18.1462   20.9244 H   0  0  0  0  0  0  0  0  0  0  0  0
   -0.5898   18.3210   21.7440 S   0  0  0  0  0  0  0  0  0  0  0  0
   -1.0704   17.3983   22.7328 O   0  0  0  0  0  0  0  0  0  0  0  0
    0.5672   18.0276   20.9667 O   0  0  0  0  0  0  0  0  0  0  0  0
   -0.3097   19.8061   22.5672 C   0  0  0  0  0  0  0  0  0  0  0  0
   -0.0302   19.7673   23.9511 C   0  0  0  0  0  0  0  0  0  0  0  0
    0.2236   20.9792   24.6604 C   0  0  0  0  0  0  0  0  0  0  0  0
   -0.0688   22.2246   22.5337 C   0  0  0  0  0  0  0  0  0  0  0  0
    0.2057   22.2222   23.9474 C   0  0  0  0  0  0  0  0  0  0  0  0
   -0.3174   21.0024   21.8652 C   0  0  0  0  0  0  0  0  0  0  0  0
    0.4573   23.4730   24.5904 C   0  0  0  0  0  0  0  0  0  0  0  0
    0.4320   24.7044   23.8345 C   0  0  0  0  0  0  0  0  0  0  0  0
    0.1553   24.6806   22.4508 C   0  0  0  0  0  0  0  0  0  0  0  0
   -0.0903   23.4525   21.8008 C   0  0  0  0  0  0  0  0  0  0  0  0
   -2.6319   17.7322   18.5775 C   0  0  0  0  0  0  0  0  0  0  0  0
   -1.9566   16.3915   18.2368 C   0  0  0  0  0  0  0  0  0  0  0  0
   -2.2564   15.7446   17.0224 C   0  0  0  0  0  0  0  0  0  0  0  0
   -1.0303   15.7945   19.1303 C   0  0  0  0  0  0  0  0  0  0  0  0
   -0.4205   14.5709   18.8079 C   0  0  0  0  0  0  0  0  0  0  0  0
   -0.7352   13.9343   17.5891 C   0  0  0  0  0  0  0  0  0  0  0  0
   -1.6581   14.5226   16.6903 C   0  0  0  0  0  0  0  0  0  0  0  0
   -1.9939   13.8504   15.3878 C   0  0  0  0  0  0  0  0  0  0  0  0
   -3.0042   14.2906   14.7008 N   0  0  0  0  0  0  0  0  0  0  0  0
   -1.2741   12.8347   14.9675 N   0  0  0  0  0  0  0  0  0  0  0  0
   -3.5308   15.0531   15.0334 H   0  0  0  0  0  0  0  0  0  0  0  0
   -3.2435   13.8619   13.8475 H   0  0  0  0  0  0  0  0  0  0  0  0
   -0.5120   12.5162   15.5033 H   0  0  0  0  0  0  0  0  0  0  0  0
 30 31  2  0  0  0
 30 32  1  0  0  0
 30 29  1  0  0  0
 31 35  1  0  0  0
 32 33  2  0  0  0
 33 34  1  0  0  0
 34 35  2  0  0  0
 35 36  1  0  0  0
 36 37  1  0  0  0
 36 38  2  0  0  0
 29  1  1  0  0  0
  1  2  1  0  0  0
  1 14  1  0  0  0
  2  3  2  0  0  0
  2  4  1  0  0  0
  4  5  1  0  0  0
  4  8  1  0  0  0
  5  6  1  0  0  0
  5 10  1  0  0  0
  6  9  1  0  0  0
  7  8  1  0  0  0
  7  9  1  0  0  0
 10 11  1  0  0  0
 10 12  2  0  0  0
 14 16  1  0  0  0
 16 17  2  0  0  0
 16 18  2  0  0  0
 16 19  1  0  0  0
 19 20  2  0  0  0
 19 24  1  0  0  0
 20 21  1  0  0  0
 21 23  2  0  0  0
 22 23  1  0  0  0
 22 24  2  0  0  0
 22 28  1  0  0  0
 23 25  1  0  0  0
 25 26  2  0  0  0
 26 27  1  0  0  0
 27 28  2  0  0  0
 37 39  1  0  0  0
 37 40  1  0  0  0
 38 41  1  0  0  0
 11 13  1  0  0  0
 14 15  1  0  0  0
M  END
> <minimizedAffinity>
-8.53596

$$$$
1K1I_FD1_A_999


 41 44  0  0  0  0  0  0  0  0999 V2000
    0.5674   19.2465   19.4458 C   0  0  0  0  0  0  0  0  0  0  0  0
    1.1722   19.9399   20.6568 C   0  0  0  0  0  0  0  0  0  0  0  0
    2.2811   20.4365   20.4548 O   0  0  0  0  0  0  0  0  0  0  0  0
    0.5356   20.0055   21.8717 N   0  0  0  0  0  0  0  0  0  0  0  0
   -0.8748   19.5387   22.0274 C   0  0  0  0  0  0  0  0  0  0  0  0
   -1.6467   20.7002   22.7011 C   0  0  0  0  0  0  0  0  0  0  0  0
    0.5985   21.4544   23.7805 C   0  0  0  0  0  0  0  0  0  0  0  0
    1.3189   20.2770   23.0965 C   0  0  0  0  0  0  0  0  0  0  0  0
   -0.8979   21.3799   23.7468 C   0  0  0  0  0  0  0  0  0  0  0  0
   -0.9601   18.2691   22.8385 C   0  0  0  0  0  0  0  0  0  0  0  0
   -1.5454   17.2446   22.3725 O   0  0  0  0  0  0  0  0  0  0  0  0
   -0.4270   18.2074   23.9965 O   0  0  0  0  0  0  0  0  0  0  0  0
   -1.9410   17.2766   21.5236 H   0  0  0  0  0  0  0  0  0  0  0  0
    1.2049   19.7179   18.2097 N   0  0  0  0  0  0  0  0  0  0  0  0
    1.3301   18.9018   17.6107 H   0  0  0  0  0  0  0  0  0  0  0  0
    0.4280   20.9164   17.2629 S   0  0  0  0  0  0  0  0  0  0  0  0
   -0.7486   20.3563   16.6614 O   0  0  0  0  0  0  0  0  0  0  0  0
    0.3704   22.1418   17.9869 O   0  0  0  0  0  0  0  0  0  0  0  0
    1.5736   21.1074   15.9929 C   0  0  0  0  0  0  0  0  0  0  0  0
    1.1408   21.6764   14.7748 C   0  0  0  0  0  0  0  0  0  0  0  0
    2.0691   21.8645   13.7074 C   0  0  0  0  0  0  0  0  0  0  0  0
    3.8483   20.9200   15.1570 C   0  0  0  0  0  0  0  0  0  0  0  0
    3.4376   21.4843   13.8974 C   0  0  0  0  0  0  0  0  0  0  0  0
    2.8983   20.7473   16.1915 C   0  0  0  0  0  0  0  0  0  0  0  0
    4.4230   21.6496   12.8761 C   0  0  0  0  0  0  0  0  0  0  0  0
    5.7936   21.2551   13.1087 C   0  0  0  0  0  0  0  0  0  0  0  0
    6.1699   20.6996   14.3503 C   0  0  0  0  0  0  0  0  0  0  0  0
    5.2089   20.5347   15.3703 C   0  0  0  0  0  0  0  0  0  0  0  0
    0.5390   17.7116   19.5275 C   0  0  0  0  0  0  0  0  0  0  0  0
   -0.5963   17.0696   18.7098 C   0  0  0  0  0  0  0  0  0  0  0  0
   -0.4057   15.8058   18.1184 C   0  0  0  0  0  0  0  0  0  0  0  0
   -1.8393   17.7329   18.5432 C   0  0  0  0  0  0  0  0  0  0  0  0
   -2.8677   17.1365   17.7951 C   0  0  0  0  0  0  0  0  0  0  0  0
   -2.6586   15.8719   17.2060 C   0  0  0  0  0  0  0  0  0  0  0  0
   -1.4216   15.2016   17.3672 C   0  0  0  0  0  0  0  0  0  0  0  0
   -1.1949   13.8515   16.7449 C   0  0  0  0  0  0  0  0  0  0  0  0
   -2.0055   13.4500   15.8131 N   0  0  0  0  0  0  0  0  0  0  0  0
   -0.1955   13.1006   17.1496 N   0  0  0  0  0  0  0  0  0  0  0  0
   -2.7482   14.0279   15.5242 H   0  0  0  0  0  0  0  0  0  0  0  0
   -1.8771   12.5677   15.3957 H   0  0  0  0  0  0  0  0  0  0  0  0
    0.4078   13.4235   17.8574 H   0  0  0  0  0  0  0  0  0  0  0  0
 30 31  2  0  0  0
 30 32  1  0  0  0
 30 29  1  0  0  0
 31 35  1  0  0  0
 32 33  2  0  0  0
 33 34  1  0  0  0
 34 35  2  0  0  0
 35 36  1  0  0  0
 36 37  1  0  0  0
 36 38  2  0  0  0
 29  1  1  0  0  0
  1  2  1  0  0  0
  1 14  1  0  0  0
  2  3  2  0  0  0
  2  4  1  0  0  0
  4  5  1  0  0  0
  4  8  1  0  0  0
  5  6  1  0  0  0
  5 10  1  0  0  0
  6  9  1  0  0  0
  7  8  1  0  0  0
  7  9  1  0  0  0
 10 11  1  0  0  0
 10 12  2  0  0  0
 14 16  1  0  0  0
 16 17  2  0  0  0
 16 18  2  0  0  0
 16 19  1  0  0  0
 19 20  2  0  0  0
 19 24  1  0  0  0
 20 21  1  0  0  0
 21 23  2  0  0  0
 22 23  1  0  0  0
 22 24  2  0  0  0
 22 28  1  0  0  0
 23 25  1  0  0  0
 25 26  2  0  0  0
 26 27  1  0  0  0
 27 28  2  0  0  0
 37 39  1  0  0  0
 37 40  1  0  0  0
 38 41  1  0  0  0
 11 13  1  0  0  0
 14 15  1  0  0  0
M  END
> <minimizedAffinity>
-8.39974

$$$$
1K1I_FD1_A_999


 41 44  0  0  0  0  0  0  0  0999 V2000
    1.0337   21.3545   19.7825 C   0  0  0  0  0  0  0  0  0  0  0  0
    1.4952   22.2386   20.9308 C   0  0  0  0  0  0  0  0  0  0  0  0
    0.5818   22.6784   21.6302 O   0  0  0  0  0  0  0  0  0  0  0  0
    2.8179   22.5222   21.1663 N   0  0  0  0  0  0  0  0  0  0  0  0
    3.9004   21.8359   20.3991 C   0  0  0  0  0  0  0  0  0  0  0  0
    4.8840   21.2636   21.4497 C   0  0  0  0  0  0  0  0  0  0  0  0
    4.1372   23.1661   23.0615 C   0  0  0  0  0  0  0  0  0  0  0  0
    3.1814   23.7031   21.9792 C   0  0  0  0  0  0  0  0  0  0  0  0
    5.1268   22.1503   22.5771 C   0  0  0  0  0  0  0  0  0  0  0  0
    4.5926   22.7748   19.4417 C   0  0  0  0  0  0  0  0  0  0  0  0
    5.8404   22.9842   19.5333 O   0  0  0  0  0  0  0  0  0  0  0  0
    3.9313   23.3545   18.5167 O   0  0  0  0  0  0  0  0  0  0  0  0
    6.3376   22.5649   20.2078 H   0  0  0  0  0  0  0  0  0  0  0  0
    0.1363   20.3001   20.2719 N   0  0  0  0  0  0  0  0  0  0  0  0
   -0.6175   20.2122   19.5903 H   0  0  0  0  0  0  0  0  0  0  0  0
    0.7525   18.7236   20.5392 S   0  0  0  0  0  0  0  0  0  0  0  0
    2.1427   18.6914   20.1835 O   0  0  0  0  0  0  0  0  0  0  0  0
    0.3060   18.2380   21.8017 O   0  0  0  0  0  0  0  0  0  0  0  0
   -0.0785   17.8474   19.3131 C   0  0  0  0  0  0  0  0  0  0  0  0
   -0.7502   18.5726   18.3042 C   0  0  0  0  0  0  0  0  0  0  0  0
   -1.4345   17.8769   17.2631 C   0  0  0  0  0  0  0  0  0  0  0  0
   -0.7087   15.7359   18.2871 C   0  0  0  0  0  0  0  0  0  0  0  0
   -1.4150   16.4440   17.2510 C   0  0  0  0  0  0  0  0  0  0  0  0
   -0.0430   16.4609   19.3039 C   0  0  0  0  0  0  0  0  0  0  0  0
   -2.0720   15.6817   16.2369 C   0  0  0  0  0  0  0  0  0  0  0  0
   -2.0264   14.2375   16.2596 C   0  0  0  0  0  0  0  0  0  0  0  0
   -1.3318   13.5669   17.2890 C   0  0  0  0  0  0  0  0  0  0  0  0
   -0.6738   14.3063   18.2948 C   0  0  0  0  0  0  0  0  0  0  0  0
    0.4324   22.1103   18.5865 C   0  0  0  0  0  0  0  0  0  0  0  0
    0.9267   21.6005   17.2207 C   0  0  0  0  0  0  0  0  0  0  0  0
    0.1670   21.8524   16.0620 C   0  0  0  0  0  0  0  0  0  0  0  0
    2.1432   20.8790   17.1091 C   0  0  0  0  0  0  0  0  0  0  0  0
    2.5838   20.4193   15.8571 C   0  0  0  0  0  0  0  0  0  0  0  0
    1.8086   20.6768   14.7071 C   0  0  0  0  0  0  0  0  0  0  0  0
    0.5932   21.3968   14.8081 C   0  0  0  0  0  0  0  0  0  0  0  0
   -0.2350   21.6776   13.5848 C   0  0  0  0  0  0  0  0  0  0  0  0
   -1.5262   21.7425   13.7069 N   0  0  0  0  0  0  0  0  0  0  0  0
    0.3493   21.8465   12.4200 N   0  0  0  0  0  0  0  0  0  0  0  0
   -1.9443   21.6130   14.5887 H   0  0  0  0  0  0  0  0  0  0  0  0
   -2.0869   21.9211   12.9177 H   0  0  0  0  0  0  0  0  0  0  0  0
    1.3297   21.7934   12.3488 H   0  0  0  0  0  0  0  0  0  0  0  0
 30 31  2  0  0  0
 30 32  1  0  0  0
 30 29  1  0  0  0
 31 35  1  0  0  0
 32 33  2  0  0  0
 33 34  1  0  0  0
 34 35  2  0  0  0
 35 36  1  0  0  0
 36 37  1  0  0  0
 36 38  2  0  0  0
 29  1  1  0  0  0
  1  2  1  0  0  0
  1 14  1  0  0  0
  2  3  2  0  0  0
  2  4  1  0  0  0
  4  5  1  0  0  0
  4  8  1  0  0  0
  5  6  1  0  0  0
  5 10  1  0  0  0
  6  9  1  0  0  0
  7  8  1  0  0  0
  7  9  1  0  0  0
 10 11  1  0  0  0
 10 12  2  0  0  0
 14 16  1  0  0  0
 16 17  2  0  0  0
 16 18  2  0  0  0
 16 19  1  0  0  0
 19 20  2  0  0  0
 19 24  1  0  0  0
 20 21  1  0  0  0
 21 23  2  0  0  0
 22 23  1  0  0  0
 22 24  2  0  0  0
 22 28  1  0  0  0
 23 25  1  0  0  0
 25 26  2  0  0  0
 26 27  1  0  0  0
 27 28  2  0  0  0
 37 39  1  0  0  0
 37 40  1  0  0  0
 38 41  1  0  0  0
 11 13  1  0  0  0
 14 15  1  0  0  0
M  END
> <minimizedAffinity>
-8.38285

$$$$
1K1I_FD1_A_999


 41 44  0  0  0  0  0  0  0  0999 V2000
    0.9190   19.4261   19.6398 C   0  0  0  0  0  0  0  0  0  0  0  0
    0.5102   18.4597   20.7408 C   0  0  0  0  0  0  0  0  0  0  0  0
    0.7873   17.2821   20.5098 O   0  0  0  0  0  0  0  0  0  0  0  0
   -0.1153   18.8666   21.8935 N   0  0  0  0  0  0  0  0  0  0  0  0
   -0.2814   20.3174   22.2079 C   0  0  0  0  0  0  0  0  0  0  0  0
    0.2731   20.5196   23.6398 C   0  0  0  0  0  0  0  0  0  0  0  0
   -0.3263   18.0350   24.1320 C   0  0  0  0  0  0  0  0  0  0  0  0
   -0.8756   17.8875   22.7003 C   0  0  0  0  0  0  0  0  0  0  0  0
   -0.0654   19.4467   24.5620 C   0  0  0  0  0  0  0  0  0  0  0  0
   -1.7220   20.7541   22.1017 C   0  0  0  0  0  0  0  0  0  0  0  0
   -2.4251   20.9155   23.1453 O   0  0  0  0  0  0  0  0  0  0  0  0
   -2.2430   20.9838   20.9595 O   0  0  0  0  0  0  0  0  0  0  0  0
   -2.0547   20.7503   23.9899 H   0  0  0  0  0  0  0  0  0  0  0  0
    2.2902   19.9051   19.8569 N   0  0  0  0  0  0  0  0  0  0  0  0
    2.8529   19.5549   19.0816 H   0  0  0  0  0  0  0  0  0  0  0  0
    2.5887   21.5888   19.9687 S   0  0  0  0  0  0  0  0  0  0  0  0
    1.3748   22.3045   19.6966 O   0  0  0  0  0  0  0  0  0  0  0  0
    3.3595   21.8664   21.1339 O   0  0  0  0  0  0  0  0  0  0  0  0
    3.6025   21.8215   18.5977 C   0  0  0  0  0  0  0  0  0  0  0  0
    4.8786   22.3947   18.7926 C   0  0  0  0  0  0  0  0  0  0  0  0
    5.7508   22.5857   17.6795 C   0  0  0  0  0  0  0  0  0  0  0  0
    4.0174   21.5810   16.2148 C   0  0  0  0  0  0  0  0  0  0  0  0
    5.3193   22.1751   16.3760 C   0  0  0  0  0  0  0  0  0  0  0  0
    3.1800   21.4094   17.3425 C   0  0  0  0  0  0  0  0  0  0  0  0
    6.1414   22.3292   15.2178 C   0  0  0  0  0  0  0  0  0  0  0  0
    5.6695   21.8999   13.9211 C   0  0  0  0  0  0  0  0  0  0  0  0
    4.3873   21.3252   13.7886 C   0  0  0  0  0  0  0  0  0  0  0  0
    3.5658   21.1620   14.9242 C   0  0  0  0  0  0  0  0  0  0  0  0
    0.7146   18.9003   18.2098 C   0  0  0  0  0  0  0  0  0  0  0  0
   -0.6716   18.2741   17.9732 C   0  0  0  0  0  0  0  0  0  0  0  0
   -0.7719   16.9411   17.5302 C   0  0  0  0  0  0  0  0  0  0  0  0
   -1.8565   19.0213   18.1977 C   0  0  0  0  0  0  0  0  0  0  0  0
   -3.1156   18.4386   17.9785 C   0  0  0  0  0  0  0  0  0  0  0  0
   -3.1980   17.1035   17.5307 C   0  0  0  0  0  0  0  0  0  0  0  0
   -2.0210   16.3492   17.3045 C   0  0  0  0  0  0  0  0  0  0  0  0
   -2.1032   14.9243   16.8312 C   0  0  0  0  0  0  0  0  0  0  0  0
   -2.7109   14.6729   15.7114 N   0  0  0  0  0  0  0  0  0  0  0  0
   -1.5711   13.9612   17.5495 N   0  0  0  0  0  0  0  0  0  0  0  0
   -3.1029   15.4089   15.1880 H   0  0  0  0  0  0  0  0  0  0  0  0
   -2.7795   13.7464   15.3858 H   0  0  0  0  0  0  0  0  0  0  0  0
   -1.1147   14.1729   18.3957 H   0  0  0  0  0  0  0  0  0  0  0  0
 30 31  2  0  0  0
 30 32  1  0  0  0
 30 29  1  0  0  0
 31 35  1  0  0  0
 32 33  2  0  0  0
 33 34  1  0  0  0
 34 35  2  0  0  0
 35 36  1  0  0  0
 36 37  1  0  0  0
 36 38  2  0  0  0
 29  1  1  0  0  0
  1  2  1  0  0  0
  1 14  1  0  0  0
  2  3  2  0  0  0
  2  4  1  0  0  0
  4  5  1  0  0  0
  4  8  1  0  0  0
  5  6  1  0  0  0
  5 10  1  0  0  0
  6  9  1  0  0  0
  7  8  1  0  0  0
  7  9  1  0  0  0
 10 11  1  0  0  0
 10 12  2  0  0  0
 14 16  1  0  0  0
 16 17  2  0  0  0
 16 18  2  0  0  0
 16 19  1  0  0  0
 19 20  2  0  0  0
 19 24  1  0  0  0
 20 21  1  0  0  0
 21 23  2  0  0  0
 22 23  1  0  0  0
 22 24  2  0  0  0
 22 28  1  0  0  0
 23 25  1  0  0  0
 25 26  2  0  0  0
 26 27  1  0  0  0
 27 28  2  0  0  0
 37 39  1  0  0  0
 37 40  1  0  0  0
 38 41  1  0  0  0
 11 13  1  0  0  0
 14 15  1  0  0  0
M  END
> <minimizedAffinity>
-8.37365

$$$$
1K1I_FD1_A_999


 41 44  0  0  0  0  0  0  0  0999 V2000
    1.2566   19.1814   20.4122 C   0  0  0  0  0  0  0  0  0  0  0  0
    0.3920   18.0736   19.8306 C   0  0  0  0  0  0  0  0  0  0  0  0
    0.5912   16.9632   20.3250 O   0  0  0  0  0  0  0  0  0  0  0  0
   -0.5313   18.2936   18.8384 N   0  0  0  0  0  0  0  0  0  0  0  0
   -0.8592   19.6789   18.3860 C   0  0  0  0  0  0  0  0  0  0  0  0
   -2.4014   19.8057   18.4522 C   0  0  0  0  0  0  0  0  0  0  0  0
   -2.5445   17.2330   18.0841 C   0  0  0  0  0  0  0  0  0  0  0  0
   -1.0072   17.1608   18.0150 C   0  0  0  0  0  0  0  0  0  0  0  0
   -3.1122   18.6177   18.0054 C   0  0  0  0  0  0  0  0  0  0  0  0
   -0.3370   19.9549   16.9973 C   0  0  0  0  0  0  0  0  0  0  0  0
    0.7220   19.3923   16.5833 O   0  0  0  0  0  0  0  0  0  0  0  0
   -0.9670   20.7447   16.2173 O   0  0  0  0  0  0  0  0  0  0  0  0
    1.1940   18.8103   17.1458 H   0  0  0  0  0  0  0  0  0  0  0  0
    1.0651   19.2762   21.8651 N   0  0  0  0  0  0  0  0  0  0  0  0
    1.9682   19.5273   22.2675 H   0  0  0  0  0  0  0  0  0  0  0  0
   -0.0851   20.3793   22.4951 S   0  0  0  0  0  0  0  0  0  0  0  0
   -1.3106   20.2588   21.7577 O   0  0  0  0  0  0  0  0  0  0  0  0
   -0.0761   20.3263   23.9184 O   0  0  0  0  0  0  0  0  0  0  0  0
    0.6184   21.8758   22.0184 C   0  0  0  0  0  0  0  0  0  0  0  0
    1.5592   22.4829   22.8794 C   0  0  0  0  0  0  0  0  0  0  0  0
    2.1741   23.7153   22.5063 C   0  0  0  0  0  0  0  0  0  0  0  0
    0.8826   23.6590   20.3878 C   0  0  0  0  0  0  0  0  0  0  0  0
    1.8353   24.3118   21.2481 C   0  0  0  0  0  0  0  0  0  0  0  0
    0.2926   22.4383   20.7931 C   0  0  0  0  0  0  0  0  0  0  0  0
    2.4158   25.5402   20.8065 C   0  0  0  0  0  0  0  0  0  0  0  0
    2.0486   26.1076   19.5291 C   0  0  0  0  0  0  0  0  0  0  0  0
    1.1084   25.4509   18.7065 C   0  0  0  0  0  0  0  0  0  0  0  0
    0.5301   24.2344   19.1269 C   0  0  0  0  0  0  0  0  0  0  0  0
    2.7446   19.1061   20.0333 C   0  0  0  0  0  0  0  0  0  0  0  0
    3.3837   20.4796   19.7603 C   0  0  0  0  0  0  0  0  0  0  0  0
    4.2728   21.0377   20.6990 C   0  0  0  0  0  0  0  0  0  0  0  0
    3.0920   21.1954   18.5707 C   0  0  0  0  0  0  0  0  0  0  0  0
    3.6818   22.4478   18.3328 C   0  0  0  0  0  0  0  0  0  0  0  0
    4.5670   22.9942   19.2856 C   0  0  0  0  0  0  0  0  0  0  0  0
    4.8651   22.2871   20.4758 C   0  0  0  0  0  0  0  0  0  0  0  0
    5.8112   22.8630   21.4928 C   0  0  0  0  0  0  0  0  0  0  0  0
    6.7401   22.0997   21.9834 N   0  0  0  0  0  0  0  0  0  0  0  0
    5.6856   24.1146   21.8729 N   0  0  0  0  0  0  0  0  0  0  0  0
    6.8173   21.1646   21.6853 H   0  0  0  0  0  0  0  0  0  0  0  0
    7.3672   22.4560   22.6535 H   0  0  0  0  0  0  0  0  0  0  0  0
    4.9745   24.6767   21.4887 H   0  0  0  0  0  0  0  0  0  0  0  0
 30 31  2  0  0  0
 30 32  1  0  0  0
 30 29  1  0  0  0
 31 35  1  0  0  0
 32 33  2  0  0  0
 33 34  1  0  0  0
 34 35  2  0  0  0
 35 36  1  0  0  0
 36 37  1  0  0  0
 36 38  2  0  0  0
 29  1  1  0  0  0
  1  2  1  0  0  0
  1 14  1  0  0  0
  2  3  2  0  0  0
  2  4  1  0  0  0
  4  5  1  0  0  0
  4  8  1  0  0  0
  5  6  1  0  0  0
  5 10  1  0  0  0
  6  9  1  0  0  0
  7  8  1  0  0  0
  7  9  1  0  0  0
 10 11  1  0  0  0
 10 12  2  0  0  0
 14 16  1  0  0  0
 16 17  2  0  0  0
 16 18  2  0  0  0
 16 19  1  0  0  0
 19 20  2  0  0  0
 19 24  1  0  0  0
 20 21  1  0  0  0
 21 23  2  0  0  0
 22 23  1  0  0  0
 22 24  2  0  0  0
 22 28  1  0  0  0
 23 25  1  0  0  0
 25 26  2  0  0  0
 26 27  1  0  0  0
 27 28  2  0  0  0
 37 39  1  0  0  0
 37 40  1  0  0  0
 38 41  1  0  0  0
 11 13  1  0  0  0
 14 15  1  0  0  0
M  END
> <minimizedAffinity>
-8.27675

$$$$
