3EKR_PY9_A_901


 24 26  0  0  0  0  0  0  0  0999 V2000
   16.9915   -3.5643   51.2124 N   0  0  0  0  0  0  0  0  0  0  0  0
   16.6594   -2.9979   49.9517 C   0  0  0  0  0  0  0  0  0  0  0  0
   16.7661   -3.0325   52.5959 C   0  0  0  0  0  0  0  0  0  0  0  0
   17.8846   -5.1854   52.7372 C   0  0  0  0  0  0  0  0  0  0  0  0
   17.7824   -3.8291   53.4311 C   0  0  0  0  0  0  0  0  0  0  0  0
   17.6725   -4.8647   51.2628 C   0  0  0  0  0  0  0  0  0  0  0  0
   16.9069   -3.5257   48.8642 O   0  0  0  0  0  0  0  0  0  0  0  0
   14.7087    0.8649   49.8360 C   0  0  0  0  0  0  0  0  0  0  0  0
   16.0921    0.7654   49.5323 C   0  0  0  0  0  0  0  0  0  0  0  0
   16.7247   -0.5080   49.5674 C   0  0  0  0  0  0  0  0  0  0  0  0
   14.5872   -1.5535   50.1999 C   0  0  0  0  0  0  0  0  0  0  0  0
   13.9519   -0.2854   50.1678 C   0  0  0  0  0  0  0  0  0  0  0  0
   15.9811   -1.6712   49.9033 C   0  0  0  0  0  0  0  0  0  0  0  0
   14.0747    2.0677   49.8224 O   0  0  0  0  0  0  0  0  0  0  0  0
   18.0528   -0.5490   49.2703 O   0  0  0  0  0  0  0  0  0  0  0  0
   14.5504    2.8456   49.6065 H   0  0  0  0  0  0  0  0  0  0  0  0
   18.5090    0.2402   49.0535 H   0  0  0  0  0  0  0  0  0  0  0  0
   14.3925   -4.1294   52.6808 C   0  0  0  0  0  0  0  0  0  0  0  0
   12.6214   -3.3141   54.1716 C   0  0  0  0  0  0  0  0  0  0  0  0
   14.8388   -2.1974   54.1783 C   0  0  0  0  0  0  0  0  0  0  0  0
   13.0661   -4.2181   53.1829 C   0  0  0  0  0  0  0  0  0  0  0  0
   13.4955   -2.3150   54.6644 C   0  0  0  0  0  0  0  0  0  0  0  0
   15.3165   -3.1261   53.1568 C   0  0  0  0  0  0  0  0  0  0  0  0
   15.7011   -1.0957   54.7633 C   0  0  0  0  0  0  0  0  0  0  0  0
  2  1  1  0  0  0
  1  6  1  0  0  0
  1  3  1  0  0  0
  9  8  2  0  0  0
 14  8  1  0  0  0
  8 12  1  0  0  0
  9 10  1  0  0  0
 15 10  1  0  0  0
 10 13  2  0  0  0
  7  2  2  0  0  0
 13  2  1  0  0  0
  3 23  1  0  0  0
  3  5  1  0  0  0
  6  4  1  0  0  0
  4  5  1  0  0  0
 18 23  2  0  0  0
 18 21  1  0  0  0
 21 19  2  0  0  0
 19 22  1  0  0  0
 23 20  1  0  0  0
 20 22  2  0  0  0
 20 24  1  0  0  0
 13 11  1  0  0  0
 12 11  2  0  0  0
 14 16  1  0  0  0
 15 17  1  0  0  0
M  END
> <minimizedAffinity>
-8.95436

$$$$
3EKR_PY9_A_901


 24 26  0  0  0  0  0  0  0  0999 V2000
   15.2504   -1.0028   50.3366 N   0  0  0  0  0  0  0  0  0  0  0  0
   16.6164   -1.2658   50.6286 C   0  0  0  0  0  0  0  0  0  0  0  0
   14.0341   -1.8438   50.5839 C   0  0  0  0  0  0  0  0  0  0  0  0
   13.3683    0.2322   49.5099 C   0  0  0  0  0  0  0  0  0  0  0  0
   13.0102   -1.2493   49.6025 C   0  0  0  0  0  0  0  0  0  0  0  0
   14.8821    0.2592   49.6817 C   0  0  0  0  0  0  0  0  0  0  0  0
   17.5452   -0.4970   50.3660 O   0  0  0  0  0  0  0  0  0  0  0  0
   17.6695   -5.0192   52.5108 C   0  0  0  0  0  0  0  0  0  0  0  0
   17.5297   -4.9542   51.0994 C   0  0  0  0  0  0  0  0  0  0  0  0
   17.1886   -3.7162   50.4878 C   0  0  0  0  0  0  0  0  0  0  0  0
   17.1402   -2.6359   52.6999 C   0  0  0  0  0  0  0  0  0  0  0  0
   17.4788   -3.8688   53.3147 C   0  0  0  0  0  0  0  0  0  0  0  0
   16.9888   -2.5539   51.2803 C   0  0  0  0  0  0  0  0  0  0  0  0
   17.9841   -6.1887   53.1290 O   0  0  0  0  0  0  0  0  0  0  0  0
   17.0646   -3.7075   49.1320 O   0  0  0  0  0  0  0  0  0  0  0  0
   18.1160   -6.9657   52.6223 H   0  0  0  0  0  0  0  0  0  0  0  0
   17.2043   -4.4950   48.6438 H   0  0  0  0  0  0  0  0  0  0  0  0
   13.0321   -0.7144   52.7204 C   0  0  0  0  0  0  0  0  0  0  0  0
   12.5328   -1.9797   54.7634 C   0  0  0  0  0  0  0  0  0  0  0  0
   13.4791   -3.1576   52.7933 C   0  0  0  0  0  0  0  0  0  0  0  0
   12.5541   -0.7572   54.0579 C   0  0  0  0  0  0  0  0  0  0  0  0
   12.9895   -3.1666   54.1405 C   0  0  0  0  0  0  0  0  0  0  0  0
   13.5060   -1.9017   52.0476 C   0  0  0  0  0  0  0  0  0  0  0  0
   13.9491   -4.4763   52.2105 C   0  0  0  0  0  0  0  0  0  0  0  0
  2  1  1  0  0  0
  1  6  1  0  0  0
  1  3  1  0  0  0
  9  8  2  0  0  0
 14  8  1  0  0  0
  8 12  1  0  0  0
  9 10  1  0  0  0
 15 10  1  0  0  0
 10 13  2  0  0  0
  7  2  2  0  0  0
 13  2  1  0  0  0
  3 23  1  0  0  0
  3  5  1  0  0  0
  6  4  1  0  0  0
  4  5  1  0  0  0
 18 23  2  0  0  0
 18 21  1  0  0  0
 21 19  2  0  0  0
 19 22  1  0  0  0
 23 20  1  0  0  0
 20 22  2  0  0  0
 20 24  1  0  0  0
 13 11  1  0  0  0
 12 11  2  0  0  0
 14 16  1  0  0  0
 15 17  1  0  0  0
M  END
> <minimizedAffinity>
-8.36129

$$$$
3EKR_PY9_A_901


 24 26  0  0  0  0  0  0  0  0999 V2000
   16.6557   -3.4609   51.8935 N   0  0  0  0  0  0  0  0  0  0  0  0
   16.2026   -3.3232   53.2337 C   0  0  0  0  0  0  0  0  0  0  0  0
   15.9612   -3.1378   50.6047 C   0  0  0  0  0  0  0  0  0  0  0  0
   18.1720   -4.0247   50.1232 C   0  0  0  0  0  0  0  0  0  0  0  0
   16.7451   -3.9769   49.5818 C   0  0  0  0  0  0  0  0  0  0  0  0
   17.9953   -4.0057   51.6366 C   0  0  0  0  0  0  0  0  0  0  0  0
   16.8632   -3.6363   54.2278 O   0  0  0  0  0  0  0  0  0  0  0  0
   12.2287   -1.7628   53.9496 C   0  0  0  0  0  0  0  0  0  0  0  0
   12.4019   -3.1418   53.6596 C   0  0  0  0  0  0  0  0  0  0  0  0
   13.7112   -3.6481   53.4307 C   0  0  0  0  0  0  0  0  0  0  0  0
   14.6449   -1.3984   53.7907 C   0  0  0  0  0  0  0  0  0  0  0  0
   13.3408   -0.8884   54.0183 C   0  0  0  0  0  0  0  0  0  0  0  0
   14.8370   -2.7833   53.4909 C   0  0  0  0  0  0  0  0  0  0  0  0
   10.9903   -1.2434   54.1630 O   0  0  0  0  0  0  0  0  0  0  0  0
   13.8230   -4.9766   53.1547 O   0  0  0  0  0  0  0  0  0  0  0  0
   10.2364   -1.7985   54.1238 H   0  0  0  0  0  0  0  0  0  0  0  0
   13.0566   -5.5148   53.1238 H   0  0  0  0  0  0  0  0  0  0  0  0
   17.0632   -0.8510   49.9719 C   0  0  0  0  0  0  0  0  0  0  0  0
   15.7373    1.1586   49.4950 C   0  0  0  0  0  0  0  0  0  0  0  0
   14.5833   -0.9599   50.0816 C   0  0  0  0  0  0  0  0  0  0  0  0
   16.9919    0.5237   49.6193 C   0  0  0  0  0  0  0  0  0  0  0  0
   14.5463    0.4274   49.7231 C   0  0  0  0  0  0  0  0  0  0  0  0
   15.8729   -1.6335   50.2124 C   0  0  0  0  0  0  0  0  0  0  0  0
   13.2573   -1.6599   50.3083 C   0  0  0  0  0  0  0  0  0  0  0  0
  2  1  1  0  0  0
  1  6  1  0  0  0
  1  3  1  0  0  0
  9  8  2  0  0  0
 14  8  1  0  0  0
  8 12  1  0  0  0
  9 10  1  0  0  0
 15 10  1  0  0  0
 10 13  2  0  0  0
  7  2  2  0  0  0
 13  2  1  0  0  0
  3 23  1  0  0  0
  3  5  1  0  0  0
  6  4  1  0  0  0
  4  5  1  0  0  0
 18 23  2  0  0  0
 18 21  1  0  0  0
 21 19  2  0  0  0
 19 22  1  0  0  0
 23 20  1  0  0  0
 20 22  2  0  0  0
 20 24  1  0  0  0
 13 11  1  0  0  0
 12 11  2  0  0  0
 14 16  1  0  0  0
 15 17  1  0  0  0
M  END
> <minimizedAffinity>
-7.40181

$$$$
3EKR_PY9_A_901


 24 26  0  0  0  0  0  0  0  0999 V2000
   16.7682   -3.7939   53.3696 N   0  0  0  0  0  0  0  0  0  0  0  0
   16.4713   -3.3474   54.6860 C   0  0  0  0  0  0  0  0  0  0  0  0
   15.9167   -3.7858   52.1355 C   0  0  0  0  0  0  0  0  0  0  0  0
   18.0838   -4.7507   51.6077 C   0  0  0  0  0  0  0  0  0  0  0  0
   16.6024   -4.8380   51.2481 C   0  0  0  0  0  0  0  0  0  0  0  0
   18.0856   -4.3776   53.0850 C   0  0  0  0  0  0  0  0  0  0  0  0
   17.2541   -3.4152   55.6374 O   0  0  0  0  0  0  0  0  0  0  0  0
   12.5826   -1.6551   55.5541 C   0  0  0  0  0  0  0  0  0  0  0  0
   13.6996   -0.7972   55.3743 C   0  0  0  0  0  0  0  0  0  0  0  0
   14.9730   -1.3604   55.0842 C   0  0  0  0  0  0  0  0  0  0  0  0
   13.9912   -3.6174   55.1526 C   0  0  0  0  0  0  0  0  0  0  0  0
   12.7193   -3.0605   55.4437 C   0  0  0  0  0  0  0  0  0  0  0  0
   15.1283   -2.7686   54.9751 C   0  0  0  0  0  0  0  0  0  0  0  0
   11.3533   -1.1510   55.8431 O   0  0  0  0  0  0  0  0  0  0  0  0
   16.0117   -0.4951   54.9229 O   0  0  0  0  0  0  0  0  0  0  0  0
   11.2334   -0.2250   55.9221 H   0  0  0  0  0  0  0  0  0  0  0  0
   15.8694    0.4276   55.0026 H   0  0  0  0  0  0  0  0  0  0  0  0
   16.8668   -1.6790   50.9096 C   0  0  0  0  0  0  0  0  0  0  0  0
   15.4214    0.1292   50.0941 C   0  0  0  0  0  0  0  0  0  0  0  0
   14.4086   -1.8260   51.2409 C   0  0  0  0  0  0  0  0  0  0  0  0
   16.7089   -0.4257   50.2588 C   0  0  0  0  0  0  0  0  0  0  0  0
   14.2838   -0.5609   50.5787 C   0  0  0  0  0  0  0  0  0  0  0  0
   15.7332   -2.4162   51.4179 C   0  0  0  0  0  0  0  0  0  0  0  0
   13.1351   -2.4898   51.7279 C   0  0  0  0  0  0  0  0  0  0  0  0
  2  1  1  0  0  0
  1  6  1  0  0  0
  1  3  1  0  0  0
  9  8  2  0  0  0
 14  8  1  0  0  0
  8 12  1  0  0  0
  9 10  1  0  0  0
 15 10  1  0  0  0
 10 13  2  0  0  0
  7  2  2  0  0  0
 13  2  1  0  0  0
  3 23  1  0  0  0
  3  5  1  0  0  0
  6  4  1  0  0  0
  4  5  1  0  0  0
 18 23  2  0  0  0
 18 21  1  0  0  0
 21 19  2  0  0  0
 19 22  1  0  0  0
 23 20  1  0  0  0
 20 22  2  0  0  0
 20 24  1  0  0  0
 13 11  1  0  0  0
 12 11  2  0  0  0
 14 16  1  0  0  0
 15 17  1  0  0  0
M  END
> <minimizedAffinity>
-7.32337

$$$$
3EKR_PY9_A_901


 24 26  0  0  0  0  0  0  0  0999 V2000
   15.0286   -1.4439   50.5570 N   0  0  0  0  0  0  0  0  0  0  0  0
   13.6881   -1.8370   50.8200 C   0  0  0  0  0  0  0  0  0  0  0  0
   16.2245   -1.4365   51.4612 C   0  0  0  0  0  0  0  0  0  0  0  0
   16.8723   -0.6121   49.2688 C   0  0  0  0  0  0  0  0  0  0  0  0
   17.1709   -0.4497   50.7574 C   0  0  0  0  0  0  0  0  0  0  0  0
   15.3860   -0.9446   49.2228 C   0  0  0  0  0  0  0  0  0  0  0  0
   12.7733   -1.7885   49.9934 O   0  0  0  0  0  0  0  0  0  0  0  0
   12.6577   -3.2491   54.7803 C   0  0  0  0  0  0  0  0  0  0  0  0
   12.4777   -1.8794   54.4522 C   0  0  0  0  0  0  0  0  0  0  0  0
   12.8137   -1.4241   53.1474 C   0  0  0  0  0  0  0  0  0  0  0  0
   13.4939   -3.7071   52.5249 C   0  0  0  0  0  0  0  0  0  0  0  0
   13.1617   -4.1658   53.8256 C   0  0  0  0  0  0  0  0  0  0  0  0
   13.3252   -2.3298   52.1794 C   0  0  0  0  0  0  0  0  0  0  0  0
   12.3569   -3.7160   56.0214 O   0  0  0  0  0  0  0  0  0  0  0  0
   12.6244   -0.1017   52.8841 O   0  0  0  0  0  0  0  0  0  0  0  0
   12.0219   -3.1321   56.6732 H   0  0  0  0  0  0  0  0  0  0  0  0
   12.2848    0.4644   53.5490 H   0  0  0  0  0  0  0  0  0  0  0  0
   16.9113   -3.8616   50.7601 C   0  0  0  0  0  0  0  0  0  0  0  0
   18.1153   -5.3745   52.2719 C   0  0  0  0  0  0  0  0  0  0  0  0
   17.5178   -3.0916   53.0434 C   0  0  0  0  0  0  0  0  0  0  0  0
   17.5139   -5.1220   51.0200 C   0  0  0  0  0  0  0  0  0  0  0  0
   18.1181   -4.3729   53.2728 C   0  0  0  0  0  0  0  0  0  0  0  0
   16.8930   -2.8122   51.7528 C   0  0  0  0  0  0  0  0  0  0  0  0
   17.5673   -2.0828   54.1745 C   0  0  0  0  0  0  0  0  0  0  0  0
  2  1  1  0  0  0
  1  6  1  0  0  0
  1  3  1  0  0  0
  9  8  2  0  0  0
 14  8  1  0  0  0
  8 12  1  0  0  0
  9 10  1  0  0  0
 15 10  1  0  0  0
 10 13  2  0  0  0
  7  2  2  0  0  0
 13  2  1  0  0  0
  3 23  1  0  0  0
  3  5  1  0  0  0
  6  4  1  0  0  0
  4  5  1  0  0  0
 18 23  2  0  0  0
 18 21  1  0  0  0
 21 19  2  0  0  0
 19 22  1  0  0  0
 23 20  1  0  0  0
 20 22  2  0  0  0
 20 24  1  0  0  0
 13 11  1  0  0  0
 12 11  2  0  0  0
 14 16  1  0  0  0
 15 17  1  0  0  0
M  END
> <minimizedAffinity>
-7.10011

$$$$
3EKR_PY9_A_901


 24 26  0  0  0  0  0  0  0  0999 V2000
   17.0743   -3.2829   51.2824 N   0  0  0  0  0  0  0  0  0  0  0  0
   16.6982   -2.7780   50.0080 C   0  0  0  0  0  0  0  0  0  0  0  0
   17.0812   -2.6081   52.6212 C   0  0  0  0  0  0  0  0  0  0  0  0
   17.8712   -4.8928   52.8711 C   0  0  0  0  0  0  0  0  0  0  0  0
   18.0495   -3.4844   53.4333 C   0  0  0  0  0  0  0  0  0  0  0  0
   17.5530   -4.6666   51.3982 C   0  0  0  0  0  0  0  0  0  0  0  0
   16.7454   -3.4277   48.9600 O   0  0  0  0  0  0  0  0  0  0  0  0
   15.3107    1.3062   49.6427 C   0  0  0  0  0  0  0  0  0  0  0  0
   14.3824    0.2700   49.9263 C   0  0  0  0  0  0  0  0  0  0  0  0
   14.8467   -1.0687   50.0500 C   0  0  0  0  0  0  0  0  0  0  0  0
   17.1484   -0.3118   49.6123 C   0  0  0  0  0  0  0  0  0  0  0  0
   16.6899    1.0249   49.4865 C   0  0  0  0  0  0  0  0  0  0  0  0
   16.2264   -1.3687   49.8912 C   0  0  0  0  0  0  0  0  0  0  0  0
   14.8996    2.5952   49.5072 O   0  0  0  0  0  0  0  0  0  0  0  0
   13.9164   -2.0253   50.3205 O   0  0  0  0  0  0  0  0  0  0  0  0
   13.9929    2.8106   49.6053 H   0  0  0  0  0  0  0  0  0  0  0  0
   13.0152   -1.7880   50.4184 H   0  0  0  0  0  0  0  0  0  0  0  0
   15.4043   -1.2307   54.0822 C   0  0  0  0  0  0  0  0  0  0  0  0
   13.1601   -2.0558   54.6360 C   0  0  0  0  0  0  0  0  0  0  0  0
   14.6666   -3.4479   53.2374 C   0  0  0  0  0  0  0  0  0  0  0  0
   14.1511   -1.0549   54.7287 C   0  0  0  0  0  0  0  0  0  0  0  0
   13.4129   -3.2388   53.8999 C   0  0  0  0  0  0  0  0  0  0  0  0
   15.7027   -2.4215   53.3207 C   0  0  0  0  0  0  0  0  0  0  0  0
   14.8474   -4.7462   52.4748 C   0  0  0  0  0  0  0  0  0  0  0  0
  2  1  1  0  0  0
  1  6  1  0  0  0
  1  3  1  0  0  0
  9  8  2  0  0  0
 14  8  1  0  0  0
  8 12  1  0  0  0
  9 10  1  0  0  0
 15 10  1  0  0  0
 10 13  2  0  0  0
  7  2  2  0  0  0
 13  2  1  0  0  0
  3 23  1  0  0  0
  3  5  1  0  0  0
  6  4  1  0  0  0
  4  5  1  0  0  0
 18 23  2  0  0  0
 18 21  1  0  0  0
 21 19  2  0  0  0
 19 22  1  0  0  0
 23 20  1  0  0  0
 20 22  2  0  0  0
 20 24  1  0  0  0
 13 11  1  0  0  0
 12 11  2  0  0  0
 14 16  1  0  0  0
 15 17  1  0  0  0
M  END
> <minimizedAffinity>
-6.92139

$$$$
3EKR_PY9_A_901


 24 26  0  0  0  0  0  0  0  0999 V2000
   14.8559   -1.0406   51.2089 N   0  0  0  0  0  0  0  0  0  0  0  0
   13.6921   -1.2968   51.9838 C   0  0  0  0  0  0  0  0  0  0  0  0
   16.3039   -1.1443   51.5837 C   0  0  0  0  0  0  0  0  0  0  0  0
   16.1245   -0.4060   49.2753 C   0  0  0  0  0  0  0  0  0  0  0  0
   16.9880   -0.2618   50.5263 C   0  0  0  0  0  0  0  0  0  0  0  0
   14.7127   -0.5901   49.8183 C   0  0  0  0  0  0  0  0  0  0  0  0
   12.5372   -1.1647   51.5701 O   0  0  0  0  0  0  0  0  0  0  0  0
   14.0941   -2.5990   56.0925 C   0  0  0  0  0  0  0  0  0  0  0  0
   14.0624   -3.5612   55.0489 C   0  0  0  0  0  0  0  0  0  0  0  0
   13.9353   -3.1253   53.7011 C   0  0  0  0  0  0  0  0  0  0  0  0
   13.8808   -0.7844   54.4624 C   0  0  0  0  0  0  0  0  0  0  0  0
   14.0059   -1.2143   55.8086 C   0  0  0  0  0  0  0  0  0  0  0  0
   13.8406   -1.7401   53.3994 C   0  0  0  0  0  0  0  0  0  0  0  0
   14.2038   -2.9815   57.3928 O   0  0  0  0  0  0  0  0  0  0  0  0
   13.9077   -4.0874   52.7381 O   0  0  0  0  0  0  0  0  0  0  0  0
   14.2639   -3.8909   57.6102 H   0  0  0  0  0  0  0  0  0  0  0  0
   13.9729   -4.9911   52.9767 H   0  0  0  0  0  0  0  0  0  0  0  0
   16.8846   -3.4615   50.5173 C   0  0  0  0  0  0  0  0  0  0  0  0
   18.0135   -5.2407   51.7760 C   0  0  0  0  0  0  0  0  0  0  0  0
   17.5153   -3.0786   52.8900 C   0  0  0  0  0  0  0  0  0  0  0  0
   17.4292   -4.7726   50.5793 C   0  0  0  0  0  0  0  0  0  0  0  0
   18.0568   -4.4054   52.9187 C   0  0  0  0  0  0  0  0  0  0  0  0
   16.9090   -2.5769   51.6592 C   0  0  0  0  0  0  0  0  0  0  0  0
   17.6051   -2.2582   54.1623 C   0  0  0  0  0  0  0  0  0  0  0  0
  2  1  1  0  0  0
  1  6  1  0  0  0
  1  3  1  0  0  0
  9  8  2  0  0  0
 14  8  1  0  0  0
  8 12  1  0  0  0
  9 10  1  0  0  0
 15 10  1  0  0  0
 10 13  2  0  0  0
  7  2  2  0  0  0
 13  2  1  0  0  0
  3 23  1  0  0  0
  3  5  1  0  0  0
  6  4  1  0  0  0
  4  5  1  0  0  0
 18 23  2  0  0  0
 18 21  1  0  0  0
 21 19  2  0  0  0
 19 22  1  0  0  0
 23 20  1  0  0  0
 20 22  2  0  0  0
 20 24  1  0  0  0
 13 11  1  0  0  0
 12 11  2  0  0  0
 14 16  1  0  0  0
 15 17  1  0  0  0
M  END
> <minimizedAffinity>
-6.87278

$$$$
3EKR_PY9_A_901


 24 26  0  0  0  0  0  0  0  0999 V2000
   14.8168   -1.3864   50.8527 N   0  0  0  0  0  0  0  0  0  0  0  0
   13.4393   -1.4412   51.1991 C   0  0  0  0  0  0  0  0  0  0  0  0
   16.0331   -1.5428   51.7152 C   0  0  0  0  0  0  0  0  0  0  0  0
   16.7243   -1.1323   49.4217 C   0  0  0  0  0  0  0  0  0  0  0  0
   17.1311   -0.8748   50.8708 C   0  0  0  0  0  0  0  0  0  0  0  0
   15.2010   -1.1308   49.4583 C   0  0  0  0  0  0  0  0  0  0  0  0
   12.5133   -1.2842   50.3988 O   0  0  0  0  0  0  0  0  0  0  0  0
   12.2860   -2.1623   55.3087 C   0  0  0  0  0  0  0  0  0  0  0  0
   12.3307   -3.2439   54.3899 C   0  0  0  0  0  0  0  0  0  0  0  0
   12.7156   -2.9999   53.0426 C   0  0  0  0  0  0  0  0  0  0  0  0
   13.0084   -0.6101   53.5581 C   0  0  0  0  0  0  0  0  0  0  0  0
   12.6236   -0.8482   54.9027 C   0  0  0  0  0  0  0  0  0  0  0  0
   13.0524   -1.6865   52.6177 C   0  0  0  0  0  0  0  0  0  0  0  0
   11.9121   -2.3582   56.6013 O   0  0  0  0  0  0  0  0  0  0  0  0
   12.7404   -4.0700   52.2012 O   0  0  0  0  0  0  0  0  0  0  0  0
   11.6833   -3.2171   56.8978 H   0  0  0  0  0  0  0  0  0  0  0  0
   12.5113   -4.9212   52.5189 H   0  0  0  0  0  0  0  0  0  0  0  0
   16.7503   -4.0010   51.1793 C   0  0  0  0  0  0  0  0  0  0  0  0
   17.0812   -5.6848   52.9341 C   0  0  0  0  0  0  0  0  0  0  0  0
   16.4036   -3.3798   53.5601 C   0  0  0  0  0  0  0  0  0  0  0  0
   17.0832   -5.3264   51.5688 C   0  0  0  0  0  0  0  0  0  0  0  0
   16.7455   -4.7246   53.9194 C   0  0  0  0  0  0  0  0  0  0  0  0
   16.4029   -2.9909   52.1520 C   0  0  0  0  0  0  0  0  0  0  0  0
   16.0561   -2.4220   54.6832 C   0  0  0  0  0  0  0  0  0  0  0  0
  2  1  1  0  0  0
  1  6  1  0  0  0
  1  3  1  0  0  0
  9  8  2  0  0  0
 14  8  1  0  0  0
  8 12  1  0  0  0
  9 10  1  0  0  0
 15 10  1  0  0  0
 10 13  2  0  0  0
  7  2  2  0  0  0
 13  2  1  0  0  0
  3 23  1  0  0  0
  3  5  1  0  0  0
  6  4  1  0  0  0
  4  5  1  0  0  0
 18 23  2  0  0  0
 18 21  1  0  0  0
 21 19  2  0  0  0
 19 22  1  0  0  0
 23 20  1  0  0  0
 20 22  2  0  0  0
 20 24  1  0  0  0
 13 11  1  0  0  0
 12 11  2  0  0  0
 14 16  1  0  0  0
 15 17  1  0  0  0
M  END
> <minimizedAffinity>
-6.87205

$$$$
3EKR_PY9_A_901


 24 26  0  0  0  0  0  0  0  0999 V2000
   13.7072   -1.6242   52.2690 N   0  0  0  0  0  0  0  0  0  0  0  0
   12.9025   -1.9345   53.3988 C   0  0  0  0  0  0  0  0  0  0  0  0
   15.1537   -1.2372   52.1946 C   0  0  0  0  0  0  0  0  0  0  0  0
   14.2182   -1.2758   49.9520 C   0  0  0  0  0  0  0  0  0  0  0  0
   15.2483   -0.5559   50.8192 C   0  0  0  0  0  0  0  0  0  0  0  0
   13.1095   -1.6512   50.9276 C   0  0  0  0  0  0  0  0  0  0  0  0
   11.7061   -2.2311   53.3414 O   0  0  0  0  0  0  0  0  0  0  0  0
   14.6829   -1.7891   57.3420 C   0  0  0  0  0  0  0  0  0  0  0  0
   14.0256   -0.6423   56.8235 C   0  0  0  0  0  0  0  0  0  0  0  0
   13.4386   -0.6994   55.5293 C   0  0  0  0  0  0  0  0  0  0  0  0
   14.1684   -3.0398   55.3008 C   0  0  0  0  0  0  0  0  0  0  0  0
   14.7568   -2.9873   56.5906 C   0  0  0  0  0  0  0  0  0  0  0  0
   13.5083   -1.8922   54.7603 C   0  0  0  0  0  0  0  0  0  0  0  0
   15.2641   -1.7658   58.5710 O   0  0  0  0  0  0  0  0  0  0  0  0
   12.8223    0.4274   55.0775 O   0  0  0  0  0  0  0  0  0  0  0  0
   15.2308   -0.9866   59.0904 H   0  0  0  0  0  0  0  0  0  0  0  0
   12.7971    1.1949   55.6144 H   0  0  0  0  0  0  0  0  0  0  0  0
   16.2394   -3.5056   51.4737 C   0  0  0  0  0  0  0  0  0  0  0  0
   18.1116   -4.5139   52.6994 C   0  0  0  0  0  0  0  0  0  0  0  0
   17.1624   -2.3541   53.4728 C   0  0  0  0  0  0  0  0  0  0  0  0
   17.1837   -4.5549   51.6364 C   0  0  0  0  0  0  0  0  0  0  0  0
   18.1025   -3.4276   53.6078 C   0  0  0  0  0  0  0  0  0  0  0  0
   16.1965   -2.3791   52.3770 C   0  0  0  0  0  0  0  0  0  0  0  0
   17.2264   -1.2348   54.4939 C   0  0  0  0  0  0  0  0  0  0  0  0
  2  1  1  0  0  0
  1  6  1  0  0  0
  1  3  1  0  0  0
  9  8  2  0  0  0
 14  8  1  0  0  0
  8 12  1  0  0  0
  9 10  1  0  0  0
 15 10  1  0  0  0
 10 13  2  0  0  0
  7  2  2  0  0  0
 13  2  1  0  0  0
  3 23  1  0  0  0
  3  5  1  0  0  0
  6  4  1  0  0  0
  4  5  1  0  0  0
 18 23  2  0  0  0
 18 21  1  0  0  0
 21 19  2  0  0  0
 19 22  1  0  0  0
 23 20  1  0  0  0
 20 22  2  0  0  0
 20 24  1  0  0  0
 13 11  1  0  0  0
 12 11  2  0  0  0
 14 16  1  0  0  0
 15 17  1  0  0  0
M  END
> <minimizedAffinity>
-6.83076

$$$$
3EKR_PY9_A_901


 24 26  0  0  0  0  0  0  0  0999 V2000
   15.3009   -2.1788   51.0136 N   0  0  0  0  0  0  0  0  0  0  0  0
   16.0807   -3.3575   50.8621 C   0  0  0  0  0  0  0  0  0  0  0  0
   14.2807   -1.8269   52.0544 C   0  0  0  0  0  0  0  0  0  0  0  0
   14.4833    0.0109   50.4770 C   0  0  0  0  0  0  0  0  0  0  0  0
   13.4759   -0.7090   51.3705 C   0  0  0  0  0  0  0  0  0  0  0  0
   15.4432   -1.0888   50.0396 C   0  0  0  0  0  0  0  0  0  0  0  0
   16.8898   -3.5446   49.9495 O   0  0  0  0  0  0  0  0  0  0  0  0
   15.6375   -6.6032   53.6920 C   0  0  0  0  0  0  0  0  0  0  0  0
   16.9353   -6.1990   53.2819 C   0  0  0  0  0  0  0  0  0  0  0  0
   17.0730   -5.1284   52.3558 C   0  0  0  0  0  0  0  0  0  0  0  0
   14.6244   -4.8839   52.2731 C   0  0  0  0  0  0  0  0  0  0  0  0
   14.4818   -5.9523   53.1955 C   0  0  0  0  0  0  0  0  0  0  0  0
   15.9236   -4.4681   51.8441 C   0  0  0  0  0  0  0  0  0  0  0  0
   15.4691   -7.6299   54.5675 O   0  0  0  0  0  0  0  0  0  0  0  0
   18.3385   -4.7809   51.9932 O   0  0  0  0  0  0  0  0  0  0  0  0
   16.2159   -8.0788   54.9123 H   0  0  0  0  0  0  0  0  0  0  0  0
   19.0717   -5.2404   52.3526 H   0  0  0  0  0  0  0  0  0  0  0  0
   16.2333   -1.2232   53.6874 C   0  0  0  0  0  0  0  0  0  0  0  0
   15.8471   -0.6583   56.0444 C   0  0  0  0  0  0  0  0  0  0  0  0
   13.9164   -1.2112   54.5849 C   0  0  0  0  0  0  0  0  0  0  0  0
   16.7348   -0.8518   54.9640 C   0  0  0  0  0  0  0  0  0  0  0  0
   14.4545   -0.8355   55.8592 C   0  0  0  0  0  0  0  0  0  0  0  0
   14.8202   -1.4134   53.4552 C   0  0  0  0  0  0  0  0  0  0  0  0
   12.4129   -1.3800   54.4822 C   0  0  0  0  0  0  0  0  0  0  0  0
  2  1  1  0  0  0
  1  6  1  0  0  0
  1  3  1  0  0  0
  9  8  2  0  0  0
 14  8  1  0  0  0
  8 12  1  0  0  0
  9 10  1  0  0  0
 15 10  1  0  0  0
 10 13  2  0  0  0
  7  2  2  0  0  0
 13  2  1  0  0  0
  3 23  1  0  0  0
  3  5  1  0  0  0
  6  4  1  0  0  0
  4  5  1  0  0  0
 18 23  2  0  0  0
 18 21  1  0  0  0
 21 19  2  0  0  0
 19 22  1  0  0  0
 23 20  1  0  0  0
 20 22  2  0  0  0
 20 24  1  0  0  0
 13 11  1  0  0  0
 12 11  2  0  0  0
 14 16  1  0  0  0
 15 17  1  0  0  0
M  END
> <minimizedAffinity>
-6.68384

$$$$
