1G2O_IMH_A_351


 25 27  0  0  0  0  0  0  0  0999 V2000
   56.4624   15.8340   44.4878 C   0  0  0  0  0  0  0  0  0  0  0  0
   57.2597   15.6570   43.3255 N   0  0  0  0  0  0  0  0  0  0  0  0
   56.3688   17.2980   44.7829 C   0  0  0  0  0  0  0  0  0  0  0  0
   57.3198   17.5934   45.8093 O   0  0  0  0  0  0  0  0  0  0  0  0
   56.7088   17.9086   43.4637 C   0  0  0  0  0  0  0  0  0  0  0  0
   57.5786   19.0197   43.6523 O   0  0  0  0  0  0  0  0  0  0  0  0
   57.4009   16.8525   42.5695 C   0  0  0  0  0  0  0  0  0  0  0  0
   56.8241   14.9477   42.7360 H   0  0  0  0  0  0  0  0  0  0  0  0
   58.1982   17.2875   45.5340 H   0  0  0  0  0  0  0  0  0  0  0  0
   58.3955   18.7216   44.0818 H   0  0  0  0  0  0  0  0  0  0  0  0
   56.6148   16.5832   41.2757 C   0  0  0  0  0  0  0  0  0  0  0  0
   56.7778   15.4600   40.4601 C   0  0  0  0  0  0  0  0  0  0  0  0
   56.0008   15.4244   39.4027 N   0  0  0  0  0  0  0  0  0  0  0  0
   55.2404   16.5931   39.4770 C   0  0  0  0  0  0  0  0  0  0  0  0
   54.2172   17.0875   38.5845 C   0  0  0  0  0  0  0  0  0  0  0  0
   53.8104   16.5562   37.5524 O   0  0  0  0  0  0  0  0  0  0  0  0
   53.6672   18.3172   38.9921 N   0  0  0  0  0  0  0  0  0  0  0  0
   54.0515   19.0178   40.1477 C   0  0  0  0  0  0  0  0  0  0  0  0
   55.0186   18.5564   40.9983 N   0  0  0  0  0  0  0  0  0  0  0  0
   55.5880   17.3310   40.6154 C   0  0  0  0  0  0  0  0  0  0  0  0
   55.9626   14.7266   38.7092 H   0  0  0  0  0  0  0  0  0  0  0  0
   54.1709   15.7375   37.2734 H   0  0  0  0  0  0  0  0  0  0  0  0
   55.2401   14.1847   43.3408 O   0  0  0  0  0  0  0  0  0  0  0  0
   55.1059   15.2745   44.2394 C   0  0  0  0  0  0  0  0  0  0  0  0
   54.3664   13.8026   43.1633 H   0  0  0  0  0  0  0  0  0  0  0  0
 23 24  1  0  0  0
 24  1  1  0  0  0
  1  2  1  0  0  0
  1  3  1  0  0  0
  2  7  1  0  0  0
  3  4  1  0  0  0
  3  5  1  0  0  0
  5  6  1  0  0  0
  5  7  1  0  0  0
  7 11  1  0  0  0
 11 12  2  0  0  0
 11 20  1  0  0  0
 12 13  1  0  0  0
 13 14  1  0  0  0
 14 15  1  0  0  0
 14 20  2  0  0  0
 15 16  1  0  0  0
 15 17  2  0  0  0
 17 18  1  0  0  0
 18 19  2  0  0  0
 19 20  1  0  0  0
 23 25  1  0  0  0
  2  8  1  0  0  0
  4  9  1  0  0  0
  6 10  1  0  0  0
 13 21  1  0  0  0
 16 22  1  0  0  0
M  END
> <minimizedAffinity>
-10.16834

$$$$
1G2O_IMH_A_351


 25 27  0  0  0  0  0  0  0  0999 V2000
   57.7842   18.4763   43.8643 C   0  0  0  0  0  0  0  0  0  0  0  0
   56.4217   18.2274   43.5488 N   0  0  0  0  0  0  0  0  0  0  0  0
   58.3681   17.2369   44.4659 C   0  0  0  0  0  0  0  0  0  0  0  0
   58.3662   17.4039   45.8862 O   0  0  0  0  0  0  0  0  0  0  0  0
   57.4263   16.1808   43.9901 C   0  0  0  0  0  0  0  0  0  0  0  0
   57.1445   15.2692   45.0467 O   0  0  0  0  0  0  0  0  0  0  0  0
   56.1123   16.8405   43.5083 C   0  0  0  0  0  0  0  0  0  0  0  0
   56.2188   18.6337   42.6355 H   0  0  0  0  0  0  0  0  0  0  0  0
   57.4690   17.6196   46.1852 H   0  0  0  0  0  0  0  0  0  0  0  0
   56.7358   15.7469   45.7854 H   0  0  0  0  0  0  0  0  0  0  0  0
   55.8296   16.5537   42.0243 C   0  0  0  0  0  0  0  0  0  0  0  0
   56.2087   15.3906   41.3483 C   0  0  0  0  0  0  0  0  0  0  0  0
   55.8632   15.3466   40.0827 N   0  0  0  0  0  0  0  0  0  0  0  0
   55.1970   16.5516   39.8508 C   0  0  0  0  0  0  0  0  0  0  0  0
   54.5941   17.0551   38.6380 C   0  0  0  0  0  0  0  0  0  0  0  0
   54.5552   16.5001   37.5409 O   0  0  0  0  0  0  0  0  0  0  0  0
   54.0076   18.3252   38.7914 N   0  0  0  0  0  0  0  0  0  0  0  0
   53.9911   19.0553   39.9916 C   0  0  0  0  0  0  0  0  0  0  0  0
   54.5588   18.5857   41.1444 N   0  0  0  0  0  0  0  0  0  0  0  0
   55.1547   17.3200   41.0209 C   0  0  0  0  0  0  0  0  0  0  0  0
   56.0360   14.6227   39.4382 H   0  0  0  0  0  0  0  0  0  0  0  0
   54.9430   15.6545   37.4296 H   0  0  0  0  0  0  0  0  0  0  0  0
   59.0259   20.1494   42.7740 O   0  0  0  0  0  0  0  0  0  0  0  0
   58.5163   18.8343   42.6190 C   0  0  0  0  0  0  0  0  0  0  0  0
   59.5085   20.4057   41.9726 H   0  0  0  0  0  0  0  0  0  0  0  0
 23 24  1  0  0  0
 24  1  1  0  0  0
  1  2  1  0  0  0
  1  3  1  0  0  0
  2  7  1  0  0  0
  3  4  1  0  0  0
  3  5  1  0  0  0
  5  6  1  0  0  0
  5  7  1  0  0  0
  7 11  1  0  0  0
 11 12  2  0  0  0
 11 20  1  0  0  0
 12 13  1  0  0  0
 13 14  1  0  0  0
 14 15  1  0  0  0
 14 20  2  0  0  0
 15 16  1  0  0  0
 15 17  2  0  0  0
 17 18  1  0  0  0
 18 19  2  0  0  0
 19 20  1  0  0  0
 23 25  1  0  0  0
  2  8  1  0  0  0
  4  9  1  0  0  0
  6 10  1  0  0  0
 13 21  1  0  0  0
 16 22  1  0  0  0
M  END
> <minimizedAffinity>
-9.85353

$$$$
1G2O_IMH_A_351


 25 27  0  0  0  0  0  0  0  0999 V2000
   55.2263   18.0691   39.6611 C   0  0  0  0  0  0  0  0  0  0  0  0
   56.5090   17.5889   40.0378 N   0  0  0  0  0  0  0  0  0  0  0  0
   54.3656   16.8986   39.3028 C   0  0  0  0  0  0  0  0  0  0  0  0
   54.3622   16.7854   37.8771 O   0  0  0  0  0  0  0  0  0  0  0  0
   55.0649   15.7710   39.9871 C   0  0  0  0  0  0  0  0  0  0  0  0
   55.1072   14.6344   39.1310 O   0  0  0  0  0  0  0  0  0  0  0  0
   56.5059   16.2022   40.3503 C   0  0  0  0  0  0  0  0  0  0  0  0
   56.8236   18.1075   40.8578 H   0  0  0  0  0  0  0  0  0  0  0  0
   55.2756   16.7348   37.5546 H   0  0  0  0  0  0  0  0  0  0  0  0
   55.5891   14.8585   38.3196 H   0  0  0  0  0  0  0  0  0  0  0  0
   56.7623   16.1499   41.8656 C   0  0  0  0  0  0  0  0  0  0  0  0
   56.4677   15.0599   42.6892 C   0  0  0  0  0  0  0  0  0  0  0  0
   56.7720   15.2230   43.9557 N   0  0  0  0  0  0  0  0  0  0  0  0
   57.3173   16.5061   44.0311 C   0  0  0  0  0  0  0  0  0  0  0  0
   57.8298   17.2262   45.1742 C   0  0  0  0  0  0  0  0  0  0  0  0
   57.8814   16.8333   46.3386 O   0  0  0  0  0  0  0  0  0  0  0  0
   58.3031   18.5132   44.8572 N   0  0  0  0  0  0  0  0  0  0  0  0
   58.2943   19.0699   43.5673 C   0  0  0  0  0  0  0  0  0  0  0  0
   57.8118   18.3948   42.4796 N   0  0  0  0  0  0  0  0  0  0  0  0
   57.3297   17.1072   42.7661 C   0  0  0  0  0  0  0  0  0  0  0  0
   56.6438   14.5813   44.6912 H   0  0  0  0  0  0  0  0  0  0  0  0
   57.5685   15.9780   46.5588 H   0  0  0  0  0  0  0  0  0  0  0  0
   53.8069   19.8412   40.2734 O   0  0  0  0  0  0  0  0  0  0  0  0
   54.6285   18.8129   40.8032 C   0  0  0  0  0  0  0  0  0  0  0  0
   53.4051   20.3412   41.0010 H   0  0  0  0  0  0  0  0  0  0  0  0
 23 24  1  0  0  0
 24  1  1  0  0  0
  1  2  1  0  0  0
  1  3  1  0  0  0
  2  7  1  0  0  0
  3  4  1  0  0  0
  3  5  1  0  0  0
  5  6  1  0  0  0
  5  7  1  0  0  0
  7 11  1  0  0  0
 11 12  2  0  0  0
 11 20  1  0  0  0
 12 13  1  0  0  0
 13 14  1  0  0  0
 14 15  1  0  0  0
 14 20  2  0  0  0
 15 16  1  0  0  0
 15 17  2  0  0  0
 17 18  1  0  0  0
 18 19  2  0  0  0
 19 20  1  0  0  0
 23 25  1  0  0  0
  2  8  1  0  0  0
  4  9  1  0  0  0
  6 10  1  0  0  0
 13 21  1  0  0  0
 16 22  1  0  0  0
M  END
> <minimizedAffinity>
-8.80103

$$$$
1G2O_IMH_A_351


 25 27  0  0  0  0  0  0  0  0999 V2000
   55.3754   15.7544   40.5586 C   0  0  0  0  0  0  0  0  0  0  0  0
   55.0600   15.8904   41.9370 N   0  0  0  0  0  0  0  0  0  0  0  0
   55.4022   17.1163   39.9393 C   0  0  0  0  0  0  0  0  0  0  0  0
   54.1491   17.3154   39.2794 O   0  0  0  0  0  0  0  0  0  0  0  0
   55.5958   17.9998   41.1270 C   0  0  0  0  0  0  0  0  0  0  0  0
   54.7558   19.1445   41.0231 O   0  0  0  0  0  0  0  0  0  0  0  0
   55.2491   17.2158   42.4151 C   0  0  0  0  0  0  0  0  0  0  0  0
   55.6589   15.2619   42.4723 H   0  0  0  0  0  0  0  0  0  0  0  0
   53.4254   17.1666   39.9080 H   0  0  0  0  0  0  0  0  0  0  0  0
   53.8283   18.8628   40.9873 H   0  0  0  0  0  0  0  0  0  0  0  0
   56.4490   17.1111   43.3709 C   0  0  0  0  0  0  0  0  0  0  0  0
   56.5701   16.1764   44.4029 C   0  0  0  0  0  0  0  0  0  0  0  0
   57.6803   16.2583   45.0985 N   0  0  0  0  0  0  0  0  0  0  0  0
   58.3882   17.3141   44.5210 C   0  0  0  0  0  0  0  0  0  0  0  0
   59.6795   17.8607   44.8700 C   0  0  0  0  0  0  0  0  0  0  0  0
   60.4243   17.4889   45.7756 O   0  0  0  0  0  0  0  0  0  0  0  0
   60.0708   18.9360   44.0507 N   0  0  0  0  0  0  0  0  0  0  0  0
   59.3057   19.4486   42.9897 C   0  0  0  0  0  0  0  0  0  0  0  0
   58.0827   18.9366   42.6521 N   0  0  0  0  0  0  0  0  0  0  0  0
   57.6645   17.8629   43.4549 C   0  0  0  0  0  0  0  0  0  0  0  0
   57.9538   15.6981   45.8605 H   0  0  0  0  0  0  0  0  0  0  0  0
   60.1719   16.7738   46.3260 H   0  0  0  0  0  0  0  0  0  0  0  0
   57.2324   15.4427   39.1500 O   0  0  0  0  0  0  0  0  0  0  0  0
   56.7078   15.1051   40.4243 C   0  0  0  0  0  0  0  0  0  0  0  0
   58.1030   15.0298   39.0390 H   0  0  0  0  0  0  0  0  0  0  0  0
 23 24  1  0  0  0
 24  1  1  0  0  0
  1  2  1  0  0  0
  1  3  1  0  0  0
  2  7  1  0  0  0
  3  4  1  0  0  0
  3  5  1  0  0  0
  5  6  1  0  0  0
  5  7  1  0  0  0
  7 11  1  0  0  0
 11 12  2  0  0  0
 11 20  1  0  0  0
 12 13  1  0  0  0
 13 14  1  0  0  0
 14 15  1  0  0  0
 14 20  2  0  0  0
 15 16  1  0  0  0
 15 17  2  0  0  0
 17 18  1  0  0  0
 18 19  2  0  0  0
 19 20  1  0  0  0
 23 25  1  0  0  0
  2  8  1  0  0  0
  4  9  1  0  0  0
  6 10  1  0  0  0
 13 21  1  0  0  0
 16 22  1  0  0  0
M  END
> <minimizedAffinity>
-8.46896

$$$$
1G2O_IMH_A_351


 25 27  0  0  0  0  0  0  0  0999 V2000
   55.0794   16.2745   39.6432 C   0  0  0  0  0  0  0  0  0  0  0  0
   54.9205   16.3367   41.0534 N   0  0  0  0  0  0  0  0  0  0  0  0
   54.7385   17.6124   39.0659 C   0  0  0  0  0  0  0  0  0  0  0  0
   53.3980   17.5411   38.5728 O   0  0  0  0  0  0  0  0  0  0  0  0
   54.8907   18.5138   40.2462 C   0  0  0  0  0  0  0  0  0  0  0  0
   53.8215   19.4532   40.2812 O   0  0  0  0  0  0  0  0  0  0  0  0
   54.8846   17.6706   41.5435 C   0  0  0  0  0  0  0  0  0  0  0  0
   55.7020   15.8491   41.4916 H   0  0  0  0  0  0  0  0  0  0  0  0
   52.8083   17.2397   39.2815 H   0  0  0  0  0  0  0  0  0  0  0  0
   52.9777   18.9801   40.3523 H   0  0  0  0  0  0  0  0  0  0  0  0
   56.1913   17.8221   42.3397 C   0  0  0  0  0  0  0  0  0  0  0  0
   57.2797   18.6067   41.9484 C   0  0  0  0  0  0  0  0  0  0  0  0
   58.2964   18.5992   42.7787 N   0  0  0  0  0  0  0  0  0  0  0  0
   57.9011   17.7597   43.8220 C   0  0  0  0  0  0  0  0  0  0  0  0
   58.6134   17.3758   45.0191 C   0  0  0  0  0  0  0  0  0  0  0  0
   59.7437   17.7249   45.3562 O   0  0  0  0  0  0  0  0  0  0  0  0
   57.8838   16.5027   45.8474 N   0  0  0  0  0  0  0  0  0  0  0  0
   56.5890   16.0349   45.5673 C   0  0  0  0  0  0  0  0  0  0  0  0
   55.9072   16.3941   44.4368 N   0  0  0  0  0  0  0  0  0  0  0  0
   56.6122   17.2637   43.5889 C   0  0  0  0  0  0  0  0  0  0  0  0
   59.1504   19.0802   42.6862 H   0  0  0  0  0  0  0  0  0  0  0  0
   60.2367   18.3060   44.8109 H   0  0  0  0  0  0  0  0  0  0  0  0
   56.9505   15.0194   40.3163 O   0  0  0  0  0  0  0  0  0  0  0  0
   56.4907   15.9250   39.3256 C   0  0  0  0  0  0  0  0  0  0  0  0
   57.8709   14.7764   40.1300 H   0  0  0  0  0  0  0  0  0  0  0  0
 23 24  1  0  0  0
 24  1  1  0  0  0
  1  2  1  0  0  0
  1  3  1  0  0  0
  2  7  1  0  0  0
  3  4  1  0  0  0
  3  5  1  0  0  0
  5  6  1  0  0  0
  5  7  1  0  0  0
  7 11  1  0  0  0
 11 12  2  0  0  0
 11 20  1  0  0  0
 12 13  1  0  0  0
 13 14  1  0  0  0
 14 15  1  0  0  0
 14 20  2  0  0  0
 15 16  1  0  0  0
 15 17  2  0  0  0
 17 18  1  0  0  0
 18 19  2  0  0  0
 19 20  1  0  0  0
 23 25  1  0  0  0
  2  8  1  0  0  0
  4  9  1  0  0  0
  6 10  1  0  0  0
 13 21  1  0  0  0
 16 22  1  0  0  0
M  END
> <minimizedAffinity>
-8.38218

$$$$
1G2O_IMH_A_351


 25 27  0  0  0  0  0  0  0  0999 V2000
   56.7943   15.7000   44.3365 C   0  0  0  0  0  0  0  0  0  0  0  0
   57.3224   16.1489   43.0966 N   0  0  0  0  0  0  0  0  0  0  0  0
   56.7356   16.8617   45.2779 C   0  0  0  0  0  0  0  0  0  0  0  0
   57.8810   16.7848   46.1308 O   0  0  0  0  0  0  0  0  0  0  0  0
   56.7663   18.0266   44.3446 C   0  0  0  0  0  0  0  0  0  0  0  0
   57.6320   19.0351   44.8546 O   0  0  0  0  0  0  0  0  0  0  0  0
   57.2693   17.5626   42.9570 C   0  0  0  0  0  0  0  0  0  0  0  0
   56.7842   15.7259   42.3404 H   0  0  0  0  0  0  0  0  0  0  0  0
   58.6846   16.7378   45.5895 H   0  0  0  0  0  0  0  0  0  0  0  0
   58.5292   18.6771   44.9420 H   0  0  0  0  0  0  0  0  0  0  0  0
   56.2260   17.8000   41.8527 C   0  0  0  0  0  0  0  0  0  0  0  0
   55.3281   18.8706   41.8178 C   0  0  0  0  0  0  0  0  0  0  0  0
   54.5238   18.8868   40.7805 N   0  0  0  0  0  0  0  0  0  0  0  0
   54.8766   17.7599   40.0355 C   0  0  0  0  0  0  0  0  0  0  0  0
   54.3312   17.2672   38.7915 C   0  0  0  0  0  0  0  0  0  0  0  0
   53.4188   17.7623   38.1317 O   0  0  0  0  0  0  0  0  0  0  0  0
   54.9501   16.0871   38.3388 N   0  0  0  0  0  0  0  0  0  0  0  0
   55.9979   15.4307   39.0060 C   0  0  0  0  0  0  0  0  0  0  0  0
   56.5206   15.8907   40.1836 N   0  0  0  0  0  0  0  0  0  0  0  0
   55.9203   17.0669   40.6616 C   0  0  0  0  0  0  0  0  0  0  0  0
   53.8250   19.5486   40.5733 H   0  0  0  0  0  0  0  0  0  0  0  0
   53.0010   18.5479   38.4254 H   0  0  0  0  0  0  0  0  0  0  0  0
   55.4562   14.3747   42.9285 O   0  0  0  0  0  0  0  0  0  0  0  0
   55.4287   15.1512   44.1157 C   0  0  0  0  0  0  0  0  0  0  0  0
   54.5746   14.0054   42.7632 H   0  0  0  0  0  0  0  0  0  0  0  0
 23 24  1  0  0  0
 24  1  1  0  0  0
  1  2  1  0  0  0
  1  3  1  0  0  0
  2  7  1  0  0  0
  3  4  1  0  0  0
  3  5  1  0  0  0
  5  6  1  0  0  0
  5  7  1  0  0  0
  7 11  1  0  0  0
 11 12  2  0  0  0
 11 20  1  0  0  0
 12 13  1  0  0  0
 13 14  1  0  0  0
 14 15  1  0  0  0
 14 20  2  0  0  0
 15 16  1  0  0  0
 15 17  2  0  0  0
 17 18  1  0  0  0
 18 19  2  0  0  0
 19 20  1  0  0  0
 23 25  1  0  0  0
  2  8  1  0  0  0
  4  9  1  0  0  0
  6 10  1  0  0  0
 13 21  1  0  0  0
 16 22  1  0  0  0
M  END
> <minimizedAffinity>
-8.21505

$$$$
1G2O_IMH_A_351


 25 27  0  0  0  0  0  0  0  0999 V2000
   58.6178   18.6416   44.1667 C   0  0  0  0  0  0  0  0  0  0  0  0
   57.2168   18.8533   44.0655 N   0  0  0  0  0  0  0  0  0  0  0  0
   58.8594   17.2024   44.4979 C   0  0  0  0  0  0  0  0  0  0  0  0
   59.0923   17.1166   45.9063 O   0  0  0  0  0  0  0  0  0  0  0  0
   57.5828   16.5602   44.0661 C   0  0  0  0  0  0  0  0  0  0  0  0
   57.1698   15.6011   45.0337 O   0  0  0  0  0  0  0  0  0  0  0  0
   56.4887   17.6427   43.9072 C   0  0  0  0  0  0  0  0  0  0  0  0
   57.0346   19.4514   43.2596 H   0  0  0  0  0  0  0  0  0  0  0  0
   58.3530   17.5267   46.3819 H   0  0  0  0  0  0  0  0  0  0  0  0
   57.0286   16.0420   45.8861 H   0  0  0  0  0  0  0  0  0  0  0  0
   55.9424   17.7086   42.4714 C   0  0  0  0  0  0  0  0  0  0  0  0
   55.0852   18.7005   41.9868 C   0  0  0  0  0  0  0  0  0  0  0  0
   54.7423   18.5705   40.7263 N   0  0  0  0  0  0  0  0  0  0  0  0
   55.3994   17.4172   40.2931 C   0  0  0  0  0  0  0  0  0  0  0  0
   55.3952   16.7846   38.9940 C   0  0  0  0  0  0  0  0  0  0  0  0
   54.7881   17.1527   37.9896 O   0  0  0  0  0  0  0  0  0  0  0  0
   56.1873   15.6227   38.9360 N   0  0  0  0  0  0  0  0  0  0  0  0
   56.9227   15.1053   40.0155 C   0  0  0  0  0  0  0  0  0  0  0  0
   56.9329   15.6984   41.2484 N   0  0  0  0  0  0  0  0  0  0  0  0
   56.1484   16.8598   41.3371 C   0  0  0  0  0  0  0  0  0  0  0  0
   54.1513   19.1575   40.2015 H   0  0  0  0  0  0  0  0  0  0  0  0
   54.2585   17.9251   38.0190 H   0  0  0  0  0  0  0  0  0  0  0  0
   59.1126   20.3780   42.6601 O   0  0  0  0  0  0  0  0  0  0  0  0
   59.2583   18.9819   42.8672 C   0  0  0  0  0  0  0  0  0  0  0  0
   59.5236   20.6244   41.8168 H   0  0  0  0  0  0  0  0  0  0  0  0
 23 24  1  0  0  0
 24  1  1  0  0  0
  1  2  1  0  0  0
  1  3  1  0  0  0
  2  7  1  0  0  0
  3  4  1  0  0  0
  3  5  1  0  0  0
  5  6  1  0  0  0
  5  7  1  0  0  0
  7 11  1  0  0  0
 11 12  2  0  0  0
 11 20  1  0  0  0
 12 13  1  0  0  0
 13 14  1  0  0  0
 14 15  1  0  0  0
 14 20  2  0  0  0
 15 16  1  0  0  0
 15 17  2  0  0  0
 17 18  1  0  0  0
 18 19  2  0  0  0
 19 20  1  0  0  0
 23 25  1  0  0  0
  2  8  1  0  0  0
  4  9  1  0  0  0
  6 10  1  0  0  0
 13 21  1  0  0  0
 16 22  1  0  0  0
M  END
> <minimizedAffinity>
-7.86280

$$$$
1G2O_IMH_A_351


 25 27  0  0  0  0  0  0  0  0999 V2000
   59.4357   19.3288   43.6341 C   0  0  0  0  0  0  0  0  0  0  0  0
   58.0753   18.9688   43.8277 N   0  0  0  0  0  0  0  0  0  0  0  0
   60.2913   18.4183   44.4576 C   0  0  0  0  0  0  0  0  0  0  0  0
   60.6352   19.1167   45.6573 O   0  0  0  0  0  0  0  0  0  0  0  0
   59.3850   17.2542   44.6863 C   0  0  0  0  0  0  0  0  0  0  0  0
   59.4893   16.8151   46.0365 O   0  0  0  0  0  0  0  0  0  0  0  0
   57.9252   17.6702   44.3862 C   0  0  0  0  0  0  0  0  0  0  0  0
   57.5998   18.9929   42.9256 H   0  0  0  0  0  0  0  0  0  0  0  0
   59.8264   19.4244   46.0955 H   0  0  0  0  0  0  0  0  0  0  0  0
   59.2325   17.5366   46.6319 H   0  0  0  0  0  0  0  0  0  0  0  0
   57.3054   16.8349   43.2537 C   0  0  0  0  0  0  0  0  0  0  0  0
   57.4630   15.4548   43.0998 C   0  0  0  0  0  0  0  0  0  0  0  0
   56.8432   14.9374   42.0646 N   0  0  0  0  0  0  0  0  0  0  0  0
   56.2067   16.0180   41.4509 C   0  0  0  0  0  0  0  0  0  0  0  0
   55.3770   16.0511   40.2684 C   0  0  0  0  0  0  0  0  0  0  0  0
   55.0661   15.1014   39.5512 O   0  0  0  0  0  0  0  0  0  0  0  0
   54.9070   17.3394   39.9517 N   0  0  0  0  0  0  0  0  0  0  0  0
   55.1960   18.4973   40.6931 C   0  0  0  0  0  0  0  0  0  0  0  0
   55.9799   18.4747   41.8141 N   0  0  0  0  0  0  0  0  0  0  0  0
   56.4659   17.2015   42.1535 C   0  0  0  0  0  0  0  0  0  0  0  0
   56.8301   13.9942   41.7828 H   0  0  0  0  0  0  0  0  0  0  0  0
   55.3744   14.2402   39.7545 H   0  0  0  0  0  0  0  0  0  0  0  0
   58.8127   19.9063   41.4414 O   0  0  0  0  0  0  0  0  0  0  0  0
   59.7780   19.1873   42.1927 C   0  0  0  0  0  0  0  0  0  0  0  0
   59.0154   19.8286   40.4960 H   0  0  0  0  0  0  0  0  0  0  0  0
 23 24  1  0  0  0
 24  1  1  0  0  0
  1  2  1  0  0  0
  1  3  1  0  0  0
  2  7  1  0  0  0
  3  4  1  0  0  0
  3  5  1  0  0  0
  5  6  1  0  0  0
  5  7  1  0  0  0
  7 11  1  0  0  0
 11 12  2  0  0  0
 11 20  1  0  0  0
 12 13  1  0  0  0
 13 14  1  0  0  0
 14 15  1  0  0  0
 14 20  2  0  0  0
 15 16  1  0  0  0
 15 17  2  0  0  0
 17 18  1  0  0  0
 18 19  2  0  0  0
 19 20  1  0  0  0
 23 25  1  0  0  0
  2  8  1  0  0  0
  4  9  1  0  0  0
  6 10  1  0  0  0
 13 21  1  0  0  0
 16 22  1  0  0  0
M  END
> <minimizedAffinity>
-7.48210

$$$$
1G2O_IMH_A_351


 25 27  0  0  0  0  0  0  0  0999 V2000
   55.5820   16.3502   39.6441 C   0  0  0  0  0  0  0  0  0  0  0  0
   54.7905   15.9898   40.7673 N   0  0  0  0  0  0  0  0  0  0  0  0
   55.5413   17.8381   39.4903 C   0  0  0  0  0  0  0  0  0  0  0  0
   54.5796   18.1413   38.4761 O   0  0  0  0  0  0  0  0  0  0  0  0
   55.1291   18.2856   40.8535 C   0  0  0  0  0  0  0  0  0  0  0  0
   54.1611   19.3245   40.7519 O   0  0  0  0  0  0  0  0  0  0  0  0
   54.5282   17.0893   41.6293 C   0  0  0  0  0  0  0  0  0  0  0  0
   55.2834   15.2706   41.2965 H   0  0  0  0  0  0  0  0  0  0  0  0
   53.7305   17.7306   38.7026 H   0  0  0  0  0  0  0  0  0  0  0  0
   53.3812   18.9947   40.2788 H   0  0  0  0  0  0  0  0  0  0  0  0
   55.3199   16.7711   42.9086 C   0  0  0  0  0  0  0  0  0  0  0  0
   55.0736   15.6841   43.7518 C   0  0  0  0  0  0  0  0  0  0  0  0
   55.8719   15.5949   44.7900 N   0  0  0  0  0  0  0  0  0  0  0  0
   56.7370   16.6844   44.6717 C   0  0  0  0  0  0  0  0  0  0  0  0
   57.8260   17.0964   45.5275 C   0  0  0  0  0  0  0  0  0  0  0  0
   58.2084   16.5484   46.5602 O   0  0  0  0  0  0  0  0  0  0  0  0
   58.4784   18.2603   45.0800 N   0  0  0  0  0  0  0  0  0  0  0  0
   58.1311   18.9722   43.9197 C   0  0  0  0  0  0  0  0  0  0  0  0
   57.1022   18.5887   43.1036 N   0  0  0  0  0  0  0  0  0  0  0  0
   56.4301   17.4304   43.5268 C   0  0  0  0  0  0  0  0  0  0  0  0
   55.8628   14.9099   45.4970 H   0  0  0  0  0  0  0  0  0  0  0  0
   57.7800   15.7731   46.8655 H   0  0  0  0  0  0  0  0  0  0  0  0
   57.2939   14.9340   38.8736 O   0  0  0  0  0  0  0  0  0  0  0  0
   56.9819   15.8972   39.8676 C   0  0  0  0  0  0  0  0  0  0  0  0
   58.2041   14.6231   38.9990 H   0  0  0  0  0  0  0  0  0  0  0  0
 23 24  1  0  0  0
 24  1  1  0  0  0
  1  2  1  0  0  0
  1  3  1  0  0  0
  2  7  1  0  0  0
  3  4  1  0  0  0
  3  5  1  0  0  0
  5  6  1  0  0  0
  5  7  1  0  0  0
  7 11  1  0  0  0
 11 12  2  0  0  0
 11 20  1  0  0  0
 12 13  1  0  0  0
 13 14  1  0  0  0
 14 15  1  0  0  0
 14 20  2  0  0  0
 15 16  1  0  0  0
 15 17  2  0  0  0
 17 18  1  0  0  0
 18 19  2  0  0  0
 19 20  1  0  0  0
 23 25  1  0  0  0
  2  8  1  0  0  0
  4  9  1  0  0  0
  6 10  1  0  0  0
 13 21  1  0  0  0
 16 22  1  0  0  0
M  END
> <minimizedAffinity>
-7.38444

$$$$
