5FDC_5WN_A_302


 18 19  0  0  0  0  0  0  0  0999 V2000
   -6.2760    4.5707   14.4037 S   0  0  0  0  0  0  0  0  0  0  0  0
   -4.9741    4.1902   13.3316 C   0  0  0  0  0  0  0  0  0  0  0  0
   -4.3351    3.0481   13.6185 C   0  0  0  0  0  0  0  0  0  0  0  0
   -4.9003    2.3888   14.7805 C   0  0  0  0  0  0  0  0  0  0  0  0
   -5.9944    3.1322   15.3257 C   0  0  0  0  0  0  0  0  0  0  0  0
   -4.5361    1.1535   15.4383 C   0  0  0  0  0  0  0  0  0  0  0  0
   -5.2405    0.7270   16.5562 C   0  0  0  0  0  0  0  0  0  0  0  0
   -6.3195    1.4783   17.0808 C   0  0  0  0  0  0  0  0  0  0  0  0
   -6.7148    2.7011   16.4665 C   0  0  0  0  0  0  0  0  0  0  0  0
   -3.1690    2.5161   12.8268 C   0  0  0  0  0  0  0  0  0  0  0  0
   -3.4718    1.2221   12.2359 N   0  0  0  0  0  0  0  0  0  0  0  0
   -4.2100    0.7785   12.7824 H   0  0  0  0  0  0  0  0  0  0  0  0
   -3.9625    1.3373   10.7023 S   0  0  0  0  0  0  0  0  0  0  0  0
   -3.7242    0.0842   10.0522 O   0  0  0  0  0  0  0  0  0  0  0  0
   -3.3390    2.5266   10.2133 O   0  0  0  0  0  0  0  0  0  0  0  0
   -5.5488    1.6025   10.7492 N   0  0  0  0  0  0  0  0  0  0  0  0
   -6.0228    0.7684   11.0955 H   0  0  0  0  0  0  0  0  0  0  0  0
   -5.8850    1.8199    9.8110 H   0  0  0  0  0  0  0  0  0  0  0  0
  8  9  2  0  0  0
  8  7  1  0  0  0
  9  5  1  0  0  0
  7  6  2  0  0  0
  5  1  1  0  0  0
  5  4  2  0  0  0
  6  4  1  0  0  0
  1  2  1  0  0  0
  4  3  1  0  0  0
  2  3  2  0  0  0
  3 10  1  0  0  0
 10 11  1  0  0  0
 11 13  1  0  0  0
 16 13  1  0  0  0
 14 13  2  0  0  0
 13 15  2  0  0  0
 16 17  1  0  0  0
 16 18  1  0  0  0
 11 12  1  0  0  0
M  END
> <minimizedAffinity>
-6.56534

$$$$
5FDC_5WN_A_302


 18 19  0  0  0  0  0  0  0  0999 V2000
   -3.3445    5.2286   11.8475 S   0  0  0  0  0  0  0  0  0  0  0  0
   -3.6618    3.9622   12.9810 C   0  0  0  0  0  0  0  0  0  0  0  0
   -4.8707    4.0222   13.5556 C   0  0  0  0  0  0  0  0  0  0  0  0
   -5.6410    5.1552   13.0787 C   0  0  0  0  0  0  0  0  0  0  0  0
   -4.9080    5.9218   12.1185 C   0  0  0  0  0  0  0  0  0  0  0  0
   -6.9738    5.6032   13.4170 C   0  0  0  0  0  0  0  0  0  0  0  0
   -7.4990    6.7392   12.8157 C   0  0  0  0  0  0  0  0  0  0  0  0
   -6.7565    7.4846   11.8688 C   0  0  0  0  0  0  0  0  0  0  0  0
   -5.4399    7.0818   11.5038 C   0  0  0  0  0  0  0  0  0  0  0  0
   -5.3665    3.0302   14.5752 C   0  0  0  0  0  0  0  0  0  0  0  0
   -4.6713    1.7577   14.4628 N   0  0  0  0  0  0  0  0  0  0  0  0
   -3.7771    1.9143   13.9977 H   0  0  0  0  0  0  0  0  0  0  0  0
   -4.3942    1.0705   15.8970 S   0  0  0  0  0  0  0  0  0  0  0  0
   -3.0824    1.4416   16.3343 O   0  0  0  0  0  0  0  0  0  0  0  0
   -4.7208   -0.3074   15.7050 O   0  0  0  0  0  0  0  0  0  0  0  0
   -5.4740    1.6899   16.9163 N   0  0  0  0  0  0  0  0  0  0  0  0
   -5.2664    2.6761   17.0736 H   0  0  0  0  0  0  0  0  0  0  0  0
   -5.4314    1.1878   17.8032 H   0  0  0  0  0  0  0  0  0  0  0  0
  8  9  2  0  0  0
  8  7  1  0  0  0
  9  5  1  0  0  0
  7  6  2  0  0  0
  5  1  1  0  0  0
  5  4  2  0  0  0
  6  4  1  0  0  0
  1  2  1  0  0  0
  4  3  1  0  0  0
  2  3  2  0  0  0
  3 10  1  0  0  0
 10 11  1  0  0  0
 11 13  1  0  0  0
 16 13  1  0  0  0
 14 13  2  0  0  0
 13 15  2  0  0  0
 16 17  1  0  0  0
 16 18  1  0  0  0
 11 12  1  0  0  0
M  END
> <minimizedAffinity>
-6.53143

$$$$
5FDC_5WN_A_302


 18 19  0  0  0  0  0  0  0  0999 V2000
   -6.2249    4.3050   14.2286 S   0  0  0  0  0  0  0  0  0  0  0  0
   -5.1138    3.6173   13.0965 C   0  0  0  0  0  0  0  0  0  0  0  0
   -4.5728    2.4552   13.4863 C   0  0  0  0  0  0  0  0  0  0  0  0
   -5.0596    2.0416   14.7888 C   0  0  0  0  0  0  0  0  0  0  0  0
   -5.9909    2.9857   15.3255 C   0  0  0  0  0  0  0  0  0  0  0  0
   -4.7543    0.8744   15.5862 C   0  0  0  0  0  0  0  0  0  0  0  0
   -5.3585    0.7007   16.8243 C   0  0  0  0  0  0  0  0  0  0  0  0
   -6.2764    1.6478   17.3380 C   0  0  0  0  0  0  0  0  0  0  0  0
   -6.6084    2.8127   16.5885 C   0  0  0  0  0  0  0  0  0  0  0  0
   -3.5777    1.6751   12.6674 C   0  0  0  0  0  0  0  0  0  0  0  0
   -3.1868    2.4016   11.4696 N   0  0  0  0  0  0  0  0  0  0  0  0
   -3.2572    3.4018   11.6571 H   0  0  0  0  0  0  0  0  0  0  0  0
   -1.6775    2.0684   11.0038 S   0  0  0  0  0  0  0  0  0  0  0  0
   -1.5123    2.5023    9.6495 O   0  0  0  0  0  0  0  0  0  0  0  0
   -1.4922    0.6922   11.3414 O   0  0  0  0  0  0  0  0  0  0  0  0
   -0.7061    2.9370   11.9476 N   0  0  0  0  0  0  0  0  0  0  0  0
   -0.8163    3.9272   11.7293 H   0  0  0  0  0  0  0  0  0  0  0  0
    0.2620    2.6590   11.7866 H   0  0  0  0  0  0  0  0  0  0  0  0
  8  9  2  0  0  0
  8  7  1  0  0  0
  9  5  1  0  0  0
  7  6  2  0  0  0
  5  1  1  0  0  0
  5  4  2  0  0  0
  6  4  1  0  0  0
  1  2  1  0  0  0
  4  3  1  0  0  0
  2  3  2  0  0  0
  3 10  1  0  0  0
 10 11  1  0  0  0
 11 13  1  0  0  0
 16 13  1  0  0  0
 14 13  2  0  0  0
 13 15  2  0  0  0
 16 17  1  0  0  0
 16 18  1  0  0  0
 11 12  1  0  0  0
M  END
> <minimizedAffinity>
-6.30601

$$$$
5FDC_5WN_A_302


 18 19  0  0  0  0  0  0  0  0999 V2000
   -1.9097    5.4109   13.5842 S   0  0  0  0  0  0  0  0  0  0  0  0
   -3.3023    4.4924   14.0383 C   0  0  0  0  0  0  0  0  0  0  0  0
   -3.5053    3.3919   13.3015 C   0  0  0  0  0  0  0  0  0  0  0  0
   -2.4874    3.2286   12.2808 C   0  0  0  0  0  0  0  0  0  0  0  0
   -1.5288    4.2899   12.3205 C   0  0  0  0  0  0  0  0  0  0  0  0
   -2.3100    2.2030   11.2768 C   0  0  0  0  0  0  0  0  0  0  0  0
   -1.2385    2.2699   10.3962 C   0  0  0  0  0  0  0  0  0  0  0  0
   -0.3018    3.3297   10.4513 C   0  0  0  0  0  0  0  0  0  0  0  0
   -0.4352    4.3623   11.4233 C   0  0  0  0  0  0  0  0  0  0  0  0
   -4.6548    2.4410   13.5107 C   0  0  0  0  0  0  0  0  0  0  0  0
   -4.2035    1.1713   14.0579 N   0  0  0  0  0  0  0  0  0  0  0  0
   -3.2148    1.0536   13.8367 H   0  0  0  0  0  0  0  0  0  0  0  0
   -4.3888    1.0821   15.6591 S   0  0  0  0  0  0  0  0  0  0  0  0
   -3.1876    1.5481   16.2834 O   0  0  0  0  0  0  0  0  0  0  0  0
   -4.8464   -0.2510   15.8948 O   0  0  0  0  0  0  0  0  0  0  0  0
   -5.5901    2.0837   16.0362 N   0  0  0  0  0  0  0  0  0  0  0  0
   -5.2926    3.0464   15.8778 H   0  0  0  0  0  0  0  0  0  0  0  0
   -5.8389    1.9619   17.0179 H   0  0  0  0  0  0  0  0  0  0  0  0
  8  9  2  0  0  0
  8  7  1  0  0  0
  9  5  1  0  0  0
  7  6  2  0  0  0
  5  1  1  0  0  0
  5  4  2  0  0  0
  6  4  1  0  0  0
  1  2  1  0  0  0
  4  3  1  0  0  0
  2  3  2  0  0  0
  3 10  1  0  0  0
 10 11  1  0  0  0
 11 13  1  0  0  0
 16 13  1  0  0  0
 14 13  2  0  0  0
 13 15  2  0  0  0
 16 17  1  0  0  0
 16 18  1  0  0  0
 11 12  1  0  0  0
M  END
> <minimizedAffinity>
-6.15073

$$$$
5FDC_5WN_A_302


 18 19  0  0  0  0  0  0  0  0999 V2000
   -1.3937    3.4108   11.2887 S   0  0  0  0  0  0  0  0  0  0  0  0
   -2.6768    2.3489   11.7527 C   0  0  0  0  0  0  0  0  0  0  0  0
   -3.4717    2.8285   12.7187 C   0  0  0  0  0  0  0  0  0  0  0  0
   -3.0604    4.1507   13.1514 C   0  0  0  0  0  0  0  0  0  0  0  0
   -1.9060    4.6016   12.4368 C   0  0  0  0  0  0  0  0  0  0  0  0
   -3.6166    5.0347   14.1517 C   0  0  0  0  0  0  0  0  0  0  0  0
   -3.0319    6.2715   14.3891 C   0  0  0  0  0  0  0  0  0  0  0  0
   -1.8886    6.6983   13.6718 C   0  0  0  0  0  0  0  0  0  0  0  0
   -1.3059    5.8620   12.6768 C   0  0  0  0  0  0  0  0  0  0  0  0
   -4.6501    2.0805   13.2856 C   0  0  0  0  0  0  0  0  0  0  0  0
   -4.2244    0.9944   14.1541 N   0  0  0  0  0  0  0  0  0  0  0  0
   -3.2318    0.8202   13.9962 H   0  0  0  0  0  0  0  0  0  0  0  0
   -4.4487    1.3234   15.7185 S   0  0  0  0  0  0  0  0  0  0  0  0
   -5.4932    2.2956   15.8345 O   0  0  0  0  0  0  0  0  0  0  0  0
   -3.1412    1.6159   16.2158 O   0  0  0  0  0  0  0  0  0  0  0  0
   -4.9373   -0.0459   16.4076 N   0  0  0  0  0  0  0  0  0  0  0  0
   -5.8709   -0.2815   16.0712 H   0  0  0  0  0  0  0  0  0  0  0  0
   -4.9608    0.0728   17.4204 H   0  0  0  0  0  0  0  0  0  0  0  0
  8  9  2  0  0  0
  8  7  1  0  0  0
  9  5  1  0  0  0
  7  6  2  0  0  0
  5  1  1  0  0  0
  5  4  2  0  0  0
  6  4  1  0  0  0
  1  2  1  0  0  0
  4  3  1  0  0  0
  2  3  2  0  0  0
  3 10  1  0  0  0
 10 11  1  0  0  0
 11 13  1  0  0  0
 16 13  1  0  0  0
 14 13  2  0  0  0
 13 15  2  0  0  0
 16 17  1  0  0  0
 16 18  1  0  0  0
 11 12  1  0  0  0
M  END
> <minimizedAffinity>
-6.09862

$$$$
5FDC_5WN_A_302


 18 19  0  0  0  0  0  0  0  0999 V2000
   -1.8983    5.5438   13.6877 S   0  0  0  0  0  0  0  0  0  0  0  0
   -1.6871    4.2984   12.5072 C   0  0  0  0  0  0  0  0  0  0  0  0
   -2.8017    3.6135   12.2180 C   0  0  0  0  0  0  0  0  0  0  0  0
   -3.9424    4.0909   12.9765 C   0  0  0  0  0  0  0  0  0  0  0  0
   -3.5819    5.1699   13.8440 C   0  0  0  0  0  0  0  0  0  0  0  0
   -5.3215    3.6557   12.9864 C   0  0  0  0  0  0  0  0  0  0  0  0
   -6.2420    4.2808   13.8169 C   0  0  0  0  0  0  0  0  0  0  0  0
   -5.8644    5.3461   14.6691 C   0  0  0  0  0  0  0  0  0  0  0  0
   -4.5177    5.8094   14.6935 C   0  0  0  0  0  0  0  0  0  0  0  0
   -2.8590    2.4829   11.2240 C   0  0  0  0  0  0  0  0  0  0  0  0
   -2.9131    1.1906   11.8891 N   0  0  0  0  0  0  0  0  0  0  0  0
   -3.2856    1.3229   12.8294 H   0  0  0  0  0  0  0  0  0  0  0  0
   -3.8446    0.1274   11.1094 S   0  0  0  0  0  0  0  0  0  0  0  0
   -4.1300   -0.9624   11.9928 O   0  0  0  0  0  0  0  0  0  0  0  0
   -3.1634   -0.1114    9.8761 O   0  0  0  0  0  0  0  0  0  0  0  0
   -5.2196    0.8898   10.7671 N   0  0  0  0  0  0  0  0  0  0  0  0
   -5.7299    1.0746   11.6307 H   0  0  0  0  0  0  0  0  0  0  0  0
   -5.7886    0.3058   10.1543 H   0  0  0  0  0  0  0  0  0  0  0  0
  8  9  2  0  0  0
  8  7  1  0  0  0
  9  5  1  0  0  0
  7  6  2  0  0  0
  5  1  1  0  0  0
  5  4  2  0  0  0
  6  4  1  0  0  0
  1  2  1  0  0  0
  4  3  1  0  0  0
  2  3  2  0  0  0
  3 10  1  0  0  0
 10 11  1  0  0  0
 11 13  1  0  0  0
 16 13  1  0  0  0
 14 13  2  0  0  0
 13 15  2  0  0  0
 16 17  1  0  0  0
 16 18  1  0  0  0
 11 12  1  0  0  0
M  END
> <minimizedAffinity>
-6.07849

$$$$
5FDC_5WN_A_302


 18 19  0  0  0  0  0  0  0  0999 V2000
   -6.2520    5.5217   13.4442 S   0  0  0  0  0  0  0  0  0  0  0  0
   -6.2635    3.9095   14.0685 C   0  0  0  0  0  0  0  0  0  0  0  0
   -5.0565    3.4380   14.4091 C   0  0  0  0  0  0  0  0  0  0  0  0
   -4.0081    4.4120   14.1712 C   0  0  0  0  0  0  0  0  0  0  0  0
   -4.5334    5.6269   13.6281 C   0  0  0  0  0  0  0  0  0  0  0  0
   -2.5803    4.3377   14.3885 C   0  0  0  0  0  0  0  0  0  0  0  0
   -1.7717    5.4216   14.0736 C   0  0  0  0  0  0  0  0  0  0  0  0
   -2.3113    6.6146   13.5356 C   0  0  0  0  0  0  0  0  0  0  0  0
   -3.7117    6.7344   13.3046 C   0  0  0  0  0  0  0  0  0  0  0  0
   -4.8206    2.0602   14.9709 C   0  0  0  0  0  0  0  0  0  0  0  0
   -4.8523    2.0648   16.4249 N   0  0  0  0  0  0  0  0  0  0  0  0
   -5.3044    2.9235   16.7388 H   0  0  0  0  0  0  0  0  0  0  0  0
   -5.6571    0.8050   17.0342 S   0  0  0  0  0  0  0  0  0  0  0  0
   -5.4849    0.7985   18.4555 O   0  0  0  0  0  0  0  0  0  0  0  0
   -5.2208   -0.3114   16.2560 O   0  0  0  0  0  0  0  0  0  0  0  0
   -7.2119    1.0526   16.7025 N   0  0  0  0  0  0  0  0  0  0  0  0
   -7.5531    1.8462   17.2449 H   0  0  0  0  0  0  0  0  0  0  0  0
   -7.7481    0.2194   16.9447 H   0  0  0  0  0  0  0  0  0  0  0  0
  8  9  2  0  0  0
  8  7  1  0  0  0
  9  5  1  0  0  0
  7  6  2  0  0  0
  5  1  1  0  0  0
  5  4  2  0  0  0
  6  4  1  0  0  0
  1  2  1  0  0  0
  4  3  1  0  0  0
  2  3  2  0  0  0
  3 10  1  0  0  0
 10 11  1  0  0  0
 11 13  1  0  0  0
 16 13  1  0  0  0
 14 13  2  0  0  0
 13 15  2  0  0  0
 16 17  1  0  0  0
 16 18  1  0  0  0
 11 12  1  0  0  0
M  END
> <minimizedAffinity>
-5.95750

$$$$
5FDC_5WN_A_302


 18 19  0  0  0  0  0  0  0  0999 V2000
   -2.9538    6.8260   11.7398 S   0  0  0  0  0  0  0  0  0  0  0  0
   -3.3441    5.4072   12.6475 C   0  0  0  0  0  0  0  0  0  0  0  0
   -4.6442    5.2792   12.9449 C   0  0  0  0  0  0  0  0  0  0  0  0
   -5.4299    6.3810   12.4222 C   0  0  0  0  0  0  0  0  0  0  0  0
   -4.6117    7.3257   11.7259 C   0  0  0  0  0  0  0  0  0  0  0  0
   -6.8482    6.6529   12.5006 C   0  0  0  0  0  0  0  0  0  0  0  0
   -7.3706    7.7965   11.9115 C   0  0  0  0  0  0  0  0  0  0  0  0
   -6.5432    8.7196   11.2281 C   0  0  0  0  0  0  0  0  0  0  0  0
   -5.1406    8.4940   11.1246 C   0  0  0  0  0  0  0  0  0  0  0  0
   -5.2173    4.1278   13.7293 C   0  0  0  0  0  0  0  0  0  0  0  0
   -4.2900    3.6636   14.7490 N   0  0  0  0  0  0  0  0  0  0  0  0
   -4.5045    4.1386   15.6258 H   0  0  0  0  0  0  0  0  0  0  0  0
   -4.3767    2.0698   14.9905 S   0  0  0  0  0  0  0  0  0  0  0  0
   -4.0462    1.4048   13.7664 O   0  0  0  0  0  0  0  0  0  0  0  0
   -5.6569    1.8659   15.5919 O   0  0  0  0  0  0  0  0  0  0  0  0
   -3.2587    1.7132   16.0913 N   0  0  0  0  0  0  0  0  0  0  0  0
   -2.3309    1.8496   15.6901 H   0  0  0  0  0  0  0  0  0  0  0  0
   -3.3645    0.7409   16.3807 H   0  0  0  0  0  0  0  0  0  0  0  0
  8  9  2  0  0  0
  8  7  1  0  0  0
  9  5  1  0  0  0
  7  6  2  0  0  0
  5  1  1  0  0  0
  5  4  2  0  0  0
  6  4  1  0  0  0
  1  2  1  0  0  0
  4  3  1  0  0  0
  2  3  2  0  0  0
  3 10  1  0  0  0
 10 11  1  0  0  0
 11 13  1  0  0  0
 16 13  1  0  0  0
 14 13  2  0  0  0
 13 15  2  0  0  0
 16 17  1  0  0  0
 16 18  1  0  0  0
 11 12  1  0  0  0
M  END
> <minimizedAffinity>
-5.92513

$$$$
5FDC_5WN_A_302


 18 19  0  0  0  0  0  0  0  0999 V2000
   -4.6309    7.1148   10.0725 S   0  0  0  0  0  0  0  0  0  0  0  0
   -3.4632    5.8399   10.0563 C   0  0  0  0  0  0  0  0  0  0  0  0
   -3.6331    4.9199   11.0154 C   0  0  0  0  0  0  0  0  0  0  0  0
   -4.7796    5.2168   11.8531 C   0  0  0  0  0  0  0  0  0  0  0  0
   -5.4329    6.4212   11.4416 C   0  0  0  0  0  0  0  0  0  0  0  0
   -5.3300    4.5108   12.9889 C   0  0  0  0  0  0  0  0  0  0  0  0
   -6.4534    5.0057   13.6376 C   0  0  0  0  0  0  0  0  0  0  0  0
   -7.0843    6.2004   13.2152 C   0  0  0  0  0  0  0  0  0  0  0  0
   -6.5785    6.9299   12.1013 C   0  0  0  0  0  0  0  0  0  0  0  0
   -2.7377    3.7224   11.1990 C   0  0  0  0  0  0  0  0  0  0  0  0
   -3.0987    2.6430   10.2936 N   0  0  0  0  0  0  0  0  0  0  0  0
   -2.2517    2.3001    9.8404 H   0  0  0  0  0  0  0  0  0  0  0  0
   -3.8157    1.4098   11.0493 S   0  0  0  0  0  0  0  0  0  0  0  0
   -3.4669    1.4607   12.4369 O   0  0  0  0  0  0  0  0  0  0  0  0
   -3.4758    0.2624   10.2682 O   0  0  0  0  0  0  0  0  0  0  0  0
   -5.4008    1.6454   10.9053 N   0  0  0  0  0  0  0  0  0  0  0  0
   -5.6746    2.4606   11.4538 H   0  0  0  0  0  0  0  0  0  0  0  0
   -5.8991    0.8233   11.2462 H   0  0  0  0  0  0  0  0  0  0  0  0
  8  9  2  0  0  0
  8  7  1  0  0  0
  9  5  1  0  0  0
  7  6  2  0  0  0
  5  1  1  0  0  0
  5  4  2  0  0  0
  6  4  1  0  0  0
  1  2  1  0  0  0
  4  3  1  0  0  0
  2  3  2  0  0  0
  3 10  1  0  0  0
 10 11  1  0  0  0
 11 13  1  0  0  0
 16 13  1  0  0  0
 14 13  2  0  0  0
 13 15  2  0  0  0
 16 17  1  0  0  0
 16 18  1  0  0  0
 11 12  1  0  0  0
M  END
> <minimizedAffinity>
-5.83887

$$$$
5FDC_5WN_A_302


 18 19  0  0  0  0  0  0  0  0999 V2000
   -3.8869    5.4154   13.1259 S   0  0  0  0  0  0  0  0  0  0  0  0
   -4.8855    4.7905   14.3913 C   0  0  0  0  0  0  0  0  0  0  0  0
   -5.0313    3.4587   14.3765 C   0  0  0  0  0  0  0  0  0  0  0  0
   -4.3003    2.8464   13.2832 C   0  0  0  0  0  0  0  0  0  0  0  0
   -3.6139    3.8251   12.4971 C   0  0  0  0  0  0  0  0  0  0  0  0
   -4.1726    1.4610   12.8888 C   0  0  0  0  0  0  0  0  0  0  0  0
   -3.4043    1.1207   11.7834 C   0  0  0  0  0  0  0  0  0  0  0  0
   -2.7341    2.1049   11.0179 C   0  0  0  0  0  0  0  0  0  0  0  0
   -2.8302    3.4821   11.3683 C   0  0  0  0  0  0  0  0  0  0  0  0
   -5.8571    2.6927   15.3769 C   0  0  0  0  0  0  0  0  0  0  0  0
   -5.0176    1.9705   16.3196 N   0  0  0  0  0  0  0  0  0  0  0  0
   -4.4828    2.6466   16.8648 H   0  0  0  0  0  0  0  0  0  0  0  0
   -5.8706    1.0484   17.3336 S   0  0  0  0  0  0  0  0  0  0  0  0
   -5.7747    1.6073   18.6482 O   0  0  0  0  0  0  0  0  0  0  0  0
   -5.4085   -0.2811   17.0863 O   0  0  0  0  0  0  0  0  0  0  0  0
   -7.4020    1.1305   16.8469 N   0  0  0  0  0  0  0  0  0  0  0  0
   -7.7610    2.0710   17.0111 H   0  0  0  0  0  0  0  0  0  0  0  0
   -7.9616    0.4569   17.3699 H   0  0  0  0  0  0  0  0  0  0  0  0
  8  9  2  0  0  0
  8  7  1  0  0  0
  9  5  1  0  0  0
  7  6  2  0  0  0
  5  1  1  0  0  0
  5  4  2  0  0  0
  6  4  1  0  0  0
  1  2  1  0  0  0
  4  3  1  0  0  0
  2  3  2  0  0  0
  3 10  1  0  0  0
 10 11  1  0  0  0
 11 13  1  0  0  0
 16 13  1  0  0  0
 14 13  2  0  0  0
 13 15  2  0  0  0
 16 17  1  0  0  0
 16 18  1  0  0  0
 11 12  1  0  0  0
M  END
> <minimizedAffinity>
-5.76905

$$$$
